1a_Ghoteimi_2023
     RDKit          3D

 40 43  0  0  0  0  0  0  0  0999 V2000
  131.2370  128.7650   73.1280 C   0  0  0  0  0  0  0  0  0  0  0  0
  129.8860  128.6250   73.8360 C   0  0  0  0  0  0  0  0  0  0  0  0
  129.3430  127.3390   73.5640 O   0  0  0  0  0  0  0  0  0  0  0  0
  128.2970  127.1850   72.7120 C   0  0  0  0  0  0  0  0  0  0  0  0
  127.1160  127.2030   73.0740 O   0  0  0  0  0  0  0  0  0  0  0  0
  128.7190  126.9960   71.2840 C   0  0  0  0  0  0  0  0  0  0  0  0
  128.7190  125.7340   70.6710 C   0  0  0  0  0  0  0  0  0  0  0  0
  129.1190  125.5890   69.3450 C   0  0  0  0  0  0  0  0  0  0  0  0
  129.5230  126.7100   68.6040 C   0  0  0  0  0  0  0  0  0  0  0  0
  129.9500  126.6780   67.2630 N   0  0  0  0  0  0  0  0  0  0  0  0
  131.1820  126.4620   66.7520 C   0  0  0  0  0  0  0  0  0  0  0  0
  132.1980  126.2270   67.4060 O   0  0  0  0  0  0  0  0  0  0  0  0
  131.2790  126.5150   65.2270 C   0  0  0  0  0  0  0  0  0  0  0  0
  132.7160  125.5890   64.6120 S   0  0  0  0  0  0  0  0  0  0  0  0
  132.1770  124.7620   63.1340 C   0  0  0  0  0  0  0  0  0  0  0  0
  131.7970  125.6020   62.1410 N   0  0  0  0  0  0  0  0  0  0  0  0
  131.3680  125.0960   60.9550 C   0  0  0  0  0  0  0  0  0  0  0  0
  130.9850  126.0910   59.8990 C   0  0  0  0  0  0  0  0  0  0  0  0
  130.2080  127.2200   60.2070 C   0  0  0  0  0  0  0  0  0  0  0  0
  129.8550  128.1420   59.2250 C   0  0  0  0  0  0  0  0  0  0  0  0
  130.2650  127.9640   57.9060 C   0  0  0  0  0  0  0  0  0  0  0  0
  129.8700  128.9300   56.9990 O   0  0  0  0  0  0  0  0  0  0  0  0
  129.4500  130.2020   57.4790 C   0  0  0  0  0  0  0  0  0  0  0  0
  131.0370  126.8400   57.5810 C   0  0  0  0  0  0  0  0  0  0  0  0
  131.3880  125.9210   58.5650 C   0  0  0  0  0  0  0  0  0  0  0  0
  131.3120  123.7120   60.7500 C   0  0  0  0  0  0  0  0  0  0  0  0
  131.6760  122.8230   61.7700 C   0  0  0  0  0  0  0  0  0  0  0  0
  131.5610  121.3600   61.4910 C   0  0  0  0  0  0  0  0  0  0  0  0
  132.6280  120.6510   60.9280 C   0  0  0  0  0  0  0  0  0  0  0  0
  132.5180  119.2850   60.6840 C   0  0  0  0  0  0  0  0  0  0  0  0
  131.3460  118.5990   61.0040 C   0  0  0  0  0  0  0  0  0  0  0  0
  131.3290  117.2460   60.7280 O   0  0  0  0  0  0  0  0  0  0  0  0
  130.2430  116.7030   59.9860 C   0  0  0  0  0  0  0  0  0  0  0  0
  130.2770  119.3050   61.5770 C   0  0  0  0  0  0  0  0  0  0  0  0
  130.3890  120.6720   61.8190 C   0  0  0  0  0  0  0  0  0  0  0  0
  132.1270  123.3580   63.0010 C   0  0  0  0  0  0  0  0  0  0  0  0
  132.5350  122.4780   64.1010 C   0  0  0  0  0  0  0  0  0  0  0  0
  132.8580  121.7820   64.9680 N   0  0  0  0  0  0  0  0  0  0  0  0
  129.5280  127.9650   69.2120 C   0  0  0  0  0  0  0  0  0  0  0  0
  129.1280  128.1090   70.5390 C   0  0  0  0  0  0  0  0  0  0  0  0
  1  2  1  0
  2  3  1  0
  3  4  1  0
  4  5  2  0
  4  6  1  0
  6  7  2  0
  7  8  1  0
  8  9  2  0
  9 10  1  0
 10 11  1  0
 11 12  2  0
 11 13  1  0
 13 14  1  0
 14 15  1  0
 15 16  2  0
 16 17  1  0
 17 18  1  0
 18 19  2  0
 19 20  1  0
 20 21  2  0
 21 22  1  0
 22 23  1  0
 21 24  1  0
 24 25  2  0
 17 26  2  0
 26 27  1  0
 27 28  1  0
 28 29  2  0
 29 30  1  0
 30 31  2  0
 31 32  1  0
 32 33  1  0
 31 34  1  0
 34 35  2  0
 27 36  2  0
 36 37  1  0
 37 38  3  0
  9 39  1  0
 39 40  2  0
 40  6  1  0
 36 15  1  0
 25 18  1  0
 35 28  1  0
M  END
>  <Binding energies>  (1) 
[-7.92]

>  <Ligand effiencies>  (1) 
[-0.19317073170731708]

>  <Interactions>  (1) 
["V-A:ASP:366:CG:3212, V-A:ASP:366:CB:3211, H-A:TYR:531:OH:4794, V-B:GLU:543:CD:9879, H-A:TYR:484:OH:4347, V-B:ALA:541:CB:9863, H-B:GLU:543:OE2:9881, V-A:LEU:475:CD2:4258, V-A:PRO:482:CG:4326, V-A:HIS:383:CE1:3393, V-B:TYR:539:CD2:9845, V-A:ILE:369:CG2:3236, V-B:TYR:539:CE2:9847, V-B:TYR:539:CB:9842, V-A:SER:385:CA:3406, V-A:GLY:454:CA:4048, V-B:VAL:344:CG1:7971, H-A:HIS:383:ND1:3390, H-A:GLY:454:N:4049, V-A:HIS:456:CE1:4069, V-B:GLU:543:CB:9877, V-A:GLU:543:CD:4907, V-B:HIS:456:CE1:9040, V-B:GLU:543:C:9873, V-A:GLY:544:C:4911, V-A:GLY:544:CA:4913, H-A:ARG:545:NH2:4927, V-A:TYR:484:CE2:4345, V-B:GLU:543:CA:9875"]

$$$$
1b_Ghoteimi_2023
     RDKit          3D

 34 37  0  0  0  0  0  0  0  0999 V2000
  129.8730  125.8930   68.1400 C   0  0  0  0  0  0  0  0  0  0  0  0
  130.2490  127.1280   67.5420 O   0  0  0  0  0  0  0  0  0  0  0  0
  130.2500  127.2370   66.1650 C   0  0  0  0  0  0  0  0  0  0  0  0
  131.2040  126.4860   65.4800 C   0  0  0  0  0  0  0  0  0  0  0  0
  131.2810  126.5330   64.0910 C   0  0  0  0  0  0  0  0  0  0  0  0
  130.4030  127.3310   63.3430 C   0  0  0  0  0  0  0  0  0  0  0  0
  130.4900  127.3810   61.8430 C   0  0  0  0  0  0  0  0  0  0  0  0
  130.5240  128.5790   61.1220 C   0  0  0  0  0  0  0  0  0  0  0  0
  130.6100  128.5710   59.7240 C   0  0  0  0  0  0  0  0  0  0  0  0
  130.6360  129.8870   59.0200 C   0  0  0  0  0  0  0  0  0  0  0  0
  129.4590  130.4330   58.5000 C   0  0  0  0  0  0  0  0  0  0  0  0
  129.4800  131.6560   57.8350 C   0  0  0  0  0  0  0  0  0  0  0  0
  130.6760  132.3550   57.6740 C   0  0  0  0  0  0  0  0  0  0  0  0
  130.6010  133.5600   57.0010 O   0  0  0  0  0  0  0  0  0  0  0  0
  130.3120  133.5590   55.6070 C   0  0  0  0  0  0  0  0  0  0  0  0
  131.8620  131.8070   58.1870 C   0  0  0  0  0  0  0  0  0  0  0  0
  131.8370  130.5840   58.8500 C   0  0  0  0  0  0  0  0  0  0  0  0
  130.6750  127.3210   59.0600 C   0  0  0  0  0  0  0  0  0  0  0  0
  130.8620  127.2590   57.6070 C   0  0  0  0  0  0  0  0  0  0  0  0
  131.0100  127.2110   56.4600 N   0  0  0  0  0  0  0  0  0  0  0  0
  130.6160  126.1490   59.8460 C   0  0  0  0  0  0  0  0  0  0  0  0
  130.6750  124.4960   59.1850 S   0  0  0  0  0  0  0  0  0  0  0  0
  129.5170  123.4650   60.1460 C   0  0  0  0  0  0  0  0  0  0  0  0
  128.1940  123.1400   59.4370 C   0  0  0  0  0  0  0  0  0  0  0  0
  127.1500  123.0150   60.0800 O   0  0  0  0  0  0  0  0  0  0  0  0
  128.2920  123.0080   58.0950 N   0  0  0  0  0  0  0  0  0  0  0  0
  127.2670  122.7190   57.2020 C   0  0  0  0  0  0  0  0  0  0  0  0
  125.9570  123.1620   57.3780 C   0  0  0  0  0  0  0  0  0  0  0  0
  125.2650  122.6710   56.2940 C   0  0  0  0  0  0  0  0  0  0  0  0
  126.1150  121.9720   55.5050 O   0  0  0  0  0  0  0  0  0  0  0  0
  127.3810  122.0100   56.0910 N   0  0  0  0  0  0  0  0  0  0  0  0
  130.5460  126.1860   61.1990 N   0  0  0  0  0  0  0  0  0  0  0  0
  129.4470  128.0840   64.0430 C   0  0  0  0  0  0  0  0  0  0  0  0
  129.3670  128.0410   65.4310 C   0  0  0  0  0  0  0  0  0  0  0  0
  1  2  1  0
  2  3  1  0
  3  4  2  0
  4  5  1  0
  5  6  2  0
  6  7  1  0
  7  8  2  0
  8  9  1  0
  9 10  1  0
 10 11  2  0
 11 12  1  0
 12 13  2  0
 13 14  1  0
 14 15  1  0
 13 16  1  0
 16 17  2  0
  9 18  2  0
 18 19  1  0
 19 20  3  0
 18 21  1  0
 21 22  1  0
 22 23  1  0
 23 24  1  0
 24 25  2  0
 24 26  1  0
 26 27  1  0
 27 28  1  0
 28 29  2  0
 29 30  1  0
 30 31  1  0
 21 32  2  0
  6 33  1  0
 33 34  2  0
 34  3  1  0
 32  7  1  0
 17 10  1  0
 31 27  2  0
M  END
>  <Binding energies>  (2) 
[-8.63]

>  <Ligand effiencies>  (2) 
[-0.24657142857142858]

>  <Interactions>  (2) 
["H-A:TYR:531:OH:4794, V-A:ILE:538:CA:4859, V-B:GLU:543:CD:9879, V-B:PRO:540:N:9855, V-B:PRO:540:CA:9854, V-B:TYR:539:C:9838, V-B:TYR:539:CD2:9845, V-B:TYR:539:CE2:9847, H-B:TYR:539:N:9841, V-B:TYR:539:CG:9843, V-B:MET:535:CE:9806, H-B:TYR:539:OH:9849, V-B:TYR:539:CZ:9848, V-B:PRO:540:CB:9856, V-B:PRO:540:CD:9858, V-B:TYR:531:CE2:9764, V-B:LEU:363:CD1:8159, V-A:HIS:456:CE1:4069, V-B:GLU:543:CB:9877, V-A:GLU:543:CD:4907, V-A:ILE:538:CB:4861, V-A:ILE:538:CG2:4862, V-A:TYR:484:CE2:4345, H-A:TYR:539:N:4869, V-A:ILE:538:C:4857"]

$$$$
1c_Ghoteimi_2023
     RDKit          3D

 34 37  0  0  0  0  0  0  0  0999 V2000
  128.9020  127.4820   55.4990 C   0  0  0  0  0  0  0  0  0  0  0  0
  130.2490  127.5690   55.9520 O   0  0  0  0  0  0  0  0  0  0  0  0
  130.6360  126.8430   57.0620 C   0  0  0  0  0  0  0  0  0  0  0  0
  129.7630  126.8450   58.1470 C   0  0  0  0  0  0  0  0  0  0  0  0
  130.0750  126.1430   59.3080 C   0  0  0  0  0  0  0  0  0  0  0  0
  131.2710  125.4170   59.4190 C   0  0  0  0  0  0  0  0  0  0  0  0
  131.6130  124.6620   60.6710 C   0  0  0  0  0  0  0  0  0  0  0  0
  131.6630  125.2690   61.9300 C   0  0  0  0  0  0  0  0  0  0  0  0
  131.9600  124.5180   63.0740 C   0  0  0  0  0  0  0  0  0  0  0  0
  131.9300  125.2180   64.3930 C   0  0  0  0  0  0  0  0  0  0  0  0
  133.1140  125.4720   65.0900 C   0  0  0  0  0  0  0  0  0  0  0  0
  133.0820  126.1050   66.3290 C   0  0  0  0  0  0  0  0  0  0  0  0
  131.8680  126.4900   66.8960 C   0  0  0  0  0  0  0  0  0  0  0  0
  131.9320  127.1120   68.1290 O   0  0  0  0  0  0  0  0  0  0  0  0
  130.8790  127.9860   68.5220 C   0  0  0  0  0  0  0  0  0  0  0  0
  130.6760  126.2300   66.2020 C   0  0  0  0  0  0  0  0  0  0  0  0
  130.7100  125.5970   64.9630 C   0  0  0  0  0  0  0  0  0  0  0  0
  132.2370  123.1390   62.9210 C   0  0  0  0  0  0  0  0  0  0  0  0
  132.5880  122.3050   64.0750 C   0  0  0  0  0  0  0  0  0  0  0  0
  132.8640  121.6480   64.9870 N   0  0  0  0  0  0  0  0  0  0  0  0
  132.1520  122.5880   61.6250 C   0  0  0  0  0  0  0  0  0  0  0  0
  132.3080  120.8440   61.3100 S   0  0  0  0  0  0  0  0  0  0  0  0
  130.6910  120.1410   61.7700 C   0  0  0  0  0  0  0  0  0  0  0  0
  129.6750  121.2250   62.1480 C   0  0  0  0  0  0  0  0  0  0  0  0
  129.6720  121.6830   63.2910 O   0  0  0  0  0  0  0  0  0  0  0  0
  128.8670  121.6310   61.1440 N   0  0  0  0  0  0  0  0  0  0  0  0
  127.9770  122.6930   61.1760 C   0  0  0  0  0  0  0  0  0  0  0  0
  127.2440  123.1020   62.1900 N   0  0  0  0  0  0  0  0  0  0  0  0
  126.5390  124.1710   61.8750 C   0  0  0  0  0  0  0  0  0  0  0  0
  126.6950  124.6520   60.5790 C   0  0  0  0  0  0  0  0  0  0  0  0
  127.8270  123.6410   59.7320 S   0  0  0  0  0  0  0  0  0  0  0  0
  131.8400  123.3290   60.5350 N   0  0  0  0  0  0  0  0  0  0  0  0
  132.1400  125.4160   58.3180 C   0  0  0  0  0  0  0  0  0  0  0  0
  131.8330  126.1180   57.1560 C   0  0  0  0  0  0  0  0  0  0  0  0
  1  2  1  0
  2  3  1  0
  3  4  2  0
  4  5  1  0
  5  6  2  0
  6  7  1  0
  7  8  2  0
  8  9  1  0
  9 10  1  0
 10 11  2  0
 11 12  1  0
 12 13  2  0
 13 14  1  0
 14 15  1  0
 13 16  1  0
 16 17  2  0
  9 18  2  0
 18 19  1  0
 19 20  3  0
 18 21  1  0
 21 22  1  0
 22 23  1  0
 23 24  1  0
 24 25  2  0
 24 26  1  0
 26 27  1  0
 27 28  2  0
 28 29  1  0
 29 30  2  0
 30 31  1  0
 21 32  2  0
  6 33  1  0
 33 34  2  0
 34  3  1  0
 32  7  1  0
 17 10  1  0
 31 27  1  0
M  END
>  <Binding energies>  (3) 
[-7.53]

>  <Ligand effiencies>  (3) 
[-0.21514285714285716]

>  <Interactions>  (3) 
["V-A:ASP:366:CG:3212, V-A:ASP:366:CB:3211, H-A:TYR:531:OH:4794, H-B:ALA:541:N:9862, H-A:TYR:484:OH:4347, V-B:ALA:541:CB:9863, V-B:PRO:540:CA:9854, V-B:PRO:540:C:9852, V-B:TYR:539:C:9838, V-A:LEU:475:CD2:4258, H-B:TYR:539:O:9839, V-B:TYR:539:CD2:9845, V-B:TYR:539:CE2:9847, V-A:GLY:454:CA:4048, V-B:MET:535:CE:9806, V-B:TYR:539:CZ:9848, H-A:GLY:454:N:4049, V-A:ARG:545:CD:4922, V-A:ARG:545:CZ:4925, V-A:ARG:545:CG:4921, V-A:HIS:456:CE1:4069, V-A:GLU:543:CD:4907, V-A:GLU:543:CB:4905, V-A:MET:535:CE:4834"]

$$$$
1d_Ghoteimi_2023
     RDKit          3D

 30 32  0  0  0  0  0  0  0  0999 V2000
  124.6350  129.5240   64.1540 C   0  0  0  0  0  0  0  0  0  0  0  0
  123.8600  129.9430   65.2670 O   0  0  0  0  0  0  0  0  0  0  0  0
  124.1610  129.5160   66.5110 C   0  0  0  0  0  0  0  0  0  0  0  0
  123.5450  129.7850   67.5430 O   0  0  0  0  0  0  0  0  0  0  0  0
  125.4020  128.6260   66.5340 C   0  0  0  0  0  0  0  0  0  0  0  0
  126.8240  129.6820   66.9440 S   0  0  0  0  0  0  0  0  0  0  0  0
  128.1400  128.6030   67.4630 C   0  0  0  0  0  0  0  0  0  0  0  0
  128.1730  128.3860   68.7990 N   0  0  0  0  0  0  0  0  0  0  0  0
  129.1300  127.5850   69.3330 C   0  0  0  0  0  0  0  0  0  0  0  0
  129.0930  127.3920   70.8210 C   0  0  0  0  0  0  0  0  0  0  0  0
  129.7250  128.2960   71.6890 C   0  0  0  0  0  0  0  0  0  0  0  0
  129.6950  128.1130   73.0680 C   0  0  0  0  0  0  0  0  0  0  0  0
  129.0340  127.0200   73.6230 C   0  0  0  0  0  0  0  0  0  0  0  0
  129.0590  126.9160   75.0010 O   0  0  0  0  0  0  0  0  0  0  0  0
  130.3040  127.0250   75.6820 C   0  0  0  0  0  0  0  0  0  0  0  0
  128.3980  126.1080   72.7700 C   0  0  0  0  0  0  0  0  0  0  0  0
  128.4290  126.2950   71.3910 C   0  0  0  0  0  0  0  0  0  0  0  0
  130.0820  126.9680   68.5120 C   0  0  0  0  0  0  0  0  0  0  0  0
  130.0810  127.1860   67.1290 C   0  0  0  0  0  0  0  0  0  0  0  0
  131.1300  126.5020   66.3130 C   0  0  0  0  0  0  0  0  0  0  0  0
  130.7880  125.8710   65.1130 C   0  0  0  0  0  0  0  0  0  0  0  0
  131.7600  125.2320   64.3480 C   0  0  0  0  0  0  0  0  0  0  0  0
  133.0910  125.2160   64.7620 C   0  0  0  0  0  0  0  0  0  0  0  0
  133.9850  124.5530   63.9440 O   0  0  0  0  0  0  0  0  0  0  0  0
  133.7810  124.5680   62.5350 C   0  0  0  0  0  0  0  0  0  0  0  0
  133.4410  125.8590   65.9590 C   0  0  0  0  0  0  0  0  0  0  0  0
  132.4680  126.4980   66.7220 C   0  0  0  0  0  0  0  0  0  0  0  0
  129.0950  128.0450   66.5820 C   0  0  0  0  0  0  0  0  0  0  0  0
  129.1100  128.3910   65.1580 C   0  0  0  0  0  0  0  0  0  0  0  0
  129.1230  128.6640   64.0330 N   0  0  0  0  0  0  0  0  0  0  0  0
  1  2  1  0
  2  3  1  0
  3  4  2  0
  3  5  1  0
  5  6  1  0
  6  7  1  0
  7  8  2  0
  8  9  1  0
  9 10  1  0
 10 11  2  0
 11 12  1  0
 12 13  2  0
 13 14  1  0
 14 15  1  0
 13 16  1  0
 16 17  2  0
  9 18  2  0
 18 19  1  0
 19 20  1  0
 20 21  2  0
 21 22  1  0
 22 23  2  0
 23 24  1  0
 24 25  1  0
 23 26  1  0
 26 27  2  0
 19 28  2  0
 28 29  1  0
 29 30  3  0
 28  7  1  0
 17 10  1  0
 27 20  1  0
M  END
>  <Binding energies>  (4) 
[-7.75]

>  <Ligand effiencies>  (4) 
[-0.25833333333333336]

>  <Interactions>  (4) 
["V-A:ASP:366:CG:3212, V-B:GLU:543:CD:9879, V-A:ILE:369:CD1:3238, H-A:GLY:454:N:4049, V-A:ARG:545:CD:4922, V-A:ARG:545:CZ:4925, V-A:ARG:545:CG:4921, V-A:HIS:456:CE1:4069, V-A:GLU:543:CD:4907, V-B:HIS:456:CE1:9040, H-B:LYS:547:NZ:9922, V-B:ARG:545:CD:9894, V-A:GLU:543:CG:4906, V-B:ARG:545:CG:9893, H-B:TYR:484:OH:9318, V-B:ARG:545:CZ:9897, H-B:GLY:454:N:9020, H-B:ILE:455:N:9025"]

$$$$
1j_Grossjean_2025
     RDKit          3D

 20 21  0  0  0  0  0  0  0  0999 V2000
  129.7840  116.6230   60.7590 C   0  0  0  0  0  0  0  0  0  0  0  0
  130.6740  117.8520   60.7350 C   0  0  0  0  0  0  0  0  0  0  0  0
  131.8940  117.8560   60.0620 C   0  0  0  0  0  0  0  0  0  0  0  0
  132.6650  119.0220   60.0620 C   0  0  0  0  0  0  0  0  0  0  0  0
  133.9910  119.0080   59.3030 C   0  0  0  0  0  0  0  0  0  0  0  0
  132.1940  120.1630   60.7510 C   0  0  0  0  0  0  0  0  0  0  0  0
  132.9610  121.4110   60.7210 C   0  0  0  0  0  0  0  0  0  0  0  0
  133.5690  122.3950   60.6940 N   0  0  0  0  0  0  0  0  0  0  0  0
  130.9570  120.0600   61.4300 C   0  0  0  0  0  0  0  0  0  0  0  0
  130.2150  121.3920   62.3470 S   0  0  0  0  0  0  0  0  0  0  0  0
  129.9160  122.7610   61.1890 C   0  0  0  0  0  0  0  0  0  0  0  0
  128.5620  122.6350   60.4890 C   0  0  0  0  0  0  0  0  0  0  0  0
  127.5570  122.3870   61.1570 O   0  0  0  0  0  0  0  0  0  0  0  0
  128.5790  122.8140   59.1500 N   0  0  0  0  0  0  0  0  0  0  0  0
  127.4910  122.7450   58.2910 C   0  0  0  0  0  0  0  0  0  0  0  0
  127.3690  122.0180   57.2010 N   0  0  0  0  0  0  0  0  0  0  0  0
  126.1960  122.1990   56.6280 C   0  0  0  0  0  0  0  0  0  0  0  0
  125.3330  123.0900   57.2600 C   0  0  0  0  0  0  0  0  0  0  0  0
  126.1110  123.7190   58.6810 S   0  0  0  0  0  0  0  0  0  0  0  0
  130.2050  118.9310   61.4050 N   0  0  0  0  0  0  0  0  0  0  0  0
  1  2  1  0
  2  3  2  0
  3  4  1  0
  4  5  1  0
  4  6  2  0
  6  7  1  0
  7  8  3  0
  6  9  1  0
  9 10  1  0
 10 11  1  0
 11 12  1  0
 12 13  2  0
 12 14  1  0
 14 15  1  0
 15 16  2  0
 16 17  1  0
 17 18  2  0
 18 19  1  0
  9 20  2  0
 20  2  1  0
 19 15  1  0
M  END
>  <Binding energies>  (5) 
[-7.3]

>  <Ligand effiencies>  (5) 
[-0.3476190476190476]

>  <Interactions>  (5) 
["V-B:PRO:540:N:9855, H-B:ALA:541:N:9862, V-B:PRO:540:CA:9854, V-B:TYR:539:C:9838, V-A:LEU:475:CD2:4258, V-A:PRO:482:CG:4326, V-A:HIS:383:CE1:3393, V-B:TYR:539:CD2:9845, V-A:ILE:369:CG2:3236, V-B:TYR:539:CE2:9847, V-B:TYR:539:CB:9842, V-A:SER:385:CA:3406, H-B:TYR:539:N:9841, V-B:VAL:344:CG1:7971, V-A:PRO:482:CB:4325, V-B:PRO:540:CB:9856, V-B:PRO:540:CD:9858, V-B:LEU:363:CD1:8159, V-B:ILE:538:CA:9831, V-A:LEU:373:CG:3278, V-A:LEU:373:CD2:3280, V-A:VAL:384:C:3396"]

$$$$
1o_Grossjean_2025
     RDKit          3D

 26 27  0  0  0  0  0  0  0  0999 V2000
  125.8990  122.0190   55.5110 C   0  0  0  0  0  0  0  0  0  0  0  0
  126.0880  123.2160   56.2530 O   0  0  0  0  0  0  0  0  0  0  0  0
  125.5250  123.3740   57.4790 C   0  0  0  0  0  0  0  0  0  0  0  0
  124.3110  123.5100   57.6580 O   0  0  0  0  0  0  0  0  0  0  0  0
  126.5270  123.3640   58.5980 C   0  0  0  0  0  0  0  0  0  0  0  0
  127.8260  122.8650   58.4270 C   0  0  0  0  0  0  0  0  0  0  0  0
  128.7320  122.8730   59.4850 C   0  0  0  0  0  0  0  0  0  0  0  0
  128.3570  123.3720   60.7330 C   0  0  0  0  0  0  0  0  0  0  0  0
  129.3530  123.3410   61.7290 N   0  0  0  0  0  0  0  0  0  0  0  0
  129.9840  122.2850   62.2890 C   0  0  0  0  0  0  0  0  0  0  0  0
  129.8150  121.1070   61.9720 O   0  0  0  0  0  0  0  0  0  0  0  0
  131.0070  122.6290   63.3820 C   0  0  0  0  0  0  0  0  0  0  0  0
  132.4290  122.8640   62.8350 C   0  0  0  0  0  0  0  0  0  0  0  0
  132.8970  124.6160   62.7220 S   0  0  0  0  0  0  0  0  0  0  0  0
  132.6960  125.3590   64.3290 C   0  0  0  0  0  0  0  0  0  0  0  0
  133.8130  125.2940   65.0970 N   0  0  0  0  0  0  0  0  0  0  0  0
  133.7830  125.8340   66.3380 C   0  0  0  0  0  0  0  0  0  0  0  0
  135.0730  125.7370   67.1310 C   0  0  0  0  0  0  0  0  0  0  0  0
  132.6460  126.4430   66.8640 C   0  0  0  0  0  0  0  0  0  0  0  0
  131.4810  126.4920   66.0920 C   0  0  0  0  0  0  0  0  0  0  0  0
  130.2440  127.1530   66.6970 C   0  0  0  0  0  0  0  0  0  0  0  0
  131.4880  125.9310   64.7940 C   0  0  0  0  0  0  0  0  0  0  0  0
  130.2610  125.9210   63.9940 C   0  0  0  0  0  0  0  0  0  0  0  0
  129.2910  125.9150   63.3630 N   0  0  0  0  0  0  0  0  0  0  0  0
  127.0610  123.8780   60.9100 C   0  0  0  0  0  0  0  0  0  0  0  0
  126.1570  123.8700   59.8510 C   0  0  0  0  0  0  0  0  0  0  0  0
  1  2  1  0
  2  3  1  0
  3  4  2  0
  3  5  1  0
  5  6  2  0
  6  7  1  0
  7  8  2  0
  8  9  1  0
  9 10  1  0
 10 11  2  0
 10 12  1  0
 12 13  1  0
 13 14  1  0
 14 15  1  0
 15 16  2  0
 16 17  1  0
 17 18  1  0
 17 19  2  0
 19 20  1  0
 20 21  1  0
 20 22  2  0
 22 23  1  0
 23 24  3  0
  8 25  1  0
 25 26  2  0
 26  5  1  0
 22 15  1  0
M  END
>  <Binding energies>  (6) 
[-7.24]

>  <Ligand effiencies>  (6) 
[-0.26814814814814814]

>  <Interactions>  (6) 
["V-B:PRO:540:N:9855, H-A:TYR:484:OH:4347, V-B:ALA:541:CB:9863, V-B:PRO:540:CA:9854, V-B:TYR:539:C:9838, V-A:LEU:475:CD2:4258, V-B:TYR:539:CD2:9845, V-B:TYR:539:CE2:9847, V-A:GLY:454:CA:4048, V-B:MET:535:CE:9806, V-B:PRO:540:CB:9856, H-A:GLY:454:N:4049, V-A:GLY:453:C:4041, V-A:ARG:545:CD:4922, V-B:PRO:540:CD:9858, V-A:ARG:545:CZ:4925, V-B:ILE:538:CD1:9836, V-A:ARG:545:CG:4921, V-A:HIS:456:CE1:4069, V-B:ILE:538:CG2:9834, V-A:GLU:543:CD:4907, V-B:ILE:538:CA:9831, V-A:GLY:453:CA:4043, V-B:ILE:538:C:9829, V-B:ILE:538:CB:9833, H-B:TYR:531:OH:9766, V-B:MET:535:CG:9804, V-A:ILE:455:C:4051, V-A:ARG:545:CB:4920"]

$$$$
1p_Grossjean_2025
     RDKit          3D

 21 22  0  0  0  0  0  0  0  0999 V2000
  129.8850  116.8690   60.7510 C   0  0  0  0  0  0  0  0  0  0  0  0
  130.7410  118.1140   60.8890 C   0  0  0  0  0  0  0  0  0  0  0  0
  132.0380  118.1650   60.3820 C   0  0  0  0  0  0  0  0  0  0  0  0
  132.7870  119.3350   60.5490 C   0  0  0  0  0  0  0  0  0  0  0  0
  134.2120  119.3650   59.9990 C   0  0  0  0  0  0  0  0  0  0  0  0
  132.2080  120.4370   61.2190 C   0  0  0  0  0  0  0  0  0  0  0  0
  132.9870  121.6540   61.4490 C   0  0  0  0  0  0  0  0  0  0  0  0
  133.6040  122.6170   61.6310 N   0  0  0  0  0  0  0  0  0  0  0  0
  130.8770  120.3030   61.6810 C   0  0  0  0  0  0  0  0  0  0  0  0
  129.9960  121.5920   62.5330 S   0  0  0  0  0  0  0  0  0  0  0  0
  128.7680  122.2490   61.3670 C   0  0  0  0  0  0  0  0  0  0  0  0
  129.2860  123.4230   60.5140 C   0  0  0  0  0  0  0  0  0  0  0  0
  128.5200  123.6090   59.1960 C   0  0  0  0  0  0  0  0  0  0  0  0
  128.5070  124.7150   58.6520 O   0  0  0  0  0  0  0  0  0  0  0  0
  127.9120  122.5030   58.7120 N   0  0  0  0  0  0  0  0  0  0  0  0
  127.1610  122.3970   57.5480 C   0  0  0  0  0  0  0  0  0  0  0  0
  125.8100  122.7350   57.4800 C   0  0  0  0  0  0  0  0  0  0  0  0
  125.4450  122.4930   56.1750 C   0  0  0  0  0  0  0  0  0  0  0  0
  126.5190  122.0310   55.4940 O   0  0  0  0  0  0  0  0  0  0  0  0
  127.6010  121.9730   56.3750 N   0  0  0  0  0  0  0  0  0  0  0  0
  130.1660  119.1560   61.5320 N   0  0  0  0  0  0  0  0  0  0  0  0
  1  2  1  0
  2  3  2  0
  3  4  1  0
  4  5  1  0
  4  6  2  0
  6  7  1  0
  7  8  3  0
  6  9  1  0
  9 10  1  0
 10 11  1  0
 11 12  1  0
 12 13  1  0
 13 14  2  0
 13 15  1  0
 15 16  1  0
 16 17  1  0
 17 18  2  0
 18 19  1  0
 19 20  1  0
  9 21  2  0
 21  2  1  0
 20 16  2  0
M  END
>  <Binding energies>  (7) 
[-8.13]

>  <Ligand effiencies>  (7) 
[-0.36954545454545457]

>  <Interactions>  (7) 
["V-B:PRO:540:N:9855, V-B:ALA:541:CB:9863, V-B:PRO:540:CA:9854, V-B:TYR:539:C:9838, V-A:LEU:475:CD2:4258, V-A:PRO:482:CG:4326, V-A:HIS:383:CE1:3393, H-B:TYR:539:O:9839, V-A:SER:385:C:3404, V-B:TYR:539:CD2:9845, V-A:ILE:369:CG2:3236, V-B:TYR:539:CE2:9847, V-B:TYR:539:CB:9842, V-A:SER:385:CA:3406, V-A:SER:385:CB:3408, H-B:TYR:539:N:9841, V-B:VAL:344:CG1:7971, V-A:PRO:482:CB:4325, V-B:PRO:540:CB:9856, V-B:TYR:539:CA:9840, V-B:PRO:540:CD:9858, V-B:TYR:531:CE2:9764, V-B:LEU:363:CD1:8159, V-B:ILE:538:CD1:9836, V-B:ILE:538:CG2:9834, V-A:VAL:384:C:3396"]

$$$$
2a_Ghoteimi_2023
     RDKit          3D

 48 53  0  0  0  0  0  0  0  0999 V2000
  133.5710  131.0000   59.1250 C   0  0  0  0  0  0  0  0  0  0  0  0
  132.5640  131.2680   58.0030 C   0  0  0  0  0  0  0  0  0  0  0  0
  132.0650  132.5930   58.1230 O   0  0  0  0  0  0  0  0  0  0  0  0
  131.0030  133.0130   57.3880 C   0  0  0  0  0  0  0  0  0  0  0  0
  131.1140  133.6180   56.3170 O   0  0  0  0  0  0  0  0  0  0  0  0
  129.6790  132.6610   58.0050 C   0  0  0  0  0  0  0  0  0  0  0  0
  128.7050  131.9320   57.3070 C   0  0  0  0  0  0  0  0  0  0  0  0
  127.4900  131.6220   57.9080 C   0  0  0  0  0  0  0  0  0  0  0  0
  127.2220  132.0270   59.2170 C   0  0  0  0  0  0  0  0  0  0  0  0
  125.9600  131.6630   59.7240 N   0  0  0  0  0  0  0  0  0  0  0  0
  124.7370  131.7690   59.1590 C   0  0  0  0  0  0  0  0  0  0  0  0
  124.5060  132.2750   58.0610 O   0  0  0  0  0  0  0  0  0  0  0  0
  123.5770  131.2390   60.0120 C   0  0  0  0  0  0  0  0  0  0  0  0
  123.7730  131.5100   61.8030 S   0  0  0  0  0  0  0  0  0  0  0  0
  124.7970  130.1760   62.3810 C   0  0  0  0  0  0  0  0  0  0  0  0
  125.0000  129.2040   61.4620 N   0  0  0  0  0  0  0  0  0  0  0  0
  125.7580  128.1270   61.7880 C   0  0  0  0  0  0  0  0  0  0  0  0
  125.9310  127.0880   60.7270 C   0  0  0  0  0  0  0  0  0  0  0  0
  125.5290  127.3250   59.4070 C   0  0  0  0  0  0  0  0  0  0  0  0
  125.6820  126.3500   58.4250 C   0  0  0  0  0  0  0  0  0  0  0  0
  126.2500  125.1040   58.7240 C   0  0  0  0  0  0  0  0  0  0  0  0
  126.3700  124.1230   57.7340 N   0  0  0  0  0  0  0  0  0  0  0  0
  125.1800  123.5170   57.1020 C   0  0  0  0  0  0  0  0  0  0  0  0
  125.4910  122.7410   55.8050 C   0  0  0  0  0  0  0  0  0  0  0  0
  126.4880  121.7620   56.0520 O   0  0  0  0  0  0  0  0  0  0  0  0
  127.6960  122.3560   56.5010 C   0  0  0  0  0  0  0  0  0  0  0  0
  127.4540  123.1220   57.8180 C   0  0  0  0  0  0  0  0  0  0  0  0
  126.6410  124.8660   60.0520 C   0  0  0  0  0  0  0  0  0  0  0  0
  126.4900  125.8420   61.0320 C   0  0  0  0  0  0  0  0  0  0  0  0
  126.3440  128.0110   63.0510 C   0  0  0  0  0  0  0  0  0  0  0  0
  126.1480  129.0060   64.0190 C   0  0  0  0  0  0  0  0  0  0  0  0
  126.7980  128.8150   65.3510 C   0  0  0  0  0  0  0  0  0  0  0  0
  126.0170  128.6510   66.4970 C   0  0  0  0  0  0  0  0  0  0  0  0
  126.6130  128.4930   67.7450 C   0  0  0  0  0  0  0  0  0  0  0  0
  128.0090  128.4910   67.8830 C   0  0  0  0  0  0  0  0  0  0  0  0
  128.6270  128.3520   69.1290 N   0  0  0  0  0  0  0  0  0  0  0  0
  128.0430  127.4340   70.1280 C   0  0  0  0  0  0  0  0  0  0  0  0
  129.0150  127.0830   71.2750 C   0  0  0  0  0  0  0  0  0  0  0  0
  129.4840  128.2710   71.8950 O   0  0  0  0  0  0  0  0  0  0  0  0
  130.1730  129.1050   70.9770 C   0  0  0  0  0  0  0  0  0  0  0  0
  129.2350  129.5060   69.8200 C   0  0  0  0  0  0  0  0  0  0  0  0
  128.7860  128.6680   66.7290 C   0  0  0  0  0  0  0  0  0  0  0  0
  128.1900  128.8280   65.4820 C   0  0  0  0  0  0  0  0  0  0  0  0
  125.3550  130.1290   63.6780 C   0  0  0  0  0  0  0  0  0  0  0  0
  125.1600  131.2280   64.6280 C   0  0  0  0  0  0  0  0  0  0  0  0
  125.0060  132.0940   65.3810 N   0  0  0  0  0  0  0  0  0  0  0  0
  128.1880  132.7640   59.9180 C   0  0  0  0  0  0  0  0  0  0  0  0
  129.4050  133.0730   59.3160 C   0  0  0  0  0  0  0  0  0  0  0  0
  1  2  1  0
  2  3  1  0
  3  4  1  0
  4  5  2  0
  4  6  1  0
  6  7  2  0
  7  8  1  0
  8  9  2  0
  9 10  1  0
 10 11  1  0
 11 12  2  0
 11 13  1  0
 13 14  1  0
 14 15  1  0
 15 16  2  0
 16 17  1  0
 17 18  1  0
 18 19  2  0
 19 20  1  0
 20 21  2  0
 21 22  1  0
 22 23  1  0
 23 24  1  0
 24 25  1  0
 25 26  1  0
 26 27  1  0
 21 28  1  0
 28 29  2  0
 17 30  2  0
 30 31  1  0
 31 32  1  0
 32 33  2  0
 33 34  1  0
 34 35  2  0
 35 36  1  0
 36 37  1  0
 37 38  1  0
 38 39  1  0
 39 40  1  0
 40 41  1  0
 35 42  1  0
 42 43  2  0
 31 44  2  0
 44 45  1  0
 45 46  3  0
  9 47  1  0
 47 48  2  0
 48  6  1  0
 44 15  1  0
 29 18  1  0
 43 32  1  0
 27 22  1  0
 41 36  1  0
M  END
>  <Binding energies>  (8) 
[-11.07]

>  <Ligand effiencies>  (8) 
[-0.2259183673469388]

>  <Interactions>  (8) 
["V-A:LEU:363:CA:3184, V-A:ASN:362:C:3171, V-A:TYR:539:CE1:4874, V-A:TYR:539:CD1:4872, V-A:ASP:366:CB:3211, V-A:PRO:540:CA:4882, V-A:TYR:531:CE2:4792, V-A:TYR:531:CZ:4793, V-B:GLU:543:CD:9879, V-B:PRO:540:N:9855, V-B:PRO:540:CA:9854, V-B:TYR:539:C:9838, V-B:TYR:539:CD2:9845, V-B:TYR:539:CE2:9847, H-B:TYR:539:N:9841, V-B:TYR:539:CG:9843, V-B:MET:535:CE:9806, V-B:TYR:539:CZ:9848, V-B:PRO:540:CB:9856, V-B:TYR:539:CA:9840, V-B:TYR:539:CD1:9844, V-B:TYR:531:CZ:9765, V-B:TYR:531:CE2:9764, V-B:LEU:363:CD1:8159, V-B:ILE:538:CD1:9836, V-A:HIS:456:CE1:4069, V-A:GLU:543:CD:4907, V-B:HIS:456:CE1:9040, V-A:GLU:543:CG:4906, V-A:GLU:543:CB:4905, V-A:GLU:543:C:4901, V-B:TYR:539:CE1:9846, V-B:ASP:366:CB:8182, H-B:TYR:484:OH:9318, V-A:PRO:540:N:4883, V-B:ASP:366:CG:8183, V-B:MET:535:CG:9804, H-A:TYR:539:N:4869, V-A:TYR:539:C:4866, V-B:TYR:484:CE2:9316, V-A:GLU:543:CA:4903, V-B:GLY:454:CA:9019, V-B:ILE:369:CG2:8207, H-B:GLY:454:N:9020, V-B:ILE:369:CB:8206"]

$$$$
2aa_Ghoteimi_2023
     RDKit          3D

 48 53  0  0  0  0  0  0  0  0999 V2000
  129.7990  123.9740   73.1250 C   0  0  0  0  0  0  0  0  0  0  0  0
  130.2280  125.3700   73.5900 C   0  0  0  0  0  0  0  0  0  0  0  0
  129.1910  125.9430   74.3760 O   0  0  0  0  0  0  0  0  0  0  0  0
  128.3800  126.9100   73.8720 C   0  0  0  0  0  0  0  0  0  0  0  0
  127.6510  127.6190   74.5730 O   0  0  0  0  0  0  0  0  0  0  0  0
  128.4700  127.0410   72.3790 C   0  0  0  0  0  0  0  0  0  0  0  0
  127.6400  126.3060   71.5200 C   0  0  0  0  0  0  0  0  0  0  0  0
  127.7440  126.4530   70.1400 C   0  0  0  0  0  0  0  0  0  0  0  0
  128.6840  127.3270   69.5900 C   0  0  0  0  0  0  0  0  0  0  0  0
  128.7020  127.3990   68.1840 N   0  0  0  0  0  0  0  0  0  0  0  0
  128.7290  128.4800   67.3740 C   0  0  0  0  0  0  0  0  0  0  0  0
  128.7740  129.6510   67.7560 O   0  0  0  0  0  0  0  0  0  0  0  0
  128.7260  128.1540   65.8740 C   0  0  0  0  0  0  0  0  0  0  0  0
  130.0480  127.7960   65.4570 O   0  0  0  0  0  0  0  0  0  0  0  0
  130.2700  127.3330   64.1670 C   0  0  0  0  0  0  0  0  0  0  0  0
  130.3570  128.2510   63.1640 N   0  0  0  0  0  0  0  0  0  0  0  0
  130.5770  127.8330   61.8920 C   0  0  0  0  0  0  0  0  0  0  0  0
  130.6550  128.8960   60.8420 C   0  0  0  0  0  0  0  0  0  0  0  0
  130.5600  128.5690   59.4860 C   0  0  0  0  0  0  0  0  0  0  0  0
  130.6250  129.5560   58.5050 C   0  0  0  0  0  0  0  0  0  0  0  0
  130.7740  130.9090   58.8460 C   0  0  0  0  0  0  0  0  0  0  0  0
  130.8540  131.9120   57.8720 N   0  0  0  0  0  0  0  0  0  0  0  0
  132.1430  132.2820   57.2530 C   0  0  0  0  0  0  0  0  0  0  0  0
  132.1030  133.6190   56.4830 C   0  0  0  0  0  0  0  0  0  0  0  0
  131.0650  133.5920   55.5170 O   0  0  0  0  0  0  0  0  0  0  0  0
  129.7960  133.4020   56.1230 C   0  0  0  0  0  0  0  0  0  0  0  0
  129.7680  132.0580   56.8820 C   0  0  0  0  0  0  0  0  0  0  0  0
  130.8910  131.2290   60.2060 C   0  0  0  0  0  0  0  0  0  0  0  0
  130.8280  130.2420   61.1860 C   0  0  0  0  0  0  0  0  0  0  0  0
  130.7010  126.4740   61.5890 C   0  0  0  0  0  0  0  0  0  0  0  0
  130.6050  125.5090   62.6000 C   0  0  0  0  0  0  0  0  0  0  0  0
  130.7200  124.0710   62.2120 C   0  0  0  0  0  0  0  0  0  0  0  0
  129.5900  123.2490   62.2030 C   0  0  0  0  0  0  0  0  0  0  0  0
  129.6940  121.9040   61.8620 C   0  0  0  0  0  0  0  0  0  0  0  0
  130.9350  121.3370   61.5320 C   0  0  0  0  0  0  0  0  0  0  0  0
  131.0620  119.9890   61.1820 N   0  0  0  0  0  0  0  0  0  0  0  0
  130.2320  118.9490   61.8180 C   0  0  0  0  0  0  0  0  0  0  0  0
  130.2560  117.6000   61.0680 C   0  0  0  0  0  0  0  0  0  0  0  0
  131.5960  117.1550   60.9140 O   0  0  0  0  0  0  0  0  0  0  0  0
  132.3730  118.0830   60.1740 C   0  0  0  0  0  0  0  0  0  0  0  0
  132.4050  119.4440   60.9000 C   0  0  0  0  0  0  0  0  0  0  0  0
  132.0620  122.1700   61.5360 C   0  0  0  0  0  0  0  0  0  0  0  0
  131.9580  123.5150   61.8770 C   0  0  0  0  0  0  0  0  0  0  0  0
  130.3980  125.9530   63.9270 C   0  0  0  0  0  0  0  0  0  0  0  0
  130.3350  125.0200   65.0540 C   0  0  0  0  0  0  0  0  0  0  0  0
  130.2860  124.2820   65.9440 N   0  0  0  0  0  0  0  0  0  0  0  0
  129.5130  128.0700   70.4430 C   0  0  0  0  0  0  0  0  0  0  0  0
  129.4040  127.9240   71.8230 C   0  0  0  0  0  0  0  0  0  0  0  0
  1  2  1  0
  2  3  1  0
  3  4  1  0
  4  5  2  0
  4  6  1  0
  6  7  2  0
  7  8  1  0
  8  9  2  0
  9 10  1  0
 10 11  1  0
 11 12  2  0
 11 13  1  0
 13 14  1  0
 14 15  1  0
 15 16  2  0
 16 17  1  0
 17 18  1  0
 18 19  2  0
 19 20  1  0
 20 21  2  0
 21 22  1  0
 22 23  1  0
 23 24  1  0
 24 25  1  0
 25 26  1  0
 26 27  1  0
 21 28  1  0
 28 29  2  0
 17 30  2  0
 30 31  1  0
 31 32  1  0
 32 33  2  0
 33 34  1  0
 34 35  2  0
 35 36  1  0
 36 37  1  0
 37 38  1  0
 38 39  1  0
 39 40  1  0
 40 41  1  0
 35 42  1  0
 42 43  2  0
 31 44  2  0
 44 45  1  0
 45 46  3  0
  9 47  1  0
 47 48  2  0
 48  6  1  0
 44 15  1  0
 29 18  1  0
 43 32  1  0
 27 22  1  0
 41 36  1  0
M  END
>  <Binding energies>  (9) 
[-10.89]

>  <Ligand effiencies>  (9) 
[-0.22224489795918367]

>  <Interactions>  (9) 
["V-A:TYR:539:CG:4871, V-A:TYR:539:CZ:4876, V-A:TYR:539:CE1:4874, V-A:TYR:539:CD1:4872, V-A:TYR:531:CE2:4792, V-A:TYR:531:CZ:4793, V-A:ILE:538:CA:4859, V-A:LEU:363:CD1:3188, V-B:GLU:543:CD:9879, H-A:TYR:484:OH:4347, V-B:ALA:541:CB:9863, H-B:GLU:543:OE2:9881, V-A:LEU:475:CD2:4258, V-A:PRO:482:CG:4326, V-A:HIS:383:CE1:3393, V-B:TYR:539:CD2:9845, V-A:PRO:482:CB:4325, H-A:HIS:383:ND1:3390, V-A:HIS:456:CE1:4069, V-B:GLU:543:CB:9877, V-A:GLU:543:CD:4907, V-B:HIS:456:CE1:9040, V-B:LYS:547:CE:9921, H-B:LYS:547:NZ:9922, V-A:HIS:456:CD2:4067, V-B:GLU:543:C:9873, V-A:ILE:538:CB:4861, H-A:ARG:545:NH2:4927, V-B:GLY:544:C:9883, V-A:PRO:540:N:4883, V-A:PRO:540:CD:4886, H-A:TYR:539:N:4869, V-A:HIS:456:CG:4065"]

$$$$
2b_Ghoteimi_2023
     RDKit          3D

 42 47  0  0  0  0  0  0  0  0999 V2000
  125.8710  132.3750   65.6160 N   0  0  0  0  0  0  0  0  0  0  0  0
  125.9350  131.4860   64.8780 C   0  0  0  0  0  0  0  0  0  0  0  0
  126.0170  130.3570   63.9470 C   0  0  0  0  0  0  0  0  0  0  0  0
  126.4780  129.0920   64.3900 C   0  0  0  0  0  0  0  0  0  0  0  0
  126.9040  128.8070   65.7920 C   0  0  0  0  0  0  0  0  0  0  0  0
  128.2600  128.7340   66.1160 C   0  0  0  0  0  0  0  0  0  0  0  0
  128.6620  128.4680   67.4220 C   0  0  0  0  0  0  0  0  0  0  0  0
  127.7170  128.2490   68.4370 C   0  0  0  0  0  0  0  0  0  0  0  0
  128.0950  127.9930   69.7560 N   0  0  0  0  0  0  0  0  0  0  0  0
  127.7000  126.7160   70.3830 C   0  0  0  0  0  0  0  0  0  0  0  0
  127.8420  126.7200   71.9200 C   0  0  0  0  0  0  0  0  0  0  0  0
  129.1640  127.0810   72.2870 O   0  0  0  0  0  0  0  0  0  0  0  0
  129.5060  128.3740   71.8120 C   0  0  0  0  0  0  0  0  0  0  0  0
  129.4150  128.4080   70.2720 C   0  0  0  0  0  0  0  0  0  0  0  0
  126.3580  128.3210   68.1010 C   0  0  0  0  0  0  0  0  0  0  0  0
  125.9560  128.5910   66.7970 C   0  0  0  0  0  0  0  0  0  0  0  0
  126.5350  128.0420   63.4650 C   0  0  0  0  0  0  0  0  0  0  0  0
  126.1140  128.2370   62.1460 C   0  0  0  0  0  0  0  0  0  0  0  0
  126.1260  127.1410   61.1280 C   0  0  0  0  0  0  0  0  0  0  0  0
  126.1190  127.4370   59.7610 C   0  0  0  0  0  0  0  0  0  0  0  0
  126.1460  126.4220   58.8080 C   0  0  0  0  0  0  0  0  0  0  0  0
  126.1690  125.0710   59.1870 C   0  0  0  0  0  0  0  0  0  0  0  0
  126.2270  124.0410   58.2410 N   0  0  0  0  0  0  0  0  0  0  0  0
  125.0560  123.7610   57.3850 C   0  0  0  0  0  0  0  0  0  0  0  0
  125.1170  122.3850   56.6860 C   0  0  0  0  0  0  0  0  0  0  0  0
  126.3250  122.2670   55.9500 O   0  0  0  0  0  0  0  0  0  0  0  0
  127.4600  122.3720   56.7940 C   0  0  0  0  0  0  0  0  0  0  0  0
  127.4690  123.7450   57.5000 C   0  0  0  0  0  0  0  0  0  0  0  0
  126.1840  124.7790   60.5580 C   0  0  0  0  0  0  0  0  0  0  0  0
  126.1590  125.7940   61.5100 C   0  0  0  0  0  0  0  0  0  0  0  0
  125.6720  129.4490   61.7250 N   0  0  0  0  0  0  0  0  0  0  0  0
  125.6390  130.4880   62.5920 C   0  0  0  0  0  0  0  0  0  0  0  0
  125.0380  132.0000   61.8700 S   0  0  0  0  0  0  0  0  0  0  0  0
  126.3440  132.6460   60.7820 C   0  0  0  0  0  0  0  0  0  0  0  0
  127.6940  132.7370   61.4960 C   0  0  0  0  0  0  0  0  0  0  0  0
  127.7480  133.2240   62.6260 O   0  0  0  0  0  0  0  0  0  0  0  0
  128.7520  132.2650   60.8010 N   0  0  0  0  0  0  0  0  0  0  0  0
  130.0760  132.2170   61.2130 C   0  0  0  0  0  0  0  0  0  0  0  0
  131.0730  131.5580   60.4950 C   0  0  0  0  0  0  0  0  0  0  0  0
  132.2230  131.7430   61.2260 C   0  0  0  0  0  0  0  0  0  0  0  0
  131.9340  132.4760   62.3270 O   0  0  0  0  0  0  0  0  0  0  0  0
  130.5690  132.7720   62.3070 N   0  0  0  0  0  0  0  0  0  0  0  0
  1  2  3  0
  2  3  1  0
  3  4  2  0
  4  5  1  0
  5  6  2  0
  6  7  1  0
  7  8  2  0
  8  9  1  0
  9 10  1  0
 10 11  1  0
 11 12  1  0
 12 13  1  0
 13 14  1  0
  8 15  1  0
 15 16  2  0
  4 17  1  0
 17 18  2  0
 18 19  1  0
 19 20  2  0
 20 21  1  0
 21 22  2  0
 22 23  1  0
 23 24  1  0
 24 25  1  0
 25 26  1  0
 26 27  1  0
 27 28  1  0
 22 29  1  0
 29 30  2  0
 18 31  1  0
 31 32  2  0
 32 33  1  0
 33 34  1  0
 34 35  1  0
 35 36  2  0
 35 37  1  0
 37 38  1  0
 38 39  1  0
 39 40  2  0
 40 41  1  0
 41 42  1  0
 32  3  1  0
 42 38  2  0
 16  5  1  0
 30 19  1  0
 14  9  1  0
 28 23  1  0
M  END
>  <Binding energies>  (10) 
[-9.96]

>  <Ligand effiencies>  (10) 
[-0.2316279069767442]

>  <Interactions>  (10) 
["H-A:ALA:541:N:4890, V-A:PRO:540:CB:4884, V-A:PRO:540:CA:4882, V-B:GLU:543:CD:9879, V-B:PRO:540:N:9855, V-B:TYR:539:C:9838, V-B:TYR:539:CD2:9845, H-B:TYR:539:N:9841, V-B:TYR:539:CG:9843, V-B:MET:535:CE:9806, V-B:PRO:540:CB:9856, V-B:TYR:539:CA:9840, V-B:TYR:539:CD1:9844, V-B:TYR:531:CZ:9765, V-B:PRO:540:CD:9858, V-B:TYR:531:CE2:9764, V-B:LEU:363:CD1:8159, V-A:HIS:456:CE1:4069, V-B:ILE:538:CG2:9834, V-B:GLU:543:CB:9877, V-A:GLU:543:CD:4907, V-B:HIS:456:CE1:9040, V-B:GLU:543:C:9873, V-B:TYR:539:CE1:9846, H-B:TYR:484:OH:9318, V-B:ASP:366:CG:8183, V-B:PRO:540:CG:9857"]

$$$$
2c_Ghoteimi_2023
     RDKit          3D

 42 47  0  0  0  0  0  0  0  0999 V2000
  126.9140  132.6140   65.4460 N   0  0  0  0  0  0  0  0  0  0  0  0
  126.8710  131.7200   64.7130 C   0  0  0  0  0  0  0  0  0  0  0  0
  126.8160  130.5830   63.7880 C   0  0  0  0  0  0  0  0  0  0  0  0
  127.0560  129.2650   64.2510 C   0  0  0  0  0  0  0  0  0  0  0  0
  127.3760  128.9270   65.6700 C   0  0  0  0  0  0  0  0  0  0  0  0
  128.7040  128.7590   66.0690 C   0  0  0  0  0  0  0  0  0  0  0  0
  129.0120  128.4480   67.3910 C   0  0  0  0  0  0  0  0  0  0  0  0
  127.9990  128.2820   68.3490 C   0  0  0  0  0  0  0  0  0  0  0  0
  128.2860  127.9910   69.6840 N   0  0  0  0  0  0  0  0  0  0  0  0
  127.9220  126.6670   70.2290 C   0  0  0  0  0  0  0  0  0  0  0  0
  127.9340  126.6190   71.7720 C   0  0  0  0  0  0  0  0  0  0  0  0
  129.1990  127.0380   72.2610 O   0  0  0  0  0  0  0  0  0  0  0  0
  129.5020  128.3660   71.8640 C   0  0  0  0  0  0  0  0  0  0  0  0
  129.5300  128.4610   70.3240 C   0  0  0  0  0  0  0  0  0  0  0  0
  126.6690  128.4490   67.9370 C   0  0  0  0  0  0  0  0  0  0  0  0
  126.3620  128.7620   66.6160 C   0  0  0  0  0  0  0  0  0  0  0  0
  126.9880  128.2130   63.3290 C   0  0  0  0  0  0  0  0  0  0  0  0
  126.6660  128.4620   61.9910 C   0  0  0  0  0  0  0  0  0  0  0  0
  126.5650  127.3720   60.9730 C   0  0  0  0  0  0  0  0  0  0  0  0
  126.5520  127.6700   59.6070 C   0  0  0  0  0  0  0  0  0  0  0  0
  126.4630  126.6590   58.6530 C   0  0  0  0  0  0  0  0  0  0  0  0
  126.3730  125.3100   59.0320 C   0  0  0  0  0  0  0  0  0  0  0  0
  126.3090  124.2810   58.0870 N   0  0  0  0  0  0  0  0  0  0  0  0
  127.4100  123.3010   57.9910 C   0  0  0  0  0  0  0  0  0  0  0  0
  127.3960  122.4800   56.6840 C   0  0  0  0  0  0  0  0  0  0  0  0
  126.1400  121.8430   56.5240 O   0  0  0  0  0  0  0  0  0  0  0  0
  125.0840  122.7880   56.4520 C   0  0  0  0  0  0  0  0  0  0  0  0
  125.0300  123.6230   57.7490 C   0  0  0  0  0  0  0  0  0  0  0  0
  126.4000  125.0160   60.4030 C   0  0  0  0  0  0  0  0  0  0  0  0
  126.4900  126.0270   61.3560 C   0  0  0  0  0  0  0  0  0  0  0  0
  126.4350  129.7250   61.5510 N   0  0  0  0  0  0  0  0  0  0  0  0
  126.5250  130.7630   62.4170 C   0  0  0  0  0  0  0  0  0  0  0  0
  126.2030  132.3440   61.6690 S   0  0  0  0  0  0  0  0  0  0  0  0
  127.0910  132.3880   60.0830 C   0  0  0  0  0  0  0  0  0  0  0  0
  128.5070  131.8210   60.2020 C   0  0  0  0  0  0  0  0  0  0  0  0
  128.7330  130.6730   59.8160 O   0  0  0  0  0  0  0  0  0  0  0  0
  129.4240  132.6520   60.7430 N   0  0  0  0  0  0  0  0  0  0  0  0
  130.7700  132.3850   60.9420 C   0  0  0  0  0  0  0  0  0  0  0  0
  131.4590  132.4950   62.0580 N   0  0  0  0  0  0  0  0  0  0  0  0
  132.7190  132.1510   61.8850 C   0  0  0  0  0  0  0  0  0  0  0  0
  133.0770  131.7490   60.6020 C   0  0  0  0  0  0  0  0  0  0  0  0
  131.6780  131.8310   59.5730 S   0  0  0  0  0  0  0  0  0  0  0  0
  1  2  3  0
  2  3  1  0
  3  4  2  0
  4  5  1  0
  5  6  2  0
  6  7  1  0
  7  8  2  0
  8  9  1  0
  9 10  1  0
 10 11  1  0
 11 12  1  0
 12 13  1  0
 13 14  1  0
  8 15  1  0
 15 16  2  0
  4 17  1  0
 17 18  2  0
 18 19  1  0
 19 20  2  0
 20 21  1  0
 21 22  2  0
 22 23  1  0
 23 24  1  0
 24 25  1  0
 25 26  1  0
 26 27  1  0
 27 28  1  0
 22 29  1  0
 29 30  2  0
 18 31  1  0
 31 32  2  0
 32 33  1  0
 33 34  1  0
 34 35  1  0
 35 36  2  0
 35 37  1  0
 37 38  1  0
 38 39  2  0
 39 40  1  0
 40 41  2  0
 41 42  1  0
 32  3  1  0
 42 38  1  0
 16  5  1  0
 30 19  1  0
 14  9  1  0
 28 23  1  0
M  END
>  <Binding energies>  (11) 
[-9.61]

>  <Ligand effiencies>  (11) 
[-0.22348837209302325]

>  <Interactions>  (11) 
["H-A:ALA:541:N:4890, V-A:ASN:362:C:3171, V-A:PRO:540:CB:4884, V-A:TYR:539:CE1:4874, V-A:TYR:539:CD1:4872, V-A:PRO:540:CA:4882, V-B:GLU:543:CD:9879, V-B:PRO:540:N:9855, V-B:TYR:539:C:9838, H-B:TYR:539:N:9841, V-B:TYR:539:CG:9843, V-B:MET:535:CE:9806, V-B:PRO:540:CB:9856, V-B:TYR:539:CA:9840, V-B:TYR:539:CD1:9844, V-B:PRO:540:CD:9858, V-B:TYR:531:CE2:9764, V-B:LEU:363:CD1:8159, V-A:HIS:456:CE1:4069, V-B:GLU:543:CB:9877, V-A:GLU:543:CD:4907, V-B:HIS:456:CE1:9040, V-A:GLU:543:CG:4906, V-A:GLU:543:CB:4905, V-B:TYR:539:CE1:9846, H-B:TYR:484:OH:9318, V-A:ASN:362:CB:3175, V-A:PRO:540:C:4880, H-A:TYR:539:O:4867"]

$$$$
2j_Grossjean_2025
     RDKit          3D

 23 24  0  0  0  0  0  0  0  0999 V2000
  129.1220  122.4310   66.1370 C   0  0  0  0  0  0  0  0  0  0  0  0
  129.1730  122.4120   64.6200 C   0  0  0  0  0  0  0  0  0  0  0  0
  130.3040  121.9750   63.9340 C   0  0  0  0  0  0  0  0  0  0  0  0
  130.3020  121.9730   62.5320 C   0  0  0  0  0  0  0  0  0  0  0  0
  131.5610  121.4850   61.7890 C   0  0  0  0  0  0  0  0  0  0  0  0
  132.5410  121.2460   62.6610 F   0  0  0  0  0  0  0  0  0  0  0  0
  131.2910  120.3620   61.1220 F   0  0  0  0  0  0  0  0  0  0  0  0
  132.0170  122.3760   60.9060 F   0  0  0  0  0  0  0  0  0  0  0  0
  129.1400  122.4210   61.8560 C   0  0  0  0  0  0  0  0  0  0  0  0
  129.0820  122.4410   60.3910 C   0  0  0  0  0  0  0  0  0  0  0  0
  129.0370  122.4550   59.2340 N   0  0  0  0  0  0  0  0  0  0  0  0
  128.0360  122.8490   62.6320 C   0  0  0  0  0  0  0  0  0  0  0  0
  126.5200  123.4320   61.8880 S   0  0  0  0  0  0  0  0  0  0  0  0
  126.9220  124.8250   60.7800 C   0  0  0  0  0  0  0  0  0  0  0  0
  126.4310  124.6630   59.3340 C   0  0  0  0  0  0  0  0  0  0  0  0
  125.9330  125.6140   58.7280 O   0  0  0  0  0  0  0  0  0  0  0  0
  126.5810  123.4220   58.8210 N   0  0  0  0  0  0  0  0  0  0  0  0
  126.2250  123.0020   57.5460 C   0  0  0  0  0  0  0  0  0  0  0  0
  126.9500  122.3120   56.6920 N   0  0  0  0  0  0  0  0  0  0  0  0
  126.2940  122.0860   55.5700 C   0  0  0  0  0  0  0  0  0  0  0  0
  125.0030  122.6010   55.4970 C   0  0  0  0  0  0  0  0  0  0  0  0
  124.6390  123.4240   56.9850 S   0  0  0  0  0  0  0  0  0  0  0  0
  128.0570  122.8410   63.9900 N   0  0  0  0  0  0  0  0  0  0  0  0
  1  2  1  0
  2  3  2  0
  3  4  1  0
  4  5  1  0
  5  6  1  0
  5  7  1  0
  5  8  1  0
  4  9  2  0
  9 10  1  0
 10 11  3  0
  9 12  1  0
 12 13  1  0
 13 14  1  0
 14 15  1  0
 15 16  2  0
 15 17  1  0
 17 18  1  0
 18 19  2  0
 19 20  1  0
 20 21  2  0
 21 22  1  0
 12 23  2  0
 23  2  1  0
 22 18  1  0
M  END
>  <Binding energies>  (12) 
[-5.81]

>  <Ligand effiencies>  (12) 
[-0.24208333333333332]

>  <Interactions>  (12) 
["V-B:GLU:543:CD:9879, V-B:PRO:540:N:9855, H-B:ALA:541:N:9862, V-B:ALA:541:CB:9863, V-B:PRO:540:CA:9854, V-B:ALA:541:CA:9861, V-B:TYR:539:C:9838, V-A:LEU:475:CD2:4258, H-B:TYR:539:O:9839, V-B:TYR:539:CD2:9845, V-B:TYR:539:CE2:9847, H-B:TYR:539:N:9841, V-B:MET:535:CE:9806, V-B:GLU:543:CG:9878, V-A:LEU:475:CD1:4257, V-B:PRO:540:CB:9856, V-B:TYR:531:CZ:9765, V-B:PRO:540:CD:9858, V-B:TYR:531:CE2:9764, V-B:LEU:363:CD1:8159, V-B:ILE:538:CD1:9836, V-B:ILE:538:CG2:9834, V-B:GLU:543:CB:9877, V-B:ILE:538:CA:9831, V-B:ILE:538:C:9829, V-B:ILE:538:CB:9833, V-A:TYR:484:CZ:4346, V-A:TYR:484:CE2:4345, H-B:TYR:531:OH:9766, V-B:MET:535:CG:9804, V-B:GLU:543:CA:9875"]

$$$$
3ab_Grossjean_2025
     RDKit          3D

 33 35  0  0  0  0  0  0  0  0999 V2000
  125.8110  122.2600   55.1420 C   0  0  0  0  0  0  0  0  0  0  0  0
  126.4930  122.2210   56.3890 O   0  0  0  0  0  0  0  0  0  0  0  0
  126.5020  123.2990   57.2140 C   0  0  0  0  0  0  0  0  0  0  0  0
  125.5220  124.0280   57.3920 O   0  0  0  0  0  0  0  0  0  0  0  0
  127.8240  123.5160   57.8920 C   0  0  0  0  0  0  0  0  0  0  0  0
  128.7410  124.4780   57.4420 C   0  0  0  0  0  0  0  0  0  0  0  0
  129.9590  124.6570   58.0920 C   0  0  0  0  0  0  0  0  0  0  0  0
  130.2830  123.8720   59.2090 C   0  0  0  0  0  0  0  0  0  0  0  0
  131.4800  123.9710   59.9450 N   0  0  0  0  0  0  0  0  0  0  0  0
  132.7420  124.1910   59.5200 C   0  0  0  0  0  0  0  0  0  0  0  0
  133.0870  124.3380   58.3480 O   0  0  0  0  0  0  0  0  0  0  0  0
  133.8030  124.2530   60.6210 C   0  0  0  0  0  0  0  0  0  0  0  0
  133.0990  124.7510   62.2220 S   0  0  0  0  0  0  0  0  0  0  0  0
  132.0020  123.4520   62.7510 C   0  0  0  0  0  0  0  0  0  0  0  0
  132.1300  122.3100   62.0340 N   0  0  0  0  0  0  0  0  0  0  0  0
  131.3580  121.2340   62.3330 C   0  0  0  0  0  0  0  0  0  0  0  0
  131.5630  120.0070   61.4940 C   0  0  0  0  0  0  0  0  0  0  0  0
  130.6070  118.9790   61.4790 C   0  0  0  0  0  0  0  0  0  0  0  0
  130.7910  117.8390   60.7010 C   0  0  0  0  0  0  0  0  0  0  0  0
  131.9400  117.7110   59.9260 C   0  0  0  0  0  0  0  0  0  0  0  0
  132.9040  118.7120   59.9260 C   0  0  0  0  0  0  0  0  0  0  0  0
  132.7160  119.8500   60.7050 C   0  0  0  0  0  0  0  0  0  0  0  0
  130.4120  121.2950   63.3630 C   0  0  0  0  0  0  0  0  0  0  0  0
  130.2470  122.4730   64.1070 C   0  0  0  0  0  0  0  0  0  0  0  0
  129.1910  122.5010   65.2280 C   0  0  0  0  0  0  0  0  0  0  0  0
  127.9720  122.8160   64.7830 F   0  0  0  0  0  0  0  0  0  0  0  0
  129.1050  121.3030   65.8100 F   0  0  0  0  0  0  0  0  0  0  0  0
  129.5290  123.4050   66.1490 F   0  0  0  0  0  0  0  0  0  0  0  0
  131.0580  123.5920   63.7920 C   0  0  0  0  0  0  0  0  0  0  0  0
  130.8870  124.8630   64.5000 C   0  0  0  0  0  0  0  0  0  0  0  0
  130.7500  125.8660   65.0610 N   0  0  0  0  0  0  0  0  0  0  0  0
  129.3710  122.9190   59.6630 C   0  0  0  0  0  0  0  0  0  0  0  0
  128.1540  122.7400   59.0110 C   0  0  0  0  0  0  0  0  0  0  0  0
  1  2  1  0
  2  3  1  0
  3  4  2  0
  3  5  1  0
  5  6  2  0
  6  7  1  0
  7  8  2  0
  8  9  1  0
  9 10  1  0
 10 11  2  0
 10 12  1  0
 12 13  1  0
 13 14  1  0
 14 15  2  0
 15 16  1  0
 16 17  1  0
 17 18  2  0
 18 19  1  0
 19 20  2  0
 20 21  1  0
 21 22  2  0
 16 23  2  0
 23 24  1  0
 24 25  1  0
 25 26  1  0
 25 27  1  0
 25 28  1  0
 24 29  2  0
 29 30  1  0
 30 31  3  0
  8 32  1  0
 32 33  2  0
 33  5  1  0
 29 14  1  0
 22 17  1  0
M  END
>  <Binding energies>  (13) 
[-8.41]

>  <Ligand effiencies>  (13) 
[-0.24735294117647058]

>  <Interactions>  (13) 
["V-A:ASP:366:CG:3212, V-A:ASP:366:CB:3211, V-B:GLU:543:CD:9879, V-B:PRO:540:N:9855, V-B:ALA:541:CB:9863, V-B:PRO:540:CA:9854, V-B:ALA:541:CA:9861, V-B:TYR:539:C:9838, V-A:LEU:475:CD2:4258, V-A:HIS:383:CE1:3393, V-A:ILE:369:CD1:3238, V-B:TYR:539:CD2:9845, V-A:ILE:369:CG2:3236, V-B:TYR:539:CE2:9847, V-B:TYR:539:CB:9842, V-A:SER:385:CA:3406, H-B:TYR:539:N:9841, V-B:MET:535:CE:9806, H-B:TYR:539:OH:9849, V-B:TYR:539:CZ:9848, V-B:GLU:543:CG:9878, V-A:LEU:475:CD1:4257, V-B:ALA:541:C:9859, V-B:TYR:531:CE2:9764, V-B:ILE:538:CD1:9836, V-B:ILE:538:CG2:9834, V-B:GLU:543:CB:9877, V-B:ILE:538:CA:9831, V-B:ILE:538:C:9829, V-B:ILE:538:CB:9833, V-A:TYR:484:CZ:4346, V-A:TYR:484:CE2:4345, H-B:TYR:531:OH:9766, V-B:MET:535:CG:9804, V-A:LEU:475:CG:4256"]

$$$$
3ac_Grossjean_2025
     RDKit          3D

 31 33  0  0  0  0  0  0  0  0999 V2000
  126.3120  122.0210   54.9790 C   0  0  0  0  0  0  0  0  0  0  0  0
  125.7180  123.1190   55.6640 O   0  0  0  0  0  0  0  0  0  0  0  0
  126.0330  123.3370   56.9910 C   0  0  0  0  0  0  0  0  0  0  0  0
  127.2910  122.9080   57.4110 C   0  0  0  0  0  0  0  0  0  0  0  0
  127.6990  123.0880   58.7290 C   0  0  0  0  0  0  0  0  0  0  0  0
  126.8460  123.6950   59.6530 C   0  0  0  0  0  0  0  0  0  0  0  0
  127.3530  123.8520   60.9560 N   0  0  0  0  0  0  0  0  0  0  0  0
  126.8040  123.4840   62.1340 C   0  0  0  0  0  0  0  0  0  0  0  0
  125.7360  122.8830   62.2640 O   0  0  0  0  0  0  0  0  0  0  0  0
  127.6050  123.8580   63.3810 C   0  0  0  0  0  0  0  0  0  0  0  0
  128.4900  122.4330   64.0840 S   0  0  0  0  0  0  0  0  0  0  0  0
  130.1420  122.3980   63.4150 C   0  0  0  0  0  0  0  0  0  0  0  0
  130.3760  121.3210   62.6270 N   0  0  0  0  0  0  0  0  0  0  0  0
  131.5910  121.1620   62.0410 C   0  0  0  0  0  0  0  0  0  0  0  0
  131.7690  119.9400   61.1910 C   0  0  0  0  0  0  0  0  0  0  0  0
  130.7960  118.9270   61.1750 C   0  0  0  0  0  0  0  0  0  0  0  0
  130.9530  117.7930   60.3830 C   0  0  0  0  0  0  0  0  0  0  0  0
  132.0910  117.6550   59.5950 C   0  0  0  0  0  0  0  0  0  0  0  0
  133.0720  118.6400   59.5950 C   0  0  0  0  0  0  0  0  0  0  0  0
  132.9110  119.7730   60.3890 C   0  0  0  0  0  0  0  0  0  0  0  0
  132.6150  122.0890   62.2540 C   0  0  0  0  0  0  0  0  0  0  0  0
  132.4070  123.2010   63.0830 C   0  0  0  0  0  0  0  0  0  0  0  0
  133.5650  124.1950   63.2950 C   0  0  0  0  0  0  0  0  0  0  0  0
  133.4400  125.3010   62.5590 F   0  0  0  0  0  0  0  0  0  0  0  0
  133.6210  124.5740   64.5730 F   0  0  0  0  0  0  0  0  0  0  0  0
  134.7220  123.6190   62.9650 F   0  0  0  0  0  0  0  0  0  0  0  0
  131.1390  123.3600   63.6980 C   0  0  0  0  0  0  0  0  0  0  0  0
  130.8990  124.4620   64.6320 C   0  0  0  0  0  0  0  0  0  0  0  0
  130.7100  125.3330   65.3710 N   0  0  0  0  0  0  0  0  0  0  0  0
  125.5800  124.1360   59.2370 C   0  0  0  0  0  0  0  0  0  0  0  0
  125.1760  123.9550   57.9170 C   0  0  0  0  0  0  0  0  0  0  0  0
  1  2  1  0
  2  3  1  0
  3  4  2  0
  4  5  1  0
  5  6  2  0
  6  7  1  0
  7  8  1  0
  8  9  2  0
  8 10  1  0
 10 11  1  0
 11 12  1  0
 12 13  2  0
 13 14  1  0
 14 15  1  0
 15 16  2  0
 16 17  1  0
 17 18  2  0
 18 19  1  0
 19 20  2  0
 14 21  2  0
 21 22  1  0
 22 23  1  0
 23 24  1  0
 23 25  1  0
 23 26  1  0
 22 27  2  0
 27 28  1  0
 28 29  3  0
  6 30  1  0
 30 31  2  0
 31  3  1  0
 27 12  1  0
 20 15  1  0
M  END
>  <Binding energies>  (14) 
[-8.97]

>  <Ligand effiencies>  (14) 
[-0.2803125]

>  <Interactions>  (14) 
["V-A:ASP:366:CG:3212, V-B:GLU:543:CD:9879, V-B:PRO:540:N:9855, H-B:ALA:541:N:9862, H-A:TYR:484:OH:4347, V-B:ALA:541:CB:9863, V-B:PRO:540:CA:9854, V-B:TYR:539:C:9838, V-A:LEU:475:CD2:4258, V-A:HIS:383:CE1:3393, V-A:ILE:369:CD1:3238, V-B:TYR:539:CD2:9845, V-A:ILE:369:CG2:3236, V-B:TYR:539:CE2:9847, V-B:TYR:539:CB:9842, V-A:SER:385:CA:3406, V-A:GLY:454:CA:4048, V-B:MET:535:CE:9806, V-B:GLU:543:CG:9878, V-B:PRO:540:CB:9856, V-A:GLY:453:C:4041, V-A:ARG:545:CZ:4925, V-B:ILE:538:CD1:9836, V-B:ILE:538:CG2:9834, V-B:ILE:538:CA:9831, V-A:GLY:453:CA:4043, V-B:ILE:538:C:9829, V-B:ILE:538:CB:9833, V-A:LEU:373:CD2:3280, H-B:TYR:531:OH:9766, V-B:MET:535:CG:9804, V-B:VAL:537:C:9821"]

$$$$
3af_Grossjean_2025
     RDKit          3D

 29 31  0  0  0  0  0  0  0  0999 V2000
  130.6230  125.6530   64.4640 N   0  0  0  0  0  0  0  0  0  0  0  0
  130.7750  124.6270   63.9520 C   0  0  0  0  0  0  0  0  0  0  0  0
  130.9700  123.3280   63.3030 C   0  0  0  0  0  0  0  0  0  0  0  0
  132.2600  122.9100   62.8960 C   0  0  0  0  0  0  0  0  0  0  0  0
  133.5260  123.7530   63.1470 C   0  0  0  0  0  0  0  0  0  0  0  0
  133.5930  124.2290   64.3930 F   0  0  0  0  0  0  0  0  0  0  0  0
  134.6150  123.0110   62.9420 F   0  0  0  0  0  0  0  0  0  0  0  0
  133.5520  124.7980   62.3200 F   0  0  0  0  0  0  0  0  0  0  0  0
  132.3890  121.6820   62.2290 C   0  0  0  0  0  0  0  0  0  0  0  0
  131.2610  120.8940   61.9750 C   0  0  0  0  0  0  0  0  0  0  0  0
  131.3390  119.5840   61.2500 C   0  0  0  0  0  0  0  0  0  0  0  0
  130.3400  118.6110   61.4180 C   0  0  0  0  0  0  0  0  0  0  0  0
  130.4050  117.3930   60.7460 C   0  0  0  0  0  0  0  0  0  0  0  0
  131.4730  117.1320   59.8950 C   0  0  0  0  0  0  0  0  0  0  0  0
  132.4740  118.0790   59.7080 C   0  0  0  0  0  0  0  0  0  0  0  0
  132.4050  119.2960   60.3820 C   0  0  0  0  0  0  0  0  0  0  0  0
  130.0260  121.3000   62.3630 N   0  0  0  0  0  0  0  0  0  0  0  0
  129.8790  122.4720   63.0290 C   0  0  0  0  0  0  0  0  0  0  0  0
  128.1900  122.8260   63.4690 S   0  0  0  0  0  0  0  0  0  0  0  0
  127.5780  124.1230   62.3510 C   0  0  0  0  0  0  0  0  0  0  0  0
  126.7320  123.5440   61.2170 C   0  0  0  0  0  0  0  0  0  0  0  0
  125.6670  122.9900   61.4880 O   0  0  0  0  0  0  0  0  0  0  0  0
  127.2480  123.6900   59.9780 N   0  0  0  0  0  0  0  0  0  0  0  0
  126.7330  123.2700   58.7360 C   0  0  0  0  0  0  0  0  0  0  0  0
  125.4390  123.5340   58.2510 C   0  0  0  0  0  0  0  0  0  0  0  0
  125.0590  123.0520   56.9960 C   0  0  0  0  0  0  0  0  0  0  0  0
  125.9840  122.3150   56.2550 C   0  0  0  0  0  0  0  0  0  0  0  0
  127.2370  122.0470   56.7000 N   0  0  0  0  0  0  0  0  0  0  0  0
  127.5910  122.5230   57.9210 C   0  0  0  0  0  0  0  0  0  0  0  0
  1  2  3  0
  2  3  1  0
  3  4  2  0
  4  5  1  0
  5  6  1  0
  5  7  1  0
  5  8  1  0
  4  9  1  0
  9 10  2  0
 10 11  1  0
 11 12  2  0
 12 13  1  0
 13 14  2  0
 14 15  1  0
 15 16  2  0
 10 17  1  0
 17 18  2  0
 18 19  1  0
 19 20  1  0
 20 21  1  0
 21 22  2  0
 21 23  1  0
 23 24  1  0
 24 25  2  0
 25 26  1  0
 26 27  2  0
 27 28  1  0
 28 29  2  0
 18  3  1  0
 29 24  1  0
 16 11  1  0
M  END
>  <Binding energies>  (15) 
[-8.75]

>  <Ligand effiencies>  (15) 
[-0.2916666666666667]

>  <Interactions>  (15) 
["V-A:ASP:366:CG:3212, V-B:GLU:543:CD:9879, V-B:PRO:540:N:9855, H-B:ALA:541:N:9862, V-B:ALA:541:CB:9863, V-B:PRO:540:CA:9854, V-B:TYR:539:C:9838, V-A:LEU:475:CD2:4258, V-A:PRO:482:CG:4326, V-A:HIS:383:CE1:3393, V-A:ILE:369:CD1:3238, V-B:TYR:539:CD2:9845, V-B:TYR:539:CE2:9847, V-B:TYR:539:CB:9842, V-A:GLY:454:CA:4048, H-B:TYR:539:N:9841, V-B:TYR:539:CG:9843, V-B:MET:535:CE:9806, V-A:PRO:482:CB:4325, V-B:PRO:540:CB:9856, V-A:GLY:453:C:4041, V-B:PRO:540:CD:9858, V-B:TYR:531:CE2:9764, V-B:LEU:363:CD1:8159, V-B:ILE:538:CA:9831"]

$$$$
3ag_Grossjean_2025
     RDKit          3D

 30 32  0  0  0  0  0  0  0  0999 V2000
  131.4060  125.7330   64.4860 N   0  0  0  0  0  0  0  0  0  0  0  0
  131.4550  124.7010   63.9630 C   0  0  0  0  0  0  0  0  0  0  0  0
  131.5210  123.3950   63.3010 C   0  0  0  0  0  0  0  0  0  0  0  0
  132.7140  122.9610   62.6740 C   0  0  0  0  0  0  0  0  0  0  0  0
  134.0140  123.7880   62.6970 C   0  0  0  0  0  0  0  0  0  0  0  0
  135.1090  123.0290   62.7720 F   0  0  0  0  0  0  0  0  0  0  0  0
  134.1070  124.5180   61.5850 F   0  0  0  0  0  0  0  0  0  0  0  0
  134.0220  124.6030   63.7520 F   0  0  0  0  0  0  0  0  0  0  0  0
  132.7110  121.7260   62.0070 C   0  0  0  0  0  0  0  0  0  0  0  0
  131.5460  120.9530   61.9560 C   0  0  0  0  0  0  0  0  0  0  0  0
  131.4850  119.6300   61.2560 C   0  0  0  0  0  0  0  0  0  0  0  0
  130.4000  118.7610   61.4580 C   0  0  0  0  0  0  0  0  0  0  0  0
  130.3370  117.5300   60.8110 C   0  0  0  0  0  0  0  0  0  0  0  0
  131.3620  117.1490   59.9510 C   0  0  0  0  0  0  0  0  0  0  0  0
  132.4490  117.9900   59.7360 C   0  0  0  0  0  0  0  0  0  0  0  0
  132.5090  119.2200   60.3850 C   0  0  0  0  0  0  0  0  0  0  0  0
  130.4070  121.3670   62.5700 N   0  0  0  0  0  0  0  0  0  0  0  0
  130.3930  122.5470   63.2360 C   0  0  0  0  0  0  0  0  0  0  0  0
  128.8210  122.9250   63.9780 S   0  0  0  0  0  0  0  0  0  0  0  0
  127.7790  123.6710   62.6890 C   0  0  0  0  0  0  0  0  0  0  0  0
  128.0860  123.1090   61.3000 C   0  0  0  0  0  0  0  0  0  0  0  0
  128.0160  121.8950   61.0990 O   0  0  0  0  0  0  0  0  0  0  0  0
  128.4190  124.0040   60.3530 N   0  0  0  0  0  0  0  0  0  0  0  0
  128.7160  123.6900   58.9560 C   0  0  0  0  0  0  0  0  0  0  0  0
  127.4830  123.3970   58.1090 C   0  0  0  0  0  0  0  0  0  0  0  0
  127.6120  122.6630   56.9260 C   0  0  0  0  0  0  0  0  0  0  0  0
  126.4840  122.3670   56.1650 C   0  0  0  0  0  0  0  0  0  0  0  0
  125.2300  122.7980   56.5940 C   0  0  0  0  0  0  0  0  0  0  0  0
  125.0930  123.5170   57.7790 C   0  0  0  0  0  0  0  0  0  0  0  0
  126.2200  123.8120   58.5410 C   0  0  0  0  0  0  0  0  0  0  0  0
  1  2  3  0
  2  3  1  0
  3  4  2  0
  4  5  1  0
  5  6  1  0
  5  7  1  0
  5  8  1  0
  4  9  1  0
  9 10  2  0
 10 11  1  0
 11 12  2  0
 12 13  1  0
 13 14  2  0
 14 15  1  0
 15 16  2  0
 10 17  1  0
 17 18  2  0
 18 19  1  0
 19 20  1  0
 20 21  1  0
 21 22  2  0
 21 23  1  0
 23 24  1  0
 24 25  1  0
 25 26  2  0
 26 27  1  0
 27 28  2  0
 28 29  1  0
 29 30  2  0
 18  3  1  0
 30 25  1  0
 16 11  1  0
M  END
>  <Binding energies>  (16) 
[-8.38]

>  <Ligand effiencies>  (16) 
[-0.2703225806451613]

>  <Interactions>  (16) 
["V-A:ASP:366:CG:3212, V-B:GLU:543:CD:9879, V-B:PRO:540:N:9855, H-B:ALA:541:N:9862, V-B:ALA:541:CB:9863, V-B:PRO:540:CA:9854, V-B:TYR:539:C:9838, V-A:LEU:475:CD2:4258, V-A:PRO:482:CG:4326, V-A:HIS:383:CE1:3393, V-A:ILE:369:CD1:3238, V-B:TYR:539:CD2:9845, V-B:TYR:539:CE2:9847, V-B:TYR:539:CB:9842, V-A:GLY:454:CA:4048, V-B:TYR:539:CG:9843, V-B:MET:535:CE:9806, V-B:TYR:539:CZ:9848, V-A:PRO:482:CB:4325, V-B:PRO:540:CB:9856, V-A:GLY:453:C:4041, V-B:TYR:539:CD1:9844, V-B:PRO:540:CD:9858, V-B:TYR:531:CE2:9764, V-B:LEU:363:CD1:8159, V-B:ILE:538:CA:9831, V-A:GLY:453:CA:4043, V-B:TYR:539:CE1:9846"]

$$$$
3bc_Grossjean_2025
     RDKit          3D

 28 30  0  0  0  0  0  0  0  0999 V2000
  125.0960  122.3710   55.5230 C   0  0  0  0  0  0  0  0  0  0  0  0
  126.4560  122.3250   55.9380 O   0  0  0  0  0  0  0  0  0  0  0  0
  126.7770  122.6840   57.2340 C   0  0  0  0  0  0  0  0  0  0  0  0
  128.0750  122.3950   57.6550 C   0  0  0  0  0  0  0  0  0  0  0  0
  128.4910  122.7180   58.9440 C   0  0  0  0  0  0  0  0  0  0  0  0
  127.6080  123.3310   59.8350 C   0  0  0  0  0  0  0  0  0  0  0  0
  128.1210  123.6310   61.1100 N   0  0  0  0  0  0  0  0  0  0  0  0
  127.5220  123.5310   62.3160 C   0  0  0  0  0  0  0  0  0  0  0  0
  126.3810  123.1010   62.4980 O   0  0  0  0  0  0  0  0  0  0  0  0
  128.3930  123.9630   63.5040 C   0  0  0  0  0  0  0  0  0  0  0  0
  129.3410  122.6220   64.2990 S   0  0  0  0  0  0  0  0  0  0  0  0
  130.8560  122.4140   63.3910 C   0  0  0  0  0  0  0  0  0  0  0  0
  130.8700  121.3160   62.5960 N   0  0  0  0  0  0  0  0  0  0  0  0
  131.9670  121.0390   61.8440 C   0  0  0  0  0  0  0  0  0  0  0  0
  131.9090  119.7940   61.0080 C   0  0  0  0  0  0  0  0  0  0  0  0
  130.8450  118.8900   61.1420 C   0  0  0  0  0  0  0  0  0  0  0  0
  130.7850  117.7330   60.3690 C   0  0  0  0  0  0  0  0  0  0  0  0
  131.7940  117.4640   59.4500 C   0  0  0  0  0  0  0  0  0  0  0  0
  132.8620  118.3430   59.3000 C   0  0  0  0  0  0  0  0  0  0  0  0
  132.9180  119.4980   60.0760 C   0  0  0  0  0  0  0  0  0  0  0  0
  133.0900  121.8710   61.8760 C   0  0  0  0  0  0  0  0  0  0  0  0
  133.0830  123.0210   62.6740 C   0  0  0  0  0  0  0  0  0  0  0  0
  134.3250  123.9110   62.6650 C   0  0  0  0  0  0  0  0  0  0  0  0
  131.9410  123.3190   63.4480 C   0  0  0  0  0  0  0  0  0  0  0  0
  131.8930  124.5420   64.2520 C   0  0  0  0  0  0  0  0  0  0  0  0
  131.8580  125.5080   64.8870 N   0  0  0  0  0  0  0  0  0  0  0  0
  126.3050  123.6370   59.4150 C   0  0  0  0  0  0  0  0  0  0  0  0
  125.8930  123.3120   58.1250 C   0  0  0  0  0  0  0  0  0  0  0  0
  1  2  1  0
  2  3  1  0
  3  4  2  0
  4  5  1  0
  5  6  2  0
  6  7  1  0
  7  8  1  0
  8  9  2  0
  8 10  1  0
 10 11  1  0
 11 12  1  0
 12 13  2  0
 13 14  1  0
 14 15  1  0
 15 16  2  0
 16 17  1  0
 17 18  2  0
 18 19  1  0
 19 20  2  0
 14 21  2  0
 21 22  1  0
 22 23  1  0
 22 24  2  0
 24 25  1  0
 25 26  3  0
  6 27  1  0
 27 28  2  0
 28  3  1  0
 24 12  1  0
 20 15  1  0
M  END
>  <Binding energies>  (17) 
[-9.71]

>  <Ligand effiencies>  (17) 
[-0.33482758620689657]

>  <Interactions>  (17) 
["V-B:GLU:543:CD:9879, V-B:PRO:540:N:9855, H-B:ALA:541:N:9862, H-A:TYR:484:OH:4347, V-B:PRO:540:CA:9854, V-B:TYR:539:C:9838, V-A:LEU:475:CD2:4258, V-A:HIS:383:CE1:3393, V-A:ILE:369:CD1:3238, V-B:TYR:539:CD2:9845, V-A:ILE:369:CG2:3236, V-B:TYR:539:CE2:9847, V-B:TYR:539:CB:9842, V-A:SER:385:CA:3406, V-A:GLY:454:CA:4048, H-B:TYR:539:N:9841, V-B:TYR:539:CG:9843, V-B:MET:535:CE:9806, V-B:TYR:539:CZ:9848, V-B:GLU:543:CG:9878, V-B:PRO:540:CB:9856, V-B:TYR:539:CA:9840, V-A:GLY:453:C:4041, V-B:TYR:539:CD1:9844, V-B:PRO:540:CD:9858, V-B:TYR:531:CE2:9764, V-B:LEU:363:CD1:8159, V-B:ILE:538:CD1:9836, V-B:ILE:538:CG2:9834, V-B:ILE:538:CA:9831, V-B:TYR:539:CE1:9846, V-B:ILE:538:CB:9833, V-A:LEU:373:CG:3278, V-A:LEU:373:CD2:3280, V-B:MET:535:CG:9804"]

$$$$
3bd_Grossjean_2025
     RDKit          3D

 26 28  0  0  0  0  0  0  0  0999 V2000
  134.0140  123.7650   62.9940 C   0  0  0  0  0  0  0  0  0  0  0  0
  132.7510  122.9230   62.8260 C   0  0  0  0  0  0  0  0  0  0  0  0
  132.8300  121.7550   62.0590 C   0  0  0  0  0  0  0  0  0  0  0  0
  131.6940  120.9590   61.8780 C   0  0  0  0  0  0  0  0  0  0  0  0
  131.7110  119.6940   61.0720 C   0  0  0  0  0  0  0  0  0  0  0  0
  132.7790  119.4090   60.2060 C   0  0  0  0  0  0  0  0  0  0  0  0
  132.8000  118.2370   59.4540 C   0  0  0  0  0  0  0  0  0  0  0  0
  131.7480  117.3320   59.5560 C   0  0  0  0  0  0  0  0  0  0  0  0
  130.6770  117.5920   60.4040 C   0  0  0  0  0  0  0  0  0  0  0  0
  130.6590  118.7650   61.1540 C   0  0  0  0  0  0  0  0  0  0  0  0
  130.5100  121.2970   62.4520 N   0  0  0  0  0  0  0  0  0  0  0  0
  130.4140  122.4260   63.1990 C   0  0  0  0  0  0  0  0  0  0  0  0
  128.8020  122.7630   63.8870 S   0  0  0  0  0  0  0  0  0  0  0  0
  128.0250  124.0690   62.8890 C   0  0  0  0  0  0  0  0  0  0  0  0
  127.2660  123.4990   61.6900 C   0  0  0  0  0  0  0  0  0  0  0  0
  126.2300  122.8620   61.8860 O   0  0  0  0  0  0  0  0  0  0  0  0
  127.8170  123.7370   60.4800 N   0  0  0  0  0  0  0  0  0  0  0  0
  127.3470  123.3710   59.2050 C   0  0  0  0  0  0  0  0  0  0  0  0
  126.0110  123.6750   58.9320 C   0  0  0  0  0  0  0  0  0  0  0  0
  125.4550  123.3430   57.6990 C   0  0  0  0  0  0  0  0  0  0  0  0
  126.2320  122.6960   56.7430 C   0  0  0  0  0  0  0  0  0  0  0  0
  127.5610  122.3750   57.0090 C   0  0  0  0  0  0  0  0  0  0  0  0
  128.1200  122.7070   58.2390 C   0  0  0  0  0  0  0  0  0  0  0  0
  131.5180  123.2780   63.4140 C   0  0  0  0  0  0  0  0  0  0  0  0
  131.4020  124.4940   64.2250 C   0  0  0  0  0  0  0  0  0  0  0  0
  131.3130  125.4540   64.8660 N   0  0  0  0  0  0  0  0  0  0  0  0
  1  2  1  0
  2  3  2  0
  3  4  1  0
  4  5  1  0
  5  6  2  0
  6  7  1  0
  7  8  2  0
  8  9  1  0
  9 10  2  0
  4 11  2  0
 11 12  1  0
 12 13  1  0
 13 14  1  0
 14 15  1  0
 15 16  2  0
 15 17  1  0
 17 18  1  0
 18 19  2  0
 19 20  1  0
 20 21  2  0
 21 22  1  0
 22 23  2  0
 12 24  2  0
 24 25  1  0
 25 26  3  0
 24  2  1  0
 10  5  1  0
 23 18  1  0
M  END
>  <Binding energies>  (18) 
[-9.01]

>  <Ligand effiencies>  (18) 
[-0.33370370370370367]

>  <Interactions>  (18) 
["V-B:GLU:543:CD:9879, V-B:PRO:540:N:9855, H-B:ALA:541:N:9862, H-A:TYR:484:OH:4347, V-B:ALA:541:CB:9863, V-B:PRO:540:CA:9854, V-B:TYR:539:C:9838, V-A:LEU:475:CD2:4258, V-A:HIS:383:CE1:3393, V-A:ILE:369:CD1:3238, V-B:TYR:539:CD2:9845, V-A:ILE:369:CG2:3236, V-B:TYR:539:CE2:9847, V-B:TYR:539:CB:9842, V-A:GLY:454:CA:4048, V-B:TYR:539:CG:9843, V-B:MET:535:CE:9806, V-B:TYR:539:CZ:9848, V-B:PRO:540:CB:9856, V-B:TYR:539:CA:9840, V-A:GLY:453:C:4041, V-B:TYR:539:CD1:9844, V-B:PRO:540:CD:9858, V-B:TYR:539:CE1:9846, V-A:LEU:373:CD2:3280"]

$$$$
3be_Grossjean_2025
     RDKit          3D

 27 29  0  0  0  0  0  0  0  0999 V2000
  124.3520  123.8750   58.0840 C   0  0  0  0  0  0  0  0  0  0  0  0
  125.7810  123.4570   58.3680 C   0  0  0  0  0  0  0  0  0  0  0  0
  126.5590  122.8090   57.4040 C   0  0  0  0  0  0  0  0  0  0  0  0
  127.8660  122.4510   57.7360 C   0  0  0  0  0  0  0  0  0  0  0  0
  128.3600  122.7460   59.0090 C   0  0  0  0  0  0  0  0  0  0  0  0
  127.5290  123.4000   59.9260 C   0  0  0  0  0  0  0  0  0  0  0  0
  128.0810  123.6600   61.1940 N   0  0  0  0  0  0  0  0  0  0  0  0
  127.5150  123.5040   62.4110 C   0  0  0  0  0  0  0  0  0  0  0  0
  126.3680  123.0950   62.6020 O   0  0  0  0  0  0  0  0  0  0  0  0
  128.4210  123.8790   63.5940 C   0  0  0  0  0  0  0  0  0  0  0  0
  129.3860  122.5000   64.3000 S   0  0  0  0  0  0  0  0  0  0  0  0
  130.9060  122.3640   63.3850 C   0  0  0  0  0  0  0  0  0  0  0  0
  130.9580  121.2760   62.5770 N   0  0  0  0  0  0  0  0  0  0  0  0
  132.0620  121.0500   61.8160 C   0  0  0  0  0  0  0  0  0  0  0  0
  132.0450  119.8170   60.9610 C   0  0  0  0  0  0  0  0  0  0  0  0
  131.0200  118.8670   61.0910 C   0  0  0  0  0  0  0  0  0  0  0  0
  131.0000  117.7210   60.3030 C   0  0  0  0  0  0  0  0  0  0  0  0
  132.0090  117.5070   59.3700 C   0  0  0  0  0  0  0  0  0  0  0  0
  133.0370  118.4310   59.2220 C   0  0  0  0  0  0  0  0  0  0  0  0
  133.0540  119.5760   60.0130 C   0  0  0  0  0  0  0  0  0  0  0  0
  133.1530  121.9250   61.8560 C   0  0  0  0  0  0  0  0  0  0  0  0
  133.1050  123.0640   62.6660 C   0  0  0  0  0  0  0  0  0  0  0  0
  134.3130  124.0000   62.6640 C   0  0  0  0  0  0  0  0  0  0  0  0
  131.9550  123.3090   63.4470 C   0  0  0  0  0  0  0  0  0  0  0  0
  131.8620  124.5240   64.2590 C   0  0  0  0  0  0  0  0  0  0  0  0
  131.7910  125.4850   64.9010 N   0  0  0  0  0  0  0  0  0  0  0  0
  126.2480  123.7500   59.6080 N   0  0  0  0  0  0  0  0  0  0  0  0
  1  2  1  0
  2  3  2  0
  3  4  1  0
  4  5  2  0
  5  6  1  0
  6  7  1  0
  7  8  1  0
  8  9  2  0
  8 10  1  0
 10 11  1  0
 11 12  1  0
 12 13  2  0
 13 14  1  0
 14 15  1  0
 15 16  2  0
 16 17  1  0
 17 18  2  0
 18 19  1  0
 19 20  2  0
 14 21  2  0
 21 22  1  0
 22 23  1  0
 22 24  2  0
 24 25  1  0
 25 26  3  0
  6 27  2  0
 27  2  1  0
 24 12  1  0
 20 15  1  0
M  END
>  <Binding energies>  (19) 
[-9.13]

>  <Ligand effiencies>  (19) 
[-0.3260714285714286]

>  <Interactions>  (19) 
["V-A:ASP:366:CG:3212, V-B:GLU:543:CD:9879, V-B:PRO:540:N:9855, H-B:ALA:541:N:9862, H-A:TYR:484:OH:4347, V-B:PRO:540:CA:9854, V-B:TYR:539:C:9838, V-A:LEU:475:CD2:4258, V-A:HIS:383:CE1:3393, V-A:ILE:369:CD1:3238, V-B:TYR:539:CD2:9845, V-A:ILE:369:CG2:3236, V-B:TYR:539:CE2:9847, V-B:TYR:539:CB:9842, V-A:SER:385:CA:3406, V-A:GLY:454:CA:4048, V-B:TYR:539:CG:9843, V-B:TYR:539:CZ:9848, V-B:GLU:543:CG:9878, V-B:PRO:540:CB:9856, V-B:TYR:539:CA:9840, V-A:GLY:453:C:4041, V-B:TYR:539:CD1:9844, V-B:PRO:540:CD:9858, V-B:LEU:363:CD1:8159, V-A:LEU:373:CG:3278, V-A:LEU:373:CD2:3280"]

$$$$
3bf_Grossjean_2025
     RDKit          3D

 26 28  0  0  0  0  0  0  0  0999 V2000
  134.0010  123.5800   62.9670 C   0  0  0  0  0  0  0  0  0  0  0  0
  132.7160  122.7890   62.7310 C   0  0  0  0  0  0  0  0  0  0  0  0
  132.7960  121.6140   61.9770 C   0  0  0  0  0  0  0  0  0  0  0  0
  131.6450  120.8500   61.7490 C   0  0  0  0  0  0  0  0  0  0  0  0
  131.6670  119.5700   60.9690 C   0  0  0  0  0  0  0  0  0  0  0  0
  132.7200  119.2890   60.0840 C   0  0  0  0  0  0  0  0  0  0  0  0
  132.7470  118.1020   59.3560 C   0  0  0  0  0  0  0  0  0  0  0  0
  131.7170  117.1790   59.5040 C   0  0  0  0  0  0  0  0  0  0  0  0
  130.6630  117.4340   60.3740 C   0  0  0  0  0  0  0  0  0  0  0  0
  130.6380  118.6220   61.0990 C   0  0  0  0  0  0  0  0  0  0  0  0
  130.4420  121.2350   62.2510 N   0  0  0  0  0  0  0  0  0  0  0  0
  130.3450  122.3860   62.9620 C   0  0  0  0  0  0  0  0  0  0  0  0
  128.6950  122.7330   63.5340 S   0  0  0  0  0  0  0  0  0  0  0  0
  127.9810  124.0200   62.4550 C   0  0  0  0  0  0  0  0  0  0  0  0
  127.0850  123.4990   61.3220 C   0  0  0  0  0  0  0  0  0  0  0  0
  125.9370  123.1150   61.5540 O   0  0  0  0  0  0  0  0  0  0  0  0
  127.6500  123.5340   60.0960 N   0  0  0  0  0  0  0  0  0  0  0  0
  127.1100  123.1240   58.8630 C   0  0  0  0  0  0  0  0  0  0  0  0
  125.7970  123.5160   58.5780 C   0  0  0  0  0  0  0  0  0  0  0  0
  125.2090  123.1520   57.3650 C   0  0  0  0  0  0  0  0  0  0  0  0
  125.9610  122.4040   56.4590 C   0  0  0  0  0  0  0  0  0  0  0  0
  127.2390  122.0190   56.7030 N   0  0  0  0  0  0  0  0  0  0  0  0
  127.7970  122.3800   57.8870 C   0  0  0  0  0  0  0  0  0  0  0  0
  131.4670  123.1950   63.2470 C   0  0  0  0  0  0  0  0  0  0  0  0
  131.3700  124.3960   64.0810 C   0  0  0  0  0  0  0  0  0  0  0  0
  131.2950  125.3460   64.7380 N   0  0  0  0  0  0  0  0  0  0  0  0
  1  2  1  0
  2  3  2  0
  3  4  1  0
  4  5  1  0
  5  6  2  0
  6  7  1  0
  7  8  2  0
  8  9  1  0
  9 10  2  0
  4 11  2  0
 11 12  1  0
 12 13  1  0
 13 14  1  0
 14 15  1  0
 15 16  2  0
 15 17  1  0
 17 18  1  0
 18 19  2  0
 19 20  1  0
 20 21  2  0
 21 22  1  0
 22 23  2  0
 12 24  2  0
 24 25  1  0
 25 26  3  0
 24  2  1  0
 10  5  1  0
 23 18  1  0
M  END
>  <Binding energies>  (20) 
[-9.27]

>  <Ligand effiencies>  (20) 
[-0.3433333333333333]

>  <Interactions>  (20) 
["V-B:GLU:543:CD:9879, V-B:PRO:540:N:9855, H-B:ALA:541:N:9862, H-A:TYR:484:OH:4347, V-B:ALA:541:CB:9863, V-B:PRO:540:CA:9854, V-B:TYR:539:C:9838, V-A:LEU:475:CD2:4258, V-A:HIS:383:CE1:3393, V-A:ILE:369:CD1:3238, V-B:TYR:539:CD2:9845, V-A:ILE:369:CG2:3236, V-B:TYR:539:CE2:9847, V-B:TYR:539:CB:9842, V-A:GLY:454:CA:4048, H-B:TYR:539:N:9841, V-B:TYR:539:CG:9843, V-B:MET:535:CE:9806, V-B:PRO:540:CB:9856, V-B:TYR:539:CA:9840, V-A:GLY:453:C:4041, V-B:PRO:540:CD:9858, V-B:LEU:363:CD1:8159, V-A:LEU:373:CD2:3280, V-A:HIS:383:CG:3389"]

$$$$
3bg_Grossjean_2025
     RDKit          3D

 27 29  0  0  0  0  0  0  0  0999 V2000
  134.7570  124.2320   62.6510 C   0  0  0  0  0  0  0  0  0  0  0  0
  133.5560  123.2950   62.7570 C   0  0  0  0  0  0  0  0  0  0  0  0
  133.5130  122.1770   61.9200 C   0  0  0  0  0  0  0  0  0  0  0  0
  132.4330  121.2870   61.9900 C   0  0  0  0  0  0  0  0  0  0  0  0
  132.3310  120.0600   61.1270 C   0  0  0  0  0  0  0  0  0  0  0  0
  133.3210  119.7590   60.1770 C   0  0  0  0  0  0  0  0  0  0  0  0
  133.2400  118.6150   59.3880 C   0  0  0  0  0  0  0  0  0  0  0  0
  132.1610  117.7500   59.5350 C   0  0  0  0  0  0  0  0  0  0  0  0
  131.1600  118.0290   60.4580 C   0  0  0  0  0  0  0  0  0  0  0  0
  131.2440  119.1750   61.2430 C   0  0  0  0  0  0  0  0  0  0  0  0
  131.4270  121.4910   62.8830 N   0  0  0  0  0  0  0  0  0  0  0  0
  131.4550  122.5710   63.7050 C   0  0  0  0  0  0  0  0  0  0  0  0
  130.0920  122.7040   64.8530 S   0  0  0  0  0  0  0  0  0  0  0  0
  128.8240  123.7830   64.1120 C   0  0  0  0  0  0  0  0  0  0  0  0
  128.1590  123.1300   62.8970 C   0  0  0  0  0  0  0  0  0  0  0  0
  126.9380  122.9780   62.8740 O   0  0  0  0  0  0  0  0  0  0  0  0
  128.9790  122.7290   61.9090 N   0  0  0  0  0  0  0  0  0  0  0  0
  128.5840  121.9270   60.7510 C   0  0  0  0  0  0  0  0  0  0  0  0
  127.8990  122.7720   59.6840 C   0  0  0  0  0  0  0  0  0  0  0  0
  127.1290  123.8790   60.0550 C   0  0  0  0  0  0  0  0  0  0  0  0
  126.4960  124.6450   59.0810 C   0  0  0  0  0  0  0  0  0  0  0  0
  126.6430  124.3100   57.7360 C   0  0  0  0  0  0  0  0  0  0  0  0
  127.4250  123.2210   57.3570 C   0  0  0  0  0  0  0  0  0  0  0  0
  128.0580  122.4540   58.3320 C   0  0  0  0  0  0  0  0  0  0  0  0
  132.5040  123.5130   63.6720 C   0  0  0  0  0  0  0  0  0  0  0  0
  132.5240  124.6720   64.5680 C   0  0  0  0  0  0  0  0  0  0  0  0
  132.5420  125.5870   65.2750 N   0  0  0  0  0  0  0  0  0  0  0  0
  1  2  1  0
  2  3  2  0
  3  4  1  0
  4  5  1  0
  5  6  2  0
  6  7  1  0
  7  8  2  0
  8  9  1  0
  9 10  2  0
  4 11  2  0
 11 12  1  0
 12 13  1  0
 13 14  1  0
 14 15  1  0
 15 16  2  0
 15 17  1  0
 17 18  1  0
 18 19  1  0
 19 20  2  0
 20 21  1  0
 21 22  2  0
 22 23  1  0
 23 24  2  0
 12 25  2  0
 25 26  1  0
 26 27  3  0
 25  2  1  0
 10  5  1  0
 24 19  1  0
M  END
>  <Binding energies>  (21) 
[-8.35]

>  <Ligand effiencies>  (21) 
[-0.2982142857142857]

>  <Interactions>  (21) 
["V-A:ASP:366:CG:3212, V-B:GLU:543:CD:9879, V-B:PRO:540:N:9855, H-B:ALA:541:N:9862, H-A:TYR:484:OH:4347, V-B:ALA:541:CB:9863, V-B:PRO:540:CA:9854, V-B:PRO:540:C:9852, V-B:TYR:539:C:9838, V-A:LEU:475:CD2:4258, V-A:HIS:383:CE1:3393, V-A:ILE:369:CD1:3238, V-B:TYR:539:CD2:9845, V-A:ILE:369:CG2:3236, V-B:TYR:539:CE2:9847, V-B:TYR:539:CB:9842, V-A:SER:385:CA:3406, V-A:GLY:454:CA:4048, V-B:TYR:539:CG:9843, V-B:MET:535:CE:9806, V-B:GLU:543:CG:9878, V-A:GLY:453:C:4041, V-A:GLY:453:CA:4043, V-A:LEU:373:CG:3278, V-A:LEU:373:CD2:3280, V-A:VAL:384:C:3396"]

$$$$
3ca_Grossjean_2025
     RDKit          3D

 31 33  0  0  0  0  0  0  0  0999 V2000
  124.9500  129.1430   62.5450 C   0  0  0  0  0  0  0  0  0  0  0  0
  123.6790  129.7990   63.0900 C   0  0  0  0  0  0  0  0  0  0  0  0
  123.7430  129.8480   64.5110 O   0  0  0  0  0  0  0  0  0  0  0  0
  124.7310  130.5280   65.1450 C   0  0  0  0  0  0  0  0  0  0  0  0
  125.0600  131.6820   64.8510 O   0  0  0  0  0  0  0  0  0  0  0  0
  125.3830  129.7400   66.2450 C   0  0  0  0  0  0  0  0  0  0  0  0
  126.7780  129.6260   66.2710 C   0  0  0  0  0  0  0  0  0  0  0  0
  127.4110  128.9020   67.2780 C   0  0  0  0  0  0  0  0  0  0  0  0
  126.6630  128.2720   68.2730 C   0  0  0  0  0  0  0  0  0  0  0  0
  127.4020  127.5680   69.2430 N   0  0  0  0  0  0  0  0  0  0  0  0
  126.9720  126.8830   70.3250 C   0  0  0  0  0  0  0  0  0  0  0  0
  125.7960  126.7350   70.6530 O   0  0  0  0  0  0  0  0  0  0  0  0
  128.0750  126.2370   71.1710 C   0  0  0  0  0  0  0  0  0  0  0  0
  128.0730  126.8020   72.9050 S   0  0  0  0  0  0  0  0  0  0  0  0
  129.4940  126.1360   73.7620 C   0  0  0  0  0  0  0  0  0  0  0  0
  129.4720  124.7970   73.9830 N   0  0  0  0  0  0  0  0  0  0  0  0
  130.5230  124.2220   74.6080 C   0  0  0  0  0  0  0  0  0  0  0  0
  130.4320  122.7220   74.8020 C   0  0  0  0  0  0  0  0  0  0  0  0
  131.6240  124.9520   75.0490 C   0  0  0  0  0  0  0  0  0  0  0  0
  131.6620  126.3380   74.8480 C   0  0  0  0  0  0  0  0  0  0  0  0
  132.8570  127.0820   75.3500 C   0  0  0  0  0  0  0  0  0  0  0  0
  133.9960  127.2070   74.5450 C   0  0  0  0  0  0  0  0  0  0  0  0
  135.1170  127.8900   75.0080 C   0  0  0  0  0  0  0  0  0  0  0  0
  135.1060  128.4480   76.2840 C   0  0  0  0  0  0  0  0  0  0  0  0
  133.9840  128.3270   77.1000 C   0  0  0  0  0  0  0  0  0  0  0  0
  132.8640  127.6420   76.6340 C   0  0  0  0  0  0  0  0  0  0  0  0
  130.5730  126.9520   74.1780 C   0  0  0  0  0  0  0  0  0  0  0  0
  130.5800  128.3910   73.8940 C   0  0  0  0  0  0  0  0  0  0  0  0
  130.5870  129.5270   73.6710 N   0  0  0  0  0  0  0  0  0  0  0  0
  125.2650  128.3880   68.2600 C   0  0  0  0  0  0  0  0  0  0  0  0
  124.6340  129.1150   67.2530 C   0  0  0  0  0  0  0  0  0  0  0  0
  1  2  1  0
  2  3  1  0
  3  4  1  0
  4  5  2  0
  4  6  1  0
  6  7  2  0
  7  8  1  0
  8  9  2  0
  9 10  1  0
 10 11  1  0
 11 12  2  0
 11 13  1  0
 13 14  1  0
 14 15  1  0
 15 16  2  0
 16 17  1  0
 17 18  1  0
 17 19  2  0
 19 20  1  0
 20 21  1  0
 21 22  2  0
 22 23  1  0
 23 24  2  0
 24 25  1  0
 25 26  2  0
 20 27  2  0
 27 28  1  0
 28 29  3  0
  9 30  1  0
 30 31  2  0
 31  6  1  0
 27 15  1  0
 26 21  1  0
M  END
>  <Binding energies>  (22) 
[-8.44]

>  <Ligand effiencies>  (22) 
[-0.26375]

>  <Interactions>  (22) 
["V-B:GLU:543:CD:9879, H-B:GLU:543:OE2:9881, V-A:HIS:456:CE1:4069, V-B:GLU:543:CB:9877, V-B:HIS:456:CE1:9040, H-B:LYS:547:NZ:9922, V-A:HIS:456:CD2:4067, V-B:ARG:545:CD:9894, V-B:GLU:543:C:9873, V-B:ARG:545:CG:9893, H-A:LYS:547:NZ:4950, V-A:LYS:547:CE:4949, H-B:ARG:545:N:9891, H-B:ARG:545:NH2:9899, H-B:TYR:484:OH:9318, V-B:GLY:544:C:9883, V-B:ASP:366:CG:8183, V-B:ARG:545:CZ:9897, V-A:HIS:456:CB:4064, V-A:VAL:457:C:4072, V-A:HIS:456:CA:4062, V-A:LYS:547:CD:4948, V-A:HIS:456:CG:4065, V-A:VAL:458:CG2:4086, H-B:HIS:456:ND1:9037, V-B:GLY:454:CA:9019, H-B:GLY:454:N:9020, H-B:ARG:545:NH1:9898, V-A:LYS:547:CG:4947, V-A:LYS:547:CB:4946, V-A:ARG:545:C:4916"]

$$$$
3ce_Grossjean_2025
     RDKit          3D

 27 29  0  0  0  0  0  0  0  0999 V2000
  133.7000  118.9980   59.2500 C   0  0  0  0  0  0  0  0  0  0  0  0
  132.4460  118.6760   60.0410 C   0  0  0  0  0  0  0  0  0  0  0  0
  132.0300  117.3580   60.2470 C   0  0  0  0  0  0  0  0  0  0  0  0
  130.8720  117.1370   60.9920 C   0  0  0  0  0  0  0  0  0  0  0  0
  130.1650  118.2250   61.5090 C   0  0  0  0  0  0  0  0  0  0  0  0
  130.6310  119.5200   61.2560 C   0  0  0  0  0  0  0  0  0  0  0  0
  129.8910  120.5750   61.8160 N   0  0  0  0  0  0  0  0  0  0  0  0
  130.3200  121.5440   62.6550 C   0  0  0  0  0  0  0  0  0  0  0  0
  131.4750  121.6600   63.0690 O   0  0  0  0  0  0  0  0  0  0  0  0
  129.2640  122.5580   63.0910 C   0  0  0  0  0  0  0  0  0  0  0  0
  129.7000  124.2500   62.5940 S   0  0  0  0  0  0  0  0  0  0  0  0
  129.5200  124.2960   60.8260 C   0  0  0  0  0  0  0  0  0  0  0  0
  130.6030  124.7830   60.1740 N   0  0  0  0  0  0  0  0  0  0  0  0
  130.5730  124.8430   58.8220 C   0  0  0  0  0  0  0  0  0  0  0  0
  131.8220  125.3860   58.1570 C   0  0  0  0  0  0  0  0  0  0  0  0
  129.4670  124.4370   58.0790 C   0  0  0  0  0  0  0  0  0  0  0  0
  128.3280  123.9550   58.7360 C   0  0  0  0  0  0  0  0  0  0  0  0
  127.1590  123.5550   57.8970 C   0  0  0  0  0  0  0  0  0  0  0  0
  125.8890  124.0830   58.1630 C   0  0  0  0  0  0  0  0  0  0  0  0
  124.7930  123.7110   57.3890 C   0  0  0  0  0  0  0  0  0  0  0  0
  124.9600  122.8010   56.3480 C   0  0  0  0  0  0  0  0  0  0  0  0
  126.2140  122.2590   56.0780 C   0  0  0  0  0  0  0  0  0  0  0  0
  127.3080  122.6340   56.8520 C   0  0  0  0  0  0  0  0  0  0  0  0
  128.3490  123.8750   60.1510 C   0  0  0  0  0  0  0  0  0  0  0  0
  127.1920  123.3640   60.8930 C   0  0  0  0  0  0  0  0  0  0  0  0
  126.2780  122.9610   61.4770 N   0  0  0  0  0  0  0  0  0  0  0  0
  131.7680  119.7440   60.5330 N   0  0  0  0  0  0  0  0  0  0  0  0
  1  2  1  0
  2  3  2  0
  3  4  1  0
  4  5  2  0
  5  6  1  0
  6  7  1  0
  7  8  1  0
  8  9  2  0
  8 10  1  0
 10 11  1  0
 11 12  1  0
 12 13  2  0
 13 14  1  0
 14 15  1  0
 14 16  2  0
 16 17  1  0
 17 18  1  0
 18 19  2  0
 19 20  1  0
 20 21  2  0
 21 22  1  0
 22 23  2  0
 17 24  2  0
 24 25  1  0
 25 26  3  0
  6 27  2  0
 27  2  1  0
 24 12  1  0
 23 18  1  0
M  END
>  <Binding energies>  (23) 
[-8.92]

>  <Ligand effiencies>  (23) 
[-0.31857142857142856]

>  <Interactions>  (23) 
["V-A:ASP:366:CB:3211, V-B:PRO:540:N:9855, H-B:ALA:541:N:9862, V-B:ALA:541:CB:9863, V-B:PRO:540:CA:9854, V-B:TYR:539:C:9838, V-A:LEU:475:CD2:4258, V-A:PRO:482:CG:4326, V-A:HIS:383:CE1:3393, H-B:TYR:539:O:9839, V-B:TYR:539:CD2:9845, V-A:ILE:369:CG2:3236, V-B:TYR:539:CE2:9847, V-A:SER:385:CA:3406, V-B:MET:535:CE:9806, V-B:TYR:539:CZ:9848, V-A:PRO:482:CB:4325, V-B:PRO:540:CB:9856, V-B:TYR:531:CZ:9765, V-B:PRO:540:CD:9858, V-B:TYR:531:CE2:9764, V-B:LEU:363:CD1:8159, V-B:ILE:538:CA:9831, V-B:ILE:538:C:9829, V-A:LEU:373:CG:3278, V-A:LEU:373:CD2:3280, V-A:VAL:384:C:3396"]

$$$$
3cj_Grossjean_2025
     RDKit          3D

 25 27  0  0  0  0  0  0  0  0999 V2000
  129.5200  121.6350   62.4700 C   0  0  0  0  0  0  0  0  0  0  0  0
  129.5240  122.4330   61.1810 C   0  0  0  0  0  0  0  0  0  0  0  0
  128.4570  122.3780   60.2870 C   0  0  0  0  0  0  0  0  0  0  0  0
  128.4930  123.1510   59.1180 C   0  0  0  0  0  0  0  0  0  0  0  0
  127.3010  123.1110   58.2210 C   0  0  0  0  0  0  0  0  0  0  0  0
  127.3510  122.4240   57.0030 C   0  0  0  0  0  0  0  0  0  0  0  0
  126.2420  122.3980   56.1610 C   0  0  0  0  0  0  0  0  0  0  0  0
  125.0790  123.0650   56.5330 C   0  0  0  0  0  0  0  0  0  0  0  0
  125.0170  123.7610   57.7380 C   0  0  0  0  0  0  0  0  0  0  0  0
  126.1270  123.7850   58.5780 C   0  0  0  0  0  0  0  0  0  0  0  0
  129.6400  123.9440   58.8690 C   0  0  0  0  0  0  0  0  0  0  0  0
  129.7490  124.7520   57.6500 C   0  0  0  0  0  0  0  0  0  0  0  0
  129.8340  125.3910   56.6880 N   0  0  0  0  0  0  0  0  0  0  0  0
  130.6730  123.9430   59.8330 C   0  0  0  0  0  0  0  0  0  0  0  0
  132.1050  124.9940   59.7090 S   0  0  0  0  0  0  0  0  0  0  0  0
  133.4360  124.0700   60.5410 C   0  0  0  0  0  0  0  0  0  0  0  0
  133.2440  124.0360   62.0610 C   0  0  0  0  0  0  0  0  0  0  0  0
  133.2970  122.9580   62.6560 O   0  0  0  0  0  0  0  0  0  0  0  0
  133.0620  125.2390   62.6480 N   0  0  0  0  0  0  0  0  0  0  0  0
  133.0000  125.4950   64.0080 C   0  0  0  0  0  0  0  0  0  0  0  0
  133.9760  125.4360   64.8870 N   0  0  0  0  0  0  0  0  0  0  0  0
  133.5630  125.7750   66.0920 C   0  0  0  0  0  0  0  0  0  0  0  0
  132.2190  126.1190   66.2090 C   0  0  0  0  0  0  0  0  0  0  0  0
  131.4640  125.9870   64.6480 S   0  0  0  0  0  0  0  0  0  0  0  0
  130.6110  123.2090   60.9720 N   0  0  0  0  0  0  0  0  0  0  0  0
  1  2  1  0
  2  3  2  0
  3  4  1  0
  4  5  1  0
  5  6  2  0
  6  7  1  0
  7  8  2  0
  8  9  1  0
  9 10  2  0
  4 11  2  0
 11 12  1  0
 12 13  3  0
 11 14  1  0
 14 15  1  0
 15 16  1  0
 16 17  1  0
 17 18  2  0
 17 19  1  0
 19 20  1  0
 20 21  2  0
 21 22  1  0
 22 23  2  0
 23 24  1  0
 14 25  2  0
 25  2  1  0
 10  5  1  0
 24 20  1  0
M  END
>  <Binding energies>  (24) 
[-8.18]

>  <Ligand effiencies>  (24) 
[-0.31461538461538463]

>  <Interactions>  (24) 
["V-A:ASP:366:CG:3212, V-B:PRO:540:N:9855, H-A:TYR:484:OH:4347, V-B:ALA:541:CB:9863, V-B:PRO:540:CA:9854, V-B:ALA:541:CA:9861, V-B:TYR:539:C:9838, V-A:ILE:369:CD1:3238, V-B:TYR:539:CD2:9845, V-A:ILE:369:CG2:3236, V-B:TYR:539:CE2:9847, V-B:TYR:539:CG:9843, V-B:MET:535:CE:9806, H-B:TYR:539:OH:9849, V-B:TYR:539:CZ:9848, V-B:PRO:540:CB:9856, H-A:GLY:454:N:4049, V-B:TYR:539:CA:9840, V-A:ARG:545:CD:4922, V-B:TYR:539:CD1:9844, V-B:TYR:531:CZ:9765, V-B:PRO:540:CD:9858, V-B:TYR:531:CE2:9764, V-B:LEU:363:CD1:8159, V-A:ARG:545:CZ:4925, H-A:ASP:366:OD2:3214, H-A:ARG:545:NH1:4926, H-A:ARG:545:NH2:4927, V-B:ILE:538:CA:9831, H-A:ARG:545:NE:4923, H-A:ASP:366:OD1:3213"]

$$$$
4ba_Grossjean_2025
     RDKit          3D

 28 30  0  0  0  0  0  0  0  0999 V2000
  124.6300  122.4250   55.5720 C   0  0  0  0  0  0  0  0  0  0  0  0
  125.4360  122.7660   56.8400 C   0  0  0  0  0  0  0  0  0  0  0  0
  126.9620  122.5830   56.7140 C   0  0  0  0  0  0  0  0  0  0  0  0
  127.4260  122.0190   55.7200 O   0  0  0  0  0  0  0  0  0  0  0  0
  127.8230  123.1150   57.8230 C   0  0  0  0  0  0  0  0  0  0  0  0
  127.4780  122.8400   59.1520 C   0  0  0  0  0  0  0  0  0  0  0  0
  128.2580  123.3210   60.2000 C   0  0  0  0  0  0  0  0  0  0  0  0
  129.3980  124.0830   59.9420 C   0  0  0  0  0  0  0  0  0  0  0  0
  130.1070  124.5260   61.0750 N   0  0  0  0  0  0  0  0  0  0  0  0
  130.6120  125.7500   61.3640 C   0  0  0  0  0  0  0  0  0  0  0  0
  130.5570  126.7180   60.6040 O   0  0  0  0  0  0  0  0  0  0  0  0
  131.2740  125.8620   62.6660 C   0  0  0  0  0  0  0  0  0  0  0  0
  132.9590  125.3800   62.8480 S   0  0  0  0  0  0  0  0  0  0  0  0
  132.9290  125.7500   64.5560 C   0  0  0  0  0  0  0  0  0  0  0  0
  134.0050  125.5770   65.3220 N   0  0  0  0  0  0  0  0  0  0  0  0
  133.8600  125.8980   66.6290 C   0  0  0  0  0  0  0  0  0  0  0  0
  135.0950  125.6840   67.4860 C   0  0  0  0  0  0  0  0  0  0  0  0
  132.6790  126.3870   67.1800 C   0  0  0  0  0  0  0  0  0  0  0  0
  131.5420  126.5720   66.3770 C   0  0  0  0  0  0  0  0  0  0  0  0
  130.2660  127.1150   67.0280 C   0  0  0  0  0  0  0  0  0  0  0  0
  129.4820  127.7730   66.1720 F   0  0  0  0  0  0  0  0  0  0  0  0
  129.5510  126.1080   67.5310 F   0  0  0  0  0  0  0  0  0  0  0  0
  130.5860  127.9600   68.0090 F   0  0  0  0  0  0  0  0  0  0  0  0
  131.6600  126.2370   64.9950 C   0  0  0  0  0  0  0  0  0  0  0  0
  130.7310  126.2810   63.8920 C   0  0  0  0  0  0  0  0  0  0  0  0
  129.4320  126.6980   64.0350 N   0  0  0  0  0  0  0  0  0  0  0  0
  129.7460  124.3680   58.6140 C   0  0  0  0  0  0  0  0  0  0  0  0
  128.9650  123.8860   57.5660 C   0  0  0  0  0  0  0  0  0  0  0  0
  1  2  1  0
  2  3  1  0
  3  4  2  0
  3  5  1  0
  5  6  2  0
  6  7  1  0
  7  8  2  0
  8  9  1  0
  9 10  1  0
 10 11  2  0
 10 12  1  0
 12 13  1  0
 13 14  1  0
 14 15  2  0
 15 16  1  0
 16 17  1  0
 16 18  2  0
 18 19  1  0
 19 20  1  0
 20 21  1  0
 20 22  1  0
 20 23  1  0
 19 24  2  0
 24 25  1  0
 25 26  1  0
  8 27  1  0
 27 28  2  0
 28  5  1  0
 25 12  2  0
 24 14  1  0
M  END
>  <Binding energies>  (25) 
[-7.54]

>  <Ligand effiencies>  (25) 
[-0.2432258064516129]

>  <Interactions>  (25) 
["V-A:ASP:366:CG:3212, V-B:GLU:543:CD:9879, V-B:PRO:540:N:9855, H-A:TYR:484:OH:4347, V-B:PRO:540:CA:9854, H-B:GLU:543:OE2:9881, H-B:GLU:543:OE1:9880, V-B:TYR:539:C:9838, V-B:TYR:539:CD2:9845, V-B:TYR:539:CE2:9847, H-B:TYR:539:N:9841, V-B:MET:535:CE:9806, V-B:TYR:539:CZ:9848, V-B:GLU:543:CG:9878, V-B:PRO:540:CB:9856, H-A:GLY:454:N:4049, V-A:GLY:453:C:4041, V-A:ARG:545:CD:4922, V-B:TYR:531:CZ:9765, V-B:PRO:540:CD:9858, V-B:TYR:531:CE2:9764, V-B:LEU:363:CD1:8159, V-A:ARG:545:CZ:4925, V-B:ILE:538:CD1:9836, V-A:ARG:545:CG:4921, V-A:HIS:456:CE1:4069, V-B:ILE:538:CG2:9834, V-B:GLU:543:CB:9877, V-A:GLU:543:CD:4907, V-A:GLU:543:CG:4906, V-A:GLU:543:CB:4905, H-A:ARG:545:NH1:4926, H-A:ARG:545:NH2:4927, V-B:ILE:538:CA:9831, V-A:GLY:453:CA:4043, V-B:TYR:539:CE1:9846, V-B:ILE:538:CB:9833, H-A:ARG:545:NE:4923, V-A:ILE:455:C:4051, V-A:ARG:545:CB:4920"]

$$$$
4bb_Grossjean_2025
     RDKit          3D

 27 29  0  0  0  0  0  0  0  0999 V2000
  124.9980  123.0350   57.0440 C   0  0  0  0  0  0  0  0  0  0  0  0
  126.4870  122.6950   56.9340 C   0  0  0  0  0  0  0  0  0  0  0  0
  126.8610  122.0300   55.9670 O   0  0  0  0  0  0  0  0  0  0  0  0
  127.4070  123.1810   58.0140 C   0  0  0  0  0  0  0  0  0  0  0  0
  126.9970  123.1090   59.3510 C   0  0  0  0  0  0  0  0  0  0  0  0
  127.8320  123.5540   60.3720 C   0  0  0  0  0  0  0  0  0  0  0  0
  129.0950  124.0700   60.0770 C   0  0  0  0  0  0  0  0  0  0  0  0
  129.8560  124.4930   61.1850 N   0  0  0  0  0  0  0  0  0  0  0  0
  130.5710  125.6300   61.3680 C   0  0  0  0  0  0  0  0  0  0  0  0
  130.6920  126.5150   60.5210 O   0  0  0  0  0  0  0  0  0  0  0  0
  131.2420  125.7440   62.6660 C   0  0  0  0  0  0  0  0  0  0  0  0
  132.9140  125.2170   62.8480 S   0  0  0  0  0  0  0  0  0  0  0  0
  132.9060  125.6240   64.5480 C   0  0  0  0  0  0  0  0  0  0  0  0
  133.9830  125.4430   65.3110 N   0  0  0  0  0  0  0  0  0  0  0  0
  133.8550  125.7940   66.6120 C   0  0  0  0  0  0  0  0  0  0  0  0
  135.0940  125.5820   67.4630 C   0  0  0  0  0  0  0  0  0  0  0  0
  132.6870  126.3160   67.1620 C   0  0  0  0  0  0  0  0  0  0  0  0
  131.5500  126.5090   66.3630 C   0  0  0  0  0  0  0  0  0  0  0  0
  130.2880  127.0860   67.0130 C   0  0  0  0  0  0  0  0  0  0  0  0
  129.5160  127.7530   66.1520 F   0  0  0  0  0  0  0  0  0  0  0  0
  129.5530  126.0980   67.5260 F   0  0  0  0  0  0  0  0  0  0  0  0
  130.6270  127.9330   67.9840 F   0  0  0  0  0  0  0  0  0  0  0  0
  131.6510  126.1480   64.9850 C   0  0  0  0  0  0  0  0  0  0  0  0
  130.7180  126.2000   63.8870 C   0  0  0  0  0  0  0  0  0  0  0  0
  129.4350  126.6620   64.0260 N   0  0  0  0  0  0  0  0  0  0  0  0
  129.5100  124.1510   58.7390 C   0  0  0  0  0  0  0  0  0  0  0  0
  128.6720  123.7080   57.7190 C   0  0  0  0  0  0  0  0  0  0  0  0
  1  2  1  0
  2  3  2  0
  2  4  1  0
  4  5  2  0
  5  6  1  0
  6  7  2  0
  7  8  1  0
  8  9  1  0
  9 10  2  0
  9 11  1  0
 11 12  1  0
 12 13  1  0
 13 14  2  0
 14 15  1  0
 15 16  1  0
 15 17  2  0
 17 18  1  0
 18 19  1  0
 19 20  1  0
 19 21  1  0
 19 22  1  0
 18 23  2  0
 23 24  1  0
 24 25  1  0
  7 26  1  0
 26 27  2  0
 27  4  1  0
 24 11  2  0
 23 13  1  0
M  END
>  <Binding energies>  (26) 
[-7.44]

>  <Ligand effiencies>  (26) 
[-0.24800000000000003]

>  <Interactions>  (26) 
["V-A:ASP:366:CG:3212, V-B:GLU:543:CD:9879, V-B:PRO:540:N:9855, H-A:TYR:484:OH:4347, V-B:PRO:540:CA:9854, H-B:GLU:543:OE2:9881, H-B:GLU:543:OE1:9880, V-B:TYR:539:C:9838, V-B:TYR:539:CD2:9845, V-B:TYR:539:CE2:9847, V-A:GLY:454:CA:4048, H-B:TYR:539:N:9841, V-B:MET:535:CE:9806, V-B:TYR:539:CZ:9848, V-B:GLU:543:CG:9878, V-B:PRO:540:CB:9856, H-A:GLY:454:N:4049, V-A:GLY:453:C:4041, V-A:ARG:545:CD:4922, V-B:PRO:540:CD:9858, V-B:TYR:531:CE2:9764, V-B:LEU:363:CD1:8159, V-A:ARG:545:CZ:4925, V-A:ARG:545:CG:4921, V-A:HIS:456:CE1:4069, V-B:GLU:543:CB:9877, V-A:GLU:543:CD:4907, V-A:GLU:543:CG:4906, V-A:GLU:543:CB:4905, H-A:ARG:545:NH1:4926, V-A:GLY:453:CA:4043, H-A:ARG:545:NE:4923, V-A:ILE:455:C:4051, V-A:ARG:545:CB:4920, V-A:GLY:454:C:4046, V-A:ILE:455:CA:4053"]

$$$$
4bd_Grossjean_2025
     RDKit          3D

 24 26  0  0  0  0  0  0  0  0999 V2000
  128.3860  117.1800   76.5650 C   0  0  0  0  0  0  0  0  0  0  0  0
  128.5570  118.5100   75.8530 C   0  0  0  0  0  0  0  0  0  0  0  0
  127.9560  118.7460   74.6190 C   0  0  0  0  0  0  0  0  0  0  0  0
  128.1240  119.9800   73.9710 C   0  0  0  0  0  0  0  0  0  0  0  0
  127.4470  120.1930   72.6130 C   0  0  0  0  0  0  0  0  0  0  0  0
  128.2470  120.7730   71.7160 F   0  0  0  0  0  0  0  0  0  0  0  0
  127.0650  119.0200   72.1090 F   0  0  0  0  0  0  0  0  0  0  0  0
  126.3790  120.9780   72.7600 F   0  0  0  0  0  0  0  0  0  0  0  0
  128.9250  120.9600   74.6300 C   0  0  0  0  0  0  0  0  0  0  0  0
  129.3120  122.3060   74.2850 C   0  0  0  0  0  0  0  0  0  0  0  0
  128.9090  122.9160   73.1250 N   0  0  0  0  0  0  0  0  0  0  0  0
  130.1350  122.9290   75.2370 C   0  0  0  0  0  0  0  0  0  0  0  0
  130.7210  124.2730   75.1990 C   0  0  0  0  0  0  0  0  0  0  0  0
  130.0270  125.2530   74.9240 O   0  0  0  0  0  0  0  0  0  0  0  0
  132.0420  124.3400   75.4960 N   0  0  0  0  0  0  0  0  0  0  0  0
  132.9010  125.4540   75.5080 C   0  0  0  0  0  0  0  0  0  0  0  0
  134.1620  125.2500   76.0770 C   0  0  0  0  0  0  0  0  0  0  0  0
  135.0870  126.2890   76.1270 C   0  0  0  0  0  0  0  0  0  0  0  0
  134.7560  127.5340   75.5990 C   0  0  0  0  0  0  0  0  0  0  0  0
  133.5090  127.7460   75.0160 C   0  0  0  0  0  0  0  0  0  0  0  0
  132.5800  126.7100   74.9650 C   0  0  0  0  0  0  0  0  0  0  0  0
  130.4510  121.8620   76.6030 S   0  0  0  0  0  0  0  0  0  0  0  0
  129.4850  120.5900   75.8920 C   0  0  0  0  0  0  0  0  0  0  0  0
  129.3210  119.4180   76.5030 N   0  0  0  0  0  0  0  0  0  0  0  0
  1  2  1  0
  2  3  2  0
  3  4  1  0
  4  5  1  0
  5  6  1  0
  5  7  1  0
  5  8  1  0
  4  9  2  0
  9 10  1  0
 10 11  1  0
 10 12  2  0
 12 13  1  0
 13 14  2  0
 13 15  1  0
 15 16  1  0
 16 17  2  0
 17 18  1  0
 18 19  2  0
 19 20  1  0
 20 21  2  0
 12 22  1  0
 22 23  1  0
 23 24  2  0
 24  2  1  0
 23  9  1  0
 21 16  1  0
M  END
>  <Binding energies>  (27) 
[-6.63]

>  <Ligand effiencies>  (27) 
[-0.24555555555555555]

>  <Interactions>  (27) 
["H-B:GLU:543:O:9874, H-B:LYS:547:NZ:9922, V-B:GLU:543:C:9873, H-A:ASP:473:OD2:4241, V-B:GLY:544:CA:9885, V-A:TYR:484:CB:4340, V-A:TYR:484:C:4336, V-A:HIS:456:CB:4064, V-B:GLU:543:CA:9875, V-A:VAL:457:C:4072, V-A:HIS:456:C:4060, V-A:VAL:457:CA:4074, V-A:HIS:456:CG:4065, V-A:VAL:458:CG2:4086, V-A:TYR:484:CD2:4343, V-A:TYR:484:CG:4341, V-A:TYR:484:CA:4338, V-A:SER:483:CB:4332"]

$$$$
4be_Grossjean_2025
     RDKit          3D

 25 27  0  0  0  0  0  0  0  0999 V2000
  126.3610  122.0150   55.1580 C   0  0  0  0  0  0  0  0  0  0  0  0
  126.0040  122.6470   56.4890 C   0  0  0  0  0  0  0  0  0  0  0  0
  124.7250  123.1520   56.7390 C   0  0  0  0  0  0  0  0  0  0  0  0
  124.4690  123.7230   57.9860 C   0  0  0  0  0  0  0  0  0  0  0  0
  125.4850  123.7750   58.9430 C   0  0  0  0  0  0  0  0  0  0  0  0
  126.7420  123.2450   58.6300 C   0  0  0  0  0  0  0  0  0  0  0  0
  127.7230  123.3350   59.6330 N   0  0  0  0  0  0  0  0  0  0  0  0
  127.6020  123.1120   60.9660 C   0  0  0  0  0  0  0  0  0  0  0  0
  126.5500  122.7730   61.5120 O   0  0  0  0  0  0  0  0  0  0  0  0
  128.8210  123.3230   61.7520 C   0  0  0  0  0  0  0  0  0  0  0  0
  128.9420  124.7020   62.8430 S   0  0  0  0  0  0  0  0  0  0  0  0
  130.5680  124.2530   63.3020 C   0  0  0  0  0  0  0  0  0  0  0  0
  131.2640  124.9700   64.1830 N   0  0  0  0  0  0  0  0  0  0  0  0
  132.5110  124.5230   64.4600 C   0  0  0  0  0  0  0  0  0  0  0  0
  133.2880  125.3550   65.4630 C   0  0  0  0  0  0  0  0  0  0  0  0
  133.0700  123.3860   63.8840 C   0  0  0  0  0  0  0  0  0  0  0  0
  132.3420  122.6260   62.9560 C   0  0  0  0  0  0  0  0  0  0  0  0
  132.9990  121.3800   62.3520 C   0  0  0  0  0  0  0  0  0  0  0  0
  133.4980  121.5940   61.1310 F   0  0  0  0  0  0  0  0  0  0  0  0
  134.0050  120.9790   63.1280 F   0  0  0  0  0  0  0  0  0  0  0  0
  132.1020  120.4000   62.2510 F   0  0  0  0  0  0  0  0  0  0  0  0
  131.0250  123.0730   62.6380 C   0  0  0  0  0  0  0  0  0  0  0  0
  130.0050  122.5700   61.7500 C   0  0  0  0  0  0  0  0  0  0  0  0
  130.1820  121.4500   60.9780 N   0  0  0  0  0  0  0  0  0  0  0  0
  127.0020  122.6900   57.4100 N   0  0  0  0  0  0  0  0  0  0  0  0
  1  2  1  0
  2  3  2  0
  3  4  1  0
  4  5  2  0
  5  6  1  0
  6  7  1  0
  7  8  1  0
  8  9  2  0
  8 10  1  0
 10 11  1  0
 11 12  1  0
 12 13  2  0
 13 14  1  0
 14 15  1  0
 14 16  2  0
 16 17  1  0
 17 18  1  0
 18 19  1  0
 18 20  1  0
 18 21  1  0
 17 22  2  0
 22 23  1  0
 23 24  1  0
  6 25  2  0
 25  2  1  0
 23 10  2  0
 22 12  1  0
M  END
>  <Binding energies>  (28) 
[-6.59]

>  <Ligand effiencies>  (28) 
[-0.23535714285714285]

>  <Interactions>  (28) 
["V-B:GLU:543:CD:9879, V-B:PRO:540:N:9855, H-B:ALA:541:N:9862, V-B:PRO:540:CA:9854, V-A:LEU:475:CD2:4258, H-B:TYR:539:O:9839, V-A:ILE:369:CD1:3238, V-A:SER:385:C:3404, V-B:TYR:539:CD2:9845, V-A:ILE:369:CG2:3236, V-B:TYR:539:CE2:9847, V-A:SER:385:CA:3406, V-A:SER:385:CB:3408, V-A:GLY:454:CA:4048, V-B:MET:535:CE:9806, V-B:PRO:540:CB:9856, V-B:TYR:531:CZ:9765, V-B:PRO:540:CD:9858, V-B:TYR:531:CE2:9764, V-B:LEU:363:CD1:8159, V-A:ARG:545:CZ:4925, V-B:ILE:538:CD1:9836, V-B:ILE:538:CG2:9834, V-B:ILE:538:CA:9831, V-B:ILE:538:C:9829, V-B:ILE:538:CB:9833, V-B:MET:535:CG:9804, V-B:VAL:537:C:9821"]

$$$$
4bg_Grossjean_2025
     RDKit          3D

 25 27  0  0  0  0  0  0  0  0999 V2000
  133.2630  125.0480   65.2250 C   0  0  0  0  0  0  0  0  0  0  0  0
  132.2990  124.3150   64.3100 C   0  0  0  0  0  0  0  0  0  0  0  0
  132.6860  123.1600   63.6370 C   0  0  0  0  0  0  0  0  0  0  0  0
  131.7860  122.4950   62.7890 C   0  0  0  0  0  0  0  0  0  0  0  0
  132.2570  121.2270   62.0690 C   0  0  0  0  0  0  0  0  0  0  0  0
  132.4960  121.4230   60.7700 F   0  0  0  0  0  0  0  0  0  0  0  0
  133.3890  120.7900   62.6210 F   0  0  0  0  0  0  0  0  0  0  0  0
  131.3260  120.2790   62.1650 F   0  0  0  0  0  0  0  0  0  0  0  0
  130.4800  123.0540   62.6590 C   0  0  0  0  0  0  0  0  0  0  0  0
  129.3180  122.6660   61.8970 C   0  0  0  0  0  0  0  0  0  0  0  0
  129.3020  121.5700   61.0720 N   0  0  0  0  0  0  0  0  0  0  0  0
  128.2070  123.5040   62.0810 C   0  0  0  0  0  0  0  0  0  0  0  0
  126.8910  123.4250   61.4490 C   0  0  0  0  0  0  0  0  0  0  0  0
  125.9100  122.9930   62.0570 O   0  0  0  0  0  0  0  0  0  0  0  0
  126.8140  123.8890   60.1840 N   0  0  0  0  0  0  0  0  0  0  0  0
  125.6100  123.8970   59.3540 C   0  0  0  0  0  0  0  0  0  0  0  0
  125.8130  123.2720   57.9800 C   0  0  0  0  0  0  0  0  0  0  0  0
  124.7280  123.1170   57.1120 C   0  0  0  0  0  0  0  0  0  0  0  0
  124.9230  122.5810   55.8430 C   0  0  0  0  0  0  0  0  0  0  0  0
  126.2040  122.2140   55.4380 C   0  0  0  0  0  0  0  0  0  0  0  0
  127.2930  122.3810   56.2900 C   0  0  0  0  0  0  0  0  0  0  0  0
  127.0980  122.9160   57.5610 C   0  0  0  0  0  0  0  0  0  0  0  0
  128.5790  124.8280   63.1810 S   0  0  0  0  0  0  0  0  0  0  0  0
  130.2080  124.2380   63.4100 C   0  0  0  0  0  0  0  0  0  0  0  0
  131.0680  124.8670   64.2120 N   0  0  0  0  0  0  0  0  0  0  0  0
  1  2  1  0
  2  3  2  0
  3  4  1  0
  4  5  1  0
  5  6  1  0
  5  7  1  0
  5  8  1  0
  4  9  2  0
  9 10  1  0
 10 11  1  0
 10 12  2  0
 12 13  1  0
 13 14  2  0
 13 15  1  0
 15 16  1  0
 16 17  1  0
 17 18  2  0
 18 19  1  0
 19 20  2  0
 20 21  1  0
 21 22  2  0
 12 23  1  0
 23 24  1  0
 24 25  2  0
 25  2  1  0
 24  9  1  0
 22 17  1  0
M  END
>  <Binding energies>  (29) 
[-6.69]

>  <Ligand effiencies>  (29) 
[-0.23892857142857143]

>  <Interactions>  (29) 
["V-B:GLU:543:CD:9879, V-B:PRO:540:N:9855, H-B:ALA:541:N:9862, V-B:ALA:541:CB:9863, V-B:PRO:540:CA:9854, V-B:TYR:539:C:9838, V-A:LEU:475:CD2:4258, H-B:TYR:539:O:9839, V-A:SER:385:C:3404, V-B:TYR:539:CD2:9845, V-A:ILE:369:CG2:3236, V-B:TYR:539:CE2:9847, V-A:SER:385:CA:3406, V-A:SER:385:CB:3408, V-A:GLY:454:CA:4048, V-B:TYR:539:CG:9843, V-B:MET:535:CE:9806, V-B:PRO:540:CB:9856, V-B:TYR:539:CD1:9844, V-B:TYR:531:CZ:9765, V-B:PRO:540:CD:9858, V-B:TYR:531:CE2:9764, V-B:LEU:363:CD1:8159, V-A:ARG:545:CZ:4925, V-B:ILE:538:CD1:9836, V-B:ILE:538:CG2:9834, V-B:ILE:538:CA:9831, V-B:TYR:539:CE1:9846, V-B:ILE:538:C:9829, V-B:ILE:538:CB:9833, V-B:MET:535:CG:9804"]

$$$$
4ca_Grossjean_2025
     RDKit          3D

 34 37  0  0  0  0  0  0  0  0999 V2000
  128.4260  132.2910   55.0140 C   0  0  0  0  0  0  0  0  0  0  0  0
  129.6380  133.1900   54.7480 C   0  0  0  0  0  0  0  0  0  0  0  0
  130.1890  133.6180   55.9870 O   0  0  0  0  0  0  0  0  0  0  0  0
  131.3330  133.0700   56.4730 C   0  0  0  0  0  0  0  0  0  0  0  0
  132.4450  133.2580   55.9680 O   0  0  0  0  0  0  0  0  0  0  0  0
  131.1110  132.2160   57.6870 C   0  0  0  0  0  0  0  0  0  0  0  0
  131.8120  132.5060   58.8650 C   0  0  0  0  0  0  0  0  0  0  0  0
  131.6240  131.7350   60.0090 C   0  0  0  0  0  0  0  0  0  0  0  0
  130.7400  130.6560   59.9970 C   0  0  0  0  0  0  0  0  0  0  0  0
  130.6210  129.9510   61.2110 N   0  0  0  0  0  0  0  0  0  0  0  0
  129.6580  129.0930   61.6300 C   0  0  0  0  0  0  0  0  0  0  0  0
  128.6980  128.7420   60.9440 O   0  0  0  0  0  0  0  0  0  0  0  0
  129.8340  128.5710   62.9870 C   0  0  0  0  0  0  0  0  0  0  0  0
  128.7720  129.1040   64.2870 S   0  0  0  0  0  0  0  0  0  0  0  0
  129.5720  128.0550   65.4320 C   0  0  0  0  0  0  0  0  0  0  0  0
  129.1880  127.9960   66.7050 N   0  0  0  0  0  0  0  0  0  0  0  0
  129.8600  127.1410   67.5190 C   0  0  0  0  0  0  0  0  0  0  0  0
  129.3970  127.0900   68.9460 C   0  0  0  0  0  0  0  0  0  0  0  0
  128.7790  125.9400   69.4620 C   0  0  0  0  0  0  0  0  0  0  0  0
  128.3430  125.8890   70.7830 C   0  0  0  0  0  0  0  0  0  0  0  0
  128.5180  126.9930   71.6110 C   0  0  0  0  0  0  0  0  0  0  0  0
  129.1240  128.1470   71.1250 C   0  0  0  0  0  0  0  0  0  0  0  0
  129.5590  128.1940   69.8030 C   0  0  0  0  0  0  0  0  0  0  0  0
  130.9280  126.3650   67.0540 C   0  0  0  0  0  0  0  0  0  0  0  0
  131.3430  126.4230   65.7150 C   0  0  0  0  0  0  0  0  0  0  0  0
  132.5180  125.5430   65.2730 C   0  0  0  0  0  0  0  0  0  0  0  0
  132.1380  124.3360   64.8490 F   0  0  0  0  0  0  0  0  0  0  0  0
  133.1710  126.1310   64.2710 F   0  0  0  0  0  0  0  0  0  0  0  0
  133.3540  125.3590   66.2960 F   0  0  0  0  0  0  0  0  0  0  0  0
  130.6340  127.3040   64.8500 C   0  0  0  0  0  0  0  0  0  0  0  0
  130.7600  127.6180   63.4470 C   0  0  0  0  0  0  0  0  0  0  0  0
  131.7030  127.0370   62.6400 N   0  0  0  0  0  0  0  0  0  0  0  0
  130.0300  130.3610   58.8250 C   0  0  0  0  0  0  0  0  0  0  0  0
  130.2170  131.1350   57.6820 C   0  0  0  0  0  0  0  0  0  0  0  0
  1  2  1  0
  2  3  1  0
  3  4  1  0
  4  5  2  0
  4  6  1  0
  6  7  2  0
  7  8  1  0
  8  9  2  0
  9 10  1  0
 10 11  1  0
 11 12  2  0
 11 13  1  0
 13 14  1  0
 14 15  1  0
 15 16  2  0
 16 17  1  0
 17 18  1  0
 18 19  2  0
 19 20  1  0
 20 21  2  0
 21 22  1  0
 22 23  2  0
 17 24  2  0
 24 25  1  0
 25 26  1  0
 26 27  1  0
 26 28  1  0
 26 29  1  0
 25 30  2  0
 30 31  1  0
 31 32  1  0
  9 33  1  0
 33 34  2  0
 34  6  1  0
 31 13  2  0
 30 15  1  0
 23 18  1  0
M  END
>  <Binding energies>  (30) 
[-7.41]

>  <Ligand effiencies>  (30) 
[-0.20027027027027028]

>  <Interactions>  (30) 
["V-A:TYR:539:CZ:4876, V-A:ASP:366:CG:3212, V-A:PRO:540:CB:4884, V-A:TYR:539:CE1:4874, H-A:GLU:543:OE2:4909, V-A:PRO:540:CA:4882, V-A:TYR:531:CE2:4792, V-A:ILE:538:CA:4859, V-A:GLY:454:CA:4048, V-A:ARG:545:CZ:4925, V-A:HIS:456:CE1:4069, V-B:GLU:543:CB:9877, V-A:GLU:543:CD:4907, V-B:HIS:456:CE1:9040, V-B:GLU:543:C:9873, V-A:GLU:543:CG:4906, H-A:ASP:366:OD2:3214, V-A:ILE:538:CG2:4862, V-A:TYR:484:CZ:4346, H-A:ASP:366:OD1:3213, V-A:PRO:540:N:4883, V-A:MET:535:CG:4832, H-A:TYR:539:N:4869, V-A:MET:535:CB:4831, V-B:GLU:543:CA:9875"]

$$$$
4cb_Grossjean_2025
     RDKit          3D

 33 36  0  0  0  0  0  0  0  0999 V2000
  129.9940  133.5390   54.6720 C   0  0  0  0  0  0  0  0  0  0  0  0
  130.1120  133.6150   56.0850 O   0  0  0  0  0  0  0  0  0  0  0  0
  131.2260  133.1680   56.7180 C   0  0  0  0  0  0  0  0  0  0  0  0
  132.3730  133.3860   56.3150 O   0  0  0  0  0  0  0  0  0  0  0  0
  130.9260  132.3790   57.9620 C   0  0  0  0  0  0  0  0  0  0  0  0
  131.9400  132.1820   58.9080 C   0  0  0  0  0  0  0  0  0  0  0  0
  131.6910  131.4620   60.0730 C   0  0  0  0  0  0  0  0  0  0  0  0
  130.4280  130.9210   60.3140 C   0  0  0  0  0  0  0  0  0  0  0  0
  130.2840  130.2250   61.5300 N   0  0  0  0  0  0  0  0  0  0  0  0
  129.2370  129.5060   62.0050 C   0  0  0  0  0  0  0  0  0  0  0  0
  128.1970  129.3010   61.3780 O   0  0  0  0  0  0  0  0  0  0  0  0
  129.4210  128.9480   63.3470 C   0  0  0  0  0  0  0  0  0  0  0  0
  128.3900  129.4760   64.6760 S   0  0  0  0  0  0  0  0  0  0  0  0
  129.1820  128.3800   65.7850 C   0  0  0  0  0  0  0  0  0  0  0  0
  128.8170  128.3020   67.0630 N   0  0  0  0  0  0  0  0  0  0  0  0
  129.4840  127.4130   67.8460 C   0  0  0  0  0  0  0  0  0  0  0  0
  129.0460  127.3430   69.2800 C   0  0  0  0  0  0  0  0  0  0  0  0
  129.6690  128.1340   70.2590 C   0  0  0  0  0  0  0  0  0  0  0  0
  129.2710  128.0710   71.5930 C   0  0  0  0  0  0  0  0  0  0  0  0
  128.2410  127.2140   71.9660 C   0  0  0  0  0  0  0  0  0  0  0  0
  127.6090  126.4180   71.0160 C   0  0  0  0  0  0  0  0  0  0  0  0
  128.0120  126.4830   69.6850 C   0  0  0  0  0  0  0  0  0  0  0  0
  130.5260  126.6250   67.3460 C   0  0  0  0  0  0  0  0  0  0  0  0
  130.9200  126.7030   66.0020 C   0  0  0  0  0  0  0  0  0  0  0  0
  132.0700  125.8090   65.5200 C   0  0  0  0  0  0  0  0  0  0  0  0
  131.6530  124.6320   65.0470 F   0  0  0  0  0  0  0  0  0  0  0  0
  132.7350  126.4200   64.5400 F   0  0  0  0  0  0  0  0  0  0  0  0
  132.9030  125.5610   66.5300 F   0  0  0  0  0  0  0  0  0  0  0  0
  130.2170  127.6200   65.1680 C   0  0  0  0  0  0  0  0  0  0  0  0
  130.3280  127.9620   63.7700 C   0  0  0  0  0  0  0  0  0  0  0  0
  131.2420  127.3740   62.9340 N   0  0  0  0  0  0  0  0  0  0  0  0
  129.4060  131.1160   59.3730 C   0  0  0  0  0  0  0  0  0  0  0  0
  129.6560  131.8370   58.2090 C   0  0  0  0  0  0  0  0  0  0  0  0
  1  2  1  0
  2  3  1  0
  3  4  2  0
  3  5  1  0
  5  6  2  0
  6  7  1  0
  7  8  2  0
  8  9  1  0
  9 10  1  0
 10 11  2  0
 10 12  1  0
 12 13  1  0
 13 14  1  0
 14 15  2  0
 15 16  1  0
 16 17  1  0
 17 18  2  0
 18 19  1  0
 19 20  2  0
 20 21  1  0
 21 22  2  0
 16 23  2  0
 23 24  1  0
 24 25  1  0
 25 26  1  0
 25 27  1  0
 25 28  1  0
 24 29  2  0
 29 30  1  0
 30 31  1  0
  8 32  1  0
 32 33  2  0
 33  5  1  0
 30 12  2  0
 29 14  1  0
 22 17  1  0
M  END
>  <Binding energies>  (31) 
[-7.29]

>  <Ligand effiencies>  (31) 
[-0.2025]

>  <Interactions>  (31) 
["V-A:PRO:540:CB:4884, H-A:GLU:543:OE2:4909, V-A:PRO:540:CA:4882, V-A:ILE:538:CA:4859, V-A:ARG:545:CZ:4925, V-A:HIS:456:CE1:4069, V-B:GLU:543:CB:9877, V-A:GLU:543:CD:4907, V-B:HIS:456:CE1:9040, V-B:GLU:543:C:9873, V-A:GLU:543:CG:4906, V-A:ILE:538:CB:4861, H-A:ASP:366:OD2:3214, V-A:ILE:538:CG2:4862, V-A:TYR:484:CZ:4346, V-B:GLY:544:C:9883, V-A:PRO:540:N:4883, V-A:MET:535:CG:4832, H-A:TYR:539:N:4869, V-A:MET:535:CB:4831"]

$$$$
4cc_Grossjean_2025
     RDKit          3D

 31 34  0  0  0  0  0  0  0  0999 V2000
  129.8450  129.1420   71.7350 C   0  0  0  0  0  0  0  0  0  0  0  0
  128.9180  128.4470   70.9080 O   0  0  0  0  0  0  0  0  0  0  0  0
  129.3780  127.7890   69.7840 C   0  0  0  0  0  0  0  0  0  0  0  0
  129.0100  126.4510   69.6520 C   0  0  0  0  0  0  0  0  0  0  0  0
  129.4240  125.7060   68.5510 C   0  0  0  0  0  0  0  0  0  0  0  0
  130.2270  126.2900   67.5690 C   0  0  0  0  0  0  0  0  0  0  0  0
  130.5840  125.4650   66.4860 N   0  0  0  0  0  0  0  0  0  0  0  0
  131.6500  125.5550   65.6550 C   0  0  0  0  0  0  0  0  0  0  0  0
  132.5350  126.4060   65.7600 O   0  0  0  0  0  0  0  0  0  0  0  0
  131.7010  124.5530   64.5860 C   0  0  0  0  0  0  0  0  0  0  0  0
  131.0770  122.9280   64.8620 S   0  0  0  0  0  0  0  0  0  0  0  0
  131.4850  122.4470   63.2320 C   0  0  0  0  0  0  0  0  0  0  0  0
  131.2370  121.2170   62.7880 N   0  0  0  0  0  0  0  0  0  0  0  0
  131.5800  120.9380   61.5040 C   0  0  0  0  0  0  0  0  0  0  0  0
  131.2910  119.5430   61.0330 C   0  0  0  0  0  0  0  0  0  0  0  0
  132.1250  118.9150   60.0920 C   0  0  0  0  0  0  0  0  0  0  0  0
  131.8620  117.6220   59.6490 C   0  0  0  0  0  0  0  0  0  0  0  0
  130.7570  116.9350   60.1410 C   0  0  0  0  0  0  0  0  0  0  0  0
  129.9140  117.5340   61.0710 C   0  0  0  0  0  0  0  0  0  0  0  0
  130.1800  118.8280   61.5100 C   0  0  0  0  0  0  0  0  0  0  0  0
  132.1860  121.8900   60.6780 C   0  0  0  0  0  0  0  0  0  0  0  0
  132.4540  123.1900   61.1360 C   0  0  0  0  0  0  0  0  0  0  0  0
  133.1150  124.1850   60.1750 C   0  0  0  0  0  0  0  0  0  0  0  0
  133.3350  123.6740   58.9610 F   0  0  0  0  0  0  0  0  0  0  0  0
  132.3310  125.2520   60.0220 F   0  0  0  0  0  0  0  0  0  0  0  0
  134.2920  124.5710   60.6650 F   0  0  0  0  0  0  0  0  0  0  0  0
  132.0900  123.4960   62.4790 C   0  0  0  0  0  0  0  0  0  0  0  0
  132.2040  124.6890   63.2820 C   0  0  0  0  0  0  0  0  0  0  0  0
  132.7550  125.8520   62.8070 N   0  0  0  0  0  0  0  0  0  0  0  0
  130.5920  127.6400   67.6890 C   0  0  0  0  0  0  0  0  0  0  0  0
  130.1730  128.3810   68.7900 C   0  0  0  0  0  0  0  0  0  0  0  0
  1  2  1  0
  2  3  1  0
  3  4  2  0
  4  5  1  0
  5  6  2  0
  6  7  1  0
  7  8  1  0
  8  9  2  0
  8 10  1  0
 10 11  1  0
 11 12  1  0
 12 13  2  0
 13 14  1  0
 14 15  1  0
 15 16  2  0
 16 17  1  0
 17 18  2  0
 18 19  1  0
 19 20  2  0
 14 21  2  0
 21 22  1  0
 22 23  1  0
 23 24  1  0
 23 25  1  0
 23 26  1  0
 22 27  2  0
 27 28  1  0
 28 29  1  0
  6 30  1  0
 30 31  2  0
 31  3  1  0
 28 10  2  0
 27 12  1  0
 20 15  1  0
M  END
>  <Binding energies>  (32) 
[-7.32]

>  <Ligand effiencies>  (32) 
[-0.21529411764705883]

>  <Interactions>  (32) 
["V-A:ASP:366:CG:3212, V-A:ASP:366:CB:3211, V-B:GLU:543:CD:9879, H-A:TYR:484:OH:4347, V-B:ALA:541:CB:9863, H-B:GLU:543:OE2:9881, V-B:TYR:539:C:9838, V-A:LEU:475:CD2:4258, V-A:PRO:482:CG:4326, V-A:HIS:383:CE1:3393, V-A:ILE:369:CD1:3238, V-B:TYR:539:CD2:9845, V-A:ILE:369:CG2:3236, V-B:TYR:539:CE2:9847, V-B:TYR:539:CB:9842, V-B:VAL:344:CG1:7971, V-B:TYR:539:CG:9843, V-B:TYR:539:CZ:9848, V-A:PRO:482:CB:4325, V-B:GLU:543:CG:9878, V-A:ARG:545:CZ:4925, V-A:HIS:456:CE1:4069, V-B:GLU:543:CB:9877, V-A:GLU:543:CD:4907, V-B:HIS:456:CE1:9040, H-A:ASP:366:OD2:3214, V-A:GLU:543:CB:4905, V-A:GLU:543:C:4901, H-A:ARG:545:NH2:4927, H-A:ARG:545:NE:4923, V-A:TYR:484:CZ:4346, V-A:TYR:484:CE2:4345, H-A:ASP:366:OD1:3213, V-A:ILE:369:CB:3235, V-A:ASP:366:CA:3209, V-A:ILE:369:CG1:3237"]

$$$$
4ce_Grossjean_2025
     RDKit          3D

 30 33  0  0  0  0  0  0  0  0999 V2000
  135.4640  125.7170   67.0390 C   0  0  0  0  0  0  0  0  0  0  0  0
  133.9680  125.9070   66.8760 C   0  0  0  0  0  0  0  0  0  0  0  0
  133.1890  126.4730   67.8890 C   0  0  0  0  0  0  0  0  0  0  0  0
  131.8190  126.6240   67.6670 C   0  0  0  0  0  0  0  0  0  0  0  0
  131.2680  126.2120   66.4520 C   0  0  0  0  0  0  0  0  0  0  0  0
  132.1050  125.6470   65.4820 C   0  0  0  0  0  0  0  0  0  0  0  0
  131.4950  125.2750   64.2710 N   0  0  0  0  0  0  0  0  0  0  0  0
  130.9260  124.0890   63.9370 C   0  0  0  0  0  0  0  0  0  0  0  0
  130.8490  123.1270   64.7030 O   0  0  0  0  0  0  0  0  0  0  0  0
  130.3910  124.0100   62.5760 C   0  0  0  0  0  0  0  0  0  0  0  0
  128.8500  123.2110   62.2750 S   0  0  0  0  0  0  0  0  0  0  0  0
  128.9400  123.5800   60.5700 C   0  0  0  0  0  0  0  0  0  0  0  0
  127.9790  123.2100   59.7270 N   0  0  0  0  0  0  0  0  0  0  0  0
  128.1300  123.5560   58.4220 C   0  0  0  0  0  0  0  0  0  0  0  0
  127.0260  123.1280   57.5000 C   0  0  0  0  0  0  0  0  0  0  0  0
  125.6870  123.4270   57.7990 C   0  0  0  0  0  0  0  0  0  0  0  0
  124.6570  123.0280   56.9510 C   0  0  0  0  0  0  0  0  0  0  0  0
  124.9530  122.3240   55.7890 C   0  0  0  0  0  0  0  0  0  0  0  0
  126.2710  122.0150   55.4700 C   0  0  0  0  0  0  0  0  0  0  0  0
  127.2980  122.4130   56.3210 C   0  0  0  0  0  0  0  0  0  0  0  0
  129.2550  124.2510   57.9660 C   0  0  0  0  0  0  0  0  0  0  0  0
  130.2770  124.6410   58.8450 C   0  0  0  0  0  0  0  0  0  0  0  0
  131.4800  125.4030   58.2790 C   0  0  0  0  0  0  0  0  0  0  0  0
  131.6550  126.6000   58.8420 F   0  0  0  0  0  0  0  0  0  0  0  0
  132.5950  124.6990   58.4820 F   0  0  0  0  0  0  0  0  0  0  0  0
  131.3160  125.5970   56.9710 F   0  0  0  0  0  0  0  0  0  0  0  0
  130.1220  124.2980   60.2190 C   0  0  0  0  0  0  0  0  0  0  0  0
  130.9340  124.5280   61.3880 C   0  0  0  0  0  0  0  0  0  0  0  0
  132.1310  125.1960   61.3400 N   0  0  0  0  0  0  0  0  0  0  0  0
  133.4460  125.5000   65.6900 N   0  0  0  0  0  0  0  0  0  0  0  0
  1  2  1  0
  2  3  2  0
  3  4  1  0
  4  5  2  0
  5  6  1  0
  6  7  1  0
  7  8  1  0
  8  9  2  0
  8 10  1  0
 10 11  1  0
 11 12  1  0
 12 13  2  0
 13 14  1  0
 14 15  1  0
 15 16  2  0
 16 17  1  0
 17 18  2  0
 18 19  1  0
 19 20  2  0
 14 21  2  0
 21 22  1  0
 22 23  1  0
 23 24  1  0
 23 25  1  0
 23 26  1  0
 22 27  2  0
 27 28  1  0
 28 29  1  0
  6 30  2  0
 30  2  1  0
 28 10  2  0
 27 12  1  0
 20 15  1  0
M  END
>  <Binding energies>  (33) 
[-7.97]

>  <Ligand effiencies>  (33) 
[-0.24151515151515152]

>  <Interactions>  (33) 
["V-A:ASP:366:CG:3212, V-A:ASP:366:CB:3211, V-B:PRO:540:N:9855, H-A:TYR:484:OH:4347, V-B:PRO:540:CA:9854, V-B:TYR:539:C:9838, V-B:TYR:539:CE2:9847, V-A:GLY:454:CA:4048, V-B:TYR:539:CG:9843, V-B:MET:535:CE:9806, V-B:TYR:539:CZ:9848, V-B:PRO:540:CB:9856, H-A:GLY:454:N:4049, V-A:GLY:453:C:4041, V-A:ARG:545:CD:4922, V-B:TYR:539:CD1:9844, V-B:PRO:540:CD:9858, V-B:TYR:531:CE2:9764, V-B:LEU:363:CD1:8159, V-A:ARG:545:CZ:4925, V-B:ILE:538:CD1:9836, V-A:ARG:545:CG:4921, V-A:HIS:456:CE1:4069, V-B:ILE:538:CG2:9834, H-A:ASP:366:OD2:3214, V-B:ILE:538:CA:9831, V-A:GLY:453:CA:4043, V-B:TYR:539:CE1:9846, V-B:ILE:538:C:9829, V-B:ILE:538:CB:9833, H-A:ARG:545:NE:4923, H-A:ASP:366:OD1:3213, V-B:MET:535:CG:9804, V-A:ILE:455:C:4051, V-A:ARG:545:CB:4920"]

$$$$
4cf_Grossjean_2025
     RDKit          3D

 29 32  0  0  0  0  0  0  0  0999 V2000
  132.7810  125.9800   62.7540 N   0  0  0  0  0  0  0  0  0  0  0  0
  132.2410  124.8270   63.2620 C   0  0  0  0  0  0  0  0  0  0  0  0
  131.7400  124.7230   64.5700 C   0  0  0  0  0  0  0  0  0  0  0  0
  131.7170  125.7410   65.6230 C   0  0  0  0  0  0  0  0  0  0  0  0
  132.7590  126.0970   66.1740 O   0  0  0  0  0  0  0  0  0  0  0  0
  130.4940  126.2460   65.9170 N   0  0  0  0  0  0  0  0  0  0  0  0
  130.1210  127.1860   66.8960 C   0  0  0  0  0  0  0  0  0  0  0  0
  130.6270  127.2420   68.2090 C   0  0  0  0  0  0  0  0  0  0  0  0
  130.1590  128.2210   69.0880 C   0  0  0  0  0  0  0  0  0  0  0  0
  129.1950  129.1220   68.6330 C   0  0  0  0  0  0  0  0  0  0  0  0
  128.6870  129.0860   67.3760 N   0  0  0  0  0  0  0  0  0  0  0  0
  129.1500  128.1270   66.5330 C   0  0  0  0  0  0  0  0  0  0  0  0
  131.1180  123.1040   64.8860 S   0  0  0  0  0  0  0  0  0  0  0  0
  131.5410  122.5780   63.2730 C   0  0  0  0  0  0  0  0  0  0  0  0
  131.3080  121.3320   62.8650 N   0  0  0  0  0  0  0  0  0  0  0  0
  131.6870  121.0130   61.5990 C   0  0  0  0  0  0  0  0  0  0  0  0
  131.4190  119.6000   61.1700 C   0  0  0  0  0  0  0  0  0  0  0  0
  130.2510  118.9360   61.5750 C   0  0  0  0  0  0  0  0  0  0  0  0
  129.9950  117.6250   61.1810 C   0  0  0  0  0  0  0  0  0  0  0  0
  130.9070  116.9600   60.3690 C   0  0  0  0  0  0  0  0  0  0  0  0
  132.0710  117.5950   59.9490 C   0  0  0  0  0  0  0  0  0  0  0  0
  132.3230  118.9050   60.3460 C   0  0  0  0  0  0  0  0  0  0  0  0
  132.2730  121.9510   60.7440 C   0  0  0  0  0  0  0  0  0  0  0  0
  132.5180  123.2680   61.1630 C   0  0  0  0  0  0  0  0  0  0  0  0
  133.1690  124.2430   60.1750 C   0  0  0  0  0  0  0  0  0  0  0  0
  133.3480  123.7180   58.9610 F   0  0  0  0  0  0  0  0  0  0  0  0
  132.3990  125.3220   60.0330 F   0  0  0  0  0  0  0  0  0  0  0  0
  134.3660  124.6140   60.6290 F   0  0  0  0  0  0  0  0  0  0  0  0
  132.1420  123.6100   62.4940 C   0  0  0  0  0  0  0  0  0  0  0  0
  1  2  1  0
  2  3  2  0
  3  4  1  0
  4  5  2  0
  4  6  1  0
  6  7  1  0
  7  8  2  0
  8  9  1  0
  9 10  2  0
 10 11  1  0
 11 12  2  0
  3 13  1  0
 13 14  1  0
 14 15  2  0
 15 16  1  0
 16 17  1  0
 17 18  2  0
 18 19  1  0
 19 20  2  0
 20 21  1  0
 21 22  2  0
 16 23  2  0
 23 24  1  0
 24 25  1  0
 25 26  1  0
 25 27  1  0
 25 28  1  0
 24 29  2  0
 29  2  1  0
 12  7  1  0
 29 14  1  0
 22 17  1  0
M  END
>  <Binding energies>  (34) 
[-7.71]

>  <Ligand effiencies>  (34) 
[-0.2409375]

>  <Interactions>  (34) 
["V-A:ASP:366:CG:3212, V-A:ASP:366:CB:3211, V-B:GLU:543:CD:9879, H-A:TYR:484:OH:4347, V-B:ALA:541:CB:9863, H-B:GLU:543:OE2:9881, V-B:TYR:539:C:9838, V-A:LEU:475:CD2:4258, V-A:PRO:482:CG:4326, V-A:HIS:383:CE1:3393, V-A:ILE:369:CD1:3238, V-B:TYR:539:CD2:9845, V-A:ILE:369:CG2:3236, V-B:TYR:539:CE2:9847, V-B:TYR:539:CB:9842, V-B:VAL:344:CG1:7971, V-B:TYR:539:CZ:9848, V-A:PRO:482:CB:4325, V-A:ARG:545:CZ:4925, V-A:HIS:456:CE1:4069, V-A:GLU:543:CD:4907, V-B:HIS:456:CE1:9040, V-A:GLU:543:CG:4906, H-A:ASP:366:OD2:3214, V-A:GLU:543:CB:4905, H-A:ARG:545:NE:4923, V-A:TYR:484:CZ:4346, V-A:TYR:484:CE2:4345, H-A:ASP:366:OD1:3213, V-A:ILE:369:CB:3235, V-A:ASP:366:CA:3209, V-A:ILE:369:CG1:3237"]

$$$$
4ci_Grossjean_2025
     RDKit          3D

 28 31  0  0  0  0  0  0  0  0999 V2000
  128.8160  124.2540   63.8770 N   0  0  0  0  0  0  0  0  0  0  0  0
  129.2500  123.9120   62.6220 C   0  0  0  0  0  0  0  0  0  0  0  0
  130.6050  123.7370   62.2980 C   0  0  0  0  0  0  0  0  0  0  0  0
  131.7760  123.8600   63.1700 C   0  0  0  0  0  0  0  0  0  0  0  0
  132.6140  122.9570   63.2310 O   0  0  0  0  0  0  0  0  0  0  0  0
  131.8500  125.0080   63.8900 N   0  0  0  0  0  0  0  0  0  0  0  0
  132.8410  125.3800   64.7890 C   0  0  0  0  0  0  0  0  0  0  0  0
  132.5700  125.8150   66.0860 C   0  0  0  0  0  0  0  0  0  0  0  0
  133.8000  126.0830   66.6390 C   0  0  0  0  0  0  0  0  0  0  0  0
  134.7640  125.8220   65.7230 O   0  0  0  0  0  0  0  0  0  0  0  0
  134.1420  125.3780   64.5540 N   0  0  0  0  0  0  0  0  0  0  0  0
  130.8020  123.2920   60.6050 S   0  0  0  0  0  0  0  0  0  0  0  0
  129.0750  123.3510   60.3410 C   0  0  0  0  0  0  0  0  0  0  0  0
  128.5440  123.0870   59.1490 N   0  0  0  0  0  0  0  0  0  0  0  0
  127.1920  123.1550   59.0420 C   0  0  0  0  0  0  0  0  0  0  0  0
  126.6230  122.8570   57.6840 C   0  0  0  0  0  0  0  0  0  0  0  0
  127.4410  122.3690   56.6510 C   0  0  0  0  0  0  0  0  0  0  0  0
  126.9190  122.0900   55.3910 C   0  0  0  0  0  0  0  0  0  0  0  0
  125.5660  122.2970   55.1440 C   0  0  0  0  0  0  0  0  0  0  0  0
  124.7340  122.7830   56.1450 C   0  0  0  0  0  0  0  0  0  0  0  0
  125.2600  123.0630   57.4040 C   0  0  0  0  0  0  0  0  0  0  0  0
  126.3820  123.5050   60.1270 C   0  0  0  0  0  0  0  0  0  0  0  0
  126.9320  123.7850   61.3890 C   0  0  0  0  0  0  0  0  0  0  0  0
  125.9850  124.1620   62.5340 C   0  0  0  0  0  0  0  0  0  0  0  0
  126.2140  123.4700   63.6520 F   0  0  0  0  0  0  0  0  0  0  0  0
  126.1280  125.4540   62.8290 F   0  0  0  0  0  0  0  0  0  0  0  0
  124.7230  123.9300   62.1710 F   0  0  0  0  0  0  0  0  0  0  0  0
  128.3480  123.7040   61.5150 C   0  0  0  0  0  0  0  0  0  0  0  0
  1  2  1  0
  2  3  2  0
  3  4  1  0
  4  5  2  0
  4  6  1  0
  6  7  1  0
  7  8  1  0
  8  9  2  0
  9 10  1  0
 10 11  1  0
  3 12  1  0
 12 13  1  0
 13 14  2  0
 14 15  1  0
 15 16  1  0
 16 17  2  0
 17 18  1  0
 18 19  2  0
 19 20  1  0
 20 21  2  0
 15 22  2  0
 22 23  1  0
 23 24  1  0
 24 25  1  0
 24 26  1  0
 24 27  1  0
 23 28  2  0
 28  2  1  0
 11  7  2  0
 28 13  1  0
 21 16  1  0
M  END
>  <Binding energies>  (35) 
[-7.69]

>  <Ligand effiencies>  (35) 
[-0.24806451612903227]

>  <Interactions>  (35) 
["V-B:GLU:543:CD:9879, V-B:PRO:540:N:9855, V-B:PRO:540:CA:9854, H-B:GLU:543:OE2:9881, V-B:ALA:541:CA:9861, H-B:GLU:543:OE1:9880, V-B:TYR:539:C:9838, V-B:TYR:539:CD2:9845, V-B:TYR:539:CE2:9847, V-B:TYR:539:CG:9843, V-B:MET:535:CE:9806, V-B:GLU:543:CG:9878, V-B:ALA:541:C:9859, V-B:PRO:540:CB:9856, H-A:GLY:454:N:4049, V-B:TYR:539:CA:9840, V-A:ARG:545:CD:4922, V-B:TYR:539:CD1:9844, V-B:TYR:531:CZ:9765, V-B:PRO:540:CD:9858, V-B:TYR:531:CE2:9764, V-B:LEU:363:CD1:8159, V-A:ARG:545:CZ:4925, V-B:ILE:538:CD1:9836, V-A:ARG:545:CG:4921, V-B:ILE:538:CG2:9834, H-A:ARG:545:NH1:4926, H-A:ARG:545:NH2:4927, V-B:ILE:538:CA:9831, V-B:TYR:539:CE1:9846, V-B:ILE:538:CG1:9835, V-B:ILE:538:C:9829, V-B:ILE:538:CB:9833, H-A:ARG:545:NE:4923, V-B:MET:535:CG:9804, V-B:ARG:545:CZ:9897"]

$$$$
8a_Ghoteimi_2023
     RDKit          3D

 40 44  0  0  0  0  0  0  0  0999 V2000
  128.7540  133.1120   54.0900 C   0  0  0  0  0  0  0  0  0  0  0  0
  129.4360  132.5980   55.3620 C   0  0  0  0  0  0  0  0  0  0  0  0
  130.2580  133.6230   55.9050 O   0  0  0  0  0  0  0  0  0  0  0  0
  131.3650  133.3210   56.6330 C   0  0  0  0  0  0  0  0  0  0  0  0
  132.5140  133.5740   56.2580 O   0  0  0  0  0  0  0  0  0  0  0  0
  131.0520  132.6460   57.9370 C   0  0  0  0  0  0  0  0  0  0  0  0
  131.5840  131.3760   58.1930 C   0  0  0  0  0  0  0  0  0  0  0  0
  131.3120  130.7230   59.3920 C   0  0  0  0  0  0  0  0  0  0  0  0
  130.5030  131.3230   60.3580 C   0  0  0  0  0  0  0  0  0  0  0  0
  130.2920  130.5670   61.5290 N   0  0  0  0  0  0  0  0  0  0  0  0
  129.2020  129.8750   61.9410 C   0  0  0  0  0  0  0  0  0  0  0  0
  128.1490  129.7980   61.3090 O   0  0  0  0  0  0  0  0  0  0  0  0
  129.3480  129.1890   63.2290 C   0  0  0  0  0  0  0  0  0  0  0  0
  128.4830  129.7710   64.6510 S   0  0  0  0  0  0  0  0  0  0  0  0
  129.1760  128.5100   65.6450 C   0  0  0  0  0  0  0  0  0  0  0  0
  128.9040  128.4160   66.9470 N   0  0  0  0  0  0  0  0  0  0  0  0
  129.4990  127.4020   67.6290 C   0  0  0  0  0  0  0  0  0  0  0  0
  129.1960  127.3270   69.0910 C   0  0  0  0  0  0  0  0  0  0  0  0
  128.4340  126.2750   69.6190 C   0  0  0  0  0  0  0  0  0  0  0  0
  128.1450  126.2180   70.9800 C   0  0  0  0  0  0  0  0  0  0  0  0
  128.6110  127.2050   71.8460 C   0  0  0  0  0  0  0  0  0  0  0  0
  128.2740  127.0670   73.1790 O   0  0  0  0  0  0  0  0  0  0  0  0
  126.9190  127.2520   73.5740 C   0  0  0  0  0  0  0  0  0  0  0  0
  129.3790  128.2580   71.3290 C   0  0  0  0  0  0  0  0  0  0  0  0
  129.6640  128.3150   69.9660 C   0  0  0  0  0  0  0  0  0  0  0  0
  130.3530  126.4870   67.0100 C   0  0  0  0  0  0  0  0  0  0  0  0
  130.6280  126.5720   65.6410 C   0  0  0  0  0  0  0  0  0  0  0  0
  131.5180  125.5530   65.0270 C   0  0  0  0  0  0  0  0  0  0  0  0
  131.0790  124.2370   64.8750 C   0  0  0  0  0  0  0  0  0  0  0  0
  131.9020  123.2840   64.2810 C   0  0  0  0  0  0  0  0  0  0  0  0
  133.1750  123.6310   63.8260 C   0  0  0  0  0  0  0  0  0  0  0  0
  133.9200  122.6200   63.2500 O   0  0  0  0  0  0  0  0  0  0  0  0
  133.2850  121.7070   62.3630 C   0  0  0  0  0  0  0  0  0  0  0  0
  133.6150  124.9550   63.9710 C   0  0  0  0  0  0  0  0  0  0  0  0
  132.7890  125.9070   64.5640 C   0  0  0  0  0  0  0  0  0  0  0  0
  130.0340  127.6390   64.9110 C   0  0  0  0  0  0  0  0  0  0  0  0
  130.1280  128.0630   63.5360 C   0  0  0  0  0  0  0  0  0  0  0  0
  130.9260  127.4240   62.6210 N   0  0  0  0  0  0  0  0  0  0  0  0
  129.9700  132.5970   60.1120 C   0  0  0  0  0  0  0  0  0  0  0  0
  130.2430  133.2490   58.9120 C   0  0  0  0  0  0  0  0  0  0  0  0
  1  2  1  0
  2  3  1  0
  3  4  1  0
  4  5  2  0
  4  6  1  0
  6  7  2  0
  7  8  1  0
  8  9  2  0
  9 10  1  0
 10 11  1  0
 11 12  2  0
 11 13  1  0
 13 14  1  0
 14 15  1  0
 15 16  2  0
 16 17  1  0
 17 18  1  0
 18 19  2  0
 19 20  1  0
 20 21  2  0
 21 22  1  0
 22 23  1  0
 21 24  1  0
 24 25  2  0
 17 26  2  0
 26 27  1  0
 27 28  1  0
 28 29  2  0
 29 30  1  0
 30 31  2  0
 31 32  1  0
 32 33  1  0
 31 34  1  0
 34 35  2  0
 27 36  2  0
 36 37  1  0
 37 38  1  0
  9 39  1  0
 39 40  2  0
 40  6  1  0
 37 13  2  0
 36 15  1  0
 25 18  1  0
 35 28  1  0
M  END
>  <Binding energies>  (36) 
[-9.17]

>  <Ligand effiencies>  (36) 
[-0.21325581395348836]

>  <Interactions>  (36) 
["V-A:TYR:539:CZ:4876, V-A:TYR:539:CE1:4874, H-A:GLU:543:OE2:4909, V-A:TYR:539:CE2:4875, V-A:PRO:540:CA:4882, V-B:GLU:543:CD:9879, V-A:LEU:475:CD2:4258, V-A:GLY:454:CA:4048, H-A:GLY:454:N:4049, V-A:ARG:545:CZ:4925, V-A:HIS:456:CE1:4069, V-B:GLU:543:CB:9877, V-A:GLU:543:CD:4907, V-B:HIS:456:CE1:9040, V-B:LYS:547:CE:9921, V-B:GLU:543:C:9873, V-A:GLU:543:CG:4906, H-A:ASP:366:OD2:3214, V-B:GLY:544:C:9883, V-A:PRO:540:N:4883, V-A:MET:535:CG:4832, V-A:PRO:540:CD:4886, H-A:TYR:539:N:4869, V-A:TYR:539:C:4866, V-A:MET:535:CB:4831, V-B:HIS:456:CD2:9038, V-B:HIS:456:CG:9036"]

$$$$
8c_Ghoteimi_2023
     RDKit          3D

 34 38  0  0  0  0  0  0  0  0999 V2000
  124.3490  132.5330   63.5800 C   0  0  0  0  0  0  0  0  0  0  0  0
  124.5060  131.4440   64.4830 O   0  0  0  0  0  0  0  0  0  0  0  0
  125.0740  130.2680   64.0290 C   0  0  0  0  0  0  0  0  0  0  0  0
  124.6520  129.8140   62.7810 C   0  0  0  0  0  0  0  0  0  0  0  0
  125.1670  128.6370   62.2460 C   0  0  0  0  0  0  0  0  0  0  0  0
  126.1200  127.8840   62.9460 C   0  0  0  0  0  0  0  0  0  0  0  0
  126.6760  126.6160   62.3770 C   0  0  0  0  0  0  0  0  0  0  0  0
  126.2660  126.1240   61.1340 C   0  0  0  0  0  0  0  0  0  0  0  0
  126.8040  124.9370   60.6240 C   0  0  0  0  0  0  0  0  0  0  0  0
  126.3420  124.4390   59.3090 C   0  0  0  0  0  0  0  0  0  0  0  0
  127.2440  124.3100   58.2490 C   0  0  0  0  0  0  0  0  0  0  0  0
  126.8100  123.8320   57.0170 C   0  0  0  0  0  0  0  0  0  0  0  0
  125.4740  123.4800   56.8220 C   0  0  0  0  0  0  0  0  0  0  0  0
  125.1350  123.0130   55.5660 O   0  0  0  0  0  0  0  0  0  0  0  0
  126.1170  122.3380   54.7880 C   0  0  0  0  0  0  0  0  0  0  0  0
  124.5690  123.6140   57.8860 C   0  0  0  0  0  0  0  0  0  0  0  0
  125.0030  124.0910   59.1200 C   0  0  0  0  0  0  0  0  0  0  0  0
  127.7770  124.2560   61.4030 C   0  0  0  0  0  0  0  0  0  0  0  0
  128.5210  123.0430   61.1900 C   0  0  0  0  0  0  0  0  0  0  0  0
  128.3750  122.2790   60.0600 N   0  0  0  0  0  0  0  0  0  0  0  0
  129.3990  122.7230   62.2380 C   0  0  0  0  0  0  0  0  0  0  0  0
  130.3030  121.5760   62.3530 C   0  0  0  0  0  0  0  0  0  0  0  0
  131.2760  121.6140   63.1090 O   0  0  0  0  0  0  0  0  0  0  0  0
  129.9880  120.5080   61.5790 N   0  0  0  0  0  0  0  0  0  0  0  0
  130.6730  119.3040   61.5020 C   0  0  0  0  0  0  0  0  0  0  0  0
  130.2300  118.1020   61.8020 N   0  0  0  0  0  0  0  0  0  0  0  0
  131.1530  117.1820   61.6050 C   0  0  0  0  0  0  0  0  0  0  0  0
  132.3820  117.6340   61.1340 C   0  0  0  0  0  0  0  0  0  0  0  0
  132.3140  119.3600   60.9430 S   0  0  0  0  0  0  0  0  0  0  0  0
  129.3250  123.9310   63.5220 S   0  0  0  0  0  0  0  0  0  0  0  0
  128.1210  124.8520   62.6510 C   0  0  0  0  0  0  0  0  0  0  0  0
  127.6090  125.9810   63.1380 N   0  0  0  0  0  0  0  0  0  0  0  0
  126.5420  128.3490   64.1990 C   0  0  0  0  0  0  0  0  0  0  0  0
  126.0280  129.5250   64.7370 C   0  0  0  0  0  0  0  0  0  0  0  0
  1  2  1  0
  2  3  1  0
  3  4  2  0
  4  5  1  0
  5  6  2  0
  6  7  1  0
  7  8  2  0
  8  9  1  0
  9 10  1  0
 10 11  2  0
 11 12  1  0
 12 13  2  0
 13 14  1  0
 14 15  1  0
 13 16  1  0
 16 17  2  0
  9 18  2  0
 18 19  1  0
 19 20  1  0
 19 21  2  0
 21 22  1  0
 22 23  2  0
 22 24  1  0
 24 25  1  0
 25 26  2  0
 26 27  1  0
 27 28  2  0
 28 29  1  0
 21 30  1  0
 30 31  1  0
 31 32  2  0
  6 33  1  0
 33 34  2  0
 34  3  1  0
 32  7  1  0
 17 10  1  0
 31 18  1  0
 29 25  1  0
M  END
>  <Binding energies>  (37) 
[-8.25]

>  <Ligand effiencies>  (37) 
[-0.22297297297297297]

>  <Interactions>  (37) 
["V-B:GLU:543:CD:9879, V-B:PRO:540:N:9855, V-B:ALA:541:CB:9863, V-B:PRO:540:CA:9854, V-B:PRO:540:C:9852, V-B:TYR:539:C:9838, V-A:LEU:475:CD2:4258, V-A:PRO:482:CG:4326, V-A:HIS:383:CE1:3393, H-B:TYR:539:O:9839, V-B:TYR:539:CD2:9845, V-B:TYR:539:CE2:9847, V-A:SER:385:CA:3406, V-A:SER:385:CB:3408, V-B:MET:535:CE:9806, V-A:PRO:482:CB:4325, V-B:PRO:540:CB:9856, V-B:TYR:531:CZ:9765, V-B:TYR:531:CE2:9764, V-B:LEU:363:CD1:8159, V-B:ILE:538:CD1:9836, V-B:ILE:538:CG2:9834, V-B:ILE:538:CA:9831, V-B:ILE:538:CG1:9835, V-B:ILE:538:C:9829, V-B:ILE:538:CB:9833, H-B:TYR:531:OH:9766, V-B:ASP:366:CG:8183, V-B:MET:535:CG:9804, V-B:ARG:545:CZ:9897, V-B:LEU:475:CD1:9228, V-B:GLY:454:CA:9019, H-B:GLY:454:N:9020"]

$$$$
8d_Ghoteimi_2023
     RDKit          3D

 30 33  0  0  0  0  0  0  0  0999 V2000
  135.1430  127.6390   74.6420 C   0  0  0  0  0  0  0  0  0  0  0  0
  134.4310  128.1070   75.7790 O   0  0  0  0  0  0  0  0  0  0  0  0
  133.4240  127.3730   76.3210 C   0  0  0  0  0  0  0  0  0  0  0  0
  133.3770  127.0370   77.5070 O   0  0  0  0  0  0  0  0  0  0  0  0
  132.3800  127.0130   75.3380 C   0  0  0  0  0  0  0  0  0  0  0  0
  131.7200  128.2470   74.2630 S   0  0  0  0  0  0  0  0  0  0  0  0
  130.6550  127.0810   73.5130 C   0  0  0  0  0  0  0  0  0  0  0  0
  129.8180  127.4200   72.5320 N   0  0  0  0  0  0  0  0  0  0  0  0
  129.0350  126.4340   72.0170 C   0  0  0  0  0  0  0  0  0  0  0  0
  128.1020  126.8430   70.9220 C   0  0  0  0  0  0  0  0  0  0  0  0
  128.5580  127.5810   69.8200 C   0  0  0  0  0  0  0  0  0  0  0  0
  127.6850  127.9590   68.8030 C   0  0  0  0  0  0  0  0  0  0  0  0
  126.3360  127.6110   68.8610 C   0  0  0  0  0  0  0  0  0  0  0  0
  125.5450  128.0280   67.8090 O   0  0  0  0  0  0  0  0  0  0  0  0
  126.1440  128.7330   66.7260 C   0  0  0  0  0  0  0  0  0  0  0  0
  125.8700  126.8720   69.9580 C   0  0  0  0  0  0  0  0  0  0  0  0
  126.7470  126.4950   70.9720 C   0  0  0  0  0  0  0  0  0  0  0  0
  129.0860  125.1190   72.4880 C   0  0  0  0  0  0  0  0  0  0  0  0
  129.9660  124.7620   73.5150 C   0  0  0  0  0  0  0  0  0  0  0  0
  130.0030  123.3580   73.9860 C   0  0  0  0  0  0  0  0  0  0  0  0
  131.1670  122.6000   73.8440 C   0  0  0  0  0  0  0  0  0  0  0  0
  131.1980  121.2780   74.2780 C   0  0  0  0  0  0  0  0  0  0  0  0
  130.0730  120.6960   74.8630 C   0  0  0  0  0  0  0  0  0  0  0  0
  130.1960  119.3800   75.2630 O   0  0  0  0  0  0  0  0  0  0  0  0
  131.2950  119.0030   76.0830 C   0  0  0  0  0  0  0  0  0  0  0  0
  128.9040  121.4630   75.0080 C   0  0  0  0  0  0  0  0  0  0  0  0
  128.8740  122.7850   74.5720 C   0  0  0  0  0  0  0  0  0  0  0  0
  130.7950  125.7750   74.0650 C   0  0  0  0  0  0  0  0  0  0  0  0
  131.7870  125.7670   75.1050 C   0  0  0  0  0  0  0  0  0  0  0  0
  132.1120  124.6340   75.8060 N   0  0  0  0  0  0  0  0  0  0  0  0
  1  2  1  0
  2  3  1  0
  3  4  2  0
  3  5  1  0
  5  6  1  0
  6  7  1  0
  7  8  2  0
  8  9  1  0
  9 10  1  0
 10 11  2  0
 11 12  1  0
 12 13  2  0
 13 14  1  0
 14 15  1  0
 13 16  1  0
 16 17  2  0
  9 18  2  0
 18 19  1  0
 19 20  1  0
 20 21  2  0
 21 22  1  0
 22 23  2  0
 23 24  1  0
 24 25  1  0
 23 26  1  0
 26 27  2  0
 19 28  2  0
 28 29  1  0
 29 30  1  0
 29  5  2  0
 28  7  1  0
 17 10  1  0
 27 20  1  0
M  END
>  <Binding energies>  (38) 
[-6.88]

>  <Ligand effiencies>  (38) 
[-0.215]

>  <Interactions>  (38) 
["V-B:GLU:543:CD:9879, V-A:HIS:456:CE1:4069, V-B:GLU:543:CB:9877, V-B:HIS:456:CE1:9040, V-B:LYS:547:CE:9921, V-A:HIS:456:CD2:4067, V-B:GLU:543:C:9873, V-B:ARG:545:CG:9893, H-A:ASP:473:OD2:4241, V-A:ASP:473:CB:4238, V-A:GLY:544:C:4911, V-B:GLY:544:CA:9885, V-A:ASP:473:CG:4239, V-A:TYR:484:CB:4340, V-A:TYR:484:C:4336, V-A:ASP:485:CA:4352, V-B:GLY:544:C:9883, V-A:HIS:456:CB:4064, V-A:VAL:457:C:4072, V-A:HIS:456:CA:4062, V-A:HIS:456:C:4060, V-A:HIS:456:CG:4065, V-A:VAL:458:CG2:4086, V-B:ARG:545:CA:9890, V-A:TYR:484:CG:4341, V-A:PRO:486:CD:4365, V-A:ASP:485:C:4350, V-A:PRO:486:N:4362, V-A:ARG:545:C:4916"]

$$$$
9a_Ghoteimi_2023
     RDKit          3D

 48 54  0  0  0  0  0  0  0  0999 V2000
  125.8090  127.9960   75.0370 C   0  0  0  0  0  0  0  0  0  0  0  0
  126.4320  127.2620   73.8450 C   0  0  0  0  0  0  0  0  0  0  0  0
  127.6600  127.8890   73.4930 O   0  0  0  0  0  0  0  0  0  0  0  0
  128.7570  127.1540   73.1800 C   0  0  0  0  0  0  0  0  0  0  0  0
  129.5120  126.6640   74.0260 O   0  0  0  0  0  0  0  0  0  0  0  0
  128.9680  127.0000   71.7010 C   0  0  0  0  0  0  0  0  0  0  0  0
  129.4430  128.0890   70.9600 C   0  0  0  0  0  0  0  0  0  0  0  0
  129.6470  127.9780   69.5870 C   0  0  0  0  0  0  0  0  0  0  0  0
  129.3820  126.7780   68.9270 C   0  0  0  0  0  0  0  0  0  0  0  0
  129.6240  126.7820   67.5400 N   0  0  0  0  0  0  0  0  0  0  0  0
  130.5630  126.1300   66.8100 C   0  0  0  0  0  0  0  0  0  0  0  0
  131.4110  125.3760   67.2890 O   0  0  0  0  0  0  0  0  0  0  0  0
  130.5110  126.3710   65.3650 C   0  0  0  0  0  0  0  0  0  0  0  0
  130.1660  127.9860   64.7440 S   0  0  0  0  0  0  0  0  0  0  0  0
  130.3000  127.4280   63.0920 C   0  0  0  0  0  0  0  0  0  0  0  0
  130.1500  128.2580   62.0610 N   0  0  0  0  0  0  0  0  0  0  0  0
  130.2860  127.7260   60.8170 C   0  0  0  0  0  0  0  0  0  0  0  0
  130.1250  128.6770   59.6750 C   0  0  0  0  0  0  0  0  0  0  0  0
  130.9270  129.8200   59.5840 C   0  0  0  0  0  0  0  0  0  0  0  0
  130.7840  130.7110   58.5230 C   0  0  0  0  0  0  0  0  0  0  0  0
  129.8430  130.4840   57.5060 C   0  0  0  0  0  0  0  0  0  0  0  0
  129.6750  131.3790   56.4450 N   0  0  0  0  0  0  0  0  0  0  0  0
  128.3350  131.7110   55.9190 C   0  0  0  0  0  0  0  0  0  0  0  0
  128.3620  132.4120   54.5450 C   0  0  0  0  0  0  0  0  0  0  0  0
  129.1850  133.5650   54.6020 O   0  0  0  0  0  0  0  0  0  0  0  0
  130.5210  133.2330   54.9480 C   0  0  0  0  0  0  0  0  0  0  0  0
  130.5540  132.5620   56.3370 C   0  0  0  0  0  0  0  0  0  0  0  0
  129.0320  129.3440   57.6110 C   0  0  0  0  0  0  0  0  0  0  0  0
  129.1730  128.4560   58.6730 C   0  0  0  0  0  0  0  0  0  0  0  0
  130.5420  126.3690   60.6100 C   0  0  0  0  0  0  0  0  0  0  0  0
  130.6800  125.4900   61.6900 C   0  0  0  0  0  0  0  0  0  0  0  0
  130.9150  124.0500   61.4140 C   0  0  0  0  0  0  0  0  0  0  0  0
  132.2010  123.5790   61.1390 C   0  0  0  0  0  0  0  0  0  0  0  0
  132.4210  122.2270   60.8930 C   0  0  0  0  0  0  0  0  0  0  0  0
  131.3630  121.3050   60.9340 C   0  0  0  0  0  0  0  0  0  0  0  0
  131.5580  119.9460   60.6800 N   0  0  0  0  0  0  0  0  0  0  0  0
  130.8090  118.9510   61.4740 C   0  0  0  0  0  0  0  0  0  0  0  0
  130.8230  117.5380   60.8520 C   0  0  0  0  0  0  0  0  0  0  0  0
  132.1600  117.1130   60.6380 O   0  0  0  0  0  0  0  0  0  0  0  0
  132.8530  117.9840   59.7580 C   0  0  0  0  0  0  0  0  0  0  0  0
  132.8940  119.4090   60.3510 C   0  0  0  0  0  0  0  0  0  0  0  0
  130.0770  121.7890   61.2140 C   0  0  0  0  0  0  0  0  0  0  0  0
  129.8560  123.1410   61.4550 C   0  0  0  0  0  0  0  0  0  0  0  0
  130.5780  126.0330   63.0030 C   0  0  0  0  0  0  0  0  0  0  0  0
  130.7170  125.4580   64.3190 C   0  0  0  0  0  0  0  0  0  0  0  0
  131.0370  124.1400   64.5180 N   0  0  0  0  0  0  0  0  0  0  0  0
  128.9080  125.6800   69.6620 C   0  0  0  0  0  0  0  0  0  0  0  0
  128.7040  125.7930   71.0350 C   0  0  0  0  0  0  0  0  0  0  0  0
  1  2  1  0
  2  3  1  0
  3  4  1  0
  4  5  2  0
  4  6  1  0
  6  7  2  0
  7  8  1  0
  8  9  2  0
  9 10  1  0
 10 11  1  0
 11 12  2  0
 11 13  1  0
 13 14  1  0
 14 15  1  0
 15 16  2  0
 16 17  1  0
 17 18  1  0
 18 19  2  0
 19 20  1  0
 20 21  2  0
 21 22  1  0
 22 23  1  0
 23 24  1  0
 24 25  1  0
 25 26  1  0
 26 27  1  0
 21 28  1  0
 28 29  2  0
 17 30  2  0
 30 31  1  0
 31 32  1  0
 32 33  2  0
 33 34  1  0
 34 35  2  0
 35 36  1  0
 36 37  1  0
 37 38  1  0
 38 39  1  0
 39 40  1  0
 40 41  1  0
 35 42  1  0
 42 43  2  0
 31 44  2  0
 44 45  1  0
 45 46  1  0
  9 47  1  0
 47 48  2  0
 48  6  1  0
 45 13  2  0
 44 15  1  0
 29 18  1  0
 43 32  1  0
 27 22  1  0
 41 36  1  0
M  END
>  <Binding energies>  (39) 
[-8.69]

>  <Ligand effiencies>  (39) 
[-0.1703921568627451]

>  <Interactions>  (39) 
["V-A:TYR:539:CZ:4876, V-A:TYR:539:CE1:4874, V-A:TYR:539:CE2:4875, V-A:TYR:531:CE2:4792, V-A:ILE:538:CA:4859, V-B:GLU:543:CD:9879, H-A:TYR:484:OH:4347, V-B:ALA:541:CB:9863, H-B:GLU:543:OE2:9881, V-A:LEU:475:CD2:4258, V-A:HIS:383:CE1:3393, V-B:TYR:539:CD2:9845, V-A:ILE:369:CG2:3236, V-B:TYR:539:CE2:9847, V-A:SER:385:CA:3406, V-A:PRO:482:CB:4325, H-A:HIS:383:ND1:3390, V-A:HIS:456:CE1:4069, V-B:GLU:543:CB:9877, V-A:GLU:543:CD:4907, V-B:HIS:456:CE1:9040, V-B:LYS:547:CE:9921, H-B:LYS:547:NZ:9922, V-B:GLU:543:C:9873, V-A:ILE:538:CB:4861, V-A:ILE:538:CG2:4862, V-B:GLY:544:C:9883, V-A:TYR:484:CE2:4345, V-A:MET:535:CG:4832, V-A:VAL:384:C:3396, H-A:TYR:539:OH:4877, V-B:GLU:543:CA:9875, V-B:HIS:456:CD2:9038, V-B:HIS:456:CG:9036, V-B:LYS:547:CD:9920, V-B:HIS:456:CB:9035"]

$$$$
9b_Ghoteimi_2023
     RDKit          3D

 42 48  0  0  0  0  0  0  0  0999 V2000
  131.3620  125.7660   61.3890 N   0  0  0  0  0  0  0  0  0  0  0  0
  131.4340  125.1630   62.6190 C   0  0  0  0  0  0  0  0  0  0  0  0
  131.9160  123.8600   62.8150 C   0  0  0  0  0  0  0  0  0  0  0  0
  132.4390  122.9200   61.8200 C   0  0  0  0  0  0  0  0  0  0  0  0
  133.0540  123.3280   60.8320 O   0  0  0  0  0  0  0  0  0  0  0  0
  132.1920  121.6100   62.0690 N   0  0  0  0  0  0  0  0  0  0  0  0
  132.5590  120.5170   61.2940 C   0  0  0  0  0  0  0  0  0  0  0  0
  131.7260  119.4190   61.0840 C   0  0  0  0  0  0  0  0  0  0  0  0
  132.4470  118.5720   60.2740 C   0  0  0  0  0  0  0  0  0  0  0  0
  133.6520  119.1320   60.0110 O   0  0  0  0  0  0  0  0  0  0  0  0
  133.7110  120.3640   60.6630 N   0  0  0  0  0  0  0  0  0  0  0  0
  131.8350  123.3990   64.5150 S   0  0  0  0  0  0  0  0  0  0  0  0
  131.1420  124.9430   64.9480 C   0  0  0  0  0  0  0  0  0  0  0  0
  130.7990  125.2270   66.2030 N   0  0  0  0  0  0  0  0  0  0  0  0
  130.2520  126.4500   66.4320 C   0  0  0  0  0  0  0  0  0  0  0  0
  129.8570  126.7350   67.8440 C   0  0  0  0  0  0  0  0  0  0  0  0
  129.2510  125.7530   68.6390 C   0  0  0  0  0  0  0  0  0  0  0  0
  128.8720  126.0290   69.9490 C   0  0  0  0  0  0  0  0  0  0  0  0
  129.0720  127.3000   70.5090 C   0  0  0  0  0  0  0  0  0  0  0  0
  128.6990  127.5910   71.8260 N   0  0  0  0  0  0  0  0  0  0  0  0
  129.6990  127.9790   72.8410 C   0  0  0  0  0  0  0  0  0  0  0  0
  129.0870  128.5910   74.1180 C   0  0  0  0  0  0  0  0  0  0  0  0
  128.1240  127.7060   74.6660 O   0  0  0  0  0  0  0  0  0  0  0  0
  127.0650  127.4600   73.7560 C   0  0  0  0  0  0  0  0  0  0  0  0
  127.6130  126.8170   72.4640 C   0  0  0  0  0  0  0  0  0  0  0  0
  129.6970  128.2730   69.7160 C   0  0  0  0  0  0  0  0  0  0  0  0
  130.0800  127.9960   68.4060 C   0  0  0  0  0  0  0  0  0  0  0  0
  130.0750  127.3900   65.4140 C   0  0  0  0  0  0  0  0  0  0  0  0
  130.4530  127.1030   64.0970 C   0  0  0  0  0  0  0  0  0  0  0  0
  130.2720  128.1480   63.0570 C   0  0  0  0  0  0  0  0  0  0  0  0
  129.0290  128.7590   62.8810 C   0  0  0  0  0  0  0  0  0  0  0  0
  128.8610  129.7510   61.9200 C   0  0  0  0  0  0  0  0  0  0  0  0
  129.9310  130.1610   61.1090 C   0  0  0  0  0  0  0  0  0  0  0  0
  129.7880  131.1660   60.1500 N   0  0  0  0  0  0  0  0  0  0  0  0
  129.0720  132.4060   60.5040 C   0  0  0  0  0  0  0  0  0  0  0  0
  128.6440  133.2350   59.2740 C   0  0  0  0  0  0  0  0  0  0  0  0
  129.7750  133.5220   58.4650 O   0  0  0  0  0  0  0  0  0  0  0  0
  130.4040  132.3370   58.0010 C   0  0  0  0  0  0  0  0  0  0  0  0
  130.8720  131.4830   59.1980 C   0  0  0  0  0  0  0  0  0  0  0  0
  131.1790  129.5530   61.3080 C   0  0  0  0  0  0  0  0  0  0  0  0
  131.3480  128.5590   62.2690 C   0  0  0  0  0  0  0  0  0  0  0  0
  130.9960  125.8160   63.8290 C   0  0  0  0  0  0  0  0  0  0  0  0
  1  2  1  0
  2  3  2  0
  3  4  1  0
  4  5  2  0
  4  6  1  0
  6  7  1  0
  7  8  1  0
  8  9  2  0
  9 10  1  0
 10 11  1  0
  3 12  1  0
 12 13  1  0
 13 14  2  0
 14 15  1  0
 15 16  1  0
 16 17  2  0
 17 18  1  0
 18 19  2  0
 19 20  1  0
 20 21  1  0
 21 22  1  0
 22 23  1  0
 23 24  1  0
 24 25  1  0
 19 26  1  0
 26 27  2  0
 15 28  2  0
 28 29  1  0
 29 30  1  0
 30 31  2  0
 31 32  1  0
 32 33  2  0
 33 34  1  0
 34 35  1  0
 35 36  1  0
 36 37  1  0
 37 38  1  0
 38 39  1  0
 33 40  1  0
 40 41  2  0
 29 42  2  0
 42  2  1  0
 11  7  2  0
 42 13  1  0
 27 16  1  0
 41 30  1  0
 25 20  1  0
 39 34  1  0
M  END
>  <Binding energies>  (40) 
[-8.08]

>  <Ligand effiencies>  (40) 
[-0.17955555555555555]

>  <Interactions>  (40) 
["V-A:ASP:366:CG:3212, V-A:TYR:539:CE1:4874, V-A:TYR:539:CD1:4872, V-B:GLU:543:CD:9879, H-A:TYR:484:OH:4347, V-A:LEU:475:CD2:4258, V-B:TYR:539:CD2:9845, V-B:GLU:543:CG:9878, V-A:HIS:456:CE1:4069, V-B:GLU:543:CB:9877, V-A:GLU:543:CD:4907, V-B:HIS:456:CE1:9040, V-B:LYS:547:CE:9921, H-B:LYS:547:NZ:9922, H-A:ASP:366:OD2:3214, V-A:GLU:543:CB:4905, V-B:GLY:544:C:9883, V-A:TYR:484:CE2:4345, H-A:ASP:366:OD1:3213, V-A:TYR:539:C:4866, V-B:HIS:456:CD2:9038, V-B:HIS:456:CG:9036"]

$$$$
9c_Ghoteimi_2023
     RDKit          3D

 42 48  0  0  0  0  0  0  0  0999 V2000
  131.3800  125.7840   61.3740 N   0  0  0  0  0  0  0  0  0  0  0  0
  131.4580  125.1970   62.6110 C   0  0  0  0  0  0  0  0  0  0  0  0
  131.9610  123.9040   62.8230 C   0  0  0  0  0  0  0  0  0  0  0  0
  132.5000  122.9610   61.8380 C   0  0  0  0  0  0  0  0  0  0  0  0
  133.2130  123.3540   60.9130 O   0  0  0  0  0  0  0  0  0  0  0  0
  132.1510  121.6640   62.0230 N   0  0  0  0  0  0  0  0  0  0  0  0
  132.5110  120.5820   61.2320 C   0  0  0  0  0  0  0  0  0  0  0  0
  133.6300  120.4050   60.5640 N   0  0  0  0  0  0  0  0  0  0  0  0
  133.6300  119.2580   59.9130 C   0  0  0  0  0  0  0  0  0  0  0  0
  132.4880  118.4740   60.0460 C   0  0  0  0  0  0  0  0  0  0  0  0
  131.3590  119.2930   61.0840 S   0  0  0  0  0  0  0  0  0  0  0  0
  131.8860  123.4600   64.5270 S   0  0  0  0  0  0  0  0  0  0  0  0
  131.1660  124.9980   64.9420 C   0  0  0  0  0  0  0  0  0  0  0  0
  130.8170  125.2900   66.1940 N   0  0  0  0  0  0  0  0  0  0  0  0
  130.2490  126.5060   66.4070 C   0  0  0  0  0  0  0  0  0  0  0  0
  129.8480  126.8000   67.8170 C   0  0  0  0  0  0  0  0  0  0  0  0
  130.0850  128.0540   68.3920 C   0  0  0  0  0  0  0  0  0  0  0  0
  129.7180  128.3190   69.7070 C   0  0  0  0  0  0  0  0  0  0  0  0
  129.1110  127.3340   70.5030 C   0  0  0  0  0  0  0  0  0  0  0  0
  128.7300  127.5880   71.8250 N   0  0  0  0  0  0  0  0  0  0  0  0
  129.7200  127.9770   72.8500 C   0  0  0  0  0  0  0  0  0  0  0  0
  129.0920  128.5510   74.1380 C   0  0  0  0  0  0  0  0  0  0  0  0
  128.1500  127.6320   74.6670 O   0  0  0  0  0  0  0  0  0  0  0  0
  127.0980  127.3810   73.7490 C   0  0  0  0  0  0  0  0  0  0  0  0
  127.6630  126.7750   72.4460 C   0  0  0  0  0  0  0  0  0  0  0  0
  128.8580  126.0860   69.9160 C   0  0  0  0  0  0  0  0  0  0  0  0
  129.2220  125.8230   68.5980 C   0  0  0  0  0  0  0  0  0  0  0  0
  130.0580  127.4320   65.3790 C   0  0  0  0  0  0  0  0  0  0  0  0
  130.4430  127.1370   64.0660 C   0  0  0  0  0  0  0  0  0  0  0  0
  130.2480  128.1660   63.0150 C   0  0  0  0  0  0  0  0  0  0  0  0
  128.9930  128.7440   62.8190 C   0  0  0  0  0  0  0  0  0  0  0  0
  128.8100  129.7220   61.8450 C   0  0  0  0  0  0  0  0  0  0  0  0
  129.8780  130.1460   61.0390 C   0  0  0  0  0  0  0  0  0  0  0  0
  129.7200  131.1340   60.0620 N   0  0  0  0  0  0  0  0  0  0  0  0
  129.0880  132.4160   60.4320 C   0  0  0  0  0  0  0  0  0  0  0  0
  128.6250  133.2410   59.2110 C   0  0  0  0  0  0  0  0  0  0  0  0
  129.7160  133.4540   58.3270 O   0  0  0  0  0  0  0  0  0  0  0  0
  130.2530  132.2300   57.8520 C   0  0  0  0  0  0  0  0  0  0  0  0
  130.7540  131.3750   59.0380 C   0  0  0  0  0  0  0  0  0  0  0  0
  131.1390  129.5720   61.2590 C   0  0  0  0  0  0  0  0  0  0  0  0
  131.3220  128.5950   62.2330 C   0  0  0  0  0  0  0  0  0  0  0  0
  131.0080  125.8540   63.8130 C   0  0  0  0  0  0  0  0  0  0  0  0
  1  2  1  0
  2  3  2  0
  3  4  1  0
  4  5  2  0
  4  6  1  0
  6  7  1  0
  7  8  2  0
  8  9  1  0
  9 10  2  0
 10 11  1  0
  3 12  1  0
 12 13  1  0
 13 14  2  0
 14 15  1  0
 15 16  1  0
 16 17  2  0
 17 18  1  0
 18 19  2  0
 19 20  1  0
 20 21  1  0
 21 22  1  0
 22 23  1  0
 23 24  1  0
 24 25  1  0
 19 26  1  0
 26 27  2  0
 15 28  2  0
 28 29  1  0
 29 30  1  0
 30 31  2  0
 31 32  1  0
 32 33  2  0
 33 34  1  0
 34 35  1  0
 35 36  1  0
 36 37  1  0
 37 38  1  0
 38 39  1  0
 33 40  1  0
 40 41  2  0
 29 42  2  0
 42  2  1  0
 11  7  1  0
 42 13  1  0
 27 16  1  0
 41 30  1  0
 25 20  1  0
 39 34  1  0
M  END
>  <Binding energies>  (41) 
[-8.36]

>  <Ligand effiencies>  (41) 
[-0.18577777777777776]

>  <Interactions>  (41) 
["V-A:ASP:366:CG:3212, V-A:TYR:539:CE1:4874, V-A:TYR:539:CD1:4872, V-B:GLU:543:CD:9879, H-A:TYR:484:OH:4347, V-A:LEU:475:CD2:4258, V-B:TYR:539:CD2:9845, V-A:ILE:369:CG2:3236, V-A:SER:385:CA:3406, V-B:GLU:543:CG:9878, V-A:HIS:456:CE1:4069, V-B:GLU:543:CB:9877, V-A:GLU:543:CD:4907, V-B:HIS:456:CE1:9040, V-B:LYS:547:CE:9921, H-B:LYS:547:NZ:9922, H-A:ASP:366:OD2:3214, V-A:GLU:543:CB:4905, V-A:TYR:484:CE2:4345, H-A:ASP:366:OD1:3213, V-A:TYR:539:C:4866, V-A:VAL:384:C:3396, V-B:HIS:456:CD2:9038, V-B:HIS:456:CG:9036"]

$$$$
RR11_Rahimova_2017
     RDKit          3D

 33 38  0  0  0  0  0  0  0  0999 V2000
  134.2650  122.4340   62.2940 N   0  0  0  0  0  0  0  0  0  0  0  0
  133.5540  123.3050   63.1180 C   0  0  0  0  0  0  0  0  0  0  0  0
  133.9730  124.6270   63.2550 C   0  0  0  0  0  0  0  0  0  0  0  0
  133.2610  125.4960   64.0760 C   0  0  0  0  0  0  0  0  0  0  0  0
  132.1250  125.0530   64.7670 C   0  0  0  0  0  0  0  0  0  0  0  0
  131.3550  125.9930   65.6470 C   0  0  0  0  0  0  0  0  0  0  0  0
  131.5560  126.1330   66.9400 N   0  0  0  0  0  0  0  0  0  0  0  0
  130.6600  127.0880   67.3430 C   0  0  0  0  0  0  0  0  0  0  0  0
  130.4530  127.6240   68.6220 C   0  0  0  0  0  0  0  0  0  0  0  0
  129.4770  128.6150   68.7780 C   0  0  0  0  0  0  0  0  0  0  0  0
  129.2250  129.2120   70.1560 C   0  0  0  0  0  0  0  0  0  0  0  0
  129.4270  128.2080   71.2830 C   0  0  0  0  0  0  0  0  0  0  0  0
  129.8900  128.6540   72.5260 C   0  0  0  0  0  0  0  0  0  0  0  0
  130.0830  127.7740   73.5930 C   0  0  0  0  0  0  0  0  0  0  0  0
  129.7920  126.4180   73.3920 C   0  0  0  0  0  0  0  0  0  0  0  0
  129.9030  125.3670   74.2650 N   0  0  0  0  0  0  0  0  0  0  0  0
  129.5120  124.3090   73.5870 C   0  0  0  0  0  0  0  0  0  0  0  0
  129.4790  122.9120   74.1370 C   0  0  0  0  0  0  0  0  0  0  0  0
  130.6560  122.2970   74.5830 C   0  0  0  0  0  0  0  0  0  0  0  0
  130.6280  120.9970   75.0840 C   0  0  0  0  0  0  0  0  0  0  0  0
  129.4210  120.3040   75.1420 C   0  0  0  0  0  0  0  0  0  0  0  0
  129.3920  119.0020   75.6380 N   0  0  0  0  0  0  0  0  0  0  0  0
  128.2430  120.9050   74.7060 C   0  0  0  0  0  0  0  0  0  0  0  0
  128.2720  122.2040   74.2050 C   0  0  0  0  0  0  0  0  0  0  0  0
  129.1420  124.6300   72.2980 N   0  0  0  0  0  0  0  0  0  0  0  0
  129.3120  125.9840   72.1330 C   0  0  0  0  0  0  0  0  0  0  0  0
  129.1120  126.8610   71.0630 C   0  0  0  0  0  0  0  0  0  0  0  0
  128.7100  129.0400   67.6860 C   0  0  0  0  0  0  0  0  0  0  0  0
  128.8900  128.5220   66.4010 C   0  0  0  0  0  0  0  0  0  0  0  0
  129.8780  127.5460   66.2570 C   0  0  0  0  0  0  0  0  0  0  0  0
  130.3500  126.8190   65.1890 N   0  0  0  0  0  0  0  0  0  0  0  0
  131.7170  123.7200   64.6210 C   0  0  0  0  0  0  0  0  0  0  0  0
  132.4270  122.8490   63.8000 C   0  0  0  0  0  0  0  0  0  0  0  0
  1  2  1  0
  2  3  2  0
  3  4  1  0
  4  5  2  0
  5  6  1  0
  6  7  2  0
  7  8  1  0
  8  9  2  0
  9 10  1  0
 10 11  1  0
 11 12  1  0
 12 13  2  0
 13 14  1  0
 14 15  2  0
 15 16  1  0
 16 17  2  0
 17 18  1  0
 18 19  2  0
 19 20  1  0
 20 21  2  0
 21 22  1  0
 21 23  1  0
 23 24  2  0
 17 25  1  0
 25 26  1  0
 26 27  2  0
 10 28  2  0
 28 29  1  0
 29 30  2  0
 30 31  1  0
  5 32  1  0
 32 33  2  0
 33  2  1  0
 31  6  1  0
 30  8  1  0
 27 12  1  0
 26 15  1  0
 24 18  1  0
M  END
>  <Binding energies>  (42) 
[-8.61]

>  <Ligand effiencies>  (42) 
[-0.22076923076923075]

>  <Interactions>  (42) 
["V-A:ASP:366:CG:3212, V-B:GLU:543:CD:9879, H-A:TYR:484:OH:4347, H-B:GLU:543:OE2:9881, V-A:LEU:475:CD2:4258, V-A:ILE:369:CD1:3238, V-A:GLY:454:CA:4048, V-A:GLY:453:C:4041, V-A:ARG:545:CZ:4925, V-A:HIS:456:CE1:4069, H-A:HIS:456:NE2:4070, H-B:GLU:543:O:9874, V-A:GLU:543:CD:4907, V-B:HIS:456:CE1:9040, V-B:LYS:547:CE:9921, H-B:LYS:547:NZ:9922, V-A:HIS:456:CD2:4067, V-B:GLU:543:C:9873, V-A:GLU:543:CG:4906, V-A:ASP:473:CG:4239, V-A:TYR:484:CB:4340, V-A:TYR:484:C:4336, V-A:GLU:543:CB:4905, V-A:GLU:543:C:4901, V-A:GLY:453:CA:4043, H-A:SER:385:O:3405, H-A:ASP:485:OD2:4357, H-A:TYR:484:O:4337"]

$$$$
RR16_Rahimova_2017
     RDKit          3D

 44 49  0  0  0  0  0  0  0  0999 V2000
  129.2010  128.2340   74.9260 O   0  0  0  0  0  0  0  0  0  0  0  0
  129.8830  127.1810   74.1650 S   0  0  0  0  0  0  0  0  0  0  0  0
  129.5920  125.7640   74.4130 O   0  0  0  0  0  0  0  0  0  0  0  0
  131.6200  127.4260   74.3570 N   0  0  0  0  0  0  0  0  0  0  0  0
  132.2180  127.6200   75.6990 C   0  0  0  0  0  0  0  0  0  0  0  0
  132.2190  126.2670   76.4570 C   0  0  0  0  0  0  0  0  0  0  0  0
  133.0090  125.1040   75.8250 C   0  0  0  0  0  0  0  0  0  0  0  0
  134.4900  125.0580   76.2370 C   0  0  0  0  0  0  0  0  0  0  0  0
  135.2960  126.3480   75.9900 C   0  0  0  0  0  0  0  0  0  0  0  0
  134.7080  127.3660   74.9930 C   0  0  0  0  0  0  0  0  0  0  0  0
  133.5990  128.2940   75.5270 C   0  0  0  0  0  0  0  0  0  0  0  0
  129.5750  127.5110   72.4340 C   0  0  0  0  0  0  0  0  0  0  0  0
  130.1830  128.6010   71.8050 C   0  0  0  0  0  0  0  0  0  0  0  0
  129.8410  128.9180   70.4940 C   0  0  0  0  0  0  0  0  0  0  0  0
  128.8950  128.1460   69.8170 C   0  0  0  0  0  0  0  0  0  0  0  0
  128.3490  128.6340   68.1820 S   0  0  0  0  0  0  0  0  0  0  0  0
  128.7190  130.0440   67.9990 O   0  0  0  0  0  0  0  0  0  0  0  0
  126.9500  128.2110   68.0410 O   0  0  0  0  0  0  0  0  0  0  0  0
  129.3370  127.6520   67.0830 N   0  0  0  0  0  0  0  0  0  0  0  0
  129.4300  128.1830   65.6990 C   0  0  0  0  0  0  0  0  0  0  0  0
  130.0320  127.1240   64.7530 C   0  0  0  0  0  0  0  0  0  0  0  0
  131.3810  126.5800   65.2840 C   0  0  0  0  0  0  0  0  0  0  0  0
  131.9730  125.4930   64.3840 C   0  0  0  0  0  0  0  0  0  0  0  0
  133.3280  125.5470   64.0260 C   0  0  0  0  0  0  0  0  0  0  0  0
  133.9110  124.5740   63.2140 C   0  0  0  0  0  0  0  0  0  0  0  0
  135.2380  124.6410   62.8770 O   0  0  0  0  0  0  0  0  0  0  0  0
  133.1020  123.5220   62.7560 C   0  0  0  0  0  0  0  0  0  0  0  0
  133.3950  122.4390   61.9780 N   0  0  0  0  0  0  0  0  0  0  0  0
  132.2420  121.6950   61.8530 N   0  0  0  0  0  0  0  0  0  0  0  0
  131.2500  122.3330   62.5040 N   0  0  0  0  0  0  0  0  0  0  0  0
  129.9310  121.7250   62.6080 C   0  0  0  0  0  0  0  0  0  0  0  0
  128.8680  122.4910   61.8340 C   0  0  0  0  0  0  0  0  0  0  0  0
  127.9200  123.2600   62.5170 C   0  0  0  0  0  0  0  0  0  0  0  0
  126.9580  123.9810   61.8090 C   0  0  0  0  0  0  0  0  0  0  0  0
  126.9400  123.9380   60.4140 C   0  0  0  0  0  0  0  0  0  0  0  0
  127.8830  123.1750   59.7270 C   0  0  0  0  0  0  0  0  0  0  0  0
  127.8700  123.1280   58.0020 Cl  0  0  0  0  0  0  0  0  0  0  0  0
  128.8440  122.4500   60.4360 C   0  0  0  0  0  0  0  0  0  0  0  0
  131.7340  123.4790   63.1150 C   0  0  0  0  0  0  0  0  0  0  0  0
  131.1480  124.4560   63.9260 C   0  0  0  0  0  0  0  0  0  0  0  0
  131.2970  126.1480   66.7720 C   0  0  0  0  0  0  0  0  0  0  0  0
  130.6450  127.2340   67.6510 C   0  0  0  0  0  0  0  0  0  0  0  0
  128.3190  127.0320   70.4330 C   0  0  0  0  0  0  0  0  0  0  0  0
  128.6580  126.7170   71.7450 C   0  0  0  0  0  0  0  0  0  0  0  0
  1  2  2  0
  2  3  2  0
  2  4  1  0
  4  5  1  0
  5  6  1  0
  6  7  1  0
  7  8  1  0
  8  9  1  0
  9 10  1  0
 10 11  1  0
  2 12  1  0
 12 13  2  0
 13 14  1  0
 14 15  2  0
 15 16  1  0
 16 17  2  0
 16 18  2  0
 16 19  1  0
 19 20  1  0
 20 21  1  0
 21 22  1  0
 22 23  1  0
 23 24  2  0
 24 25  1  0
 25 26  1  0
 25 27  2  0
 27 28  1  0
 28 29  2  0
 29 30  1  0
 30 31  1  0
 31 32  1  0
 32 33  2  0
 33 34  1  0
 34 35  2  0
 35 36  1  0
 36 37  1  0
 36 38  2  0
 30 39  1  0
 39 40  2  0
 22 41  1  0
 41 42  1  0
 15 43  1  0
 43 44  2  0
 11  5  1  0
 44 12  1  0
 42 19  1  0
 40 23  1  0
 39 27  1  0
 38 32  1  0
M  END
>  <Binding energies>  (43) 
[-10.49]

>  <Ligand effiencies>  (43) 
[-0.21854166666666666]

>  <Interactions>  (43) 
["V-A:ASP:366:CG:3212, V-B:ALA:541:CB:9863, V-B:PRO:540:CA:9854, V-B:TYR:539:C:9838, V-A:LEU:475:CD2:4258, V-B:TYR:539:CD2:9845, V-B:TYR:539:CE2:9847, V-A:GLY:454:CA:4048, H-A:GLY:454:N:4049, V-A:GLY:453:C:4041, V-A:ARG:545:CZ:4925, V-A:HIS:456:CE1:4069, H-A:HIS:456:NE2:4070, V-A:GLU:543:CD:4907, V-B:HIS:456:CE1:9040, H-B:LYS:547:NZ:9922, V-A:GLU:543:CG:4906, H-A:ASP:366:OD2:3214, V-A:LYS:547:CE:4949, V-A:GLU:543:CB:4905, V-A:GLU:543:C:4901, H-A:ARG:545:NH1:4926, H-B:TYR:484:OH:9318, H-A:ASP:366:OD1:3213, V-A:HIS:456:CB:4064, V-A:VAL:457:C:4072, V-A:HIS:456:CA:4062, V-A:LYS:547:CD:4948, V-A:HIS:456:C:4060, V-A:VAL:457:CA:4074, V-A:HIS:456:CG:4065, V-A:VAL:458:CG2:4086, H-A:HIS:456:ND1:4066, V-A:LYS:547:CG:4947, H-A:GLY:544:O:4912"]

$$$$
RR18_Rahimova_2017
     RDKit          3D

 36 41  0  0  0  0  0  0  0  0999 V2000
  130.0170  127.6660   59.8930 C   0  0  0  0  0  0  0  0  0  0  0  0
  129.8830  127.9200   61.3740 C   0  0  0  0  0  0  0  0  0  0  0  0
  130.0270  127.1340   62.5060 C   0  0  0  0  0  0  0  0  0  0  0  0
  129.7690  127.9550   63.6020 C   0  0  0  0  0  0  0  0  0  0  0  0
  129.4770  129.2140   63.1020 C   0  0  0  0  0  0  0  0  0  0  0  0
  129.1190  130.5510   63.7450 C   0  0  1  0  0  0  0  0  0  0  0  0
  128.9850  131.6800   62.6790 C   0  0  0  0  0  0  0  0  0  0  0  0
  130.1460  132.1070   61.9060 C   0  0  0  0  0  0  0  0  0  0  0  0
  130.9980  132.8650   62.3760 O   0  0  0  0  0  0  0  0  0  0  0  0
  130.2030  131.5890   60.6570 N   0  0  0  0  0  0  0  0  0  0  0  0
  131.1500  131.7860   59.6290 C   0  0  0  0  0  0  0  0  0  0  0  0
  130.8430  132.3980   58.4000 C   0  0  0  0  0  0  0  0  0  0  0  0
  131.8240  132.5570   57.4230 C   0  0  0  0  0  0  0  0  0  0  0  0
  133.1190  132.1020   57.6520 C   0  0  0  0  0  0  0  0  0  0  0  0
  133.4340  131.4830   58.8590 C   0  0  0  0  0  0  0  0  0  0  0  0
  132.4610  131.3180   59.8500 C   0  0  0  0  0  0  0  0  0  0  0  0
  132.8560  130.6290   61.1530 C   0  0  0  0  0  0  0  0  0  0  0  0
  127.7480  132.1790   62.4170 C   0  0  0  0  0  0  0  0  0  0  0  0
  126.6170  131.8520   63.1020 N   0  0  0  0  0  0  0  0  0  0  0  0
  126.6990  131.0810   64.1230 C   0  0  0  0  0  0  0  0  0  0  0  0
  125.3650  130.6950   65.1840 S   0  0  0  0  0  0  0  0  0  0  0  0
  126.4160  129.6800   66.2220 C   0  0  0  0  0  0  0  0  0  0  0  0
  126.0470  128.9870   67.3550 C   0  0  0  0  0  0  0  0  0  0  0  0
  124.6790  129.0990   67.8810 C   0  0  0  0  0  0  0  0  0  0  0  0
  123.7140  129.7290   67.4510 O   0  0  0  0  0  0  0  0  0  0  0  0
  124.6230  128.3730   69.0020 N   0  0  0  0  0  0  0  0  0  0  0  0
  125.7960  127.7440   69.2870 C   0  0  0  0  0  0  0  0  0  0  0  0
  126.0760  126.9040   70.3650 C   0  0  0  0  0  0  0  0  0  0  0  0
  127.3410  126.3300   70.4590 C   0  0  0  0  0  0  0  0  0  0  0  0
  128.2940  126.5960   69.4770 C   0  0  0  0  0  0  0  0  0  0  0  0
  127.9900  127.4420   68.4080 C   0  0  0  0  0  0  0  0  0  0  0  0
  126.7240  128.0510   68.3070 C   0  0  0  0  0  0  0  0  0  0  0  0
  127.7690  129.7170   65.6670 C   0  0  0  0  0  0  0  0  0  0  0  0
  128.7670  129.1820   66.1410 O   0  0  0  0  0  0  0  0  0  0  0  0
  127.8350  130.4570   64.5270 N   0  0  0  0  0  0  0  0  0  0  0  0
  129.5480  129.1830   61.7440 O   0  0  0  0  0  0  0  0  0  0  0  0
  1  2  1  0
  2  3  2  0
  3  4  1  0
  4  5  2  0
  6  5  1  6
  6  7  1  0
  7  8  1  0
  8  9  2  0
  8 10  1  0
 10 11  1  0
 11 12  2  0
 12 13  1  0
 13 14  2  0
 14 15  1  0
 15 16  2  0
 16 17  1  0
  7 18  2  0
 18 19  1  0
 19 20  2  0
 20 21  1  0
 21 22  1  0
 22 23  2  0
 23 24  1  0
 24 25  2  0
 24 26  1  0
 26 27  1  0
 27 28  2  0
 28 29  1  0
 29 30  2  0
 30 31  1  0
 31 32  2  0
 22 33  1  0
 33 34  2  0
 33 35  1  0
  5 36  1  0
 36  2  1  0
 35  6  1  0
 16 11  1  0
 35 20  1  0
 32 23  1  0
 32 27  1  0
M  END
>  <Binding energies>  (44) 
[-9.5]

>  <Ligand effiencies>  (44) 
[-0.25]

>  <Interactions>  (44) 
["V-A:LEU:363:CA:3184, V-A:ASP:366:CG:3212, H-A:ALA:541:N:4890, V-A:PRO:540:CB:4884, V-A:PRO:540:CA:4882, V-A:TYR:531:CE2:4792, V-A:TYR:531:CZ:4793, V-A:LEU:363:CD1:3188, V-B:GLU:543:CD:9879, V-B:GLU:543:CB:9877, V-A:GLU:543:CD:4907, V-B:HIS:456:CE1:9040, V-B:ARG:545:CD:9894, V-B:GLU:543:C:9873, V-A:GLU:543:CG:4906, V-B:ARG:545:CG:9893, H-B:TYR:484:OH:9318, V-B:GLY:544:C:9883, V-A:PRO:540:N:4883, V-B:GLU:543:CA:9875, V-B:ARG:545:CA:9890, H-B:GLY:454:N:9020, V-B:ARG:545:CB:9892, H-B:ILE:455:N:9025, H-B:ILE:455:O:9023"]

$$$$
RR20_Rahimova_2017
     RDKit          3D

 38 43  0  0  0  0  0  0  0  0999 V2000
  133.4160  130.7010   61.4730 C   0  0  0  0  0  0  0  0  0  0  0  0
  133.0340  131.2340   60.1040 C   0  0  0  0  0  0  0  0  0  0  0  0
  131.9710  132.1290   59.9800 C   0  0  0  0  0  0  0  0  0  0  0  0
  131.6240  132.6260   58.7260 C   0  0  0  0  0  0  0  0  0  0  0  0
  132.3290  132.2240   57.5860 C   0  0  0  0  0  0  0  0  0  0  0  0
  131.9500  132.7920   56.2370 C   0  0  0  0  0  0  0  0  0  0  0  0
  132.8520  133.2680   55.5430 O   0  0  0  0  0  0  0  0  0  0  0  0
  130.6460  132.7460   55.8340 N   0  0  0  0  0  0  0  0  0  0  0  0
  130.2050  133.3690   54.5750 C   0  0  0  0  0  0  0  0  0  0  0  0
  128.7470  132.9830   54.3940 C   0  0  0  0  0  0  0  0  0  0  0  0
  128.5760  131.8590   55.3700 C   0  0  0  0  0  0  0  0  0  0  0  0
  127.4620  131.0480   55.5900 C   0  0  0  0  0  0  0  0  0  0  0  0
  127.4340  130.1510   56.6650 C   0  0  0  0  0  0  0  0  0  0  0  0
  126.2380  129.2700   56.8970 C   0  0  0  0  0  0  0  0  0  0  0  0
  126.4010  128.1640   57.6060 N   0  0  0  0  0  0  0  0  0  0  0  0
  125.2920  127.4850   57.7610 C   0  0  0  0  0  0  0  0  0  0  0  0
  125.1090  126.2940   58.4470 N   0  0  0  0  0  0  0  0  0  0  0  0
  125.6180  125.0810   58.1240 C   0  0  0  0  0  0  0  0  0  0  0  0
  126.3530  124.8780   57.1560 O   0  0  0  0  0  0  0  0  0  0  0  0
  125.2780  123.8820   59.0410 C   0  0  0  0  0  0  0  0  0  0  0  0
  126.4620  123.3180   59.7150 N   0  0  0  0  0  0  0  0  0  0  0  0
  127.7150  123.6500   59.0210 C   0  0  0  0  0  0  0  0  0  0  0  0
  128.8830  122.8240   59.6060 C   0  0  0  0  0  0  0  0  0  0  0  0
  128.8970  122.8090   61.1340 C   0  0  0  0  0  0  0  0  0  0  0  0
  130.0130  122.3470   61.8400 C   0  0  0  0  0  0  0  0  0  0  0  0
  130.0120  122.2970   63.2320 C   0  0  0  0  0  0  0  0  0  0  0  0
  128.8880  122.7130   63.9380 C   0  0  0  0  0  0  0  0  0  0  0  0
  127.7730  123.1840   63.2480 C   0  0  0  0  0  0  0  0  0  0  0  0
  127.7610  123.2380   61.8500 C   0  0  0  0  0  0  0  0  0  0  0  0
  126.5590  123.8090   61.0950 C   0  0  0  0  0  0  0  0  0  0  0  0
  123.9170  128.1860   57.0020 S   0  0  0  0  0  0  0  0  0  0  0  0
  124.9260  129.4910   56.4260 C   0  0  0  0  0  0  0  0  0  0  0  0
  124.3450  130.5840   55.5560 C   0  0  0  0  0  0  0  0  0  0  0  0
  128.5260  130.1290   57.5470 C   0  0  0  0  0  0  0  0  0  0  0  0
  129.6320  130.9530   57.3410 C   0  0  0  0  0  0  0  0  0  0  0  0
  129.6840  131.7830   56.2140 C   0  0  0  0  0  0  0  0  0  0  0  0
  133.4140  131.3480   57.7230 C   0  0  0  0  0  0  0  0  0  0  0  0
  133.7620  130.8510   58.9760 C   0  0  0  0  0  0  0  0  0  0  0  0
  1  2  1  0
  2  3  2  0
  3  4  1  0
  4  5  2  0
  5  6  1  0
  6  7  2  0
  6  8  1  0
  8  9  1  0
  9 10  1  0
 10 11  1  0
 11 12  2  0
 12 13  1  0
 13 14  1  0
 14 15  1  0
 15 16  2  0
 16 17  1  0
 17 18  1  0
 18 19  2  0
 18 20  1  0
 20 21  1  0
 21 22  1  0
 22 23  1  0
 23 24  1  0
 24 25  2  0
 25 26  1  0
 26 27  2  0
 27 28  1  0
 28 29  2  0
 29 30  1  0
 16 31  1  0
 31 32  1  0
 32 33  1  0
 13 34  2  0
 34 35  1  0
 35 36  2  0
  5 37  1  0
 37 38  2  0
 38  2  1  0
 36  8  1  0
 36 11  1  0
 32 14  2  0
 30 21  1  0
 29 24  1  0
M  END
>  <Binding energies>  (45) 
[-11.23]

>  <Ligand effiencies>  (45) 
[-0.28794871794871796]

>  <Interactions>  (45) 
["V-A:LEU:363:CA:3184, V-A:TYR:539:CZ:4876, V-A:ASP:366:CG:3212, V-A:ASN:362:C:3171, V-A:PRO:540:CB:4884, V-A:TYR:539:CE1:4874, V-A:ASP:366:CB:3211, V-A:TYR:539:CE2:4875, V-A:PRO:540:CA:4882, V-A:TYR:531:CE2:4792, V-A:TYR:531:CZ:4793, V-A:ILE:538:CA:4859, V-A:LEU:363:CD1:3188, V-B:GLU:543:CD:9879, V-B:ALA:541:CB:9863, V-B:PRO:540:CA:9854, V-B:ALA:541:CA:9861, V-B:TYR:539:C:9838, V-A:LEU:475:CD2:4258, V-B:TYR:539:CD2:9845, V-B:TYR:539:CE2:9847, V-B:GLU:543:CG:9878, V-B:PRO:540:CB:9856, V-B:TYR:531:CZ:9765, V-A:ARG:545:CZ:4925, V-A:ILE:538:CB:4861, V-A:ILE:538:CG2:4862, V-B:ASP:366:CB:8182, H-B:TYR:531:OH:9766, V-A:PRO:540:N:4883, V-B:ASP:366:CG:8183, V-A:MET:535:CG:4832, V-B:TYR:531:CE1:9763, V-A:TYR:539:C:4866, V-A:ASN:362:CB:3175, H-B:ASP:366:OD1:8184, V-A:MET:535:CB:4831, V-B:ASN:370:CB:8215, V-B:TYR:531:CD1:9761, V-B:ASP:366:C:8178, V-B:ASP:366:CA:8180"]

$$$$
RR21_Rahimova_2017
     RDKit          3D

 40 45  0  0  0  0  0  0  0  0999 V2000
  134.5780  125.3960   67.0180 C   0  0  0  0  0  0  0  0  0  0  0  0
  133.5960  125.4680   65.9880 O   0  0  0  0  0  0  0  0  0  0  0  0
  132.4070  126.1290   66.2330 C   0  0  0  0  0  0  0  0  0  0  0  0
  131.9590  126.5010   67.5110 C   0  0  0  0  0  0  0  0  0  0  0  0
  130.7460  127.1690   67.6720 C   0  0  0  0  0  0  0  0  0  0  0  0
  129.9530  127.4870   66.5630 C   0  0  0  0  0  0  0  0  0  0  0  0
  128.6530  128.2090   66.7370 C   0  0  0  0  0  0  0  0  0  0  0  0
  128.2000  128.9870   65.7730 N   0  0  0  0  0  0  0  0  0  0  0  0
  127.0350  129.4940   66.2020 N   0  0  0  0  0  0  0  0  0  0  0  0
  126.2620  130.3660   65.3920 C   0  0  0  0  0  0  0  0  0  0  0  0
  126.7270  131.6520   65.0760 C   0  0  0  0  0  0  0  0  0  0  0  0
  125.9620  132.4970   64.2760 C   0  0  0  0  0  0  0  0  0  0  0  0
  124.7320  132.0600   63.7890 C   0  0  0  0  0  0  0  0  0  0  0  0
  124.2590  130.7870   64.0970 C   0  0  0  0  0  0  0  0  0  0  0  0
  125.0210  129.9400   64.8970 C   0  0  0  0  0  0  0  0  0  0  0  0
  126.7400  129.0130   67.4530 C   0  0  0  0  0  0  0  0  0  0  0  0
  127.7780  128.1810   67.8480 C   0  0  0  0  0  0  0  0  0  0  0  0
  127.8930  127.4070   69.0740 C   0  0  0  0  0  0  0  0  0  0  0  0
  128.6850  127.6470   70.1450 C   0  0  0  0  0  0  0  0  0  0  0  0
  129.8360  128.9820   70.3740 S   0  0  0  0  0  0  0  0  0  0  0  0
  130.2210  128.3570   71.9710 C   0  0  0  0  0  0  0  0  0  0  0  0
  131.0470  128.8510   72.8410 N   0  0  0  0  0  0  0  0  0  0  0  0
  131.2590  128.2500   74.1120 C   0  0  0  0  0  0  0  0  0  0  0  0
  132.0060  128.6660   74.9970 O   0  0  0  0  0  0  0  0  0  0  0  0
  130.4570  126.9960   74.3320 C   0  0  0  0  0  0  0  0  0  0  0  0
  130.6180  126.2470   75.6610 C   0  0  0  0  0  0  0  0  0  0  0  0
  130.6350  124.7260   75.5290 C   0  0  0  0  0  0  0  0  0  0  0  0
  130.2610  123.9250   76.6110 C   0  0  0  0  0  0  0  0  0  0  0  0
  130.2610  122.5380   76.4840 C   0  0  0  0  0  0  0  0  0  0  0  0
  130.6320  121.9490   75.2740 C   0  0  0  0  0  0  0  0  0  0  0  0
  130.6180  120.4370   75.1370 C   0  0  0  0  0  0  0  0  0  0  0  0
  130.9950  122.7480   74.1870 C   0  0  0  0  0  0  0  0  0  0  0  0
  130.9960  124.1340   74.3140 C   0  0  0  0  0  0  0  0  0  0  0  0
  129.6420  126.5120   73.4530 N   0  0  0  0  0  0  0  0  0  0  0  0
  129.5200  127.2130   72.2470 N   0  0  0  0  0  0  0  0  0  0  0  0
  128.6650  126.7580   71.2980 C   0  0  0  0  0  0  0  0  0  0  0  0
  127.9690  125.7410   71.4060 O   0  0  0  0  0  0  0  0  0  0  0  0
  130.3960  127.1110   65.2900 C   0  0  0  0  0  0  0  0  0  0  0  0
  131.6090  126.4410   65.1270 C   0  0  0  0  0  0  0  0  0  0  0  0
  132.0090  126.0930   63.8820 F   0  0  0  0  0  0  0  0  0  0  0  0
  1  2  1  0
  2  3  1  0
  3  4  2  0
  4  5  1  0
  5  6  2  0
  6  7  1  0
  7  8  2  0
  8  9  1  0
  9 10  1  0
 10 11  2  0
 11 12  1  0
 12 13  2  0
 13 14  1  0
 14 15  2  0
  9 16  1  0
 16 17  2  0
 17 18  1  0
 18 19  2  0
 19 20  1  0
 20 21  1  0
 21 22  2  0
 22 23  1  0
 23 24  2  0
 23 25  1  0
 25 26  1  0
 26 27  1  0
 27 28  2  0
 28 29  1  0
 29 30  2  0
 30 31  1  0
 30 32  1  0
 32 33  2  0
 25 34  2  0
 34 35  1  0
 35 36  1  0
 36 37  2  0
  6 38  1  0
 38 39  2  0
 39 40  1  0
 39  3  1  0
 17  7  1  0
 36 19  1  0
 15 10  1  0
 35 21  1  0
 33 27  1  0
M  END
>  <Binding energies>  (46) 
[-9.42]

>  <Ligand effiencies>  (46) 
[-0.2355]

>  <Interactions>  (46) 
["V-B:GLU:543:CD:9879, H-A:TYR:484:OH:4347, V-A:GLY:454:CA:4048, H-A:GLY:454:N:4049, V-A:GLY:453:C:4041, V-A:ARG:545:CD:4922, V-A:ARG:545:CZ:4925, V-A:ARG:545:CG:4921, V-A:HIS:456:CE1:4069, V-B:GLU:543:CB:9877, V-A:GLU:543:CD:4907, V-B:HIS:456:CE1:9040, V-A:HIS:456:CD2:4067, V-A:ASP:473:CG:4239, V-A:TYR:484:CB:4340, V-A:TYR:484:C:4336, H-A:LYS:547:NZ:4950, V-A:GLU:543:CB:4905, V-A:GLU:543:C:4901, V-A:GLY:453:CA:4043, H-A:ARG:545:NE:4923, V-A:HIS:456:CB:4064, V-A:HIS:456:CG:4065, H-A:HIS:456:ND1:4066, V-B:LEU:475:CD1:9228, V-B:GLY:454:CA:9019, V-A:GLY:454:C:4046"]

$$$$
RR23_Rahimova_2017
     RDKit          3D

 39 44  0  0  0  0  0  0  0  0999 V2000
  132.4700  117.4790   58.9770 C   0  0  0  0  0  0  0  0  0  0  0  0
  132.1420  118.5950   59.9520 C   0  0  0  0  0  0  0  0  0  0  0  0
  130.9700  118.5400   60.7080 C   0  0  0  0  0  0  0  0  0  0  0  0
  130.6750  119.5610   61.6090 C   0  0  0  0  0  0  0  0  0  0  0  0
  131.5430  120.6490   61.7520 C   0  0  0  0  0  0  0  0  0  0  0  0
  131.2140  121.7360   62.7500 C   0  0  0  0  0  0  0  0  0  0  0  0
  132.0900  122.0530   63.5580 O   0  0  0  0  0  0  0  0  0  0  0  0
  129.9840  122.3300   62.7140 N   0  0  0  0  0  0  0  0  0  0  0  0
  129.4790  123.1240   63.8460 C   0  0  0  0  0  0  0  0  0  0  0  0
  128.1660  123.7370   63.3850 C   0  0  0  0  0  0  0  0  0  0  0  0
  128.2140  123.5500   61.8990 C   0  0  0  0  0  0  0  0  0  0  0  0
  127.3170  123.9960   60.9280 C   0  0  0  0  0  0  0  0  0  0  0  0
  127.4500  123.5800   59.5950 C   0  0  0  0  0  0  0  0  0  0  0  0
  126.4850  124.0470   58.4950 C   0  0  2  0  0  0  0  0  0  0  0  0
  126.6600  125.4470   58.1720 N   0  0  0  0  0  0  0  0  0  0  0  0
  125.5670  125.9930   57.8190 C   0  0  0  0  0  0  0  0  0  0  0  0
  125.3500  127.2900   57.4730 N   0  0  0  0  0  0  0  0  0  0  0  0
  126.2070  128.3370   57.5540 C   0  0  0  0  0  0  0  0  0  0  0  0
  127.3790  128.2760   57.9300 O   0  0  0  0  0  0  0  0  0  0  0  0
  125.6290  129.6990   57.1360 C   0  0  0  0  0  0  0  0  0  0  0  0
  126.7240  130.5540   56.6250 N   0  0  0  0  0  0  0  0  0  0  0  0
  126.7220  130.7680   55.2520 N   0  0  0  0  0  0  0  0  0  0  0  0
  127.6270  131.4960   54.6800 N   0  0  0  0  0  0  0  0  0  0  0  0
  128.6310  132.0870   55.4500 C   0  0  0  0  0  0  0  0  0  0  0  0
  129.5930  132.8650   54.8020 C   0  0  0  0  0  0  0  0  0  0  0  0
  130.6100  133.4690   55.5440 C   0  0  0  0  0  0  0  0  0  0  0  0
  130.6660  133.2960   56.9290 C   0  0  0  0  0  0  0  0  0  0  0  0
  129.7060  132.5180   57.5790 C   0  0  0  0  0  0  0  0  0  0  0  0
  128.6860  131.9140   56.8340 C   0  0  0  0  0  0  0  0  0  0  0  0
  127.6390  131.0650   57.5180 C   0  0  0  0  0  0  0  0  0  0  0  0
  127.6180  130.8480   58.7330 O   0  0  0  0  0  0  0  0  0  0  0  0
  124.1160  124.9490   57.7800 S   0  0  0  0  0  0  0  0  0  0  0  0
  124.9970  123.7370   58.7800 C   0  0  2  0  0  0  0  0  0  0  0  0
  124.5320  123.8610   60.2460 C   0  0  0  0  0  0  0  0  0  0  0  0
  128.4670  122.6760   59.2680 C   0  0  0  0  0  0  0  0  0  0  0  0
  129.3520  122.2130   60.2430 C   0  0  0  0  0  0  0  0  0  0  0  0
  129.2620  122.6950   61.5550 C   0  0  0  0  0  0  0  0  0  0  0  0
  132.7310  120.6830   61.0100 C   0  0  0  0  0  0  0  0  0  0  0  0
  133.0260  119.6630   60.1100 C   0  0  0  0  0  0  0  0  0  0  0  0
  1  2  1  0
  2  3  2  0
  3  4  1  0
  4  5  2  0
  5  6  1  0
  6  7  2  0
  6  8  1  0
  8  9  1  0
  9 10  1  0
 10 11  1  0
 11 12  2  0
 12 13  1  0
 14 13  1  1
 14 15  1  0
 15 16  2  0
 16 17  1  0
 17 18  1  0
 18 19  2  0
 18 20  1  0
 20 21  1  0
 21 22  1  0
 22 23  2  0
 23 24  1  0
 24 25  2  0
 25 26  1  0
 26 27  2  0
 27 28  1  0
 28 29  2  0
 29 30  1  0
 30 31  2  0
 16 32  1  0
 32 33  1  0
 33 34  1  1
 13 35  2  0
 35 36  1  0
 36 37  2  0
  5 38  1  0
 38 39  2  0
 39  2  1  0
 37  8  1  0
 37 11  1  0
 33 14  1  0
 30 21  1  0
 29 24  1  0
M  END
>  <Binding energies>  (47) 
[-10.88]

>  <Ligand effiencies>  (47) 
[-0.272]

>  <Interactions>  (47) 
["V-A:TYR:539:CZ:4876, V-A:TYR:539:CE1:4874, V-A:TYR:539:CD1:4872, V-A:ILE:538:CA:4859, V-B:GLU:543:CD:9879, V-B:PRO:540:N:9855, V-B:ALA:541:CB:9863, V-B:PRO:540:CA:9854, V-B:TYR:539:C:9838, V-A:LEU:475:CD2:4258, V-A:HIS:383:CE1:3393, V-B:TYR:539:CD2:9845, V-A:ILE:369:CG2:3236, V-B:TYR:539:CE2:9847, V-B:TYR:539:CB:9842, V-A:SER:385:CA:3406, V-A:LEU:373:CD1:3279, V-B:TYR:539:CG:9843, V-B:GLU:543:CG:9878, V-B:PRO:540:CB:9856, V-B:TYR:531:CZ:9765, V-A:ILE:538:CB:4861, V-A:ILE:538:CG2:4862, V-B:ASP:366:CB:8182, V-A:LEU:373:CG:3278, V-A:LEU:373:CD2:3280, H-B:TYR:531:OH:9766, V-A:PRO:540:N:4883, V-A:MET:535:CG:4832, V-B:TYR:531:CE1:9763, V-A:TYR:539:C:4866, H-A:TYR:539:OH:4877, V-A:MET:535:CB:4831"]

$$$$
RR26_Rahimova_2017
     RDKit          3D

 38 44  0  0  0  0  0  0  0  0999 V2000
  133.4390  120.0620   60.7990 C   0  0  0  0  0  0  0  0  0  0  0  0
  132.2830  119.0940   61.0190 C   0  0  0  0  0  0  0  0  0  0  0  0
  132.5370  117.7220   60.9070 C   0  0  0  0  0  0  0  0  0  0  0  0
  131.5280  116.7900   61.1370 C   0  0  0  0  0  0  0  0  0  0  0  0
  130.2530  117.2220   61.4890 C   0  0  0  0  0  0  0  0  0  0  0  0
  129.9880  118.5850   61.6050 C   0  0  0  0  0  0  0  0  0  0  0  0
  130.9900  119.5390   61.3690 C   0  0  0  0  0  0  0  0  0  0  0  0
  130.6160  120.9870   61.5000 C   0  0  0  0  0  0  0  0  0  0  0  0
  131.4580  121.9700   61.1930 N   0  0  0  0  0  0  0  0  0  0  0  0
  130.7370  123.0300   61.4380 C   0  0  0  0  0  0  0  0  0  0  0  0
  130.9740  124.7360   61.3450 S   0  0  0  0  0  0  0  0  0  0  0  0
  129.2840  124.9800   61.9250 C   0  0  0  0  0  0  0  0  0  0  0  0
  128.6450  126.1510   62.1450 C   0  0  0  0  0  0  0  0  0  0  0  0
  129.1570  127.4990   61.9630 C   0  0  0  0  0  0  0  0  0  0  0  0
  130.2940  127.8990   61.2770 C   0  0  0  0  0  0  0  0  0  0  0  0
  130.3600  129.2680   61.3310 N   0  0  0  0  0  0  0  0  0  0  0  0
  131.3430  130.1220   60.7670 C   0  0  0  0  0  0  0  0  0  0  0  0
  131.8770  131.1880   61.5050 C   0  0  0  0  0  0  0  0  0  0  0  0
  132.8380  132.0200   60.9380 C   0  0  0  0  0  0  0  0  0  0  0  0
  133.2710  131.7880   59.6350 C   0  0  0  0  0  0  0  0  0  0  0  0
  132.7510  130.7310   58.8920 C   0  0  0  0  0  0  0  0  0  0  0  0
  131.7870  129.8990   59.4550 C   0  0  0  0  0  0  0  0  0  0  0  0
  129.3020  129.7590   61.9940 N   0  0  0  0  0  0  0  0  0  0  0  0
  128.5840  128.7220   62.3790 C   0  0  0  0  0  0  0  0  0  0  0  0
  127.3260  128.9370   63.1620 C   0  0  0  0  0  0  0  0  0  0  0  0
  126.1240  129.2420   62.5050 C   0  0  0  0  0  0  0  0  0  0  0  0
  124.9460  129.4470   63.2270 C   0  0  0  0  0  0  0  0  0  0  0  0
  124.9630  129.3490   64.6160 C   0  0  0  0  0  0  0  0  0  0  0  0
  126.1540  129.0260   65.2830 C   0  0  0  0  0  0  0  0  0  0  0  0
  127.3290  128.8280   64.5610 C   0  0  0  0  0  0  0  0  0  0  0  0
  126.2270  128.9610   66.6610 O   0  0  0  0  0  0  0  0  0  0  0  0
  124.9590  128.8070   67.3080 C   0  0  0  0  0  0  0  0  0  0  0  0
  123.9130  129.7660   66.6880 C   0  0  0  0  0  0  0  0  0  0  0  0
  123.7670  129.5110   65.2870 O   0  0  0  0  0  0  0  0  0  0  0  0
  128.5960  123.7170   62.1770 C   0  0  0  0  0  0  0  0  0  0  0  0
  127.4480  123.5240   62.5810 O   0  0  0  0  0  0  0  0  0  0  0  0
  129.5070  122.6950   61.8680 N   0  0  0  0  0  0  0  0  0  0  0  0
  129.4130  121.3630   61.9090 N   0  0  0  0  0  0  0  0  0  0  0  0
  1  2  1  0
  2  3  2  0
  3  4  1  0
  4  5  2  0
  5  6  1  0
  6  7  2  0
  7  8  1  0
  8  9  1  0
  9 10  2  0
 10 11  1  0
 11 12  1  0
 12 13  2  0
 13 14  1  0
 14 15  2  0
 15 16  1  0
 16 17  1  0
 17 18  2  0
 18 19  1  0
 19 20  2  0
 20 21  1  0
 21 22  2  0
 16 23  1  0
 23 24  2  0
 24 25  1  0
 25 26  2  0
 26 27  1  0
 27 28  2  0
 28 29  1  0
 29 30  2  0
 29 31  1  0
 31 32  1  0
 32 33  1  0
 33 34  1  0
 12 35  1  0
 35 36  2  0
 35 37  1  0
 37 38  1  0
  7  2  1  0
 38  8  2  0
 37 10  1  0
 24 14  1  0
 30 25  1  0
 22 17  1  0
 34 28  1  0
M  END
>  <Binding energies>  (48) 
[-9.45]

>  <Ligand effiencies>  (48) 
[-0.24868421052631576]

>  <Interactions>  (48) 
["V-A:LEU:363:CA:3184, V-A:ASP:366:CG:3212, V-A:ASN:362:C:3171, V-A:PRO:540:CB:4884, V-A:ASP:366:CB:3211, V-A:PRO:540:CA:4882, V-B:GLU:543:CD:9879, H-B:ALA:541:N:9862, V-B:ALA:541:CB:9863, V-B:TYR:539:C:9838, V-A:LEU:475:CD2:4258, V-A:PRO:482:CG:4326, V-A:HIS:383:CE1:3393, V-B:TYR:539:CD2:9845, V-A:ILE:369:CG2:3236, V-A:SER:385:CA:3406, V-A:SER:385:CB:3408, V-A:THR:477:CG2:4272, V-A:PRO:482:CB:4325, V-B:ARG:545:CD:9894, V-B:ARG:545:CG:9893, H-B:ARG:545:NH2:9899, H-B:TYR:484:OH:9318, H-B:ARG:545:NE:9895, V-B:ARG:545:CZ:9897, V-B:GLY:454:CA:9019, H-B:GLY:454:N:9020, H-B:ARG:545:NH1:9898"]

$$$$
RR2_Rahimova_2017
     RDKit          3D

 46 50  0  0  0  0  0  0  0  0999 V2000
  125.3690  128.7260   67.0760 C   0  0  0  0  0  0  0  0  0  0  0  0
  125.5200  129.1040   65.7120 O   0  0  0  0  0  0  0  0  0  0  0  0
  126.6680  128.7380   65.0340 C   0  0  0  0  0  0  0  0  0  0  0  0
  126.6920  128.2830   63.7080 C   0  0  0  0  0  0  0  0  0  0  0  0
  127.8980  127.9330   63.1080 C   0  0  0  0  0  0  0  0  0  0  0  0
  129.1040  128.0240   63.8160 C   0  0  0  0  0  0  0  0  0  0  0  0
  130.4030  127.6280   63.1410 C   0  0  0  0  0  0  0  0  0  0  0  0
  130.8610  128.3150   62.2210 O   0  0  0  0  0  0  0  0  0  0  0  0
  130.9880  126.4990   63.6020 N   0  0  0  0  0  0  0  0  0  0  0  0
  132.1320  126.0410   62.9570 N   0  0  0  0  0  0  0  0  0  0  0  0
  132.3240  124.7090   62.8680 C   0  0  0  0  0  0  0  0  0  0  0  0
  131.6600  123.8590   63.4680 O   0  0  0  0  0  0  0  0  0  0  0  0
  133.4480  124.2650   61.9230 C   0  0  0  0  0  0  0  0  0  0  0  0
  132.9420  123.0890   60.6150 S   0  0  0  0  0  0  0  0  0  0  0  0
  132.4040  124.2100   59.3590 C   0  0  0  0  0  0  0  0  0  0  0  0
  133.2280  124.8110   58.5380 N   0  0  0  0  0  0  0  0  0  0  0  0
  132.4760  125.6640   57.7430 N   0  0  0  0  0  0  0  0  0  0  0  0
  131.2200  125.5260   58.0940 C   0  0  0  0  0  0  0  0  0  0  0  0
  130.0980  126.2730   57.4480 C   0  0  0  0  0  0  0  0  0  0  0  0
  128.9550  126.5860   58.1870 C   0  0  0  0  0  0  0  0  0  0  0  0
  127.9030  127.2750   57.5920 C   0  0  0  0  0  0  0  0  0  0  0  0
  127.9920  127.6740   56.2530 C   0  0  0  0  0  0  0  0  0  0  0  0
  126.9580  128.3610   55.5990 N   0  0  0  0  0  0  0  0  0  0  0  0
  126.5170  130.0560   55.9050 S   0  0  0  0  0  0  0  0  0  0  0  0
  125.8650  130.0720   57.2200 O   0  0  0  0  0  0  0  0  0  0  0  0
  125.8260  130.5690   54.7160 O   0  0  0  0  0  0  0  0  0  0  0  0
  128.0750  130.9190   56.0920 C   0  0  0  0  0  0  0  0  0  0  0  0
  128.5110  131.8200   55.1170 C   0  0  0  0  0  0  0  0  0  0  0  0
  129.7320  132.4700   55.2740 C   0  0  0  0  0  0  0  0  0  0  0  0
  130.5140  132.2230   56.4050 C   0  0  0  0  0  0  0  0  0  0  0  0
  131.8530  132.9210   56.5660 C   0  0  0  0  0  0  0  0  0  0  0  0
  130.0780  131.3180   57.3760 C   0  0  0  0  0  0  0  0  0  0  0  0
  128.8580  130.6680   57.2200 C   0  0  0  0  0  0  0  0  0  0  0  0
  129.1350  127.3630   55.5170 C   0  0  0  0  0  0  0  0  0  0  0  0
  130.1850  126.6690   56.1100 C   0  0  0  0  0  0  0  0  0  0  0  0
  131.1010  124.6120   59.1280 N   0  0  0  0  0  0  0  0  0  0  0  0
  129.9360  124.2140   59.8170 C   0  0  0  0  0  0  0  0  0  0  0  0
  129.6290  124.7860   61.0520 C   0  0  0  0  0  0  0  0  0  0  0  0
  128.4750  124.3930   61.7250 C   0  0  0  0  0  0  0  0  0  0  0  0
  127.6260  123.4310   61.1770 C   0  0  0  0  0  0  0  0  0  0  0  0
  126.5070  123.1050   61.9190 O   0  0  0  0  0  0  0  0  0  0  0  0
  126.0430  124.0130   62.9130 C   0  0  0  0  0  0  0  0  0  0  0  0
  127.9440  122.8600   59.9340 C   0  0  0  0  0  0  0  0  0  0  0  0
  129.0940  123.2520   59.2560 C   0  0  0  0  0  0  0  0  0  0  0  0
  129.0720  128.4850   65.1410 C   0  0  0  0  0  0  0  0  0  0  0  0
  127.8650  128.8360   65.7390 C   0  0  0  0  0  0  0  0  0  0  0  0
  1  2  1  0
  2  3  1  0
  3  4  2  0
  4  5  1  0
  5  6  2  0
  6  7  1  0
  7  8  2  0
  7  9  1  0
  9 10  1  0
 10 11  1  0
 11 12  2  0
 11 13  1  0
 13 14  1  0
 14 15  1  0
 15 16  2  0
 16 17  1  0
 17 18  2  0
 18 19  1  0
 19 20  2  0
 20 21  1  0
 21 22  2  0
 22 23  1  0
 23 24  1  0
 24 25  2  0
 24 26  2  0
 24 27  1  0
 27 28  2  0
 28 29  1  0
 29 30  2  0
 30 31  1  0
 30 32  1  0
 32 33  2  0
 22 34  1  0
 34 35  2  0
 18 36  1  0
 36 37  1  0
 37 38  2  0
 38 39  1  0
 39 40  2  0
 40 41  1  0
 41 42  1  0
 40 43  1  0
 43 44  2  0
  6 45  1  0
 45 46  2  0
 46  3  1  0
 36 15  1  0
 44 37  1  0
 35 19  1  0
 33 27  1  0
M  END
>  <Binding energies>  (49) 
[-10.23]

>  <Ligand effiencies>  (49) 
[-0.20877551020408164]

>  <Interactions>  (49) 
["V-A:TYR:539:CZ:4876, V-A:ASP:366:CG:3212, V-A:TYR:539:CE1:4874, V-A:TYR:531:CE2:4792, V-A:TYR:531:CZ:4793, V-A:LEU:363:CD1:3188, V-B:GLU:543:CD:9879, V-B:PRO:540:N:9855, H-B:ALA:541:N:9862, V-B:PRO:540:CA:9854, H-B:GLU:543:OE2:9881, V-B:TYR:539:C:9838, V-A:ILE:369:CD1:3238, V-B:TYR:539:CD2:9845, V-B:TYR:539:CE2:9847, V-B:MET:535:CE:9806, H-B:TYR:539:OH:9849, V-B:TYR:539:CZ:9848, V-B:GLU:543:CG:9878, V-B:TYR:531:CZ:9765, V-A:ARG:545:CZ:4925, V-A:GLU:543:CD:4907, V-A:GLU:543:CG:4906, V-B:ARG:545:CG:9893, H-A:ASP:366:OD2:3214, H-A:ARG:545:NH2:4927, H-B:TYR:484:OH:9318, V-A:MET:535:CE:4834, H-B:TYR:531:OH:9766, V-A:TYR:531:CE1:4791, H-A:ASP:366:OD1:3213, V-A:MET:535:CG:4832, V-B:TYR:531:CE1:9763, H-A:TYR:539:OH:4877"]

$$$$
RR33_Rahimova_2017
     RDKit          3D

 18 19  0  0  0  0  0  0  0  0999 V2000
  132.8080  125.7530   57.5480 C   0  0  0  0  0  0  0  0  0  0  0  0
  133.6500  124.6100   58.1230 C   0  0  0  0  0  0  0  0  0  0  0  0
  132.8530  123.8750   59.0480 O   0  0  0  0  0  0  0  0  0  0  0  0
  132.7790  124.2940   60.3620 C   0  0  0  0  0  0  0  0  0  0  0  0
  133.8640  123.9740   61.1780 C   0  0  0  0  0  0  0  0  0  0  0  0
  133.8770  124.3510   62.5180 C   0  0  0  0  0  0  0  0  0  0  0  0
  132.8010  125.0580   63.0630 C   0  0  0  0  0  0  0  0  0  0  0  0
  132.8170  125.4620   64.5030 C   0  0  0  0  0  0  0  0  0  0  0  0
  131.8220  125.9520   65.2090 N   0  0  0  0  0  0  0  0  0  0  0  0
  132.3190  126.1500   66.4210 C   0  0  0  0  0  0  0  0  0  0  0  0
  131.4560  126.7040   67.5340 C   0  0  0  0  0  0  0  0  0  0  0  0
  130.0520  126.3990   67.2960 N   0  0  0  0  0  0  0  0  0  0  0  0
  129.5530  125.4690   68.2950 C   0  0  0  0  0  0  0  0  0  0  0  0
  133.6540  125.7680   66.4460 C   0  0  0  0  0  0  0  0  0  0  0  0
  134.7430  125.7410   67.4910 C   0  0  0  0  0  0  0  0  0  0  0  0
  133.9700  125.3260   65.2070 O   0  0  0  0  0  0  0  0  0  0  0  0
  131.7140  125.3850   62.2480 C   0  0  0  0  0  0  0  0  0  0  0  0
  131.6990  125.0060   60.9070 C   0  0  0  0  0  0  0  0  0  0  0  0
  1  2  1  0
  2  3  1  0
  3  4  1  0
  4  5  2  0
  5  6  1  0
  6  7  2  0
  7  8  1  0
  8  9  2  0
  9 10  1  0
 10 11  1  0
 11 12  1  0
 12 13  1  0
 10 14  2  0
 14 15  1  0
 14 16  1  0
  7 17  1  0
 17 18  2  0
 18  4  1  0
 16  8  1  0
M  END
>  <Binding energies>  (50) 
[-5.27]

>  <Ligand effiencies>  (50) 
[-0.27736842105263154]

>  <Interactions>  (50) 
["V-A:ASP:366:CG:3212, V-A:ASP:366:CB:3211, V-B:GLU:543:CD:9879, H-A:TYR:484:OH:4347, H-B:GLU:543:OE2:9881, V-A:ILE:369:CD1:3238, V-A:ILE:369:CG2:3236, V-B:TYR:539:CE2:9847, H-B:TYR:539:OH:9849, V-B:TYR:539:CZ:9848, V-B:GLU:543:CG:9878, H-A:GLY:454:N:4049, V-A:ARG:545:CD:4922, V-A:ARG:545:CZ:4925, V-A:ARG:545:CG:4921, V-A:HIS:456:CE1:4069, V-B:GLU:543:CB:9877, H-A:ARG:545:NE:4923, V-A:TYR:484:CZ:4346, V-A:TYR:484:CE2:4345, V-A:ILE:369:CB:3235, V-A:ASP:366:CA:3209, V-A:ASP:366:C:3207, V-A:ILE:455:C:4051, V-A:ARG:545:CB:4920"]

$$$$
RR3_Rahimova_2017
     RDKit          3D

 38 44  0  0  0  0  0  0  0  0999 V2000
  131.3250  133.6120   55.7230 C   0  0  0  0  0  0  0  0  0  0  0  0
  129.9870  133.2330   55.7570 C   0  0  0  0  0  0  0  0  0  0  0  0
  129.5020  132.5090   56.8430 C   0  0  0  0  0  0  0  0  0  0  0  0
  130.3460  132.1570   57.9070 C   0  0  0  0  0  0  0  0  0  0  0  0
  129.8230  131.3800   59.0750 C   0  0  0  0  0  0  0  0  0  0  0  0
  130.6920  130.8700   60.0480 C   0  0  0  0  0  0  0  0  0  0  0  0
  130.2060  130.1440   61.1320 C   0  0  0  0  0  0  0  0  0  0  0  0
  128.8350  129.9050   61.2640 C   0  0  0  0  0  0  0  0  0  0  0  0
  128.3060  129.1210   62.4240 C   0  0  0  0  0  0  0  0  0  0  0  0
  128.4030  129.6100   63.6550 N   0  0  0  0  0  0  0  0  0  0  0  0
  127.8240  128.7420   64.4490 C   0  0  0  0  0  0  0  0  0  0  0  0
  127.7010  128.8780   65.8980 C   0  0  0  0  0  0  0  0  0  0  0  0
  126.6800  129.5340   66.5660 C   0  0  0  0  0  0  0  0  0  0  0  0
  126.8760  129.4590   67.9200 N   0  0  0  0  0  0  0  0  0  0  0  0
  128.0300  128.7560   68.1880 C   0  0  0  0  0  0  0  0  0  0  0  0
  128.6350  128.4240   69.4050 C   0  0  0  0  0  0  0  0  0  0  0  0
  129.8200  127.6910   69.3440 C   0  0  0  0  0  0  0  0  0  0  0  0
  130.3820  127.3040   68.1320 C   0  0  0  0  0  0  0  0  0  0  0  0
  129.7790  127.6340   66.9190 C   0  0  0  0  0  0  0  0  0  0  0  0
  128.5820  128.3730   66.9250 C   0  0  0  0  0  0  0  0  0  0  0  0
  127.3500  127.6720   63.7420 N   0  0  0  0  0  0  0  0  0  0  0  0
  127.6650  127.8710   62.4220 C   0  0  0  0  0  0  0  0  0  0  0  0
  127.3550  126.8730   61.3550 C   0  0  0  0  0  0  0  0  0  0  0  0
  127.9240  127.0030   60.0880 C   0  0  0  0  0  0  0  0  0  0  0  0
  127.6280  126.0830   59.0870 C   0  0  0  0  0  0  0  0  0  0  0  0
  126.7590  125.0090   59.3300 C   0  0  0  0  0  0  0  0  0  0  0  0
  126.4270  124.0320   58.2470 C   0  0  0  0  0  0  0  0  0  0  0  0
  127.4360  123.2860   57.6170 C   0  0  0  0  0  0  0  0  0  0  0  0
  127.1250  122.3740   56.6110 C   0  0  0  0  0  0  0  0  0  0  0  0
  125.8010  122.1970   56.2240 C   0  0  0  0  0  0  0  0  0  0  0  0
  124.7860  122.9250   56.8360 C   0  0  0  0  0  0  0  0  0  0  0  0
  125.0990  123.8370   57.8400 C   0  0  0  0  0  0  0  0  0  0  0  0
  126.2070  124.8800   60.6130 C   0  0  0  0  0  0  0  0  0  0  0  0
  126.5020  125.7990   61.6160 C   0  0  0  0  0  0  0  0  0  0  0  0
  127.9600  130.4210   60.3060 C   0  0  0  0  0  0  0  0  0  0  0  0
  128.4490  131.1450   59.2230 C   0  0  0  0  0  0  0  0  0  0  0  0
  131.6910  132.5490   57.8510 C   0  0  0  0  0  0  0  0  0  0  0  0
  132.1800  133.2730   56.7670 C   0  0  0  0  0  0  0  0  0  0  0  0
  1  2  2  0
  2  3  1  0
  3  4  2  0
  4  5  1  0
  5  6  2  0
  6  7  1  0
  7  8  2  0
  8  9  1  0
  9 10  1  0
 10 11  2  0
 11 12  1  0
 12 13  2  0
 13 14  1  0
 14 15  1  0
 15 16  2  0
 16 17  1  0
 17 18  2  0
 18 19  1  0
 19 20  2  0
 11 21  1  0
 21 22  1  0
 22 23  1  0
 23 24  2  0
 24 25  1  0
 25 26  2  0
 26 27  1  0
 27 28  2  0
 28 29  1  0
 29 30  2  0
 30 31  1  0
 31 32  2  0
 26 33  1  0
 33 34  2  0
  8 35  1  0
 35 36  2  0
  4 37  1  0
 37 38  2  0
 38  1  1  0
 36  5  1  0
 22  9  2  0
 34 23  1  0
 20 12  1  0
 32 27  1  0
 20 15  1  0
M  END
>  <Binding energies>  (51) 
[-10.55]

>  <Ligand effiencies>  (51) 
[-0.26375000000000004]

>  <Interactions>  (51) 
["V-A:PRO:540:CB:4884, V-A:TYR:539:CE1:4874, V-A:TYR:539:CD1:4872, V-A:PRO:540:CA:4882, V-A:TYR:531:CE2:4792, V-A:ILE:538:CA:4859, V-A:LEU:363:CD1:3188, V-B:GLU:543:CD:9879, V-B:PRO:540:N:9855, H-B:GLU:543:OE2:9881, H-B:GLU:543:OE1:9880, V-B:TYR:539:C:9838, V-B:TYR:539:CG:9843, V-B:MET:535:CE:9806, V-B:PRO:540:CB:9856, V-B:TYR:539:CA:9840, V-B:TYR:539:CD1:9844, V-B:PRO:540:CD:9858, V-B:TYR:531:CE2:9764, V-B:LEU:363:CD1:8159, V-A:HIS:456:CE1:4069, V-B:ILE:538:CG2:9834, V-A:GLU:543:CD:4907, V-B:HIS:456:CE1:9040, V-B:TYR:484:CZ:9317, V-A:ILE:538:CB:4861, V-A:ILE:538:CG2:4862, V-B:ILE:538:CA:9831, H-B:TYR:484:OH:9318, V-A:PRO:540:N:4883, V-A:PRO:540:CD:4886, V-B:TYR:484:CE2:9316"]

$$$$
RR4_Rahimova_2017
     RDKit          3D

 40 44  0  0  0  0  0  0  0  0999 V2000
  125.7630  122.0010   55.8140 C   0  0  0  0  0  0  0  0  0  0  0  0
  125.7280  122.4630   57.1600 O   0  0  0  0  0  0  0  0  0  0  0  0
  125.4710  123.7980   57.4080 C   0  0  0  0  0  0  0  0  0  0  0  0
  126.5790  124.6300   57.5570 C   0  0  0  0  0  0  0  0  0  0  0  0
  126.4170  125.9880   57.8090 C   0  0  0  0  0  0  0  0  0  0  0  0
  125.1400  126.5570   57.9210 C   0  0  0  0  0  0  0  0  0  0  0  0
  124.9690  128.0240   58.1940 C   0  0  0  0  0  0  0  0  0  0  0  0
  125.1110  128.5790   59.4690 C   0  0  0  0  0  0  0  0  0  0  0  0
  124.9450  129.9560   59.6720 C   0  0  0  0  0  0  0  0  0  0  0  0
  125.1400  130.4810   61.0570 C   0  0  0  0  0  0  0  0  0  0  0  0
  126.3080  131.1760   61.3860 C   0  0  0  0  0  0  0  0  0  0  0  0
  126.4920  131.6790   62.6710 C   0  0  0  0  0  0  0  0  0  0  0  0
  125.5130  131.5030   63.6480 C   0  0  0  0  0  0  0  0  0  0  0  0
  125.7830  132.0370   64.8940 O   0  0  0  0  0  0  0  0  0  0  0  0
  127.1340  132.1170   65.3380 C   0  0  0  0  0  0  0  0  0  0  0  0
  124.3380  130.8110   63.3210 C   0  0  0  0  0  0  0  0  0  0  0  0
  124.1550  130.3090   62.0350 C   0  0  0  0  0  0  0  0  0  0  0  0
  124.6030  130.7650   58.5600 C   0  0  0  0  0  0  0  0  0  0  0  0
  124.4190  132.2110   58.7160 C   0  0  0  0  0  0  0  0  0  0  0  0
  124.2730  133.3520   58.8390 N   0  0  0  0  0  0  0  0  0  0  0  0
  124.4460  130.1330   57.3050 C   0  0  0  0  0  0  0  0  0  0  0  0
  124.0070  130.9880   55.8070 S   0  0  0  0  0  0  0  0  0  0  0  0
  125.2870  130.6200   54.5610 C   0  0  0  0  0  0  0  0  0  0  0  0
  126.6980  130.4290   55.1330 C   0  0  0  0  0  0  0  0  0  0  0  0
  127.3400  129.4050   54.8880 O   0  0  0  0  0  0  0  0  0  0  0  0
  127.1360  131.4460   55.9100 N   0  0  0  0  0  0  0  0  0  0  0  0
  128.3630  131.5720   56.5660 C   0  0  0  0  0  0  0  0  0  0  0  0
  128.7020  130.8100   58.0970 S   0  0  0  0  0  0  0  0  0  0  0  0
  130.3080  131.4700   58.1340 C   0  0  0  0  0  0  0  0  0  0  0  0
  130.5690  132.2560   57.0000 C   0  0  0  0  0  0  0  0  0  0  0  0
  129.4720  132.2990   56.1060 C   0  0  0  0  0  0  0  0  0  0  0  0
  129.4920  133.0320   54.8440 C   0  0  0  0  0  0  0  0  0  0  0  0
  129.5080  133.6130   53.8430 N   0  0  0  0  0  0  0  0  0  0  0  0
  131.9340  132.9180   56.7800 C   0  0  0  0  0  0  0  0  0  0  0  0
  133.0020  132.2860   57.7010 C   0  0  0  0  0  0  0  0  0  0  0  0
  132.5000  132.1250   59.1460 C   0  0  0  0  0  0  0  0  0  0  0  0
  131.3060  131.1530   59.2400 C   0  0  0  0  0  0  0  0  0  0  0  0
  124.6430  128.8050   57.1320 N   0  0  0  0  0  0  0  0  0  0  0  0
  124.0300  125.7110   57.7660 C   0  0  0  0  0  0  0  0  0  0  0  0
  124.1880  124.3510   57.5150 C   0  0  0  0  0  0  0  0  0  0  0  0
  1  2  1  0
  2  3  1  0
  3  4  2  0
  4  5  1  0
  5  6  2  0
  6  7  1  0
  7  8  2  0
  8  9  1  0
  9 10  1  0
 10 11  2  0
 11 12  1  0
 12 13  2  0
 13 14  1  0
 14 15  1  0
 13 16  1  0
 16 17  2  0
  9 18  2  0
 18 19  1  0
 19 20  3  0
 18 21  1  0
 21 22  1  0
 22 23  1  0
 23 24  1  0
 24 25  2  0
 24 26  1  0
 26 27  1  0
 27 28  1  0
 28 29  1  0
 29 30  2  0
 30 31  1  0
 31 32  1  0
 32 33  3  0
 30 34  1  0
 34 35  1  0
 35 36  1  0
 36 37  1  0
 21 38  2  0
  6 39  1  0
 39 40  2  0
 40  3  1  0
 38  7  1  0
 17 10  1  0
 31 27  2  0
 37 29  1  0
M  END
>  <Binding energies>  (52) 
[-9.84]

>  <Ligand effiencies>  (52) 
[-0.24]

>  <Interactions>  (52) 
["V-A:LEU:363:CA:3184, V-A:TYR:539:CZ:4876, V-A:PRO:540:CB:4884, V-A:TYR:539:CE1:4874, V-A:PRO:540:CA:4882, V-A:TYR:531:CE2:4792, V-A:ILE:538:CA:4859, V-A:LEU:363:CD1:3188, V-B:PRO:540:N:9855, V-B:MET:535:CE:9806, V-B:TYR:531:CZ:9765, V-B:PRO:540:CD:9858, V-B:TYR:531:CE2:9764, V-B:LEU:363:CD1:8159, V-B:ILE:538:CD1:9836, V-B:ILE:538:CG2:9834, V-B:ILE:538:CA:9831, V-B:ILE:538:C:9829, V-B:ILE:538:CB:9833, V-B:ASP:366:CB:8182, H-B:TYR:484:OH:9318, H-B:TYR:531:OH:9766, V-A:PRO:540:N:4883, V-B:ASP:366:CG:8183, V-A:MET:535:CG:4832, V-B:TYR:531:CE1:9763, H-A:TYR:539:OH:4877, V-B:LEU:475:CD1:9228, V-B:ILE:369:CG2:8207, V-B:ILE:369:CB:8206"]

$$$$
RR6_Rahimova_2017
     RDKit          3D

 38 41  0  0  0  0  0  0  0  0999 V2000
  131.8410  116.8340   61.8980 C   0  0  0  0  0  0  0  0  0  0  0  0
  131.6310  117.3550   60.5930 O   0  0  0  0  0  0  0  0  0  0  0  0
  132.4120  118.3540   60.1060 C   0  0  0  0  0  0  0  0  0  0  0  0
  133.1820  118.2090   59.1510 O   0  0  0  0  0  0  0  0  0  0  0  0
  132.2440  119.6520   60.8420 C   0  0  0  0  0  0  0  0  0  0  0  0
  133.3410  120.4490   61.2020 C   0  0  0  0  0  0  0  0  0  0  0  0
  133.1530  121.6440   61.8920 C   0  0  0  0  0  0  0  0  0  0  0  0
  131.8590  122.0620   62.2370 C   0  0  0  0  0  0  0  0  0  0  0  0
  131.5590  123.2340   62.9560 N   0  0  0  0  0  0  0  0  0  0  0  0
  132.3970  124.1160   63.5440 C   0  0  0  0  0  0  0  0  0  0  0  0
  133.6260  124.0440   63.5400 O   0  0  0  0  0  0  0  0  0  0  0  0
  131.7240  125.2520   64.3210 C   0  0  0  0  0  0  0  0  0  0  0  0
  129.9200  125.3470   64.0640 S   0  0  0  0  0  0  0  0  0  0  0  0
  129.6640  125.6830   62.3340 C   0  0  0  0  0  0  0  0  0  0  0  0
  130.2400  126.8290   61.8980 N   0  0  0  0  0  0  0  0  0  0  0  0
  130.1390  127.1780   60.5910 C   0  0  0  0  0  0  0  0  0  0  0  0
  130.8570  128.4290   60.1760 C   0  0  0  0  0  0  0  0  0  0  0  0
  131.0070  129.5040   61.0660 C   0  0  0  0  0  0  0  0  0  0  0  0
  131.6610  130.6700   60.6780 C   0  0  0  0  0  0  0  0  0  0  0  0
  132.1840  130.7800   59.3900 C   0  0  0  0  0  0  0  0  0  0  0  0
  132.8880  132.0570   58.9670 C   0  0  0  0  0  0  0  0  0  0  0  0
  132.0470  129.7240   58.4920 C   0  0  0  0  0  0  0  0  0  0  0  0
  131.3930  128.5610   58.8860 C   0  0  0  0  0  0  0  0  0  0  0  0
  129.4350  126.3740   59.6890 C   0  0  0  0  0  0  0  0  0  0  0  0
  128.8260  125.1860   60.1170 C   0  0  0  0  0  0  0  0  0  0  0  0
  128.1060  124.3660   59.0970 C   0  0  0  0  0  0  0  0  0  0  0  0
  128.7070  123.2220   58.5630 C   0  0  0  0  0  0  0  0  0  0  0  0
  128.0360  122.4430   57.6240 C   0  0  0  0  0  0  0  0  0  0  0  0
  126.7520  122.7880   57.2050 C   0  0  0  0  0  0  0  0  0  0  0  0
  126.1630  121.9560   56.2730 O   0  0  0  0  0  0  0  0  0  0  0  0
  125.0210  122.4150   55.5570 C   0  0  0  0  0  0  0  0  0  0  0  0
  126.1420  123.9320   57.7420 C   0  0  0  0  0  0  0  0  0  0  0  0
  126.8160  124.7080   58.6820 C   0  0  0  0  0  0  0  0  0  0  0  0
  128.9360  124.8270   61.4830 C   0  0  0  0  0  0  0  0  0  0  0  0
  128.2990  123.6130   62.0030 C   0  0  0  0  0  0  0  0  0  0  0  0
  127.7980  122.6540   62.4130 N   0  0  0  0  0  0  0  0  0  0  0  0
  130.7650  121.2800   61.8650 C   0  0  0  0  0  0  0  0  0  0  0  0
  130.9550  120.0840   61.1780 C   0  0  0  0  0  0  0  0  0  0  0  0
  1  2  1  0
  2  3  1  0
  3  4  2  0
  3  5  1  0
  5  6  2  0
  6  7  1  0
  7  8  2  0
  8  9  1  0
  9 10  1  0
 10 11  2  0
 10 12  1  0
 12 13  1  0
 13 14  1  0
 14 15  2  0
 15 16  1  0
 16 17  1  0
 17 18  2  0
 18 19  1  0
 19 20  2  0
 20 21  1  0
 20 22  1  0
 22 23  2  0
 16 24  2  0
 24 25  1  0
 25 26  1  0
 26 27  2  0
 27 28  1  0
 28 29  2  0
 29 30  1  0
 30 31  1  0
 29 32  1  0
 32 33  2  0
 25 34  2  0
 34 35  1  0
 35 36  3  0
  8 37  1  0
 37 38  2  0
 38  5  1  0
 34 14  1  0
 23 17  1  0
 33 26  1  0
M  END
>  <Binding energies>  (53) 
[-8.84]

>  <Ligand effiencies>  (53) 
[-0.22666666666666666]

>  <Interactions>  (53) 
["V-A:LEU:363:CA:3184, V-A:ASP:366:CG:3212, V-A:PRO:540:CB:4884, V-A:ASP:366:CB:3211, V-A:PRO:540:CA:4882, V-A:TYR:531:CZ:4793, V-B:PRO:540:N:9855, H-B:ALA:541:N:9862, V-B:ALA:541:CB:9863, V-B:PRO:540:CA:9854, V-B:TYR:539:C:9838, V-A:LEU:475:CD2:4258, V-A:HIS:383:CE1:3393, V-B:TYR:539:CD2:9845, V-A:ILE:369:CG2:3236, V-B:TYR:539:CE2:9847, V-A:SER:385:CA:3406, V-A:SER:385:CB:3408, H-B:TYR:539:N:9841, V-B:TYR:539:CG:9843, V-A:THR:477:CG2:4272, V-B:MET:535:CE:9806, V-B:TYR:539:CZ:9848, V-A:PRO:482:CB:4325, H-A:HIS:383:ND1:3390, H-A:GLY:454:N:4049, V-B:TYR:539:CA:9840, V-B:TYR:539:CD1:9844, V-B:TYR:531:CE2:9764, V-B:LEU:363:CD1:8159, V-B:ILE:538:CD1:9836, V-B:ILE:538:CG2:9834, V-B:ILE:538:CA:9831, V-B:TYR:539:CE1:9846, V-B:ILE:538:CB:9833"]

$$$$
RR7_Rahimova_2017
     RDKit          3D

 47 53  0  0  0  0  0  0  0  0999 V2000
  129.1190  124.0140   57.8170 C   0  0  0  0  0  0  0  0  0  0  0  0
  130.2030  124.8230   57.3710 O   0  0  0  0  0  0  0  0  0  0  0  0
  130.2390  126.1570   57.7300 C   0  0  0  0  0  0  0  0  0  0  0  0
  129.5170  127.0380   56.9270 C   0  0  0  0  0  0  0  0  0  0  0  0
  129.4900  128.3990   57.2130 C   0  0  0  0  0  0  0  0  0  0  0  0
  130.1980  128.9160   58.3080 C   0  0  0  0  0  0  0  0  0  0  0  0
  130.1590  130.4330   58.6720 C   0  0  0  0  0  0  0  0  0  0  0  0
  129.0080  130.6170   59.5260 O   0  0  0  0  0  0  0  0  0  0  0  0
  128.2120  129.4900   59.9100 C   0  0  0  0  0  0  0  0  0  0  0  0
  128.1330  129.4320   61.4440 C   0  0  1  0  0  0  0  0  0  0  0  0
  127.9690  128.0610   61.7970 O   0  0  0  0  0  0  0  0  0  0  0  0
  128.9990  127.6080   62.6280 C   0  0  1  0  0  0  0  0  0  0  0  0
  129.2790  126.2100   62.3600 N   0  0  0  0  0  0  0  0  0  0  0  0
  130.4760  125.6410   61.9620 C   0  0  0  0  0  0  0  0  0  0  0  0
  130.4390  124.3500   61.7440 N   0  0  0  0  0  0  0  0  0  0  0  0
  129.1280  124.0200   61.9590 C   0  0  0  0  0  0  0  0  0  0  0  0
  128.4380  122.7950   61.8750 C   0  0  0  0  0  0  0  0  0  0  0  0
  129.1570  121.6380   61.5200 N   0  0  0  0  0  0  0  0  0  0  0  0
  130.2760  121.1240   62.0830 C   0  0  0  0  0  0  0  0  0  0  0  0
  130.8730  121.6340   63.0340 O   0  0  0  0  0  0  0  0  0  0  0  0
  130.8060  119.8560   61.4470 C   0  0  0  0  0  0  0  0  0  0  0  0
  132.0330  119.8810   60.7670 C   0  0  0  0  0  0  0  0  0  0  0  0
  132.5410  118.7250   60.1800 C   0  0  0  0  0  0  0  0  0  0  0  0
  131.8290  117.5340   60.2730 C   0  0  0  0  0  0  0  0  0  0  0  0
  130.6120  117.4870   60.9470 C   0  0  0  0  0  0  0  0  0  0  0  0
  130.1020  118.6430   61.5340 C   0  0  0  0  0  0  0  0  0  0  0  0
  127.0960  122.7650   62.1350 N   0  0  0  0  0  0  0  0  0  0  0  0
  126.4880  123.9350   62.4650 C   0  0  0  0  0  0  0  0  0  0  0  0
  127.0560  125.1650   62.5780 N   0  0  0  0  0  0  0  0  0  0  0  0
  128.3710  125.1630   62.3250 C   0  0  0  0  0  0  0  0  0  0  0  0
  130.1650  128.5570   62.3770 C   0  0  0  0  0  0  0  0  0  0  0  0
  129.4130  129.8620   62.1760 C   0  0  2  0  0  0  0  0  0  0  0  0
  129.1390  130.5120   63.4060 O   0  0  0  0  0  0  0  0  0  0  0  0
  131.4030  130.8770   59.4870 C   0  0  0  0  0  0  0  0  0  0  0  0
  131.2560  131.7150   60.6040 C   0  0  0  0  0  0  0  0  0  0  0  0
  132.3650  132.1300   61.3330 C   0  0  0  0  0  0  0  0  0  0  0  0
  133.6360  131.7120   60.9520 C   0  0  0  0  0  0  0  0  0  0  0  0
  133.8060  130.8820   59.8480 C   0  0  0  0  0  0  0  0  0  0  0  0
  132.6960  130.4680   59.1180 C   0  0  0  0  0  0  0  0  0  0  0  0
  130.0750  131.4150   57.4700 C   0  0  0  0  0  0  0  0  0  0  0  0
  131.0920  132.3570   57.2500 C   0  0  0  0  0  0  0  0  0  0  0  0
  131.0210  133.2470   56.1820 C   0  0  0  0  0  0  0  0  0  0  0  0
  129.9240  133.2100   55.3260 C   0  0  0  0  0  0  0  0  0  0  0  0
  128.8980  132.2940   55.5330 C   0  0  0  0  0  0  0  0  0  0  0  0
  128.9710  131.4050   56.6010 C   0  0  0  0  0  0  0  0  0  0  0  0
  130.9120  128.0230   59.1210 C   0  0  0  0  0  0  0  0  0  0  0  0
  130.9380  126.6610   58.8360 C   0  0  0  0  0  0  0  0  0  0  0  0
  1  2  1  0
  2  3  1  0
  3  4  2  0
  4  5  1  0
  5  6  2  0
  6  7  1  0
  7  8  1  0
  8  9  1  0
 10  9  1  6
 10 11  1  0
 11 12  1  0
 12 13  1  6
 13 14  1  0
 14 15  2  0
 15 16  1  0
 16 17  2  0
 17 18  1  0
 18 19  1  0
 19 20  2  0
 19 21  1  0
 21 22  2  0
 22 23  1  0
 23 24  2  0
 24 25  1  0
 25 26  2  0
 17 27  1  0
 27 28  2  0
 28 29  1  0
 29 30  2  0
 12 31  1  0
 31 32  1  0
 32 33  1  1
  7 34  1  0
 34 35  2  0
 35 36  1  0
 36 37  2  0
 37 38  1  0
 38 39  2  0
  7 40  1  0
 40 41  2  0
 41 42  1  0
 42 43  2  0
 43 44  1  0
 44 45  2  0
  6 46  1  0
 46 47  2  0
 47  3  1  0
 32 10  1  0
 39 34  1  0
 45 40  1  0
 30 13  1  0
 30 16  1  0
 26 21  1  0
M  END
>  <Binding energies>  (54) 
[-10.54]

>  <Ligand effiencies>  (54) 
[-0.2151020408163265]

>  <Interactions>  (54) 
["V-A:LEU:363:CA:3184, V-A:TYR:539:CZ:4876, V-A:ASP:366:CG:3212, V-A:ASN:362:C:3171, V-A:PRO:540:CB:4884, V-A:TYR:539:CE1:4874, H-A:GLU:543:OE2:4909, V-A:ASP:366:CB:3211, V-A:PRO:540:CA:4882, V-A:ILE:538:CA:4859, V-B:GLU:543:CD:9879, H-B:ALA:541:N:9862, V-B:ALA:541:CB:9863, V-B:PRO:540:CA:9854, V-B:PRO:540:C:9852, V-B:TYR:539:C:9838, V-A:LEU:475:CD2:4258, V-A:PRO:482:CG:4326, V-A:HIS:383:CE1:3393, H-B:TYR:539:O:9839, V-B:TYR:539:CD2:9845, V-B:TYR:539:CE2:9847, V-B:MET:535:CE:9806, H-B:TYR:539:OH:9849, V-B:TYR:539:CZ:9848, V-A:PRO:482:CB:4325, H-A:GLU:543:OE1:4908, V-A:ILE:538:CB:4861, V-A:ASN:362:CB:3175, V-A:PRO:540:C:4880, V-A:ASN:362:CA:3173"]

$$$$
RR8_A_Rahimova_2017
     RDKit          3D

 42 46  0  0  0  0  0  0  0  0999 V2000
  125.1020  123.2150   62.2860 O   0  0  0  0  0  0  0  0  0  0  0  0
  125.8650  123.8550   61.5540 C   0  0  0  0  0  0  0  0  0  0  0  0
  126.6390  124.9040   61.9730 O   0  0  0  0  0  0  0  0  0  0  0  0
  127.7610  124.6080   62.7590 C   0  0  1  0  0  0  0  0  0  0  0  0
  127.5340  123.5040   63.5870 O   0  0  0  0  0  0  0  0  0  0  0  0
  128.6900  122.6790   63.6990 C   0  0  2  0  0  0  0  0  0  0  0  0
  129.0410  122.5260   65.1890 C   0  0  0  0  0  0  0  0  0  0  0  0
  130.3160  123.1080   65.4210 O   0  0  0  0  0  0  0  0  0  0  0  0
  131.4060  122.2250   65.1850 C   0  0  0  0  0  0  0  0  0  0  0  0
  132.4310  122.9010   64.2870 C   0  0  0  0  0  0  0  0  0  0  0  0
  133.2450  122.1290   63.4550 C   0  0  0  0  0  0  0  0  0  0  0  0
  134.1810  122.7450   62.6270 C   0  0  0  0  0  0  0  0  0  0  0  0
  134.2970  124.1340   62.6310 C   0  0  0  0  0  0  0  0  0  0  0  0
  133.4850  124.9120   63.4530 C   0  0  0  0  0  0  0  0  0  0  0  0
  132.5490  124.2960   64.2790 C   0  0  0  0  0  0  0  0  0  0  0  0
  129.7390  123.4030   62.8440 C   0  0  1  0  0  0  0  0  0  0  0  0
  130.5680  122.5120   62.1000 O   0  0  0  0  0  0  0  0  0  0  0  0
  129.9180  121.3630   61.5700 C   0  0  0  0  0  0  0  0  0  0  0  0
  130.9460  120.2900   61.2410 C   0  0  0  0  0  0  0  0  0  0  0  0
  132.2020  120.6600   60.7490 C   0  0  0  0  0  0  0  0  0  0  0  0
  133.1440  119.6840   60.4370 C   0  0  0  0  0  0  0  0  0  0  0  0
  132.8280  118.3380   60.6150 C   0  0  0  0  0  0  0  0  0  0  0  0
  131.5780  117.9600   61.0970 C   0  0  0  0  0  0  0  0  0  0  0  0
  130.6340  118.9360   61.4080 C   0  0  0  0  0  0  0  0  0  0  0  0
  128.9010  124.1800   61.8460 C   0  0  2  0  0  0  0  0  0  0  0  0
  129.6440  125.2710   61.3080 O   0  0  0  0  0  0  0  0  0  0  0  0
  129.6690  125.3590   59.8870 C   0  0  0  0  0  0  0  0  0  0  0  0
  131.0780  125.1010   59.3760 C   0  0  0  0  0  0  0  0  0  0  0  0
  131.8770  124.1230   59.9780 C   0  0  0  0  0  0  0  0  0  0  0  0
  133.1630  123.8840   59.5000 C   0  0  0  0  0  0  0  0  0  0  0  0
  133.6460  124.6200   58.4210 C   0  0  0  0  0  0  0  0  0  0  0  0
  132.8550  125.5920   57.8130 C   0  0  0  0  0  0  0  0  0  0  0  0
  131.5680  125.8320   58.2900 C   0  0  0  0  0  0  0  0  0  0  0  0
  126.0470  123.5480   60.0960 C   0  0  0  0  0  0  0  0  0  0  0  0
  127.2510  123.0320   59.5910 C   0  0  0  0  0  0  0  0  0  0  0  0
  127.3900  122.7590   58.2330 C   0  0  0  0  0  0  0  0  0  0  0  0
  126.3310  122.9930   57.3460 C   0  0  0  0  0  0  0  0  0  0  0  0
  126.4790  122.6990   55.9000 N   0  0  0  0  0  0  0  0  0  0  0  0
  125.6710  123.1860   55.1140 O   0  0  0  0  0  0  0  0  0  0  0  0
  127.4070  121.9810   55.5370 O   0  0  0  0  0  0  0  0  0  0  0  0
  125.1310  123.5100   57.8500 C   0  0  0  0  0  0  0  0  0  0  0  0
  124.9910  123.7840   59.2070 C   0  0  0  0  0  0  0  0  0  0  0  0
  1  2  2  0
  2  3  1  0
  4  3  1  6
  4  5  1  0
  5  6  1  0
  6  7  1  1
  7  8  1  0
  8  9  1  0
  9 10  1  0
 10 11  2  0
 11 12  1  0
 12 13  2  0
 13 14  1  0
 14 15  2  0
  6 16  1  0
 16 17  1  6
 17 18  1  0
 18 19  1  0
 19 20  2  0
 20 21  1  0
 21 22  2  0
 22 23  1  0
 23 24  2  0
 16 25  1  0
 25 26  1  1
 26 27  1  0
 27 28  1  0
 28 29  2  0
 29 30  1  0
 30 31  2  0
 31 32  1  0
 32 33  2  0
  2 34  1  0
 34 35  2  0
 35 36  1  0
 36 37  2  0
 37 38  1  0
 38 39  2  0
 38 40  1  0
 37 41  1  0
 41 42  2  0
 25  4  1  0
 33 28  1  0
 42 34  1  0
 15 10  1  0
 24 19  1  0
M  CHG  2  38   1  40  -1
M  END
>  <Binding energies>  (55) 
[-11.38]

>  <Ligand effiencies>  (55) 
[-0.27095238095238094]

>  <Interactions>  (55) 
["V-A:ASP:366:CG:3212, V-A:ASP:366:CB:3211, V-B:GLU:543:CD:9879, V-B:PRO:540:N:9855, H-B:ALA:541:N:9862, H-A:TYR:484:OH:4347, V-B:ALA:541:CB:9863, V-B:PRO:540:CA:9854, V-B:ALA:541:CA:9861, V-B:TYR:539:C:9838, V-A:LEU:475:CD2:4258, V-A:ILE:369:CD1:3238, V-B:TYR:539:CD2:9845, V-A:ILE:369:CG2:3236, V-B:TYR:539:CE2:9847, V-A:SER:385:CA:3406, V-A:SER:385:CB:3408, V-A:GLY:454:CA:4048, H-B:TYR:539:N:9841, V-B:MET:535:CE:9806, V-B:TYR:539:CZ:9848, V-B:GLU:543:CG:9878, V-A:LEU:475:CD1:4257, V-B:PRO:540:CB:9856, V-A:GLY:453:C:4041, V-B:LEU:363:CD1:8159, V-B:ILE:538:CA:9831, V-A:GLY:453:CA:4043, V-A:TYR:484:CZ:4346, V-A:TYR:484:CE2:4345, H-B:TYR:531:OH:9766, V-B:MET:535:CG:9804, V-A:ILE:369:CB:3235, V-A:LEU:475:CG:4256, V-A:ASP:366:CA:3209, V-A:ASP:366:C:3207"]

$$$$
RR8_B_Rahimova_2017
     RDKit          3D

 42 46  0  0  0  0  0  0  0  0999 V2000
  128.6460  125.5260   63.3350 O   0  0  0  0  0  0  0  0  0  0  0  0
  128.4640  125.3030   62.1340 C   0  0  0  0  0  0  0  0  0  0  0  0
  127.2390  125.0910   61.5640 O   0  0  0  0  0  0  0  0  0  0  0  0
  126.6440  123.8260   61.7210 C   0  0  2  0  0  0  0  0  0  0  0  0
  126.8760  123.2940   62.9940 O   0  0  0  0  0  0  0  0  0  0  0  0
  128.0540  122.4890   63.0170 C   0  0  2  0  0  0  0  0  0  0  0  0
  129.0370  123.0480   64.0620 C   0  0  0  0  0  0  0  0  0  0  0  0
  130.0260  122.0660   64.3450 O   0  0  0  0  0  0  0  0  0  0  0  0
  131.1170  122.5250   65.1300 C   0  0  0  0  0  0  0  0  0  0  0  0
  132.2260  123.0110   64.2100 C   0  0  0  0  0  0  0  0  0  0  0  0
  132.8630  122.1090   63.3530 C   0  0  0  0  0  0  0  0  0  0  0  0
  133.8960  122.5420   62.5260 C   0  0  0  0  0  0  0  0  0  0  0  0
  134.2880  123.8790   62.5570 C   0  0  0  0  0  0  0  0  0  0  0  0
  133.6540  124.7860   63.4040 C   0  0  0  0  0  0  0  0  0  0  0  0
  132.6230  124.3520   64.2330 C   0  0  0  0  0  0  0  0  0  0  0  0
  128.5520  122.5040   61.5680 C   0  0  1  0  0  0  0  0  0  0  0  0
  129.1230  121.2350   61.2370 O   0  0  0  0  0  0  0  0  0  0  0  0
  130.5460  121.1740   61.1160 C   0  0  0  0  0  0  0  0  0  0  0  0
  131.0650  119.7390   61.1160 C   0  0  0  0  0  0  0  0  0  0  0  0
  130.2290  118.6910   61.5120 C   0  0  0  0  0  0  0  0  0  0  0  0
  130.6950  117.3800   61.4790 C   0  0  0  0  0  0  0  0  0  0  0  0
  131.9970  117.1210   61.0550 C   0  0  0  0  0  0  0  0  0  0  0  0
  132.8370  118.1610   60.6630 C   0  0  0  0  0  0  0  0  0  0  0  0
  132.3700  119.4730   60.6920 C   0  0  0  0  0  0  0  0  0  0  0  0
  127.3000  122.8320   60.7630 C   0  0  2  0  0  0  0  0  0  0  0  0
  127.6530  123.3960   59.5020 O   0  0  0  0  0  0  0  0  0  0  0  0
  126.6130  124.0840   58.8250 C   0  0  0  0  0  0  0  0  0  0  0  0
  126.3200  123.3470   57.5290 C   0  0  0  0  0  0  0  0  0  0  0  0
  127.3560  122.7470   56.8090 C   0  0  0  0  0  0  0  0  0  0  0  0
  127.0780  122.0900   55.6130 C   0  0  0  0  0  0  0  0  0  0  0  0
  125.7690  122.0370   55.1410 C   0  0  0  0  0  0  0  0  0  0  0  0
  124.7310  122.6320   55.8560 C   0  0  0  0  0  0  0  0  0  0  0  0
  125.0070  123.2880   57.0520 C   0  0  0  0  0  0  0  0  0  0  0  0
  129.5840  125.1980   61.1390 C   0  0  0  0  0  0  0  0  0  0  0  0
  130.8180  124.6220   61.4730 C   0  0  0  0  0  0  0  0  0  0  0  0
  131.8400  124.5470   60.5340 C   0  0  0  0  0  0  0  0  0  0  0  0
  131.6600  125.0540   59.2410 C   0  0  0  0  0  0  0  0  0  0  0  0
  132.7620  124.9960   58.2480 N   0  0  0  0  0  0  0  0  0  0  0  0
  133.6120  124.1180   58.3630 O   0  0  0  0  0  0  0  0  0  0  0  0
  132.7810  125.8260   57.3420 O   0  0  0  0  0  0  0  0  0  0  0  0
  130.4250  125.6240   58.9060 C   0  0  0  0  0  0  0  0  0  0  0  0
  129.3990  125.6930   59.8420 C   0  0  0  0  0  0  0  0  0  0  0  0
  1  2  2  0
  2  3  1  0
  4  3  1  1
  4  5  1  0
  5  6  1  0
  6  7  1  1
  7  8  1  0
  8  9  1  0
  9 10  1  0
 10 11  2  0
 11 12  1  0
 12 13  2  0
 13 14  1  0
 14 15  2  0
  6 16  1  0
 16 17  1  6
 17 18  1  0
 18 19  1  0
 19 20  2  0
 20 21  1  0
 21 22  2  0
 22 23  1  0
 23 24  2  0
 16 25  1  0
 25 26  1  6
 26 27  1  0
 27 28  1  0
 28 29  2  0
 29 30  1  0
 30 31  2  0
 31 32  1  0
 32 33  2  0
  2 34  1  0
 34 35  2  0
 35 36  1  0
 36 37  2  0
 37 38  1  0
 38 39  2  0
 38 40  1  0
 37 41  1  0
 41 42  2  0
 25  4  1  0
 33 28  1  0
 42 34  1  0
 15 10  1  0
 24 19  1  0
M  CHG  2  38   1  40  -1
M  END
>  <Binding energies>  (56) 
[-10.24]

>  <Ligand effiencies>  (56) 
[-0.2438095238095238]

>  <Interactions>  (56) 
["V-A:ASP:366:CG:3212, V-A:ASP:366:CB:3211, V-B:GLU:543:CD:9879, V-B:PRO:540:N:9855, H-B:ALA:541:N:9862, V-B:ALA:541:CB:9863, V-B:PRO:540:CA:9854, V-B:ALA:541:CA:9861, V-B:PRO:540:C:9852, V-B:TYR:539:C:9838, V-A:LEU:475:CD2:4258, V-A:PRO:482:CG:4326, V-A:HIS:383:CE1:3393, V-A:ILE:369:CD1:3238, V-B:TYR:539:CD2:9845, V-B:TYR:539:CE2:9847, V-A:SER:385:CA:3406, V-A:SER:385:CB:3408, V-A:GLY:454:CA:4048, V-A:THR:477:CG2:4272, V-B:MET:535:CE:9806, H-B:TYR:539:OH:9849, V-B:TYR:539:CZ:9848, V-A:PRO:482:CB:4325, V-B:GLU:543:CG:9878, V-A:LEU:475:CD1:4257, V-B:ALA:541:C:9859, V-B:PRO:540:CB:9856, V-A:GLY:453:C:4041, V-B:TYR:539:CD1:9844, V-B:TYR:531:CZ:9765, V-B:TYR:531:CE2:9764, V-B:LEU:363:CD1:8159, V-B:ILE:538:CD1:9836, V-B:ILE:538:CG2:9834, V-B:ILE:538:CA:9831, V-B:TYR:539:CE1:9846, V-B:ILE:538:CG1:9835, V-B:ILE:538:C:9829, V-B:ILE:538:CB:9833, V-A:TYR:484:CZ:4346, V-A:TYR:484:CE2:4345, V-B:MET:535:CG:9804, V-A:VAL:384:C:3396, V-A:ASP:366:CA:3209"]

$$$$
RR9_Rahimova_2017
     RDKit          3D

 36 40  0  0  0  0  0  0  0  0999 V2000
  124.6560  130.9160   55.5980 C   0  0  0  0  0  0  0  0  0  0  0  0
  125.0350  130.8330   54.1160 C   0  0  0  0  0  0  0  0  0  0  0  0
  126.4500  130.9430   53.9990 O   0  0  0  0  0  0  0  0  0  0  0  0
  127.2600  130.1280   54.7660 C   0  0  0  0  0  0  0  0  0  0  0  0
  126.9940  128.7610   54.7160 C   0  0  0  0  0  0  0  0  0  0  0  0
  127.7560  127.8630   55.4570 C   0  0  0  0  0  0  0  0  0  0  0  0
  128.8080  128.3090   56.2710 C   0  0  0  0  0  0  0  0  0  0  0  0
  129.6300  127.3460   57.0760 C   0  0  0  0  0  0  0  0  0  0  0  0
  129.1370  126.7630   58.2540 C   0  0  0  0  0  0  0  0  0  0  0  0
  129.9060  125.8510   58.9980 C   0  0  0  0  0  0  0  0  0  0  0  0
  129.2850  125.1850   60.1950 C   0  0  0  0  0  0  0  0  0  0  0  0
  129.9840  124.8310   61.1450 O   0  0  0  0  0  0  0  0  0  0  0  0
  127.9520  124.9920   60.1320 N   0  0  0  0  0  0  0  0  0  0  0  0
  127.1430  124.2530   61.1070 C   0  0  0  0  0  0  0  0  0  0  0  0
  125.9520  123.5060   60.4630 C   0  0  0  0  0  0  0  0  0  0  0  0
  126.0920  123.2550   58.9660 C   0  0  0  0  0  0  0  0  0  0  0  0
  127.2900  122.7550   58.4470 C   0  0  0  0  0  0  0  0  0  0  0  0
  127.4030  122.4940   57.0840 C   0  0  0  0  0  0  0  0  0  0  0  0
  126.3190  122.7380   56.2430 C   0  0  0  0  0  0  0  0  0  0  0  0
  125.1230  123.2400   56.7530 C   0  0  0  0  0  0  0  0  0  0  0  0
  125.0090  123.5000   58.1160 C   0  0  0  0  0  0  0  0  0  0  0  0
  131.2090  125.5850   58.5100 C   0  0  0  0  0  0  0  0  0  0  0  0
  132.3700  124.8080   58.8770 C   0  0  0  0  0  0  0  0  0  0  0  0
  132.6110  123.9810   60.0960 C   0  0  0  0  0  0  0  0  0  0  0  0
  131.8410  122.8400   60.3370 C   0  0  0  0  0  0  0  0  0  0  0  0
  132.0560  122.0790   61.4830 C   0  0  0  0  0  0  0  0  0  0  0  0
  133.0470  122.4560   62.3920 C   0  0  0  0  0  0  0  0  0  0  0  0
  133.2700  121.6370   63.6510 C   0  0  0  0  0  0  0  0  0  0  0  0
  133.8170  123.5960   62.1570 C   0  0  0  0  0  0  0  0  0  0  0  0
  133.6010  124.3530   61.0090 C   0  0  0  0  0  0  0  0  0  0  0  0
  133.3060  124.9180   57.9610 N   0  0  0  0  0  0  0  0  0  0  0  0
  132.8690  125.7720   57.0230 N   0  0  0  0  0  0  0  0  0  0  0  0
  131.6020  126.2220   57.3080 C   0  0  0  0  0  0  0  0  0  0  0  0
  130.8750  127.0790   56.5920 N   0  0  0  0  0  0  0  0  0  0  0  0
  129.0680  129.6860   56.3180 C   0  0  0  0  0  0  0  0  0  0  0  0
  128.3070  130.5870   55.5760 C   0  0  0  0  0  0  0  0  0  0  0  0
  1  2  1  0
  2  3  1  0
  3  4  1  0
  4  5  2  0
  5  6  1  0
  6  7  2  0
  7  8  1  0
  8  9  2  0
  9 10  1  0
 10 11  1  0
 11 12  2  0
 11 13  1  0
 13 14  1  0
 14 15  1  0
 15 16  1  0
 16 17  2  0
 17 18  1  0
 18 19  2  0
 19 20  1  0
 20 21  2  0
 10 22  2  0
 22 23  1  0
 23 24  1  0
 24 25  2  0
 25 26  1  0
 26 27  2  0
 27 28  1  0
 27 29  1  0
 29 30  2  0
 23 31  2  0
 31 32  1  0
 32 33  1  0
 33 34  2  0
  7 35  1  0
 35 36  2  0
 36  4  1  0
 34  8  1  0
 21 16  1  0
 33 22  1  0
 30 24  1  0
M  END
>  <Binding energies>  (57) 
[-9.27]

>  <Ligand effiencies>  (57) 
[-0.2439473684210526]

>  <Interactions>  (57) 
["V-A:ASP:366:CG:3212, V-A:ASP:366:CB:3211, H-A:TYR:531:OH:4794, V-B:PRO:540:N:9855, V-B:PRO:540:CA:9854, V-B:TYR:539:C:9838, V-A:LEU:475:CD2:4258, V-A:ILE:369:CD1:3238, V-B:TYR:539:CD2:9845, V-B:TYR:539:CE2:9847, V-A:GLY:454:CA:4048, V-B:TYR:539:CG:9843, V-B:MET:535:CE:9806, H-B:TYR:539:OH:9849, V-B:TYR:539:CZ:9848, V-B:PRO:540:CB:9856, V-B:TYR:539:CA:9840, V-B:TYR:539:CD1:9844, V-B:TYR:531:CZ:9765, V-B:TYR:531:CE2:9764, V-B:LEU:363:CD1:8159, V-A:MET:535:CE:4834, H-A:ASP:366:O:3208, V-A:TYR:531:CE1:4791, V-B:TYR:531:CE1:9763, H-A:TYR:539:OH:4877, V-A:ASP:366:CA:3209, V-A:ASP:366:C:3207, V-A:ASN:370:CB:3244, V-B:ASN:370:CB:8215, H-B:LYS:534:NZ:9794, V-B:ASN:370:CG:8216, V-B:TYR:531:CD1:9761"]

$$$$
1a_Ghoteimi_2023
     RDKit          3D

 40 43  0  0  0  0  0  0  0  0999 V2000
  131.2370  128.7650   73.1280 C   0  0  0  0  0  0  0  0  0  0  0  0
  129.8860  128.6250   73.8360 C   0  0  0  0  0  0  0  0  0  0  0  0
  129.3430  127.3390   73.5640 O   0  0  0  0  0  0  0  0  0  0  0  0
  128.2970  127.1850   72.7120 C   0  0  0  0  0  0  0  0  0  0  0  0
  127.1160  127.2030   73.0740 O   0  0  0  0  0  0  0  0  0  0  0  0
  128.7190  126.9960   71.2840 C   0  0  0  0  0  0  0  0  0  0  0  0
  128.7190  125.7340   70.6710 C   0  0  0  0  0  0  0  0  0  0  0  0
  129.1190  125.5890   69.3450 C   0  0  0  0  0  0  0  0  0  0  0  0
  129.5230  126.7100   68.6040 C   0  0  0  0  0  0  0  0  0  0  0  0
  129.9500  126.6780   67.2630 N   0  0  0  0  0  0  0  0  0  0  0  0
  131.1820  126.4620   66.7520 C   0  0  0  0  0  0  0  0  0  0  0  0
  132.1980  126.2270   67.4060 O   0  0  0  0  0  0  0  0  0  0  0  0
  131.2790  126.5150   65.2270 C   0  0  0  0  0  0  0  0  0  0  0  0
  132.7160  125.5890   64.6120 S   0  0  0  0  0  0  0  0  0  0  0  0
  132.1770  124.7620   63.1340 C   0  0  0  0  0  0  0  0  0  0  0  0
  131.7970  125.6020   62.1410 N   0  0  0  0  0  0  0  0  0  0  0  0
  131.3680  125.0960   60.9550 C   0  0  0  0  0  0  0  0  0  0  0  0
  130.9850  126.0910   59.8990 C   0  0  0  0  0  0  0  0  0  0  0  0
  130.2080  127.2200   60.2070 C   0  0  0  0  0  0  0  0  0  0  0  0
  129.8550  128.1420   59.2250 C   0  0  0  0  0  0  0  0  0  0  0  0
  130.2650  127.9640   57.9060 C   0  0  0  0  0  0  0  0  0  0  0  0
  129.8700  128.9300   56.9990 O   0  0  0  0  0  0  0  0  0  0  0  0
  129.4500  130.2020   57.4790 C   0  0  0  0  0  0  0  0  0  0  0  0
  131.0370  126.8400   57.5810 C   0  0  0  0  0  0  0  0  0  0  0  0
  131.3880  125.9210   58.5650 C   0  0  0  0  0  0  0  0  0  0  0  0
  131.3120  123.7120   60.7500 C   0  0  0  0  0  0  0  0  0  0  0  0
  131.6760  122.8230   61.7700 C   0  0  0  0  0  0  0  0  0  0  0  0
  131.5610  121.3600   61.4910 C   0  0  0  0  0  0  0  0  0  0  0  0
  132.6280  120.6510   60.9280 C   0  0  0  0  0  0  0  0  0  0  0  0
  132.5180  119.2850   60.6840 C   0  0  0  0  0  0  0  0  0  0  0  0
  131.3460  118.5990   61.0040 C   0  0  0  0  0  0  0  0  0  0  0  0
  131.3290  117.2460   60.7280 O   0  0  0  0  0  0  0  0  0  0  0  0
  130.2430  116.7030   59.9860 C   0  0  0  0  0  0  0  0  0  0  0  0
  130.2770  119.3050   61.5770 C   0  0  0  0  0  0  0  0  0  0  0  0
  130.3890  120.6720   61.8190 C   0  0  0  0  0  0  0  0  0  0  0  0
  132.1270  123.3580   63.0010 C   0  0  0  0  0  0  0  0  0  0  0  0
  132.5350  122.4780   64.1010 C   0  0  0  0  0  0  0  0  0  0  0  0
  132.8580  121.7820   64.9680 N   0  0  0  0  0  0  0  0  0  0  0  0
  129.5280  127.9650   69.2120 C   0  0  0  0  0  0  0  0  0  0  0  0
  129.1280  128.1090   70.5390 C   0  0  0  0  0  0  0  0  0  0  0  0
  1  2  1  0
  2  3  1  0
  3  4  1  0
  4  5  2  0
  4  6  1  0
  6  7  2  0
  7  8  1  0
  8  9  2  0
  9 10  1  0
 10 11  1  0
 11 12  2  0
 11 13  1  0
 13 14  1  0
 14 15  1  0
 15 16  2  0
 16 17  1  0
 17 18  1  0
 18 19  2  0
 19 20  1  0
 20 21  2  0
 21 22  1  0
 22 23  1  0
 21 24  1  0
 24 25  2  0
 17 26  2  0
 26 27  1  0
 27 28  1  0
 28 29  2  0
 29 30  1  0
 30 31  2  0
 31 32  1  0
 32 33  1  0
 31 34  1  0
 34 35  2  0
 27 36  2  0
 36 37  1  0
 37 38  3  0
  9 39  1  0
 39 40  2  0
 40  6  1  0
 36 15  1  0
 25 18  1  0
 35 28  1  0
M  END
>  <Binding energies>  (58) 
[-7.92]

>  <Ligand effiencies>  (58) 
[-0.19317073170731708]

>  <Interactions>  (58) 
["V-A:ASP:366:CG:3212, V-A:ASP:366:CB:3211, H-A:TYR:531:OH:4794, V-B:GLU:543:CD:9879, H-A:TYR:484:OH:4347, V-B:ALA:541:CB:9863, H-B:GLU:543:OE2:9881, V-A:LEU:475:CD2:4258, V-A:PRO:482:CG:4326, V-A:HIS:383:CE1:3393, V-B:TYR:539:CD2:9845, V-A:ILE:369:CG2:3236, V-B:TYR:539:CE2:9847, V-B:TYR:539:CB:9842, V-A:SER:385:CA:3406, V-A:GLY:454:CA:4048, V-B:VAL:344:CG1:7971, H-A:HIS:383:ND1:3390, H-A:GLY:454:N:4049, V-A:HIS:456:CE1:4069, V-B:GLU:543:CB:9877, V-A:GLU:543:CD:4907, V-B:HIS:456:CE1:9040, V-B:GLU:543:C:9873, V-A:GLY:544:C:4911, V-A:GLY:544:CA:4913, H-A:ARG:545:NH2:4927, V-A:TYR:484:CE2:4345, V-B:GLU:543:CA:9875"]

$$$$
1b_Ghoteimi_2023
     RDKit          3D

 34 37  0  0  0  0  0  0  0  0999 V2000
  129.8730  125.8930   68.1400 C   0  0  0  0  0  0  0  0  0  0  0  0
  130.2490  127.1280   67.5420 O   0  0  0  0  0  0  0  0  0  0  0  0
  130.2500  127.2370   66.1650 C   0  0  0  0  0  0  0  0  0  0  0  0
  131.2040  126.4860   65.4800 C   0  0  0  0  0  0  0  0  0  0  0  0
  131.2810  126.5330   64.0910 C   0  0  0  0  0  0  0  0  0  0  0  0
  130.4030  127.3310   63.3430 C   0  0  0  0  0  0  0  0  0  0  0  0
  130.4900  127.3810   61.8430 C   0  0  0  0  0  0  0  0  0  0  0  0
  130.5240  128.5790   61.1220 C   0  0  0  0  0  0  0  0  0  0  0  0
  130.6100  128.5710   59.7240 C   0  0  0  0  0  0  0  0  0  0  0  0
  130.6360  129.8870   59.0200 C   0  0  0  0  0  0  0  0  0  0  0  0
  129.4590  130.4330   58.5000 C   0  0  0  0  0  0  0  0  0  0  0  0
  129.4800  131.6560   57.8350 C   0  0  0  0  0  0  0  0  0  0  0  0
  130.6760  132.3550   57.6740 C   0  0  0  0  0  0  0  0  0  0  0  0
  130.6010  133.5600   57.0010 O   0  0  0  0  0  0  0  0  0  0  0  0
  130.3120  133.5590   55.6070 C   0  0  0  0  0  0  0  0  0  0  0  0
  131.8620  131.8070   58.1870 C   0  0  0  0  0  0  0  0  0  0  0  0
  131.8370  130.5840   58.8500 C   0  0  0  0  0  0  0  0  0  0  0  0
  130.6750  127.3210   59.0600 C   0  0  0  0  0  0  0  0  0  0  0  0
  130.8620  127.2590   57.6070 C   0  0  0  0  0  0  0  0  0  0  0  0
  131.0100  127.2110   56.4600 N   0  0  0  0  0  0  0  0  0  0  0  0
  130.6160  126.1490   59.8460 C   0  0  0  0  0  0  0  0  0  0  0  0
  130.6750  124.4960   59.1850 S   0  0  0  0  0  0  0  0  0  0  0  0
  129.5170  123.4650   60.1460 C   0  0  0  0  0  0  0  0  0  0  0  0
  128.1940  123.1400   59.4370 C   0  0  0  0  0  0  0  0  0  0  0  0
  127.1500  123.0150   60.0800 O   0  0  0  0  0  0  0  0  0  0  0  0
  128.2920  123.0080   58.0950 N   0  0  0  0  0  0  0  0  0  0  0  0
  127.2670  122.7190   57.2020 C   0  0  0  0  0  0  0  0  0  0  0  0
  125.9570  123.1620   57.3780 C   0  0  0  0  0  0  0  0  0  0  0  0
  125.2650  122.6710   56.2940 C   0  0  0  0  0  0  0  0  0  0  0  0
  126.1150  121.9720   55.5050 O   0  0  0  0  0  0  0  0  0  0  0  0
  127.3810  122.0100   56.0910 N   0  0  0  0  0  0  0  0  0  0  0  0
  130.5460  126.1860   61.1990 N   0  0  0  0  0  0  0  0  0  0  0  0
  129.4470  128.0840   64.0430 C   0  0  0  0  0  0  0  0  0  0  0  0
  129.3670  128.0410   65.4310 C   0  0  0  0  0  0  0  0  0  0  0  0
  1  2  1  0
  2  3  1  0
  3  4  2  0
  4  5  1  0
  5  6  2  0
  6  7  1  0
  7  8  2  0
  8  9  1  0
  9 10  1  0
 10 11  2  0
 11 12  1  0
 12 13  2  0
 13 14  1  0
 14 15  1  0
 13 16  1  0
 16 17  2  0
  9 18  2  0
 18 19  1  0
 19 20  3  0
 18 21  1  0
 21 22  1  0
 22 23  1  0
 23 24  1  0
 24 25  2  0
 24 26  1  0
 26 27  1  0
 27 28  1  0
 28 29  2  0
 29 30  1  0
 30 31  1  0
 21 32  2  0
  6 33  1  0
 33 34  2  0
 34  3  1  0
 32  7  1  0
 17 10  1  0
 31 27  2  0
M  END
>  <Binding energies>  (59) 
[-8.63]

>  <Ligand effiencies>  (59) 
[-0.24657142857142858]

>  <Interactions>  (59) 
["H-A:TYR:531:OH:4794, V-A:ILE:538:CA:4859, V-B:GLU:543:CD:9879, V-B:PRO:540:N:9855, V-B:PRO:540:CA:9854, V-B:TYR:539:C:9838, V-B:TYR:539:CD2:9845, V-B:TYR:539:CE2:9847, H-B:TYR:539:N:9841, V-B:TYR:539:CG:9843, V-B:MET:535:CE:9806, H-B:TYR:539:OH:9849, V-B:TYR:539:CZ:9848, V-B:PRO:540:CB:9856, V-B:PRO:540:CD:9858, V-B:TYR:531:CE2:9764, V-B:LEU:363:CD1:8159, V-A:HIS:456:CE1:4069, V-B:GLU:543:CB:9877, V-A:GLU:543:CD:4907, V-A:ILE:538:CB:4861, V-A:ILE:538:CG2:4862, V-A:TYR:484:CE2:4345, H-A:TYR:539:N:4869, V-A:ILE:538:C:4857"]

$$$$
1c_Ghoteimi_2023
     RDKit          3D

 34 37  0  0  0  0  0  0  0  0999 V2000
  128.9020  127.4820   55.4990 C   0  0  0  0  0  0  0  0  0  0  0  0
  130.2490  127.5690   55.9520 O   0  0  0  0  0  0  0  0  0  0  0  0
  130.6360  126.8430   57.0620 C   0  0  0  0  0  0  0  0  0  0  0  0
  129.7630  126.8450   58.1470 C   0  0  0  0  0  0  0  0  0  0  0  0
  130.0750  126.1430   59.3080 C   0  0  0  0  0  0  0  0  0  0  0  0
  131.2710  125.4170   59.4190 C   0  0  0  0  0  0  0  0  0  0  0  0
  131.6130  124.6620   60.6710 C   0  0  0  0  0  0  0  0  0  0  0  0
  131.6630  125.2690   61.9300 C   0  0  0  0  0  0  0  0  0  0  0  0
  131.9600  124.5180   63.0740 C   0  0  0  0  0  0  0  0  0  0  0  0
  131.9300  125.2180   64.3930 C   0  0  0  0  0  0  0  0  0  0  0  0
  133.1140  125.4720   65.0900 C   0  0  0  0  0  0  0  0  0  0  0  0
  133.0820  126.1050   66.3290 C   0  0  0  0  0  0  0  0  0  0  0  0
  131.8680  126.4900   66.8960 C   0  0  0  0  0  0  0  0  0  0  0  0
  131.9320  127.1120   68.1290 O   0  0  0  0  0  0  0  0  0  0  0  0
  130.8790  127.9860   68.5220 C   0  0  0  0  0  0  0  0  0  0  0  0
  130.6760  126.2300   66.2020 C   0  0  0  0  0  0  0  0  0  0  0  0
  130.7100  125.5970   64.9630 C   0  0  0  0  0  0  0  0  0  0  0  0
  132.2370  123.1390   62.9210 C   0  0  0  0  0  0  0  0  0  0  0  0
  132.5880  122.3050   64.0750 C   0  0  0  0  0  0  0  0  0  0  0  0
  132.8640  121.6480   64.9870 N   0  0  0  0  0  0  0  0  0  0  0  0
  132.1520  122.5880   61.6250 C   0  0  0  0  0  0  0  0  0  0  0  0
  132.3080  120.8440   61.3100 S   0  0  0  0  0  0  0  0  0  0  0  0
  130.6910  120.1410   61.7700 C   0  0  0  0  0  0  0  0  0  0  0  0
  129.6750  121.2250   62.1480 C   0  0  0  0  0  0  0  0  0  0  0  0
  129.6720  121.6830   63.2910 O   0  0  0  0  0  0  0  0  0  0  0  0
  128.8670  121.6310   61.1440 N   0  0  0  0  0  0  0  0  0  0  0  0
  127.9770  122.6930   61.1760 C   0  0  0  0  0  0  0  0  0  0  0  0
  127.2440  123.1020   62.1900 N   0  0  0  0  0  0  0  0  0  0  0  0
  126.5390  124.1710   61.8750 C   0  0  0  0  0  0  0  0  0  0  0  0
  126.6950  124.6520   60.5790 C   0  0  0  0  0  0  0  0  0  0  0  0
  127.8270  123.6410   59.7320 S   0  0  0  0  0  0  0  0  0  0  0  0
  131.8400  123.3290   60.5350 N   0  0  0  0  0  0  0  0  0  0  0  0
  132.1400  125.4160   58.3180 C   0  0  0  0  0  0  0  0  0  0  0  0
  131.8330  126.1180   57.1560 C   0  0  0  0  0  0  0  0  0  0  0  0
  1  2  1  0
  2  3  1  0
  3  4  2  0
  4  5  1  0
  5  6  2  0
  6  7  1  0
  7  8  2  0
  8  9  1  0
  9 10  1  0
 10 11  2  0
 11 12  1  0
 12 13  2  0
 13 14  1  0
 14 15  1  0
 13 16  1  0
 16 17  2  0
  9 18  2  0
 18 19  1  0
 19 20  3  0
 18 21  1  0
 21 22  1  0
 22 23  1  0
 23 24  1  0
 24 25  2  0
 24 26  1  0
 26 27  1  0
 27 28  2  0
 28 29  1  0
 29 30  2  0
 30 31  1  0
 21 32  2  0
  6 33  1  0
 33 34  2  0
 34  3  1  0
 32  7  1  0
 17 10  1  0
 31 27  1  0
M  END
>  <Binding energies>  (60) 
[-7.53]

>  <Ligand effiencies>  (60) 
[-0.21514285714285716]

>  <Interactions>  (60) 
["V-A:ASP:366:CG:3212, V-A:ASP:366:CB:3211, H-A:TYR:531:OH:4794, H-B:ALA:541:N:9862, H-A:TYR:484:OH:4347, V-B:ALA:541:CB:9863, V-B:PRO:540:CA:9854, V-B:PRO:540:C:9852, V-B:TYR:539:C:9838, V-A:LEU:475:CD2:4258, H-B:TYR:539:O:9839, V-B:TYR:539:CD2:9845, V-B:TYR:539:CE2:9847, V-A:GLY:454:CA:4048, V-B:MET:535:CE:9806, V-B:TYR:539:CZ:9848, H-A:GLY:454:N:4049, V-A:ARG:545:CD:4922, V-A:ARG:545:CZ:4925, V-A:ARG:545:CG:4921, V-A:HIS:456:CE1:4069, V-A:GLU:543:CD:4907, V-A:GLU:543:CB:4905, V-A:MET:535:CE:4834"]

$$$$
1d_Ghoteimi_2023
     RDKit          3D

 30 32  0  0  0  0  0  0  0  0999 V2000
  124.6350  129.5240   64.1540 C   0  0  0  0  0  0  0  0  0  0  0  0
  123.8600  129.9430   65.2670 O   0  0  0  0  0  0  0  0  0  0  0  0
  124.1610  129.5160   66.5110 C   0  0  0  0  0  0  0  0  0  0  0  0
  123.5450  129.7850   67.5430 O   0  0  0  0  0  0  0  0  0  0  0  0
  125.4020  128.6260   66.5340 C   0  0  0  0  0  0  0  0  0  0  0  0
  126.8240  129.6820   66.9440 S   0  0  0  0  0  0  0  0  0  0  0  0
  128.1400  128.6030   67.4630 C   0  0  0  0  0  0  0  0  0  0  0  0
  128.1730  128.3860   68.7990 N   0  0  0  0  0  0  0  0  0  0  0  0
  129.1300  127.5850   69.3330 C   0  0  0  0  0  0  0  0  0  0  0  0
  129.0930  127.3920   70.8210 C   0  0  0  0  0  0  0  0  0  0  0  0
  129.7250  128.2960   71.6890 C   0  0  0  0  0  0  0  0  0  0  0  0
  129.6950  128.1130   73.0680 C   0  0  0  0  0  0  0  0  0  0  0  0
  129.0340  127.0200   73.6230 C   0  0  0  0  0  0  0  0  0  0  0  0
  129.0590  126.9160   75.0010 O   0  0  0  0  0  0  0  0  0  0  0  0
  130.3040  127.0250   75.6820 C   0  0  0  0  0  0  0  0  0  0  0  0
  128.3980  126.1080   72.7700 C   0  0  0  0  0  0  0  0  0  0  0  0
  128.4290  126.2950   71.3910 C   0  0  0  0  0  0  0  0  0  0  0  0
  130.0820  126.9680   68.5120 C   0  0  0  0  0  0  0  0  0  0  0  0
  130.0810  127.1860   67.1290 C   0  0  0  0  0  0  0  0  0  0  0  0
  131.1300  126.5020   66.3130 C   0  0  0  0  0  0  0  0  0  0  0  0
  130.7880  125.8710   65.1130 C   0  0  0  0  0  0  0  0  0  0  0  0
  131.7600  125.2320   64.3480 C   0  0  0  0  0  0  0  0  0  0  0  0
  133.0910  125.2160   64.7620 C   0  0  0  0  0  0  0  0  0  0  0  0
  133.9850  124.5530   63.9440 O   0  0  0  0  0  0  0  0  0  0  0  0
  133.7810  124.5680   62.5350 C   0  0  0  0  0  0  0  0  0  0  0  0
  133.4410  125.8590   65.9590 C   0  0  0  0  0  0  0  0  0  0  0  0
  132.4680  126.4980   66.7220 C   0  0  0  0  0  0  0  0  0  0  0  0
  129.0950  128.0450   66.5820 C   0  0  0  0  0  0  0  0  0  0  0  0
  129.1100  128.3910   65.1580 C   0  0  0  0  0  0  0  0  0  0  0  0
  129.1230  128.6640   64.0330 N   0  0  0  0  0  0  0  0  0  0  0  0
  1  2  1  0
  2  3  1  0
  3  4  2  0
  3  5  1  0
  5  6  1  0
  6  7  1  0
  7  8  2  0
  8  9  1  0
  9 10  1  0
 10 11  2  0
 11 12  1  0
 12 13  2  0
 13 14  1  0
 14 15  1  0
 13 16  1  0
 16 17  2  0
  9 18  2  0
 18 19  1  0
 19 20  1  0
 20 21  2  0
 21 22  1  0
 22 23  2  0
 23 24  1  0
 24 25  1  0
 23 26  1  0
 26 27  2  0
 19 28  2  0
 28 29  1  0
 29 30  3  0
 28  7  1  0
 17 10  1  0
 27 20  1  0
M  END
>  <Binding energies>  (61) 
[-7.75]

>  <Ligand effiencies>  (61) 
[-0.25833333333333336]

>  <Interactions>  (61) 
["V-A:ASP:366:CG:3212, V-B:GLU:543:CD:9879, V-A:ILE:369:CD1:3238, H-A:GLY:454:N:4049, V-A:ARG:545:CD:4922, V-A:ARG:545:CZ:4925, V-A:ARG:545:CG:4921, V-A:HIS:456:CE1:4069, V-A:GLU:543:CD:4907, V-B:HIS:456:CE1:9040, H-B:LYS:547:NZ:9922, V-B:ARG:545:CD:9894, V-A:GLU:543:CG:4906, V-B:ARG:545:CG:9893, H-B:TYR:484:OH:9318, V-B:ARG:545:CZ:9897, H-B:GLY:454:N:9020, H-B:ILE:455:N:9025"]

$$$$
1j_Grossjean_2025
     RDKit          3D

 20 21  0  0  0  0  0  0  0  0999 V2000
  129.7840  116.6230   60.7590 C   0  0  0  0  0  0  0  0  0  0  0  0
  130.6740  117.8520   60.7350 C   0  0  0  0  0  0  0  0  0  0  0  0
  131.8940  117.8560   60.0620 C   0  0  0  0  0  0  0  0  0  0  0  0
  132.6650  119.0220   60.0620 C   0  0  0  0  0  0  0  0  0  0  0  0
  133.9910  119.0080   59.3030 C   0  0  0  0  0  0  0  0  0  0  0  0
  132.1940  120.1630   60.7510 C   0  0  0  0  0  0  0  0  0  0  0  0
  132.9610  121.4110   60.7210 C   0  0  0  0  0  0  0  0  0  0  0  0
  133.5690  122.3950   60.6940 N   0  0  0  0  0  0  0  0  0  0  0  0
  130.9570  120.0600   61.4300 C   0  0  0  0  0  0  0  0  0  0  0  0
  130.2150  121.3920   62.3470 S   0  0  0  0  0  0  0  0  0  0  0  0
  129.9160  122.7610   61.1890 C   0  0  0  0  0  0  0  0  0  0  0  0
  128.5620  122.6350   60.4890 C   0  0  0  0  0  0  0  0  0  0  0  0
  127.5570  122.3870   61.1570 O   0  0  0  0  0  0  0  0  0  0  0  0
  128.5790  122.8140   59.1500 N   0  0  0  0  0  0  0  0  0  0  0  0
  127.4910  122.7450   58.2910 C   0  0  0  0  0  0  0  0  0  0  0  0
  127.3690  122.0180   57.2010 N   0  0  0  0  0  0  0  0  0  0  0  0
  126.1960  122.1990   56.6280 C   0  0  0  0  0  0  0  0  0  0  0  0
  125.3330  123.0900   57.2600 C   0  0  0  0  0  0  0  0  0  0  0  0
  126.1110  123.7190   58.6810 S   0  0  0  0  0  0  0  0  0  0  0  0
  130.2050  118.9310   61.4050 N   0  0  0  0  0  0  0  0  0  0  0  0
  1  2  1  0
  2  3  2  0
  3  4  1  0
  4  5  1  0
  4  6  2  0
  6  7  1  0
  7  8  3  0
  6  9  1  0
  9 10  1  0
 10 11  1  0
 11 12  1  0
 12 13  2  0
 12 14  1  0
 14 15  1  0
 15 16  2  0
 16 17  1  0
 17 18  2  0
 18 19  1  0
  9 20  2  0
 20  2  1  0
 19 15  1  0
M  END
>  <Binding energies>  (62) 
[-7.3]

>  <Ligand effiencies>  (62) 
[-0.3476190476190476]

>  <Interactions>  (62) 
["V-B:PRO:540:N:9855, H-B:ALA:541:N:9862, V-B:PRO:540:CA:9854, V-B:TYR:539:C:9838, V-A:LEU:475:CD2:4258, V-A:PRO:482:CG:4326, V-A:HIS:383:CE1:3393, V-B:TYR:539:CD2:9845, V-A:ILE:369:CG2:3236, V-B:TYR:539:CE2:9847, V-B:TYR:539:CB:9842, V-A:SER:385:CA:3406, H-B:TYR:539:N:9841, V-B:VAL:344:CG1:7971, V-A:PRO:482:CB:4325, V-B:PRO:540:CB:9856, V-B:PRO:540:CD:9858, V-B:LEU:363:CD1:8159, V-B:ILE:538:CA:9831, V-A:LEU:373:CG:3278, V-A:LEU:373:CD2:3280, V-A:VAL:384:C:3396"]

$$$$
1o_Grossjean_2025
     RDKit          3D

 26 27  0  0  0  0  0  0  0  0999 V2000
  125.8990  122.0190   55.5110 C   0  0  0  0  0  0  0  0  0  0  0  0
  126.0880  123.2160   56.2530 O   0  0  0  0  0  0  0  0  0  0  0  0
  125.5250  123.3740   57.4790 C   0  0  0  0  0  0  0  0  0  0  0  0
  124.3110  123.5100   57.6580 O   0  0  0  0  0  0  0  0  0  0  0  0
  126.5270  123.3640   58.5980 C   0  0  0  0  0  0  0  0  0  0  0  0
  127.8260  122.8650   58.4270 C   0  0  0  0  0  0  0  0  0  0  0  0
  128.7320  122.8730   59.4850 C   0  0  0  0  0  0  0  0  0  0  0  0
  128.3570  123.3720   60.7330 C   0  0  0  0  0  0  0  0  0  0  0  0
  129.3530  123.3410   61.7290 N   0  0  0  0  0  0  0  0  0  0  0  0
  129.9840  122.2850   62.2890 C   0  0  0  0  0  0  0  0  0  0  0  0
  129.8150  121.1070   61.9720 O   0  0  0  0  0  0  0  0  0  0  0  0
  131.0070  122.6290   63.3820 C   0  0  0  0  0  0  0  0  0  0  0  0
  132.4290  122.8640   62.8350 C   0  0  0  0  0  0  0  0  0  0  0  0
  132.8970  124.6160   62.7220 S   0  0  0  0  0  0  0  0  0  0  0  0
  132.6960  125.3590   64.3290 C   0  0  0  0  0  0  0  0  0  0  0  0
  133.8130  125.2940   65.0970 N   0  0  0  0  0  0  0  0  0  0  0  0
  133.7830  125.8340   66.3380 C   0  0  0  0  0  0  0  0  0  0  0  0
  135.0730  125.7370   67.1310 C   0  0  0  0  0  0  0  0  0  0  0  0
  132.6460  126.4430   66.8640 C   0  0  0  0  0  0  0  0  0  0  0  0
  131.4810  126.4920   66.0920 C   0  0  0  0  0  0  0  0  0  0  0  0
  130.2440  127.1530   66.6970 C   0  0  0  0  0  0  0  0  0  0  0  0
  131.4880  125.9310   64.7940 C   0  0  0  0  0  0  0  0  0  0  0  0
  130.2610  125.9210   63.9940 C   0  0  0  0  0  0  0  0  0  0  0  0
  129.2910  125.9150   63.3630 N   0  0  0  0  0  0  0  0  0  0  0  0
  127.0610  123.8780   60.9100 C   0  0  0  0  0  0  0  0  0  0  0  0
  126.1570  123.8700   59.8510 C   0  0  0  0  0  0  0  0  0  0  0  0
  1  2  1  0
  2  3  1  0
  3  4  2  0
  3  5  1  0
  5  6  2  0
  6  7  1  0
  7  8  2  0
  8  9  1  0
  9 10  1  0
 10 11  2  0
 10 12  1  0
 12 13  1  0
 13 14  1  0
 14 15  1  0
 15 16  2  0
 16 17  1  0
 17 18  1  0
 17 19  2  0
 19 20  1  0
 20 21  1  0
 20 22  2  0
 22 23  1  0
 23 24  3  0
  8 25  1  0
 25 26  2  0
 26  5  1  0
 22 15  1  0
M  END
>  <Binding energies>  (63) 
[-7.24]

>  <Ligand effiencies>  (63) 
[-0.26814814814814814]

>  <Interactions>  (63) 
["V-B:PRO:540:N:9855, H-A:TYR:484:OH:4347, V-B:ALA:541:CB:9863, V-B:PRO:540:CA:9854, V-B:TYR:539:C:9838, V-A:LEU:475:CD2:4258, V-B:TYR:539:CD2:9845, V-B:TYR:539:CE2:9847, V-A:GLY:454:CA:4048, V-B:MET:535:CE:9806, V-B:PRO:540:CB:9856, H-A:GLY:454:N:4049, V-A:GLY:453:C:4041, V-A:ARG:545:CD:4922, V-B:PRO:540:CD:9858, V-A:ARG:545:CZ:4925, V-B:ILE:538:CD1:9836, V-A:ARG:545:CG:4921, V-A:HIS:456:CE1:4069, V-B:ILE:538:CG2:9834, V-A:GLU:543:CD:4907, V-B:ILE:538:CA:9831, V-A:GLY:453:CA:4043, V-B:ILE:538:C:9829, V-B:ILE:538:CB:9833, H-B:TYR:531:OH:9766, V-B:MET:535:CG:9804, V-A:ILE:455:C:4051, V-A:ARG:545:CB:4920"]

$$$$
1p_Grossjean_2025
     RDKit          3D

 21 22  0  0  0  0  0  0  0  0999 V2000
  129.8850  116.8690   60.7510 C   0  0  0  0  0  0  0  0  0  0  0  0
  130.7410  118.1140   60.8890 C   0  0  0  0  0  0  0  0  0  0  0  0
  132.0380  118.1650   60.3820 C   0  0  0  0  0  0  0  0  0  0  0  0
  132.7870  119.3350   60.5490 C   0  0  0  0  0  0  0  0  0  0  0  0
  134.2120  119.3650   59.9990 C   0  0  0  0  0  0  0  0  0  0  0  0
  132.2080  120.4370   61.2190 C   0  0  0  0  0  0  0  0  0  0  0  0
  132.9870  121.6540   61.4490 C   0  0  0  0  0  0  0  0  0  0  0  0
  133.6040  122.6170   61.6310 N   0  0  0  0  0  0  0  0  0  0  0  0
  130.8770  120.3030   61.6810 C   0  0  0  0  0  0  0  0  0  0  0  0
  129.9960  121.5920   62.5330 S   0  0  0  0  0  0  0  0  0  0  0  0
  128.7680  122.2490   61.3670 C   0  0  0  0  0  0  0  0  0  0  0  0
  129.2860  123.4230   60.5140 C   0  0  0  0  0  0  0  0  0  0  0  0
  128.5200  123.6090   59.1960 C   0  0  0  0  0  0  0  0  0  0  0  0
  128.5070  124.7150   58.6520 O   0  0  0  0  0  0  0  0  0  0  0  0
  127.9120  122.5030   58.7120 N   0  0  0  0  0  0  0  0  0  0  0  0
  127.1610  122.3970   57.5480 C   0  0  0  0  0  0  0  0  0  0  0  0
  125.8100  122.7350   57.4800 C   0  0  0  0  0  0  0  0  0  0  0  0
  125.4450  122.4930   56.1750 C   0  0  0  0  0  0  0  0  0  0  0  0
  126.5190  122.0310   55.4940 O   0  0  0  0  0  0  0  0  0  0  0  0
  127.6010  121.9730   56.3750 N   0  0  0  0  0  0  0  0  0  0  0  0
  130.1660  119.1560   61.5320 N   0  0  0  0  0  0  0  0  0  0  0  0
  1  2  1  0
  2  3  2  0
  3  4  1  0
  4  5  1  0
  4  6  2  0
  6  7  1  0
  7  8  3  0
  6  9  1  0
  9 10  1  0
 10 11  1  0
 11 12  1  0
 12 13  1  0
 13 14  2  0
 13 15  1  0
 15 16  1  0
 16 17  1  0
 17 18  2  0
 18 19  1  0
 19 20  1  0
  9 21  2  0
 21  2  1  0
 20 16  2  0
M  END
>  <Binding energies>  (64) 
[-8.13]

>  <Ligand effiencies>  (64) 
[-0.36954545454545457]

>  <Interactions>  (64) 
["V-B:PRO:540:N:9855, V-B:ALA:541:CB:9863, V-B:PRO:540:CA:9854, V-B:TYR:539:C:9838, V-A:LEU:475:CD2:4258, V-A:PRO:482:CG:4326, V-A:HIS:383:CE1:3393, H-B:TYR:539:O:9839, V-A:SER:385:C:3404, V-B:TYR:539:CD2:9845, V-A:ILE:369:CG2:3236, V-B:TYR:539:CE2:9847, V-B:TYR:539:CB:9842, V-A:SER:385:CA:3406, V-A:SER:385:CB:3408, H-B:TYR:539:N:9841, V-B:VAL:344:CG1:7971, V-A:PRO:482:CB:4325, V-B:PRO:540:CB:9856, V-B:TYR:539:CA:9840, V-B:PRO:540:CD:9858, V-B:TYR:531:CE2:9764, V-B:LEU:363:CD1:8159, V-B:ILE:538:CD1:9836, V-B:ILE:538:CG2:9834, V-A:VAL:384:C:3396"]

$$$$
2a_Ghoteimi_2023
     RDKit          3D

 48 53  0  0  0  0  0  0  0  0999 V2000
  133.5710  131.0000   59.1250 C   0  0  0  0  0  0  0  0  0  0  0  0
  132.5640  131.2680   58.0030 C   0  0  0  0  0  0  0  0  0  0  0  0
  132.0650  132.5930   58.1230 O   0  0  0  0  0  0  0  0  0  0  0  0
  131.0030  133.0130   57.3880 C   0  0  0  0  0  0  0  0  0  0  0  0
  131.1140  133.6180   56.3170 O   0  0  0  0  0  0  0  0  0  0  0  0
  129.6790  132.6610   58.0050 C   0  0  0  0  0  0  0  0  0  0  0  0
  128.7050  131.9320   57.3070 C   0  0  0  0  0  0  0  0  0  0  0  0
  127.4900  131.6220   57.9080 C   0  0  0  0  0  0  0  0  0  0  0  0
  127.2220  132.0270   59.2170 C   0  0  0  0  0  0  0  0  0  0  0  0
  125.9600  131.6630   59.7240 N   0  0  0  0  0  0  0  0  0  0  0  0
  124.7370  131.7690   59.1590 C   0  0  0  0  0  0  0  0  0  0  0  0
  124.5060  132.2750   58.0610 O   0  0  0  0  0  0  0  0  0  0  0  0
  123.5770  131.2390   60.0120 C   0  0  0  0  0  0  0  0  0  0  0  0
  123.7730  131.5100   61.8030 S   0  0  0  0  0  0  0  0  0  0  0  0
  124.7970  130.1760   62.3810 C   0  0  0  0  0  0  0  0  0  0  0  0
  125.0000  129.2040   61.4620 N   0  0  0  0  0  0  0  0  0  0  0  0
  125.7580  128.1270   61.7880 C   0  0  0  0  0  0  0  0  0  0  0  0
  125.9310  127.0880   60.7270 C   0  0  0  0  0  0  0  0  0  0  0  0
  125.5290  127.3250   59.4070 C   0  0  0  0  0  0  0  0  0  0  0  0
  125.6820  126.3500   58.4250 C   0  0  0  0  0  0  0  0  0  0  0  0
  126.2500  125.1040   58.7240 C   0  0  0  0  0  0  0  0  0  0  0  0
  126.3700  124.1230   57.7340 N   0  0  0  0  0  0  0  0  0  0  0  0
  125.1800  123.5170   57.1020 C   0  0  0  0  0  0  0  0  0  0  0  0
  125.4910  122.7410   55.8050 C   0  0  0  0  0  0  0  0  0  0  0  0
  126.4880  121.7620   56.0520 O   0  0  0  0  0  0  0  0  0  0  0  0
  127.6960  122.3560   56.5010 C   0  0  0  0  0  0  0  0  0  0  0  0
  127.4540  123.1220   57.8180 C   0  0  0  0  0  0  0  0  0  0  0  0
  126.6410  124.8660   60.0520 C   0  0  0  0  0  0  0  0  0  0  0  0
  126.4900  125.8420   61.0320 C   0  0  0  0  0  0  0  0  0  0  0  0
  126.3440  128.0110   63.0510 C   0  0  0  0  0  0  0  0  0  0  0  0
  126.1480  129.0060   64.0190 C   0  0  0  0  0  0  0  0  0  0  0  0
  126.7980  128.8150   65.3510 C   0  0  0  0  0  0  0  0  0  0  0  0
  126.0170  128.6510   66.4970 C   0  0  0  0  0  0  0  0  0  0  0  0
  126.6130  128.4930   67.7450 C   0  0  0  0  0  0  0  0  0  0  0  0
  128.0090  128.4910   67.8830 C   0  0  0  0  0  0  0  0  0  0  0  0
  128.6270  128.3520   69.1290 N   0  0  0  0  0  0  0  0  0  0  0  0
  128.0430  127.4340   70.1280 C   0  0  0  0  0  0  0  0  0  0  0  0
  129.0150  127.0830   71.2750 C   0  0  0  0  0  0  0  0  0  0  0  0
  129.4840  128.2710   71.8950 O   0  0  0  0  0  0  0  0  0  0  0  0
  130.1730  129.1050   70.9770 C   0  0  0  0  0  0  0  0  0  0  0  0
  129.2350  129.5060   69.8200 C   0  0  0  0  0  0  0  0  0  0  0  0
  128.7860  128.6680   66.7290 C   0  0  0  0  0  0  0  0  0  0  0  0
  128.1900  128.8280   65.4820 C   0  0  0  0  0  0  0  0  0  0  0  0
  125.3550  130.1290   63.6780 C   0  0  0  0  0  0  0  0  0  0  0  0
  125.1600  131.2280   64.6280 C   0  0  0  0  0  0  0  0  0  0  0  0
  125.0060  132.0940   65.3810 N   0  0  0  0  0  0  0  0  0  0  0  0
  128.1880  132.7640   59.9180 C   0  0  0  0  0  0  0  0  0  0  0  0
  129.4050  133.0730   59.3160 C   0  0  0  0  0  0  0  0  0  0  0  0
  1  2  1  0
  2  3  1  0
  3  4  1  0
  4  5  2  0
  4  6  1  0
  6  7  2  0
  7  8  1  0
  8  9  2  0
  9 10  1  0
 10 11  1  0
 11 12  2  0
 11 13  1  0
 13 14  1  0
 14 15  1  0
 15 16  2  0
 16 17  1  0
 17 18  1  0
 18 19  2  0
 19 20  1  0
 20 21  2  0
 21 22  1  0
 22 23  1  0
 23 24  1  0
 24 25  1  0
 25 26  1  0
 26 27  1  0
 21 28  1  0
 28 29  2  0
 17 30  2  0
 30 31  1  0
 31 32  1  0
 32 33  2  0
 33 34  1  0
 34 35  2  0
 35 36  1  0
 36 37  1  0
 37 38  1  0
 38 39  1  0
 39 40  1  0
 40 41  1  0
 35 42  1  0
 42 43  2  0
 31 44  2  0
 44 45  1  0
 45 46  3  0
  9 47  1  0
 47 48  2  0
 48  6  1  0
 44 15  1  0
 29 18  1  0
 43 32  1  0
 27 22  1  0
 41 36  1  0
M  END
>  <Binding energies>  (65) 
[-11.07]

>  <Ligand effiencies>  (65) 
[-0.2259183673469388]

>  <Interactions>  (65) 
["V-A:LEU:363:CA:3184, V-A:ASN:362:C:3171, V-A:TYR:539:CE1:4874, V-A:TYR:539:CD1:4872, V-A:ASP:366:CB:3211, V-A:PRO:540:CA:4882, V-A:TYR:531:CE2:4792, V-A:TYR:531:CZ:4793, V-B:GLU:543:CD:9879, V-B:PRO:540:N:9855, V-B:PRO:540:CA:9854, V-B:TYR:539:C:9838, V-B:TYR:539:CD2:9845, V-B:TYR:539:CE2:9847, H-B:TYR:539:N:9841, V-B:TYR:539:CG:9843, V-B:MET:535:CE:9806, V-B:TYR:539:CZ:9848, V-B:PRO:540:CB:9856, V-B:TYR:539:CA:9840, V-B:TYR:539:CD1:9844, V-B:TYR:531:CZ:9765, V-B:TYR:531:CE2:9764, V-B:LEU:363:CD1:8159, V-B:ILE:538:CD1:9836, V-A:HIS:456:CE1:4069, V-A:GLU:543:CD:4907, V-B:HIS:456:CE1:9040, V-A:GLU:543:CG:4906, V-A:GLU:543:CB:4905, V-A:GLU:543:C:4901, V-B:TYR:539:CE1:9846, V-B:ASP:366:CB:8182, H-B:TYR:484:OH:9318, V-A:PRO:540:N:4883, V-B:ASP:366:CG:8183, V-B:MET:535:CG:9804, H-A:TYR:539:N:4869, V-A:TYR:539:C:4866, V-B:TYR:484:CE2:9316, V-A:GLU:543:CA:4903, V-B:GLY:454:CA:9019, V-B:ILE:369:CG2:8207, H-B:GLY:454:N:9020, V-B:ILE:369:CB:8206"]

$$$$
2aa_Ghoteimi_2023
     RDKit          3D

 48 53  0  0  0  0  0  0  0  0999 V2000
  129.7990  123.9740   73.1250 C   0  0  0  0  0  0  0  0  0  0  0  0
  130.2280  125.3700   73.5900 C   0  0  0  0  0  0  0  0  0  0  0  0
  129.1910  125.9430   74.3760 O   0  0  0  0  0  0  0  0  0  0  0  0
  128.3800  126.9100   73.8720 C   0  0  0  0  0  0  0  0  0  0  0  0
  127.6510  127.6190   74.5730 O   0  0  0  0  0  0  0  0  0  0  0  0
  128.4700  127.0410   72.3790 C   0  0  0  0  0  0  0  0  0  0  0  0
  127.6400  126.3060   71.5200 C   0  0  0  0  0  0  0  0  0  0  0  0
  127.7440  126.4530   70.1400 C   0  0  0  0  0  0  0  0  0  0  0  0
  128.6840  127.3270   69.5900 C   0  0  0  0  0  0  0  0  0  0  0  0
  128.7020  127.3990   68.1840 N   0  0  0  0  0  0  0  0  0  0  0  0
  128.7290  128.4800   67.3740 C   0  0  0  0  0  0  0  0  0  0  0  0
  128.7740  129.6510   67.7560 O   0  0  0  0  0  0  0  0  0  0  0  0
  128.7260  128.1540   65.8740 C   0  0  0  0  0  0  0  0  0  0  0  0
  130.0480  127.7960   65.4570 O   0  0  0  0  0  0  0  0  0  0  0  0
  130.2700  127.3330   64.1670 C   0  0  0  0  0  0  0  0  0  0  0  0
  130.3570  128.2510   63.1640 N   0  0  0  0  0  0  0  0  0  0  0  0
  130.5770  127.8330   61.8920 C   0  0  0  0  0  0  0  0  0  0  0  0
  130.6550  128.8960   60.8420 C   0  0  0  0  0  0  0  0  0  0  0  0
  130.5600  128.5690   59.4860 C   0  0  0  0  0  0  0  0  0  0  0  0
  130.6250  129.5560   58.5050 C   0  0  0  0  0  0  0  0  0  0  0  0
  130.7740  130.9090   58.8460 C   0  0  0  0  0  0  0  0  0  0  0  0
  130.8540  131.9120   57.8720 N   0  0  0  0  0  0  0  0  0  0  0  0
  132.1430  132.2820   57.2530 C   0  0  0  0  0  0  0  0  0  0  0  0
  132.1030  133.6190   56.4830 C   0  0  0  0  0  0  0  0  0  0  0  0
  131.0650  133.5920   55.5170 O   0  0  0  0  0  0  0  0  0  0  0  0
  129.7960  133.4020   56.1230 C   0  0  0  0  0  0  0  0  0  0  0  0
  129.7680  132.0580   56.8820 C   0  0  0  0  0  0  0  0  0  0  0  0
  130.8910  131.2290   60.2060 C   0  0  0  0  0  0  0  0  0  0  0  0
  130.8280  130.2420   61.1860 C   0  0  0  0  0  0  0  0  0  0  0  0
  130.7010  126.4740   61.5890 C   0  0  0  0  0  0  0  0  0  0  0  0
  130.6050  125.5090   62.6000 C   0  0  0  0  0  0  0  0  0  0  0  0
  130.7200  124.0710   62.2120 C   0  0  0  0  0  0  0  0  0  0  0  0
  129.5900  123.2490   62.2030 C   0  0  0  0  0  0  0  0  0  0  0  0
  129.6940  121.9040   61.8620 C   0  0  0  0  0  0  0  0  0  0  0  0
  130.9350  121.3370   61.5320 C   0  0  0  0  0  0  0  0  0  0  0  0
  131.0620  119.9890   61.1820 N   0  0  0  0  0  0  0  0  0  0  0  0
  130.2320  118.9490   61.8180 C   0  0  0  0  0  0  0  0  0  0  0  0
  130.2560  117.6000   61.0680 C   0  0  0  0  0  0  0  0  0  0  0  0
  131.5960  117.1550   60.9140 O   0  0  0  0  0  0  0  0  0  0  0  0
  132.3730  118.0830   60.1740 C   0  0  0  0  0  0  0  0  0  0  0  0
  132.4050  119.4440   60.9000 C   0  0  0  0  0  0  0  0  0  0  0  0
  132.0620  122.1700   61.5360 C   0  0  0  0  0  0  0  0  0  0  0  0
  131.9580  123.5150   61.8770 C   0  0  0  0  0  0  0  0  0  0  0  0
  130.3980  125.9530   63.9270 C   0  0  0  0  0  0  0  0  0  0  0  0
  130.3350  125.0200   65.0540 C   0  0  0  0  0  0  0  0  0  0  0  0
  130.2860  124.2820   65.9440 N   0  0  0  0  0  0  0  0  0  0  0  0
  129.5130  128.0700   70.4430 C   0  0  0  0  0  0  0  0  0  0  0  0
  129.4040  127.9240   71.8230 C   0  0  0  0  0  0  0  0  0  0  0  0
  1  2  1  0
  2  3  1  0
  3  4  1  0
  4  5  2  0
  4  6  1  0
  6  7  2  0
  7  8  1  0
  8  9  2  0
  9 10  1  0
 10 11  1  0
 11 12  2  0
 11 13  1  0
 13 14  1  0
 14 15  1  0
 15 16  2  0
 16 17  1  0
 17 18  1  0
 18 19  2  0
 19 20  1  0
 20 21  2  0
 21 22  1  0
 22 23  1  0
 23 24  1  0
 24 25  1  0
 25 26  1  0
 26 27  1  0
 21 28  1  0
 28 29  2  0
 17 30  2  0
 30 31  1  0
 31 32  1  0
 32 33  2  0
 33 34  1  0
 34 35  2  0
 35 36  1  0
 36 37  1  0
 37 38  1  0
 38 39  1  0
 39 40  1  0
 40 41  1  0
 35 42  1  0
 42 43  2  0
 31 44  2  0
 44 45  1  0
 45 46  3  0
  9 47  1  0
 47 48  2  0
 48  6  1  0
 44 15  1  0
 29 18  1  0
 43 32  1  0
 27 22  1  0
 41 36  1  0
M  END
>  <Binding energies>  (66) 
[-10.89]

>  <Ligand effiencies>  (66) 
[-0.22224489795918367]

>  <Interactions>  (66) 
["V-A:TYR:539:CG:4871, V-A:TYR:539:CZ:4876, V-A:TYR:539:CE1:4874, V-A:TYR:539:CD1:4872, V-A:TYR:531:CE2:4792, V-A:TYR:531:CZ:4793, V-A:ILE:538:CA:4859, V-A:LEU:363:CD1:3188, V-B:GLU:543:CD:9879, H-A:TYR:484:OH:4347, V-B:ALA:541:CB:9863, H-B:GLU:543:OE2:9881, V-A:LEU:475:CD2:4258, V-A:PRO:482:CG:4326, V-A:HIS:383:CE1:3393, V-B:TYR:539:CD2:9845, V-A:PRO:482:CB:4325, H-A:HIS:383:ND1:3390, V-A:HIS:456:CE1:4069, V-B:GLU:543:CB:9877, V-A:GLU:543:CD:4907, V-B:HIS:456:CE1:9040, V-B:LYS:547:CE:9921, H-B:LYS:547:NZ:9922, V-A:HIS:456:CD2:4067, V-B:GLU:543:C:9873, V-A:ILE:538:CB:4861, H-A:ARG:545:NH2:4927, V-B:GLY:544:C:9883, V-A:PRO:540:N:4883, V-A:PRO:540:CD:4886, H-A:TYR:539:N:4869, V-A:HIS:456:CG:4065"]

$$$$
2b_Ghoteimi_2023
     RDKit          3D

 42 47  0  0  0  0  0  0  0  0999 V2000
  125.8710  132.3750   65.6160 N   0  0  0  0  0  0  0  0  0  0  0  0
  125.9350  131.4860   64.8780 C   0  0  0  0  0  0  0  0  0  0  0  0
  126.0170  130.3570   63.9470 C   0  0  0  0  0  0  0  0  0  0  0  0
  126.4780  129.0920   64.3900 C   0  0  0  0  0  0  0  0  0  0  0  0
  126.9040  128.8070   65.7920 C   0  0  0  0  0  0  0  0  0  0  0  0
  128.2600  128.7340   66.1160 C   0  0  0  0  0  0  0  0  0  0  0  0
  128.6620  128.4680   67.4220 C   0  0  0  0  0  0  0  0  0  0  0  0
  127.7170  128.2490   68.4370 C   0  0  0  0  0  0  0  0  0  0  0  0
  128.0950  127.9930   69.7560 N   0  0  0  0  0  0  0  0  0  0  0  0
  127.7000  126.7160   70.3830 C   0  0  0  0  0  0  0  0  0  0  0  0
  127.8420  126.7200   71.9200 C   0  0  0  0  0  0  0  0  0  0  0  0
  129.1640  127.0810   72.2870 O   0  0  0  0  0  0  0  0  0  0  0  0
  129.5060  128.3740   71.8120 C   0  0  0  0  0  0  0  0  0  0  0  0
  129.4150  128.4080   70.2720 C   0  0  0  0  0  0  0  0  0  0  0  0
  126.3580  128.3210   68.1010 C   0  0  0  0  0  0  0  0  0  0  0  0
  125.9560  128.5910   66.7970 C   0  0  0  0  0  0  0  0  0  0  0  0
  126.5350  128.0420   63.4650 C   0  0  0  0  0  0  0  0  0  0  0  0
  126.1140  128.2370   62.1460 C   0  0  0  0  0  0  0  0  0  0  0  0
  126.1260  127.1410   61.1280 C   0  0  0  0  0  0  0  0  0  0  0  0
  126.1190  127.4370   59.7610 C   0  0  0  0  0  0  0  0  0  0  0  0
  126.1460  126.4220   58.8080 C   0  0  0  0  0  0  0  0  0  0  0  0
  126.1690  125.0710   59.1870 C   0  0  0  0  0  0  0  0  0  0  0  0
  126.2270  124.0410   58.2410 N   0  0  0  0  0  0  0  0  0  0  0  0
  125.0560  123.7610   57.3850 C   0  0  0  0  0  0  0  0  0  0  0  0
  125.1170  122.3850   56.6860 C   0  0  0  0  0  0  0  0  0  0  0  0
  126.3250  122.2670   55.9500 O   0  0  0  0  0  0  0  0  0  0  0  0
  127.4600  122.3720   56.7940 C   0  0  0  0  0  0  0  0  0  0  0  0
  127.4690  123.7450   57.5000 C   0  0  0  0  0  0  0  0  0  0  0  0
  126.1840  124.7790   60.5580 C   0  0  0  0  0  0  0  0  0  0  0  0
  126.1590  125.7940   61.5100 C   0  0  0  0  0  0  0  0  0  0  0  0
  125.6720  129.4490   61.7250 N   0  0  0  0  0  0  0  0  0  0  0  0
  125.6390  130.4880   62.5920 C   0  0  0  0  0  0  0  0  0  0  0  0
  125.0380  132.0000   61.8700 S   0  0  0  0  0  0  0  0  0  0  0  0
  126.3440  132.6460   60.7820 C   0  0  0  0  0  0  0  0  0  0  0  0
  127.6940  132.7370   61.4960 C   0  0  0  0  0  0  0  0  0  0  0  0
  127.7480  133.2240   62.6260 O   0  0  0  0  0  0  0  0  0  0  0  0
  128.7520  132.2650   60.8010 N   0  0  0  0  0  0  0  0  0  0  0  0
  130.0760  132.2170   61.2130 C   0  0  0  0  0  0  0  0  0  0  0  0
  131.0730  131.5580   60.4950 C   0  0  0  0  0  0  0  0  0  0  0  0
  132.2230  131.7430   61.2260 C   0  0  0  0  0  0  0  0  0  0  0  0
  131.9340  132.4760   62.3270 O   0  0  0  0  0  0  0  0  0  0  0  0
  130.5690  132.7720   62.3070 N   0  0  0  0  0  0  0  0  0  0  0  0
  1  2  3  0
  2  3  1  0
  3  4  2  0
  4  5  1  0
  5  6  2  0
  6  7  1  0
  7  8  2  0
  8  9  1  0
  9 10  1  0
 10 11  1  0
 11 12  1  0
 12 13  1  0
 13 14  1  0
  8 15  1  0
 15 16  2  0
  4 17  1  0
 17 18  2  0
 18 19  1  0
 19 20  2  0
 20 21  1  0
 21 22  2  0
 22 23  1  0
 23 24  1  0
 24 25  1  0
 25 26  1  0
 26 27  1  0
 27 28  1  0
 22 29  1  0
 29 30  2  0
 18 31  1  0
 31 32  2  0
 32 33  1  0
 33 34  1  0
 34 35  1  0
 35 36  2  0
 35 37  1  0
 37 38  1  0
 38 39  1  0
 39 40  2  0
 40 41  1  0
 41 42  1  0
 32  3  1  0
 42 38  2  0
 16  5  1  0
 30 19  1  0
 14  9  1  0
 28 23  1  0
M  END
>  <Binding energies>  (67) 
[-9.96]

>  <Ligand effiencies>  (67) 
[-0.2316279069767442]

>  <Interactions>  (67) 
["H-A:ALA:541:N:4890, V-A:PRO:540:CB:4884, V-A:PRO:540:CA:4882, V-B:GLU:543:CD:9879, V-B:PRO:540:N:9855, V-B:TYR:539:C:9838, V-B:TYR:539:CD2:9845, H-B:TYR:539:N:9841, V-B:TYR:539:CG:9843, V-B:MET:535:CE:9806, V-B:PRO:540:CB:9856, V-B:TYR:539:CA:9840, V-B:TYR:539:CD1:9844, V-B:TYR:531:CZ:9765, V-B:PRO:540:CD:9858, V-B:TYR:531:CE2:9764, V-B:LEU:363:CD1:8159, V-A:HIS:456:CE1:4069, V-B:ILE:538:CG2:9834, V-B:GLU:543:CB:9877, V-A:GLU:543:CD:4907, V-B:HIS:456:CE1:9040, V-B:GLU:543:C:9873, V-B:TYR:539:CE1:9846, H-B:TYR:484:OH:9318, V-B:ASP:366:CG:8183, V-B:PRO:540:CG:9857"]

$$$$
2c_Ghoteimi_2023
     RDKit          3D

 42 47  0  0  0  0  0  0  0  0999 V2000
  126.9140  132.6140   65.4460 N   0  0  0  0  0  0  0  0  0  0  0  0
  126.8710  131.7200   64.7130 C   0  0  0  0  0  0  0  0  0  0  0  0
  126.8160  130.5830   63.7880 C   0  0  0  0  0  0  0  0  0  0  0  0
  127.0560  129.2650   64.2510 C   0  0  0  0  0  0  0  0  0  0  0  0
  127.3760  128.9270   65.6700 C   0  0  0  0  0  0  0  0  0  0  0  0
  128.7040  128.7590   66.0690 C   0  0  0  0  0  0  0  0  0  0  0  0
  129.0120  128.4480   67.3910 C   0  0  0  0  0  0  0  0  0  0  0  0
  127.9990  128.2820   68.3490 C   0  0  0  0  0  0  0  0  0  0  0  0
  128.2860  127.9910   69.6840 N   0  0  0  0  0  0  0  0  0  0  0  0
  127.9220  126.6670   70.2290 C   0  0  0  0  0  0  0  0  0  0  0  0
  127.9340  126.6190   71.7720 C   0  0  0  0  0  0  0  0  0  0  0  0
  129.1990  127.0380   72.2610 O   0  0  0  0  0  0  0  0  0  0  0  0
  129.5020  128.3660   71.8640 C   0  0  0  0  0  0  0  0  0  0  0  0
  129.5300  128.4610   70.3240 C   0  0  0  0  0  0  0  0  0  0  0  0
  126.6690  128.4490   67.9370 C   0  0  0  0  0  0  0  0  0  0  0  0
  126.3620  128.7620   66.6160 C   0  0  0  0  0  0  0  0  0  0  0  0
  126.9880  128.2130   63.3290 C   0  0  0  0  0  0  0  0  0  0  0  0
  126.6660  128.4620   61.9910 C   0  0  0  0  0  0  0  0  0  0  0  0
  126.5650  127.3720   60.9730 C   0  0  0  0  0  0  0  0  0  0  0  0
  126.5520  127.6700   59.6070 C   0  0  0  0  0  0  0  0  0  0  0  0
  126.4630  126.6590   58.6530 C   0  0  0  0  0  0  0  0  0  0  0  0
  126.3730  125.3100   59.0320 C   0  0  0  0  0  0  0  0  0  0  0  0
  126.3090  124.2810   58.0870 N   0  0  0  0  0  0  0  0  0  0  0  0
  127.4100  123.3010   57.9910 C   0  0  0  0  0  0  0  0  0  0  0  0
  127.3960  122.4800   56.6840 C   0  0  0  0  0  0  0  0  0  0  0  0
  126.1400  121.8430   56.5240 O   0  0  0  0  0  0  0  0  0  0  0  0
  125.0840  122.7880   56.4520 C   0  0  0  0  0  0  0  0  0  0  0  0
  125.0300  123.6230   57.7490 C   0  0  0  0  0  0  0  0  0  0  0  0
  126.4000  125.0160   60.4030 C   0  0  0  0  0  0  0  0  0  0  0  0
  126.4900  126.0270   61.3560 C   0  0  0  0  0  0  0  0  0  0  0  0
  126.4350  129.7250   61.5510 N   0  0  0  0  0  0  0  0  0  0  0  0
  126.5250  130.7630   62.4170 C   0  0  0  0  0  0  0  0  0  0  0  0
  126.2030  132.3440   61.6690 S   0  0  0  0  0  0  0  0  0  0  0  0
  127.0910  132.3880   60.0830 C   0  0  0  0  0  0  0  0  0  0  0  0
  128.5070  131.8210   60.2020 C   0  0  0  0  0  0  0  0  0  0  0  0
  128.7330  130.6730   59.8160 O   0  0  0  0  0  0  0  0  0  0  0  0
  129.4240  132.6520   60.7430 N   0  0  0  0  0  0  0  0  0  0  0  0
  130.7700  132.3850   60.9420 C   0  0  0  0  0  0  0  0  0  0  0  0
  131.4590  132.4950   62.0580 N   0  0  0  0  0  0  0  0  0  0  0  0
  132.7190  132.1510   61.8850 C   0  0  0  0  0  0  0  0  0  0  0  0
  133.0770  131.7490   60.6020 C   0  0  0  0  0  0  0  0  0  0  0  0
  131.6780  131.8310   59.5730 S   0  0  0  0  0  0  0  0  0  0  0  0
  1  2  3  0
  2  3  1  0
  3  4  2  0
  4  5  1  0
  5  6  2  0
  6  7  1  0
  7  8  2  0
  8  9  1  0
  9 10  1  0
 10 11  1  0
 11 12  1  0
 12 13  1  0
 13 14  1  0
  8 15  1  0
 15 16  2  0
  4 17  1  0
 17 18  2  0
 18 19  1  0
 19 20  2  0
 20 21  1  0
 21 22  2  0
 22 23  1  0
 23 24  1  0
 24 25  1  0
 25 26  1  0
 26 27  1  0
 27 28  1  0
 22 29  1  0
 29 30  2  0
 18 31  1  0
 31 32  2  0
 32 33  1  0
 33 34  1  0
 34 35  1  0
 35 36  2  0
 35 37  1  0
 37 38  1  0
 38 39  2  0
 39 40  1  0
 40 41  2  0
 41 42  1  0
 32  3  1  0
 42 38  1  0
 16  5  1  0
 30 19  1  0
 14  9  1  0
 28 23  1  0
M  END
>  <Binding energies>  (68) 
[-9.61]

>  <Ligand effiencies>  (68) 
[-0.22348837209302325]

>  <Interactions>  (68) 
["H-A:ALA:541:N:4890, V-A:ASN:362:C:3171, V-A:PRO:540:CB:4884, V-A:TYR:539:CE1:4874, V-A:TYR:539:CD1:4872, V-A:PRO:540:CA:4882, V-B:GLU:543:CD:9879, V-B:PRO:540:N:9855, V-B:TYR:539:C:9838, H-B:TYR:539:N:9841, V-B:TYR:539:CG:9843, V-B:MET:535:CE:9806, V-B:PRO:540:CB:9856, V-B:TYR:539:CA:9840, V-B:TYR:539:CD1:9844, V-B:PRO:540:CD:9858, V-B:TYR:531:CE2:9764, V-B:LEU:363:CD1:8159, V-A:HIS:456:CE1:4069, V-B:GLU:543:CB:9877, V-A:GLU:543:CD:4907, V-B:HIS:456:CE1:9040, V-A:GLU:543:CG:4906, V-A:GLU:543:CB:4905, V-B:TYR:539:CE1:9846, H-B:TYR:484:OH:9318, V-A:ASN:362:CB:3175, V-A:PRO:540:C:4880, H-A:TYR:539:O:4867"]

$$$$
2j_Grossjean_2025
     RDKit          3D

 23 24  0  0  0  0  0  0  0  0999 V2000
  129.1220  122.4310   66.1370 C   0  0  0  0  0  0  0  0  0  0  0  0
  129.1730  122.4120   64.6200 C   0  0  0  0  0  0  0  0  0  0  0  0
  130.3040  121.9750   63.9340 C   0  0  0  0  0  0  0  0  0  0  0  0
  130.3020  121.9730   62.5320 C   0  0  0  0  0  0  0  0  0  0  0  0
  131.5610  121.4850   61.7890 C   0  0  0  0  0  0  0  0  0  0  0  0
  132.5410  121.2460   62.6610 F   0  0  0  0  0  0  0  0  0  0  0  0
  131.2910  120.3620   61.1220 F   0  0  0  0  0  0  0  0  0  0  0  0
  132.0170  122.3760   60.9060 F   0  0  0  0  0  0  0  0  0  0  0  0
  129.1400  122.4210   61.8560 C   0  0  0  0  0  0  0  0  0  0  0  0
  129.0820  122.4410   60.3910 C   0  0  0  0  0  0  0  0  0  0  0  0
  129.0370  122.4550   59.2340 N   0  0  0  0  0  0  0  0  0  0  0  0
  128.0360  122.8490   62.6320 C   0  0  0  0  0  0  0  0  0  0  0  0
  126.5200  123.4320   61.8880 S   0  0  0  0  0  0  0  0  0  0  0  0
  126.9220  124.8250   60.7800 C   0  0  0  0  0  0  0  0  0  0  0  0
  126.4310  124.6630   59.3340 C   0  0  0  0  0  0  0  0  0  0  0  0
  125.9330  125.6140   58.7280 O   0  0  0  0  0  0  0  0  0  0  0  0
  126.5810  123.4220   58.8210 N   0  0  0  0  0  0  0  0  0  0  0  0
  126.2250  123.0020   57.5460 C   0  0  0  0  0  0  0  0  0  0  0  0
  126.9500  122.3120   56.6920 N   0  0  0  0  0  0  0  0  0  0  0  0
  126.2940  122.0860   55.5700 C   0  0  0  0  0  0  0  0  0  0  0  0
  125.0030  122.6010   55.4970 C   0  0  0  0  0  0  0  0  0  0  0  0
  124.6390  123.4240   56.9850 S   0  0  0  0  0  0  0  0  0  0  0  0
  128.0570  122.8410   63.9900 N   0  0  0  0  0  0  0  0  0  0  0  0
  1  2  1  0
  2  3  2  0
  3  4  1  0
  4  5  1  0
  5  6  1  0
  5  7  1  0
  5  8  1  0
  4  9  2  0
  9 10  1  0
 10 11  3  0
  9 12  1  0
 12 13  1  0
 13 14  1  0
 14 15  1  0
 15 16  2  0
 15 17  1  0
 17 18  1  0
 18 19  2  0
 19 20  1  0
 20 21  2  0
 21 22  1  0
 12 23  2  0
 23  2  1  0
 22 18  1  0
M  END
>  <Binding energies>  (69) 
[-5.81]

>  <Ligand effiencies>  (69) 
[-0.24208333333333332]

>  <Interactions>  (69) 
["V-B:GLU:543:CD:9879, V-B:PRO:540:N:9855, H-B:ALA:541:N:9862, V-B:ALA:541:CB:9863, V-B:PRO:540:CA:9854, V-B:ALA:541:CA:9861, V-B:TYR:539:C:9838, V-A:LEU:475:CD2:4258, H-B:TYR:539:O:9839, V-B:TYR:539:CD2:9845, V-B:TYR:539:CE2:9847, H-B:TYR:539:N:9841, V-B:MET:535:CE:9806, V-B:GLU:543:CG:9878, V-A:LEU:475:CD1:4257, V-B:PRO:540:CB:9856, V-B:TYR:531:CZ:9765, V-B:PRO:540:CD:9858, V-B:TYR:531:CE2:9764, V-B:LEU:363:CD1:8159, V-B:ILE:538:CD1:9836, V-B:ILE:538:CG2:9834, V-B:GLU:543:CB:9877, V-B:ILE:538:CA:9831, V-B:ILE:538:C:9829, V-B:ILE:538:CB:9833, V-A:TYR:484:CZ:4346, V-A:TYR:484:CE2:4345, H-B:TYR:531:OH:9766, V-B:MET:535:CG:9804, V-B:GLU:543:CA:9875"]

$$$$
3ab_Grossjean_2025
     RDKit          3D

 33 35  0  0  0  0  0  0  0  0999 V2000
  125.8110  122.2600   55.1420 C   0  0  0  0  0  0  0  0  0  0  0  0
  126.4930  122.2210   56.3890 O   0  0  0  0  0  0  0  0  0  0  0  0
  126.5020  123.2990   57.2140 C   0  0  0  0  0  0  0  0  0  0  0  0
  125.5220  124.0280   57.3920 O   0  0  0  0  0  0  0  0  0  0  0  0
  127.8240  123.5160   57.8920 C   0  0  0  0  0  0  0  0  0  0  0  0
  128.7410  124.4780   57.4420 C   0  0  0  0  0  0  0  0  0  0  0  0
  129.9590  124.6570   58.0920 C   0  0  0  0  0  0  0  0  0  0  0  0
  130.2830  123.8720   59.2090 C   0  0  0  0  0  0  0  0  0  0  0  0
  131.4800  123.9710   59.9450 N   0  0  0  0  0  0  0  0  0  0  0  0
  132.7420  124.1910   59.5200 C   0  0  0  0  0  0  0  0  0  0  0  0
  133.0870  124.3380   58.3480 O   0  0  0  0  0  0  0  0  0  0  0  0
  133.8030  124.2530   60.6210 C   0  0  0  0  0  0  0  0  0  0  0  0
  133.0990  124.7510   62.2220 S   0  0  0  0  0  0  0  0  0  0  0  0
  132.0020  123.4520   62.7510 C   0  0  0  0  0  0  0  0  0  0  0  0
  132.1300  122.3100   62.0340 N   0  0  0  0  0  0  0  0  0  0  0  0
  131.3580  121.2340   62.3330 C   0  0  0  0  0  0  0  0  0  0  0  0
  131.5630  120.0070   61.4940 C   0  0  0  0  0  0  0  0  0  0  0  0
  130.6070  118.9790   61.4790 C   0  0  0  0  0  0  0  0  0  0  0  0
  130.7910  117.8390   60.7010 C   0  0  0  0  0  0  0  0  0  0  0  0
  131.9400  117.7110   59.9260 C   0  0  0  0  0  0  0  0  0  0  0  0
  132.9040  118.7120   59.9260 C   0  0  0  0  0  0  0  0  0  0  0  0
  132.7160  119.8500   60.7050 C   0  0  0  0  0  0  0  0  0  0  0  0
  130.4120  121.2950   63.3630 C   0  0  0  0  0  0  0  0  0  0  0  0
  130.2470  122.4730   64.1070 C   0  0  0  0  0  0  0  0  0  0  0  0
  129.1910  122.5010   65.2280 C   0  0  0  0  0  0  0  0  0  0  0  0
  127.9720  122.8160   64.7830 F   0  0  0  0  0  0  0  0  0  0  0  0
  129.1050  121.3030   65.8100 F   0  0  0  0  0  0  0  0  0  0  0  0
  129.5290  123.4050   66.1490 F   0  0  0  0  0  0  0  0  0  0  0  0
  131.0580  123.5920   63.7920 C   0  0  0  0  0  0  0  0  0  0  0  0
  130.8870  124.8630   64.5000 C   0  0  0  0  0  0  0  0  0  0  0  0
  130.7500  125.8660   65.0610 N   0  0  0  0  0  0  0  0  0  0  0  0
  129.3710  122.9190   59.6630 C   0  0  0  0  0  0  0  0  0  0  0  0
  128.1540  122.7400   59.0110 C   0  0  0  0  0  0  0  0  0  0  0  0
  1  2  1  0
  2  3  1  0
  3  4  2  0
  3  5  1  0
  5  6  2  0
  6  7  1  0
  7  8  2  0
  8  9  1  0
  9 10  1  0
 10 11  2  0
 10 12  1  0
 12 13  1  0
 13 14  1  0
 14 15  2  0
 15 16  1  0
 16 17  1  0
 17 18  2  0
 18 19  1  0
 19 20  2  0
 20 21  1  0
 21 22  2  0
 16 23  2  0
 23 24  1  0
 24 25  1  0
 25 26  1  0
 25 27  1  0
 25 28  1  0
 24 29  2  0
 29 30  1  0
 30 31  3  0
  8 32  1  0
 32 33  2  0
 33  5  1  0
 29 14  1  0
 22 17  1  0
M  END
>  <Binding energies>  (70) 
[-8.41]

>  <Ligand effiencies>  (70) 
[-0.24735294117647058]

>  <Interactions>  (70) 
["V-A:ASP:366:CG:3212, V-A:ASP:366:CB:3211, V-B:GLU:543:CD:9879, V-B:PRO:540:N:9855, V-B:ALA:541:CB:9863, V-B:PRO:540:CA:9854, V-B:ALA:541:CA:9861, V-B:TYR:539:C:9838, V-A:LEU:475:CD2:4258, V-A:HIS:383:CE1:3393, V-A:ILE:369:CD1:3238, V-B:TYR:539:CD2:9845, V-A:ILE:369:CG2:3236, V-B:TYR:539:CE2:9847, V-B:TYR:539:CB:9842, V-A:SER:385:CA:3406, H-B:TYR:539:N:9841, V-B:MET:535:CE:9806, H-B:TYR:539:OH:9849, V-B:TYR:539:CZ:9848, V-B:GLU:543:CG:9878, V-A:LEU:475:CD1:4257, V-B:ALA:541:C:9859, V-B:TYR:531:CE2:9764, V-B:ILE:538:CD1:9836, V-B:ILE:538:CG2:9834, V-B:GLU:543:CB:9877, V-B:ILE:538:CA:9831, V-B:ILE:538:C:9829, V-B:ILE:538:CB:9833, V-A:TYR:484:CZ:4346, V-A:TYR:484:CE2:4345, H-B:TYR:531:OH:9766, V-B:MET:535:CG:9804, V-A:LEU:475:CG:4256"]

$$$$
3ac_Grossjean_2025
     RDKit          3D

 31 33  0  0  0  0  0  0  0  0999 V2000
  126.3120  122.0210   54.9790 C   0  0  0  0  0  0  0  0  0  0  0  0
  125.7180  123.1190   55.6640 O   0  0  0  0  0  0  0  0  0  0  0  0
  126.0330  123.3370   56.9910 C   0  0  0  0  0  0  0  0  0  0  0  0
  127.2910  122.9080   57.4110 C   0  0  0  0  0  0  0  0  0  0  0  0
  127.6990  123.0880   58.7290 C   0  0  0  0  0  0  0  0  0  0  0  0
  126.8460  123.6950   59.6530 C   0  0  0  0  0  0  0  0  0  0  0  0
  127.3530  123.8520   60.9560 N   0  0  0  0  0  0  0  0  0  0  0  0
  126.8040  123.4840   62.1340 C   0  0  0  0  0  0  0  0  0  0  0  0
  125.7360  122.8830   62.2640 O   0  0  0  0  0  0  0  0  0  0  0  0
  127.6050  123.8580   63.3810 C   0  0  0  0  0  0  0  0  0  0  0  0
  128.4900  122.4330   64.0840 S   0  0  0  0  0  0  0  0  0  0  0  0
  130.1420  122.3980   63.4150 C   0  0  0  0  0  0  0  0  0  0  0  0
  130.3760  121.3210   62.6270 N   0  0  0  0  0  0  0  0  0  0  0  0
  131.5910  121.1620   62.0410 C   0  0  0  0  0  0  0  0  0  0  0  0
  131.7690  119.9400   61.1910 C   0  0  0  0  0  0  0  0  0  0  0  0
  130.7960  118.9270   61.1750 C   0  0  0  0  0  0  0  0  0  0  0  0
  130.9530  117.7930   60.3830 C   0  0  0  0  0  0  0  0  0  0  0  0
  132.0910  117.6550   59.5950 C   0  0  0  0  0  0  0  0  0  0  0  0
  133.0720  118.6400   59.5950 C   0  0  0  0  0  0  0  0  0  0  0  0
  132.9110  119.7730   60.3890 C   0  0  0  0  0  0  0  0  0  0  0  0
  132.6150  122.0890   62.2540 C   0  0  0  0  0  0  0  0  0  0  0  0
  132.4070  123.2010   63.0830 C   0  0  0  0  0  0  0  0  0  0  0  0
  133.5650  124.1950   63.2950 C   0  0  0  0  0  0  0  0  0  0  0  0
  133.4400  125.3010   62.5590 F   0  0  0  0  0  0  0  0  0  0  0  0
  133.6210  124.5740   64.5730 F   0  0  0  0  0  0  0  0  0  0  0  0
  134.7220  123.6190   62.9650 F   0  0  0  0  0  0  0  0  0  0  0  0
  131.1390  123.3600   63.6980 C   0  0  0  0  0  0  0  0  0  0  0  0
  130.8990  124.4620   64.6320 C   0  0  0  0  0  0  0  0  0  0  0  0
  130.7100  125.3330   65.3710 N   0  0  0  0  0  0  0  0  0  0  0  0
  125.5800  124.1360   59.2370 C   0  0  0  0  0  0  0  0  0  0  0  0
  125.1760  123.9550   57.9170 C   0  0  0  0  0  0  0  0  0  0  0  0
  1  2  1  0
  2  3  1  0
  3  4  2  0
  4  5  1  0
  5  6  2  0
  6  7  1  0
  7  8  1  0
  8  9  2  0
  8 10  1  0
 10 11  1  0
 11 12  1  0
 12 13  2  0
 13 14  1  0
 14 15  1  0
 15 16  2  0
 16 17  1  0
 17 18  2  0
 18 19  1  0
 19 20  2  0
 14 21  2  0
 21 22  1  0
 22 23  1  0
 23 24  1  0
 23 25  1  0
 23 26  1  0
 22 27  2  0
 27 28  1  0
 28 29  3  0
  6 30  1  0
 30 31  2  0
 31  3  1  0
 27 12  1  0
 20 15  1  0
M  END
>  <Binding energies>  (71) 
[-8.97]

>  <Ligand effiencies>  (71) 
[-0.2803125]

>  <Interactions>  (71) 
["V-A:ASP:366:CG:3212, V-B:GLU:543:CD:9879, V-B:PRO:540:N:9855, H-B:ALA:541:N:9862, H-A:TYR:484:OH:4347, V-B:ALA:541:CB:9863, V-B:PRO:540:CA:9854, V-B:TYR:539:C:9838, V-A:LEU:475:CD2:4258, V-A:HIS:383:CE1:3393, V-A:ILE:369:CD1:3238, V-B:TYR:539:CD2:9845, V-A:ILE:369:CG2:3236, V-B:TYR:539:CE2:9847, V-B:TYR:539:CB:9842, V-A:SER:385:CA:3406, V-A:GLY:454:CA:4048, V-B:MET:535:CE:9806, V-B:GLU:543:CG:9878, V-B:PRO:540:CB:9856, V-A:GLY:453:C:4041, V-A:ARG:545:CZ:4925, V-B:ILE:538:CD1:9836, V-B:ILE:538:CG2:9834, V-B:ILE:538:CA:9831, V-A:GLY:453:CA:4043, V-B:ILE:538:C:9829, V-B:ILE:538:CB:9833, V-A:LEU:373:CD2:3280, H-B:TYR:531:OH:9766, V-B:MET:535:CG:9804, V-B:VAL:537:C:9821"]

$$$$
3af_Grossjean_2025
     RDKit          3D

 29 31  0  0  0  0  0  0  0  0999 V2000
  130.6230  125.6530   64.4640 N   0  0  0  0  0  0  0  0  0  0  0  0
  130.7750  124.6270   63.9520 C   0  0  0  0  0  0  0  0  0  0  0  0
  130.9700  123.3280   63.3030 C   0  0  0  0  0  0  0  0  0  0  0  0
  132.2600  122.9100   62.8960 C   0  0  0  0  0  0  0  0  0  0  0  0
  133.5260  123.7530   63.1470 C   0  0  0  0  0  0  0  0  0  0  0  0
  133.5930  124.2290   64.3930 F   0  0  0  0  0  0  0  0  0  0  0  0
  134.6150  123.0110   62.9420 F   0  0  0  0  0  0  0  0  0  0  0  0
  133.5520  124.7980   62.3200 F   0  0  0  0  0  0  0  0  0  0  0  0
  132.3890  121.6820   62.2290 C   0  0  0  0  0  0  0  0  0  0  0  0
  131.2610  120.8940   61.9750 C   0  0  0  0  0  0  0  0  0  0  0  0
  131.3390  119.5840   61.2500 C   0  0  0  0  0  0  0  0  0  0  0  0
  130.3400  118.6110   61.4180 C   0  0  0  0  0  0  0  0  0  0  0  0
  130.4050  117.3930   60.7460 C   0  0  0  0  0  0  0  0  0  0  0  0
  131.4730  117.1320   59.8950 C   0  0  0  0  0  0  0  0  0  0  0  0
  132.4740  118.0790   59.7080 C   0  0  0  0  0  0  0  0  0  0  0  0
  132.4050  119.2960   60.3820 C   0  0  0  0  0  0  0  0  0  0  0  0
  130.0260  121.3000   62.3630 N   0  0  0  0  0  0  0  0  0  0  0  0
  129.8790  122.4720   63.0290 C   0  0  0  0  0  0  0  0  0  0  0  0
  128.1900  122.8260   63.4690 S   0  0  0  0  0  0  0  0  0  0  0  0
  127.5780  124.1230   62.3510 C   0  0  0  0  0  0  0  0  0  0  0  0
  126.7320  123.5440   61.2170 C   0  0  0  0  0  0  0  0  0  0  0  0
  125.6670  122.9900   61.4880 O   0  0  0  0  0  0  0  0  0  0  0  0
  127.2480  123.6900   59.9780 N   0  0  0  0  0  0  0  0  0  0  0  0
  126.7330  123.2700   58.7360 C   0  0  0  0  0  0  0  0  0  0  0  0
  125.4390  123.5340   58.2510 C   0  0  0  0  0  0  0  0  0  0  0  0
  125.0590  123.0520   56.9960 C   0  0  0  0  0  0  0  0  0  0  0  0
  125.9840  122.3150   56.2550 C   0  0  0  0  0  0  0  0  0  0  0  0
  127.2370  122.0470   56.7000 N   0  0  0  0  0  0  0  0  0  0  0  0
  127.5910  122.5230   57.9210 C   0  0  0  0  0  0  0  0  0  0  0  0
  1  2  3  0
  2  3  1  0
  3  4  2  0
  4  5  1  0
  5  6  1  0
  5  7  1  0
  5  8  1  0
  4  9  1  0
  9 10  2  0
 10 11  1  0
 11 12  2  0
 12 13  1  0
 13 14  2  0
 14 15  1  0
 15 16  2  0
 10 17  1  0
 17 18  2  0
 18 19  1  0
 19 20  1  0
 20 21  1  0
 21 22  2  0
 21 23  1  0
 23 24  1  0
 24 25  2  0
 25 26  1  0
 26 27  2  0
 27 28  1  0
 28 29  2  0
 18  3  1  0
 29 24  1  0
 16 11  1  0
M  END
>  <Binding energies>  (72) 
[-8.75]

>  <Ligand effiencies>  (72) 
[-0.2916666666666667]

>  <Interactions>  (72) 
["V-A:ASP:366:CG:3212, V-B:GLU:543:CD:9879, V-B:PRO:540:N:9855, H-B:ALA:541:N:9862, V-B:ALA:541:CB:9863, V-B:PRO:540:CA:9854, V-B:TYR:539:C:9838, V-A:LEU:475:CD2:4258, V-A:PRO:482:CG:4326, V-A:HIS:383:CE1:3393, V-A:ILE:369:CD1:3238, V-B:TYR:539:CD2:9845, V-B:TYR:539:CE2:9847, V-B:TYR:539:CB:9842, V-A:GLY:454:CA:4048, H-B:TYR:539:N:9841, V-B:TYR:539:CG:9843, V-B:MET:535:CE:9806, V-A:PRO:482:CB:4325, V-B:PRO:540:CB:9856, V-A:GLY:453:C:4041, V-B:PRO:540:CD:9858, V-B:TYR:531:CE2:9764, V-B:LEU:363:CD1:8159, V-B:ILE:538:CA:9831"]

$$$$
3ag_Grossjean_2025
     RDKit          3D

 30 32  0  0  0  0  0  0  0  0999 V2000
  131.4060  125.7330   64.4860 N   0  0  0  0  0  0  0  0  0  0  0  0
  131.4550  124.7010   63.9630 C   0  0  0  0  0  0  0  0  0  0  0  0
  131.5210  123.3950   63.3010 C   0  0  0  0  0  0  0  0  0  0  0  0
  132.7140  122.9610   62.6740 C   0  0  0  0  0  0  0  0  0  0  0  0
  134.0140  123.7880   62.6970 C   0  0  0  0  0  0  0  0  0  0  0  0
  135.1090  123.0290   62.7720 F   0  0  0  0  0  0  0  0  0  0  0  0
  134.1070  124.5180   61.5850 F   0  0  0  0  0  0  0  0  0  0  0  0
  134.0220  124.6030   63.7520 F   0  0  0  0  0  0  0  0  0  0  0  0
  132.7110  121.7260   62.0070 C   0  0  0  0  0  0  0  0  0  0  0  0
  131.5460  120.9530   61.9560 C   0  0  0  0  0  0  0  0  0  0  0  0
  131.4850  119.6300   61.2560 C   0  0  0  0  0  0  0  0  0  0  0  0
  130.4000  118.7610   61.4580 C   0  0  0  0  0  0  0  0  0  0  0  0
  130.3370  117.5300   60.8110 C   0  0  0  0  0  0  0  0  0  0  0  0
  131.3620  117.1490   59.9510 C   0  0  0  0  0  0  0  0  0  0  0  0
  132.4490  117.9900   59.7360 C   0  0  0  0  0  0  0  0  0  0  0  0
  132.5090  119.2200   60.3850 C   0  0  0  0  0  0  0  0  0  0  0  0
  130.4070  121.3670   62.5700 N   0  0  0  0  0  0  0  0  0  0  0  0
  130.3930  122.5470   63.2360 C   0  0  0  0  0  0  0  0  0  0  0  0
  128.8210  122.9250   63.9780 S   0  0  0  0  0  0  0  0  0  0  0  0
  127.7790  123.6710   62.6890 C   0  0  0  0  0  0  0  0  0  0  0  0
  128.0860  123.1090   61.3000 C   0  0  0  0  0  0  0  0  0  0  0  0
  128.0160  121.8950   61.0990 O   0  0  0  0  0  0  0  0  0  0  0  0
  128.4190  124.0040   60.3530 N   0  0  0  0  0  0  0  0  0  0  0  0
  128.7160  123.6900   58.9560 C   0  0  0  0  0  0  0  0  0  0  0  0
  127.4830  123.3970   58.1090 C   0  0  0  0  0  0  0  0  0  0  0  0
  127.6120  122.6630   56.9260 C   0  0  0  0  0  0  0  0  0  0  0  0
  126.4840  122.3670   56.1650 C   0  0  0  0  0  0  0  0  0  0  0  0
  125.2300  122.7980   56.5940 C   0  0  0  0  0  0  0  0  0  0  0  0
  125.0930  123.5170   57.7790 C   0  0  0  0  0  0  0  0  0  0  0  0
  126.2200  123.8120   58.5410 C   0  0  0  0  0  0  0  0  0  0  0  0
  1  2  3  0
  2  3  1  0
  3  4  2  0
  4  5  1  0
  5  6  1  0
  5  7  1  0
  5  8  1  0
  4  9  1  0
  9 10  2  0
 10 11  1  0
 11 12  2  0
 12 13  1  0
 13 14  2  0
 14 15  1  0
 15 16  2  0
 10 17  1  0
 17 18  2  0
 18 19  1  0
 19 20  1  0
 20 21  1  0
 21 22  2  0
 21 23  1  0
 23 24  1  0
 24 25  1  0
 25 26  2  0
 26 27  1  0
 27 28  2  0
 28 29  1  0
 29 30  2  0
 18  3  1  0
 30 25  1  0
 16 11  1  0
M  END
>  <Binding energies>  (73) 
[-8.38]

>  <Ligand effiencies>  (73) 
[-0.2703225806451613]

>  <Interactions>  (73) 
["V-A:ASP:366:CG:3212, V-B:GLU:543:CD:9879, V-B:PRO:540:N:9855, H-B:ALA:541:N:9862, V-B:ALA:541:CB:9863, V-B:PRO:540:CA:9854, V-B:TYR:539:C:9838, V-A:LEU:475:CD2:4258, V-A:PRO:482:CG:4326, V-A:HIS:383:CE1:3393, V-A:ILE:369:CD1:3238, V-B:TYR:539:CD2:9845, V-B:TYR:539:CE2:9847, V-B:TYR:539:CB:9842, V-A:GLY:454:CA:4048, V-B:TYR:539:CG:9843, V-B:MET:535:CE:9806, V-B:TYR:539:CZ:9848, V-A:PRO:482:CB:4325, V-B:PRO:540:CB:9856, V-A:GLY:453:C:4041, V-B:TYR:539:CD1:9844, V-B:PRO:540:CD:9858, V-B:TYR:531:CE2:9764, V-B:LEU:363:CD1:8159, V-B:ILE:538:CA:9831, V-A:GLY:453:CA:4043, V-B:TYR:539:CE1:9846"]

$$$$
3bc_Grossjean_2025
     RDKit          3D

 28 30  0  0  0  0  0  0  0  0999 V2000
  125.0960  122.3710   55.5230 C   0  0  0  0  0  0  0  0  0  0  0  0
  126.4560  122.3250   55.9380 O   0  0  0  0  0  0  0  0  0  0  0  0
  126.7770  122.6840   57.2340 C   0  0  0  0  0  0  0  0  0  0  0  0
  128.0750  122.3950   57.6550 C   0  0  0  0  0  0  0  0  0  0  0  0
  128.4910  122.7180   58.9440 C   0  0  0  0  0  0  0  0  0  0  0  0
  127.6080  123.3310   59.8350 C   0  0  0  0  0  0  0  0  0  0  0  0
  128.1210  123.6310   61.1100 N   0  0  0  0  0  0  0  0  0  0  0  0
  127.5220  123.5310   62.3160 C   0  0  0  0  0  0  0  0  0  0  0  0
  126.3810  123.1010   62.4980 O   0  0  0  0  0  0  0  0  0  0  0  0
  128.3930  123.9630   63.5040 C   0  0  0  0  0  0  0  0  0  0  0  0
  129.3410  122.6220   64.2990 S   0  0  0  0  0  0  0  0  0  0  0  0
  130.8560  122.4140   63.3910 C   0  0  0  0  0  0  0  0  0  0  0  0
  130.8700  121.3160   62.5960 N   0  0  0  0  0  0  0  0  0  0  0  0
  131.9670  121.0390   61.8440 C   0  0  0  0  0  0  0  0  0  0  0  0
  131.9090  119.7940   61.0080 C   0  0  0  0  0  0  0  0  0  0  0  0
  130.8450  118.8900   61.1420 C   0  0  0  0  0  0  0  0  0  0  0  0
  130.7850  117.7330   60.3690 C   0  0  0  0  0  0  0  0  0  0  0  0
  131.7940  117.4640   59.4500 C   0  0  0  0  0  0  0  0  0  0  0  0
  132.8620  118.3430   59.3000 C   0  0  0  0  0  0  0  0  0  0  0  0
  132.9180  119.4980   60.0760 C   0  0  0  0  0  0  0  0  0  0  0  0
  133.0900  121.8710   61.8760 C   0  0  0  0  0  0  0  0  0  0  0  0
  133.0830  123.0210   62.6740 C   0  0  0  0  0  0  0  0  0  0  0  0
  134.3250  123.9110   62.6650 C   0  0  0  0  0  0  0  0  0  0  0  0
  131.9410  123.3190   63.4480 C   0  0  0  0  0  0  0  0  0  0  0  0
  131.8930  124.5420   64.2520 C   0  0  0  0  0  0  0  0  0  0  0  0
  131.8580  125.5080   64.8870 N   0  0  0  0  0  0  0  0  0  0  0  0
  126.3050  123.6370   59.4150 C   0  0  0  0  0  0  0  0  0  0  0  0
  125.8930  123.3120   58.1250 C   0  0  0  0  0  0  0  0  0  0  0  0
  1  2  1  0
  2  3  1  0
  3  4  2  0
  4  5  1  0
  5  6  2  0
  6  7  1  0
  7  8  1  0
  8  9  2  0
  8 10  1  0
 10 11  1  0
 11 12  1  0
 12 13  2  0
 13 14  1  0
 14 15  1  0
 15 16  2  0
 16 17  1  0
 17 18  2  0
 18 19  1  0
 19 20  2  0
 14 21  2  0
 21 22  1  0
 22 23  1  0
 22 24  2  0
 24 25  1  0
 25 26  3  0
  6 27  1  0
 27 28  2  0
 28  3  1  0
 24 12  1  0
 20 15  1  0
M  END
>  <Binding energies>  (74) 
[-9.71]

>  <Ligand effiencies>  (74) 
[-0.33482758620689657]

>  <Interactions>  (74) 
["V-B:GLU:543:CD:9879, V-B:PRO:540:N:9855, H-B:ALA:541:N:9862, H-A:TYR:484:OH:4347, V-B:PRO:540:CA:9854, V-B:TYR:539:C:9838, V-A:LEU:475:CD2:4258, V-A:HIS:383:CE1:3393, V-A:ILE:369:CD1:3238, V-B:TYR:539:CD2:9845, V-A:ILE:369:CG2:3236, V-B:TYR:539:CE2:9847, V-B:TYR:539:CB:9842, V-A:SER:385:CA:3406, V-A:GLY:454:CA:4048, H-B:TYR:539:N:9841, V-B:TYR:539:CG:9843, V-B:MET:535:CE:9806, V-B:TYR:539:CZ:9848, V-B:GLU:543:CG:9878, V-B:PRO:540:CB:9856, V-B:TYR:539:CA:9840, V-A:GLY:453:C:4041, V-B:TYR:539:CD1:9844, V-B:PRO:540:CD:9858, V-B:TYR:531:CE2:9764, V-B:LEU:363:CD1:8159, V-B:ILE:538:CD1:9836, V-B:ILE:538:CG2:9834, V-B:ILE:538:CA:9831, V-B:TYR:539:CE1:9846, V-B:ILE:538:CB:9833, V-A:LEU:373:CG:3278, V-A:LEU:373:CD2:3280, V-B:MET:535:CG:9804"]

$$$$
3bd_Grossjean_2025
     RDKit          3D

 26 28  0  0  0  0  0  0  0  0999 V2000
  134.0140  123.7650   62.9940 C   0  0  0  0  0  0  0  0  0  0  0  0
  132.7510  122.9230   62.8260 C   0  0  0  0  0  0  0  0  0  0  0  0
  132.8300  121.7550   62.0590 C   0  0  0  0  0  0  0  0  0  0  0  0
  131.6940  120.9590   61.8780 C   0  0  0  0  0  0  0  0  0  0  0  0
  131.7110  119.6940   61.0720 C   0  0  0  0  0  0  0  0  0  0  0  0
  132.7790  119.4090   60.2060 C   0  0  0  0  0  0  0  0  0  0  0  0
  132.8000  118.2370   59.4540 C   0  0  0  0  0  0  0  0  0  0  0  0
  131.7480  117.3320   59.5560 C   0  0  0  0  0  0  0  0  0  0  0  0
  130.6770  117.5920   60.4040 C   0  0  0  0  0  0  0  0  0  0  0  0
  130.6590  118.7650   61.1540 C   0  0  0  0  0  0  0  0  0  0  0  0
  130.5100  121.2970   62.4520 N   0  0  0  0  0  0  0  0  0  0  0  0
  130.4140  122.4260   63.1990 C   0  0  0  0  0  0  0  0  0  0  0  0
  128.8020  122.7630   63.8870 S   0  0  0  0  0  0  0  0  0  0  0  0
  128.0250  124.0690   62.8890 C   0  0  0  0  0  0  0  0  0  0  0  0
  127.2660  123.4990   61.6900 C   0  0  0  0  0  0  0  0  0  0  0  0
  126.2300  122.8620   61.8860 O   0  0  0  0  0  0  0  0  0  0  0  0
  127.8170  123.7370   60.4800 N   0  0  0  0  0  0  0  0  0  0  0  0
  127.3470  123.3710   59.2050 C   0  0  0  0  0  0  0  0  0  0  0  0
  126.0110  123.6750   58.9320 C   0  0  0  0  0  0  0  0  0  0  0  0
  125.4550  123.3430   57.6990 C   0  0  0  0  0  0  0  0  0  0  0  0
  126.2320  122.6960   56.7430 C   0  0  0  0  0  0  0  0  0  0  0  0
  127.5610  122.3750   57.0090 C   0  0  0  0  0  0  0  0  0  0  0  0
  128.1200  122.7070   58.2390 C   0  0  0  0  0  0  0  0  0  0  0  0
  131.5180  123.2780   63.4140 C   0  0  0  0  0  0  0  0  0  0  0  0
  131.4020  124.4940   64.2250 C   0  0  0  0  0  0  0  0  0  0  0  0
  131.3130  125.4540   64.8660 N   0  0  0  0  0  0  0  0  0  0  0  0
  1  2  1  0
  2  3  2  0
  3  4  1  0
  4  5  1  0
  5  6  2  0
  6  7  1  0
  7  8  2  0
  8  9  1  0
  9 10  2  0
  4 11  2  0
 11 12  1  0
 12 13  1  0
 13 14  1  0
 14 15  1  0
 15 16  2  0
 15 17  1  0
 17 18  1  0
 18 19  2  0
 19 20  1  0
 20 21  2  0
 21 22  1  0
 22 23  2  0
 12 24  2  0
 24 25  1  0
 25 26  3  0
 24  2  1  0
 10  5  1  0
 23 18  1  0
M  END
>  <Binding energies>  (75) 
[-9.01]

>  <Ligand effiencies>  (75) 
[-0.33370370370370367]

>  <Interactions>  (75) 
["V-B:GLU:543:CD:9879, V-B:PRO:540:N:9855, H-B:ALA:541:N:9862, H-A:TYR:484:OH:4347, V-B:ALA:541:CB:9863, V-B:PRO:540:CA:9854, V-B:TYR:539:C:9838, V-A:LEU:475:CD2:4258, V-A:HIS:383:CE1:3393, V-A:ILE:369:CD1:3238, V-B:TYR:539:CD2:9845, V-A:ILE:369:CG2:3236, V-B:TYR:539:CE2:9847, V-B:TYR:539:CB:9842, V-A:GLY:454:CA:4048, V-B:TYR:539:CG:9843, V-B:MET:535:CE:9806, V-B:TYR:539:CZ:9848, V-B:PRO:540:CB:9856, V-B:TYR:539:CA:9840, V-A:GLY:453:C:4041, V-B:TYR:539:CD1:9844, V-B:PRO:540:CD:9858, V-B:TYR:539:CE1:9846, V-A:LEU:373:CD2:3280"]

$$$$
3be_Grossjean_2025
     RDKit          3D

 27 29  0  0  0  0  0  0  0  0999 V2000
  124.3520  123.8750   58.0840 C   0  0  0  0  0  0  0  0  0  0  0  0
  125.7810  123.4570   58.3680 C   0  0  0  0  0  0  0  0  0  0  0  0
  126.5590  122.8090   57.4040 C   0  0  0  0  0  0  0  0  0  0  0  0
  127.8660  122.4510   57.7360 C   0  0  0  0  0  0  0  0  0  0  0  0
  128.3600  122.7460   59.0090 C   0  0  0  0  0  0  0  0  0  0  0  0
  127.5290  123.4000   59.9260 C   0  0  0  0  0  0  0  0  0  0  0  0
  128.0810  123.6600   61.1940 N   0  0  0  0  0  0  0  0  0  0  0  0
  127.5150  123.5040   62.4110 C   0  0  0  0  0  0  0  0  0  0  0  0
  126.3680  123.0950   62.6020 O   0  0  0  0  0  0  0  0  0  0  0  0
  128.4210  123.8790   63.5940 C   0  0  0  0  0  0  0  0  0  0  0  0
  129.3860  122.5000   64.3000 S   0  0  0  0  0  0  0  0  0  0  0  0
  130.9060  122.3640   63.3850 C   0  0  0  0  0  0  0  0  0  0  0  0
  130.9580  121.2760   62.5770 N   0  0  0  0  0  0  0  0  0  0  0  0
  132.0620  121.0500   61.8160 C   0  0  0  0  0  0  0  0  0  0  0  0
  132.0450  119.8170   60.9610 C   0  0  0  0  0  0  0  0  0  0  0  0
  131.0200  118.8670   61.0910 C   0  0  0  0  0  0  0  0  0  0  0  0
  131.0000  117.7210   60.3030 C   0  0  0  0  0  0  0  0  0  0  0  0
  132.0090  117.5070   59.3700 C   0  0  0  0  0  0  0  0  0  0  0  0
  133.0370  118.4310   59.2220 C   0  0  0  0  0  0  0  0  0  0  0  0
  133.0540  119.5760   60.0130 C   0  0  0  0  0  0  0  0  0  0  0  0
  133.1530  121.9250   61.8560 C   0  0  0  0  0  0  0  0  0  0  0  0
  133.1050  123.0640   62.6660 C   0  0  0  0  0  0  0  0  0  0  0  0
  134.3130  124.0000   62.6640 C   0  0  0  0  0  0  0  0  0  0  0  0
  131.9550  123.3090   63.4470 C   0  0  0  0  0  0  0  0  0  0  0  0
  131.8620  124.5240   64.2590 C   0  0  0  0  0  0  0  0  0  0  0  0
  131.7910  125.4850   64.9010 N   0  0  0  0  0  0  0  0  0  0  0  0
  126.2480  123.7500   59.6080 N   0  0  0  0  0  0  0  0  0  0  0  0
  1  2  1  0
  2  3  2  0
  3  4  1  0
  4  5  2  0
  5  6  1  0
  6  7  1  0
  7  8  1  0
  8  9  2  0
  8 10  1  0
 10 11  1  0
 11 12  1  0
 12 13  2  0
 13 14  1  0
 14 15  1  0
 15 16  2  0
 16 17  1  0
 17 18  2  0
 18 19  1  0
 19 20  2  0
 14 21  2  0
 21 22  1  0
 22 23  1  0
 22 24  2  0
 24 25  1  0
 25 26  3  0
  6 27  2  0
 27  2  1  0
 24 12  1  0
 20 15  1  0
M  END
>  <Binding energies>  (76) 
[-9.13]

>  <Ligand effiencies>  (76) 
[-0.3260714285714286]

>  <Interactions>  (76) 
["V-A:ASP:366:CG:3212, V-B:GLU:543:CD:9879, V-B:PRO:540:N:9855, H-B:ALA:541:N:9862, H-A:TYR:484:OH:4347, V-B:PRO:540:CA:9854, V-B:TYR:539:C:9838, V-A:LEU:475:CD2:4258, V-A:HIS:383:CE1:3393, V-A:ILE:369:CD1:3238, V-B:TYR:539:CD2:9845, V-A:ILE:369:CG2:3236, V-B:TYR:539:CE2:9847, V-B:TYR:539:CB:9842, V-A:SER:385:CA:3406, V-A:GLY:454:CA:4048, V-B:TYR:539:CG:9843, V-B:TYR:539:CZ:9848, V-B:GLU:543:CG:9878, V-B:PRO:540:CB:9856, V-B:TYR:539:CA:9840, V-A:GLY:453:C:4041, V-B:TYR:539:CD1:9844, V-B:PRO:540:CD:9858, V-B:LEU:363:CD1:8159, V-A:LEU:373:CG:3278, V-A:LEU:373:CD2:3280"]

$$$$
3bf_Grossjean_2025
     RDKit          3D

 26 28  0  0  0  0  0  0  0  0999 V2000
  134.0010  123.5800   62.9670 C   0  0  0  0  0  0  0  0  0  0  0  0
  132.7160  122.7890   62.7310 C   0  0  0  0  0  0  0  0  0  0  0  0
  132.7960  121.6140   61.9770 C   0  0  0  0  0  0  0  0  0  0  0  0
  131.6450  120.8500   61.7490 C   0  0  0  0  0  0  0  0  0  0  0  0
  131.6670  119.5700   60.9690 C   0  0  0  0  0  0  0  0  0  0  0  0
  132.7200  119.2890   60.0840 C   0  0  0  0  0  0  0  0  0  0  0  0
  132.7470  118.1020   59.3560 C   0  0  0  0  0  0  0  0  0  0  0  0
  131.7170  117.1790   59.5040 C   0  0  0  0  0  0  0  0  0  0  0  0
  130.6630  117.4340   60.3740 C   0  0  0  0  0  0  0  0  0  0  0  0
  130.6380  118.6220   61.0990 C   0  0  0  0  0  0  0  0  0  0  0  0
  130.4420  121.2350   62.2510 N   0  0  0  0  0  0  0  0  0  0  0  0
  130.3450  122.3860   62.9620 C   0  0  0  0  0  0  0  0  0  0  0  0
  128.6950  122.7330   63.5340 S   0  0  0  0  0  0  0  0  0  0  0  0
  127.9810  124.0200   62.4550 C   0  0  0  0  0  0  0  0  0  0  0  0
  127.0850  123.4990   61.3220 C   0  0  0  0  0  0  0  0  0  0  0  0
  125.9370  123.1150   61.5540 O   0  0  0  0  0  0  0  0  0  0  0  0
  127.6500  123.5340   60.0960 N   0  0  0  0  0  0  0  0  0  0  0  0
  127.1100  123.1240   58.8630 C   0  0  0  0  0  0  0  0  0  0  0  0
  125.7970  123.5160   58.5780 C   0  0  0  0  0  0  0  0  0  0  0  0
  125.2090  123.1520   57.3650 C   0  0  0  0  0  0  0  0  0  0  0  0
  125.9610  122.4040   56.4590 C   0  0  0  0  0  0  0  0  0  0  0  0
  127.2390  122.0190   56.7030 N   0  0  0  0  0  0  0  0  0  0  0  0
  127.7970  122.3800   57.8870 C   0  0  0  0  0  0  0  0  0  0  0  0
  131.4670  123.1950   63.2470 C   0  0  0  0  0  0  0  0  0  0  0  0
  131.3700  124.3960   64.0810 C   0  0  0  0  0  0  0  0  0  0  0  0
  131.2950  125.3460   64.7380 N   0  0  0  0  0  0  0  0  0  0  0  0
  1  2  1  0
  2  3  2  0
  3  4  1  0
  4  5  1  0
  5  6  2  0
  6  7  1  0
  7  8  2  0
  8  9  1  0
  9 10  2  0
  4 11  2  0
 11 12  1  0
 12 13  1  0
 13 14  1  0
 14 15  1  0
 15 16  2  0
 15 17  1  0
 17 18  1  0
 18 19  2  0
 19 20  1  0
 20 21  2  0
 21 22  1  0
 22 23  2  0
 12 24  2  0
 24 25  1  0
 25 26  3  0
 24  2  1  0
 10  5  1  0
 23 18  1  0
M  END
>  <Binding energies>  (77) 
[-9.27]

>  <Ligand effiencies>  (77) 
[-0.3433333333333333]

>  <Interactions>  (77) 
["V-B:GLU:543:CD:9879, V-B:PRO:540:N:9855, H-B:ALA:541:N:9862, H-A:TYR:484:OH:4347, V-B:ALA:541:CB:9863, V-B:PRO:540:CA:9854, V-B:TYR:539:C:9838, V-A:LEU:475:CD2:4258, V-A:HIS:383:CE1:3393, V-A:ILE:369:CD1:3238, V-B:TYR:539:CD2:9845, V-A:ILE:369:CG2:3236, V-B:TYR:539:CE2:9847, V-B:TYR:539:CB:9842, V-A:GLY:454:CA:4048, H-B:TYR:539:N:9841, V-B:TYR:539:CG:9843, V-B:MET:535:CE:9806, V-B:PRO:540:CB:9856, V-B:TYR:539:CA:9840, V-A:GLY:453:C:4041, V-B:PRO:540:CD:9858, V-B:LEU:363:CD1:8159, V-A:LEU:373:CD2:3280, V-A:HIS:383:CG:3389"]

$$$$
3bg_Grossjean_2025
     RDKit          3D

 27 29  0  0  0  0  0  0  0  0999 V2000
  134.7570  124.2320   62.6510 C   0  0  0  0  0  0  0  0  0  0  0  0
  133.5560  123.2950   62.7570 C   0  0  0  0  0  0  0  0  0  0  0  0
  133.5130  122.1770   61.9200 C   0  0  0  0  0  0  0  0  0  0  0  0
  132.4330  121.2870   61.9900 C   0  0  0  0  0  0  0  0  0  0  0  0
  132.3310  120.0600   61.1270 C   0  0  0  0  0  0  0  0  0  0  0  0
  133.3210  119.7590   60.1770 C   0  0  0  0  0  0  0  0  0  0  0  0
  133.2400  118.6150   59.3880 C   0  0  0  0  0  0  0  0  0  0  0  0
  132.1610  117.7500   59.5350 C   0  0  0  0  0  0  0  0  0  0  0  0
  131.1600  118.0290   60.4580 C   0  0  0  0  0  0  0  0  0  0  0  0
  131.2440  119.1750   61.2430 C   0  0  0  0  0  0  0  0  0  0  0  0
  131.4270  121.4910   62.8830 N   0  0  0  0  0  0  0  0  0  0  0  0
  131.4550  122.5710   63.7050 C   0  0  0  0  0  0  0  0  0  0  0  0
  130.0920  122.7040   64.8530 S   0  0  0  0  0  0  0  0  0  0  0  0
  128.8240  123.7830   64.1120 C   0  0  0  0  0  0  0  0  0  0  0  0
  128.1590  123.1300   62.8970 C   0  0  0  0  0  0  0  0  0  0  0  0
  126.9380  122.9780   62.8740 O   0  0  0  0  0  0  0  0  0  0  0  0
  128.9790  122.7290   61.9090 N   0  0  0  0  0  0  0  0  0  0  0  0
  128.5840  121.9270   60.7510 C   0  0  0  0  0  0  0  0  0  0  0  0
  127.8990  122.7720   59.6840 C   0  0  0  0  0  0  0  0  0  0  0  0
  127.1290  123.8790   60.0550 C   0  0  0  0  0  0  0  0  0  0  0  0
  126.4960  124.6450   59.0810 C   0  0  0  0  0  0  0  0  0  0  0  0
  126.6430  124.3100   57.7360 C   0  0  0  0  0  0  0  0  0  0  0  0
  127.4250  123.2210   57.3570 C   0  0  0  0  0  0  0  0  0  0  0  0
  128.0580  122.4540   58.3320 C   0  0  0  0  0  0  0  0  0  0  0  0
  132.5040  123.5130   63.6720 C   0  0  0  0  0  0  0  0  0  0  0  0
  132.5240  124.6720   64.5680 C   0  0  0  0  0  0  0  0  0  0  0  0
  132.5420  125.5870   65.2750 N   0  0  0  0  0  0  0  0  0  0  0  0
  1  2  1  0
  2  3  2  0
  3  4  1  0
  4  5  1  0
  5  6  2  0
  6  7  1  0
  7  8  2  0
  8  9  1  0
  9 10  2  0
  4 11  2  0
 11 12  1  0
 12 13  1  0
 13 14  1  0
 14 15  1  0
 15 16  2  0
 15 17  1  0
 17 18  1  0
 18 19  1  0
 19 20  2  0
 20 21  1  0
 21 22  2  0
 22 23  1  0
 23 24  2  0
 12 25  2  0
 25 26  1  0
 26 27  3  0
 25  2  1  0
 10  5  1  0
 24 19  1  0
M  END
>  <Binding energies>  (78) 
[-8.35]

>  <Ligand effiencies>  (78) 
[-0.2982142857142857]

>  <Interactions>  (78) 
["V-A:ASP:366:CG:3212, V-B:GLU:543:CD:9879, V-B:PRO:540:N:9855, H-B:ALA:541:N:9862, H-A:TYR:484:OH:4347, V-B:ALA:541:CB:9863, V-B:PRO:540:CA:9854, V-B:PRO:540:C:9852, V-B:TYR:539:C:9838, V-A:LEU:475:CD2:4258, V-A:HIS:383:CE1:3393, V-A:ILE:369:CD1:3238, V-B:TYR:539:CD2:9845, V-A:ILE:369:CG2:3236, V-B:TYR:539:CE2:9847, V-B:TYR:539:CB:9842, V-A:SER:385:CA:3406, V-A:GLY:454:CA:4048, V-B:TYR:539:CG:9843, V-B:MET:535:CE:9806, V-B:GLU:543:CG:9878, V-A:GLY:453:C:4041, V-A:GLY:453:CA:4043, V-A:LEU:373:CG:3278, V-A:LEU:373:CD2:3280, V-A:VAL:384:C:3396"]

$$$$
3ca_Grossjean_2025
     RDKit          3D

 31 33  0  0  0  0  0  0  0  0999 V2000
  124.9500  129.1430   62.5450 C   0  0  0  0  0  0  0  0  0  0  0  0
  123.6790  129.7990   63.0900 C   0  0  0  0  0  0  0  0  0  0  0  0
  123.7430  129.8480   64.5110 O   0  0  0  0  0  0  0  0  0  0  0  0
  124.7310  130.5280   65.1450 C   0  0  0  0  0  0  0  0  0  0  0  0
  125.0600  131.6820   64.8510 O   0  0  0  0  0  0  0  0  0  0  0  0
  125.3830  129.7400   66.2450 C   0  0  0  0  0  0  0  0  0  0  0  0
  126.7780  129.6260   66.2710 C   0  0  0  0  0  0  0  0  0  0  0  0
  127.4110  128.9020   67.2780 C   0  0  0  0  0  0  0  0  0  0  0  0
  126.6630  128.2720   68.2730 C   0  0  0  0  0  0  0  0  0  0  0  0
  127.4020  127.5680   69.2430 N   0  0  0  0  0  0  0  0  0  0  0  0
  126.9720  126.8830   70.3250 C   0  0  0  0  0  0  0  0  0  0  0  0
  125.7960  126.7350   70.6530 O   0  0  0  0  0  0  0  0  0  0  0  0
  128.0750  126.2370   71.1710 C   0  0  0  0  0  0  0  0  0  0  0  0
  128.0730  126.8020   72.9050 S   0  0  0  0  0  0  0  0  0  0  0  0
  129.4940  126.1360   73.7620 C   0  0  0  0  0  0  0  0  0  0  0  0
  129.4720  124.7970   73.9830 N   0  0  0  0  0  0  0  0  0  0  0  0
  130.5230  124.2220   74.6080 C   0  0  0  0  0  0  0  0  0  0  0  0
  130.4320  122.7220   74.8020 C   0  0  0  0  0  0  0  0  0  0  0  0
  131.6240  124.9520   75.0490 C   0  0  0  0  0  0  0  0  0  0  0  0
  131.6620  126.3380   74.8480 C   0  0  0  0  0  0  0  0  0  0  0  0
  132.8570  127.0820   75.3500 C   0  0  0  0  0  0  0  0  0  0  0  0
  133.9960  127.2070   74.5450 C   0  0  0  0  0  0  0  0  0  0  0  0
  135.1170  127.8900   75.0080 C   0  0  0  0  0  0  0  0  0  0  0  0
  135.1060  128.4480   76.2840 C   0  0  0  0  0  0  0  0  0  0  0  0
  133.9840  128.3270   77.1000 C   0  0  0  0  0  0  0  0  0  0  0  0
  132.8640  127.6420   76.6340 C   0  0  0  0  0  0  0  0  0  0  0  0
  130.5730  126.9520   74.1780 C   0  0  0  0  0  0  0  0  0  0  0  0
  130.5800  128.3910   73.8940 C   0  0  0  0  0  0  0  0  0  0  0  0
  130.5870  129.5270   73.6710 N   0  0  0  0  0  0  0  0  0  0  0  0
  125.2650  128.3880   68.2600 C   0  0  0  0  0  0  0  0  0  0  0  0
  124.6340  129.1150   67.2530 C   0  0  0  0  0  0  0  0  0  0  0  0
  1  2  1  0
  2  3  1  0
  3  4  1  0
  4  5  2  0
  4  6  1  0
  6  7  2  0
  7  8  1  0
  8  9  2  0
  9 10  1  0
 10 11  1  0
 11 12  2  0
 11 13  1  0
 13 14  1  0
 14 15  1  0
 15 16  2  0
 16 17  1  0
 17 18  1  0
 17 19  2  0
 19 20  1  0
 20 21  1  0
 21 22  2  0
 22 23  1  0
 23 24  2  0
 24 25  1  0
 25 26  2  0
 20 27  2  0
 27 28  1  0
 28 29  3  0
  9 30  1  0
 30 31  2  0
 31  6  1  0
 27 15  1  0
 26 21  1  0
M  END
>  <Binding energies>  (79) 
[-8.44]

>  <Ligand effiencies>  (79) 
[-0.26375]

>  <Interactions>  (79) 
["V-B:GLU:543:CD:9879, H-B:GLU:543:OE2:9881, V-A:HIS:456:CE1:4069, V-B:GLU:543:CB:9877, V-B:HIS:456:CE1:9040, H-B:LYS:547:NZ:9922, V-A:HIS:456:CD2:4067, V-B:ARG:545:CD:9894, V-B:GLU:543:C:9873, V-B:ARG:545:CG:9893, H-A:LYS:547:NZ:4950, V-A:LYS:547:CE:4949, H-B:ARG:545:N:9891, H-B:ARG:545:NH2:9899, H-B:TYR:484:OH:9318, V-B:GLY:544:C:9883, V-B:ASP:366:CG:8183, V-B:ARG:545:CZ:9897, V-A:HIS:456:CB:4064, V-A:VAL:457:C:4072, V-A:HIS:456:CA:4062, V-A:LYS:547:CD:4948, V-A:HIS:456:CG:4065, V-A:VAL:458:CG2:4086, H-B:HIS:456:ND1:9037, V-B:GLY:454:CA:9019, H-B:GLY:454:N:9020, H-B:ARG:545:NH1:9898, V-A:LYS:547:CG:4947, V-A:LYS:547:CB:4946, V-A:ARG:545:C:4916"]

$$$$
3ce_Grossjean_2025
     RDKit          3D

 27 29  0  0  0  0  0  0  0  0999 V2000
  133.7000  118.9980   59.2500 C   0  0  0  0  0  0  0  0  0  0  0  0
  132.4460  118.6760   60.0410 C   0  0  0  0  0  0  0  0  0  0  0  0
  132.0300  117.3580   60.2470 C   0  0  0  0  0  0  0  0  0  0  0  0
  130.8720  117.1370   60.9920 C   0  0  0  0  0  0  0  0  0  0  0  0
  130.1650  118.2250   61.5090 C   0  0  0  0  0  0  0  0  0  0  0  0
  130.6310  119.5200   61.2560 C   0  0  0  0  0  0  0  0  0  0  0  0
  129.8910  120.5750   61.8160 N   0  0  0  0  0  0  0  0  0  0  0  0
  130.3200  121.5440   62.6550 C   0  0  0  0  0  0  0  0  0  0  0  0
  131.4750  121.6600   63.0690 O   0  0  0  0  0  0  0  0  0  0  0  0
  129.2640  122.5580   63.0910 C   0  0  0  0  0  0  0  0  0  0  0  0
  129.7000  124.2500   62.5940 S   0  0  0  0  0  0  0  0  0  0  0  0
  129.5200  124.2960   60.8260 C   0  0  0  0  0  0  0  0  0  0  0  0
  130.6030  124.7830   60.1740 N   0  0  0  0  0  0  0  0  0  0  0  0
  130.5730  124.8430   58.8220 C   0  0  0  0  0  0  0  0  0  0  0  0
  131.8220  125.3860   58.1570 C   0  0  0  0  0  0  0  0  0  0  0  0
  129.4670  124.4370   58.0790 C   0  0  0  0  0  0  0  0  0  0  0  0
  128.3280  123.9550   58.7360 C   0  0  0  0  0  0  0  0  0  0  0  0
  127.1590  123.5550   57.8970 C   0  0  0  0  0  0  0  0  0  0  0  0
  125.8890  124.0830   58.1630 C   0  0  0  0  0  0  0  0  0  0  0  0
  124.7930  123.7110   57.3890 C   0  0  0  0  0  0  0  0  0  0  0  0
  124.9600  122.8010   56.3480 C   0  0  0  0  0  0  0  0  0  0  0  0
  126.2140  122.2590   56.0780 C   0  0  0  0  0  0  0  0  0  0  0  0
  127.3080  122.6340   56.8520 C   0  0  0  0  0  0  0  0  0  0  0  0
  128.3490  123.8750   60.1510 C   0  0  0  0  0  0  0  0  0  0  0  0
  127.1920  123.3640   60.8930 C   0  0  0  0  0  0  0  0  0  0  0  0
  126.2780  122.9610   61.4770 N   0  0  0  0  0  0  0  0  0  0  0  0
  131.7680  119.7440   60.5330 N   0  0  0  0  0  0  0  0  0  0  0  0
  1  2  1  0
  2  3  2  0
  3  4  1  0
  4  5  2  0
  5  6  1  0
  6  7  1  0
  7  8  1  0
  8  9  2  0
  8 10  1  0
 10 11  1  0
 11 12  1  0
 12 13  2  0
 13 14  1  0
 14 15  1  0
 14 16  2  0
 16 17  1  0
 17 18  1  0
 18 19  2  0
 19 20  1  0
 20 21  2  0
 21 22  1  0
 22 23  2  0
 17 24  2  0
 24 25  1  0
 25 26  3  0
  6 27  2  0
 27  2  1  0
 24 12  1  0
 23 18  1  0
M  END
>  <Binding energies>  (80) 
[-8.92]

>  <Ligand effiencies>  (80) 
[-0.31857142857142856]

>  <Interactions>  (80) 
["V-A:ASP:366:CB:3211, V-B:PRO:540:N:9855, H-B:ALA:541:N:9862, V-B:ALA:541:CB:9863, V-B:PRO:540:CA:9854, V-B:TYR:539:C:9838, V-A:LEU:475:CD2:4258, V-A:PRO:482:CG:4326, V-A:HIS:383:CE1:3393, H-B:TYR:539:O:9839, V-B:TYR:539:CD2:9845, V-A:ILE:369:CG2:3236, V-B:TYR:539:CE2:9847, V-A:SER:385:CA:3406, V-B:MET:535:CE:9806, V-B:TYR:539:CZ:9848, V-A:PRO:482:CB:4325, V-B:PRO:540:CB:9856, V-B:TYR:531:CZ:9765, V-B:PRO:540:CD:9858, V-B:TYR:531:CE2:9764, V-B:LEU:363:CD1:8159, V-B:ILE:538:CA:9831, V-B:ILE:538:C:9829, V-A:LEU:373:CG:3278, V-A:LEU:373:CD2:3280, V-A:VAL:384:C:3396"]

$$$$
3cj_Grossjean_2025
     RDKit          3D

 25 27  0  0  0  0  0  0  0  0999 V2000
  129.5200  121.6350   62.4700 C   0  0  0  0  0  0  0  0  0  0  0  0
  129.5240  122.4330   61.1810 C   0  0  0  0  0  0  0  0  0  0  0  0
  128.4570  122.3780   60.2870 C   0  0  0  0  0  0  0  0  0  0  0  0
  128.4930  123.1510   59.1180 C   0  0  0  0  0  0  0  0  0  0  0  0
  127.3010  123.1110   58.2210 C   0  0  0  0  0  0  0  0  0  0  0  0
  127.3510  122.4240   57.0030 C   0  0  0  0  0  0  0  0  0  0  0  0
  126.2420  122.3980   56.1610 C   0  0  0  0  0  0  0  0  0  0  0  0
  125.0790  123.0650   56.5330 C   0  0  0  0  0  0  0  0  0  0  0  0
  125.0170  123.7610   57.7380 C   0  0  0  0  0  0  0  0  0  0  0  0
  126.1270  123.7850   58.5780 C   0  0  0  0  0  0  0  0  0  0  0  0
  129.6400  123.9440   58.8690 C   0  0  0  0  0  0  0  0  0  0  0  0
  129.7490  124.7520   57.6500 C   0  0  0  0  0  0  0  0  0  0  0  0
  129.8340  125.3910   56.6880 N   0  0  0  0  0  0  0  0  0  0  0  0
  130.6730  123.9430   59.8330 C   0  0  0  0  0  0  0  0  0  0  0  0
  132.1050  124.9940   59.7090 S   0  0  0  0  0  0  0  0  0  0  0  0
  133.4360  124.0700   60.5410 C   0  0  0  0  0  0  0  0  0  0  0  0
  133.2440  124.0360   62.0610 C   0  0  0  0  0  0  0  0  0  0  0  0
  133.2970  122.9580   62.6560 O   0  0  0  0  0  0  0  0  0  0  0  0
  133.0620  125.2390   62.6480 N   0  0  0  0  0  0  0  0  0  0  0  0
  133.0000  125.4950   64.0080 C   0  0  0  0  0  0  0  0  0  0  0  0
  133.9760  125.4360   64.8870 N   0  0  0  0  0  0  0  0  0  0  0  0
  133.5630  125.7750   66.0920 C   0  0  0  0  0  0  0  0  0  0  0  0
  132.2190  126.1190   66.2090 C   0  0  0  0  0  0  0  0  0  0  0  0
  131.4640  125.9870   64.6480 S   0  0  0  0  0  0  0  0  0  0  0  0
  130.6110  123.2090   60.9720 N   0  0  0  0  0  0  0  0  0  0  0  0
  1  2  1  0
  2  3  2  0
  3  4  1  0
  4  5  1  0
  5  6  2  0
  6  7  1  0
  7  8  2  0
  8  9  1  0
  9 10  2  0
  4 11  2  0
 11 12  1  0
 12 13  3  0
 11 14  1  0
 14 15  1  0
 15 16  1  0
 16 17  1  0
 17 18  2  0
 17 19  1  0
 19 20  1  0
 20 21  2  0
 21 22  1  0
 22 23  2  0
 23 24  1  0
 14 25  2  0
 25  2  1  0
 10  5  1  0
 24 20  1  0
M  END
>  <Binding energies>  (81) 
[-8.18]

>  <Ligand effiencies>  (81) 
[-0.31461538461538463]

>  <Interactions>  (81) 
["V-A:ASP:366:CG:3212, V-B:PRO:540:N:9855, H-A:TYR:484:OH:4347, V-B:ALA:541:CB:9863, V-B:PRO:540:CA:9854, V-B:ALA:541:CA:9861, V-B:TYR:539:C:9838, V-A:ILE:369:CD1:3238, V-B:TYR:539:CD2:9845, V-A:ILE:369:CG2:3236, V-B:TYR:539:CE2:9847, V-B:TYR:539:CG:9843, V-B:MET:535:CE:9806, H-B:TYR:539:OH:9849, V-B:TYR:539:CZ:9848, V-B:PRO:540:CB:9856, H-A:GLY:454:N:4049, V-B:TYR:539:CA:9840, V-A:ARG:545:CD:4922, V-B:TYR:539:CD1:9844, V-B:TYR:531:CZ:9765, V-B:PRO:540:CD:9858, V-B:TYR:531:CE2:9764, V-B:LEU:363:CD1:8159, V-A:ARG:545:CZ:4925, H-A:ASP:366:OD2:3214, H-A:ARG:545:NH1:4926, H-A:ARG:545:NH2:4927, V-B:ILE:538:CA:9831, H-A:ARG:545:NE:4923, H-A:ASP:366:OD1:3213"]

$$$$
4ba_Grossjean_2025
     RDKit          3D

 28 30  0  0  0  0  0  0  0  0999 V2000
  124.6300  122.4250   55.5720 C   0  0  0  0  0  0  0  0  0  0  0  0
  125.4360  122.7660   56.8400 C   0  0  0  0  0  0  0  0  0  0  0  0
  126.9620  122.5830   56.7140 C   0  0  0  0  0  0  0  0  0  0  0  0
  127.4260  122.0190   55.7200 O   0  0  0  0  0  0  0  0  0  0  0  0
  127.8230  123.1150   57.8230 C   0  0  0  0  0  0  0  0  0  0  0  0
  127.4780  122.8400   59.1520 C   0  0  0  0  0  0  0  0  0  0  0  0
  128.2580  123.3210   60.2000 C   0  0  0  0  0  0  0  0  0  0  0  0
  129.3980  124.0830   59.9420 C   0  0  0  0  0  0  0  0  0  0  0  0
  130.1070  124.5260   61.0750 N   0  0  0  0  0  0  0  0  0  0  0  0
  130.6120  125.7500   61.3640 C   0  0  0  0  0  0  0  0  0  0  0  0
  130.5570  126.7180   60.6040 O   0  0  0  0  0  0  0  0  0  0  0  0
  131.2740  125.8620   62.6660 C   0  0  0  0  0  0  0  0  0  0  0  0
  132.9590  125.3800   62.8480 S   0  0  0  0  0  0  0  0  0  0  0  0
  132.9290  125.7500   64.5560 C   0  0  0  0  0  0  0  0  0  0  0  0
  134.0050  125.5770   65.3220 N   0  0  0  0  0  0  0  0  0  0  0  0
  133.8600  125.8980   66.6290 C   0  0  0  0  0  0  0  0  0  0  0  0
  135.0950  125.6840   67.4860 C   0  0  0  0  0  0  0  0  0  0  0  0
  132.6790  126.3870   67.1800 C   0  0  0  0  0  0  0  0  0  0  0  0
  131.5420  126.5720   66.3770 C   0  0  0  0  0  0  0  0  0  0  0  0
  130.2660  127.1150   67.0280 C   0  0  0  0  0  0  0  0  0  0  0  0
  129.4820  127.7730   66.1720 F   0  0  0  0  0  0  0  0  0  0  0  0
  129.5510  126.1080   67.5310 F   0  0  0  0  0  0  0  0  0  0  0  0
  130.5860  127.9600   68.0090 F   0  0  0  0  0  0  0  0  0  0  0  0
  131.6600  126.2370   64.9950 C   0  0  0  0  0  0  0  0  0  0  0  0
  130.7310  126.2810   63.8920 C   0  0  0  0  0  0  0  0  0  0  0  0
  129.4320  126.6980   64.0350 N   0  0  0  0  0  0  0  0  0  0  0  0
  129.7460  124.3680   58.6140 C   0  0  0  0  0  0  0  0  0  0  0  0
  128.9650  123.8860   57.5660 C   0  0  0  0  0  0  0  0  0  0  0  0
  1  2  1  0
  2  3  1  0
  3  4  2  0
  3  5  1  0
  5  6  2  0
  6  7  1  0
  7  8  2  0
  8  9  1  0
  9 10  1  0
 10 11  2  0
 10 12  1  0
 12 13  1  0
 13 14  1  0
 14 15  2  0
 15 16  1  0
 16 17  1  0
 16 18  2  0
 18 19  1  0
 19 20  1  0
 20 21  1  0
 20 22  1  0
 20 23  1  0
 19 24  2  0
 24 25  1  0
 25 26  1  0
  8 27  1  0
 27 28  2  0
 28  5  1  0
 25 12  2  0
 24 14  1  0
M  END
>  <Binding energies>  (82) 
[-7.54]

>  <Ligand effiencies>  (82) 
[-0.2432258064516129]

>  <Interactions>  (82) 
["V-A:ASP:366:CG:3212, V-B:GLU:543:CD:9879, V-B:PRO:540:N:9855, H-A:TYR:484:OH:4347, V-B:PRO:540:CA:9854, H-B:GLU:543:OE2:9881, H-B:GLU:543:OE1:9880, V-B:TYR:539:C:9838, V-B:TYR:539:CD2:9845, V-B:TYR:539:CE2:9847, H-B:TYR:539:N:9841, V-B:MET:535:CE:9806, V-B:TYR:539:CZ:9848, V-B:GLU:543:CG:9878, V-B:PRO:540:CB:9856, H-A:GLY:454:N:4049, V-A:GLY:453:C:4041, V-A:ARG:545:CD:4922, V-B:TYR:531:CZ:9765, V-B:PRO:540:CD:9858, V-B:TYR:531:CE2:9764, V-B:LEU:363:CD1:8159, V-A:ARG:545:CZ:4925, V-B:ILE:538:CD1:9836, V-A:ARG:545:CG:4921, V-A:HIS:456:CE1:4069, V-B:ILE:538:CG2:9834, V-B:GLU:543:CB:9877, V-A:GLU:543:CD:4907, V-A:GLU:543:CG:4906, V-A:GLU:543:CB:4905, H-A:ARG:545:NH1:4926, H-A:ARG:545:NH2:4927, V-B:ILE:538:CA:9831, V-A:GLY:453:CA:4043, V-B:TYR:539:CE1:9846, V-B:ILE:538:CB:9833, H-A:ARG:545:NE:4923, V-A:ILE:455:C:4051, V-A:ARG:545:CB:4920"]

$$$$
4bb_Grossjean_2025
     RDKit          3D

 27 29  0  0  0  0  0  0  0  0999 V2000
  124.9980  123.0350   57.0440 C   0  0  0  0  0  0  0  0  0  0  0  0
  126.4870  122.6950   56.9340 C   0  0  0  0  0  0  0  0  0  0  0  0
  126.8610  122.0300   55.9670 O   0  0  0  0  0  0  0  0  0  0  0  0
  127.4070  123.1810   58.0140 C   0  0  0  0  0  0  0  0  0  0  0  0
  126.9970  123.1090   59.3510 C   0  0  0  0  0  0  0  0  0  0  0  0
  127.8320  123.5540   60.3720 C   0  0  0  0  0  0  0  0  0  0  0  0
  129.0950  124.0700   60.0770 C   0  0  0  0  0  0  0  0  0  0  0  0
  129.8560  124.4930   61.1850 N   0  0  0  0  0  0  0  0  0  0  0  0
  130.5710  125.6300   61.3680 C   0  0  0  0  0  0  0  0  0  0  0  0
  130.6920  126.5150   60.5210 O   0  0  0  0  0  0  0  0  0  0  0  0
  131.2420  125.7440   62.6660 C   0  0  0  0  0  0  0  0  0  0  0  0
  132.9140  125.2170   62.8480 S   0  0  0  0  0  0  0  0  0  0  0  0
  132.9060  125.6240   64.5480 C   0  0  0  0  0  0  0  0  0  0  0  0
  133.9830  125.4430   65.3110 N   0  0  0  0  0  0  0  0  0  0  0  0
  133.8550  125.7940   66.6120 C   0  0  0  0  0  0  0  0  0  0  0  0
  135.0940  125.5820   67.4630 C   0  0  0  0  0  0  0  0  0  0  0  0
  132.6870  126.3160   67.1620 C   0  0  0  0  0  0  0  0  0  0  0  0
  131.5500  126.5090   66.3630 C   0  0  0  0  0  0  0  0  0  0  0  0
  130.2880  127.0860   67.0130 C   0  0  0  0  0  0  0  0  0  0  0  0
  129.5160  127.7530   66.1520 F   0  0  0  0  0  0  0  0  0  0  0  0
  129.5530  126.0980   67.5260 F   0  0  0  0  0  0  0  0  0  0  0  0
  130.6270  127.9330   67.9840 F   0  0  0  0  0  0  0  0  0  0  0  0
  131.6510  126.1480   64.9850 C   0  0  0  0  0  0  0  0  0  0  0  0
  130.7180  126.2000   63.8870 C   0  0  0  0  0  0  0  0  0  0  0  0
  129.4350  126.6620   64.0260 N   0  0  0  0  0  0  0  0  0  0  0  0
  129.5100  124.1510   58.7390 C   0  0  0  0  0  0  0  0  0  0  0  0
  128.6720  123.7080   57.7190 C   0  0  0  0  0  0  0  0  0  0  0  0
  1  2  1  0
  2  3  2  0
  2  4  1  0
  4  5  2  0
  5  6  1  0
  6  7  2  0
  7  8  1  0
  8  9  1  0
  9 10  2  0
  9 11  1  0
 11 12  1  0
 12 13  1  0
 13 14  2  0
 14 15  1  0
 15 16  1  0
 15 17  2  0
 17 18  1  0
 18 19  1  0
 19 20  1  0
 19 21  1  0
 19 22  1  0
 18 23  2  0
 23 24  1  0
 24 25  1  0
  7 26  1  0
 26 27  2  0
 27  4  1  0
 24 11  2  0
 23 13  1  0
M  END
>  <Binding energies>  (83) 
[-7.44]

>  <Ligand effiencies>  (83) 
[-0.24800000000000003]

>  <Interactions>  (83) 
["V-A:ASP:366:CG:3212, V-B:GLU:543:CD:9879, V-B:PRO:540:N:9855, H-A:TYR:484:OH:4347, V-B:PRO:540:CA:9854, H-B:GLU:543:OE2:9881, H-B:GLU:543:OE1:9880, V-B:TYR:539:C:9838, V-B:TYR:539:CD2:9845, V-B:TYR:539:CE2:9847, V-A:GLY:454:CA:4048, H-B:TYR:539:N:9841, V-B:MET:535:CE:9806, V-B:TYR:539:CZ:9848, V-B:GLU:543:CG:9878, V-B:PRO:540:CB:9856, H-A:GLY:454:N:4049, V-A:GLY:453:C:4041, V-A:ARG:545:CD:4922, V-B:PRO:540:CD:9858, V-B:TYR:531:CE2:9764, V-B:LEU:363:CD1:8159, V-A:ARG:545:CZ:4925, V-A:ARG:545:CG:4921, V-A:HIS:456:CE1:4069, V-B:GLU:543:CB:9877, V-A:GLU:543:CD:4907, V-A:GLU:543:CG:4906, V-A:GLU:543:CB:4905, H-A:ARG:545:NH1:4926, V-A:GLY:453:CA:4043, H-A:ARG:545:NE:4923, V-A:ILE:455:C:4051, V-A:ARG:545:CB:4920, V-A:GLY:454:C:4046, V-A:ILE:455:CA:4053"]

$$$$
4bd_Grossjean_2025
     RDKit          3D

 24 26  0  0  0  0  0  0  0  0999 V2000
  128.3860  117.1800   76.5650 C   0  0  0  0  0  0  0  0  0  0  0  0
  128.5570  118.5100   75.8530 C   0  0  0  0  0  0  0  0  0  0  0  0
  127.9560  118.7460   74.6190 C   0  0  0  0  0  0  0  0  0  0  0  0
  128.1240  119.9800   73.9710 C   0  0  0  0  0  0  0  0  0  0  0  0
  127.4470  120.1930   72.6130 C   0  0  0  0  0  0  0  0  0  0  0  0
  128.2470  120.7730   71.7160 F   0  0  0  0  0  0  0  0  0  0  0  0
  127.0650  119.0200   72.1090 F   0  0  0  0  0  0  0  0  0  0  0  0
  126.3790  120.9780   72.7600 F   0  0  0  0  0  0  0  0  0  0  0  0
  128.9250  120.9600   74.6300 C   0  0  0  0  0  0  0  0  0  0  0  0
  129.3120  122.3060   74.2850 C   0  0  0  0  0  0  0  0  0  0  0  0
  128.9090  122.9160   73.1250 N   0  0  0  0  0  0  0  0  0  0  0  0
  130.1350  122.9290   75.2370 C   0  0  0  0  0  0  0  0  0  0  0  0
  130.7210  124.2730   75.1990 C   0  0  0  0  0  0  0  0  0  0  0  0
  130.0270  125.2530   74.9240 O   0  0  0  0  0  0  0  0  0  0  0  0
  132.0420  124.3400   75.4960 N   0  0  0  0  0  0  0  0  0  0  0  0
  132.9010  125.4540   75.5080 C   0  0  0  0  0  0  0  0  0  0  0  0
  134.1620  125.2500   76.0770 C   0  0  0  0  0  0  0  0  0  0  0  0
  135.0870  126.2890   76.1270 C   0  0  0  0  0  0  0  0  0  0  0  0
  134.7560  127.5340   75.5990 C   0  0  0  0  0  0  0  0  0  0  0  0
  133.5090  127.7460   75.0160 C   0  0  0  0  0  0  0  0  0  0  0  0
  132.5800  126.7100   74.9650 C   0  0  0  0  0  0  0  0  0  0  0  0
  130.4510  121.8620   76.6030 S   0  0  0  0  0  0  0  0  0  0  0  0
  129.4850  120.5900   75.8920 C   0  0  0  0  0  0  0  0  0  0  0  0
  129.3210  119.4180   76.5030 N   0  0  0  0  0  0  0  0  0  0  0  0
  1  2  1  0
  2  3  2  0
  3  4  1  0
  4  5  1  0
  5  6  1  0
  5  7  1  0
  5  8  1  0
  4  9  2  0
  9 10  1  0
 10 11  1  0
 10 12  2  0
 12 13  1  0
 13 14  2  0
 13 15  1  0
 15 16  1  0
 16 17  2  0
 17 18  1  0
 18 19  2  0
 19 20  1  0
 20 21  2  0
 12 22  1  0
 22 23  1  0
 23 24  2  0
 24  2  1  0
 23  9  1  0
 21 16  1  0
M  END
>  <Binding energies>  (84) 
[-6.63]

>  <Ligand effiencies>  (84) 
[-0.24555555555555555]

>  <Interactions>  (84) 
["H-B:GLU:543:O:9874, H-B:LYS:547:NZ:9922, V-B:GLU:543:C:9873, H-A:ASP:473:OD2:4241, V-B:GLY:544:CA:9885, V-A:TYR:484:CB:4340, V-A:TYR:484:C:4336, V-A:HIS:456:CB:4064, V-B:GLU:543:CA:9875, V-A:VAL:457:C:4072, V-A:HIS:456:C:4060, V-A:VAL:457:CA:4074, V-A:HIS:456:CG:4065, V-A:VAL:458:CG2:4086, V-A:TYR:484:CD2:4343, V-A:TYR:484:CG:4341, V-A:TYR:484:CA:4338, V-A:SER:483:CB:4332"]

$$$$
4be_Grossjean_2025
     RDKit          3D

 25 27  0  0  0  0  0  0  0  0999 V2000
  126.3610  122.0150   55.1580 C   0  0  0  0  0  0  0  0  0  0  0  0
  126.0040  122.6470   56.4890 C   0  0  0  0  0  0  0  0  0  0  0  0
  124.7250  123.1520   56.7390 C   0  0  0  0  0  0  0  0  0  0  0  0
  124.4690  123.7230   57.9860 C   0  0  0  0  0  0  0  0  0  0  0  0
  125.4850  123.7750   58.9430 C   0  0  0  0  0  0  0  0  0  0  0  0
  126.7420  123.2450   58.6300 C   0  0  0  0  0  0  0  0  0  0  0  0
  127.7230  123.3350   59.6330 N   0  0  0  0  0  0  0  0  0  0  0  0
  127.6020  123.1120   60.9660 C   0  0  0  0  0  0  0  0  0  0  0  0
  126.5500  122.7730   61.5120 O   0  0  0  0  0  0  0  0  0  0  0  0
  128.8210  123.3230   61.7520 C   0  0  0  0  0  0  0  0  0  0  0  0
  128.9420  124.7020   62.8430 S   0  0  0  0  0  0  0  0  0  0  0  0
  130.5680  124.2530   63.3020 C   0  0  0  0  0  0  0  0  0  0  0  0
  131.2640  124.9700   64.1830 N   0  0  0  0  0  0  0  0  0  0  0  0
  132.5110  124.5230   64.4600 C   0  0  0  0  0  0  0  0  0  0  0  0
  133.2880  125.3550   65.4630 C   0  0  0  0  0  0  0  0  0  0  0  0
  133.0700  123.3860   63.8840 C   0  0  0  0  0  0  0  0  0  0  0  0
  132.3420  122.6260   62.9560 C   0  0  0  0  0  0  0  0  0  0  0  0
  132.9990  121.3800   62.3520 C   0  0  0  0  0  0  0  0  0  0  0  0
  133.4980  121.5940   61.1310 F   0  0  0  0  0  0  0  0  0  0  0  0
  134.0050  120.9790   63.1280 F   0  0  0  0  0  0  0  0  0  0  0  0
  132.1020  120.4000   62.2510 F   0  0  0  0  0  0  0  0  0  0  0  0
  131.0250  123.0730   62.6380 C   0  0  0  0  0  0  0  0  0  0  0  0
  130.0050  122.5700   61.7500 C   0  0  0  0  0  0  0  0  0  0  0  0
  130.1820  121.4500   60.9780 N   0  0  0  0  0  0  0  0  0  0  0  0
  127.0020  122.6900   57.4100 N   0  0  0  0  0  0  0  0  0  0  0  0
  1  2  1  0
  2  3  2  0
  3  4  1  0
  4  5  2  0
  5  6  1  0
  6  7  1  0
  7  8  1  0
  8  9  2  0
  8 10  1  0
 10 11  1  0
 11 12  1  0
 12 13  2  0
 13 14  1  0
 14 15  1  0
 14 16  2  0
 16 17  1  0
 17 18  1  0
 18 19  1  0
 18 20  1  0
 18 21  1  0
 17 22  2  0
 22 23  1  0
 23 24  1  0
  6 25  2  0
 25  2  1  0
 23 10  2  0
 22 12  1  0
M  END
>  <Binding energies>  (85) 
[-6.59]

>  <Ligand effiencies>  (85) 
[-0.23535714285714285]

>  <Interactions>  (85) 
["V-B:GLU:543:CD:9879, V-B:PRO:540:N:9855, H-B:ALA:541:N:9862, V-B:PRO:540:CA:9854, V-A:LEU:475:CD2:4258, H-B:TYR:539:O:9839, V-A:ILE:369:CD1:3238, V-A:SER:385:C:3404, V-B:TYR:539:CD2:9845, V-A:ILE:369:CG2:3236, V-B:TYR:539:CE2:9847, V-A:SER:385:CA:3406, V-A:SER:385:CB:3408, V-A:GLY:454:CA:4048, V-B:MET:535:CE:9806, V-B:PRO:540:CB:9856, V-B:TYR:531:CZ:9765, V-B:PRO:540:CD:9858, V-B:TYR:531:CE2:9764, V-B:LEU:363:CD1:8159, V-A:ARG:545:CZ:4925, V-B:ILE:538:CD1:9836, V-B:ILE:538:CG2:9834, V-B:ILE:538:CA:9831, V-B:ILE:538:C:9829, V-B:ILE:538:CB:9833, V-B:MET:535:CG:9804, V-B:VAL:537:C:9821"]

$$$$
4bg_Grossjean_2025
     RDKit          3D

 25 27  0  0  0  0  0  0  0  0999 V2000
  133.2630  125.0480   65.2250 C   0  0  0  0  0  0  0  0  0  0  0  0
  132.2990  124.3150   64.3100 C   0  0  0  0  0  0  0  0  0  0  0  0
  132.6860  123.1600   63.6370 C   0  0  0  0  0  0  0  0  0  0  0  0
  131.7860  122.4950   62.7890 C   0  0  0  0  0  0  0  0  0  0  0  0
  132.2570  121.2270   62.0690 C   0  0  0  0  0  0  0  0  0  0  0  0
  132.4960  121.4230   60.7700 F   0  0  0  0  0  0  0  0  0  0  0  0
  133.3890  120.7900   62.6210 F   0  0  0  0  0  0  0  0  0  0  0  0
  131.3260  120.2790   62.1650 F   0  0  0  0  0  0  0  0  0  0  0  0
  130.4800  123.0540   62.6590 C   0  0  0  0  0  0  0  0  0  0  0  0
  129.3180  122.6660   61.8970 C   0  0  0  0  0  0  0  0  0  0  0  0
  129.3020  121.5700   61.0720 N   0  0  0  0  0  0  0  0  0  0  0  0
  128.2070  123.5040   62.0810 C   0  0  0  0  0  0  0  0  0  0  0  0
  126.8910  123.4250   61.4490 C   0  0  0  0  0  0  0  0  0  0  0  0
  125.9100  122.9930   62.0570 O   0  0  0  0  0  0  0  0  0  0  0  0
  126.8140  123.8890   60.1840 N   0  0  0  0  0  0  0  0  0  0  0  0
  125.6100  123.8970   59.3540 C   0  0  0  0  0  0  0  0  0  0  0  0
  125.8130  123.2720   57.9800 C   0  0  0  0  0  0  0  0  0  0  0  0
  124.7280  123.1170   57.1120 C   0  0  0  0  0  0  0  0  0  0  0  0
  124.9230  122.5810   55.8430 C   0  0  0  0  0  0  0  0  0  0  0  0
  126.2040  122.2140   55.4380 C   0  0  0  0  0  0  0  0  0  0  0  0
  127.2930  122.3810   56.2900 C   0  0  0  0  0  0  0  0  0  0  0  0
  127.0980  122.9160   57.5610 C   0  0  0  0  0  0  0  0  0  0  0  0
  128.5790  124.8280   63.1810 S   0  0  0  0  0  0  0  0  0  0  0  0
  130.2080  124.2380   63.4100 C   0  0  0  0  0  0  0  0  0  0  0  0
  131.0680  124.8670   64.2120 N   0  0  0  0  0  0  0  0  0  0  0  0
  1  2  1  0
  2  3  2  0
  3  4  1  0
  4  5  1  0
  5  6  1  0
  5  7  1  0
  5  8  1  0
  4  9  2  0
  9 10  1  0
 10 11  1  0
 10 12  2  0
 12 13  1  0
 13 14  2  0
 13 15  1  0
 15 16  1  0
 16 17  1  0
 17 18  2  0
 18 19  1  0
 19 20  2  0
 20 21  1  0
 21 22  2  0
 12 23  1  0
 23 24  1  0
 24 25  2  0
 25  2  1  0
 24  9  1  0
 22 17  1  0
M  END
>  <Binding energies>  (86) 
[-6.69]

>  <Ligand effiencies>  (86) 
[-0.23892857142857143]

>  <Interactions>  (86) 
["V-B:GLU:543:CD:9879, V-B:PRO:540:N:9855, H-B:ALA:541:N:9862, V-B:ALA:541:CB:9863, V-B:PRO:540:CA:9854, V-B:TYR:539:C:9838, V-A:LEU:475:CD2:4258, H-B:TYR:539:O:9839, V-A:SER:385:C:3404, V-B:TYR:539:CD2:9845, V-A:ILE:369:CG2:3236, V-B:TYR:539:CE2:9847, V-A:SER:385:CA:3406, V-A:SER:385:CB:3408, V-A:GLY:454:CA:4048, V-B:TYR:539:CG:9843, V-B:MET:535:CE:9806, V-B:PRO:540:CB:9856, V-B:TYR:539:CD1:9844, V-B:TYR:531:CZ:9765, V-B:PRO:540:CD:9858, V-B:TYR:531:CE2:9764, V-B:LEU:363:CD1:8159, V-A:ARG:545:CZ:4925, V-B:ILE:538:CD1:9836, V-B:ILE:538:CG2:9834, V-B:ILE:538:CA:9831, V-B:TYR:539:CE1:9846, V-B:ILE:538:C:9829, V-B:ILE:538:CB:9833, V-B:MET:535:CG:9804"]

$$$$
4ca_Grossjean_2025
     RDKit          3D

 34 37  0  0  0  0  0  0  0  0999 V2000
  128.4260  132.2910   55.0140 C   0  0  0  0  0  0  0  0  0  0  0  0
  129.6380  133.1900   54.7480 C   0  0  0  0  0  0  0  0  0  0  0  0
  130.1890  133.6180   55.9870 O   0  0  0  0  0  0  0  0  0  0  0  0
  131.3330  133.0700   56.4730 C   0  0  0  0  0  0  0  0  0  0  0  0
  132.4450  133.2580   55.9680 O   0  0  0  0  0  0  0  0  0  0  0  0
  131.1110  132.2160   57.6870 C   0  0  0  0  0  0  0  0  0  0  0  0
  131.8120  132.5060   58.8650 C   0  0  0  0  0  0  0  0  0  0  0  0
  131.6240  131.7350   60.0090 C   0  0  0  0  0  0  0  0  0  0  0  0
  130.7400  130.6560   59.9970 C   0  0  0  0  0  0  0  0  0  0  0  0
  130.6210  129.9510   61.2110 N   0  0  0  0  0  0  0  0  0  0  0  0
  129.6580  129.0930   61.6300 C   0  0  0  0  0  0  0  0  0  0  0  0
  128.6980  128.7420   60.9440 O   0  0  0  0  0  0  0  0  0  0  0  0
  129.8340  128.5710   62.9870 C   0  0  0  0  0  0  0  0  0  0  0  0
  128.7720  129.1040   64.2870 S   0  0  0  0  0  0  0  0  0  0  0  0
  129.5720  128.0550   65.4320 C   0  0  0  0  0  0  0  0  0  0  0  0
  129.1880  127.9960   66.7050 N   0  0  0  0  0  0  0  0  0  0  0  0
  129.8600  127.1410   67.5190 C   0  0  0  0  0  0  0  0  0  0  0  0
  129.3970  127.0900   68.9460 C   0  0  0  0  0  0  0  0  0  0  0  0
  128.7790  125.9400   69.4620 C   0  0  0  0  0  0  0  0  0  0  0  0
  128.3430  125.8890   70.7830 C   0  0  0  0  0  0  0  0  0  0  0  0
  128.5180  126.9930   71.6110 C   0  0  0  0  0  0  0  0  0  0  0  0
  129.1240  128.1470   71.1250 C   0  0  0  0  0  0  0  0  0  0  0  0
  129.5590  128.1940   69.8030 C   0  0  0  0  0  0  0  0  0  0  0  0
  130.9280  126.3650   67.0540 C   0  0  0  0  0  0  0  0  0  0  0  0
  131.3430  126.4230   65.7150 C   0  0  0  0  0  0  0  0  0  0  0  0
  132.5180  125.5430   65.2730 C   0  0  0  0  0  0  0  0  0  0  0  0
  132.1380  124.3360   64.8490 F   0  0  0  0  0  0  0  0  0  0  0  0
  133.1710  126.1310   64.2710 F   0  0  0  0  0  0  0  0  0  0  0  0
  133.3540  125.3590   66.2960 F   0  0  0  0  0  0  0  0  0  0  0  0
  130.6340  127.3040   64.8500 C   0  0  0  0  0  0  0  0  0  0  0  0
  130.7600  127.6180   63.4470 C   0  0  0  0  0  0  0  0  0  0  0  0
  131.7030  127.0370   62.6400 N   0  0  0  0  0  0  0  0  0  0  0  0
  130.0300  130.3610   58.8250 C   0  0  0  0  0  0  0  0  0  0  0  0
  130.2170  131.1350   57.6820 C   0  0  0  0  0  0  0  0  0  0  0  0
  1  2  1  0
  2  3  1  0
  3  4  1  0
  4  5  2  0
  4  6  1  0
  6  7  2  0
  7  8  1  0
  8  9  2  0
  9 10  1  0
 10 11  1  0
 11 12  2  0
 11 13  1  0
 13 14  1  0
 14 15  1  0
 15 16  2  0
 16 17  1  0
 17 18  1  0
 18 19  2  0
 19 20  1  0
 20 21  2  0
 21 22  1  0
 22 23  2  0
 17 24  2  0
 24 25  1  0
 25 26  1  0
 26 27  1  0
 26 28  1  0
 26 29  1  0
 25 30  2  0
 30 31  1  0
 31 32  1  0
  9 33  1  0
 33 34  2  0
 34  6  1  0
 31 13  2  0
 30 15  1  0
 23 18  1  0
M  END
>  <Binding energies>  (87) 
[-7.41]

>  <Ligand effiencies>  (87) 
[-0.20027027027027028]

>  <Interactions>  (87) 
["V-A:TYR:539:CZ:4876, V-A:ASP:366:CG:3212, V-A:PRO:540:CB:4884, V-A:TYR:539:CE1:4874, H-A:GLU:543:OE2:4909, V-A:PRO:540:CA:4882, V-A:TYR:531:CE2:4792, V-A:ILE:538:CA:4859, V-A:GLY:454:CA:4048, V-A:ARG:545:CZ:4925, V-A:HIS:456:CE1:4069, V-B:GLU:543:CB:9877, V-A:GLU:543:CD:4907, V-B:HIS:456:CE1:9040, V-B:GLU:543:C:9873, V-A:GLU:543:CG:4906, H-A:ASP:366:OD2:3214, V-A:ILE:538:CG2:4862, V-A:TYR:484:CZ:4346, H-A:ASP:366:OD1:3213, V-A:PRO:540:N:4883, V-A:MET:535:CG:4832, H-A:TYR:539:N:4869, V-A:MET:535:CB:4831, V-B:GLU:543:CA:9875"]

$$$$
4cb_Grossjean_2025
     RDKit          3D

 33 36  0  0  0  0  0  0  0  0999 V2000
  129.9940  133.5390   54.6720 C   0  0  0  0  0  0  0  0  0  0  0  0
  130.1120  133.6150   56.0850 O   0  0  0  0  0  0  0  0  0  0  0  0
  131.2260  133.1680   56.7180 C   0  0  0  0  0  0  0  0  0  0  0  0
  132.3730  133.3860   56.3150 O   0  0  0  0  0  0  0  0  0  0  0  0
  130.9260  132.3790   57.9620 C   0  0  0  0  0  0  0  0  0  0  0  0
  131.9400  132.1820   58.9080 C   0  0  0  0  0  0  0  0  0  0  0  0
  131.6910  131.4620   60.0730 C   0  0  0  0  0  0  0  0  0  0  0  0
  130.4280  130.9210   60.3140 C   0  0  0  0  0  0  0  0  0  0  0  0
  130.2840  130.2250   61.5300 N   0  0  0  0  0  0  0  0  0  0  0  0
  129.2370  129.5060   62.0050 C   0  0  0  0  0  0  0  0  0  0  0  0
  128.1970  129.3010   61.3780 O   0  0  0  0  0  0  0  0  0  0  0  0
  129.4210  128.9480   63.3470 C   0  0  0  0  0  0  0  0  0  0  0  0
  128.3900  129.4760   64.6760 S   0  0  0  0  0  0  0  0  0  0  0  0
  129.1820  128.3800   65.7850 C   0  0  0  0  0  0  0  0  0  0  0  0
  128.8170  128.3020   67.0630 N   0  0  0  0  0  0  0  0  0  0  0  0
  129.4840  127.4130   67.8460 C   0  0  0  0  0  0  0  0  0  0  0  0
  129.0460  127.3430   69.2800 C   0  0  0  0  0  0  0  0  0  0  0  0
  129.6690  128.1340   70.2590 C   0  0  0  0  0  0  0  0  0  0  0  0
  129.2710  128.0710   71.5930 C   0  0  0  0  0  0  0  0  0  0  0  0
  128.2410  127.2140   71.9660 C   0  0  0  0  0  0  0  0  0  0  0  0
  127.6090  126.4180   71.0160 C   0  0  0  0  0  0  0  0  0  0  0  0
  128.0120  126.4830   69.6850 C   0  0  0  0  0  0  0  0  0  0  0  0
  130.5260  126.6250   67.3460 C   0  0  0  0  0  0  0  0  0  0  0  0
  130.9200  126.7030   66.0020 C   0  0  0  0  0  0  0  0  0  0  0  0
  132.0700  125.8090   65.5200 C   0  0  0  0  0  0  0  0  0  0  0  0
  131.6530  124.6320   65.0470 F   0  0  0  0  0  0  0  0  0  0  0  0
  132.7350  126.4200   64.5400 F   0  0  0  0  0  0  0  0  0  0  0  0
  132.9030  125.5610   66.5300 F   0  0  0  0  0  0  0  0  0  0  0  0
  130.2170  127.6200   65.1680 C   0  0  0  0  0  0  0  0  0  0  0  0
  130.3280  127.9620   63.7700 C   0  0  0  0  0  0  0  0  0  0  0  0
  131.2420  127.3740   62.9340 N   0  0  0  0  0  0  0  0  0  0  0  0
  129.4060  131.1160   59.3730 C   0  0  0  0  0  0  0  0  0  0  0  0
  129.6560  131.8370   58.2090 C   0  0  0  0  0  0  0  0  0  0  0  0
  1  2  1  0
  2  3  1  0
  3  4  2  0
  3  5  1  0
  5  6  2  0
  6  7  1  0
  7  8  2  0
  8  9  1  0
  9 10  1  0
 10 11  2  0
 10 12  1  0
 12 13  1  0
 13 14  1  0
 14 15  2  0
 15 16  1  0
 16 17  1  0
 17 18  2  0
 18 19  1  0
 19 20  2  0
 20 21  1  0
 21 22  2  0
 16 23  2  0
 23 24  1  0
 24 25  1  0
 25 26  1  0
 25 27  1  0
 25 28  1  0
 24 29  2  0
 29 30  1  0
 30 31  1  0
  8 32  1  0
 32 33  2  0
 33  5  1  0
 30 12  2  0
 29 14  1  0
 22 17  1  0
M  END
>  <Binding energies>  (88) 
[-7.29]

>  <Ligand effiencies>  (88) 
[-0.2025]

>  <Interactions>  (88) 
["V-A:PRO:540:CB:4884, H-A:GLU:543:OE2:4909, V-A:PRO:540:CA:4882, V-A:ILE:538:CA:4859, V-A:ARG:545:CZ:4925, V-A:HIS:456:CE1:4069, V-B:GLU:543:CB:9877, V-A:GLU:543:CD:4907, V-B:HIS:456:CE1:9040, V-B:GLU:543:C:9873, V-A:GLU:543:CG:4906, V-A:ILE:538:CB:4861, H-A:ASP:366:OD2:3214, V-A:ILE:538:CG2:4862, V-A:TYR:484:CZ:4346, V-B:GLY:544:C:9883, V-A:PRO:540:N:4883, V-A:MET:535:CG:4832, H-A:TYR:539:N:4869, V-A:MET:535:CB:4831"]

$$$$
4cc_Grossjean_2025
     RDKit          3D

 31 34  0  0  0  0  0  0  0  0999 V2000
  129.8450  129.1420   71.7350 C   0  0  0  0  0  0  0  0  0  0  0  0
  128.9180  128.4470   70.9080 O   0  0  0  0  0  0  0  0  0  0  0  0
  129.3780  127.7890   69.7840 C   0  0  0  0  0  0  0  0  0  0  0  0
  129.0100  126.4510   69.6520 C   0  0  0  0  0  0  0  0  0  0  0  0
  129.4240  125.7060   68.5510 C   0  0  0  0  0  0  0  0  0  0  0  0
  130.2270  126.2900   67.5690 C   0  0  0  0  0  0  0  0  0  0  0  0
  130.5840  125.4650   66.4860 N   0  0  0  0  0  0  0  0  0  0  0  0
  131.6500  125.5550   65.6550 C   0  0  0  0  0  0  0  0  0  0  0  0
  132.5350  126.4060   65.7600 O   0  0  0  0  0  0  0  0  0  0  0  0
  131.7010  124.5530   64.5860 C   0  0  0  0  0  0  0  0  0  0  0  0
  131.0770  122.9280   64.8620 S   0  0  0  0  0  0  0  0  0  0  0  0
  131.4850  122.4470   63.2320 C   0  0  0  0  0  0  0  0  0  0  0  0
  131.2370  121.2170   62.7880 N   0  0  0  0  0  0  0  0  0  0  0  0
  131.5800  120.9380   61.5040 C   0  0  0  0  0  0  0  0  0  0  0  0
  131.2910  119.5430   61.0330 C   0  0  0  0  0  0  0  0  0  0  0  0
  132.1250  118.9150   60.0920 C   0  0  0  0  0  0  0  0  0  0  0  0
  131.8620  117.6220   59.6490 C   0  0  0  0  0  0  0  0  0  0  0  0
  130.7570  116.9350   60.1410 C   0  0  0  0  0  0  0  0  0  0  0  0
  129.9140  117.5340   61.0710 C   0  0  0  0  0  0  0  0  0  0  0  0
  130.1800  118.8280   61.5100 C   0  0  0  0  0  0  0  0  0  0  0  0
  132.1860  121.8900   60.6780 C   0  0  0  0  0  0  0  0  0  0  0  0
  132.4540  123.1900   61.1360 C   0  0  0  0  0  0  0  0  0  0  0  0
  133.1150  124.1850   60.1750 C   0  0  0  0  0  0  0  0  0  0  0  0
  133.3350  123.6740   58.9610 F   0  0  0  0  0  0  0  0  0  0  0  0
  132.3310  125.2520   60.0220 F   0  0  0  0  0  0  0  0  0  0  0  0
  134.2920  124.5710   60.6650 F   0  0  0  0  0  0  0  0  0  0  0  0
  132.0900  123.4960   62.4790 C   0  0  0  0  0  0  0  0  0  0  0  0
  132.2040  124.6890   63.2820 C   0  0  0  0  0  0  0  0  0  0  0  0
  132.7550  125.8520   62.8070 N   0  0  0  0  0  0  0  0  0  0  0  0
  130.5920  127.6400   67.6890 C   0  0  0  0  0  0  0  0  0  0  0  0
  130.1730  128.3810   68.7900 C   0  0  0  0  0  0  0  0  0  0  0  0
  1  2  1  0
  2  3  1  0
  3  4  2  0
  4  5  1  0
  5  6  2  0
  6  7  1  0
  7  8  1  0
  8  9  2  0
  8 10  1  0
 10 11  1  0
 11 12  1  0
 12 13  2  0
 13 14  1  0
 14 15  1  0
 15 16  2  0
 16 17  1  0
 17 18  2  0
 18 19  1  0
 19 20  2  0
 14 21  2  0
 21 22  1  0
 22 23  1  0
 23 24  1  0
 23 25  1  0
 23 26  1  0
 22 27  2  0
 27 28  1  0
 28 29  1  0
  6 30  1  0
 30 31  2  0
 31  3  1  0
 28 10  2  0
 27 12  1  0
 20 15  1  0
M  END
>  <Binding energies>  (89) 
[-7.32]

>  <Ligand effiencies>  (89) 
[-0.21529411764705883]

>  <Interactions>  (89) 
["V-A:ASP:366:CG:3212, V-A:ASP:366:CB:3211, V-B:GLU:543:CD:9879, H-A:TYR:484:OH:4347, V-B:ALA:541:CB:9863, H-B:GLU:543:OE2:9881, V-B:TYR:539:C:9838, V-A:LEU:475:CD2:4258, V-A:PRO:482:CG:4326, V-A:HIS:383:CE1:3393, V-A:ILE:369:CD1:3238, V-B:TYR:539:CD2:9845, V-A:ILE:369:CG2:3236, V-B:TYR:539:CE2:9847, V-B:TYR:539:CB:9842, V-B:VAL:344:CG1:7971, V-B:TYR:539:CG:9843, V-B:TYR:539:CZ:9848, V-A:PRO:482:CB:4325, V-B:GLU:543:CG:9878, V-A:ARG:545:CZ:4925, V-A:HIS:456:CE1:4069, V-B:GLU:543:CB:9877, V-A:GLU:543:CD:4907, V-B:HIS:456:CE1:9040, H-A:ASP:366:OD2:3214, V-A:GLU:543:CB:4905, V-A:GLU:543:C:4901, H-A:ARG:545:NH2:4927, H-A:ARG:545:NE:4923, V-A:TYR:484:CZ:4346, V-A:TYR:484:CE2:4345, H-A:ASP:366:OD1:3213, V-A:ILE:369:CB:3235, V-A:ASP:366:CA:3209, V-A:ILE:369:CG1:3237"]

$$$$
4ce_Grossjean_2025
     RDKit          3D

 30 33  0  0  0  0  0  0  0  0999 V2000
  135.4640  125.7170   67.0390 C   0  0  0  0  0  0  0  0  0  0  0  0
  133.9680  125.9070   66.8760 C   0  0  0  0  0  0  0  0  0  0  0  0
  133.1890  126.4730   67.8890 C   0  0  0  0  0  0  0  0  0  0  0  0
  131.8190  126.6240   67.6670 C   0  0  0  0  0  0  0  0  0  0  0  0
  131.2680  126.2120   66.4520 C   0  0  0  0  0  0  0  0  0  0  0  0
  132.1050  125.6470   65.4820 C   0  0  0  0  0  0  0  0  0  0  0  0
  131.4950  125.2750   64.2710 N   0  0  0  0  0  0  0  0  0  0  0  0
  130.9260  124.0890   63.9370 C   0  0  0  0  0  0  0  0  0  0  0  0
  130.8490  123.1270   64.7030 O   0  0  0  0  0  0  0  0  0  0  0  0
  130.3910  124.0100   62.5760 C   0  0  0  0  0  0  0  0  0  0  0  0
  128.8500  123.2110   62.2750 S   0  0  0  0  0  0  0  0  0  0  0  0
  128.9400  123.5800   60.5700 C   0  0  0  0  0  0  0  0  0  0  0  0
  127.9790  123.2100   59.7270 N   0  0  0  0  0  0  0  0  0  0  0  0
  128.1300  123.5560   58.4220 C   0  0  0  0  0  0  0  0  0  0  0  0
  127.0260  123.1280   57.5000 C   0  0  0  0  0  0  0  0  0  0  0  0
  125.6870  123.4270   57.7990 C   0  0  0  0  0  0  0  0  0  0  0  0
  124.6570  123.0280   56.9510 C   0  0  0  0  0  0  0  0  0  0  0  0
  124.9530  122.3240   55.7890 C   0  0  0  0  0  0  0  0  0  0  0  0
  126.2710  122.0150   55.4700 C   0  0  0  0  0  0  0  0  0  0  0  0
  127.2980  122.4130   56.3210 C   0  0  0  0  0  0  0  0  0  0  0  0
  129.2550  124.2510   57.9660 C   0  0  0  0  0  0  0  0  0  0  0  0
  130.2770  124.6410   58.8450 C   0  0  0  0  0  0  0  0  0  0  0  0
  131.4800  125.4030   58.2790 C   0  0  0  0  0  0  0  0  0  0  0  0
  131.6550  126.6000   58.8420 F   0  0  0  0  0  0  0  0  0  0  0  0
  132.5950  124.6990   58.4820 F   0  0  0  0  0  0  0  0  0  0  0  0
  131.3160  125.5970   56.9710 F   0  0  0  0  0  0  0  0  0  0  0  0
  130.1220  124.2980   60.2190 C   0  0  0  0  0  0  0  0  0  0  0  0
  130.9340  124.5280   61.3880 C   0  0  0  0  0  0  0  0  0  0  0  0
  132.1310  125.1960   61.3400 N   0  0  0  0  0  0  0  0  0  0  0  0
  133.4460  125.5000   65.6900 N   0  0  0  0  0  0  0  0  0  0  0  0
  1  2  1  0
  2  3  2  0
  3  4  1  0
  4  5  2  0
  5  6  1  0
  6  7  1  0
  7  8  1  0
  8  9  2  0
  8 10  1  0
 10 11  1  0
 11 12  1  0
 12 13  2  0
 13 14  1  0
 14 15  1  0
 15 16  2  0
 16 17  1  0
 17 18  2  0
 18 19  1  0
 19 20  2  0
 14 21  2  0
 21 22  1  0
 22 23  1  0
 23 24  1  0
 23 25  1  0
 23 26  1  0
 22 27  2  0
 27 28  1  0
 28 29  1  0
  6 30  2  0
 30  2  1  0
 28 10  2  0
 27 12  1  0
 20 15  1  0
M  END
>  <Binding energies>  (90) 
[-7.97]

>  <Ligand effiencies>  (90) 
[-0.24151515151515152]

>  <Interactions>  (90) 
["V-A:ASP:366:CG:3212, V-A:ASP:366:CB:3211, V-B:PRO:540:N:9855, H-A:TYR:484:OH:4347, V-B:PRO:540:CA:9854, V-B:TYR:539:C:9838, V-B:TYR:539:CE2:9847, V-A:GLY:454:CA:4048, V-B:TYR:539:CG:9843, V-B:MET:535:CE:9806, V-B:TYR:539:CZ:9848, V-B:PRO:540:CB:9856, H-A:GLY:454:N:4049, V-A:GLY:453:C:4041, V-A:ARG:545:CD:4922, V-B:TYR:539:CD1:9844, V-B:PRO:540:CD:9858, V-B:TYR:531:CE2:9764, V-B:LEU:363:CD1:8159, V-A:ARG:545:CZ:4925, V-B:ILE:538:CD1:9836, V-A:ARG:545:CG:4921, V-A:HIS:456:CE1:4069, V-B:ILE:538:CG2:9834, H-A:ASP:366:OD2:3214, V-B:ILE:538:CA:9831, V-A:GLY:453:CA:4043, V-B:TYR:539:CE1:9846, V-B:ILE:538:C:9829, V-B:ILE:538:CB:9833, H-A:ARG:545:NE:4923, H-A:ASP:366:OD1:3213, V-B:MET:535:CG:9804, V-A:ILE:455:C:4051, V-A:ARG:545:CB:4920"]

$$$$
4cf_Grossjean_2025
     RDKit          3D

 29 32  0  0  0  0  0  0  0  0999 V2000
  132.7810  125.9800   62.7540 N   0  0  0  0  0  0  0  0  0  0  0  0
  132.2410  124.8270   63.2620 C   0  0  0  0  0  0  0  0  0  0  0  0
  131.7400  124.7230   64.5700 C   0  0  0  0  0  0  0  0  0  0  0  0
  131.7170  125.7410   65.6230 C   0  0  0  0  0  0  0  0  0  0  0  0
  132.7590  126.0970   66.1740 O   0  0  0  0  0  0  0  0  0  0  0  0
  130.4940  126.2460   65.9170 N   0  0  0  0  0  0  0  0  0  0  0  0
  130.1210  127.1860   66.8960 C   0  0  0  0  0  0  0  0  0  0  0  0
  130.6270  127.2420   68.2090 C   0  0  0  0  0  0  0  0  0  0  0  0
  130.1590  128.2210   69.0880 C   0  0  0  0  0  0  0  0  0  0  0  0
  129.1950  129.1220   68.6330 C   0  0  0  0  0  0  0  0  0  0  0  0
  128.6870  129.0860   67.3760 N   0  0  0  0  0  0  0  0  0  0  0  0
  129.1500  128.1270   66.5330 C   0  0  0  0  0  0  0  0  0  0  0  0
  131.1180  123.1040   64.8860 S   0  0  0  0  0  0  0  0  0  0  0  0
  131.5410  122.5780   63.2730 C   0  0  0  0  0  0  0  0  0  0  0  0
  131.3080  121.3320   62.8650 N   0  0  0  0  0  0  0  0  0  0  0  0
  131.6870  121.0130   61.5990 C   0  0  0  0  0  0  0  0  0  0  0  0
  131.4190  119.6000   61.1700 C   0  0  0  0  0  0  0  0  0  0  0  0
  130.2510  118.9360   61.5750 C   0  0  0  0  0  0  0  0  0  0  0  0
  129.9950  117.6250   61.1810 C   0  0  0  0  0  0  0  0  0  0  0  0
  130.9070  116.9600   60.3690 C   0  0  0  0  0  0  0  0  0  0  0  0
  132.0710  117.5950   59.9490 C   0  0  0  0  0  0  0  0  0  0  0  0
  132.3230  118.9050   60.3460 C   0  0  0  0  0  0  0  0  0  0  0  0
  132.2730  121.9510   60.7440 C   0  0  0  0  0  0  0  0  0  0  0  0
  132.5180  123.2680   61.1630 C   0  0  0  0  0  0  0  0  0  0  0  0
  133.1690  124.2430   60.1750 C   0  0  0  0  0  0  0  0  0  0  0  0
  133.3480  123.7180   58.9610 F   0  0  0  0  0  0  0  0  0  0  0  0
  132.3990  125.3220   60.0330 F   0  0  0  0  0  0  0  0  0  0  0  0
  134.3660  124.6140   60.6290 F   0  0  0  0  0  0  0  0  0  0  0  0
  132.1420  123.6100   62.4940 C   0  0  0  0  0  0  0  0  0  0  0  0
  1  2  1  0
  2  3  2  0
  3  4  1  0
  4  5  2  0
  4  6  1  0
  6  7  1  0
  7  8  2  0
  8  9  1  0
  9 10  2  0
 10 11  1  0
 11 12  2  0
  3 13  1  0
 13 14  1  0
 14 15  2  0
 15 16  1  0
 16 17  1  0
 17 18  2  0
 18 19  1  0
 19 20  2  0
 20 21  1  0
 21 22  2  0
 16 23  2  0
 23 24  1  0
 24 25  1  0
 25 26  1  0
 25 27  1  0
 25 28  1  0
 24 29  2  0
 29  2  1  0
 12  7  1  0
 29 14  1  0
 22 17  1  0
M  END
>  <Binding energies>  (91) 
[-7.71]

>  <Ligand effiencies>  (91) 
[-0.2409375]

>  <Interactions>  (91) 
["V-A:ASP:366:CG:3212, V-A:ASP:366:CB:3211, V-B:GLU:543:CD:9879, H-A:TYR:484:OH:4347, V-B:ALA:541:CB:9863, H-B:GLU:543:OE2:9881, V-B:TYR:539:C:9838, V-A:LEU:475:CD2:4258, V-A:PRO:482:CG:4326, V-A:HIS:383:CE1:3393, V-A:ILE:369:CD1:3238, V-B:TYR:539:CD2:9845, V-A:ILE:369:CG2:3236, V-B:TYR:539:CE2:9847, V-B:TYR:539:CB:9842, V-B:VAL:344:CG1:7971, V-B:TYR:539:CZ:9848, V-A:PRO:482:CB:4325, V-A:ARG:545:CZ:4925, V-A:HIS:456:CE1:4069, V-A:GLU:543:CD:4907, V-B:HIS:456:CE1:9040, V-A:GLU:543:CG:4906, H-A:ASP:366:OD2:3214, V-A:GLU:543:CB:4905, H-A:ARG:545:NE:4923, V-A:TYR:484:CZ:4346, V-A:TYR:484:CE2:4345, H-A:ASP:366:OD1:3213, V-A:ILE:369:CB:3235, V-A:ASP:366:CA:3209, V-A:ILE:369:CG1:3237"]

$$$$
4ci_Grossjean_2025
     RDKit          3D

 28 31  0  0  0  0  0  0  0  0999 V2000
  128.8160  124.2540   63.8770 N   0  0  0  0  0  0  0  0  0  0  0  0
  129.2500  123.9120   62.6220 C   0  0  0  0  0  0  0  0  0  0  0  0
  130.6050  123.7370   62.2980 C   0  0  0  0  0  0  0  0  0  0  0  0
  131.7760  123.8600   63.1700 C   0  0  0  0  0  0  0  0  0  0  0  0
  132.6140  122.9570   63.2310 O   0  0  0  0  0  0  0  0  0  0  0  0
  131.8500  125.0080   63.8900 N   0  0  0  0  0  0  0  0  0  0  0  0
  132.8410  125.3800   64.7890 C   0  0  0  0  0  0  0  0  0  0  0  0
  132.5700  125.8150   66.0860 C   0  0  0  0  0  0  0  0  0  0  0  0
  133.8000  126.0830   66.6390 C   0  0  0  0  0  0  0  0  0  0  0  0
  134.7640  125.8220   65.7230 O   0  0  0  0  0  0  0  0  0  0  0  0
  134.1420  125.3780   64.5540 N   0  0  0  0  0  0  0  0  0  0  0  0
  130.8020  123.2920   60.6050 S   0  0  0  0  0  0  0  0  0  0  0  0
  129.0750  123.3510   60.3410 C   0  0  0  0  0  0  0  0  0  0  0  0
  128.5440  123.0870   59.1490 N   0  0  0  0  0  0  0  0  0  0  0  0
  127.1920  123.1550   59.0420 C   0  0  0  0  0  0  0  0  0  0  0  0
  126.6230  122.8570   57.6840 C   0  0  0  0  0  0  0  0  0  0  0  0
  127.4410  122.3690   56.6510 C   0  0  0  0  0  0  0  0  0  0  0  0
  126.9190  122.0900   55.3910 C   0  0  0  0  0  0  0  0  0  0  0  0
  125.5660  122.2970   55.1440 C   0  0  0  0  0  0  0  0  0  0  0  0
  124.7340  122.7830   56.1450 C   0  0  0  0  0  0  0  0  0  0  0  0
  125.2600  123.0630   57.4040 C   0  0  0  0  0  0  0  0  0  0  0  0
  126.3820  123.5050   60.1270 C   0  0  0  0  0  0  0  0  0  0  0  0
  126.9320  123.7850   61.3890 C   0  0  0  0  0  0  0  0  0  0  0  0
  125.9850  124.1620   62.5340 C   0  0  0  0  0  0  0  0  0  0  0  0
  126.2140  123.4700   63.6520 F   0  0  0  0  0  0  0  0  0  0  0  0
  126.1280  125.4540   62.8290 F   0  0  0  0  0  0  0  0  0  0  0  0
  124.7230  123.9300   62.1710 F   0  0  0  0  0  0  0  0  0  0  0  0
  128.3480  123.7040   61.5150 C   0  0  0  0  0  0  0  0  0  0  0  0
  1  2  1  0
  2  3  2  0
  3  4  1  0
  4  5  2  0
  4  6  1  0
  6  7  1  0
  7  8  1  0
  8  9  2  0
  9 10  1  0
 10 11  1  0
  3 12  1  0
 12 13  1  0
 13 14  2  0
 14 15  1  0
 15 16  1  0
 16 17  2  0
 17 18  1  0
 18 19  2  0
 19 20  1  0
 20 21  2  0
 15 22  2  0
 22 23  1  0
 23 24  1  0
 24 25  1  0
 24 26  1  0
 24 27  1  0
 23 28  2  0
 28  2  1  0
 11  7  2  0
 28 13  1  0
 21 16  1  0
M  END
>  <Binding energies>  (92) 
[-7.69]

>  <Ligand effiencies>  (92) 
[-0.24806451612903227]

>  <Interactions>  (92) 
["V-B:GLU:543:CD:9879, V-B:PRO:540:N:9855, V-B:PRO:540:CA:9854, H-B:GLU:543:OE2:9881, V-B:ALA:541:CA:9861, H-B:GLU:543:OE1:9880, V-B:TYR:539:C:9838, V-B:TYR:539:CD2:9845, V-B:TYR:539:CE2:9847, V-B:TYR:539:CG:9843, V-B:MET:535:CE:9806, V-B:GLU:543:CG:9878, V-B:ALA:541:C:9859, V-B:PRO:540:CB:9856, H-A:GLY:454:N:4049, V-B:TYR:539:CA:9840, V-A:ARG:545:CD:4922, V-B:TYR:539:CD1:9844, V-B:TYR:531:CZ:9765, V-B:PRO:540:CD:9858, V-B:TYR:531:CE2:9764, V-B:LEU:363:CD1:8159, V-A:ARG:545:CZ:4925, V-B:ILE:538:CD1:9836, V-A:ARG:545:CG:4921, V-B:ILE:538:CG2:9834, H-A:ARG:545:NH1:4926, H-A:ARG:545:NH2:4927, V-B:ILE:538:CA:9831, V-B:TYR:539:CE1:9846, V-B:ILE:538:CG1:9835, V-B:ILE:538:C:9829, V-B:ILE:538:CB:9833, H-A:ARG:545:NE:4923, V-B:MET:535:CG:9804, V-B:ARG:545:CZ:9897"]

$$$$
8a_Ghoteimi_2023
     RDKit          3D

 40 44  0  0  0  0  0  0  0  0999 V2000
  128.7540  133.1120   54.0900 C   0  0  0  0  0  0  0  0  0  0  0  0
  129.4360  132.5980   55.3620 C   0  0  0  0  0  0  0  0  0  0  0  0
  130.2580  133.6230   55.9050 O   0  0  0  0  0  0  0  0  0  0  0  0
  131.3650  133.3210   56.6330 C   0  0  0  0  0  0  0  0  0  0  0  0
  132.5140  133.5740   56.2580 O   0  0  0  0  0  0  0  0  0  0  0  0
  131.0520  132.6460   57.9370 C   0  0  0  0  0  0  0  0  0  0  0  0
  131.5840  131.3760   58.1930 C   0  0  0  0  0  0  0  0  0  0  0  0
  131.3120  130.7230   59.3920 C   0  0  0  0  0  0  0  0  0  0  0  0
  130.5030  131.3230   60.3580 C   0  0  0  0  0  0  0  0  0  0  0  0
  130.2920  130.5670   61.5290 N   0  0  0  0  0  0  0  0  0  0  0  0
  129.2020  129.8750   61.9410 C   0  0  0  0  0  0  0  0  0  0  0  0
  128.1490  129.7980   61.3090 O   0  0  0  0  0  0  0  0  0  0  0  0
  129.3480  129.1890   63.2290 C   0  0  0  0  0  0  0  0  0  0  0  0
  128.4830  129.7710   64.6510 S   0  0  0  0  0  0  0  0  0  0  0  0
  129.1760  128.5100   65.6450 C   0  0  0  0  0  0  0  0  0  0  0  0
  128.9040  128.4160   66.9470 N   0  0  0  0  0  0  0  0  0  0  0  0
  129.4990  127.4020   67.6290 C   0  0  0  0  0  0  0  0  0  0  0  0
  129.1960  127.3270   69.0910 C   0  0  0  0  0  0  0  0  0  0  0  0
  128.4340  126.2750   69.6190 C   0  0  0  0  0  0  0  0  0  0  0  0
  128.1450  126.2180   70.9800 C   0  0  0  0  0  0  0  0  0  0  0  0
  128.6110  127.2050   71.8460 C   0  0  0  0  0  0  0  0  0  0  0  0
  128.2740  127.0670   73.1790 O   0  0  0  0  0  0  0  0  0  0  0  0
  126.9190  127.2520   73.5740 C   0  0  0  0  0  0  0  0  0  0  0  0
  129.3790  128.2580   71.3290 C   0  0  0  0  0  0  0  0  0  0  0  0
  129.6640  128.3150   69.9660 C   0  0  0  0  0  0  0  0  0  0  0  0
  130.3530  126.4870   67.0100 C   0  0  0  0  0  0  0  0  0  0  0  0
  130.6280  126.5720   65.6410 C   0  0  0  0  0  0  0  0  0  0  0  0
  131.5180  125.5530   65.0270 C   0  0  0  0  0  0  0  0  0  0  0  0
  131.0790  124.2370   64.8750 C   0  0  0  0  0  0  0  0  0  0  0  0
  131.9020  123.2840   64.2810 C   0  0  0  0  0  0  0  0  0  0  0  0
  133.1750  123.6310   63.8260 C   0  0  0  0  0  0  0  0  0  0  0  0
  133.9200  122.6200   63.2500 O   0  0  0  0  0  0  0  0  0  0  0  0
  133.2850  121.7070   62.3630 C   0  0  0  0  0  0  0  0  0  0  0  0
  133.6150  124.9550   63.9710 C   0  0  0  0  0  0  0  0  0  0  0  0
  132.7890  125.9070   64.5640 C   0  0  0  0  0  0  0  0  0  0  0  0
  130.0340  127.6390   64.9110 C   0  0  0  0  0  0  0  0  0  0  0  0
  130.1280  128.0630   63.5360 C   0  0  0  0  0  0  0  0  0  0  0  0
  130.9260  127.4240   62.6210 N   0  0  0  0  0  0  0  0  0  0  0  0
  129.9700  132.5970   60.1120 C   0  0  0  0  0  0  0  0  0  0  0  0
  130.2430  133.2490   58.9120 C   0  0  0  0  0  0  0  0  0  0  0  0
  1  2  1  0
  2  3  1  0
  3  4  1  0
  4  5  2  0
  4  6  1  0
  6  7  2  0
  7  8  1  0
  8  9  2  0
  9 10  1  0
 10 11  1  0
 11 12  2  0
 11 13  1  0
 13 14  1  0
 14 15  1  0
 15 16  2  0
 16 17  1  0
 17 18  1  0
 18 19  2  0
 19 20  1  0
 20 21  2  0
 21 22  1  0
 22 23  1  0
 21 24  1  0
 24 25  2  0
 17 26  2  0
 26 27  1  0
 27 28  1  0
 28 29  2  0
 29 30  1  0
 30 31  2  0
 31 32  1  0
 32 33  1  0
 31 34  1  0
 34 35  2  0
 27 36  2  0
 36 37  1  0
 37 38  1  0
  9 39  1  0
 39 40  2  0
 40  6  1  0
 37 13  2  0
 36 15  1  0
 25 18  1  0
 35 28  1  0
M  END
>  <Binding energies>  (93) 
[-9.17]

>  <Ligand effiencies>  (93) 
[-0.21325581395348836]

>  <Interactions>  (93) 
["V-A:TYR:539:CZ:4876, V-A:TYR:539:CE1:4874, H-A:GLU:543:OE2:4909, V-A:TYR:539:CE2:4875, V-A:PRO:540:CA:4882, V-B:GLU:543:CD:9879, V-A:LEU:475:CD2:4258, V-A:GLY:454:CA:4048, H-A:GLY:454:N:4049, V-A:ARG:545:CZ:4925, V-A:HIS:456:CE1:4069, V-B:GLU:543:CB:9877, V-A:GLU:543:CD:4907, V-B:HIS:456:CE1:9040, V-B:LYS:547:CE:9921, V-B:GLU:543:C:9873, V-A:GLU:543:CG:4906, H-A:ASP:366:OD2:3214, V-B:GLY:544:C:9883, V-A:PRO:540:N:4883, V-A:MET:535:CG:4832, V-A:PRO:540:CD:4886, H-A:TYR:539:N:4869, V-A:TYR:539:C:4866, V-A:MET:535:CB:4831, V-B:HIS:456:CD2:9038, V-B:HIS:456:CG:9036"]

$$$$
8c_Ghoteimi_2023
     RDKit          3D

 34 38  0  0  0  0  0  0  0  0999 V2000
  124.3490  132.5330   63.5800 C   0  0  0  0  0  0  0  0  0  0  0  0
  124.5060  131.4440   64.4830 O   0  0  0  0  0  0  0  0  0  0  0  0
  125.0740  130.2680   64.0290 C   0  0  0  0  0  0  0  0  0  0  0  0
  124.6520  129.8140   62.7810 C   0  0  0  0  0  0  0  0  0  0  0  0
  125.1670  128.6370   62.2460 C   0  0  0  0  0  0  0  0  0  0  0  0
  126.1200  127.8840   62.9460 C   0  0  0  0  0  0  0  0  0  0  0  0
  126.6760  126.6160   62.3770 C   0  0  0  0  0  0  0  0  0  0  0  0
  126.2660  126.1240   61.1340 C   0  0  0  0  0  0  0  0  0  0  0  0
  126.8040  124.9370   60.6240 C   0  0  0  0  0  0  0  0  0  0  0  0
  126.3420  124.4390   59.3090 C   0  0  0  0  0  0  0  0  0  0  0  0
  127.2440  124.3100   58.2490 C   0  0  0  0  0  0  0  0  0  0  0  0
  126.8100  123.8320   57.0170 C   0  0  0  0  0  0  0  0  0  0  0  0
  125.4740  123.4800   56.8220 C   0  0  0  0  0  0  0  0  0  0  0  0
  125.1350  123.0130   55.5660 O   0  0  0  0  0  0  0  0  0  0  0  0
  126.1170  122.3380   54.7880 C   0  0  0  0  0  0  0  0  0  0  0  0
  124.5690  123.6140   57.8860 C   0  0  0  0  0  0  0  0  0  0  0  0
  125.0030  124.0910   59.1200 C   0  0  0  0  0  0  0  0  0  0  0  0
  127.7770  124.2560   61.4030 C   0  0  0  0  0  0  0  0  0  0  0  0
  128.5210  123.0430   61.1900 C   0  0  0  0  0  0  0  0  0  0  0  0
  128.3750  122.2790   60.0600 N   0  0  0  0  0  0  0  0  0  0  0  0
  129.3990  122.7230   62.2380 C   0  0  0  0  0  0  0  0  0  0  0  0
  130.3030  121.5760   62.3530 C   0  0  0  0  0  0  0  0  0  0  0  0
  131.2760  121.6140   63.1090 O   0  0  0  0  0  0  0  0  0  0  0  0
  129.9880  120.5080   61.5790 N   0  0  0  0  0  0  0  0  0  0  0  0
  130.6730  119.3040   61.5020 C   0  0  0  0  0  0  0  0  0  0  0  0
  130.2300  118.1020   61.8020 N   0  0  0  0  0  0  0  0  0  0  0  0
  131.1530  117.1820   61.6050 C   0  0  0  0  0  0  0  0  0  0  0  0
  132.3820  117.6340   61.1340 C   0  0  0  0  0  0  0  0  0  0  0  0
  132.3140  119.3600   60.9430 S   0  0  0  0  0  0  0  0  0  0  0  0
  129.3250  123.9310   63.5220 S   0  0  0  0  0  0  0  0  0  0  0  0
  128.1210  124.8520   62.6510 C   0  0  0  0  0  0  0  0  0  0  0  0
  127.6090  125.9810   63.1380 N   0  0  0  0  0  0  0  0  0  0  0  0
  126.5420  128.3490   64.1990 C   0  0  0  0  0  0  0  0  0  0  0  0
  126.0280  129.5250   64.7370 C   0  0  0  0  0  0  0  0  0  0  0  0
  1  2  1  0
  2  3  1  0
  3  4  2  0
  4  5  1  0
  5  6  2  0
  6  7  1  0
  7  8  2  0
  8  9  1  0
  9 10  1  0
 10 11  2  0
 11 12  1  0
 12 13  2  0
 13 14  1  0
 14 15  1  0
 13 16  1  0
 16 17  2  0
  9 18  2  0
 18 19  1  0
 19 20  1  0
 19 21  2  0
 21 22  1  0
 22 23  2  0
 22 24  1  0
 24 25  1  0
 25 26  2  0
 26 27  1  0
 27 28  2  0
 28 29  1  0
 21 30  1  0
 30 31  1  0
 31 32  2  0
  6 33  1  0
 33 34  2  0
 34  3  1  0
 32  7  1  0
 17 10  1  0
 31 18  1  0
 29 25  1  0
M  END
>  <Binding energies>  (94) 
[-8.25]

>  <Ligand effiencies>  (94) 
[-0.22297297297297297]

>  <Interactions>  (94) 
["V-B:GLU:543:CD:9879, V-B:PRO:540:N:9855, V-B:ALA:541:CB:9863, V-B:PRO:540:CA:9854, V-B:PRO:540:C:9852, V-B:TYR:539:C:9838, V-A:LEU:475:CD2:4258, V-A:PRO:482:CG:4326, V-A:HIS:383:CE1:3393, H-B:TYR:539:O:9839, V-B:TYR:539:CD2:9845, V-B:TYR:539:CE2:9847, V-A:SER:385:CA:3406, V-A:SER:385:CB:3408, V-B:MET:535:CE:9806, V-A:PRO:482:CB:4325, V-B:PRO:540:CB:9856, V-B:TYR:531:CZ:9765, V-B:TYR:531:CE2:9764, V-B:LEU:363:CD1:8159, V-B:ILE:538:CD1:9836, V-B:ILE:538:CG2:9834, V-B:ILE:538:CA:9831, V-B:ILE:538:CG1:9835, V-B:ILE:538:C:9829, V-B:ILE:538:CB:9833, H-B:TYR:531:OH:9766, V-B:ASP:366:CG:8183, V-B:MET:535:CG:9804, V-B:ARG:545:CZ:9897, V-B:LEU:475:CD1:9228, V-B:GLY:454:CA:9019, H-B:GLY:454:N:9020"]

$$$$
8d_Ghoteimi_2023
     RDKit          3D

 30 33  0  0  0  0  0  0  0  0999 V2000
  135.1430  127.6390   74.6420 C   0  0  0  0  0  0  0  0  0  0  0  0
  134.4310  128.1070   75.7790 O   0  0  0  0  0  0  0  0  0  0  0  0
  133.4240  127.3730   76.3210 C   0  0  0  0  0  0  0  0  0  0  0  0
  133.3770  127.0370   77.5070 O   0  0  0  0  0  0  0  0  0  0  0  0
  132.3800  127.0130   75.3380 C   0  0  0  0  0  0  0  0  0  0  0  0
  131.7200  128.2470   74.2630 S   0  0  0  0  0  0  0  0  0  0  0  0
  130.6550  127.0810   73.5130 C   0  0  0  0  0  0  0  0  0  0  0  0
  129.8180  127.4200   72.5320 N   0  0  0  0  0  0  0  0  0  0  0  0
  129.0350  126.4340   72.0170 C   0  0  0  0  0  0  0  0  0  0  0  0
  128.1020  126.8430   70.9220 C   0  0  0  0  0  0  0  0  0  0  0  0
  128.5580  127.5810   69.8200 C   0  0  0  0  0  0  0  0  0  0  0  0
  127.6850  127.9590   68.8030 C   0  0  0  0  0  0  0  0  0  0  0  0
  126.3360  127.6110   68.8610 C   0  0  0  0  0  0  0  0  0  0  0  0
  125.5450  128.0280   67.8090 O   0  0  0  0  0  0  0  0  0  0  0  0
  126.1440  128.7330   66.7260 C   0  0  0  0  0  0  0  0  0  0  0  0
  125.8700  126.8720   69.9580 C   0  0  0  0  0  0  0  0  0  0  0  0
  126.7470  126.4950   70.9720 C   0  0  0  0  0  0  0  0  0  0  0  0
  129.0860  125.1190   72.4880 C   0  0  0  0  0  0  0  0  0  0  0  0
  129.9660  124.7620   73.5150 C   0  0  0  0  0  0  0  0  0  0  0  0
  130.0030  123.3580   73.9860 C   0  0  0  0  0  0  0  0  0  0  0  0
  131.1670  122.6000   73.8440 C   0  0  0  0  0  0  0  0  0  0  0  0
  131.1980  121.2780   74.2780 C   0  0  0  0  0  0  0  0  0  0  0  0
  130.0730  120.6960   74.8630 C   0  0  0  0  0  0  0  0  0  0  0  0
  130.1960  119.3800   75.2630 O   0  0  0  0  0  0  0  0  0  0  0  0
  131.2950  119.0030   76.0830 C   0  0  0  0  0  0  0  0  0  0  0  0
  128.9040  121.4630   75.0080 C   0  0  0  0  0  0  0  0  0  0  0  0
  128.8740  122.7850   74.5720 C   0  0  0  0  0  0  0  0  0  0  0  0
  130.7950  125.7750   74.0650 C   0  0  0  0  0  0  0  0  0  0  0  0
  131.7870  125.7670   75.1050 C   0  0  0  0  0  0  0  0  0  0  0  0
  132.1120  124.6340   75.8060 N   0  0  0  0  0  0  0  0  0  0  0  0
  1  2  1  0
  2  3  1  0
  3  4  2  0
  3  5  1  0
  5  6  1  0
  6  7  1  0
  7  8  2  0
  8  9  1  0
  9 10  1  0
 10 11  2  0
 11 12  1  0
 12 13  2  0
 13 14  1  0
 14 15  1  0
 13 16  1  0
 16 17  2  0
  9 18  2  0
 18 19  1  0
 19 20  1  0
 20 21  2  0
 21 22  1  0
 22 23  2  0
 23 24  1  0
 24 25  1  0
 23 26  1  0
 26 27  2  0
 19 28  2  0
 28 29  1  0
 29 30  1  0
 29  5  2  0
 28  7  1  0
 17 10  1  0
 27 20  1  0
M  END
>  <Binding energies>  (95) 
[-6.88]

>  <Ligand effiencies>  (95) 
[-0.215]

>  <Interactions>  (95) 
["V-B:GLU:543:CD:9879, V-A:HIS:456:CE1:4069, V-B:GLU:543:CB:9877, V-B:HIS:456:CE1:9040, V-B:LYS:547:CE:9921, V-A:HIS:456:CD2:4067, V-B:GLU:543:C:9873, V-B:ARG:545:CG:9893, H-A:ASP:473:OD2:4241, V-A:ASP:473:CB:4238, V-A:GLY:544:C:4911, V-B:GLY:544:CA:9885, V-A:ASP:473:CG:4239, V-A:TYR:484:CB:4340, V-A:TYR:484:C:4336, V-A:ASP:485:CA:4352, V-B:GLY:544:C:9883, V-A:HIS:456:CB:4064, V-A:VAL:457:C:4072, V-A:HIS:456:CA:4062, V-A:HIS:456:C:4060, V-A:HIS:456:CG:4065, V-A:VAL:458:CG2:4086, V-B:ARG:545:CA:9890, V-A:TYR:484:CG:4341, V-A:PRO:486:CD:4365, V-A:ASP:485:C:4350, V-A:PRO:486:N:4362, V-A:ARG:545:C:4916"]

$$$$
9a_Ghoteimi_2023
     RDKit          3D

 48 54  0  0  0  0  0  0  0  0999 V2000
  125.8090  127.9960   75.0370 C   0  0  0  0  0  0  0  0  0  0  0  0
  126.4320  127.2620   73.8450 C   0  0  0  0  0  0  0  0  0  0  0  0
  127.6600  127.8890   73.4930 O   0  0  0  0  0  0  0  0  0  0  0  0
  128.7570  127.1540   73.1800 C   0  0  0  0  0  0  0  0  0  0  0  0
  129.5120  126.6640   74.0260 O   0  0  0  0  0  0  0  0  0  0  0  0
  128.9680  127.0000   71.7010 C   0  0  0  0  0  0  0  0  0  0  0  0
  129.4430  128.0890   70.9600 C   0  0  0  0  0  0  0  0  0  0  0  0
  129.6470  127.9780   69.5870 C   0  0  0  0  0  0  0  0  0  0  0  0
  129.3820  126.7780   68.9270 C   0  0  0  0  0  0  0  0  0  0  0  0
  129.6240  126.7820   67.5400 N   0  0  0  0  0  0  0  0  0  0  0  0
  130.5630  126.1300   66.8100 C   0  0  0  0  0  0  0  0  0  0  0  0
  131.4110  125.3760   67.2890 O   0  0  0  0  0  0  0  0  0  0  0  0
  130.5110  126.3710   65.3650 C   0  0  0  0  0  0  0  0  0  0  0  0
  130.1660  127.9860   64.7440 S   0  0  0  0  0  0  0  0  0  0  0  0
  130.3000  127.4280   63.0920 C   0  0  0  0  0  0  0  0  0  0  0  0
  130.1500  128.2580   62.0610 N   0  0  0  0  0  0  0  0  0  0  0  0
  130.2860  127.7260   60.8170 C   0  0  0  0  0  0  0  0  0  0  0  0
  130.1250  128.6770   59.6750 C   0  0  0  0  0  0  0  0  0  0  0  0
  130.9270  129.8200   59.5840 C   0  0  0  0  0  0  0  0  0  0  0  0
  130.7840  130.7110   58.5230 C   0  0  0  0  0  0  0  0  0  0  0  0
  129.8430  130.4840   57.5060 C   0  0  0  0  0  0  0  0  0  0  0  0
  129.6750  131.3790   56.4450 N   0  0  0  0  0  0  0  0  0  0  0  0
  128.3350  131.7110   55.9190 C   0  0  0  0  0  0  0  0  0  0  0  0
  128.3620  132.4120   54.5450 C   0  0  0  0  0  0  0  0  0  0  0  0
  129.1850  133.5650   54.6020 O   0  0  0  0  0  0  0  0  0  0  0  0
  130.5210  133.2330   54.9480 C   0  0  0  0  0  0  0  0  0  0  0  0
  130.5540  132.5620   56.3370 C   0  0  0  0  0  0  0  0  0  0  0  0
  129.0320  129.3440   57.6110 C   0  0  0  0  0  0  0  0  0  0  0  0
  129.1730  128.4560   58.6730 C   0  0  0  0  0  0  0  0  0  0  0  0
  130.5420  126.3690   60.6100 C   0  0  0  0  0  0  0  0  0  0  0  0
  130.6800  125.4900   61.6900 C   0  0  0  0  0  0  0  0  0  0  0  0
  130.9150  124.0500   61.4140 C   0  0  0  0  0  0  0  0  0  0  0  0
  132.2010  123.5790   61.1390 C   0  0  0  0  0  0  0  0  0  0  0  0
  132.4210  122.2270   60.8930 C   0  0  0  0  0  0  0  0  0  0  0  0
  131.3630  121.3050   60.9340 C   0  0  0  0  0  0  0  0  0  0  0  0
  131.5580  119.9460   60.6800 N   0  0  0  0  0  0  0  0  0  0  0  0
  130.8090  118.9510   61.4740 C   0  0  0  0  0  0  0  0  0  0  0  0
  130.8230  117.5380   60.8520 C   0  0  0  0  0  0  0  0  0  0  0  0
  132.1600  117.1130   60.6380 O   0  0  0  0  0  0  0  0  0  0  0  0
  132.8530  117.9840   59.7580 C   0  0  0  0  0  0  0  0  0  0  0  0
  132.8940  119.4090   60.3510 C   0  0  0  0  0  0  0  0  0  0  0  0
  130.0770  121.7890   61.2140 C   0  0  0  0  0  0  0  0  0  0  0  0
  129.8560  123.1410   61.4550 C   0  0  0  0  0  0  0  0  0  0  0  0
  130.5780  126.0330   63.0030 C   0  0  0  0  0  0  0  0  0  0  0  0
  130.7170  125.4580   64.3190 C   0  0  0  0  0  0  0  0  0  0  0  0
  131.0370  124.1400   64.5180 N   0  0  0  0  0  0  0  0  0  0  0  0
  128.9080  125.6800   69.6620 C   0  0  0  0  0  0  0  0  0  0  0  0
  128.7040  125.7930   71.0350 C   0  0  0  0  0  0  0  0  0  0  0  0
  1  2  1  0
  2  3  1  0
  3  4  1  0
  4  5  2  0
  4  6  1  0
  6  7  2  0
  7  8  1  0
  8  9  2  0
  9 10  1  0
 10 11  1  0
 11 12  2  0
 11 13  1  0
 13 14  1  0
 14 15  1  0
 15 16  2  0
 16 17  1  0
 17 18  1  0
 18 19  2  0
 19 20  1  0
 20 21  2  0
 21 22  1  0
 22 23  1  0
 23 24  1  0
 24 25  1  0
 25 26  1  0
 26 27  1  0
 21 28  1  0
 28 29  2  0
 17 30  2  0
 30 31  1  0
 31 32  1  0
 32 33  2  0
 33 34  1  0
 34 35  2  0
 35 36  1  0
 36 37  1  0
 37 38  1  0
 38 39  1  0
 39 40  1  0
 40 41  1  0
 35 42  1  0
 42 43  2  0
 31 44  2  0
 44 45  1  0
 45 46  1  0
  9 47  1  0
 47 48  2  0
 48  6  1  0
 45 13  2  0
 44 15  1  0
 29 18  1  0
 43 32  1  0
 27 22  1  0
 41 36  1  0
M  END
>  <Binding energies>  (96) 
[-8.69]

>  <Ligand effiencies>  (96) 
[-0.1703921568627451]

>  <Interactions>  (96) 
["V-A:TYR:539:CZ:4876, V-A:TYR:539:CE1:4874, V-A:TYR:539:CE2:4875, V-A:TYR:531:CE2:4792, V-A:ILE:538:CA:4859, V-B:GLU:543:CD:9879, H-A:TYR:484:OH:4347, V-B:ALA:541:CB:9863, H-B:GLU:543:OE2:9881, V-A:LEU:475:CD2:4258, V-A:HIS:383:CE1:3393, V-B:TYR:539:CD2:9845, V-A:ILE:369:CG2:3236, V-B:TYR:539:CE2:9847, V-A:SER:385:CA:3406, V-A:PRO:482:CB:4325, H-A:HIS:383:ND1:3390, V-A:HIS:456:CE1:4069, V-B:GLU:543:CB:9877, V-A:GLU:543:CD:4907, V-B:HIS:456:CE1:9040, V-B:LYS:547:CE:9921, H-B:LYS:547:NZ:9922, V-B:GLU:543:C:9873, V-A:ILE:538:CB:4861, V-A:ILE:538:CG2:4862, V-B:GLY:544:C:9883, V-A:TYR:484:CE2:4345, V-A:MET:535:CG:4832, V-A:VAL:384:C:3396, H-A:TYR:539:OH:4877, V-B:GLU:543:CA:9875, V-B:HIS:456:CD2:9038, V-B:HIS:456:CG:9036, V-B:LYS:547:CD:9920, V-B:HIS:456:CB:9035"]

$$$$
9b_Ghoteimi_2023
     RDKit          3D

 42 48  0  0  0  0  0  0  0  0999 V2000
  131.3620  125.7660   61.3890 N   0  0  0  0  0  0  0  0  0  0  0  0
  131.4340  125.1630   62.6190 C   0  0  0  0  0  0  0  0  0  0  0  0
  131.9160  123.8600   62.8150 C   0  0  0  0  0  0  0  0  0  0  0  0
  132.4390  122.9200   61.8200 C   0  0  0  0  0  0  0  0  0  0  0  0
  133.0540  123.3280   60.8320 O   0  0  0  0  0  0  0  0  0  0  0  0
  132.1920  121.6100   62.0690 N   0  0  0  0  0  0  0  0  0  0  0  0
  132.5590  120.5170   61.2940 C   0  0  0  0  0  0  0  0  0  0  0  0
  131.7260  119.4190   61.0840 C   0  0  0  0  0  0  0  0  0  0  0  0
  132.4470  118.5720   60.2740 C   0  0  0  0  0  0  0  0  0  0  0  0
  133.6520  119.1320   60.0110 O   0  0  0  0  0  0  0  0  0  0  0  0
  133.7110  120.3640   60.6630 N   0  0  0  0  0  0  0  0  0  0  0  0
  131.8350  123.3990   64.5150 S   0  0  0  0  0  0  0  0  0  0  0  0
  131.1420  124.9430   64.9480 C   0  0  0  0  0  0  0  0  0  0  0  0
  130.7990  125.2270   66.2030 N   0  0  0  0  0  0  0  0  0  0  0  0
  130.2520  126.4500   66.4320 C   0  0  0  0  0  0  0  0  0  0  0  0
  129.8570  126.7350   67.8440 C   0  0  0  0  0  0  0  0  0  0  0  0
  129.2510  125.7530   68.6390 C   0  0  0  0  0  0  0  0  0  0  0  0
  128.8720  126.0290   69.9490 C   0  0  0  0  0  0  0  0  0  0  0  0
  129.0720  127.3000   70.5090 C   0  0  0  0  0  0  0  0  0  0  0  0
  128.6990  127.5910   71.8260 N   0  0  0  0  0  0  0  0  0  0  0  0
  129.6990  127.9790   72.8410 C   0  0  0  0  0  0  0  0  0  0  0  0
  129.0870  128.5910   74.1180 C   0  0  0  0  0  0  0  0  0  0  0  0
  128.1240  127.7060   74.6660 O   0  0  0  0  0  0  0  0  0  0  0  0
  127.0650  127.4600   73.7560 C   0  0  0  0  0  0  0  0  0  0  0  0
  127.6130  126.8170   72.4640 C   0  0  0  0  0  0  0  0  0  0  0  0
  129.6970  128.2730   69.7160 C   0  0  0  0  0  0  0  0  0  0  0  0
  130.0800  127.9960   68.4060 C   0  0  0  0  0  0  0  0  0  0  0  0
  130.0750  127.3900   65.4140 C   0  0  0  0  0  0  0  0  0  0  0  0
  130.4530  127.1030   64.0970 C   0  0  0  0  0  0  0  0  0  0  0  0
  130.2720  128.1480   63.0570 C   0  0  0  0  0  0  0  0  0  0  0  0
  129.0290  128.7590   62.8810 C   0  0  0  0  0  0  0  0  0  0  0  0
  128.8610  129.7510   61.9200 C   0  0  0  0  0  0  0  0  0  0  0  0
  129.9310  130.1610   61.1090 C   0  0  0  0  0  0  0  0  0  0  0  0
  129.7880  131.1660   60.1500 N   0  0  0  0  0  0  0  0  0  0  0  0
  129.0720  132.4060   60.5040 C   0  0  0  0  0  0  0  0  0  0  0  0
  128.6440  133.2350   59.2740 C   0  0  0  0  0  0  0  0  0  0  0  0
  129.7750  133.5220   58.4650 O   0  0  0  0  0  0  0  0  0  0  0  0
  130.4040  132.3370   58.0010 C   0  0  0  0  0  0  0  0  0  0  0  0
  130.8720  131.4830   59.1980 C   0  0  0  0  0  0  0  0  0  0  0  0
  131.1790  129.5530   61.3080 C   0  0  0  0  0  0  0  0  0  0  0  0
  131.3480  128.5590   62.2690 C   0  0  0  0  0  0  0  0  0  0  0  0
  130.9960  125.8160   63.8290 C   0  0  0  0  0  0  0  0  0  0  0  0
  1  2  1  0
  2  3  2  0
  3  4  1  0
  4  5  2  0
  4  6  1  0
  6  7  1  0
  7  8  1  0
  8  9  2  0
  9 10  1  0
 10 11  1  0
  3 12  1  0
 12 13  1  0
 13 14  2  0
 14 15  1  0
 15 16  1  0
 16 17  2  0
 17 18  1  0
 18 19  2  0
 19 20  1  0
 20 21  1  0
 21 22  1  0
 22 23  1  0
 23 24  1  0
 24 25  1  0
 19 26  1  0
 26 27  2  0
 15 28  2  0
 28 29  1  0
 29 30  1  0
 30 31  2  0
 31 32  1  0
 32 33  2  0
 33 34  1  0
 34 35  1  0
 35 36  1  0
 36 37  1  0
 37 38  1  0
 38 39  1  0
 33 40  1  0
 40 41  2  0
 29 42  2  0
 42  2  1  0
 11  7  2  0
 42 13  1  0
 27 16  1  0
 41 30  1  0
 25 20  1  0
 39 34  1  0
M  END
>  <Binding energies>  (97) 
[-8.08]

>  <Ligand effiencies>  (97) 
[-0.17955555555555555]

>  <Interactions>  (97) 
["V-A:ASP:366:CG:3212, V-A:TYR:539:CE1:4874, V-A:TYR:539:CD1:4872, V-B:GLU:543:CD:9879, H-A:TYR:484:OH:4347, V-A:LEU:475:CD2:4258, V-B:TYR:539:CD2:9845, V-B:GLU:543:CG:9878, V-A:HIS:456:CE1:4069, V-B:GLU:543:CB:9877, V-A:GLU:543:CD:4907, V-B:HIS:456:CE1:9040, V-B:LYS:547:CE:9921, H-B:LYS:547:NZ:9922, H-A:ASP:366:OD2:3214, V-A:GLU:543:CB:4905, V-B:GLY:544:C:9883, V-A:TYR:484:CE2:4345, H-A:ASP:366:OD1:3213, V-A:TYR:539:C:4866, V-B:HIS:456:CD2:9038, V-B:HIS:456:CG:9036"]

$$$$
9c_Ghoteimi_2023
     RDKit          3D

 42 48  0  0  0  0  0  0  0  0999 V2000
  131.3800  125.7840   61.3740 N   0  0  0  0  0  0  0  0  0  0  0  0
  131.4580  125.1970   62.6110 C   0  0  0  0  0  0  0  0  0  0  0  0
  131.9610  123.9040   62.8230 C   0  0  0  0  0  0  0  0  0  0  0  0
  132.5000  122.9610   61.8380 C   0  0  0  0  0  0  0  0  0  0  0  0
  133.2130  123.3540   60.9130 O   0  0  0  0  0  0  0  0  0  0  0  0
  132.1510  121.6640   62.0230 N   0  0  0  0  0  0  0  0  0  0  0  0
  132.5110  120.5820   61.2320 C   0  0  0  0  0  0  0  0  0  0  0  0
  133.6300  120.4050   60.5640 N   0  0  0  0  0  0  0  0  0  0  0  0
  133.6300  119.2580   59.9130 C   0  0  0  0  0  0  0  0  0  0  0  0
  132.4880  118.4740   60.0460 C   0  0  0  0  0  0  0  0  0  0  0  0
  131.3590  119.2930   61.0840 S   0  0  0  0  0  0  0  0  0  0  0  0
  131.8860  123.4600   64.5270 S   0  0  0  0  0  0  0  0  0  0  0  0
  131.1660  124.9980   64.9420 C   0  0  0  0  0  0  0  0  0  0  0  0
  130.8170  125.2900   66.1940 N   0  0  0  0  0  0  0  0  0  0  0  0
  130.2490  126.5060   66.4070 C   0  0  0  0  0  0  0  0  0  0  0  0
  129.8480  126.8000   67.8170 C   0  0  0  0  0  0  0  0  0  0  0  0
  130.0850  128.0540   68.3920 C   0  0  0  0  0  0  0  0  0  0  0  0
  129.7180  128.3190   69.7070 C   0  0  0  0  0  0  0  0  0  0  0  0
  129.1110  127.3340   70.5030 C   0  0  0  0  0  0  0  0  0  0  0  0
  128.7300  127.5880   71.8250 N   0  0  0  0  0  0  0  0  0  0  0  0
  129.7200  127.9770   72.8500 C   0  0  0  0  0  0  0  0  0  0  0  0
  129.0920  128.5510   74.1380 C   0  0  0  0  0  0  0  0  0  0  0  0
  128.1500  127.6320   74.6670 O   0  0  0  0  0  0  0  0  0  0  0  0
  127.0980  127.3810   73.7490 C   0  0  0  0  0  0  0  0  0  0  0  0
  127.6630  126.7750   72.4460 C   0  0  0  0  0  0  0  0  0  0  0  0
  128.8580  126.0860   69.9160 C   0  0  0  0  0  0  0  0  0  0  0  0
  129.2220  125.8230   68.5980 C   0  0  0  0  0  0  0  0  0  0  0  0
  130.0580  127.4320   65.3790 C   0  0  0  0  0  0  0  0  0  0  0  0
  130.4430  127.1370   64.0660 C   0  0  0  0  0  0  0  0  0  0  0  0
  130.2480  128.1660   63.0150 C   0  0  0  0  0  0  0  0  0  0  0  0
  128.9930  128.7440   62.8190 C   0  0  0  0  0  0  0  0  0  0  0  0
  128.8100  129.7220   61.8450 C   0  0  0  0  0  0  0  0  0  0  0  0
  129.8780  130.1460   61.0390 C   0  0  0  0  0  0  0  0  0  0  0  0
  129.7200  131.1340   60.0620 N   0  0  0  0  0  0  0  0  0  0  0  0
  129.0880  132.4160   60.4320 C   0  0  0  0  0  0  0  0  0  0  0  0
  128.6250  133.2410   59.2110 C   0  0  0  0  0  0  0  0  0  0  0  0
  129.7160  133.4540   58.3270 O   0  0  0  0  0  0  0  0  0  0  0  0
  130.2530  132.2300   57.8520 C   0  0  0  0  0  0  0  0  0  0  0  0
  130.7540  131.3750   59.0380 C   0  0  0  0  0  0  0  0  0  0  0  0
  131.1390  129.5720   61.2590 C   0  0  0  0  0  0  0  0  0  0  0  0
  131.3220  128.5950   62.2330 C   0  0  0  0  0  0  0  0  0  0  0  0
  131.0080  125.8540   63.8130 C   0  0  0  0  0  0  0  0  0  0  0  0
  1  2  1  0
  2  3  2  0
  3  4  1  0
  4  5  2  0
  4  6  1  0
  6  7  1  0
  7  8  2  0
  8  9  1  0
  9 10  2  0
 10 11  1  0
  3 12  1  0
 12 13  1  0
 13 14  2  0
 14 15  1  0
 15 16  1  0
 16 17  2  0
 17 18  1  0
 18 19  2  0
 19 20  1  0
 20 21  1  0
 21 22  1  0
 22 23  1  0
 23 24  1  0
 24 25  1  0
 19 26  1  0
 26 27  2  0
 15 28  2  0
 28 29  1  0
 29 30  1  0
 30 31  2  0
 31 32  1  0
 32 33  2  0
 33 34  1  0
 34 35  1  0
 35 36  1  0
 36 37  1  0
 37 38  1  0
 38 39  1  0
 33 40  1  0
 40 41  2  0
 29 42  2  0
 42  2  1  0
 11  7  1  0
 42 13  1  0
 27 16  1  0
 41 30  1  0
 25 20  1  0
 39 34  1  0
M  END
>  <Binding energies>  (98) 
[-8.36]

>  <Ligand effiencies>  (98) 
[-0.18577777777777776]

>  <Interactions>  (98) 
["V-A:ASP:366:CG:3212, V-A:TYR:539:CE1:4874, V-A:TYR:539:CD1:4872, V-B:GLU:543:CD:9879, H-A:TYR:484:OH:4347, V-A:LEU:475:CD2:4258, V-B:TYR:539:CD2:9845, V-A:ILE:369:CG2:3236, V-A:SER:385:CA:3406, V-B:GLU:543:CG:9878, V-A:HIS:456:CE1:4069, V-B:GLU:543:CB:9877, V-A:GLU:543:CD:4907, V-B:HIS:456:CE1:9040, V-B:LYS:547:CE:9921, H-B:LYS:547:NZ:9922, H-A:ASP:366:OD2:3214, V-A:GLU:543:CB:4905, V-A:TYR:484:CE2:4345, H-A:ASP:366:OD1:3213, V-A:TYR:539:C:4866, V-A:VAL:384:C:3396, V-B:HIS:456:CD2:9038, V-B:HIS:456:CG:9036"]

$$$$
RR11_Rahimova_2017
     RDKit          3D

 33 38  0  0  0  0  0  0  0  0999 V2000
  134.2650  122.4340   62.2940 N   0  0  0  0  0  0  0  0  0  0  0  0
  133.5540  123.3050   63.1180 C   0  0  0  0  0  0  0  0  0  0  0  0
  133.9730  124.6270   63.2550 C   0  0  0  0  0  0  0  0  0  0  0  0
  133.2610  125.4960   64.0760 C   0  0  0  0  0  0  0  0  0  0  0  0
  132.1250  125.0530   64.7670 C   0  0  0  0  0  0  0  0  0  0  0  0
  131.3550  125.9930   65.6470 C   0  0  0  0  0  0  0  0  0  0  0  0
  131.5560  126.1330   66.9400 N   0  0  0  0  0  0  0  0  0  0  0  0
  130.6600  127.0880   67.3430 C   0  0  0  0  0  0  0  0  0  0  0  0
  130.4530  127.6240   68.6220 C   0  0  0  0  0  0  0  0  0  0  0  0
  129.4770  128.6150   68.7780 C   0  0  0  0  0  0  0  0  0  0  0  0
  129.2250  129.2120   70.1560 C   0  0  0  0  0  0  0  0  0  0  0  0
  129.4270  128.2080   71.2830 C   0  0  0  0  0  0  0  0  0  0  0  0
  129.8900  128.6540   72.5260 C   0  0  0  0  0  0  0  0  0  0  0  0
  130.0830  127.7740   73.5930 C   0  0  0  0  0  0  0  0  0  0  0  0
  129.7920  126.4180   73.3920 C   0  0  0  0  0  0  0  0  0  0  0  0
  129.9030  125.3670   74.2650 N   0  0  0  0  0  0  0  0  0  0  0  0
  129.5120  124.3090   73.5870 C   0  0  0  0  0  0  0  0  0  0  0  0
  129.4790  122.9120   74.1370 C   0  0  0  0  0  0  0  0  0  0  0  0
  130.6560  122.2970   74.5830 C   0  0  0  0  0  0  0  0  0  0  0  0
  130.6280  120.9970   75.0840 C   0  0  0  0  0  0  0  0  0  0  0  0
  129.4210  120.3040   75.1420 C   0  0  0  0  0  0  0  0  0  0  0  0
  129.3920  119.0020   75.6380 N   0  0  0  0  0  0  0  0  0  0  0  0
  128.2430  120.9050   74.7060 C   0  0  0  0  0  0  0  0  0  0  0  0
  128.2720  122.2040   74.2050 C   0  0  0  0  0  0  0  0  0  0  0  0
  129.1420  124.6300   72.2980 N   0  0  0  0  0  0  0  0  0  0  0  0
  129.3120  125.9840   72.1330 C   0  0  0  0  0  0  0  0  0  0  0  0
  129.1120  126.8610   71.0630 C   0  0  0  0  0  0  0  0  0  0  0  0
  128.7100  129.0400   67.6860 C   0  0  0  0  0  0  0  0  0  0  0  0
  128.8900  128.5220   66.4010 C   0  0  0  0  0  0  0  0  0  0  0  0
  129.8780  127.5460   66.2570 C   0  0  0  0  0  0  0  0  0  0  0  0
  130.3500  126.8190   65.1890 N   0  0  0  0  0  0  0  0  0  0  0  0
  131.7170  123.7200   64.6210 C   0  0  0  0  0  0  0  0  0  0  0  0
  132.4270  122.8490   63.8000 C   0  0  0  0  0  0  0  0  0  0  0  0
  1  2  1  0
  2  3  2  0
  3  4  1  0
  4  5  2  0
  5  6  1  0
  6  7  2  0
  7  8  1  0
  8  9  2  0
  9 10  1  0
 10 11  1  0
 11 12  1  0
 12 13  2  0
 13 14  1  0
 14 15  2  0
 15 16  1  0
 16 17  2  0
 17 18  1  0
 18 19  2  0
 19 20  1  0
 20 21  2  0
 21 22  1  0
 21 23  1  0
 23 24  2  0
 17 25  1  0
 25 26  1  0
 26 27  2  0
 10 28  2  0
 28 29  1  0
 29 30  2  0
 30 31  1  0
  5 32  1  0
 32 33  2  0
 33  2  1  0
 31  6  1  0
 30  8  1  0
 27 12  1  0
 26 15  1  0
 24 18  1  0
M  END
>  <Binding energies>  (99) 
[-8.61]

>  <Ligand effiencies>  (99) 
[-0.22076923076923075]

>  <Interactions>  (99) 
["V-A:ASP:366:CG:3212, V-B:GLU:543:CD:9879, H-A:TYR:484:OH:4347, H-B:GLU:543:OE2:9881, V-A:LEU:475:CD2:4258, V-A:ILE:369:CD1:3238, V-A:GLY:454:CA:4048, V-A:GLY:453:C:4041, V-A:ARG:545:CZ:4925, V-A:HIS:456:CE1:4069, H-A:HIS:456:NE2:4070, H-B:GLU:543:O:9874, V-A:GLU:543:CD:4907, V-B:HIS:456:CE1:9040, V-B:LYS:547:CE:9921, H-B:LYS:547:NZ:9922, V-A:HIS:456:CD2:4067, V-B:GLU:543:C:9873, V-A:GLU:543:CG:4906, V-A:ASP:473:CG:4239, V-A:TYR:484:CB:4340, V-A:TYR:484:C:4336, V-A:GLU:543:CB:4905, V-A:GLU:543:C:4901, V-A:GLY:453:CA:4043, H-A:SER:385:O:3405, H-A:ASP:485:OD2:4357, H-A:TYR:484:O:4337"]

$$$$
RR16_Rahimova_2017
     RDKit          3D

 44 49  0  0  0  0  0  0  0  0999 V2000
  129.2010  128.2340   74.9260 O   0  0  0  0  0  0  0  0  0  0  0  0
  129.8830  127.1810   74.1650 S   0  0  0  0  0  0  0  0  0  0  0  0
  129.5920  125.7640   74.4130 O   0  0  0  0  0  0  0  0  0  0  0  0
  131.6200  127.4260   74.3570 N   0  0  0  0  0  0  0  0  0  0  0  0
  132.2180  127.6200   75.6990 C   0  0  0  0  0  0  0  0  0  0  0  0
  132.2190  126.2670   76.4570 C   0  0  0  0  0  0  0  0  0  0  0  0
  133.0090  125.1040   75.8250 C   0  0  0  0  0  0  0  0  0  0  0  0
  134.4900  125.0580   76.2370 C   0  0  0  0  0  0  0  0  0  0  0  0
  135.2960  126.3480   75.9900 C   0  0  0  0  0  0  0  0  0  0  0  0
  134.7080  127.3660   74.9930 C   0  0  0  0  0  0  0  0  0  0  0  0
  133.5990  128.2940   75.5270 C   0  0  0  0  0  0  0  0  0  0  0  0
  129.5750  127.5110   72.4340 C   0  0  0  0  0  0  0  0  0  0  0  0
  130.1830  128.6010   71.8050 C   0  0  0  0  0  0  0  0  0  0  0  0
  129.8410  128.9180   70.4940 C   0  0  0  0  0  0  0  0  0  0  0  0
  128.8950  128.1460   69.8170 C   0  0  0  0  0  0  0  0  0  0  0  0
  128.3490  128.6340   68.1820 S   0  0  0  0  0  0  0  0  0  0  0  0
  128.7190  130.0440   67.9990 O   0  0  0  0  0  0  0  0  0  0  0  0
  126.9500  128.2110   68.0410 O   0  0  0  0  0  0  0  0  0  0  0  0
  129.3370  127.6520   67.0830 N   0  0  0  0  0  0  0  0  0  0  0  0
  129.4300  128.1830   65.6990 C   0  0  0  0  0  0  0  0  0  0  0  0
  130.0320  127.1240   64.7530 C   0  0  0  0  0  0  0  0  0  0  0  0
  131.3810  126.5800   65.2840 C   0  0  0  0  0  0  0  0  0  0  0  0
  131.9730  125.4930   64.3840 C   0  0  0  0  0  0  0  0  0  0  0  0
  133.3280  125.5470   64.0260 C   0  0  0  0  0  0  0  0  0  0  0  0
  133.9110  124.5740   63.2140 C   0  0  0  0  0  0  0  0  0  0  0  0
  135.2380  124.6410   62.8770 O   0  0  0  0  0  0  0  0  0  0  0  0
  133.1020  123.5220   62.7560 C   0  0  0  0  0  0  0  0  0  0  0  0
  133.3950  122.4390   61.9780 N   0  0  0  0  0  0  0  0  0  0  0  0
  132.2420  121.6950   61.8530 N   0  0  0  0  0  0  0  0  0  0  0  0
  131.2500  122.3330   62.5040 N   0  0  0  0  0  0  0  0  0  0  0  0
  129.9310  121.7250   62.6080 C   0  0  0  0  0  0  0  0  0  0  0  0
  128.8680  122.4910   61.8340 C   0  0  0  0  0  0  0  0  0  0  0  0
  127.9200  123.2600   62.5170 C   0  0  0  0  0  0  0  0  0  0  0  0
  126.9580  123.9810   61.8090 C   0  0  0  0  0  0  0  0  0  0  0  0
  126.9400  123.9380   60.4140 C   0  0  0  0  0  0  0  0  0  0  0  0
  127.8830  123.1750   59.7270 C   0  0  0  0  0  0  0  0  0  0  0  0
  127.8700  123.1280   58.0020 Cl  0  0  0  0  0  0  0  0  0  0  0  0
  128.8440  122.4500   60.4360 C   0  0  0  0  0  0  0  0  0  0  0  0
  131.7340  123.4790   63.1150 C   0  0  0  0  0  0  0  0  0  0  0  0
  131.1480  124.4560   63.9260 C   0  0  0  0  0  0  0  0  0  0  0  0
  131.2970  126.1480   66.7720 C   0  0  0  0  0  0  0  0  0  0  0  0
  130.6450  127.2340   67.6510 C   0  0  0  0  0  0  0  0  0  0  0  0
  128.3190  127.0320   70.4330 C   0  0  0  0  0  0  0  0  0  0  0  0
  128.6580  126.7170   71.7450 C   0  0  0  0  0  0  0  0  0  0  0  0
  1  2  2  0
  2  3  2  0
  2  4  1  0
  4  5  1  0
  5  6  1  0
  6  7  1  0
  7  8  1  0
  8  9  1  0
  9 10  1  0
 10 11  1  0
  2 12  1  0
 12 13  2  0
 13 14  1  0
 14 15  2  0
 15 16  1  0
 16 17  2  0
 16 18  2  0
 16 19  1  0
 19 20  1  0
 20 21  1  0
 21 22  1  0
 22 23  1  0
 23 24  2  0
 24 25  1  0
 25 26  1  0
 25 27  2  0
 27 28  1  0
 28 29  2  0
 29 30  1  0
 30 31  1  0
 31 32  1  0
 32 33  2  0
 33 34  1  0
 34 35  2  0
 35 36  1  0
 36 37  1  0
 36 38  2  0
 30 39  1  0
 39 40  2  0
 22 41  1  0
 41 42  1  0
 15 43  1  0
 43 44  2  0
 11  5  1  0
 44 12  1  0
 42 19  1  0
 40 23  1  0
 39 27  1  0
 38 32  1  0
M  END
>  <Binding energies>  (100) 
[-10.49]

>  <Ligand effiencies>  (100) 
[-0.21854166666666666]

>  <Interactions>  (100) 
["V-A:ASP:366:CG:3212, V-B:ALA:541:CB:9863, V-B:PRO:540:CA:9854, V-B:TYR:539:C:9838, V-A:LEU:475:CD2:4258, V-B:TYR:539:CD2:9845, V-B:TYR:539:CE2:9847, V-A:GLY:454:CA:4048, H-A:GLY:454:N:4049, V-A:GLY:453:C:4041, V-A:ARG:545:CZ:4925, V-A:HIS:456:CE1:4069, H-A:HIS:456:NE2:4070, V-A:GLU:543:CD:4907, V-B:HIS:456:CE1:9040, H-B:LYS:547:NZ:9922, V-A:GLU:543:CG:4906, H-A:ASP:366:OD2:3214, V-A:LYS:547:CE:4949, V-A:GLU:543:CB:4905, V-A:GLU:543:C:4901, H-A:ARG:545:NH1:4926, H-B:TYR:484:OH:9318, H-A:ASP:366:OD1:3213, V-A:HIS:456:CB:4064, V-A:VAL:457:C:4072, V-A:HIS:456:CA:4062, V-A:LYS:547:CD:4948, V-A:HIS:456:C:4060, V-A:VAL:457:CA:4074, V-A:HIS:456:CG:4065, V-A:VAL:458:CG2:4086, H-A:HIS:456:ND1:4066, V-A:LYS:547:CG:4947, H-A:GLY:544:O:4912"]

$$$$
RR18_Rahimova_2017
     RDKit          3D

 36 41  0  0  0  0  0  0  0  0999 V2000
  130.0170  127.6660   59.8930 C   0  0  0  0  0  0  0  0  0  0  0  0
  129.8830  127.9200   61.3740 C   0  0  0  0  0  0  0  0  0  0  0  0
  130.0270  127.1340   62.5060 C   0  0  0  0  0  0  0  0  0  0  0  0
  129.7690  127.9550   63.6020 C   0  0  0  0  0  0  0  0  0  0  0  0
  129.4770  129.2140   63.1020 C   0  0  0  0  0  0  0  0  0  0  0  0
  129.1190  130.5510   63.7450 C   0  0  1  0  0  0  0  0  0  0  0  0
  128.9850  131.6800   62.6790 C   0  0  0  0  0  0  0  0  0  0  0  0
  130.1460  132.1070   61.9060 C   0  0  0  0  0  0  0  0  0  0  0  0
  130.9980  132.8650   62.3760 O   0  0  0  0  0  0  0  0  0  0  0  0
  130.2030  131.5890   60.6570 N   0  0  0  0  0  0  0  0  0  0  0  0
  131.1500  131.7860   59.6290 C   0  0  0  0  0  0  0  0  0  0  0  0
  130.8430  132.3980   58.4000 C   0  0  0  0  0  0  0  0  0  0  0  0
  131.8240  132.5570   57.4230 C   0  0  0  0  0  0  0  0  0  0  0  0
  133.1190  132.1020   57.6520 C   0  0  0  0  0  0  0  0  0  0  0  0
  133.4340  131.4830   58.8590 C   0  0  0  0  0  0  0  0  0  0  0  0
  132.4610  131.3180   59.8500 C   0  0  0  0  0  0  0  0  0  0  0  0
  132.8560  130.6290   61.1530 C   0  0  0  0  0  0  0  0  0  0  0  0
  127.7480  132.1790   62.4170 C   0  0  0  0  0  0  0  0  0  0  0  0
  126.6170  131.8520   63.1020 N   0  0  0  0  0  0  0  0  0  0  0  0
  126.6990  131.0810   64.1230 C   0  0  0  0  0  0  0  0  0  0  0  0
  125.3650  130.6950   65.1840 S   0  0  0  0  0  0  0  0  0  0  0  0
  126.4160  129.6800   66.2220 C   0  0  0  0  0  0  0  0  0  0  0  0
  126.0470  128.9870   67.3550 C   0  0  0  0  0  0  0  0  0  0  0  0
  124.6790  129.0990   67.8810 C   0  0  0  0  0  0  0  0  0  0  0  0
  123.7140  129.7290   67.4510 O   0  0  0  0  0  0  0  0  0  0  0  0
  124.6230  128.3730   69.0020 N   0  0  0  0  0  0  0  0  0  0  0  0
  125.7960  127.7440   69.2870 C   0  0  0  0  0  0  0  0  0  0  0  0
  126.0760  126.9040   70.3650 C   0  0  0  0  0  0  0  0  0  0  0  0
  127.3410  126.3300   70.4590 C   0  0  0  0  0  0  0  0  0  0  0  0
  128.2940  126.5960   69.4770 C   0  0  0  0  0  0  0  0  0  0  0  0
  127.9900  127.4420   68.4080 C   0  0  0  0  0  0  0  0  0  0  0  0
  126.7240  128.0510   68.3070 C   0  0  0  0  0  0  0  0  0  0  0  0
  127.7690  129.7170   65.6670 C   0  0  0  0  0  0  0  0  0  0  0  0
  128.7670  129.1820   66.1410 O   0  0  0  0  0  0  0  0  0  0  0  0
  127.8350  130.4570   64.5270 N   0  0  0  0  0  0  0  0  0  0  0  0
  129.5480  129.1830   61.7440 O   0  0  0  0  0  0  0  0  0  0  0  0
  1  2  1  0
  2  3  2  0
  3  4  1  0
  4  5  2  0
  6  5  1  6
  6  7  1  0
  7  8  1  0
  8  9  2  0
  8 10  1  0
 10 11  1  0
 11 12  2  0
 12 13  1  0
 13 14  2  0
 14 15  1  0
 15 16  2  0
 16 17  1  0
  7 18  2  0
 18 19  1  0
 19 20  2  0
 20 21  1  0
 21 22  1  0
 22 23  2  0
 23 24  1  0
 24 25  2  0
 24 26  1  0
 26 27  1  0
 27 28  2  0
 28 29  1  0
 29 30  2  0
 30 31  1  0
 31 32  2  0
 22 33  1  0
 33 34  2  0
 33 35  1  0
  5 36  1  0
 36  2  1  0
 35  6  1  0
 16 11  1  0
 35 20  1  0
 32 23  1  0
 32 27  1  0
M  END
>  <Binding energies>  (101) 
[-9.5]

>  <Ligand effiencies>  (101) 
[-0.25]

>  <Interactions>  (101) 
["V-A:LEU:363:CA:3184, V-A:ASP:366:CG:3212, H-A:ALA:541:N:4890, V-A:PRO:540:CB:4884, V-A:PRO:540:CA:4882, V-A:TYR:531:CE2:4792, V-A:TYR:531:CZ:4793, V-A:LEU:363:CD1:3188, V-B:GLU:543:CD:9879, V-B:GLU:543:CB:9877, V-A:GLU:543:CD:4907, V-B:HIS:456:CE1:9040, V-B:ARG:545:CD:9894, V-B:GLU:543:C:9873, V-A:GLU:543:CG:4906, V-B:ARG:545:CG:9893, H-B:TYR:484:OH:9318, V-B:GLY:544:C:9883, V-A:PRO:540:N:4883, V-B:GLU:543:CA:9875, V-B:ARG:545:CA:9890, H-B:GLY:454:N:9020, V-B:ARG:545:CB:9892, H-B:ILE:455:N:9025, H-B:ILE:455:O:9023"]

$$$$
RR20_Rahimova_2017
     RDKit          3D

 38 43  0  0  0  0  0  0  0  0999 V2000
  133.4160  130.7010   61.4730 C   0  0  0  0  0  0  0  0  0  0  0  0
  133.0340  131.2340   60.1040 C   0  0  0  0  0  0  0  0  0  0  0  0
  131.9710  132.1290   59.9800 C   0  0  0  0  0  0  0  0  0  0  0  0
  131.6240  132.6260   58.7260 C   0  0  0  0  0  0  0  0  0  0  0  0
  132.3290  132.2240   57.5860 C   0  0  0  0  0  0  0  0  0  0  0  0
  131.9500  132.7920   56.2370 C   0  0  0  0  0  0  0  0  0  0  0  0
  132.8520  133.2680   55.5430 O   0  0  0  0  0  0  0  0  0  0  0  0
  130.6460  132.7460   55.8340 N   0  0  0  0  0  0  0  0  0  0  0  0
  130.2050  133.3690   54.5750 C   0  0  0  0  0  0  0  0  0  0  0  0
  128.7470  132.9830   54.3940 C   0  0  0  0  0  0  0  0  0  0  0  0
  128.5760  131.8590   55.3700 C   0  0  0  0  0  0  0  0  0  0  0  0
  127.4620  131.0480   55.5900 C   0  0  0  0  0  0  0  0  0  0  0  0
  127.4340  130.1510   56.6650 C   0  0  0  0  0  0  0  0  0  0  0  0
  126.2380  129.2700   56.8970 C   0  0  0  0  0  0  0  0  0  0  0  0
  126.4010  128.1640   57.6060 N   0  0  0  0  0  0  0  0  0  0  0  0
  125.2920  127.4850   57.7610 C   0  0  0  0  0  0  0  0  0  0  0  0
  125.1090  126.2940   58.4470 N   0  0  0  0  0  0  0  0  0  0  0  0
  125.6180  125.0810   58.1240 C   0  0  0  0  0  0  0  0  0  0  0  0
  126.3530  124.8780   57.1560 O   0  0  0  0  0  0  0  0  0  0  0  0
  125.2780  123.8820   59.0410 C   0  0  0  0  0  0  0  0  0  0  0  0
  126.4620  123.3180   59.7150 N   0  0  0  0  0  0  0  0  0  0  0  0
  127.7150  123.6500   59.0210 C   0  0  0  0  0  0  0  0  0  0  0  0
  128.8830  122.8240   59.6060 C   0  0  0  0  0  0  0  0  0  0  0  0
  128.8970  122.8090   61.1340 C   0  0  0  0  0  0  0  0  0  0  0  0
  130.0130  122.3470   61.8400 C   0  0  0  0  0  0  0  0  0  0  0  0
  130.0120  122.2970   63.2320 C   0  0  0  0  0  0  0  0  0  0  0  0
  128.8880  122.7130   63.9380 C   0  0  0  0  0  0  0  0  0  0  0  0
  127.7730  123.1840   63.2480 C   0  0  0  0  0  0  0  0  0  0  0  0
  127.7610  123.2380   61.8500 C   0  0  0  0  0  0  0  0  0  0  0  0
  126.5590  123.8090   61.0950 C   0  0  0  0  0  0  0  0  0  0  0  0
  123.9170  128.1860   57.0020 S   0  0  0  0  0  0  0  0  0  0  0  0
  124.9260  129.4910   56.4260 C   0  0  0  0  0  0  0  0  0  0  0  0
  124.3450  130.5840   55.5560 C   0  0  0  0  0  0  0  0  0  0  0  0
  128.5260  130.1290   57.5470 C   0  0  0  0  0  0  0  0  0  0  0  0
  129.6320  130.9530   57.3410 C   0  0  0  0  0  0  0  0  0  0  0  0
  129.6840  131.7830   56.2140 C   0  0  0  0  0  0  0  0  0  0  0  0
  133.4140  131.3480   57.7230 C   0  0  0  0  0  0  0  0  0  0  0  0
  133.7620  130.8510   58.9760 C   0  0  0  0  0  0  0  0  0  0  0  0
  1  2  1  0
  2  3  2  0
  3  4  1  0
  4  5  2  0
  5  6  1  0
  6  7  2  0
  6  8  1  0
  8  9  1  0
  9 10  1  0
 10 11  1  0
 11 12  2  0
 12 13  1  0
 13 14  1  0
 14 15  1  0
 15 16  2  0
 16 17  1  0
 17 18  1  0
 18 19  2  0
 18 20  1  0
 20 21  1  0
 21 22  1  0
 22 23  1  0
 23 24  1  0
 24 25  2  0
 25 26  1  0
 26 27  2  0
 27 28  1  0
 28 29  2  0
 29 30  1  0
 16 31  1  0
 31 32  1  0
 32 33  1  0
 13 34  2  0
 34 35  1  0
 35 36  2  0
  5 37  1  0
 37 38  2  0
 38  2  1  0
 36  8  1  0
 36 11  1  0
 32 14  2  0
 30 21  1  0
 29 24  1  0
M  END
>  <Binding energies>  (102) 
[-11.23]

>  <Ligand effiencies>  (102) 
[-0.28794871794871796]

>  <Interactions>  (102) 
["V-A:LEU:363:CA:3184, V-A:TYR:539:CZ:4876, V-A:ASP:366:CG:3212, V-A:ASN:362:C:3171, V-A:PRO:540:CB:4884, V-A:TYR:539:CE1:4874, V-A:ASP:366:CB:3211, V-A:TYR:539:CE2:4875, V-A:PRO:540:CA:4882, V-A:TYR:531:CE2:4792, V-A:TYR:531:CZ:4793, V-A:ILE:538:CA:4859, V-A:LEU:363:CD1:3188, V-B:GLU:543:CD:9879, V-B:ALA:541:CB:9863, V-B:PRO:540:CA:9854, V-B:ALA:541:CA:9861, V-B:TYR:539:C:9838, V-A:LEU:475:CD2:4258, V-B:TYR:539:CD2:9845, V-B:TYR:539:CE2:9847, V-B:GLU:543:CG:9878, V-B:PRO:540:CB:9856, V-B:TYR:531:CZ:9765, V-A:ARG:545:CZ:4925, V-A:ILE:538:CB:4861, V-A:ILE:538:CG2:4862, V-B:ASP:366:CB:8182, H-B:TYR:531:OH:9766, V-A:PRO:540:N:4883, V-B:ASP:366:CG:8183, V-A:MET:535:CG:4832, V-B:TYR:531:CE1:9763, V-A:TYR:539:C:4866, V-A:ASN:362:CB:3175, H-B:ASP:366:OD1:8184, V-A:MET:535:CB:4831, V-B:ASN:370:CB:8215, V-B:TYR:531:CD1:9761, V-B:ASP:366:C:8178, V-B:ASP:366:CA:8180"]

$$$$
RR21_Rahimova_2017
     RDKit          3D

 40 45  0  0  0  0  0  0  0  0999 V2000
  134.5780  125.3960   67.0180 C   0  0  0  0  0  0  0  0  0  0  0  0
  133.5960  125.4680   65.9880 O   0  0  0  0  0  0  0  0  0  0  0  0
  132.4070  126.1290   66.2330 C   0  0  0  0  0  0  0  0  0  0  0  0
  131.9590  126.5010   67.5110 C   0  0  0  0  0  0  0  0  0  0  0  0
  130.7460  127.1690   67.6720 C   0  0  0  0  0  0  0  0  0  0  0  0
  129.9530  127.4870   66.5630 C   0  0  0  0  0  0  0  0  0  0  0  0
  128.6530  128.2090   66.7370 C   0  0  0  0  0  0  0  0  0  0  0  0
  128.2000  128.9870   65.7730 N   0  0  0  0  0  0  0  0  0  0  0  0
  127.0350  129.4940   66.2020 N   0  0  0  0  0  0  0  0  0  0  0  0
  126.2620  130.3660   65.3920 C   0  0  0  0  0  0  0  0  0  0  0  0
  126.7270  131.6520   65.0760 C   0  0  0  0  0  0  0  0  0  0  0  0
  125.9620  132.4970   64.2760 C   0  0  0  0  0  0  0  0  0  0  0  0
  124.7320  132.0600   63.7890 C   0  0  0  0  0  0  0  0  0  0  0  0
  124.2590  130.7870   64.0970 C   0  0  0  0  0  0  0  0  0  0  0  0
  125.0210  129.9400   64.8970 C   0  0  0  0  0  0  0  0  0  0  0  0
  126.7400  129.0130   67.4530 C   0  0  0  0  0  0  0  0  0  0  0  0
  127.7780  128.1810   67.8480 C   0  0  0  0  0  0  0  0  0  0  0  0
  127.8930  127.4070   69.0740 C   0  0  0  0  0  0  0  0  0  0  0  0
  128.6850  127.6470   70.1450 C   0  0  0  0  0  0  0  0  0  0  0  0
  129.8360  128.9820   70.3740 S   0  0  0  0  0  0  0  0  0  0  0  0
  130.2210  128.3570   71.9710 C   0  0  0  0  0  0  0  0  0  0  0  0
  131.0470  128.8510   72.8410 N   0  0  0  0  0  0  0  0  0  0  0  0
  131.2590  128.2500   74.1120 C   0  0  0  0  0  0  0  0  0  0  0  0
  132.0060  128.6660   74.9970 O   0  0  0  0  0  0  0  0  0  0  0  0
  130.4570  126.9960   74.3320 C   0  0  0  0  0  0  0  0  0  0  0  0
  130.6180  126.2470   75.6610 C   0  0  0  0  0  0  0  0  0  0  0  0
  130.6350  124.7260   75.5290 C   0  0  0  0  0  0  0  0  0  0  0  0
  130.2610  123.9250   76.6110 C   0  0  0  0  0  0  0  0  0  0  0  0
  130.2610  122.5380   76.4840 C   0  0  0  0  0  0  0  0  0  0  0  0
  130.6320  121.9490   75.2740 C   0  0  0  0  0  0  0  0  0  0  0  0
  130.6180  120.4370   75.1370 C   0  0  0  0  0  0  0  0  0  0  0  0
  130.9950  122.7480   74.1870 C   0  0  0  0  0  0  0  0  0  0  0  0
  130.9960  124.1340   74.3140 C   0  0  0  0  0  0  0  0  0  0  0  0
  129.6420  126.5120   73.4530 N   0  0  0  0  0  0  0  0  0  0  0  0
  129.5200  127.2130   72.2470 N   0  0  0  0  0  0  0  0  0  0  0  0
  128.6650  126.7580   71.2980 C   0  0  0  0  0  0  0  0  0  0  0  0
  127.9690  125.7410   71.4060 O   0  0  0  0  0  0  0  0  0  0  0  0
  130.3960  127.1110   65.2900 C   0  0  0  0  0  0  0  0  0  0  0  0
  131.6090  126.4410   65.1270 C   0  0  0  0  0  0  0  0  0  0  0  0
  132.0090  126.0930   63.8820 F   0  0  0  0  0  0  0  0  0  0  0  0
  1  2  1  0
  2  3  1  0
  3  4  2  0
  4  5  1  0
  5  6  2  0
  6  7  1  0
  7  8  2  0
  8  9  1  0
  9 10  1  0
 10 11  2  0
 11 12  1  0
 12 13  2  0
 13 14  1  0
 14 15  2  0
  9 16  1  0
 16 17  2  0
 17 18  1  0
 18 19  2  0
 19 20  1  0
 20 21  1  0
 21 22  2  0
 22 23  1  0
 23 24  2  0
 23 25  1  0
 25 26  1  0
 26 27  1  0
 27 28  2  0
 28 29  1  0
 29 30  2  0
 30 31  1  0
 30 32  1  0
 32 33  2  0
 25 34  2  0
 34 35  1  0
 35 36  1  0
 36 37  2  0
  6 38  1  0
 38 39  2  0
 39 40  1  0
 39  3  1  0
 17  7  1  0
 36 19  1  0
 15 10  1  0
 35 21  1  0
 33 27  1  0
M  END
>  <Binding energies>  (103) 
[-9.42]

>  <Ligand effiencies>  (103) 
[-0.2355]

>  <Interactions>  (103) 
["V-B:GLU:543:CD:9879, H-A:TYR:484:OH:4347, V-A:GLY:454:CA:4048, H-A:GLY:454:N:4049, V-A:GLY:453:C:4041, V-A:ARG:545:CD:4922, V-A:ARG:545:CZ:4925, V-A:ARG:545:CG:4921, V-A:HIS:456:CE1:4069, V-B:GLU:543:CB:9877, V-A:GLU:543:CD:4907, V-B:HIS:456:CE1:9040, V-A:HIS:456:CD2:4067, V-A:ASP:473:CG:4239, V-A:TYR:484:CB:4340, V-A:TYR:484:C:4336, H-A:LYS:547:NZ:4950, V-A:GLU:543:CB:4905, V-A:GLU:543:C:4901, V-A:GLY:453:CA:4043, H-A:ARG:545:NE:4923, V-A:HIS:456:CB:4064, V-A:HIS:456:CG:4065, H-A:HIS:456:ND1:4066, V-B:LEU:475:CD1:9228, V-B:GLY:454:CA:9019, V-A:GLY:454:C:4046"]

$$$$
RR23_Rahimova_2017
     RDKit          3D

 39 44  0  0  0  0  0  0  0  0999 V2000
  132.4700  117.4790   58.9770 C   0  0  0  0  0  0  0  0  0  0  0  0
  132.1420  118.5950   59.9520 C   0  0  0  0  0  0  0  0  0  0  0  0
  130.9700  118.5400   60.7080 C   0  0  0  0  0  0  0  0  0  0  0  0
  130.6750  119.5610   61.6090 C   0  0  0  0  0  0  0  0  0  0  0  0
  131.5430  120.6490   61.7520 C   0  0  0  0  0  0  0  0  0  0  0  0
  131.2140  121.7360   62.7500 C   0  0  0  0  0  0  0  0  0  0  0  0
  132.0900  122.0530   63.5580 O   0  0  0  0  0  0  0  0  0  0  0  0
  129.9840  122.3300   62.7140 N   0  0  0  0  0  0  0  0  0  0  0  0
  129.4790  123.1240   63.8460 C   0  0  0  0  0  0  0  0  0  0  0  0
  128.1660  123.7370   63.3850 C   0  0  0  0  0  0  0  0  0  0  0  0
  128.2140  123.5500   61.8990 C   0  0  0  0  0  0  0  0  0  0  0  0
  127.3170  123.9960   60.9280 C   0  0  0  0  0  0  0  0  0  0  0  0
  127.4500  123.5800   59.5950 C   0  0  0  0  0  0  0  0  0  0  0  0
  126.4850  124.0470   58.4950 C   0  0  2  0  0  0  0  0  0  0  0  0
  126.6600  125.4470   58.1720 N   0  0  0  0  0  0  0  0  0  0  0  0
  125.5670  125.9930   57.8190 C   0  0  0  0  0  0  0  0  0  0  0  0
  125.3500  127.2900   57.4730 N   0  0  0  0  0  0  0  0  0  0  0  0
  126.2070  128.3370   57.5540 C   0  0  0  0  0  0  0  0  0  0  0  0
  127.3790  128.2760   57.9300 O   0  0  0  0  0  0  0  0  0  0  0  0
  125.6290  129.6990   57.1360 C   0  0  0  0  0  0  0  0  0  0  0  0
  126.7240  130.5540   56.6250 N   0  0  0  0  0  0  0  0  0  0  0  0
  126.7220  130.7680   55.2520 N   0  0  0  0  0  0  0  0  0  0  0  0
  127.6270  131.4960   54.6800 N   0  0  0  0  0  0  0  0  0  0  0  0
  128.6310  132.0870   55.4500 C   0  0  0  0  0  0  0  0  0  0  0  0
  129.5930  132.8650   54.8020 C   0  0  0  0  0  0  0  0  0  0  0  0
  130.6100  133.4690   55.5440 C   0  0  0  0  0  0  0  0  0  0  0  0
  130.6660  133.2960   56.9290 C   0  0  0  0  0  0  0  0  0  0  0  0
  129.7060  132.5180   57.5790 C   0  0  0  0  0  0  0  0  0  0  0  0
  128.6860  131.9140   56.8340 C   0  0  0  0  0  0  0  0  0  0  0  0
  127.6390  131.0650   57.5180 C   0  0  0  0  0  0  0  0  0  0  0  0
  127.6180  130.8480   58.7330 O   0  0  0  0  0  0  0  0  0  0  0  0
  124.1160  124.9490   57.7800 S   0  0  0  0  0  0  0  0  0  0  0  0
  124.9970  123.7370   58.7800 C   0  0  2  0  0  0  0  0  0  0  0  0
  124.5320  123.8610   60.2460 C   0  0  0  0  0  0  0  0  0  0  0  0
  128.4670  122.6760   59.2680 C   0  0  0  0  0  0  0  0  0  0  0  0
  129.3520  122.2130   60.2430 C   0  0  0  0  0  0  0  0  0  0  0  0
  129.2620  122.6950   61.5550 C   0  0  0  0  0  0  0  0  0  0  0  0
  132.7310  120.6830   61.0100 C   0  0  0  0  0  0  0  0  0  0  0  0
  133.0260  119.6630   60.1100 C   0  0  0  0  0  0  0  0  0  0  0  0
  1  2  1  0
  2  3  2  0
  3  4  1  0
  4  5  2  0
  5  6  1  0
  6  7  2  0
  6  8  1  0
  8  9  1  0
  9 10  1  0
 10 11  1  0
 11 12  2  0
 12 13  1  0
 14 13  1  1
 14 15  1  0
 15 16  2  0
 16 17  1  0
 17 18  1  0
 18 19  2  0
 18 20  1  0
 20 21  1  0
 21 22  1  0
 22 23  2  0
 23 24  1  0
 24 25  2  0
 25 26  1  0
 26 27  2  0
 27 28  1  0
 28 29  2  0
 29 30  1  0
 30 31  2  0
 16 32  1  0
 32 33  1  0
 33 34  1  1
 13 35  2  0
 35 36  1  0
 36 37  2  0
  5 38  1  0
 38 39  2  0
 39  2  1  0
 37  8  1  0
 37 11  1  0
 33 14  1  0
 30 21  1  0
 29 24  1  0
M  END
>  <Binding energies>  (104) 
[-10.88]

>  <Ligand effiencies>  (104) 
[-0.272]

>  <Interactions>  (104) 
["V-A:TYR:539:CZ:4876, V-A:TYR:539:CE1:4874, V-A:TYR:539:CD1:4872, V-A:ILE:538:CA:4859, V-B:GLU:543:CD:9879, V-B:PRO:540:N:9855, V-B:ALA:541:CB:9863, V-B:PRO:540:CA:9854, V-B:TYR:539:C:9838, V-A:LEU:475:CD2:4258, V-A:HIS:383:CE1:3393, V-B:TYR:539:CD2:9845, V-A:ILE:369:CG2:3236, V-B:TYR:539:CE2:9847, V-B:TYR:539:CB:9842, V-A:SER:385:CA:3406, V-A:LEU:373:CD1:3279, V-B:TYR:539:CG:9843, V-B:GLU:543:CG:9878, V-B:PRO:540:CB:9856, V-B:TYR:531:CZ:9765, V-A:ILE:538:CB:4861, V-A:ILE:538:CG2:4862, V-B:ASP:366:CB:8182, V-A:LEU:373:CG:3278, V-A:LEU:373:CD2:3280, H-B:TYR:531:OH:9766, V-A:PRO:540:N:4883, V-A:MET:535:CG:4832, V-B:TYR:531:CE1:9763, V-A:TYR:539:C:4866, H-A:TYR:539:OH:4877, V-A:MET:535:CB:4831"]

$$$$
RR26_Rahimova_2017
     RDKit          3D

 38 44  0  0  0  0  0  0  0  0999 V2000
  133.4390  120.0620   60.7990 C   0  0  0  0  0  0  0  0  0  0  0  0
  132.2830  119.0940   61.0190 C   0  0  0  0  0  0  0  0  0  0  0  0
  132.5370  117.7220   60.9070 C   0  0  0  0  0  0  0  0  0  0  0  0
  131.5280  116.7900   61.1370 C   0  0  0  0  0  0  0  0  0  0  0  0
  130.2530  117.2220   61.4890 C   0  0  0  0  0  0  0  0  0  0  0  0
  129.9880  118.5850   61.6050 C   0  0  0  0  0  0  0  0  0  0  0  0
  130.9900  119.5390   61.3690 C   0  0  0  0  0  0  0  0  0  0  0  0
  130.6160  120.9870   61.5000 C   0  0  0  0  0  0  0  0  0  0  0  0
  131.4580  121.9700   61.1930 N   0  0  0  0  0  0  0  0  0  0  0  0
  130.7370  123.0300   61.4380 C   0  0  0  0  0  0  0  0  0  0  0  0
  130.9740  124.7360   61.3450 S   0  0  0  0  0  0  0  0  0  0  0  0
  129.2840  124.9800   61.9250 C   0  0  0  0  0  0  0  0  0  0  0  0
  128.6450  126.1510   62.1450 C   0  0  0  0  0  0  0  0  0  0  0  0
  129.1570  127.4990   61.9630 C   0  0  0  0  0  0  0  0  0  0  0  0
  130.2940  127.8990   61.2770 C   0  0  0  0  0  0  0  0  0  0  0  0
  130.3600  129.2680   61.3310 N   0  0  0  0  0  0  0  0  0  0  0  0
  131.3430  130.1220   60.7670 C   0  0  0  0  0  0  0  0  0  0  0  0
  131.8770  131.1880   61.5050 C   0  0  0  0  0  0  0  0  0  0  0  0
  132.8380  132.0200   60.9380 C   0  0  0  0  0  0  0  0  0  0  0  0
  133.2710  131.7880   59.6350 C   0  0  0  0  0  0  0  0  0  0  0  0
  132.7510  130.7310   58.8920 C   0  0  0  0  0  0  0  0  0  0  0  0
  131.7870  129.8990   59.4550 C   0  0  0  0  0  0  0  0  0  0  0  0
  129.3020  129.7590   61.9940 N   0  0  0  0  0  0  0  0  0  0  0  0
  128.5840  128.7220   62.3790 C   0  0  0  0  0  0  0  0  0  0  0  0
  127.3260  128.9370   63.1620 C   0  0  0  0  0  0  0  0  0  0  0  0
  126.1240  129.2420   62.5050 C   0  0  0  0  0  0  0  0  0  0  0  0
  124.9460  129.4470   63.2270 C   0  0  0  0  0  0  0  0  0  0  0  0
  124.9630  129.3490   64.6160 C   0  0  0  0  0  0  0  0  0  0  0  0
  126.1540  129.0260   65.2830 C   0  0  0  0  0  0  0  0  0  0  0  0
  127.3290  128.8280   64.5610 C   0  0  0  0  0  0  0  0  0  0  0  0
  126.2270  128.9610   66.6610 O   0  0  0  0  0  0  0  0  0  0  0  0
  124.9590  128.8070   67.3080 C   0  0  0  0  0  0  0  0  0  0  0  0
  123.9130  129.7660   66.6880 C   0  0  0  0  0  0  0  0  0  0  0  0
  123.7670  129.5110   65.2870 O   0  0  0  0  0  0  0  0  0  0  0  0
  128.5960  123.7170   62.1770 C   0  0  0  0  0  0  0  0  0  0  0  0
  127.4480  123.5240   62.5810 O   0  0  0  0  0  0  0  0  0  0  0  0
  129.5070  122.6950   61.8680 N   0  0  0  0  0  0  0  0  0  0  0  0
  129.4130  121.3630   61.9090 N   0  0  0  0  0  0  0  0  0  0  0  0
  1  2  1  0
  2  3  2  0
  3  4  1  0
  4  5  2  0
  5  6  1  0
  6  7  2  0
  7  8  1  0
  8  9  1  0
  9 10  2  0
 10 11  1  0
 11 12  1  0
 12 13  2  0
 13 14  1  0
 14 15  2  0
 15 16  1  0
 16 17  1  0
 17 18  2  0
 18 19  1  0
 19 20  2  0
 20 21  1  0
 21 22  2  0
 16 23  1  0
 23 24  2  0
 24 25  1  0
 25 26  2  0
 26 27  1  0
 27 28  2  0
 28 29  1  0
 29 30  2  0
 29 31  1  0
 31 32  1  0
 32 33  1  0
 33 34  1  0
 12 35  1  0
 35 36  2  0
 35 37  1  0
 37 38  1  0
  7  2  1  0
 38  8  2  0
 37 10  1  0
 24 14  1  0
 30 25  1  0
 22 17  1  0
 34 28  1  0
M  END
>  <Binding energies>  (105) 
[-9.45]

>  <Ligand effiencies>  (105) 
[-0.24868421052631576]

>  <Interactions>  (105) 
["V-A:LEU:363:CA:3184, V-A:ASP:366:CG:3212, V-A:ASN:362:C:3171, V-A:PRO:540:CB:4884, V-A:ASP:366:CB:3211, V-A:PRO:540:CA:4882, V-B:GLU:543:CD:9879, H-B:ALA:541:N:9862, V-B:ALA:541:CB:9863, V-B:TYR:539:C:9838, V-A:LEU:475:CD2:4258, V-A:PRO:482:CG:4326, V-A:HIS:383:CE1:3393, V-B:TYR:539:CD2:9845, V-A:ILE:369:CG2:3236, V-A:SER:385:CA:3406, V-A:SER:385:CB:3408, V-A:THR:477:CG2:4272, V-A:PRO:482:CB:4325, V-B:ARG:545:CD:9894, V-B:ARG:545:CG:9893, H-B:ARG:545:NH2:9899, H-B:TYR:484:OH:9318, H-B:ARG:545:NE:9895, V-B:ARG:545:CZ:9897, V-B:GLY:454:CA:9019, H-B:GLY:454:N:9020, H-B:ARG:545:NH1:9898"]

$$$$
RR2_Rahimova_2017
     RDKit          3D

 46 50  0  0  0  0  0  0  0  0999 V2000
  125.3690  128.7260   67.0760 C   0  0  0  0  0  0  0  0  0  0  0  0
  125.5200  129.1040   65.7120 O   0  0  0  0  0  0  0  0  0  0  0  0
  126.6680  128.7380   65.0340 C   0  0  0  0  0  0  0  0  0  0  0  0
  126.6920  128.2830   63.7080 C   0  0  0  0  0  0  0  0  0  0  0  0
  127.8980  127.9330   63.1080 C   0  0  0  0  0  0  0  0  0  0  0  0
  129.1040  128.0240   63.8160 C   0  0  0  0  0  0  0  0  0  0  0  0
  130.4030  127.6280   63.1410 C   0  0  0  0  0  0  0  0  0  0  0  0
  130.8610  128.3150   62.2210 O   0  0  0  0  0  0  0  0  0  0  0  0
  130.9880  126.4990   63.6020 N   0  0  0  0  0  0  0  0  0  0  0  0
  132.1320  126.0410   62.9570 N   0  0  0  0  0  0  0  0  0  0  0  0
  132.3240  124.7090   62.8680 C   0  0  0  0  0  0  0  0  0  0  0  0
  131.6600  123.8590   63.4680 O   0  0  0  0  0  0  0  0  0  0  0  0
  133.4480  124.2650   61.9230 C   0  0  0  0  0  0  0  0  0  0  0  0
  132.9420  123.0890   60.6150 S   0  0  0  0  0  0  0  0  0  0  0  0
  132.4040  124.2100   59.3590 C   0  0  0  0  0  0  0  0  0  0  0  0
  133.2280  124.8110   58.5380 N   0  0  0  0  0  0  0  0  0  0  0  0
  132.4760  125.6640   57.7430 N   0  0  0  0  0  0  0  0  0  0  0  0
  131.2200  125.5260   58.0940 C   0  0  0  0  0  0  0  0  0  0  0  0
  130.0980  126.2730   57.4480 C   0  0  0  0  0  0  0  0  0  0  0  0
  128.9550  126.5860   58.1870 C   0  0  0  0  0  0  0  0  0  0  0  0
  127.9030  127.2750   57.5920 C   0  0  0  0  0  0  0  0  0  0  0  0
  127.9920  127.6740   56.2530 C   0  0  0  0  0  0  0  0  0  0  0  0
  126.9580  128.3610   55.5990 N   0  0  0  0  0  0  0  0  0  0  0  0
  126.5170  130.0560   55.9050 S   0  0  0  0  0  0  0  0  0  0  0  0
  125.8650  130.0720   57.2200 O   0  0  0  0  0  0  0  0  0  0  0  0
  125.8260  130.5690   54.7160 O   0  0  0  0  0  0  0  0  0  0  0  0
  128.0750  130.9190   56.0920 C   0  0  0  0  0  0  0  0  0  0  0  0
  128.5110  131.8200   55.1170 C   0  0  0  0  0  0  0  0  0  0  0  0
  129.7320  132.4700   55.2740 C   0  0  0  0  0  0  0  0  0  0  0  0
  130.5140  132.2230   56.4050 C   0  0  0  0  0  0  0  0  0  0  0  0
  131.8530  132.9210   56.5660 C   0  0  0  0  0  0  0  0  0  0  0  0
  130.0780  131.3180   57.3760 C   0  0  0  0  0  0  0  0  0  0  0  0
  128.8580  130.6680   57.2200 C   0  0  0  0  0  0  0  0  0  0  0  0
  129.1350  127.3630   55.5170 C   0  0  0  0  0  0  0  0  0  0  0  0
  130.1850  126.6690   56.1100 C   0  0  0  0  0  0  0  0  0  0  0  0
  131.1010  124.6120   59.1280 N   0  0  0  0  0  0  0  0  0  0  0  0
  129.9360  124.2140   59.8170 C   0  0  0  0  0  0  0  0  0  0  0  0
  129.6290  124.7860   61.0520 C   0  0  0  0  0  0  0  0  0  0  0  0
  128.4750  124.3930   61.7250 C   0  0  0  0  0  0  0  0  0  0  0  0
  127.6260  123.4310   61.1770 C   0  0  0  0  0  0  0  0  0  0  0  0
  126.5070  123.1050   61.9190 O   0  0  0  0  0  0  0  0  0  0  0  0
  126.0430  124.0130   62.9130 C   0  0  0  0  0  0  0  0  0  0  0  0
  127.9440  122.8600   59.9340 C   0  0  0  0  0  0  0  0  0  0  0  0
  129.0940  123.2520   59.2560 C   0  0  0  0  0  0  0  0  0  0  0  0
  129.0720  128.4850   65.1410 C   0  0  0  0  0  0  0  0  0  0  0  0
  127.8650  128.8360   65.7390 C   0  0  0  0  0  0  0  0  0  0  0  0
  1  2  1  0
  2  3  1  0
  3  4  2  0
  4  5  1  0
  5  6  2  0
  6  7  1  0
  7  8  2  0
  7  9  1  0
  9 10  1  0
 10 11  1  0
 11 12  2  0
 11 13  1  0
 13 14  1  0
 14 15  1  0
 15 16  2  0
 16 17  1  0
 17 18  2  0
 18 19  1  0
 19 20  2  0
 20 21  1  0
 21 22  2  0
 22 23  1  0
 23 24  1  0
 24 25  2  0
 24 26  2  0
 24 27  1  0
 27 28  2  0
 28 29  1  0
 29 30  2  0
 30 31  1  0
 30 32  1  0
 32 33  2  0
 22 34  1  0
 34 35  2  0
 18 36  1  0
 36 37  1  0
 37 38  2  0
 38 39  1  0
 39 40  2  0
 40 41  1  0
 41 42  1  0
 40 43  1  0
 43 44  2  0
  6 45  1  0
 45 46  2  0
 46  3  1  0
 36 15  1  0
 44 37  1  0
 35 19  1  0
 33 27  1  0
M  END
>  <Binding energies>  (106) 
[-10.23]

>  <Ligand effiencies>  (106) 
[-0.20877551020408164]

>  <Interactions>  (106) 
["V-A:TYR:539:CZ:4876, V-A:ASP:366:CG:3212, V-A:TYR:539:CE1:4874, V-A:TYR:531:CE2:4792, V-A:TYR:531:CZ:4793, V-A:LEU:363:CD1:3188, V-B:GLU:543:CD:9879, V-B:PRO:540:N:9855, H-B:ALA:541:N:9862, V-B:PRO:540:CA:9854, H-B:GLU:543:OE2:9881, V-B:TYR:539:C:9838, V-A:ILE:369:CD1:3238, V-B:TYR:539:CD2:9845, V-B:TYR:539:CE2:9847, V-B:MET:535:CE:9806, H-B:TYR:539:OH:9849, V-B:TYR:539:CZ:9848, V-B:GLU:543:CG:9878, V-B:TYR:531:CZ:9765, V-A:ARG:545:CZ:4925, V-A:GLU:543:CD:4907, V-A:GLU:543:CG:4906, V-B:ARG:545:CG:9893, H-A:ASP:366:OD2:3214, H-A:ARG:545:NH2:4927, H-B:TYR:484:OH:9318, V-A:MET:535:CE:4834, H-B:TYR:531:OH:9766, V-A:TYR:531:CE1:4791, H-A:ASP:366:OD1:3213, V-A:MET:535:CG:4832, V-B:TYR:531:CE1:9763, H-A:TYR:539:OH:4877"]

$$$$
RR33_Rahimova_2017
     RDKit          3D

 18 19  0  0  0  0  0  0  0  0999 V2000
  132.8080  125.7530   57.5480 C   0  0  0  0  0  0  0  0  0  0  0  0
  133.6500  124.6100   58.1230 C   0  0  0  0  0  0  0  0  0  0  0  0
  132.8530  123.8750   59.0480 O   0  0  0  0  0  0  0  0  0  0  0  0
  132.7790  124.2940   60.3620 C   0  0  0  0  0  0  0  0  0  0  0  0
  133.8640  123.9740   61.1780 C   0  0  0  0  0  0  0  0  0  0  0  0
  133.8770  124.3510   62.5180 C   0  0  0  0  0  0  0  0  0  0  0  0
  132.8010  125.0580   63.0630 C   0  0  0  0  0  0  0  0  0  0  0  0
  132.8170  125.4620   64.5030 C   0  0  0  0  0  0  0  0  0  0  0  0
  131.8220  125.9520   65.2090 N   0  0  0  0  0  0  0  0  0  0  0  0
  132.3190  126.1500   66.4210 C   0  0  0  0  0  0  0  0  0  0  0  0
  131.4560  126.7040   67.5340 C   0  0  0  0  0  0  0  0  0  0  0  0
  130.0520  126.3990   67.2960 N   0  0  0  0  0  0  0  0  0  0  0  0
  129.5530  125.4690   68.2950 C   0  0  0  0  0  0  0  0  0  0  0  0
  133.6540  125.7680   66.4460 C   0  0  0  0  0  0  0  0  0  0  0  0
  134.7430  125.7410   67.4910 C   0  0  0  0  0  0  0  0  0  0  0  0
  133.9700  125.3260   65.2070 O   0  0  0  0  0  0  0  0  0  0  0  0
  131.7140  125.3850   62.2480 C   0  0  0  0  0  0  0  0  0  0  0  0
  131.6990  125.0060   60.9070 C   0  0  0  0  0  0  0  0  0  0  0  0
  1  2  1  0
  2  3  1  0
  3  4  1  0
  4  5  2  0
  5  6  1  0
  6  7  2  0
  7  8  1  0
  8  9  2  0
  9 10  1  0
 10 11  1  0
 11 12  1  0
 12 13  1  0
 10 14  2  0
 14 15  1  0
 14 16  1  0
  7 17  1  0
 17 18  2  0
 18  4  1  0
 16  8  1  0
M  END
>  <Binding energies>  (107) 
[-5.27]

>  <Ligand effiencies>  (107) 
[-0.27736842105263154]

>  <Interactions>  (107) 
["V-A:ASP:366:CG:3212, V-A:ASP:366:CB:3211, V-B:GLU:543:CD:9879, H-A:TYR:484:OH:4347, H-B:GLU:543:OE2:9881, V-A:ILE:369:CD1:3238, V-A:ILE:369:CG2:3236, V-B:TYR:539:CE2:9847, H-B:TYR:539:OH:9849, V-B:TYR:539:CZ:9848, V-B:GLU:543:CG:9878, H-A:GLY:454:N:4049, V-A:ARG:545:CD:4922, V-A:ARG:545:CZ:4925, V-A:ARG:545:CG:4921, V-A:HIS:456:CE1:4069, V-B:GLU:543:CB:9877, H-A:ARG:545:NE:4923, V-A:TYR:484:CZ:4346, V-A:TYR:484:CE2:4345, V-A:ILE:369:CB:3235, V-A:ASP:366:CA:3209, V-A:ASP:366:C:3207, V-A:ILE:455:C:4051, V-A:ARG:545:CB:4920"]

$$$$
RR3_Rahimova_2017
     RDKit          3D

 38 44  0  0  0  0  0  0  0  0999 V2000
  131.3250  133.6120   55.7230 C   0  0  0  0  0  0  0  0  0  0  0  0
  129.9870  133.2330   55.7570 C   0  0  0  0  0  0  0  0  0  0  0  0
  129.5020  132.5090   56.8430 C   0  0  0  0  0  0  0  0  0  0  0  0
  130.3460  132.1570   57.9070 C   0  0  0  0  0  0  0  0  0  0  0  0
  129.8230  131.3800   59.0750 C   0  0  0  0  0  0  0  0  0  0  0  0
  130.6920  130.8700   60.0480 C   0  0  0  0  0  0  0  0  0  0  0  0
  130.2060  130.1440   61.1320 C   0  0  0  0  0  0  0  0  0  0  0  0
  128.8350  129.9050   61.2640 C   0  0  0  0  0  0  0  0  0  0  0  0
  128.3060  129.1210   62.4240 C   0  0  0  0  0  0  0  0  0  0  0  0
  128.4030  129.6100   63.6550 N   0  0  0  0  0  0  0  0  0  0  0  0
  127.8240  128.7420   64.4490 C   0  0  0  0  0  0  0  0  0  0  0  0
  127.7010  128.8780   65.8980 C   0  0  0  0  0  0  0  0  0  0  0  0
  126.6800  129.5340   66.5660 C   0  0  0  0  0  0  0  0  0  0  0  0
  126.8760  129.4590   67.9200 N   0  0  0  0  0  0  0  0  0  0  0  0
  128.0300  128.7560   68.1880 C   0  0  0  0  0  0  0  0  0  0  0  0
  128.6350  128.4240   69.4050 C   0  0  0  0  0  0  0  0  0  0  0  0
  129.8200  127.6910   69.3440 C   0  0  0  0  0  0  0  0  0  0  0  0
  130.3820  127.3040   68.1320 C   0  0  0  0  0  0  0  0  0  0  0  0
  129.7790  127.6340   66.9190 C   0  0  0  0  0  0  0  0  0  0  0  0
  128.5820  128.3730   66.9250 C   0  0  0  0  0  0  0  0  0  0  0  0
  127.3500  127.6720   63.7420 N   0  0  0  0  0  0  0  0  0  0  0  0
  127.6650  127.8710   62.4220 C   0  0  0  0  0  0  0  0  0  0  0  0
  127.3550  126.8730   61.3550 C   0  0  0  0  0  0  0  0  0  0  0  0
  127.9240  127.0030   60.0880 C   0  0  0  0  0  0  0  0  0  0  0  0
  127.6280  126.0830   59.0870 C   0  0  0  0  0  0  0  0  0  0  0  0
  126.7590  125.0090   59.3300 C   0  0  0  0  0  0  0  0  0  0  0  0
  126.4270  124.0320   58.2470 C   0  0  0  0  0  0  0  0  0  0  0  0
  127.4360  123.2860   57.6170 C   0  0  0  0  0  0  0  0  0  0  0  0
  127.1250  122.3740   56.6110 C   0  0  0  0  0  0  0  0  0  0  0  0
  125.8010  122.1970   56.2240 C   0  0  0  0  0  0  0  0  0  0  0  0
  124.7860  122.9250   56.8360 C   0  0  0  0  0  0  0  0  0  0  0  0
  125.0990  123.8370   57.8400 C   0  0  0  0  0  0  0  0  0  0  0  0
  126.2070  124.8800   60.6130 C   0  0  0  0  0  0  0  0  0  0  0  0
  126.5020  125.7990   61.6160 C   0  0  0  0  0  0  0  0  0  0  0  0
  127.9600  130.4210   60.3060 C   0  0  0  0  0  0  0  0  0  0  0  0
  128.4490  131.1450   59.2230 C   0  0  0  0  0  0  0  0  0  0  0  0
  131.6910  132.5490   57.8510 C   0  0  0  0  0  0  0  0  0  0  0  0
  132.1800  133.2730   56.7670 C   0  0  0  0  0  0  0  0  0  0  0  0
  1  2  2  0
  2  3  1  0
  3  4  2  0
  4  5  1  0
  5  6  2  0
  6  7  1  0
  7  8  2  0
  8  9  1  0
  9 10  1  0
 10 11  2  0
 11 12  1  0
 12 13  2  0
 13 14  1  0
 14 15  1  0
 15 16  2  0
 16 17  1  0
 17 18  2  0
 18 19  1  0
 19 20  2  0
 11 21  1  0
 21 22  1  0
 22 23  1  0
 23 24  2  0
 24 25  1  0
 25 26  2  0
 26 27  1  0
 27 28  2  0
 28 29  1  0
 29 30  2  0
 30 31  1  0
 31 32  2  0
 26 33  1  0
 33 34  2  0
  8 35  1  0
 35 36  2  0
  4 37  1  0
 37 38  2  0
 38  1  1  0
 36  5  1  0
 22  9  2  0
 34 23  1  0
 20 12  1  0
 32 27  1  0
 20 15  1  0
M  END
>  <Binding energies>  (108) 
[-10.55]

>  <Ligand effiencies>  (108) 
[-0.26375000000000004]

>  <Interactions>  (108) 
["V-A:PRO:540:CB:4884, V-A:TYR:539:CE1:4874, V-A:TYR:539:CD1:4872, V-A:PRO:540:CA:4882, V-A:TYR:531:CE2:4792, V-A:ILE:538:CA:4859, V-A:LEU:363:CD1:3188, V-B:GLU:543:CD:9879, V-B:PRO:540:N:9855, H-B:GLU:543:OE2:9881, H-B:GLU:543:OE1:9880, V-B:TYR:539:C:9838, V-B:TYR:539:CG:9843, V-B:MET:535:CE:9806, V-B:PRO:540:CB:9856, V-B:TYR:539:CA:9840, V-B:TYR:539:CD1:9844, V-B:PRO:540:CD:9858, V-B:TYR:531:CE2:9764, V-B:LEU:363:CD1:8159, V-A:HIS:456:CE1:4069, V-B:ILE:538:CG2:9834, V-A:GLU:543:CD:4907, V-B:HIS:456:CE1:9040, V-B:TYR:484:CZ:9317, V-A:ILE:538:CB:4861, V-A:ILE:538:CG2:4862, V-B:ILE:538:CA:9831, H-B:TYR:484:OH:9318, V-A:PRO:540:N:4883, V-A:PRO:540:CD:4886, V-B:TYR:484:CE2:9316"]

$$$$
RR4_Rahimova_2017
     RDKit          3D

 40 44  0  0  0  0  0  0  0  0999 V2000
  125.7630  122.0010   55.8140 C   0  0  0  0  0  0  0  0  0  0  0  0
  125.7280  122.4630   57.1600 O   0  0  0  0  0  0  0  0  0  0  0  0
  125.4710  123.7980   57.4080 C   0  0  0  0  0  0  0  0  0  0  0  0
  126.5790  124.6300   57.5570 C   0  0  0  0  0  0  0  0  0  0  0  0
  126.4170  125.9880   57.8090 C   0  0  0  0  0  0  0  0  0  0  0  0
  125.1400  126.5570   57.9210 C   0  0  0  0  0  0  0  0  0  0  0  0
  124.9690  128.0240   58.1940 C   0  0  0  0  0  0  0  0  0  0  0  0
  125.1110  128.5790   59.4690 C   0  0  0  0  0  0  0  0  0  0  0  0
  124.9450  129.9560   59.6720 C   0  0  0  0  0  0  0  0  0  0  0  0
  125.1400  130.4810   61.0570 C   0  0  0  0  0  0  0  0  0  0  0  0
  126.3080  131.1760   61.3860 C   0  0  0  0  0  0  0  0  0  0  0  0
  126.4920  131.6790   62.6710 C   0  0  0  0  0  0  0  0  0  0  0  0
  125.5130  131.5030   63.6480 C   0  0  0  0  0  0  0  0  0  0  0  0
  125.7830  132.0370   64.8940 O   0  0  0  0  0  0  0  0  0  0  0  0
  127.1340  132.1170   65.3380 C   0  0  0  0  0  0  0  0  0  0  0  0
  124.3380  130.8110   63.3210 C   0  0  0  0  0  0  0  0  0  0  0  0
  124.1550  130.3090   62.0350 C   0  0  0  0  0  0  0  0  0  0  0  0
  124.6030  130.7650   58.5600 C   0  0  0  0  0  0  0  0  0  0  0  0
  124.4190  132.2110   58.7160 C   0  0  0  0  0  0  0  0  0  0  0  0
  124.2730  133.3520   58.8390 N   0  0  0  0  0  0  0  0  0  0  0  0
  124.4460  130.1330   57.3050 C   0  0  0  0  0  0  0  0  0  0  0  0
  124.0070  130.9880   55.8070 S   0  0  0  0  0  0  0  0  0  0  0  0
  125.2870  130.6200   54.5610 C   0  0  0  0  0  0  0  0  0  0  0  0
  126.6980  130.4290   55.1330 C   0  0  0  0  0  0  0  0  0  0  0  0
  127.3400  129.4050   54.8880 O   0  0  0  0  0  0  0  0  0  0  0  0
  127.1360  131.4460   55.9100 N   0  0  0  0  0  0  0  0  0  0  0  0
  128.3630  131.5720   56.5660 C   0  0  0  0  0  0  0  0  0  0  0  0
  128.7020  130.8100   58.0970 S   0  0  0  0  0  0  0  0  0  0  0  0
  130.3080  131.4700   58.1340 C   0  0  0  0  0  0  0  0  0  0  0  0
  130.5690  132.2560   57.0000 C   0  0  0  0  0  0  0  0  0  0  0  0
  129.4720  132.2990   56.1060 C   0  0  0  0  0  0  0  0  0  0  0  0
  129.4920  133.0320   54.8440 C   0  0  0  0  0  0  0  0  0  0  0  0
  129.5080  133.6130   53.8430 N   0  0  0  0  0  0  0  0  0  0  0  0
  131.9340  132.9180   56.7800 C   0  0  0  0  0  0  0  0  0  0  0  0
  133.0020  132.2860   57.7010 C   0  0  0  0  0  0  0  0  0  0  0  0
  132.5000  132.1250   59.1460 C   0  0  0  0  0  0  0  0  0  0  0  0
  131.3060  131.1530   59.2400 C   0  0  0  0  0  0  0  0  0  0  0  0
  124.6430  128.8050   57.1320 N   0  0  0  0  0  0  0  0  0  0  0  0
  124.0300  125.7110   57.7660 C   0  0  0  0  0  0  0  0  0  0  0  0
  124.1880  124.3510   57.5150 C   0  0  0  0  0  0  0  0  0  0  0  0
  1  2  1  0
  2  3  1  0
  3  4  2  0
  4  5  1  0
  5  6  2  0
  6  7  1  0
  7  8  2  0
  8  9  1  0
  9 10  1  0
 10 11  2  0
 11 12  1  0
 12 13  2  0
 13 14  1  0
 14 15  1  0
 13 16  1  0
 16 17  2  0
  9 18  2  0
 18 19  1  0
 19 20  3  0
 18 21  1  0
 21 22  1  0
 22 23  1  0
 23 24  1  0
 24 25  2  0
 24 26  1  0
 26 27  1  0
 27 28  1  0
 28 29  1  0
 29 30  2  0
 30 31  1  0
 31 32  1  0
 32 33  3  0
 30 34  1  0
 34 35  1  0
 35 36  1  0
 36 37  1  0
 21 38  2  0
  6 39  1  0
 39 40  2  0
 40  3  1  0
 38  7  1  0
 17 10  1  0
 31 27  2  0
 37 29  1  0
M  END
>  <Binding energies>  (109) 
[-9.84]

>  <Ligand effiencies>  (109) 
[-0.24]

>  <Interactions>  (109) 
["V-A:LEU:363:CA:3184, V-A:TYR:539:CZ:4876, V-A:PRO:540:CB:4884, V-A:TYR:539:CE1:4874, V-A:PRO:540:CA:4882, V-A:TYR:531:CE2:4792, V-A:ILE:538:CA:4859, V-A:LEU:363:CD1:3188, V-B:PRO:540:N:9855, V-B:MET:535:CE:9806, V-B:TYR:531:CZ:9765, V-B:PRO:540:CD:9858, V-B:TYR:531:CE2:9764, V-B:LEU:363:CD1:8159, V-B:ILE:538:CD1:9836, V-B:ILE:538:CG2:9834, V-B:ILE:538:CA:9831, V-B:ILE:538:C:9829, V-B:ILE:538:CB:9833, V-B:ASP:366:CB:8182, H-B:TYR:484:OH:9318, H-B:TYR:531:OH:9766, V-A:PRO:540:N:4883, V-B:ASP:366:CG:8183, V-A:MET:535:CG:4832, V-B:TYR:531:CE1:9763, H-A:TYR:539:OH:4877, V-B:LEU:475:CD1:9228, V-B:ILE:369:CG2:8207, V-B:ILE:369:CB:8206"]

$$$$
RR6_Rahimova_2017
     RDKit          3D

 38 41  0  0  0  0  0  0  0  0999 V2000
  131.8410  116.8340   61.8980 C   0  0  0  0  0  0  0  0  0  0  0  0
  131.6310  117.3550   60.5930 O   0  0  0  0  0  0  0  0  0  0  0  0
  132.4120  118.3540   60.1060 C   0  0  0  0  0  0  0  0  0  0  0  0
  133.1820  118.2090   59.1510 O   0  0  0  0  0  0  0  0  0  0  0  0
  132.2440  119.6520   60.8420 C   0  0  0  0  0  0  0  0  0  0  0  0
  133.3410  120.4490   61.2020 C   0  0  0  0  0  0  0  0  0  0  0  0
  133.1530  121.6440   61.8920 C   0  0  0  0  0  0  0  0  0  0  0  0
  131.8590  122.0620   62.2370 C   0  0  0  0  0  0  0  0  0  0  0  0
  131.5590  123.2340   62.9560 N   0  0  0  0  0  0  0  0  0  0  0  0
  132.3970  124.1160   63.5440 C   0  0  0  0  0  0  0  0  0  0  0  0
  133.6260  124.0440   63.5400 O   0  0  0  0  0  0  0  0  0  0  0  0
  131.7240  125.2520   64.3210 C   0  0  0  0  0  0  0  0  0  0  0  0
  129.9200  125.3470   64.0640 S   0  0  0  0  0  0  0  0  0  0  0  0
  129.6640  125.6830   62.3340 C   0  0  0  0  0  0  0  0  0  0  0  0
  130.2400  126.8290   61.8980 N   0  0  0  0  0  0  0  0  0  0  0  0
  130.1390  127.1780   60.5910 C   0  0  0  0  0  0  0  0  0  0  0  0
  130.8570  128.4290   60.1760 C   0  0  0  0  0  0  0  0  0  0  0  0
  131.0070  129.5040   61.0660 C   0  0  0  0  0  0  0  0  0  0  0  0
  131.6610  130.6700   60.6780 C   0  0  0  0  0  0  0  0  0  0  0  0
  132.1840  130.7800   59.3900 C   0  0  0  0  0  0  0  0  0  0  0  0
  132.8880  132.0570   58.9670 C   0  0  0  0  0  0  0  0  0  0  0  0
  132.0470  129.7240   58.4920 C   0  0  0  0  0  0  0  0  0  0  0  0
  131.3930  128.5610   58.8860 C   0  0  0  0  0  0  0  0  0  0  0  0
  129.4350  126.3740   59.6890 C   0  0  0  0  0  0  0  0  0  0  0  0
  128.8260  125.1860   60.1170 C   0  0  0  0  0  0  0  0  0  0  0  0
  128.1060  124.3660   59.0970 C   0  0  0  0  0  0  0  0  0  0  0  0
  128.7070  123.2220   58.5630 C   0  0  0  0  0  0  0  0  0  0  0  0
  128.0360  122.4430   57.6240 C   0  0  0  0  0  0  0  0  0  0  0  0
  126.7520  122.7880   57.2050 C   0  0  0  0  0  0  0  0  0  0  0  0
  126.1630  121.9560   56.2730 O   0  0  0  0  0  0  0  0  0  0  0  0
  125.0210  122.4150   55.5570 C   0  0  0  0  0  0  0  0  0  0  0  0
  126.1420  123.9320   57.7420 C   0  0  0  0  0  0  0  0  0  0  0  0
  126.8160  124.7080   58.6820 C   0  0  0  0  0  0  0  0  0  0  0  0
  128.9360  124.8270   61.4830 C   0  0  0  0  0  0  0  0  0  0  0  0
  128.2990  123.6130   62.0030 C   0  0  0  0  0  0  0  0  0  0  0  0
  127.7980  122.6540   62.4130 N   0  0  0  0  0  0  0  0  0  0  0  0
  130.7650  121.2800   61.8650 C   0  0  0  0  0  0  0  0  0  0  0  0
  130.9550  120.0840   61.1780 C   0  0  0  0  0  0  0  0  0  0  0  0
  1  2  1  0
  2  3  1  0
  3  4  2  0
  3  5  1  0
  5  6  2  0
  6  7  1  0
  7  8  2  0
  8  9  1  0
  9 10  1  0
 10 11  2  0
 10 12  1  0
 12 13  1  0
 13 14  1  0
 14 15  2  0
 15 16  1  0
 16 17  1  0
 17 18  2  0
 18 19  1  0
 19 20  2  0
 20 21  1  0
 20 22  1  0
 22 23  2  0
 16 24  2  0
 24 25  1  0
 25 26  1  0
 26 27  2  0
 27 28  1  0
 28 29  2  0
 29 30  1  0
 30 31  1  0
 29 32  1  0
 32 33  2  0
 25 34  2  0
 34 35  1  0
 35 36  3  0
  8 37  1  0
 37 38  2  0
 38  5  1  0
 34 14  1  0
 23 17  1  0
 33 26  1  0
M  END
>  <Binding energies>  (110) 
[-8.84]

>  <Ligand effiencies>  (110) 
[-0.22666666666666666]

>  <Interactions>  (110) 
["V-A:LEU:363:CA:3184, V-A:ASP:366:CG:3212, V-A:PRO:540:CB:4884, V-A:ASP:366:CB:3211, V-A:PRO:540:CA:4882, V-A:TYR:531:CZ:4793, V-B:PRO:540:N:9855, H-B:ALA:541:N:9862, V-B:ALA:541:CB:9863, V-B:PRO:540:CA:9854, V-B:TYR:539:C:9838, V-A:LEU:475:CD2:4258, V-A:HIS:383:CE1:3393, V-B:TYR:539:CD2:9845, V-A:ILE:369:CG2:3236, V-B:TYR:539:CE2:9847, V-A:SER:385:CA:3406, V-A:SER:385:CB:3408, H-B:TYR:539:N:9841, V-B:TYR:539:CG:9843, V-A:THR:477:CG2:4272, V-B:MET:535:CE:9806, V-B:TYR:539:CZ:9848, V-A:PRO:482:CB:4325, H-A:HIS:383:ND1:3390, H-A:GLY:454:N:4049, V-B:TYR:539:CA:9840, V-B:TYR:539:CD1:9844, V-B:TYR:531:CE2:9764, V-B:LEU:363:CD1:8159, V-B:ILE:538:CD1:9836, V-B:ILE:538:CG2:9834, V-B:ILE:538:CA:9831, V-B:TYR:539:CE1:9846, V-B:ILE:538:CB:9833"]

$$$$
RR7_Rahimova_2017
     RDKit          3D

 47 53  0  0  0  0  0  0  0  0999 V2000
  129.1190  124.0140   57.8170 C   0  0  0  0  0  0  0  0  0  0  0  0
  130.2030  124.8230   57.3710 O   0  0  0  0  0  0  0  0  0  0  0  0
  130.2390  126.1570   57.7300 C   0  0  0  0  0  0  0  0  0  0  0  0
  129.5170  127.0380   56.9270 C   0  0  0  0  0  0  0  0  0  0  0  0
  129.4900  128.3990   57.2130 C   0  0  0  0  0  0  0  0  0  0  0  0
  130.1980  128.9160   58.3080 C   0  0  0  0  0  0  0  0  0  0  0  0
  130.1590  130.4330   58.6720 C   0  0  0  0  0  0  0  0  0  0  0  0
  129.0080  130.6170   59.5260 O   0  0  0  0  0  0  0  0  0  0  0  0
  128.2120  129.4900   59.9100 C   0  0  0  0  0  0  0  0  0  0  0  0
  128.1330  129.4320   61.4440 C   0  0  1  0  0  0  0  0  0  0  0  0
  127.9690  128.0610   61.7970 O   0  0  0  0  0  0  0  0  0  0  0  0
  128.9990  127.6080   62.6280 C   0  0  1  0  0  0  0  0  0  0  0  0
  129.2790  126.2100   62.3600 N   0  0  0  0  0  0  0  0  0  0  0  0
  130.4760  125.6410   61.9620 C   0  0  0  0  0  0  0  0  0  0  0  0
  130.4390  124.3500   61.7440 N   0  0  0  0  0  0  0  0  0  0  0  0
  129.1280  124.0200   61.9590 C   0  0  0  0  0  0  0  0  0  0  0  0
  128.4380  122.7950   61.8750 C   0  0  0  0  0  0  0  0  0  0  0  0
  129.1570  121.6380   61.5200 N   0  0  0  0  0  0  0  0  0  0  0  0
  130.2760  121.1240   62.0830 C   0  0  0  0  0  0  0  0  0  0  0  0
  130.8730  121.6340   63.0340 O   0  0  0  0  0  0  0  0  0  0  0  0
  130.8060  119.8560   61.4470 C   0  0  0  0  0  0  0  0  0  0  0  0
  132.0330  119.8810   60.7670 C   0  0  0  0  0  0  0  0  0  0  0  0
  132.5410  118.7250   60.1800 C   0  0  0  0  0  0  0  0  0  0  0  0
  131.8290  117.5340   60.2730 C   0  0  0  0  0  0  0  0  0  0  0  0
  130.6120  117.4870   60.9470 C   0  0  0  0  0  0  0  0  0  0  0  0
  130.1020  118.6430   61.5340 C   0  0  0  0  0  0  0  0  0  0  0  0
  127.0960  122.7650   62.1350 N   0  0  0  0  0  0  0  0  0  0  0  0
  126.4880  123.9350   62.4650 C   0  0  0  0  0  0  0  0  0  0  0  0
  127.0560  125.1650   62.5780 N   0  0  0  0  0  0  0  0  0  0  0  0
  128.3710  125.1630   62.3250 C   0  0  0  0  0  0  0  0  0  0  0  0
  130.1650  128.5570   62.3770 C   0  0  0  0  0  0  0  0  0  0  0  0
  129.4130  129.8620   62.1760 C   0  0  2  0  0  0  0  0  0  0  0  0
  129.1390  130.5120   63.4060 O   0  0  0  0  0  0  0  0  0  0  0  0
  131.4030  130.8770   59.4870 C   0  0  0  0  0  0  0  0  0  0  0  0
  131.2560  131.7150   60.6040 C   0  0  0  0  0  0  0  0  0  0  0  0
  132.3650  132.1300   61.3330 C   0  0  0  0  0  0  0  0  0  0  0  0
  133.6360  131.7120   60.9520 C   0  0  0  0  0  0  0  0  0  0  0  0
  133.8060  130.8820   59.8480 C   0  0  0  0  0  0  0  0  0  0  0  0
  132.6960  130.4680   59.1180 C   0  0  0  0  0  0  0  0  0  0  0  0
  130.0750  131.4150   57.4700 C   0  0  0  0  0  0  0  0  0  0  0  0
  131.0920  132.3570   57.2500 C   0  0  0  0  0  0  0  0  0  0  0  0
  131.0210  133.2470   56.1820 C   0  0  0  0  0  0  0  0  0  0  0  0
  129.9240  133.2100   55.3260 C   0  0  0  0  0  0  0  0  0  0  0  0
  128.8980  132.2940   55.5330 C   0  0  0  0  0  0  0  0  0  0  0  0
  128.9710  131.4050   56.6010 C   0  0  0  0  0  0  0  0  0  0  0  0
  130.9120  128.0230   59.1210 C   0  0  0  0  0  0  0  0  0  0  0  0
  130.9380  126.6610   58.8360 C   0  0  0  0  0  0  0  0  0  0  0  0
  1  2  1  0
  2  3  1  0
  3  4  2  0
  4  5  1  0
  5  6  2  0
  6  7  1  0
  7  8  1  0
  8  9  1  0
 10  9  1  6
 10 11  1  0
 11 12  1  0
 12 13  1  6
 13 14  1  0
 14 15  2  0
 15 16  1  0
 16 17  2  0
 17 18  1  0
 18 19  1  0
 19 20  2  0
 19 21  1  0
 21 22  2  0
 22 23  1  0
 23 24  2  0
 24 25  1  0
 25 26  2  0
 17 27  1  0
 27 28  2  0
 28 29  1  0
 29 30  2  0
 12 31  1  0
 31 32  1  0
 32 33  1  1
  7 34  1  0
 34 35  2  0
 35 36  1  0
 36 37  2  0
 37 38  1  0
 38 39  2  0
  7 40  1  0
 40 41  2  0
 41 42  1  0
 42 43  2  0
 43 44  1  0
 44 45  2  0
  6 46  1  0
 46 47  2  0
 47  3  1  0
 32 10  1  0
 39 34  1  0
 45 40  1  0
 30 13  1  0
 30 16  1  0
 26 21  1  0
M  END
>  <Binding energies>  (111) 
[-10.54]

>  <Ligand effiencies>  (111) 
[-0.2151020408163265]

>  <Interactions>  (111) 
["V-A:LEU:363:CA:3184, V-A:TYR:539:CZ:4876, V-A:ASP:366:CG:3212, V-A:ASN:362:C:3171, V-A:PRO:540:CB:4884, V-A:TYR:539:CE1:4874, H-A:GLU:543:OE2:4909, V-A:ASP:366:CB:3211, V-A:PRO:540:CA:4882, V-A:ILE:538:CA:4859, V-B:GLU:543:CD:9879, H-B:ALA:541:N:9862, V-B:ALA:541:CB:9863, V-B:PRO:540:CA:9854, V-B:PRO:540:C:9852, V-B:TYR:539:C:9838, V-A:LEU:475:CD2:4258, V-A:PRO:482:CG:4326, V-A:HIS:383:CE1:3393, H-B:TYR:539:O:9839, V-B:TYR:539:CD2:9845, V-B:TYR:539:CE2:9847, V-B:MET:535:CE:9806, H-B:TYR:539:OH:9849, V-B:TYR:539:CZ:9848, V-A:PRO:482:CB:4325, H-A:GLU:543:OE1:4908, V-A:ILE:538:CB:4861, V-A:ASN:362:CB:3175, V-A:PRO:540:C:4880, V-A:ASN:362:CA:3173"]

$$$$
RR8_A_Rahimova_2017
     RDKit          3D

 42 46  0  0  0  0  0  0  0  0999 V2000
  125.1020  123.2150   62.2860 O   0  0  0  0  0  0  0  0  0  0  0  0
  125.8650  123.8550   61.5540 C   0  0  0  0  0  0  0  0  0  0  0  0
  126.6390  124.9040   61.9730 O   0  0  0  0  0  0  0  0  0  0  0  0
  127.7610  124.6080   62.7590 C   0  0  1  0  0  0  0  0  0  0  0  0
  127.5340  123.5040   63.5870 O   0  0  0  0  0  0  0  0  0  0  0  0
  128.6900  122.6790   63.6990 C   0  0  2  0  0  0  0  0  0  0  0  0
  129.0410  122.5260   65.1890 C   0  0  0  0  0  0  0  0  0  0  0  0
  130.3160  123.1080   65.4210 O   0  0  0  0  0  0  0  0  0  0  0  0
  131.4060  122.2250   65.1850 C   0  0  0  0  0  0  0  0  0  0  0  0
  132.4310  122.9010   64.2870 C   0  0  0  0  0  0  0  0  0  0  0  0
  133.2450  122.1290   63.4550 C   0  0  0  0  0  0  0  0  0  0  0  0
  134.1810  122.7450   62.6270 C   0  0  0  0  0  0  0  0  0  0  0  0
  134.2970  124.1340   62.6310 C   0  0  0  0  0  0  0  0  0  0  0  0
  133.4850  124.9120   63.4530 C   0  0  0  0  0  0  0  0  0  0  0  0
  132.5490  124.2960   64.2790 C   0  0  0  0  0  0  0  0  0  0  0  0
  129.7390  123.4030   62.8440 C   0  0  1  0  0  0  0  0  0  0  0  0
  130.5680  122.5120   62.1000 O   0  0  0  0  0  0  0  0  0  0  0  0
  129.9180  121.3630   61.5700 C   0  0  0  0  0  0  0  0  0  0  0  0
  130.9460  120.2900   61.2410 C   0  0  0  0  0  0  0  0  0  0  0  0
  132.2020  120.6600   60.7490 C   0  0  0  0  0  0  0  0  0  0  0  0
  133.1440  119.6840   60.4370 C   0  0  0  0  0  0  0  0  0  0  0  0
  132.8280  118.3380   60.6150 C   0  0  0  0  0  0  0  0  0  0  0  0
  131.5780  117.9600   61.0970 C   0  0  0  0  0  0  0  0  0  0  0  0
  130.6340  118.9360   61.4080 C   0  0  0  0  0  0  0  0  0  0  0  0
  128.9010  124.1800   61.8460 C   0  0  2  0  0  0  0  0  0  0  0  0
  129.6440  125.2710   61.3080 O   0  0  0  0  0  0  0  0  0  0  0  0
  129.6690  125.3590   59.8870 C   0  0  0  0  0  0  0  0  0  0  0  0
  131.0780  125.1010   59.3760 C   0  0  0  0  0  0  0  0  0  0  0  0
  131.8770  124.1230   59.9780 C   0  0  0  0  0  0  0  0  0  0  0  0
  133.1630  123.8840   59.5000 C   0  0  0  0  0  0  0  0  0  0  0  0
  133.6460  124.6200   58.4210 C   0  0  0  0  0  0  0  0  0  0  0  0
  132.8550  125.5920   57.8130 C   0  0  0  0  0  0  0  0  0  0  0  0
  131.5680  125.8320   58.2900 C   0  0  0  0  0  0  0  0  0  0  0  0
  126.0470  123.5480   60.0960 C   0  0  0  0  0  0  0  0  0  0  0  0
  127.2510  123.0320   59.5910 C   0  0  0  0  0  0  0  0  0  0  0  0
  127.3900  122.7590   58.2330 C   0  0  0  0  0  0  0  0  0  0  0  0
  126.3310  122.9930   57.3460 C   0  0  0  0  0  0  0  0  0  0  0  0
  126.4790  122.6990   55.9000 N   0  0  0  0  0  0  0  0  0  0  0  0
  125.6710  123.1860   55.1140 O   0  0  0  0  0  0  0  0  0  0  0  0
  127.4070  121.9810   55.5370 O   0  0  0  0  0  0  0  0  0  0  0  0
  125.1310  123.5100   57.8500 C   0  0  0  0  0  0  0  0  0  0  0  0
  124.9910  123.7840   59.2070 C   0  0  0  0  0  0  0  0  0  0  0  0
  1  2  2  0
  2  3  1  0
  4  3  1  6
  4  5  1  0
  5  6  1  0
  6  7  1  1
  7  8  1  0
  8  9  1  0
  9 10  1  0
 10 11  2  0
 11 12  1  0
 12 13  2  0
 13 14  1  0
 14 15  2  0
  6 16  1  0
 16 17  1  6
 17 18  1  0
 18 19  1  0
 19 20  2  0
 20 21  1  0
 21 22  2  0
 22 23  1  0
 23 24  2  0
 16 25  1  0
 25 26  1  1
 26 27  1  0
 27 28  1  0
 28 29  2  0
 29 30  1  0
 30 31  2  0
 31 32  1  0
 32 33  2  0
  2 34  1  0
 34 35  2  0
 35 36  1  0
 36 37  2  0
 37 38  1  0
 38 39  2  0
 38 40  1  0
 37 41  1  0
 41 42  2  0
 25  4  1  0
 33 28  1  0
 42 34  1  0
 15 10  1  0
 24 19  1  0
M  CHG  2  38   1  40  -1
M  END
>  <Binding energies>  (112) 
[-11.38]

>  <Ligand effiencies>  (112) 
[-0.27095238095238094]

>  <Interactions>  (112) 
["V-A:ASP:366:CG:3212, V-A:ASP:366:CB:3211, V-B:GLU:543:CD:9879, V-B:PRO:540:N:9855, H-B:ALA:541:N:9862, H-A:TYR:484:OH:4347, V-B:ALA:541:CB:9863, V-B:PRO:540:CA:9854, V-B:ALA:541:CA:9861, V-B:TYR:539:C:9838, V-A:LEU:475:CD2:4258, V-A:ILE:369:CD1:3238, V-B:TYR:539:CD2:9845, V-A:ILE:369:CG2:3236, V-B:TYR:539:CE2:9847, V-A:SER:385:CA:3406, V-A:SER:385:CB:3408, V-A:GLY:454:CA:4048, H-B:TYR:539:N:9841, V-B:MET:535:CE:9806, V-B:TYR:539:CZ:9848, V-B:GLU:543:CG:9878, V-A:LEU:475:CD1:4257, V-B:PRO:540:CB:9856, V-A:GLY:453:C:4041, V-B:LEU:363:CD1:8159, V-B:ILE:538:CA:9831, V-A:GLY:453:CA:4043, V-A:TYR:484:CZ:4346, V-A:TYR:484:CE2:4345, H-B:TYR:531:OH:9766, V-B:MET:535:CG:9804, V-A:ILE:369:CB:3235, V-A:LEU:475:CG:4256, V-A:ASP:366:CA:3209, V-A:ASP:366:C:3207"]

$$$$
RR8_B_Rahimova_2017
     RDKit          3D

 42 46  0  0  0  0  0  0  0  0999 V2000
  128.6460  125.5260   63.3350 O   0  0  0  0  0  0  0  0  0  0  0  0
  128.4640  125.3030   62.1340 C   0  0  0  0  0  0  0  0  0  0  0  0
  127.2390  125.0910   61.5640 O   0  0  0  0  0  0  0  0  0  0  0  0
  126.6440  123.8260   61.7210 C   0  0  2  0  0  0  0  0  0  0  0  0
  126.8760  123.2940   62.9940 O   0  0  0  0  0  0  0  0  0  0  0  0
  128.0540  122.4890   63.0170 C   0  0  2  0  0  0  0  0  0  0  0  0
  129.0370  123.0480   64.0620 C   0  0  0  0  0  0  0  0  0  0  0  0
  130.0260  122.0660   64.3450 O   0  0  0  0  0  0  0  0  0  0  0  0
  131.1170  122.5250   65.1300 C   0  0  0  0  0  0  0  0  0  0  0  0
  132.2260  123.0110   64.2100 C   0  0  0  0  0  0  0  0  0  0  0  0
  132.8630  122.1090   63.3530 C   0  0  0  0  0  0  0  0  0  0  0  0
  133.8960  122.5420   62.5260 C   0  0  0  0  0  0  0  0  0  0  0  0
  134.2880  123.8790   62.5570 C   0  0  0  0  0  0  0  0  0  0  0  0
  133.6540  124.7860   63.4040 C   0  0  0  0  0  0  0  0  0  0  0  0
  132.6230  124.3520   64.2330 C   0  0  0  0  0  0  0  0  0  0  0  0
  128.5520  122.5040   61.5680 C   0  0  1  0  0  0  0  0  0  0  0  0
  129.1230  121.2350   61.2370 O   0  0  0  0  0  0  0  0  0  0  0  0
  130.5460  121.1740   61.1160 C   0  0  0  0  0  0  0  0  0  0  0  0
  131.0650  119.7390   61.1160 C   0  0  0  0  0  0  0  0  0  0  0  0
  130.2290  118.6910   61.5120 C   0  0  0  0  0  0  0  0  0  0  0  0
  130.6950  117.3800   61.4790 C   0  0  0  0  0  0  0  0  0  0  0  0
  131.9970  117.1210   61.0550 C   0  0  0  0  0  0  0  0  0  0  0  0
  132.8370  118.1610   60.6630 C   0  0  0  0  0  0  0  0  0  0  0  0
  132.3700  119.4730   60.6920 C   0  0  0  0  0  0  0  0  0  0  0  0
  127.3000  122.8320   60.7630 C   0  0  2  0  0  0  0  0  0  0  0  0
  127.6530  123.3960   59.5020 O   0  0  0  0  0  0  0  0  0  0  0  0
  126.6130  124.0840   58.8250 C   0  0  0  0  0  0  0  0  0  0  0  0
  126.3200  123.3470   57.5290 C   0  0  0  0  0  0  0  0  0  0  0  0
  127.3560  122.7470   56.8090 C   0  0  0  0  0  0  0  0  0  0  0  0
  127.0780  122.0900   55.6130 C   0  0  0  0  0  0  0  0  0  0  0  0
  125.7690  122.0370   55.1410 C   0  0  0  0  0  0  0  0  0  0  0  0
  124.7310  122.6320   55.8560 C   0  0  0  0  0  0  0  0  0  0  0  0
  125.0070  123.2880   57.0520 C   0  0  0  0  0  0  0  0  0  0  0  0
  129.5840  125.1980   61.1390 C   0  0  0  0  0  0  0  0  0  0  0  0
  130.8180  124.6220   61.4730 C   0  0  0  0  0  0  0  0  0  0  0  0
  131.8400  124.5470   60.5340 C   0  0  0  0  0  0  0  0  0  0  0  0
  131.6600  125.0540   59.2410 C   0  0  0  0  0  0  0  0  0  0  0  0
  132.7620  124.9960   58.2480 N   0  0  0  0  0  0  0  0  0  0  0  0
  133.6120  124.1180   58.3630 O   0  0  0  0  0  0  0  0  0  0  0  0
  132.7810  125.8260   57.3420 O   0  0  0  0  0  0  0  0  0  0  0  0
  130.4250  125.6240   58.9060 C   0  0  0  0  0  0  0  0  0  0  0  0
  129.3990  125.6930   59.8420 C   0  0  0  0  0  0  0  0  0  0  0  0
  1  2  2  0
  2  3  1  0
  4  3  1  1
  4  5  1  0
  5  6  1  0
  6  7  1  1
  7  8  1  0
  8  9  1  0
  9 10  1  0
 10 11  2  0
 11 12  1  0
 12 13  2  0
 13 14  1  0
 14 15  2  0
  6 16  1  0
 16 17  1  6
 17 18  1  0
 18 19  1  0
 19 20  2  0
 20 21  1  0
 21 22  2  0
 22 23  1  0
 23 24  2  0
 16 25  1  0
 25 26  1  6
 26 27  1  0
 27 28  1  0
 28 29  2  0
 29 30  1  0
 30 31  2  0
 31 32  1  0
 32 33  2  0
  2 34  1  0
 34 35  2  0
 35 36  1  0
 36 37  2  0
 37 38  1  0
 38 39  2  0
 38 40  1  0
 37 41  1  0
 41 42  2  0
 25  4  1  0
 33 28  1  0
 42 34  1  0
 15 10  1  0
 24 19  1  0
M  CHG  2  38   1  40  -1
M  END
>  <Binding energies>  (113) 
[-10.24]

>  <Ligand effiencies>  (113) 
[-0.2438095238095238]

>  <Interactions>  (113) 
["V-A:ASP:366:CG:3212, V-A:ASP:366:CB:3211, V-B:GLU:543:CD:9879, V-B:PRO:540:N:9855, H-B:ALA:541:N:9862, V-B:ALA:541:CB:9863, V-B:PRO:540:CA:9854, V-B:ALA:541:CA:9861, V-B:PRO:540:C:9852, V-B:TYR:539:C:9838, V-A:LEU:475:CD2:4258, V-A:PRO:482:CG:4326, V-A:HIS:383:CE1:3393, V-A:ILE:369:CD1:3238, V-B:TYR:539:CD2:9845, V-B:TYR:539:CE2:9847, V-A:SER:385:CA:3406, V-A:SER:385:CB:3408, V-A:GLY:454:CA:4048, V-A:THR:477:CG2:4272, V-B:MET:535:CE:9806, H-B:TYR:539:OH:9849, V-B:TYR:539:CZ:9848, V-A:PRO:482:CB:4325, V-B:GLU:543:CG:9878, V-A:LEU:475:CD1:4257, V-B:ALA:541:C:9859, V-B:PRO:540:CB:9856, V-A:GLY:453:C:4041, V-B:TYR:539:CD1:9844, V-B:TYR:531:CZ:9765, V-B:TYR:531:CE2:9764, V-B:LEU:363:CD1:8159, V-B:ILE:538:CD1:9836, V-B:ILE:538:CG2:9834, V-B:ILE:538:CA:9831, V-B:TYR:539:CE1:9846, V-B:ILE:538:CG1:9835, V-B:ILE:538:C:9829, V-B:ILE:538:CB:9833, V-A:TYR:484:CZ:4346, V-A:TYR:484:CE2:4345, V-B:MET:535:CG:9804, V-A:VAL:384:C:3396, V-A:ASP:366:CA:3209"]

$$$$
RR9_Rahimova_2017
     RDKit          3D

 36 40  0  0  0  0  0  0  0  0999 V2000
  124.6560  130.9160   55.5980 C   0  0  0  0  0  0  0  0  0  0  0  0
  125.0350  130.8330   54.1160 C   0  0  0  0  0  0  0  0  0  0  0  0
  126.4500  130.9430   53.9990 O   0  0  0  0  0  0  0  0  0  0  0  0
  127.2600  130.1280   54.7660 C   0  0  0  0  0  0  0  0  0  0  0  0
  126.9940  128.7610   54.7160 C   0  0  0  0  0  0  0  0  0  0  0  0
  127.7560  127.8630   55.4570 C   0  0  0  0  0  0  0  0  0  0  0  0
  128.8080  128.3090   56.2710 C   0  0  0  0  0  0  0  0  0  0  0  0
  129.6300  127.3460   57.0760 C   0  0  0  0  0  0  0  0  0  0  0  0
  129.1370  126.7630   58.2540 C   0  0  0  0  0  0  0  0  0  0  0  0
  129.9060  125.8510   58.9980 C   0  0  0  0  0  0  0  0  0  0  0  0
  129.2850  125.1850   60.1950 C   0  0  0  0  0  0  0  0  0  0  0  0
  129.9840  124.8310   61.1450 O   0  0  0  0  0  0  0  0  0  0  0  0
  127.9520  124.9920   60.1320 N   0  0  0  0  0  0  0  0  0  0  0  0
  127.1430  124.2530   61.1070 C   0  0  0  0  0  0  0  0  0  0  0  0
  125.9520  123.5060   60.4630 C   0  0  0  0  0  0  0  0  0  0  0  0
  126.0920  123.2550   58.9660 C   0  0  0  0  0  0  0  0  0  0  0  0
  127.2900  122.7550   58.4470 C   0  0  0  0  0  0  0  0  0  0  0  0
  127.4030  122.4940   57.0840 C   0  0  0  0  0  0  0  0  0  0  0  0
  126.3190  122.7380   56.2430 C   0  0  0  0  0  0  0  0  0  0  0  0
  125.1230  123.2400   56.7530 C   0  0  0  0  0  0  0  0  0  0  0  0
  125.0090  123.5000   58.1160 C   0  0  0  0  0  0  0  0  0  0  0  0
  131.2090  125.5850   58.5100 C   0  0  0  0  0  0  0  0  0  0  0  0
  132.3700  124.8080   58.8770 C   0  0  0  0  0  0  0  0  0  0  0  0
  132.6110  123.9810   60.0960 C   0  0  0  0  0  0  0  0  0  0  0  0
  131.8410  122.8400   60.3370 C   0  0  0  0  0  0  0  0  0  0  0  0
  132.0560  122.0790   61.4830 C   0  0  0  0  0  0  0  0  0  0  0  0
  133.0470  122.4560   62.3920 C   0  0  0  0  0  0  0  0  0  0  0  0
  133.2700  121.6370   63.6510 C   0  0  0  0  0  0  0  0  0  0  0  0
  133.8170  123.5960   62.1570 C   0  0  0  0  0  0  0  0  0  0  0  0
  133.6010  124.3530   61.0090 C   0  0  0  0  0  0  0  0  0  0  0  0
  133.3060  124.9180   57.9610 N   0  0  0  0  0  0  0  0  0  0  0  0
  132.8690  125.7720   57.0230 N   0  0  0  0  0  0  0  0  0  0  0  0
  131.6020  126.2220   57.3080 C   0  0  0  0  0  0  0  0  0  0  0  0
  130.8750  127.0790   56.5920 N   0  0  0  0  0  0  0  0  0  0  0  0
  129.0680  129.6860   56.3180 C   0  0  0  0  0  0  0  0  0  0  0  0
  128.3070  130.5870   55.5760 C   0  0  0  0  0  0  0  0  0  0  0  0
  1  2  1  0
  2  3  1  0
  3  4  1  0
  4  5  2  0
  5  6  1  0
  6  7  2  0
  7  8  1  0
  8  9  2  0
  9 10  1  0
 10 11  1  0
 11 12  2  0
 11 13  1  0
 13 14  1  0
 14 15  1  0
 15 16  1  0
 16 17  2  0
 17 18  1  0
 18 19  2  0
 19 20  1  0
 20 21  2  0
 10 22  2  0
 22 23  1  0
 23 24  1  0
 24 25  2  0
 25 26  1  0
 26 27  2  0
 27 28  1  0
 27 29  1  0
 29 30  2  0
 23 31  2  0
 31 32  1  0
 32 33  1  0
 33 34  2  0
  7 35  1  0
 35 36  2  0
 36  4  1  0
 34  8  1  0
 21 16  1  0
 33 22  1  0
 30 24  1  0
M  END
>  <Binding energies>  (114) 
[-9.27]

>  <Ligand effiencies>  (114) 
[-0.2439473684210526]

>  <Interactions>  (114) 
["V-A:ASP:366:CG:3212, V-A:ASP:366:CB:3211, H-A:TYR:531:OH:4794, V-B:PRO:540:N:9855, V-B:PRO:540:CA:9854, V-B:TYR:539:C:9838, V-A:LEU:475:CD2:4258, V-A:ILE:369:CD1:3238, V-B:TYR:539:CD2:9845, V-B:TYR:539:CE2:9847, V-A:GLY:454:CA:4048, V-B:TYR:539:CG:9843, V-B:MET:535:CE:9806, H-B:TYR:539:OH:9849, V-B:TYR:539:CZ:9848, V-B:PRO:540:CB:9856, V-B:TYR:539:CA:9840, V-B:TYR:539:CD1:9844, V-B:TYR:531:CZ:9765, V-B:TYR:531:CE2:9764, V-B:LEU:363:CD1:8159, V-A:MET:535:CE:4834, H-A:ASP:366:O:3208, V-A:TYR:531:CE1:4791, V-B:TYR:531:CE1:9763, H-A:TYR:539:OH:4877, V-A:ASP:366:CA:3209, V-A:ASP:366:C:3207, V-A:ASN:370:CB:3244, V-B:ASN:370:CB:8215, H-B:LYS:534:NZ:9794, V-B:ASN:370:CG:8216, V-B:TYR:531:CD1:9761"]

$$$$
