1a_Grossjean_2025
     RDKit          3D

 26 27  0  0  0  0  0  0  0  0999 V2000
  123.7130  123.9650   58.6340 C   0  0  0  0  0  0  0  0  0  0  0  0
  125.1010  124.4610   58.2190 C   0  0  0  0  0  0  0  0  0  0  0  0
  125.4480  123.8990   56.9600 O   0  0  0  0  0  0  0  0  0  0  0  0
  126.4240  122.9590   56.8570 C   0  0  0  0  0  0  0  0  0  0  0  0
  126.3120  121.9340   56.1790 O   0  0  0  0  0  0  0  0  0  0  0  0
  127.6480  123.2850   57.6640 C   0  0  0  0  0  0  0  0  0  0  0  0
  127.9960  122.4590   58.7410 C   0  0  0  0  0  0  0  0  0  0  0  0
  129.1220  122.7370   59.5100 C   0  0  0  0  0  0  0  0  0  0  0  0
  129.9210  123.8440   59.2230 C   0  0  0  0  0  0  0  0  0  0  0  0
  131.0330  124.0300   60.0680 N   0  0  0  0  0  0  0  0  0  0  0  0
  132.3340  124.2210   59.7610 C   0  0  0  0  0  0  0  0  0  0  0  0
  132.8010  124.2690   58.6230 O   0  0  0  0  0  0  0  0  0  0  0  0
  133.2720  124.3860   60.9590 C   0  0  0  0  0  0  0  0  0  0  0  0
  133.7370  122.7880   61.6910 S   0  0  0  0  0  0  0  0  0  0  0  0
  132.2790  121.7700   61.7210 C   0  0  0  0  0  0  0  0  0  0  0  0
  131.2000  122.3740   62.2780 N   0  0  0  0  0  0  0  0  0  0  0  0
  130.0370  121.6860   62.3570 C   0  0  0  0  0  0  0  0  0  0  0  0
  128.8780  122.4210   63.0040 C   0  0  0  0  0  0  0  0  0  0  0  0
  129.8990  120.3850   61.8790 C   0  0  0  0  0  0  0  0  0  0  0  0
  131.0000  119.7590   61.2840 C   0  0  0  0  0  0  0  0  0  0  0  0
  130.8210  118.3380   60.7530 C   0  0  0  0  0  0  0  0  0  0  0  0
  132.2240  120.4600   61.1870 C   0  0  0  0  0  0  0  0  0  0  0  0
  133.3770  119.8440   60.5240 C   0  0  0  0  0  0  0  0  0  0  0  0
  134.2850  119.3550   60.0000 N   0  0  0  0  0  0  0  0  0  0  0  0
  129.5850  124.6720   58.1410 C   0  0  0  0  0  0  0  0  0  0  0  0
  128.4580  124.3930   57.3730 C   0  0  0  0  0  0  0  0  0  0  0  0
  1  2  1  0
  2  3  1  0
  3  4  1  0
  4  5  2  0
  4  6  1  0
  6  7  2  0
  7  8  1  0
  8  9  2  0
  9 10  1  0
 10 11  1  0
 11 12  2  0
 11 13  1  0
 13 14  1  0
 14 15  1  0
 15 16  2  0
 16 17  1  0
 17 18  1  0
 17 19  2  0
 19 20  1  0
 20 21  1  0
 20 22  2  0
 22 23  1  0
 23 24  3  0
  9 25  1  0
 25 26  2  0
 26  6  1  0
 22 15  1  0
M  END
>  <Binding energies>  (1) 
[-8.17]

>  <Ligand effiencies>  (1) 
[-0.3025925925925926]

>  <Interactions>  (1) 
["V-A:ASP:366:CG:3212, V-B:PRO:540:N:9855, V-B:ALA:541:CB:9863, V-B:PRO:540:CA:9854, V-B:ALA:541:CA:9861, V-B:TYR:539:C:9838, V-A:LEU:475:CD2:4258, V-A:ILE:369:CD1:3238, V-B:TYR:539:CD2:9845, V-A:ILE:369:CG2:3236, V-B:TYR:539:CE2:9847, V-B:TYR:539:CB:9842, V-A:SER:385:CA:3406, H-B:TYR:539:N:9841, V-B:TYR:539:CG:9843, V-B:MET:535:CE:9806, H-B:TYR:539:OH:9849, V-B:TYR:539:CZ:9848, V-B:PRO:540:CB:9856, V-B:LEU:363:CD1:8159, H-B:TYR:531:OH:9766, V-B:LEU:363:CA:8155, V-B:LEU:363:CB:8157"]

$$$$
1aa_Ghoteimi_2023
     RDKit          3D

 40 43  0  0  0  0  0  0  0  0999 V2000
  130.8840  117.4850   60.8830 C   0  0  0  0  0  0  0  0  0  0  0  0
  132.1710  118.0900   60.3150 C   0  0  0  0  0  0  0  0  0  0  0  0
  132.1360  119.5040   60.4630 O   0  0  0  0  0  0  0  0  0  0  0  0
  133.2090  120.1850   60.9400 C   0  0  0  0  0  0  0  0  0  0  0  0
  134.3730  119.9420   60.6070 O   0  0  0  0  0  0  0  0  0  0  0  0
  132.8400  121.2660   61.9150 C   0  0  0  0  0  0  0  0  0  0  0  0
  131.5090  121.5020   62.2930 C   0  0  0  0  0  0  0  0  0  0  0  0
  131.1970  122.5120   63.2010 C   0  0  0  0  0  0  0  0  0  0  0  0
  132.2150  123.3050   63.7500 C   0  0  0  0  0  0  0  0  0  0  0  0
  132.0200  124.3500   64.6710 N   0  0  0  0  0  0  0  0  0  0  0  0
  132.8640  125.3230   65.0860 C   0  0  0  0  0  0  0  0  0  0  0  0
  134.0210  125.4650   64.6910 O   0  0  0  0  0  0  0  0  0  0  0  0
  132.3310  126.3220   66.1240 C   0  0  0  0  0  0  0  0  0  0  0  0
  131.0900  125.8610   66.6740 O   0  0  0  0  0  0  0  0  0  0  0  0
  130.2150  126.7530   67.2770 C   0  0  0  0  0  0  0  0  0  0  0  0
  130.0800  126.7010   68.6310 N   0  0  0  0  0  0  0  0  0  0  0  0
  129.2220  127.5490   69.2580 C   0  0  0  0  0  0  0  0  0  0  0  0
  129.1330  127.4300   70.7520 C   0  0  0  0  0  0  0  0  0  0  0  0
  129.7500  128.3710   71.5900 C   0  0  0  0  0  0  0  0  0  0  0  0
  129.6700  128.2620   72.9750 C   0  0  0  0  0  0  0  0  0  0  0  0
  128.9710  127.2120   73.5660 C   0  0  0  0  0  0  0  0  0  0  0  0
  128.9460  127.1840   74.9470 O   0  0  0  0  0  0  0  0  0  0  0  0
  128.9620  128.4120   75.6670 C   0  0  0  0  0  0  0  0  0  0  0  0
  128.3440  126.2660   72.7430 C   0  0  0  0  0  0  0  0  0  0  0  0
  128.4250  126.3790   71.3580 C   0  0  0  0  0  0  0  0  0  0  0  0
  128.4880  128.4910   68.5260 C   0  0  0  0  0  0  0  0  0  0  0  0
  128.6170  128.5730   67.1330 C   0  0  0  0  0  0  0  0  0  0  0  0
  127.8150  129.6050   66.4120 C   0  0  0  0  0  0  0  0  0  0  0  0
  126.5990  129.2600   65.8130 C   0  0  0  0  0  0  0  0  0  0  0  0
  125.8410  130.2190   65.1470 C   0  0  0  0  0  0  0  0  0  0  0  0
  126.2770  131.5410   65.0710 C   0  0  0  0  0  0  0  0  0  0  0  0
  125.4600  132.4230   64.3910 O   0  0  0  0  0  0  0  0  0  0  0  0
  124.5010  131.9130   63.4720 C   0  0  0  0  0  0  0  0  0  0  0  0
  127.4920  131.8940   65.6780 C   0  0  0  0  0  0  0  0  0  0  0  0
  128.2500  130.9330   66.3430 C   0  0  0  0  0  0  0  0  0  0  0  0
  129.4990  127.6720   66.4910 C   0  0  0  0  0  0  0  0  0  0  0  0
  129.6650  127.6530   65.0370 C   0  0  0  0  0  0  0  0  0  0  0  0
  129.7990  127.6360   63.8880 N   0  0  0  0  0  0  0  0  0  0  0  0
  133.5390  123.0730   63.3740 C   0  0  0  0  0  0  0  0  0  0  0  0
  133.8500  122.0650   62.4670 C   0  0  0  0  0  0  0  0  0  0  0  0
  1  2  1  0
  2  3  1  0
  3  4  1  0
  4  5  2  0
  4  6  1  0
  6  7  2  0
  7  8  1  0
  8  9  2  0
  9 10  1  0
 10 11  1  0
 11 12  2  0
 11 13  1  0
 13 14  1  0
 14 15  1  0
 15 16  2  0
 16 17  1  0
 17 18  1  0
 18 19  2  0
 19 20  1  0
 20 21  2  0
 21 22  1  0
 22 23  1  0
 21 24  1  0
 24 25  2  0
 17 26  2  0
 26 27  1  0
 27 28  1  0
 28 29  2  0
 29 30  1  0
 30 31  2  0
 31 32  1  0
 32 33  1  0
 31 34  1  0
 34 35  2  0
 27 36  2  0
 36 37  1  0
 37 38  3  0
  9 39  1  0
 39 40  2  0
 40  6  1  0
 36 15  1  0
 25 18  1  0
 35 28  1  0
M  END
>  <Binding energies>  (2) 
[-8.54]

>  <Ligand effiencies>  (2) 
[-0.20829268292682926]

>  <Interactions>  (2) 
["V-B:GLU:543:CD:9879, H-A:TYR:484:OH:4347, H-B:GLU:543:OE2:9881, V-A:LEU:475:CD2:4258, V-A:HIS:383:CE1:3393, V-A:ILE:369:CD1:3238, V-B:TYR:539:CD2:9845, V-A:ILE:369:CG2:3236, V-A:SER:385:CA:3406, V-A:GLY:454:CA:4048, V-A:PRO:482:CB:4325, H-A:GLY:454:N:4049, V-A:ARG:545:CZ:4925, V-A:HIS:456:CE1:4069, V-A:GLU:543:CD:4907, V-B:HIS:456:CE1:9040, V-B:TYR:484:CZ:9317, H-B:LYS:547:NZ:9922, V-A:GLU:543:CG:4906, V-A:GLU:543:CB:4905, H-A:ARG:545:NH1:4926, H-A:ARG:545:NH2:4927, H-A:ARG:545:NE:4923, V-B:TYR:484:CE2:9316, V-B:GLY:454:CA:9019"]

$$$$
1b_Grossjean_2025
     RDKit          3D

 25 26  0  0  0  0  0  0  0  0999 V2000
  124.5970  123.9900   58.1170 C   0  0  0  0  0  0  0  0  0  0  0  0
  125.4120  123.9270   56.9540 O   0  0  0  0  0  0  0  0  0  0  0  0
  126.3810  122.9850   56.8310 C   0  0  0  0  0  0  0  0  0  0  0  0
  126.2810  121.9960   56.0980 O   0  0  0  0  0  0  0  0  0  0  0  0
  127.5950  123.2690   57.6690 C   0  0  0  0  0  0  0  0  0  0  0  0
  127.9570  122.4530   58.7510 C   0  0  0  0  0  0  0  0  0  0  0  0
  129.0870  122.7440   59.5090 C   0  0  0  0  0  0  0  0  0  0  0  0
  129.8770  123.8530   59.2050 C   0  0  0  0  0  0  0  0  0  0  0  0
  130.9940  124.0510   60.0390 N   0  0  0  0  0  0  0  0  0  0  0  0
  132.2960  124.2260   59.7230 C   0  0  0  0  0  0  0  0  0  0  0  0
  132.7590  124.2500   58.5840 O   0  0  0  0  0  0  0  0  0  0  0  0
  133.2380  124.4190   60.9130 C   0  0  0  0  0  0  0  0  0  0  0  0
  133.6940  122.8400   61.6900 S   0  0  0  0  0  0  0  0  0  0  0  0
  132.2360  121.8190   61.7120 C   0  0  0  0  0  0  0  0  0  0  0  0
  131.1750  122.3960   62.3280 N   0  0  0  0  0  0  0  0  0  0  0  0
  130.0120  121.7070   62.4010 C   0  0  0  0  0  0  0  0  0  0  0  0
  128.8640  122.4200   63.0900 C   0  0  0  0  0  0  0  0  0  0  0  0
  129.8650  120.4230   61.8780 C   0  0  0  0  0  0  0  0  0  0  0  0
  130.9600  119.8120   61.2610 C   0  0  0  0  0  0  0  0  0  0  0  0
  130.7800  118.3980   60.7090 C   0  0  0  0  0  0  0  0  0  0  0  0
  132.1850  120.5120   61.1730 C   0  0  0  0  0  0  0  0  0  0  0  0
  133.3580  119.8750   60.5700 C   0  0  0  0  0  0  0  0  0  0  0  0
  134.2820  119.3690   60.0930 N   0  0  0  0  0  0  0  0  0  0  0  0
  129.5220  124.6740   58.1250 C   0  0  0  0  0  0  0  0  0  0  0  0
  128.3920  124.3810   57.3670 C   0  0  0  0  0  0  0  0  0  0  0  0
  1  2  1  0
  2  3  1  0
  3  4  2  0
  3  5  1  0
  5  6  2  0
  6  7  1  0
  7  8  2  0
  8  9  1  0
  9 10  1  0
 10 11  2  0
 10 12  1  0
 12 13  1  0
 13 14  1  0
 14 15  2  0
 15 16  1  0
 16 17  1  0
 16 18  2  0
 18 19  1  0
 19 20  1  0
 19 21  2  0
 21 22  1  0
 22 23  3  0
  8 24  1  0
 24 25  2  0
 25  5  1  0
 21 14  1  0
M  END
>  <Binding energies>  (3) 
[-7.85]

>  <Ligand effiencies>  (3) 
[-0.3019230769230769]

>  <Interactions>  (3) 
["V-A:ASP:366:CG:3212, V-B:PRO:540:N:9855, V-B:ALA:541:CB:9863, V-B:PRO:540:CA:9854, V-B:ALA:541:CA:9861, V-B:TYR:539:C:9838, V-A:LEU:475:CD2:4258, V-A:ILE:369:CD1:3238, V-B:TYR:539:CD2:9845, V-A:ILE:369:CG2:3236, V-B:TYR:539:CE2:9847, V-B:TYR:539:CB:9842, V-A:SER:385:CA:3406, H-B:TYR:539:N:9841, V-B:TYR:539:CG:9843, V-B:MET:535:CE:9806, H-B:TYR:539:OH:9849, V-B:TYR:539:CZ:9848, V-B:PRO:540:CB:9856, V-B:LEU:363:CD1:8159, H-B:TYR:531:OH:9766, H-A:SER:385:N:3407"]

$$$$
1c_Grossjean_2025
     RDKit          3D

 23 24  0  0  0  0  0  0  0  0999 V2000
  125.0520  122.0580   55.6530 C   0  0  0  0  0  0  0  0  0  0  0  0
  125.9740  123.1190   55.8770 O   0  0  0  0  0  0  0  0  0  0  0  0
  126.6110  123.2100   57.1000 C   0  0  0  0  0  0  0  0  0  0  0  0
  125.9100  123.8520   58.1200 C   0  0  0  0  0  0  0  0  0  0  0  0
  126.4670  123.9920   59.3880 C   0  0  0  0  0  0  0  0  0  0  0  0
  127.7460  123.4790   59.6520 C   0  0  0  0  0  0  0  0  0  0  0  0
  128.4070  123.5750   60.8920 N   0  0  0  0  0  0  0  0  0  0  0  0
  127.9630  123.2560   62.1270 C   0  0  0  0  0  0  0  0  0  0  0  0
  126.8550  122.7870   62.3890 O   0  0  0  0  0  0  0  0  0  0  0  0
  128.9540  123.5070   63.2650 C   0  0  0  0  0  0  0  0  0  0  0  0
  129.8630  121.9990   63.7160 S   0  0  0  0  0  0  0  0  0  0  0  0
  131.3150  121.8900   62.6910 C   0  0  0  0  0  0  0  0  0  0  0  0
  132.1310  122.9710   62.7930 N   0  0  0  0  0  0  0  0  0  0  0  0
  133.2670  123.0010   62.0580 C   0  0  0  0  0  0  0  0  0  0  0  0
  134.1320  124.2360   62.2330 C   0  0  0  0  0  0  0  0  0  0  0  0
  133.6300  121.9730   61.1930 C   0  0  0  0  0  0  0  0  0  0  0  0
  132.7860  120.8660   61.0600 C   0  0  0  0  0  0  0  0  0  0  0  0
  133.1970  119.7590   60.0910 C   0  0  0  0  0  0  0  0  0  0  0  0
  131.5910  120.8130   61.8160 C   0  0  0  0  0  0  0  0  0  0  0  0
  130.6680  119.6880   61.6500 C   0  0  0  0  0  0  0  0  0  0  0  0
  129.9390  118.7990   61.5190 N   0  0  0  0  0  0  0  0  0  0  0  0
  128.4550  122.8460   58.6310 C   0  0  0  0  0  0  0  0  0  0  0  0
  127.8950  122.7080   57.3640 C   0  0  0  0  0  0  0  0  0  0  0  0
  1  2  1  0
  2  3  1  0
  3  4  2  0
  4  5  1  0
  5  6  2  0
  6  7  1  0
  7  8  1  0
  8  9  2  0
  8 10  1  0
 10 11  1  0
 11 12  1  0
 12 13  2  0
 13 14  1  0
 14 15  1  0
 14 16  2  0
 16 17  1  0
 17 18  1  0
 17 19  2  0
 19 20  1  0
 20 21  3  0
  6 22  1  0
 22 23  2  0
 23  3  1  0
 19 12  1  0
M  END
>  <Binding energies>  (4) 
[-7.46]

>  <Ligand effiencies>  (4) 
[-0.31083333333333335]

>  <Interactions>  (4) 
["V-A:ASP:366:CG:3212, V-B:GLU:543:CD:9879, V-B:PRO:540:N:9855, H-B:ALA:541:N:9862, V-B:ALA:541:CB:9863, V-B:PRO:540:CA:9854, V-B:TYR:539:C:9838, V-A:LEU:475:CD2:4258, V-A:ILE:369:CD1:3238, V-B:TYR:539:CD2:9845, V-A:ILE:369:CG2:3236, V-B:TYR:539:CE2:9847, V-A:SER:385:CA:3406, V-B:TYR:539:CG:9843, V-B:MET:535:CE:9806, V-B:TYR:539:CZ:9848, V-B:PRO:540:CB:9856, V-B:TYR:539:CD1:9844, V-B:PRO:540:CD:9858, V-B:TYR:531:CE2:9764, V-B:LEU:363:CD1:8159, V-B:ILE:538:CD1:9836, V-B:ILE:538:CG2:9834, V-B:ILE:538:CA:9831, V-B:TYR:539:CE1:9846, V-B:ILE:538:CB:9833, H-B:TYR:531:OH:9766"]

$$$$
1d_Grossjean_2025
     RDKit          3D

 21 22  0  0  0  0  0  0  0  0999 V2000
  124.3280  123.4990   63.3430 C   0  0  0  0  0  0  0  0  0  0  0  0
  124.8480  123.5390   61.9200 C   0  0  0  0  0  0  0  0  0  0  0  0
  124.0160  123.8510   60.8470 C   0  0  0  0  0  0  0  0  0  0  0  0
  124.5540  123.8820   59.5550 C   0  0  0  0  0  0  0  0  0  0  0  0
  123.6260  124.2420   58.3970 C   0  0  0  0  0  0  0  0  0  0  0  0
  125.9250  123.5880   59.3700 C   0  0  0  0  0  0  0  0  0  0  0  0
  126.5200  123.6620   58.0340 C   0  0  0  0  0  0  0  0  0  0  0  0
  126.9870  123.7210   56.9770 N   0  0  0  0  0  0  0  0  0  0  0  0
  126.6890  123.2580   60.5140 C   0  0  0  0  0  0  0  0  0  0  0  0
  128.4220  122.8610   60.4650 S   0  0  0  0  0  0  0  0  0  0  0  0
  129.0010  122.7440   62.1850 C   0  0  0  0  0  0  0  0  0  0  0  0
  130.0140  121.6150   62.3770 C   0  0  0  0  0  0  0  0  0  0  0  0
  130.8190  121.6800   63.3070 O   0  0  0  0  0  0  0  0  0  0  0  0
  129.9190  120.5970   61.4940 N   0  0  0  0  0  0  0  0  0  0  0  0
  130.6940  119.4280   61.3780 C   0  0  0  0  0  0  0  0  0  0  0  0
  132.0240  119.6190   60.9940 C   0  0  0  0  0  0  0  0  0  0  0  0
  132.8800  118.5300   60.8550 C   0  0  0  0  0  0  0  0  0  0  0  0
  132.4070  117.2450   61.1070 C   0  0  0  0  0  0  0  0  0  0  0  0
  131.0860  117.0410   61.4990 C   0  0  0  0  0  0  0  0  0  0  0  0
  130.2280  118.1280   61.6380 C   0  0  0  0  0  0  0  0  0  0  0  0
  126.1620  123.2510   61.7650 N   0  0  0  0  0  0  0  0  0  0  0  0
  1  2  1  0
  2  3  2  0
  3  4  1  0
  4  5  1  0
  4  6  2  0
  6  7  1  0
  7  8  3  0
  6  9  1  0
  9 10  1  0
 10 11  1  0
 11 12  1  0
 12 13  2  0
 12 14  1  0
 14 15  1  0
 15 16  2  0
 16 17  1  0
 17 18  2  0
 18 19  1  0
 19 20  2  0
  9 21  2  0
 21  2  1  0
 20 15  1  0
M  END
>  <Binding energies>  (5) 
[-7.95]

>  <Ligand effiencies>  (5) 
[-0.3613636363636364]

>  <Interactions>  (5) 
["V-B:GLU:543:CD:9879, H-B:ALA:541:N:9862, V-B:ALA:541:CB:9863, V-B:PRO:540:CA:9854, V-B:PRO:540:C:9852, V-B:TYR:539:C:9838, V-A:LEU:475:CD2:4258, V-A:PRO:482:CG:4326, V-A:HIS:383:CE1:3393, H-B:TYR:539:O:9839, V-B:TYR:539:CD2:9845, V-A:SER:385:CA:3406, V-A:SER:385:CB:3408, V-A:THR:477:CG2:4272, V-A:PRO:482:CB:4325, V-B:ALA:541:C:9859, V-B:PRO:540:CB:9856, V-B:ASN:362:CB:8146, V-B:LEU:363:CD1:8159, V-B:ASP:366:CB:8182, H-B:TYR:531:OH:9766, V-B:ASP:366:CG:8183, V-B:LEU:363:CA:8155, V-B:ARG:545:CZ:9897, V-B:ASN:362:CG:8147, V-B:LEU:363:CB:8157"]

$$$$
1e_Grossjean_2025
     RDKit          3D

 22 23  0  0  0  0  0  0  0  0999 V2000
  129.8430  117.0610   60.7040 C   0  0  0  0  0  0  0  0  0  0  0  0
  131.0580  117.9190   60.4060 C   0  0  0  0  0  0  0  0  0  0  0  0
  132.0040  117.5400   59.4500 C   0  0  0  0  0  0  0  0  0  0  0  0
  133.0970  118.3790   59.2310 C   0  0  0  0  0  0  0  0  0  0  0  0
  133.2190  119.5620   59.9630 C   0  0  0  0  0  0  0  0  0  0  0  0
  132.2320  119.8840   60.9020 C   0  0  0  0  0  0  0  0  0  0  0  0
  132.4140  121.0820   61.6170 N   0  0  0  0  0  0  0  0  0  0  0  0
  133.2490  121.3240   62.6510 C   0  0  0  0  0  0  0  0  0  0  0  0
  134.0060  120.4950   63.1570 O   0  0  0  0  0  0  0  0  0  0  0  0
  133.2000  122.7410   63.2270 C   0  0  0  0  0  0  0  0  0  0  0  0
  133.1270  124.0040   61.9210 S   0  0  0  0  0  0  0  0  0  0  0  0
  131.5270  123.9240   61.1390 C   0  0  0  0  0  0  0  0  0  0  0  0
  130.5450  123.4790   61.9640 N   0  0  0  0  0  0  0  0  0  0  0  0
  129.2850  123.3730   61.4810 C   0  0  0  0  0  0  0  0  0  0  0  0
  128.2410  122.8770   62.4620 C   0  0  0  0  0  0  0  0  0  0  0  0
  128.9560  123.6900   60.1650 C   0  0  0  0  0  0  0  0  0  0  0  0
  129.9640  124.1260   59.2990 C   0  0  0  0  0  0  0  0  0  0  0  0
  129.5810  124.4510   57.8560 C   0  0  0  0  0  0  0  0  0  0  0  0
  131.2880  124.2420   59.7810 C   0  0  0  0  0  0  0  0  0  0  0  0
  132.3660  124.6400   58.8720 C   0  0  0  0  0  0  0  0  0  0  0  0
  133.2150  124.9550   58.1510 N   0  0  0  0  0  0  0  0  0  0  0  0
  131.1610  119.0660   61.1250 N   0  0  0  0  0  0  0  0  0  0  0  0
  1  2  1  0
  2  3  2  0
  3  4  1  0
  4  5  2  0
  5  6  1  0
  6  7  1  0
  7  8  1  0
  8  9  2  0
  8 10  1  0
 10 11  1  0
 11 12  1  0
 12 13  2  0
 13 14  1  0
 14 15  1  0
 14 16  2  0
 16 17  1  0
 17 18  1  0
 17 19  2  0
 19 20  1  0
 20 21  3  0
  6 22  2  0
 22  2  1  0
 19 12  1  0
M  END
>  <Binding energies>  (6) 
[-6.69]

>  <Ligand effiencies>  (6) 
[-0.2908695652173913]

>  <Interactions>  (6) 
["V-A:ASP:366:CG:3212, V-A:ASP:366:CB:3211, V-B:ALA:541:CB:9863, V-B:TYR:539:C:9838, V-A:LEU:475:CD2:4258, V-A:PRO:482:CG:4326, V-A:HIS:383:CE1:3393, V-B:TYR:539:CD2:9845, V-A:ILE:369:CG2:3236, V-B:TYR:539:CE2:9847, V-B:TYR:539:CB:9842, V-A:SER:385:CA:3406, V-A:GLY:454:CA:4048, V-B:VAL:344:CG1:7971, V-B:TYR:539:CG:9843, V-B:MET:535:CE:9806, H-B:TYR:539:OH:9849, V-B:TYR:539:CZ:9848, V-A:PRO:482:CB:4325, V-A:LEU:373:CG:3278, V-A:LEU:373:CD2:3280, V-A:VAL:384:C:3396"]

$$$$
1f_Grossjean_2025
     RDKit          3D

 21 22  0  0  0  0  0  0  0  0999 V2000
  133.9620  124.1450   61.8500 C   0  0  0  0  0  0  0  0  0  0  0  0
  133.1800  122.8520   61.7110 C   0  0  0  0  0  0  0  0  0  0  0  0
  133.7540  121.7080   61.1620 C   0  0  0  0  0  0  0  0  0  0  0  0
  132.9800  120.5480   61.0480 C   0  0  0  0  0  0  0  0  0  0  0  0
  133.6260  119.3120   60.4260 C   0  0  0  0  0  0  0  0  0  0  0  0
  131.6410  120.5630   61.4990 C   0  0  0  0  0  0  0  0  0  0  0  0
  130.7980  119.3750   61.3370 C   0  0  0  0  0  0  0  0  0  0  0  0
  130.1340  118.4370   61.2080 N   0  0  0  0  0  0  0  0  0  0  0  0
  131.1490  121.7610   62.0700 C   0  0  0  0  0  0  0  0  0  0  0  0
  129.4930  121.9680   62.6910 S   0  0  0  0  0  0  0  0  0  0  0  0
  128.7810  123.4730   61.9430 C   0  0  0  0  0  0  0  0  0  0  0  0
  127.5910  123.2280   61.0030 C   0  0  0  0  0  0  0  0  0  0  0  0
  126.4650  123.0280   61.4600 O   0  0  0  0  0  0  0  0  0  0  0  0
  127.9050  123.2280   59.6900 N   0  0  0  0  0  0  0  0  0  0  0  0
  127.0740  123.0450   58.5680 C   0  0  0  0  0  0  0  0  0  0  0  0
  125.7450  123.4920   58.4500 C   0  0  0  0  0  0  0  0  0  0  0  0
  125.0340  123.2450   57.2730 C   0  0  0  0  0  0  0  0  0  0  0  0
  125.6710  122.5580   56.2390 C   0  0  0  0  0  0  0  0  0  0  0  0
  126.9520  122.1210   56.3250 N   0  0  0  0  0  0  0  0  0  0  0  0
  127.6300  122.3690   57.4760 C   0  0  0  0  0  0  0  0  0  0  0  0
  131.9010  122.8870   62.1530 N   0  0  0  0  0  0  0  0  0  0  0  0
  1  2  1  0
  2  3  2  0
  3  4  1  0
  4  5  1  0
  4  6  2  0
  6  7  1  0
  7  8  3  0
  6  9  1  0
  9 10  1  0
 10 11  1  0
 11 12  1  0
 12 13  2  0
 12 14  1  0
 14 15  1  0
 15 16  2  0
 16 17  1  0
 17 18  2  0
 18 19  1  0
 19 20  2  0
  9 21  2  0
 21  2  1  0
 20 15  1  0
M  END
>  <Binding energies>  (7) 
[-7.48]

>  <Ligand effiencies>  (7) 
[-0.34]

>  <Interactions>  (7) 
["V-A:ASP:366:CG:3212, V-B:PRO:540:N:9855, H-B:ALA:541:N:9862, V-B:ALA:541:CB:9863, V-B:PRO:540:CA:9854, V-B:TYR:539:C:9838, V-A:LEU:475:CD2:4258, V-A:ILE:369:CD1:3238, V-B:TYR:539:CD2:9845, V-A:ILE:369:CG2:3236, V-B:TYR:539:CE2:9847, V-A:SER:385:CA:3406, V-A:SER:385:CB:3408, H-B:TYR:539:N:9841, V-B:TYR:539:CG:9843, V-B:MET:535:CE:9806, V-B:PRO:540:CB:9856, V-B:TYR:539:CA:9840, V-B:TYR:539:CD1:9844, V-B:PRO:540:CD:9858, V-B:TYR:531:CE2:9764, V-B:LEU:363:CD1:8159, V-A:VAL:384:C:3396"]

$$$$
1g_Grossjean_2025
     RDKit          3D

 22 23  0  0  0  0  0  0  0  0999 V2000
  129.6210  116.8510   60.6290 C   0  0  0  0  0  0  0  0  0  0  0  0
  130.6000  118.0080   60.6940 C   0  0  0  0  0  0  0  0  0  0  0  0
  131.7970  117.9930   59.9820 C   0  0  0  0  0  0  0  0  0  0  0  0
  132.6680  119.0820   60.0940 C   0  0  0  0  0  0  0  0  0  0  0  0
  133.9820  119.0360   59.3150 C   0  0  0  0  0  0  0  0  0  0  0  0
  132.3100  120.1730   60.9170 C   0  0  0  0  0  0  0  0  0  0  0  0
  133.2300  121.3000   61.0910 C   0  0  0  0  0  0  0  0  0  0  0  0
  133.9590  122.1890   61.2270 N   0  0  0  0  0  0  0  0  0  0  0  0
  131.0630  120.1140   61.5840 C   0  0  0  0  0  0  0  0  0  0  0  0
  130.4520  121.4000   62.6500 S   0  0  0  0  0  0  0  0  0  0  0  0
  128.8440  121.9320   61.9870 C   0  0  0  0  0  0  0  0  0  0  0  0
  129.0000  122.8520   60.7750 C   0  0  0  0  0  0  0  0  0  0  0  0
  129.6750  123.8790   60.8630 O   0  0  0  0  0  0  0  0  0  0  0  0
  128.3640  122.4720   59.6540 N   0  0  0  0  0  0  0  0  0  0  0  0
  128.4230  123.1670   58.3680 C   0  0  0  0  0  0  0  0  0  0  0  0
  127.1770  122.9970   57.5050 C   0  0  0  0  0  0  0  0  0  0  0  0
  125.9380  123.4490   57.9710 C   0  0  0  0  0  0  0  0  0  0  0  0
  124.8000  123.2950   57.1830 C   0  0  0  0  0  0  0  0  0  0  0  0
  124.9060  122.6930   55.9300 C   0  0  0  0  0  0  0  0  0  0  0  0
  126.1370  122.2450   55.4580 C   0  0  0  0  0  0  0  0  0  0  0  0
  127.2750  122.3970   56.2460 C   0  0  0  0  0  0  0  0  0  0  0  0
  130.2350  119.0430   61.4870 N   0  0  0  0  0  0  0  0  0  0  0  0
  1  2  1  0
  2  3  2  0
  3  4  1  0
  4  5  1  0
  4  6  2  0
  6  7  1  0
  7  8  3  0
  6  9  1  0
  9 10  1  0
 10 11  1  0
 11 12  1  0
 12 13  2  0
 12 14  1  0
 14 15  1  0
 15 16  1  0
 16 17  2  0
 17 18  1  0
 18 19  2  0
 19 20  1  0
 20 21  2  0
  9 22  2  0
 22  2  1  0
 21 16  1  0
M  END
>  <Binding energies>  (8) 
[-7.91]

>  <Ligand effiencies>  (8) 
[-0.34391304347826085]

>  <Interactions>  (8) 
["V-B:PRO:540:N:9855, V-B:ALA:541:CB:9863, V-B:PRO:540:CA:9854, V-B:ALA:541:CA:9861, V-B:PRO:540:C:9852, V-B:TYR:539:C:9838, V-A:LEU:475:CD2:4258, V-A:PRO:482:CG:4326, V-A:HIS:383:CE1:3393, H-B:TYR:539:O:9839, V-B:TYR:539:CD2:9845, V-A:ILE:369:CG2:3236, V-B:TYR:539:CE2:9847, V-B:TYR:539:CB:9842, V-A:SER:385:CA:3406, V-B:VAL:344:CG1:7971, V-B:TYR:539:CG:9843, V-B:MET:535:CE:9806, V-B:TYR:539:CZ:9848, V-A:PRO:482:CB:4325, V-B:PRO:540:CB:9856, V-B:TYR:539:CD1:9844, V-B:TYR:531:CZ:9765, V-B:TYR:531:CE2:9764, V-B:LEU:363:CD1:8159, V-B:ILE:538:CD1:9836, V-B:ILE:538:CG2:9834, V-B:ILE:538:CA:9831, V-B:TYR:539:CE1:9846, V-B:ILE:538:C:9829, V-A:LEU:373:CG:3278, V-A:LEU:373:CD2:3280, V-B:MET:535:CG:9804, V-A:VAL:384:C:3396"]

$$$$
1h_Grossjean_2025
     RDKit          3D

 28 29  0  0  0  0  0  0  0  0999 V2000
  126.1090  122.2560   55.9370 C   0  0  0  0  0  0  0  0  0  0  0  0
  126.4500  123.6180   56.1670 O   0  0  0  0  0  0  0  0  0  0  0  0
  127.0380  123.9770   57.3660 C   0  0  0  0  0  0  0  0  0  0  0  0
  128.3020  124.5790   57.4700 C   0  0  0  0  0  0  0  0  0  0  0  0
  128.8390  124.9020   58.7170 C   0  0  0  0  0  0  0  0  0  0  0  0
  130.2040  125.5770   58.8140 C   0  0  0  0  0  0  0  0  0  0  0  0
  131.2320  124.7530   59.4500 N   0  0  0  0  0  0  0  0  0  0  0  0
  132.4630  124.5270   58.9570 C   0  0  0  0  0  0  0  0  0  0  0  0
  132.8790  125.0190   57.9090 O   0  0  0  0  0  0  0  0  0  0  0  0
  133.3620  123.5960   59.7710 C   0  0  0  0  0  0  0  0  0  0  0  0
  133.4100  124.0600   61.5290 S   0  0  0  0  0  0  0  0  0  0  0  0
  131.8960  123.4990   62.2900 C   0  0  0  0  0  0  0  0  0  0  0  0
  131.0330  122.8400   61.4730 N   0  0  0  0  0  0  0  0  0  0  0  0
  129.8680  122.3830   61.9870 C   0  0  0  0  0  0  0  0  0  0  0  0
  128.9600  121.6540   61.0140 C   0  0  0  0  0  0  0  0  0  0  0  0
  129.5130  122.5620   63.3220 C   0  0  0  0  0  0  0  0  0  0  0  0
  130.3910  123.2410   64.1740 C   0  0  0  0  0  0  0  0  0  0  0  0
  129.9840  123.4250   65.6340 C   0  0  0  0  0  0  0  0  0  0  0  0
  131.6150  123.7270   63.6570 C   0  0  0  0  0  0  0  0  0  0  0  0
  132.5530  124.4440   64.5250 C   0  0  0  0  0  0  0  0  0  0  0  0
  133.2940  125.0100   65.2110 N   0  0  0  0  0  0  0  0  0  0  0  0
  128.0960  124.6570   59.8720 C   0  0  0  0  0  0  0  0  0  0  0  0
  126.8270  124.0610   59.7980 C   0  0  0  0  0  0  0  0  0  0  0  0
  126.0370  123.7870   60.8990 O   0  0  0  0  0  0  0  0  0  0  0  0
  126.5510  124.0240   62.2050 C   0  0  0  0  0  0  0  0  0  0  0  0
  126.3140  123.7160   58.5390 C   0  0  0  0  0  0  0  0  0  0  0  0
  125.0710  123.1380   58.4500 O   0  0  0  0  0  0  0  0  0  0  0  0
  123.9950  124.0610   58.5480 C   0  0  0  0  0  0  0  0  0  0  0  0
  1  2  1  0
  2  3  1  0
  3  4  2  0
  4  5  1  0
  5  6  1  0
  6  7  1  0
  7  8  1  0
  8  9  2  0
  8 10  1  0
 10 11  1  0
 11 12  1  0
 12 13  2  0
 13 14  1  0
 14 15  1  0
 14 16  2  0
 16 17  1  0
 17 18  1  0
 17 19  2  0
 19 20  1  0
 20 21  3  0
  5 22  2  0
 22 23  1  0
 23 24  1  0
 24 25  1  0
 23 26  2  0
 26 27  1  0
 27 28  1  0
 26  3  1  0
 19 12  1  0
M  END
>  <Binding energies>  (9) 
[-6.23]

>  <Ligand effiencies>  (9) 
[-0.21482758620689657]

>  <Interactions>  (9) 
["V-A:ASP:366:CG:3212, V-A:ASP:366:CB:3211, V-B:GLU:543:CD:9879, H-A:TYR:484:OH:4347, V-B:ALA:541:CB:9863, V-B:PRO:540:CA:9854, V-B:PRO:540:C:9852, V-B:TYR:539:C:9838, V-A:ILE:369:CD1:3238, V-B:TYR:539:CD2:9845, V-A:ILE:369:CG2:3236, V-B:TYR:539:CE2:9847, V-B:MET:535:CE:9806, H-B:TYR:539:OH:9849, V-B:TYR:539:CZ:9848, V-B:GLU:543:CG:9878, V-B:PRO:540:CB:9856, H-A:GLY:454:N:4049, V-B:PRO:540:CD:9858, V-B:LEU:363:CD1:8159, V-B:ILE:538:CD1:9836, V-B:ILE:538:CG2:9834, V-B:ILE:538:CA:9831, V-B:ILE:538:C:9829, V-A:TYR:484:CZ:4346, V-A:TYR:484:CE2:4345, H-B:TYR:531:OH:9766, V-B:LEU:363:CA:8155, V-A:ILE:369:CB:3235"]

$$$$
1i_Grossjean_2025
     RDKit          3D

 20 21  0  0  0  0  0  0  0  0999 V2000
  129.8080  116.9000   60.7430 C   0  0  0  0  0  0  0  0  0  0  0  0
  130.6670  118.1450   60.8620 C   0  0  0  0  0  0  0  0  0  0  0  0
  131.9700  118.1810   60.3710 C   0  0  0  0  0  0  0  0  0  0  0  0
  132.7130  119.3590   60.5000 C   0  0  0  0  0  0  0  0  0  0  0  0
  134.1340  119.3800   59.9390 C   0  0  0  0  0  0  0  0  0  0  0  0
  132.1270  120.4810   61.1310 C   0  0  0  0  0  0  0  0  0  0  0  0
  132.8690  121.7400   61.2320 C   0  0  0  0  0  0  0  0  0  0  0  0
  133.4560  122.7340   61.3090 N   0  0  0  0  0  0  0  0  0  0  0  0
  130.8070  120.3450   61.6220 C   0  0  0  0  0  0  0  0  0  0  0  0
  129.9170  121.6510   62.4410 S   0  0  0  0  0  0  0  0  0  0  0  0
  129.6840  122.9950   61.2400 C   0  0  0  0  0  0  0  0  0  0  0  0
  128.4100  122.8120   60.4120 C   0  0  0  0  0  0  0  0  0  0  0  0
  127.3290  122.6780   60.9880 O   0  0  0  0  0  0  0  0  0  0  0  0
  128.5810  122.8170   59.0720 N   0  0  0  0  0  0  0  0  0  0  0  0
  127.6030  122.6680   58.0990 C   0  0  0  0  0  0  0  0  0  0  0  0
  126.3250  123.2120   58.2140 C   0  0  0  0  0  0  0  0  0  0  0  0
  125.6730  122.8430   57.0610 C   0  0  0  0  0  0  0  0  0  0  0  0
  126.5130  122.1120   56.2910 O   0  0  0  0  0  0  0  0  0  0  0  0
  127.7340  122.0060   56.9610 N   0  0  0  0  0  0  0  0  0  0  0  0
  130.0870  119.2040   61.4740 N   0  0  0  0  0  0  0  0  0  0  0  0
  1  2  1  0
  2  3  2  0
  3  4  1  0
  4  5  1  0
  4  6  2  0
  6  7  1  0
  7  8  3  0
  6  9  1  0
  9 10  1  0
 10 11  1  0
 11 12  1  0
 12 13  2  0
 12 14  1  0
 14 15  1  0
 15 16  1  0
 16 17  2  0
 17 18  1  0
 18 19  1  0
  9 20  2  0
 20  2  1  0
 19 15  2  0
M  END
>  <Binding energies>  (10) 
[-7.83]

>  <Ligand effiencies>  (10) 
[-0.3728571428571429]

>  <Interactions>  (10) 
["V-B:PRO:540:N:9855, H-B:ALA:541:N:9862, V-B:ALA:541:CB:9863, V-B:PRO:540:CA:9854, V-B:TYR:539:C:9838, V-A:LEU:475:CD2:4258, V-A:PRO:482:CG:4326, V-A:HIS:383:CE1:3393, H-B:TYR:539:O:9839, V-B:TYR:539:CD2:9845, V-A:ILE:369:CG2:3236, V-B:TYR:539:CE2:9847, V-B:TYR:539:CB:9842, V-A:SER:385:CA:3406, V-A:SER:385:CB:3408, H-B:TYR:539:N:9841, V-B:VAL:344:CG1:7971, V-A:PRO:482:CB:4325, V-B:PRO:540:CB:9856, V-B:PRO:540:CD:9858, V-A:VAL:384:C:3396"]

$$$$
1k_Grossjean_2025
     RDKit          3D

 25 25  0  0  0  0  0  0  0  0999 V2000
  125.5080  122.3810   56.3120 C   0  0  0  0  0  0  0  0  0  0  0  0
  126.8820  122.0400   56.2290 O   0  0  0  0  0  0  0  0  0  0  0  0
  127.6270  122.4050   57.3830 C   0  0  0  0  0  0  0  0  0  0  0  0
  126.9580  123.6070   58.0650 C   0  0  0  0  0  0  0  0  0  0  0  0
  126.3210  123.1770   59.2620 O   0  0  0  0  0  0  0  0  0  0  0  0
  126.3350  124.1500   60.2970 C   0  0  0  0  0  0  0  0  0  0  0  0
  125.8910  123.5000   61.6140 C   0  0  0  0  0  0  0  0  0  0  0  0
  127.0210  122.9340   62.2670 O   0  0  0  0  0  0  0  0  0  0  0  0
  127.5140  123.7230   63.3420 C   0  0  0  0  0  0  0  0  0  0  0  0
  128.6740  122.9850   64.0350 C   0  0  0  0  0  0  0  0  0  0  0  0
  129.8530  122.8010   63.1870 N   0  0  0  0  0  0  0  0  0  0  0  0
  130.9840  122.1760   63.5580 C   0  0  0  0  0  0  0  0  0  0  0  0
  131.1430  121.6770   64.6740 O   0  0  0  0  0  0  0  0  0  0  0  0
  132.0910  122.1210   62.4930 C   0  0  0  0  0  0  0  0  0  0  0  0
  133.3510  123.4410   62.5940 S   0  0  0  0  0  0  0  0  0  0  0  0
  132.8340  124.6540   63.8010 C   0  0  0  0  0  0  0  0  0  0  0  0
  133.6210  124.7670   64.9020 N   0  0  0  0  0  0  0  0  0  0  0  0
  133.2810  125.6600   65.8590 C   0  0  0  0  0  0  0  0  0  0  0  0
  134.2040  125.7210   67.0610 C   0  0  0  0  0  0  0  0  0  0  0  0
  132.1580  126.4790   65.7590 C   0  0  0  0  0  0  0  0  0  0  0  0
  131.3440  126.3780   64.6260 C   0  0  0  0  0  0  0  0  0  0  0  0
  130.1180  127.2830   64.5360 C   0  0  0  0  0  0  0  0  0  0  0  0
  131.6790  125.4480   63.6170 C   0  0  0  0  0  0  0  0  0  0  0  0
  130.8410  125.3180   62.4210 C   0  0  0  0  0  0  0  0  0  0  0  0
  130.1790  125.2150   61.4770 N   0  0  0  0  0  0  0  0  0  0  0  0
  1  2  1  0
  2  3  1  0
  3  4  1  0
  4  5  1  0
  5  6  1  0
  6  7  1  0
  7  8  1  0
  8  9  1  0
  9 10  1  0
 10 11  1  0
 11 12  1  0
 12 13  2  0
 12 14  1  0
 14 15  1  0
 15 16  1  0
 16 17  2  0
 17 18  1  0
 18 19  1  0
 18 20  2  0
 20 21  1  0
 21 22  1  0
 21 23  2  0
 23 24  1  0
 24 25  3  0
 23 16  1  0
M  END
>  <Binding energies>  (11) 
[-5.81]

>  <Ligand effiencies>  (11) 
[-0.22346153846153843]

>  <Interactions>  (11) 
["V-B:GLU:543:CD:9879, V-B:PRO:540:N:9855, H-B:ALA:541:N:9862, H-A:TYR:484:OH:4347, V-B:ALA:541:CB:9863, V-B:PRO:540:CA:9854, V-B:PRO:540:C:9852, V-B:TYR:539:C:9838, V-A:LEU:475:CD2:4258, V-B:TYR:539:CD2:9845, V-B:TYR:539:CE2:9847, H-B:TYR:539:N:9841, V-B:TYR:539:CG:9843, V-B:MET:535:CE:9806, V-B:GLU:543:CG:9878, V-B:PRO:540:CB:9856, H-A:GLY:454:N:4049, V-B:TYR:539:CA:9840, V-A:ARG:545:CD:4922, V-B:TYR:539:CD1:9844, V-B:PRO:540:CD:9858, V-B:LEU:363:CD1:8159, V-A:ARG:545:CZ:4925, V-A:ARG:545:CG:4921, V-B:ILE:538:CG2:9834, V-A:GLU:543:CD:4907, V-B:ILE:538:CA:9831"]

$$$$
1l_Grossjean_2025
     RDKit          3D

 17 17  0  0  0  0  0  0  0  0999 V2000
  128.0190  122.3780   57.0000 C   0  0  0  0  0  0  0  0  0  0  0  0
  126.7960  121.6570   56.9970 O   0  0  0  0  0  0  0  0  0  0  0  0
  125.7940  122.4170   57.5990 N   0  0  0  0  0  0  0  0  0  0  0  0
  125.0220  123.2080   56.8280 C   0  0  0  0  0  0  0  0  0  0  0  0
  124.9880  123.1400   55.5970 O   0  0  0  0  0  0  0  0  0  0  0  0
  124.1530  124.2160   57.5940 C   0  0  0  0  0  0  0  0  0  0  0  0
  123.9610  123.8720   59.3760 S   0  0  0  0  0  0  0  0  0  0  0  0
  125.5720  123.9720   60.1380 C   0  0  0  0  0  0  0  0  0  0  0  0
  126.5720  124.4390   59.3460 N   0  0  0  0  0  0  0  0  0  0  0  0
  127.8200  124.5400   59.8600 C   0  0  0  0  0  0  0  0  0  0  0  0
  128.8820  125.0690   58.9140 C   0  0  0  0  0  0  0  0  0  0  0  0
  128.1240  124.1840   61.1720 C   0  0  0  0  0  0  0  0  0  0  0  0
  127.1030  123.7030   61.9980 C   0  0  0  0  0  0  0  0  0  0  0  0
  127.4580  123.3200   63.4340 C   0  0  0  0  0  0  0  0  0  0  0  0
  125.7930  123.5900   61.4820 C   0  0  0  0  0  0  0  0  0  0  0  0
  124.7030  123.0880   62.3260 C   0  0  0  0  0  0  0  0  0  0  0  0
  123.8450  122.6930   62.9920 N   0  0  0  0  0  0  0  0  0  0  0  0
  1  2  1  0
  2  3  1  0
  3  4  1  0
  4  5  2  0
  4  6  1  0
  6  7  1  0
  7  8  1  0
  8  9  2  0
  9 10  1  0
 10 11  1  0
 10 12  2  0
 12 13  1  0
 13 14  1  0
 13 15  2  0
 15 16  1  0
 16 17  3  0
 15  8  1  0
M  END
>  <Binding energies>  (12) 
[-6.07]

>  <Ligand effiencies>  (12) 
[-0.33722222222222226]

>  <Interactions>  (12) 
["V-B:GLU:543:CD:9879, V-B:PRO:540:N:9855, H-B:ALA:541:N:9862, V-B:ALA:541:CB:9863, V-B:PRO:540:CA:9854, V-B:ALA:541:CA:9861, V-B:PRO:540:C:9852, V-B:TYR:539:C:9838, V-B:TYR:539:CD2:9845, V-B:TYR:539:CE2:9847, H-B:TYR:539:N:9841, V-B:TYR:539:CG:9843, V-B:MET:535:CE:9806, V-B:TYR:539:CZ:9848, V-B:GLU:543:CG:9878, V-B:ALA:541:C:9859, V-B:PRO:540:CB:9856, V-B:ASN:362:CB:8146, V-B:TYR:539:CA:9840, V-B:TYR:539:CD1:9844, V-B:TYR:531:CZ:9765, V-B:PRO:540:CD:9858, V-B:TYR:531:CE2:9764, V-B:LEU:363:CD1:8159, V-B:TYR:539:CE1:9846, H-B:TYR:531:OH:9766, H-B:ASN:362:ND2:8149, V-B:PRO:540:CG:9857"]

$$$$
1m_Grossjean_2025
     RDKit          3D

 20 20  0  0  0  0  0  0  0  0999 V2000
  125.0210  122.3080   55.5820 C   0  0  0  0  0  0  0  0  0  0  0  0
  125.9400  123.1590   56.2520 O   0  0  0  0  0  0  0  0  0  0  0  0
  126.9300  122.6410   57.0080 C   0  0  0  0  0  0  0  0  0  0  0  0
  127.9000  122.0070   56.5830 O   0  0  0  0  0  0  0  0  0  0  0  0
  126.7160  122.9450   58.5050 C   0  0  0  0  0  0  0  0  0  0  0  0
  127.9710  122.9370   59.2730 N   0  0  0  0  0  0  0  0  0  0  0  0
  128.0710  122.8700   60.6140 C   0  0  0  0  0  0  0  0  0  0  0  0
  127.0900  122.8220   61.3590 O   0  0  0  0  0  0  0  0  0  0  0  0
  129.5010  122.8650   61.1710 C   0  0  0  0  0  0  0  0  0  0  0  0
  129.8380  121.5510   62.3930 S   0  0  0  0  0  0  0  0  0  0  0  0
  130.7640  120.2670   61.5800 C   0  0  0  0  0  0  0  0  0  0  0  0
  130.0910  119.0920   61.4800 N   0  0  0  0  0  0  0  0  0  0  0  0
  130.6960  118.0450   60.8740 C   0  0  0  0  0  0  0  0  0  0  0  0
  129.8750  116.7720   60.7830 C   0  0  0  0  0  0  0  0  0  0  0  0
  131.9870  118.1180   60.3560 C   0  0  0  0  0  0  0  0  0  0  0  0
  132.7000  119.3150   60.4770 C   0  0  0  0  0  0  0  0  0  0  0  0
  134.1200  119.3680   59.9170 C   0  0  0  0  0  0  0  0  0  0  0  0
  132.0900  120.4240   61.1070 C   0  0  0  0  0  0  0  0  0  0  0  0
  132.8360  121.6710   61.2880 C   0  0  0  0  0  0  0  0  0  0  0  0
  133.4260  122.6560   61.4300 N   0  0  0  0  0  0  0  0  0  0  0  0
  1  2  1  0
  2  3  1  0
  3  4  2  0
  3  5  1  0
  5  6  1  0
  6  7  1  0
  7  8  2  0
  7  9  1  0
  9 10  1  0
 10 11  1  0
 11 12  2  0
 12 13  1  0
 13 14  1  0
 13 15  2  0
 15 16  1  0
 16 17  1  0
 16 18  2  0
 18 19  1  0
 19 20  3  0
 18 11  1  0
M  END
>  <Binding energies>  (13) 
[-7.04]

>  <Ligand effiencies>  (13) 
[-0.3352380952380952]

>  <Interactions>  (13) 
["V-B:PRO:540:N:9855, H-B:ALA:541:N:9862, V-B:ALA:541:CB:9863, V-B:PRO:540:CA:9854, V-B:TYR:539:C:9838, V-A:LEU:475:CD2:4258, V-A:PRO:482:CG:4326, V-A:HIS:383:CE1:3393, H-B:TYR:539:O:9839, V-B:TYR:539:CD2:9845, V-A:ILE:369:CG2:3236, V-B:TYR:539:CE2:9847, V-B:TYR:539:CB:9842, V-A:SER:385:CA:3406, H-B:TYR:539:N:9841, V-B:VAL:344:CG1:7971, V-B:MET:535:CE:9806, V-A:PRO:482:CB:4325, V-B:PRO:540:CB:9856, V-B:PRO:540:CD:9858, V-B:TYR:531:CE2:9764, V-B:LEU:363:CD1:8159, V-B:ILE:538:CD1:9836, V-B:ILE:538:CG2:9834, V-B:ILE:538:CA:9831, V-B:ILE:538:CB:9833, H-B:TYR:531:OH:9766, V-A:VAL:384:C:3396"]

$$$$
1n_Grossjean_2025
     RDKit          3D

 27 28  0  0  0  0  0  0  0  0999 V2000
  123.5940  124.9980   57.7520 C   0  0  0  0  0  0  0  0  0  0  0  0
  124.5200  123.7810   57.8440 C   0  0  0  0  0  0  0  0  0  0  0  0
  125.5810  123.9220   56.9070 O   0  0  0  0  0  0  0  0  0  0  0  0
  126.5500  122.9780   56.7960 C   0  0  0  0  0  0  0  0  0  0  0  0
  126.4670  122.0040   56.0420 O   0  0  0  0  0  0  0  0  0  0  0  0
  127.7390  123.2420   57.6740 C   0  0  0  0  0  0  0  0  0  0  0  0
  128.0300  122.4430   58.7910 C   0  0  0  0  0  0  0  0  0  0  0  0
  129.1390  122.7180   59.5860 C   0  0  0  0  0  0  0  0  0  0  0  0
  129.9730  123.7960   59.2890 C   0  0  0  0  0  0  0  0  0  0  0  0
  131.0620  123.9850   60.1620 N   0  0  0  0  0  0  0  0  0  0  0  0
  132.3860  124.0280   59.8960 C   0  0  0  0  0  0  0  0  0  0  0  0
  132.8930  123.9090   58.7800 O   0  0  0  0  0  0  0  0  0  0  0  0
  133.3000  124.2480   61.1080 C   0  0  0  0  0  0  0  0  0  0  0  0
  133.8200  122.9300   61.7210 C   0  0  0  0  0  0  0  0  0  0  0  0
  132.6930  122.1600   62.9210 S   0  0  0  0  0  0  0  0  0  0  0  0
  131.3920  123.3250   63.2640 C   0  0  0  0  0  0  0  0  0  0  0  0
  130.1770  122.9320   62.8050 N   0  0  0  0  0  0  0  0  0  0  0  0
  129.1090  123.7340   63.0240 C   0  0  0  0  0  0  0  0  0  0  0  0
  127.7820  123.2260   62.4930 C   0  0  0  0  0  0  0  0  0  0  0  0
  129.2060  124.9510   63.6960 C   0  0  0  0  0  0  0  0  0  0  0  0
  130.4590  125.3740   64.1550 C   0  0  0  0  0  0  0  0  0  0  0  0
  130.5440  126.7170   64.8780 C   0  0  0  0  0  0  0  0  0  0  0  0
  131.5890  124.5550   63.9340 C   0  0  0  0  0  0  0  0  0  0  0  0
  132.9170  125.0020   64.3600 C   0  0  0  0  0  0  0  0  0  0  0  0
  133.9650  125.3580   64.6960 N   0  0  0  0  0  0  0  0  0  0  0  0
  129.6950  124.5930   58.1690 C   0  0  0  0  0  0  0  0  0  0  0  0
  128.5870  124.3150   57.3730 C   0  0  0  0  0  0  0  0  0  0  0  0
  1  2  1  0
  2  3  1  0
  3  4  1  0
  4  5  2  0
  4  6  1  0
  6  7  2  0
  7  8  1  0
  8  9  2  0
  9 10  1  0
 10 11  1  0
 11 12  2  0
 11 13  1  0
 13 14  1  0
 14 15  1  0
 15 16  1  0
 16 17  2  0
 17 18  1  0
 18 19  1  0
 18 20  2  0
 20 21  1  0
 21 22  1  0
 21 23  2  0
 23 24  1  0
 24 25  3  0
  9 26  1  0
 26 27  2  0
 27  6  1  0
 23 16  1  0
M  END
>  <Binding energies>  (14) 
[-7.63]

>  <Ligand effiencies>  (14) 
[-0.2725]

>  <Interactions>  (14) 
["V-A:ASP:366:CG:3212, V-B:GLU:543:CD:9879, V-B:PRO:540:N:9855, V-B:ALA:541:CB:9863, V-B:PRO:540:CA:9854, V-B:TYR:539:C:9838, V-A:ILE:369:CD1:3238, V-B:TYR:539:CD2:9845, V-B:TYR:539:CE2:9847, H-B:TYR:539:N:9841, V-B:TYR:539:CG:9843, V-B:MET:535:CE:9806, H-B:TYR:539:OH:9849, V-B:TYR:539:CZ:9848, V-B:PRO:540:CB:9856, H-A:GLY:454:N:4049, V-B:TYR:531:CZ:9765, V-B:TYR:531:CE2:9764, V-B:LEU:363:CD1:8159, V-A:GLU:543:CD:4907, H-A:ARG:545:NH1:4926, H-A:ARG:545:NH2:4927, V-B:ASP:366:CB:8182, H-B:TYR:531:OH:9766, V-B:ASP:366:CG:8183, V-B:LEU:363:CA:8155"]

$$$$
1q_Grossjean_2025
     RDKit          3D

 21 21  0  0  0  0  0  0  0  0999 V2000
  134.1900  125.7520   67.1740 C   0  0  0  0  0  0  0  0  0  0  0  0
  134.3880  126.0030   65.7910 O   0  0  0  0  0  0  0  0  0  0  0  0
  133.5820  125.4290   64.8640 C   0  0  0  0  0  0  0  0  0  0  0  0
  133.9500  124.9620   63.7850 O   0  0  0  0  0  0  0  0  0  0  0  0
  132.0870  125.4210   65.2500 C   0  0  0  0  0  0  0  0  0  0  0  0
  131.3330  124.3350   64.6060 N   0  0  0  0  0  0  0  0  0  0  0  0
  130.3160  123.6450   65.1570 C   0  0  0  0  0  0  0  0  0  0  0  0
  129.8960  123.8600   66.2960 O   0  0  0  0  0  0  0  0  0  0  0  0
  129.6800  122.5630   64.2730 C   0  0  0  0  0  0  0  0  0  0  0  0
  128.6940  123.1050   63.2190 C   0  0  0  0  0  0  0  0  0  0  0  0
  128.6750  122.1430   61.6770 S   0  0  0  0  0  0  0  0  0  0  0  0
  130.1660  121.1720   61.5960 C   0  0  0  0  0  0  0  0  0  0  0  0
  129.9360  119.8360   61.5260 N   0  0  0  0  0  0  0  0  0  0  0  0
  130.9940  118.9940   61.4620 C   0  0  0  0  0  0  0  0  0  0  0  0
  130.6580  117.5160   61.4030 C   0  0  0  0  0  0  0  0  0  0  0  0
  132.3130  119.4440   61.4540 C   0  0  0  0  0  0  0  0  0  0  0  0
  132.5610  120.8190   61.5000 C   0  0  0  0  0  0  0  0  0  0  0  0
  134.0160  121.2870   61.4730 C   0  0  0  0  0  0  0  0  0  0  0  0
  131.4730  121.7180   61.5650 C   0  0  0  0  0  0  0  0  0  0  0  0
  131.7130  123.1620   61.5560 C   0  0  0  0  0  0  0  0  0  0  0  0
  131.9070  124.3030   61.5490 N   0  0  0  0  0  0  0  0  0  0  0  0
  1  2  1  0
  2  3  1  0
  3  4  2  0
  3  5  1  0
  5  6  1  0
  6  7  1  0
  7  8  2  0
  7  9  1  0
  9 10  1  0
 10 11  1  0
 11 12  1  0
 12 13  2  0
 13 14  1  0
 14 15  1  0
 14 16  2  0
 16 17  1  0
 17 18  1  0
 17 19  2  0
 19 20  1  0
 20 21  3  0
 19 12  1  0
M  END
>  <Binding energies>  (15) 
[-5.78]

>  <Ligand effiencies>  (15) 
[-0.26272727272727275]

>  <Interactions>  (15) 
["H-B:ALA:541:N:9862, H-A:TYR:484:OH:4347, V-B:ALA:541:CB:9863, V-A:LEU:475:CD2:4258, V-A:PRO:482:CG:4326, V-A:HIS:383:CE1:3393, V-A:ILE:369:CD1:3238, V-A:SER:385:C:3404, V-B:TYR:539:CD2:9845, V-A:ILE:369:CG2:3236, V-A:SER:385:CA:3406, V-A:SER:385:CB:3408, V-A:GLY:454:CA:4048, V-A:PRO:482:CB:4325, H-A:GLY:454:N:4049, V-A:ARG:545:CD:4922, V-A:ARG:545:CZ:4925, V-A:ARG:545:CG:4921, H-A:ARG:545:NH1:4926, H-A:ARG:545:NH2:4927, H-A:ARG:545:NE:4923, V-A:TYR:484:CZ:4346, V-A:TYR:484:CE2:4345"]

$$$$
2a_Grossjean_2025
     RDKit          3D

 29 30  0  0  0  0  0  0  0  0999 V2000
  124.6310  123.9020   59.8470 C   0  0  0  0  0  0  0  0  0  0  0  0
  124.3200  124.1200   58.3640 C   0  0  0  0  0  0  0  0  0  0  0  0
  124.8350  123.0290   57.6100 O   0  0  0  0  0  0  0  0  0  0  0  0
  125.9230  123.1810   56.8110 C   0  0  0  0  0  0  0  0  0  0  0  0
  125.8730  123.1450   55.5780 O   0  0  0  0  0  0  0  0  0  0  0  0
  127.1910  123.4180   57.5800 C   0  0  0  0  0  0  0  0  0  0  0  0
  127.6510  122.5140   58.5490 C   0  0  0  0  0  0  0  0  0  0  0  0
  128.8300  122.7640   59.2450 C   0  0  0  0  0  0  0  0  0  0  0  0
  129.5680  123.9220   58.9950 C   0  0  0  0  0  0  0  0  0  0  0  0
  130.7350  124.0780   59.7660 N   0  0  0  0  0  0  0  0  0  0  0  0
  131.9840  124.4250   59.3900 C   0  0  0  0  0  0  0  0  0  0  0  0
  132.3460  124.6530   58.2350 O   0  0  0  0  0  0  0  0  0  0  0  0
  133.0100  124.5300   60.5230 C   0  0  0  0  0  0  0  0  0  0  0  0
  133.5590  122.9080   61.1520 S   0  0  0  0  0  0  0  0  0  0  0  0
  132.1410  121.8460   61.4030 C   0  0  0  0  0  0  0  0  0  0  0  0
  131.0480  122.4420   61.9440 N   0  0  0  0  0  0  0  0  0  0  0  0
  129.9430  121.6970   62.1730 C   0  0  0  0  0  0  0  0  0  0  0  0
  128.7720  122.4260   62.8050 C   0  0  0  0  0  0  0  0  0  0  0  0
  129.8760  120.3400   61.8670 C   0  0  0  0  0  0  0  0  0  0  0  0
  130.9910  119.7060   61.2980 C   0  0  0  0  0  0  0  0  0  0  0  0
  130.9000  118.2040   60.9650 C   0  0  0  0  0  0  0  0  0  0  0  0
  131.7660  117.5170   61.7100 F   0  0  0  0  0  0  0  0  0  0  0  0
  129.6670  117.7570   61.2090 F   0  0  0  0  0  0  0  0  0  0  0  0
  131.1750  117.9430   59.6840 F   0  0  0  0  0  0  0  0  0  0  0  0
  132.1570  120.4750   61.0570 C   0  0  0  0  0  0  0  0  0  0  0  0
  133.3520  119.8620   60.4670 C   0  0  0  0  0  0  0  0  0  0  0  0
  134.2950  119.3780   60.0020 N   0  0  0  0  0  0  0  0  0  0  0  0
  129.1190  124.8260   58.0220 C   0  0  0  0  0  0  0  0  0  0  0  0
  127.9420  124.5720   57.3230 C   0  0  0  0  0  0  0  0  0  0  0  0
  1  2  1  0
  2  3  1  0
  3  4  1  0
  4  5  2  0
  4  6  1  0
  6  7  2  0
  7  8  1  0
  8  9  2  0
  9 10  1  0
 10 11  1  0
 11 12  2  0
 11 13  1  0
 13 14  1  0
 14 15  1  0
 15 16  2  0
 16 17  1  0
 17 18  1  0
 17 19  2  0
 19 20  1  0
 20 21  1  0
 21 22  1  0
 21 23  1  0
 21 24  1  0
 20 25  2  0
 25 26  1  0
 26 27  3  0
  9 28  1  0
 28 29  2  0
 29  6  1  0
 25 15  1  0
M  END
>  <Binding energies>  (16) 
[-7.69]

>  <Ligand effiencies>  (16) 
[-0.25633333333333336]

>  <Interactions>  (16) 
["V-A:ASP:366:CG:3212, V-A:ASP:366:CB:3211, V-B:PRO:540:N:9855, V-B:ALA:541:CB:9863, V-B:PRO:540:CA:9854, V-B:ALA:541:CA:9861, V-B:TYR:539:C:9838, V-A:LEU:475:CD2:4258, V-A:PRO:482:CG:4326, V-A:HIS:383:CE1:3393, V-A:ILE:369:CD1:3238, V-B:TYR:539:CD2:9845, V-A:ILE:369:CG2:3236, V-B:TYR:539:CE2:9847, V-B:TYR:539:CB:9842, V-A:SER:385:CA:3406, V-A:SER:385:CB:3408, V-B:TYR:539:CG:9843, V-B:MET:535:CE:9806, H-B:TYR:539:OH:9849, V-B:TYR:539:CZ:9848, V-A:PRO:482:CB:4325, V-B:PRO:540:CB:9856, V-B:LEU:363:CD1:8159, H-B:TYR:531:OH:9766"]

$$$$
2b_Grossjean_2025
     RDKit          3D

 28 29  0  0  0  0  0  0  0  0999 V2000
  124.6570  123.9670   58.0730 C   0  0  0  0  0  0  0  0  0  0  0  0
  125.6500  124.0000   57.0570 O   0  0  0  0  0  0  0  0  0  0  0  0
  126.6060  123.0390   56.9820 C   0  0  0  0  0  0  0  0  0  0  0  0
  126.4770  122.0000   56.3280 O   0  0  0  0  0  0  0  0  0  0  0  0
  127.8370  123.3650   57.7790 C   0  0  0  0  0  0  0  0  0  0  0  0
  128.2290  122.5960   58.8850 C   0  0  0  0  0  0  0  0  0  0  0  0
  129.3750  122.9260   59.6030 C   0  0  0  0  0  0  0  0  0  0  0  0
  130.1530  124.0220   59.2310 C   0  0  0  0  0  0  0  0  0  0  0  0
  131.2860  124.2690   60.0290 N   0  0  0  0  0  0  0  0  0  0  0  0
  132.5960  124.2260   59.7040 C   0  0  0  0  0  0  0  0  0  0  0  0
  133.0460  123.9210   58.5980 O   0  0  0  0  0  0  0  0  0  0  0  0
  133.5620  124.5740   60.8400 C   0  0  0  0  0  0  0  0  0  0  0  0
  133.0620  123.8740   62.4470 S   0  0  0  0  0  0  0  0  0  0  0  0
  131.8370  122.5950   62.2010 C   0  0  0  0  0  0  0  0  0  0  0  0
  130.5610  122.9320   62.5170 N   0  0  0  0  0  0  0  0  0  0  0  0
  129.5840  122.0120   62.3610 C   0  0  0  0  0  0  0  0  0  0  0  0
  128.1890  122.4630   62.7480 C   0  0  0  0  0  0  0  0  0  0  0  0
  129.8300  120.7300   61.8780 C   0  0  0  0  0  0  0  0  0  0  0  0
  131.1400  120.3610   61.5380 C   0  0  0  0  0  0  0  0  0  0  0  0
  131.3950  118.9400   61.0010 C   0  0  0  0  0  0  0  0  0  0  0  0
  132.0670  119.0000   59.8510 F   0  0  0  0  0  0  0  0  0  0  0  0
  132.1090  118.2380   61.8830 F   0  0  0  0  0  0  0  0  0  0  0  0
  130.2670  118.2640   60.7720 F   0  0  0  0  0  0  0  0  0  0  0  0
  132.1770  121.3150   61.7030 C   0  0  0  0  0  0  0  0  0  0  0  0
  133.5650  120.9820   61.3700 C   0  0  0  0  0  0  0  0  0  0  0  0
  134.6610  120.7190   61.1050 N   0  0  0  0  0  0  0  0  0  0  0  0
  129.7640  124.8000   58.1310 C   0  0  0  0  0  0  0  0  0  0  0  0
  128.6170  124.4700   57.4140 C   0  0  0  0  0  0  0  0  0  0  0  0
  1  2  1  0
  2  3  1  0
  3  4  2  0
  3  5  1  0
  5  6  2  0
  6  7  1  0
  7  8  2  0
  8  9  1  0
  9 10  1  0
 10 11  2  0
 10 12  1  0
 12 13  1  0
 13 14  1  0
 14 15  2  0
 15 16  1  0
 16 17  1  0
 16 18  2  0
 18 19  1  0
 19 20  1  0
 20 21  1  0
 20 22  1  0
 20 23  1  0
 19 24  2  0
 24 25  1  0
 25 26  3  0
  8 27  1  0
 27 28  2  0
 28  5  1  0
 24 14  1  0
M  END
>  <Binding energies>  (17) 
[-6.76]

>  <Ligand effiencies>  (17) 
[-0.23310344827586207]

>  <Interactions>  (17) 
["V-A:ASP:366:CG:3212, V-A:ASP:366:CB:3211, V-B:PRO:540:N:9855, V-B:ALA:541:CB:9863, V-B:PRO:540:CA:9854, V-B:ALA:541:CA:9861, V-B:TYR:539:C:9838, V-A:LEU:475:CD2:4258, V-A:ILE:369:CD1:3238, V-B:TYR:539:CD2:9845, V-A:ILE:369:CG2:3236, V-B:TYR:539:CE2:9847, V-B:TYR:539:CB:9842, V-A:SER:385:CA:3406, V-A:SER:385:CB:3408, H-B:TYR:539:N:9841, V-B:TYR:539:CG:9843, V-B:MET:535:CE:9806, H-B:TYR:539:OH:9849, V-B:TYR:539:CZ:9848, V-B:PRO:540:CB:9856, V-B:LEU:363:CD1:8159, H-B:TYR:531:OH:9766"]

$$$$
2c_Grossjean_2025
     RDKit          3D

 26 27  0  0  0  0  0  0  0  0999 V2000
  124.9670  122.1880   55.6100 C   0  0  0  0  0  0  0  0  0  0  0  0
  126.0440  123.1000   55.7990 O   0  0  0  0  0  0  0  0  0  0  0  0
  126.6850  123.1410   57.0220 C   0  0  0  0  0  0  0  0  0  0  0  0
  125.9580  123.6690   58.0880 C   0  0  0  0  0  0  0  0  0  0  0  0
  126.5200  123.7530   59.3600 C   0  0  0  0  0  0  0  0  0  0  0  0
  127.8340  123.3140   59.5750 C   0  0  0  0  0  0  0  0  0  0  0  0
  128.4790  123.3420   60.8250 N   0  0  0  0  0  0  0  0  0  0  0  0
  127.9380  123.2110   62.0550 C   0  0  0  0  0  0  0  0  0  0  0  0
  126.7320  123.0940   62.2820 O   0  0  0  0  0  0  0  0  0  0  0  0
  128.9460  123.2560   63.2130 C   0  0  0  0  0  0  0  0  0  0  0  0
  129.8810  121.7120   63.5020 S   0  0  0  0  0  0  0  0  0  0  0  0
  131.1780  121.5650   62.2800 C   0  0  0  0  0  0  0  0  0  0  0  0
  131.8970  122.6940   62.0470 N   0  0  0  0  0  0  0  0  0  0  0  0
  132.8870  122.6600   61.1290 C   0  0  0  0  0  0  0  0  0  0  0  0
  133.6310  123.9640   60.9150 C   0  0  0  0  0  0  0  0  0  0  0  0
  133.2100  121.5080   60.4150 C   0  0  0  0  0  0  0  0  0  0  0  0
  132.4870  120.3290   60.6450 C   0  0  0  0  0  0  0  0  0  0  0  0
  132.8580  119.0630   59.8480 C   0  0  0  0  0  0  0  0  0  0  0  0
  133.5480  119.3960   58.7570 F   0  0  0  0  0  0  0  0  0  0  0  0
  133.6010  118.2500   60.6000 F   0  0  0  0  0  0  0  0  0  0  0  0
  131.7860  118.3730   59.4500 F   0  0  0  0  0  0  0  0  0  0  0  0
  131.4410  120.3520   61.6010 C   0  0  0  0  0  0  0  0  0  0  0  0
  130.6500  119.1490   61.8810 C   0  0  0  0  0  0  0  0  0  0  0  0
  130.0260  118.1990   62.1000 N   0  0  0  0  0  0  0  0  0  0  0  0
  128.5600  122.7700   58.5140 C   0  0  0  0  0  0  0  0  0  0  0  0
  127.9950  122.6870   57.2450 C   0  0  0  0  0  0  0  0  0  0  0  0
  1  2  1  0
  2  3  1  0
  3  4  2  0
  4  5  1  0
  5  6  2  0
  6  7  1  0
  7  8  1  0
  8  9  2  0
  8 10  1  0
 10 11  1  0
 11 12  1  0
 12 13  2  0
 13 14  1  0
 14 15  1  0
 14 16  2  0
 16 17  1  0
 17 18  1  0
 18 19  1  0
 18 20  1  0
 18 21  1  0
 17 22  2  0
 22 23  1  0
 23 24  3  0
  6 25  1  0
 25 26  2  0
 26  3  1  0
 22 12  1  0
M  END
>  <Binding energies>  (18) 
[-6.97]

>  <Ligand effiencies>  (18) 
[-0.2581481481481481]

>  <Interactions>  (18) 
["V-A:ASP:366:CG:3212, V-B:PRO:540:N:9855, H-B:ALA:541:N:9862, V-B:ALA:541:CB:9863, V-B:PRO:540:CA:9854, V-B:TYR:539:C:9838, V-A:LEU:475:CD2:4258, V-A:ILE:369:CD1:3238, V-B:TYR:539:CD2:9845, V-A:ILE:369:CG2:3236, V-B:TYR:539:CE2:9847, V-B:TYR:539:CB:9842, V-A:SER:385:CA:3406, V-A:SER:385:CB:3408, V-B:TYR:539:CG:9843, V-B:MET:535:CE:9806, V-B:TYR:539:CZ:9848, V-B:PRO:540:CB:9856, V-B:TYR:539:CD1:9844, V-B:PRO:540:CD:9858, V-B:TYR:531:CE2:9764, V-B:LEU:363:CD1:8159, V-B:ILE:538:CD1:9836, V-B:ILE:538:CG2:9834, V-B:ILE:538:CA:9831, V-B:TYR:539:CE1:9846, V-B:ILE:538:CB:9833, V-A:LEU:373:CG:3278, V-A:LEU:373:CD2:3280, H-B:TYR:531:OH:9766, V-A:VAL:384:C:3396"]

$$$$
2d_Ghoteimi_2023
     RDKit          3D

 38 42  0  0  0  0  0  0  0  0999 V2000
  135.4590  124.1480   76.8600 C   0  0  0  0  0  0  0  0  0  0  0  0
  134.1380  124.6670   76.8370 O   0  0  0  0  0  0  0  0  0  0  0  0
  133.8520  125.7800   76.1300 C   0  0  0  0  0  0  0  0  0  0  0  0
  134.6350  126.3790   75.3880 O   0  0  0  0  0  0  0  0  0  0  0  0
  132.3990  126.2250   76.3550 C   0  0  0  0  0  0  0  0  0  0  0  0
  131.8510  127.3780   75.0500 S   0  0  0  0  0  0  0  0  0  0  0  0
  130.6030  126.5660   74.0720 C   0  0  0  0  0  0  0  0  0  0  0  0
  130.3670  125.2890   74.4600 N   0  0  0  0  0  0  0  0  0  0  0  0
  129.4440  124.5470   73.7970 C   0  0  0  0  0  0  0  0  0  0  0  0
  129.2510  123.1420   74.2700 C   0  0  0  0  0  0  0  0  0  0  0  0
  130.3250  122.4120   74.7920 C   0  0  0  0  0  0  0  0  0  0  0  0
  130.1520  121.1030   75.2340 C   0  0  0  0  0  0  0  0  0  0  0  0
  128.8960  120.4800   75.1790 C   0  0  0  0  0  0  0  0  0  0  0  0
  128.7090  119.1590   75.6030 N   0  0  0  0  0  0  0  0  0  0  0  0
  128.9060  118.7650   77.0110 C   0  0  0  0  0  0  0  0  0  0  0  0
  129.0230  117.2400   77.2160 C   0  0  0  0  0  0  0  0  0  0  0  0
  127.8900  116.5890   76.6620 O   0  0  0  0  0  0  0  0  0  0  0  0
  127.7770  116.8320   75.2700 C   0  0  0  0  0  0  0  0  0  0  0  0
  127.6290  118.3460   75.0060 C   0  0  0  0  0  0  0  0  0  0  0  0
  127.8260  121.2100   74.6430 C   0  0  0  0  0  0  0  0  0  0  0  0
  127.9990  122.5180   74.1990 C   0  0  0  0  0  0  0  0  0  0  0  0
  128.7270  125.0800   72.7230 C   0  0  0  0  0  0  0  0  0  0  0  0
  128.9280  126.4070   72.3240 C   0  0  0  0  0  0  0  0  0  0  0  0
  128.1060  126.9170   71.1860 C   0  0  0  0  0  0  0  0  0  0  0  0
  128.7170  127.5870   70.1240 C   0  0  0  0  0  0  0  0  0  0  0  0
  127.9620  128.0550   69.0520 C   0  0  0  0  0  0  0  0  0  0  0  0
  126.5700  127.8700   69.0150 C   0  0  0  0  0  0  0  0  0  0  0  0
  125.7940  128.3210   67.9430 N   0  0  0  0  0  0  0  0  0  0  0  0
  126.4130  128.7750   66.6830 C   0  0  0  0  0  0  0  0  0  0  0  0
  125.4130  128.8880   65.5120 C   0  0  0  0  0  0  0  0  0  0  0  0
  124.3300  129.7300   65.8780 O   0  0  0  0  0  0  0  0  0  0  0  0
  123.6330  129.2260   67.0070 C   0  0  0  0  0  0  0  0  0  0  0  0
  124.5870  129.1250   68.2160 C   0  0  0  0  0  0  0  0  0  0  0  0
  125.9680  127.1810   70.0770 C   0  0  0  0  0  0  0  0  0  0  0  0
  126.7240  126.7120   71.1470 C   0  0  0  0  0  0  0  0  0  0  0  0
  129.8900  127.1820   73.0190 C   0  0  0  0  0  0  0  0  0  0  0  0
  130.1220  128.5820   72.6510 C   0  0  0  0  0  0  0  0  0  0  0  0
  130.3020  129.6880   72.3580 N   0  0  0  0  0  0  0  0  0  0  0  0
  1  2  1  0
  2  3  1  0
  3  4  2  0
  3  5  1  0
  5  6  1  0
  6  7  1  0
  7  8  2  0
  8  9  1  0
  9 10  1  0
 10 11  2  0
 11 12  1  0
 12 13  2  0
 13 14  1  0
 14 15  1  0
 15 16  1  0
 16 17  1  0
 17 18  1  0
 18 19  1  0
 13 20  1  0
 20 21  2  0
  9 22  2  0
 22 23  1  0
 23 24  1  0
 24 25  2  0
 25 26  1  0
 26 27  2  0
 27 28  1  0
 28 29  1  0
 29 30  1  0
 30 31  1  0
 31 32  1  0
 32 33  1  0
 27 34  1  0
 34 35  2  0
 23 36  2  0
 36 37  1  0
 37 38  3  0
 36  7  1  0
 21 10  1  0
 35 24  1  0
 19 14  1  0
 33 28  1  0
M  END
>  <Binding energies>  (19) 
[-8.8]

>  <Ligand effiencies>  (19) 
[-0.23157894736842108]

>  <Interactions>  (19) 
["V-B:GLU:543:CD:9879, V-A:HIS:456:CE1:4069, V-B:GLU:543:CB:9877, V-B:HIS:456:CE1:9040, V-B:LYS:547:CE:9921, V-B:TYR:484:CZ:9317, H-B:LYS:547:NZ:9922, V-B:ARG:545:CD:9894, V-B:GLU:543:C:9873, V-B:ARG:545:CG:9893, V-B:GLY:544:CA:9885, V-A:ASP:473:CG:4239, V-A:TYR:484:CB:4340, H-B:TYR:484:OH:9318, V-B:GLY:544:C:9883, V-B:ARG:545:CZ:9897, V-A:HIS:456:CB:4064, V-A:HIS:456:C:4060, V-A:VAL:457:CA:4074, V-A:HIS:456:CG:4065, V-A:VAL:458:CG2:4086, H-A:LYS:471:NZ:4220, V-A:LYS:471:CD:4218, V-B:ARG:545:CA:9890, H-B:GLY:454:N:9020, V-A:LYS:471:CE:4219, V-A:LYS:471:CG:4217, V-A:ASP:485:CG:4355, H-A:VAL:457:N:4075, V-A:LYS:471:CB:4216, V-A:LYS:471:C:4212"]

$$$$
2d_Grossjean_2025
     RDKit          3D

 24 25  0  0  0  0  0  0  0  0999 V2000
  124.0180  123.2060   63.0170 C   0  0  0  0  0  0  0  0  0  0  0  0
  124.9690  123.4390   61.8590 C   0  0  0  0  0  0  0  0  0  0  0  0
  124.5070  123.5690   60.5510 C   0  0  0  0  0  0  0  0  0  0  0  0
  125.4260  123.7880   59.5140 C   0  0  0  0  0  0  0  0  0  0  0  0
  124.8960  123.9400   58.0750 C   0  0  0  0  0  0  0  0  0  0  0  0
  123.5630  123.9010   58.0730 F   0  0  0  0  0  0  0  0  0  0  0  0
  125.2950  125.1040   57.5600 F   0  0  0  0  0  0  0  0  0  0  0  0
  125.3270  122.9740   57.2610 F   0  0  0  0  0  0  0  0  0  0  0  0
  126.8050  123.8640   59.8350 C   0  0  0  0  0  0  0  0  0  0  0  0
  127.8010  124.1380   58.7950 C   0  0  0  0  0  0  0  0  0  0  0  0
  128.5860  124.3560   57.9730 N   0  0  0  0  0  0  0  0  0  0  0  0
  127.1840  123.6950   61.1880 C   0  0  0  0  0  0  0  0  0  0  0  0
  128.8720  123.7290   61.7610 S   0  0  0  0  0  0  0  0  0  0  0  0
  129.1000  122.4020   62.9900 C   0  0  0  0  0  0  0  0  0  0  0  0
  130.2340  121.4380   62.6270 C   0  0  0  0  0  0  0  0  0  0  0  0
  131.3490  121.6130   63.1210 O   0  0  0  0  0  0  0  0  0  0  0  0
  129.9150  120.4660   61.7470 N   0  0  0  0  0  0  0  0  0  0  0  0
  130.7240  119.4380   61.2270 C   0  0  0  0  0  0  0  0  0  0  0  0
  131.9810  119.8260   60.7590 C   0  0  0  0  0  0  0  0  0  0  0  0
  132.8520  118.8830   60.2190 C   0  0  0  0  0  0  0  0  0  0  0  0
  132.4590  117.5480   60.1400 C   0  0  0  0  0  0  0  0  0  0  0  0
  131.2030  117.1520   60.5910 C   0  0  0  0  0  0  0  0  0  0  0  0
  130.3310  118.0920   61.1310 C   0  0  0  0  0  0  0  0  0  0  0  0
  126.2810  123.5050   62.1800 N   0  0  0  0  0  0  0  0  0  0  0  0
  1  2  1  0
  2  3  2  0
  3  4  1  0
  4  5  1  0
  5  6  1  0
  5  7  1  0
  5  8  1  0
  4  9  2  0
  9 10  1  0
 10 11  3  0
  9 12  1  0
 12 13  1  0
 13 14  1  0
 14 15  1  0
 15 16  2  0
 15 17  1  0
 17 18  1  0
 18 19  2  0
 19 20  1  0
 20 21  2  0
 21 22  1  0
 22 23  2  0
 12 24  2  0
 24  2  1  0
 23 18  1  0
M  END
>  <Binding energies>  (20) 
[-7.08]

>  <Ligand effiencies>  (20) 
[-0.2832]

>  <Interactions>  (20) 
["V-B:PRO:540:N:9855, H-B:ALA:541:N:9862, V-B:ALA:541:CB:9863, V-B:PRO:540:CA:9854, V-B:ALA:541:CA:9861, V-B:TYR:539:C:9838, V-A:LEU:475:CD2:4258, V-A:PRO:482:CG:4326, V-A:HIS:383:CE1:3393, H-B:TYR:539:O:9839, V-B:TYR:539:CD2:9845, V-B:TYR:539:CE2:9847, V-A:SER:385:CA:3406, V-A:PRO:482:CB:4325, V-B:ALA:541:C:9859, V-B:PRO:540:CB:9856, V-B:ASN:362:CB:8146, V-B:TYR:531:CZ:9765, V-B:PRO:540:CD:9858, V-B:TYR:531:CE2:9764, V-B:LEU:363:CD1:8159, V-B:LEU:363:CA:8155, V-B:ARG:545:CZ:9897, V-B:ASN:362:CG:8147, V-B:LEU:363:CB:8157, V-B:LEU:363:CG:8158"]

$$$$
2e_Grossjean_2025
     RDKit          3D

 25 26  0  0  0  0  0  0  0  0999 V2000
  123.7130  124.3420   57.7800 C   0  0  0  0  0  0  0  0  0  0  0  0
  125.0610  123.6510   57.6930 C   0  0  0  0  0  0  0  0  0  0  0  0
  125.4650  122.9770   56.5380 C   0  0  0  0  0  0  0  0  0  0  0  0
  126.7240  122.3750   56.5270 C   0  0  0  0  0  0  0  0  0  0  0  0
  127.5390  122.4580   57.6590 C   0  0  0  0  0  0  0  0  0  0  0  0
  127.0680  123.1400   58.7860 C   0  0  0  0  0  0  0  0  0  0  0  0
  127.9450  123.2300   59.8800 N   0  0  0  0  0  0  0  0  0  0  0  0
  127.6400  123.2140   61.1970 C   0  0  0  0  0  0  0  0  0  0  0  0
  126.5110  123.0390   61.6580 O   0  0  0  0  0  0  0  0  0  0  0  0
  128.8060  123.4810   62.1550 C   0  0  0  0  0  0  0  0  0  0  0  0
  129.4880  121.9400   62.8470 S   0  0  0  0  0  0  0  0  0  0  0  0
  130.9650  121.6120   61.9100 C   0  0  0  0  0  0  0  0  0  0  0  0
  131.7230  122.7060   61.6470 N   0  0  0  0  0  0  0  0  0  0  0  0
  132.8400  122.5520   60.9020 C   0  0  0  0  0  0  0  0  0  0  0  0
  133.6400  123.8150   60.6470 C   0  0  0  0  0  0  0  0  0  0  0  0
  133.2400  121.3190   60.3890 C   0  0  0  0  0  0  0  0  0  0  0  0
  132.4620  120.1800   60.6440 C   0  0  0  0  0  0  0  0  0  0  0  0
  132.9050  118.8290   60.0520 C   0  0  0  0  0  0  0  0  0  0  0  0
  133.9590  119.0020   59.2540 F   0  0  0  0  0  0  0  0  0  0  0  0
  133.2380  117.9900   61.0330 F   0  0  0  0  0  0  0  0  0  0  0  0
  131.9470  118.2440   59.3300 F   0  0  0  0  0  0  0  0  0  0  0  0
  131.2900  120.3230   61.4280 C   0  0  0  0  0  0  0  0  0  0  0  0
  130.4190  119.1770   61.7050 C   0  0  0  0  0  0  0  0  0  0  0  0
  129.7320  118.2720   61.9230 N   0  0  0  0  0  0  0  0  0  0  0  0
  125.8410  123.7390   58.8010 N   0  0  0  0  0  0  0  0  0  0  0  0
  1  2  1  0
  2  3  2  0
  3  4  1  0
  4  5  2  0
  5  6  1  0
  6  7  1  0
  7  8  1  0
  8  9  2  0
  8 10  1  0
 10 11  1  0
 11 12  1  0
 12 13  2  0
 13 14  1  0
 14 15  1  0
 14 16  2  0
 16 17  1  0
 17 18  1  0
 18 19  1  0
 18 20  1  0
 18 21  1  0
 17 22  2  0
 22 23  1  0
 23 24  3  0
  6 25  2  0
 25  2  1  0
 22 12  1  0
M  END
>  <Binding energies>  (21) 
[-7.23]

>  <Ligand effiencies>  (21) 
[-0.2780769230769231]

>  <Interactions>  (21) 
["V-A:ASP:366:CG:3212, V-B:PRO:540:N:9855, H-B:ALA:541:N:9862, V-B:ALA:541:CB:9863, V-B:PRO:540:CA:9854, V-B:TYR:539:C:9838, V-A:LEU:475:CD2:4258, V-A:ILE:369:CD1:3238, V-B:TYR:539:CD2:9845, V-A:ILE:369:CG2:3236, V-B:TYR:539:CE2:9847, V-B:TYR:539:CB:9842, V-A:SER:385:CA:3406, V-A:SER:385:CB:3408, V-B:TYR:539:CG:9843, V-B:MET:535:CE:9806, V-B:PRO:540:CB:9856, V-B:TYR:539:CA:9840, V-B:TYR:531:CZ:9765, V-B:PRO:540:CD:9858, V-B:TYR:531:CE2:9764, V-B:LEU:363:CD1:8159, V-B:ASP:366:CB:8182, V-A:LEU:373:CG:3278, V-A:LEU:373:CD2:3280, V-A:VAL:384:C:3396, V-B:LEU:363:CA:8155"]

$$$$
2f_Grossjean_2025
     RDKit          3D

 24 25  0  0  0  0  0  0  0  0999 V2000
  133.3930  123.8980   60.4430 C   0  0  0  0  0  0  0  0  0  0  0  0
  132.6350  122.6110   60.7120 C   0  0  0  0  0  0  0  0  0  0  0  0
  133.1790  121.3660   60.4050 C   0  0  0  0  0  0  0  0  0  0  0  0
  132.4350  120.2050   60.6650 C   0  0  0  0  0  0  0  0  0  0  0  0
  133.0490  118.8380   60.3070 C   0  0  0  0  0  0  0  0  0  0  0  0
  132.3590  118.2710   59.3150 F   0  0  0  0  0  0  0  0  0  0  0  0
  134.3140  118.9960   59.9170 F   0  0  0  0  0  0  0  0  0  0  0  0
  133.0470  117.9850   61.3330 F   0  0  0  0  0  0  0  0  0  0  0  0
  131.1470  120.3400   61.2450 C   0  0  0  0  0  0  0  0  0  0  0  0
  130.3100  119.1620   61.4830 C   0  0  0  0  0  0  0  0  0  0  0  0
  129.6490  118.2300   61.6720 N   0  0  0  0  0  0  0  0  0  0  0  0
  130.6870  121.6440   61.5480 C   0  0  0  0  0  0  0  0  0  0  0  0
  129.1050  121.9990   62.2860 S   0  0  0  0  0  0  0  0  0  0  0  0
  128.3740  123.4190   61.4030 C   0  0  0  0  0  0  0  0  0  0  0  0
  128.2880  123.2640   59.8780 C   0  0  0  0  0  0  0  0  0  0  0  0
  129.2980  123.3590   59.1780 O   0  0  0  0  0  0  0  0  0  0  0  0
  127.0420  123.0410   59.4070 N   0  0  0  0  0  0  0  0  0  0  0  0
  126.6080  122.8440   58.0820 C   0  0  0  0  0  0  0  0  0  0  0  0
  125.3300  123.1630   57.5860 C   0  0  0  0  0  0  0  0  0  0  0  0
  125.0290  122.9200   56.2450 C   0  0  0  0  0  0  0  0  0  0  0  0
  126.0170  122.3670   55.4290 C   0  0  0  0  0  0  0  0  0  0  0  0
  127.2580  122.0580   55.8810 N   0  0  0  0  0  0  0  0  0  0  0  0
  127.5360  122.3010   57.1870 C   0  0  0  0  0  0  0  0  0  0  0  0
  131.4110  122.7550   61.2680 N   0  0  0  0  0  0  0  0  0  0  0  0
  1  2  1  0
  2  3  2  0
  3  4  1  0
  4  5  1  0
  5  6  1  0
  5  7  1  0
  5  8  1  0
  4  9  2  0
  9 10  1  0
 10 11  3  0
  9 12  1  0
 12 13  1  0
 13 14  1  0
 14 15  1  0
 15 16  2  0
 15 17  1  0
 17 18  1  0
 18 19  2  0
 19 20  1  0
 20 21  2  0
 21 22  1  0
 22 23  2  0
 12 24  2  0
 24  2  1  0
 23 18  1  0
M  END
>  <Binding energies>  (22) 
[-7.12]

>  <Ligand effiencies>  (22) 
[-0.2848]

>  <Interactions>  (22) 
["V-A:ASP:366:CG:3212, V-B:PRO:540:N:9855, H-B:ALA:541:N:9862, V-B:ALA:541:CB:9863, V-B:PRO:540:CA:9854, V-B:TYR:539:C:9838, V-A:LEU:475:CD2:4258, V-A:ILE:369:CD1:3238, V-A:SER:385:C:3404, V-B:TYR:539:CD2:9845, V-A:ILE:369:CG2:3236, V-B:TYR:539:CE2:9847, V-B:TYR:539:CB:9842, V-A:SER:385:CA:3406, V-A:SER:385:CB:3408, H-B:TYR:539:N:9841, V-B:TYR:539:CG:9843, V-B:MET:535:CE:9806, V-B:PRO:540:CB:9856, V-B:TYR:539:CA:9840, V-B:TYR:539:CD1:9844, V-B:TYR:531:CZ:9765, V-B:PRO:540:CD:9858, V-B:TYR:531:CE2:9764, V-B:LEU:363:CD1:8159, V-B:ILE:538:CD1:9836, V-B:ILE:538:CG2:9834, V-B:ILE:538:CA:9831, V-B:TYR:539:CE1:9846, V-B:ILE:538:C:9829, V-A:LEU:373:CD2:3280, V-B:MET:535:CG:9804, V-A:VAL:384:C:3396"]

$$$$
2g_Grossjean_2025
     RDKit          3D

 25 26  0  0  0  0  0  0  0  0999 V2000
  123.9900  123.6560   62.2510 C   0  0  0  0  0  0  0  0  0  0  0  0
  125.3930  123.5000   61.6960 C   0  0  0  0  0  0  0  0  0  0  0  0
  125.6680  123.6920   60.3440 C   0  0  0  0  0  0  0  0  0  0  0  0
  126.9810  123.5280   59.8770 C   0  0  0  0  0  0  0  0  0  0  0  0
  127.2650  123.7350   58.3770 C   0  0  0  0  0  0  0  0  0  0  0  0
  128.1280  124.7380   58.2040 F   0  0  0  0  0  0  0  0  0  0  0  0
  127.7850  122.6230   57.8570 F   0  0  0  0  0  0  0  0  0  0  0  0
  126.1660  124.0310   57.6800 F   0  0  0  0  0  0  0  0  0  0  0  0
  127.9930  123.1780   60.8080 C   0  0  0  0  0  0  0  0  0  0  0  0
  129.3690  122.9390   60.3630 C   0  0  0  0  0  0  0  0  0  0  0  0
  130.4550  122.7510   60.0120 N   0  0  0  0  0  0  0  0  0  0  0  0
  127.6260  123.0330   62.1680 C   0  0  0  0  0  0  0  0  0  0  0  0
  128.7700  122.6230   63.4670 S   0  0  0  0  0  0  0  0  0  0  0  0
  130.2770  123.6190   63.2050 C   0  0  0  0  0  0  0  0  0  0  0  0
  131.5780  122.8070   63.1290 C   0  0  0  0  0  0  0  0  0  0  0  0
  132.5650  123.1120   63.8010 O   0  0  0  0  0  0  0  0  0  0  0  0
  131.5580  121.7620   62.2830 N   0  0  0  0  0  0  0  0  0  0  0  0
  132.6690  120.8390   62.0460 C   0  0  0  0  0  0  0  0  0  0  0  0
  132.3360  119.6800   61.1120 C   0  0  0  0  0  0  0  0  0  0  0  0
  133.1900  119.3770   60.0470 C   0  0  0  0  0  0  0  0  0  0  0  0
  132.9070  118.2950   59.2160 C   0  0  0  0  0  0  0  0  0  0  0  0
  131.7800  117.5150   59.4580 C   0  0  0  0  0  0  0  0  0  0  0  0
  130.9320  117.8040   60.5260 C   0  0  0  0  0  0  0  0  0  0  0  0
  131.2140  118.8850   61.3570 C   0  0  0  0  0  0  0  0  0  0  0  0
  126.3470  123.1730   62.5970 N   0  0  0  0  0  0  0  0  0  0  0  0
  1  2  1  0
  2  3  2  0
  3  4  1  0
  4  5  1  0
  5  6  1  0
  5  7  1  0
  5  8  1  0
  4  9  2  0
  9 10  1  0
 10 11  3  0
  9 12  1  0
 12 13  1  0
 13 14  1  0
 14 15  1  0
 15 16  2  0
 15 17  1  0
 17 18  1  0
 18 19  1  0
 19 20  2  0
 20 21  1  0
 21 22  2  0
 22 23  1  0
 23 24  2  0
 12 25  2  0
 25  2  1  0
 24 19  1  0
M  END
>  <Binding energies>  (23) 
[-6.77]

>  <Ligand effiencies>  (23) 
[-0.2603846153846154]

>  <Interactions>  (23) 
["V-B:PRO:540:N:9855, H-B:ALA:541:N:9862, H-A:TYR:484:OH:4347, V-B:ALA:541:CB:9863, V-B:PRO:540:CA:9854, V-B:PRO:540:C:9852, V-B:TYR:539:C:9838, V-A:LEU:475:CD2:4258, V-A:HIS:383:CE1:3393, V-B:TYR:539:CD2:9845, V-A:ILE:369:CG2:3236, V-B:TYR:539:CE2:9847, V-B:TYR:539:CB:9842, V-A:SER:385:CA:3406, V-B:TYR:539:CG:9843, V-B:PRO:540:CB:9856, V-B:ASN:362:CB:8146, V-A:LEU:373:CG:3278, V-A:LEU:373:CD2:3280, V-B:ARG:545:CZ:9897"]

$$$$
2h_Grossjean_2025
     RDKit          3D

 31 32  0  0  0  0  0  0  0  0999 V2000
  125.8450  122.5980   55.8670 C   0  0  0  0  0  0  0  0  0  0  0  0
  126.4310  123.6510   56.6240 O   0  0  0  0  0  0  0  0  0  0  0  0
  127.0020  123.3680   57.8520 C   0  0  0  0  0  0  0  0  0  0  0  0
  128.3540  123.0340   58.0300 C   0  0  0  0  0  0  0  0  0  0  0  0
  128.8600  122.7700   59.3000 C   0  0  0  0  0  0  0  0  0  0  0  0
  128.0290  122.8330   60.4200 C   0  0  0  0  0  0  0  0  0  0  0  0
  128.6100  122.5590   61.8060 C   0  0  0  0  0  0  0  0  0  0  0  0
  130.0630  122.7210   61.8760 N   0  0  0  0  0  0  0  0  0  0  0  0
  130.9590  121.8760   61.3360 C   0  0  0  0  0  0  0  0  0  0  0  0
  130.6450  120.8180   60.7870 O   0  0  0  0  0  0  0  0  0  0  0  0
  132.4270  122.3160   61.4330 C   0  0  0  0  0  0  0  0  0  0  0  0
  132.6780  124.0800   61.8240 S   0  0  0  0  0  0  0  0  0  0  0  0
  131.5060  124.9960   60.8470 C   0  0  0  0  0  0  0  0  0  0  0  0
  130.4910  125.5280   61.5700 N   0  0  0  0  0  0  0  0  0  0  0  0
  129.5330  126.2290   60.9230 C   0  0  0  0  0  0  0  0  0  0  0  0
  128.4240  126.7890   61.7940 C   0  0  0  0  0  0  0  0  0  0  0  0
  129.5490  126.4310   59.5440 C   0  0  0  0  0  0  0  0  0  0  0  0
  130.6030  125.9040   58.7820 C   0  0  0  0  0  0  0  0  0  0  0  0
  130.6090  126.1450   57.2600 C   0  0  0  0  0  0  0  0  0  0  0  0
  129.7550  127.1220   56.9510 F   0  0  0  0  0  0  0  0  0  0  0  0
  131.8100  126.5030   56.7990 F   0  0  0  0  0  0  0  0  0  0  0  0
  130.2470  125.0340   56.6180 F   0  0  0  0  0  0  0  0  0  0  0  0
  131.6210  125.1730   59.4470 C   0  0  0  0  0  0  0  0  0  0  0  0
  132.7730  124.6540   58.7050 C   0  0  0  0  0  0  0  0  0  0  0  0
  133.6830  124.2470   58.1180 N   0  0  0  0  0  0  0  0  0  0  0  0
  126.6700  123.1420   60.2560 C   0  0  0  0  0  0  0  0  0  0  0  0
  125.8450  123.2030   61.3530 O   0  0  0  0  0  0  0  0  0  0  0  0
  125.7020  124.5040   61.9090 C   0  0  0  0  0  0  0  0  0  0  0  0
  126.1660  123.4270   58.9750 C   0  0  0  0  0  0  0  0  0  0  0  0
  124.8400  123.7490   58.8120 O   0  0  0  0  0  0  0  0  0  0  0  0
  124.6110  125.1020   58.4430 C   0  0  0  0  0  0  0  0  0  0  0  0
  1  2  1  0
  2  3  1  0
  3  4  2  0
  4  5  1  0
  5  6  2  0
  6  7  1  0
  7  8  1  0
  8  9  1  0
  9 10  2  0
  9 11  1  0
 11 12  1  0
 12 13  1  0
 13 14  2  0
 14 15  1  0
 15 16  1  0
 15 17  2  0
 17 18  1  0
 18 19  1  0
 19 20  1  0
 19 21  1  0
 19 22  1  0
 18 23  2  0
 23 24  1  0
 24 25  3  0
  6 26  1  0
 26 27  1  0
 27 28  1  0
 26 29  2  0
 29 30  1  0
 30 31  1  0
 29  3  1  0
 23 13  1  0
M  END
>  <Binding energies>  (24) 
[-5.27]

>  <Ligand effiencies>  (24) 
[-0.1646875]

>  <Interactions>  (24) 
["V-A:ASP:366:CG:3212, V-A:ASP:366:CB:3211, V-A:TYR:531:CZ:4793, V-B:PRO:540:N:9855, H-B:ALA:541:N:9862, V-B:ALA:541:CB:9863, V-B:PRO:540:CA:9854, V-B:PRO:540:C:9852, V-B:TYR:539:C:9838, V-B:TYR:539:CD2:9845, V-B:TYR:539:CE2:9847, V-B:TYR:539:CG:9843, V-B:MET:535:CE:9806, H-B:TYR:539:OH:9849, V-B:TYR:539:CZ:9848, V-B:PRO:540:CB:9856, V-B:TYR:531:CE2:9764, V-B:ILE:538:CD1:9836, V-B:ILE:538:CA:9831, V-B:TYR:539:CE1:9846, V-B:ASP:366:CB:8182, H-B:TYR:531:OH:9766, V-A:TYR:531:CE1:4791, V-B:ASP:366:CG:8183, V-B:MET:535:CG:9804"]

$$$$
2i_Grossjean_2025
     RDKit          3D

 23 24  0  0  0  0  0  0  0  0999 V2000
  130.7170  117.8100   61.0710 C   0  0  0  0  0  0  0  0  0  0  0  0
  130.9550  119.2900   61.3120 C   0  0  0  0  0  0  0  0  0  0  0  0
  132.2360  119.8340   61.3010 C   0  0  0  0  0  0  0  0  0  0  0  0
  132.4030  121.2080   61.5270 C   0  0  0  0  0  0  0  0  0  0  0  0
  133.8280  121.7940   61.5120 C   0  0  0  0  0  0  0  0  0  0  0  0
  134.1670  122.2010   62.7370 F   0  0  0  0  0  0  0  0  0  0  0  0
  134.6990  120.8690   61.1070 F   0  0  0  0  0  0  0  0  0  0  0  0
  133.9470  122.8420   60.6940 F   0  0  0  0  0  0  0  0  0  0  0  0
  131.2510  122.0010   61.7610 C   0  0  0  0  0  0  0  0  0  0  0  0
  131.3680  123.4430   62.0020 C   0  0  0  0  0  0  0  0  0  0  0  0
  131.4600  124.5810   62.1920 N   0  0  0  0  0  0  0  0  0  0  0  0
  129.9880  121.3650   61.7570 C   0  0  0  0  0  0  0  0  0  0  0  0
  128.4710  122.2600   62.0480 S   0  0  0  0  0  0  0  0  0  0  0  0
  128.3750  123.6180   60.8430 C   0  0  0  0  0  0  0  0  0  0  0  0
  128.1480  123.1130   59.4170 C   0  0  0  0  0  0  0  0  0  0  0  0
  129.1170  122.7430   58.7510 O   0  0  0  0  0  0  0  0  0  0  0  0
  126.8700  123.1370   58.9810 N   0  0  0  0  0  0  0  0  0  0  0  0
  126.4150  122.7510   57.7310 C   0  0  0  0  0  0  0  0  0  0  0  0
  125.2040  123.0340   57.0840 C   0  0  0  0  0  0  0  0  0  0  0  0
  125.2990  122.3950   55.8690 C   0  0  0  0  0  0  0  0  0  0  0  0
  126.4990  121.7720   55.7880 O   0  0  0  0  0  0  0  0  0  0  0  0
  127.1960  122.0120   56.9740 N   0  0  0  0  0  0  0  0  0  0  0  0
  129.8480  120.0330   61.5350 N   0  0  0  0  0  0  0  0  0  0  0  0
  1  2  1  0
  2  3  2  0
  3  4  1  0
  4  5  1  0
  5  6  1  0
  5  7  1  0
  5  8  1  0
  4  9  2  0
  9 10  1  0
 10 11  3  0
  9 12  1  0
 12 13  1  0
 13 14  1  0
 14 15  1  0
 15 16  2  0
 15 17  1  0
 17 18  1  0
 18 19  1  0
 19 20  2  0
 20 21  1  0
 21 22  1  0
 12 23  2  0
 23  2  1  0
 22 18  2  0
M  END
>  <Binding energies>  (25) 
[-6.7]

>  <Ligand effiencies>  (25) 
[-0.2791666666666667]

>  <Interactions>  (25) 
["V-B:PRO:540:N:9855, H-B:ALA:541:N:9862, V-B:ALA:541:CB:9863, V-B:PRO:540:CA:9854, V-B:TYR:539:C:9838, V-A:LEU:475:CD2:4258, V-A:PRO:482:CG:4326, V-A:ILE:369:CD1:3238, V-A:SER:385:C:3404, V-B:TYR:539:CD2:9845, V-A:ILE:369:CG2:3236, V-A:SER:385:CA:3406, V-A:GLY:454:CA:4048, H-B:TYR:539:N:9841, V-A:PRO:482:CB:4325, V-B:PRO:540:CB:9856, V-B:PRO:540:CD:9858, V-B:TYR:531:CE2:9764, V-B:LEU:363:CD1:8159, V-B:ILE:538:CD1:9836, V-B:ILE:538:CG2:9834, V-B:ILE:538:CA:9831, V-A:ILE:369:CB:3235, V-A:ILE:369:CG1:3237"]

$$$$
2k_Grossjean_2025
     RDKit          3D

 28 28  0  0  0  0  0  0  0  0999 V2000
  133.2800  124.1680   59.2040 C   0  0  0  0  0  0  0  0  0  0  0  0
  133.2650  124.6570   57.8720 O   0  0  0  0  0  0  0  0  0  0  0  0
  132.6830  125.9490   57.7490 C   0  0  0  0  0  0  0  0  0  0  0  0
  132.2080  126.1690   56.3070 C   0  0  0  0  0  0  0  0  0  0  0  0
  130.8940  126.7060   56.3300 O   0  0  0  0  0  0  0  0  0  0  0  0
  129.8760  125.7510   56.6070 C   0  0  0  0  0  0  0  0  0  0  0  0
  129.0800  126.2310   57.8280 C   0  0  0  0  0  0  0  0  0  0  0  0
  128.3100  125.1370   58.3020 O   0  0  0  0  0  0  0  0  0  0  0  0
  129.0580  124.0770   58.8780 C   0  0  0  0  0  0  0  0  0  0  0  0
  128.4390  122.7350   58.4440 C   0  0  0  0  0  0  0  0  0  0  0  0
  127.0250  122.8510   58.0760 N   0  0  0  0  0  0  0  0  0  0  0  0
  126.5060  122.5700   56.8650 C   0  0  0  0  0  0  0  0  0  0  0  0
  127.1770  122.1470   55.9210 O   0  0  0  0  0  0  0  0  0  0  0  0
  125.0010  122.8300   56.7090 C   0  0  0  0  0  0  0  0  0  0  0  0
  124.1640  123.4950   58.1900 S   0  0  0  0  0  0  0  0  0  0  0  0
  124.9400  125.0330   58.6700 C   0  0  0  0  0  0  0  0  0  0  0  0
  124.7620  126.0730   57.8160 N   0  0  0  0  0  0  0  0  0  0  0  0
  125.3250  127.2660   58.1130 C   0  0  0  0  0  0  0  0  0  0  0  0
  125.0910  128.3730   57.1040 C   0  0  0  0  0  0  0  0  0  0  0  0
  126.0710  127.4770   59.2690 C   0  0  0  0  0  0  0  0  0  0  0  0
  126.2610  126.4180   60.1700 C   0  0  0  0  0  0  0  0  0  0  0  0
  127.0850  126.6700   61.4470 C   0  0  0  0  0  0  0  0  0  0  0  0
  126.3800  126.4810   62.5630 F   0  0  0  0  0  0  0  0  0  0  0  0
  128.1300  125.8420   61.4880 F   0  0  0  0  0  0  0  0  0  0  0  0
  127.5300  127.9270   61.4620 F   0  0  0  0  0  0  0  0  0  0  0  0
  125.6830  125.1590   59.8670 C   0  0  0  0  0  0  0  0  0  0  0  0
  125.8520  124.0170   60.7710 C   0  0  0  0  0  0  0  0  0  0  0  0
  125.9850  123.1160   61.4860 N   0  0  0  0  0  0  0  0  0  0  0  0
  1  2  1  0
  2  3  1  0
  3  4  1  0
  4  5  1  0
  5  6  1  0
  6  7  1  0
  7  8  1  0
  8  9  1  0
  9 10  1  0
 10 11  1  0
 11 12  1  0
 12 13  2  0
 12 14  1  0
 14 15  1  0
 15 16  1  0
 16 17  2  0
 17 18  1  0
 18 19  1  0
 18 20  2  0
 20 21  1  0
 21 22  1  0
 22 23  1  0
 22 24  1  0
 22 25  1  0
 21 26  2  0
 26 27  1  0
 27 28  3  0
 26 16  1  0
M  END
>  <Binding energies>  (26) 
[-5.49]

>  <Ligand effiencies>  (26) 
[-0.1893103448275862]

>  <Interactions>  (26) 
["V-A:ASP:366:CG:3212, V-A:ASP:366:CB:3211, H-A:TYR:531:OH:4794, V-A:TYR:531:CZ:4793, V-B:GLU:543:CD:9879, V-B:PRO:540:N:9855, H-B:ALA:541:N:9862, V-B:PRO:540:CA:9854, V-B:TYR:539:C:9838, V-A:ILE:369:CD1:3238, V-B:TYR:539:CD2:9845, V-A:ILE:369:CG2:3236, V-B:TYR:539:CE2:9847, H-B:TYR:539:N:9841, V-B:TYR:539:CG:9843, V-B:MET:535:CE:9806, H-B:TYR:539:OH:9849, V-B:TYR:539:CZ:9848, V-B:PRO:540:CB:9856, V-B:TYR:531:CZ:9765, V-B:PRO:540:CD:9858, V-B:TYR:531:CE2:9764, V-B:LEU:363:CD1:8159, V-B:ASP:366:CB:8182, H-B:TYR:531:OH:9766, V-A:TYR:531:CE1:4791, V-B:ASP:366:CG:8183, V-B:TYR:531:CE1:9763, V-A:ILE:369:CB:3235, V-A:ASP:366:CA:3209, V-A:ASP:366:C:3207, V-A:ASN:370:CB:3244, V-A:ASN:370:CG:3245"]

$$$$
3aa_Grossjean_2025
     RDKit          3D

 34 36  0  0  0  0  0  0  0  0999 V2000
  133.2820  126.1360   67.7600 C   0  0  0  0  0  0  0  0  0  0  0  0
  132.9740  126.2840   66.2660 C   0  0  0  0  0  0  0  0  0  0  0  0
  133.7800  125.3780   65.5240 O   0  0  0  0  0  0  0  0  0  0  0  0
  133.5170  125.1170   64.2180 C   0  0  0  0  0  0  0  0  0  0  0  0
  134.3940  125.0130   63.3540 O   0  0  0  0  0  0  0  0  0  0  0  0
  132.0500  124.9840   63.9230 C   0  0  0  0  0  0  0  0  0  0  0  0
  131.2940  123.8980   64.3870 C   0  0  0  0  0  0  0  0  0  0  0  0
  129.9350  123.8080   64.0990 C   0  0  0  0  0  0  0  0  0  0  0  0
  129.3030  124.8020   63.3490 C   0  0  0  0  0  0  0  0  0  0  0  0
  127.9250  124.6160   63.1180 N   0  0  0  0  0  0  0  0  0  0  0  0
  127.1630  123.5150   63.2960 C   0  0  0  0  0  0  0  0  0  0  0  0
  127.5700  122.4210   63.6890 O   0  0  0  0  0  0  0  0  0  0  0  0
  125.6810  123.6770   62.9570 C   0  0  0  0  0  0  0  0  0  0  0  0
  125.4400  124.5570   61.3840 S   0  0  0  0  0  0  0  0  0  0  0  0
  126.4990  123.7790   60.1850 C   0  0  0  0  0  0  0  0  0  0  0  0
  127.7390  123.5010   60.6540 N   0  0  0  0  0  0  0  0  0  0  0  0
  128.6500  122.9070   59.8390 C   0  0  0  0  0  0  0  0  0  0  0  0
  129.9940  122.6190   60.4360 C   0  0  0  0  0  0  0  0  0  0  0  0
  130.2170  121.4360   61.1580 C   0  0  0  0  0  0  0  0  0  0  0  0
  131.4630  121.1610   61.7150 C   0  0  0  0  0  0  0  0  0  0  0  0
  132.5050  122.0680   61.5570 C   0  0  0  0  0  0  0  0  0  0  0  0
  132.3110  123.2460   60.8440 C   0  0  0  0  0  0  0  0  0  0  0  0
  131.0640  123.5170   60.2860 C   0  0  0  0  0  0  0  0  0  0  0  0
  128.3230  122.5700   58.5220 C   0  0  0  0  0  0  0  0  0  0  0  0
  127.0510  122.8640   58.0080 C   0  0  0  0  0  0  0  0  0  0  0  0
  126.7330  122.4870   56.5490 C   0  0  0  0  0  0  0  0  0  0  0  0
  127.7690  121.9260   55.9220 F   0  0  0  0  0  0  0  0  0  0  0  0
  125.7240  121.6170   56.5070 F   0  0  0  0  0  0  0  0  0  0  0  0
  126.3910  123.5780   55.8620 F   0  0  0  0  0  0  0  0  0  0  0  0
  126.1100  123.4980   58.8560 C   0  0  0  0  0  0  0  0  0  0  0  0
  124.7860  123.8800   58.3570 C   0  0  0  0  0  0  0  0  0  0  0  0
  123.7410  124.1830   57.9620 N   0  0  0  0  0  0  0  0  0  0  0  0
  130.0560  125.8840   62.8700 C   0  0  0  0  0  0  0  0  0  0  0  0
  131.4140  125.9710   63.1570 C   0  0  0  0  0  0  0  0  0  0  0  0
  1  2  1  0
  2  3  1  0
  3  4  1  0
  4  5  2  0
  4  6  1  0
  6  7  2  0
  7  8  1  0
  8  9  2  0
  9 10  1  0
 10 11  1  0
 11 12  2  0
 11 13  1  0
 13 14  1  0
 14 15  1  0
 15 16  2  0
 16 17  1  0
 17 18  1  0
 18 19  2  0
 19 20  1  0
 20 21  2  0
 21 22  1  0
 22 23  2  0
 17 24  2  0
 24 25  1  0
 25 26  1  0
 26 27  1  0
 26 28  1  0
 26 29  1  0
 25 30  2  0
 30 31  1  0
 31 32  3  0
  9 33  1  0
 33 34  2  0
 34  6  1  0
 30 15  1  0
 23 18  1  0
M  END
>  <Binding energies>  (27) 
[-8.32]

>  <Ligand effiencies>  (27) 
[-0.2377142857142857]

>  <Interactions>  (27) 
["V-B:GLU:543:CD:9879, V-B:PRO:540:N:9855, H-B:ALA:541:N:9862, H-A:TYR:484:OH:4347, V-B:PRO:540:CA:9854, H-B:GLU:543:OE2:9881, H-B:GLU:543:OE1:9880, V-B:TYR:539:C:9838, V-A:LEU:475:CD2:4258, V-B:TYR:539:CD2:9845, V-B:TYR:539:CE2:9847, V-A:GLY:454:CA:4048, V-B:TYR:539:CG:9843, V-B:MET:535:CE:9806, V-B:TYR:539:CZ:9848, V-B:GLU:543:CG:9878, V-B:ALA:541:C:9859, V-B:PRO:540:CB:9856, H-A:GLY:454:N:4049, V-B:TYR:539:CA:9840, V-A:ARG:545:CD:4922, V-B:TYR:539:CD1:9844, V-B:TYR:531:CZ:9765, V-B:PRO:540:CD:9858, V-B:TYR:531:CE2:9764, V-B:LEU:363:CD1:8159, V-A:ARG:545:CZ:4925, V-A:ARG:545:CG:4921, V-A:HIS:456:CE1:4069, V-B:ILE:538:CG2:9834, V-A:HIS:456:CD2:4067, H-A:ARG:545:NH1:4926, H-B:ARG:545:NH2:9899, V-B:ILE:538:CA:9831, V-B:TYR:539:CE1:9846, V-B:ILE:538:C:9829, H-A:ARG:545:NE:4923, V-A:TYR:484:CZ:4346, V-B:MET:535:CG:9804, V-B:PRO:540:CG:9857"]

$$$$
3ad_Grossjean_2025
     RDKit          3D

 29 31  0  0  0  0  0  0  0  0999 V2000
  130.8180  125.6460   64.6340 N   0  0  0  0  0  0  0  0  0  0  0  0
  130.9310  124.6280   64.0960 C   0  0  0  0  0  0  0  0  0  0  0  0
  131.0780  123.3380   63.4140 C   0  0  0  0  0  0  0  0  0  0  0  0
  132.3100  122.9700   62.8210 C   0  0  0  0  0  0  0  0  0  0  0  0
  133.5660  123.8590   62.8890 C   0  0  0  0  0  0  0  0  0  0  0  0
  133.5760  124.8140   61.9570 F   0  0  0  0  0  0  0  0  0  0  0  0
  133.6350  124.4580   64.0800 F   0  0  0  0  0  0  0  0  0  0  0  0
  134.6620  123.1190   62.7140 F   0  0  0  0  0  0  0  0  0  0  0  0
  132.3850  121.7450   62.1400 C   0  0  0  0  0  0  0  0  0  0  0  0
  131.2630  120.9150   62.0510 C   0  0  0  0  0  0  0  0  0  0  0  0
  131.2830  119.6040   61.3220 C   0  0  0  0  0  0  0  0  0  0  0  0
  130.2570  118.6640   61.5080 C   0  0  0  0  0  0  0  0  0  0  0  0
  130.2700  117.4460   60.8340 C   0  0  0  0  0  0  0  0  0  0  0  0
  131.3130  117.1500   59.9620 C   0  0  0  0  0  0  0  0  0  0  0  0
  132.3400  118.0650   59.7590 C   0  0  0  0  0  0  0  0  0  0  0  0
  132.3230  119.2830   60.4340 C   0  0  0  0  0  0  0  0  0  0  0  0
  130.0830  121.2760   62.6160 N   0  0  0  0  0  0  0  0  0  0  0  0
  129.9920  122.4430   63.2960 C   0  0  0  0  0  0  0  0  0  0  0  0
  128.3770  122.7460   63.9790 S   0  0  0  0  0  0  0  0  0  0  0  0
  127.6120  124.0650   62.9900 C   0  0  0  0  0  0  0  0  0  0  0  0
  126.9160  123.5210   61.7400 C   0  0  0  0  0  0  0  0  0  0  0  0
  125.8120  122.9880   61.8540 O   0  0  0  0  0  0  0  0  0  0  0  0
  127.5960  123.6760   60.5840 N   0  0  0  0  0  0  0  0  0  0  0  0
  127.2420  123.3070   59.2740 C   0  0  0  0  0  0  0  0  0  0  0  0
  125.9140  123.5570   58.9120 C   0  0  0  0  0  0  0  0  0  0  0  0
  125.4580  123.2260   57.6390 C   0  0  0  0  0  0  0  0  0  0  0  0
  126.3280  122.6390   56.7250 C   0  0  0  0  0  0  0  0  0  0  0  0
  127.6500  122.3770   57.0740 C   0  0  0  0  0  0  0  0  0  0  0  0
  128.1110  122.7070   58.3460 C   0  0  0  0  0  0  0  0  0  0  0  0
  1  2  3  0
  2  3  1  0
  3  4  2  0
  4  5  1  0
  5  6  1  0
  5  7  1  0
  5  8  1  0
  4  9  1  0
  9 10  2  0
 10 11  1  0
 11 12  2  0
 12 13  1  0
 13 14  2  0
 14 15  1  0
 15 16  2  0
 10 17  1  0
 17 18  2  0
 18 19  1  0
 19 20  1  0
 20 21  1  0
 21 22  2  0
 21 23  1  0
 23 24  1  0
 24 25  2  0
 25 26  1  0
 26 27  2  0
 27 28  1  0
 28 29  2  0
 18  3  1  0
 29 24  1  0
 16 11  1  0
M  END
>  <Binding energies>  (28) 
[-8.51]

>  <Ligand effiencies>  (28) 
[-0.2836666666666667]

>  <Interactions>  (28) 
["V-A:ASP:366:CG:3212, V-B:GLU:543:CD:9879, V-B:PRO:540:N:9855, H-B:ALA:541:N:9862, V-B:ALA:541:CB:9863, V-B:PRO:540:CA:9854, V-B:TYR:539:C:9838, V-A:LEU:475:CD2:4258, V-A:PRO:482:CG:4326, V-A:HIS:383:CE1:3393, V-A:ILE:369:CD1:3238, V-B:TYR:539:CD2:9845, V-B:TYR:539:CE2:9847, V-B:TYR:539:CB:9842, V-A:GLY:454:CA:4048, V-B:TYR:539:CG:9843, V-B:MET:535:CE:9806, V-B:TYR:539:CZ:9848, V-A:PRO:482:CB:4325, V-B:GLU:543:CG:9878, V-B:PRO:540:CB:9856, V-B:TYR:539:CA:9840, V-A:GLY:453:C:4041, V-B:TYR:539:CD1:9844, V-B:PRO:540:CD:9858, V-B:TYR:539:CE1:9846"]

$$$$
3ai_Grossjean_2025
     RDKit          3D

 28 30  0  0  0  0  0  0  0  0999 V2000
  129.9810  125.6660   64.1340 N   0  0  0  0  0  0  0  0  0  0  0  0
  130.3190  124.6910   63.6110 C   0  0  0  0  0  0  0  0  0  0  0  0
  130.7470  123.4550   62.9490 C   0  0  0  0  0  0  0  0  0  0  0  0
  132.1230  123.1480   62.8080 C   0  0  0  0  0  0  0  0  0  0  0  0
  133.2380  124.0520   63.3680 C   0  0  0  0  0  0  0  0  0  0  0  0
  133.1070  125.3270   62.9960 F   0  0  0  0  0  0  0  0  0  0  0  0
  133.2230  124.0190   64.7020 F   0  0  0  0  0  0  0  0  0  0  0  0
  134.4280  123.6330   62.9390 F   0  0  0  0  0  0  0  0  0  0  0  0
  132.4820  121.9770   62.1240 C   0  0  0  0  0  0  0  0  0  0  0  0
  131.4980  121.1360   61.5950 C   0  0  0  0  0  0  0  0  0  0  0  0
  131.8240  119.8790   60.8470 C   0  0  0  0  0  0  0  0  0  0  0  0
  130.9990  118.7480   60.9510 C   0  0  0  0  0  0  0  0  0  0  0  0
  131.2930  117.5790   60.2560 C   0  0  0  0  0  0  0  0  0  0  0  0
  132.4200  117.5250   59.4420 C   0  0  0  0  0  0  0  0  0  0  0  0
  133.2530  118.6320   59.3200 C   0  0  0  0  0  0  0  0  0  0  0  0
  132.9550  119.8000   60.0160 C   0  0  0  0  0  0  0  0  0  0  0  0
  130.1800  121.4380   61.7250 N   0  0  0  0  0  0  0  0  0  0  0  0
  129.8080  122.5510   62.4020 C   0  0  0  0  0  0  0  0  0  0  0  0
  128.0430  122.7700   62.4900 S   0  0  0  0  0  0  0  0  0  0  0  0
  127.5400  123.8280   61.0910 C   0  0  0  0  0  0  0  0  0  0  0  0
  127.6120  123.1580   59.7110 C   0  0  0  0  0  0  0  0  0  0  0  0
  128.6230  122.5450   59.3600 O   0  0  0  0  0  0  0  0  0  0  0  0
  126.5010  123.3040   58.9540 N   0  0  0  0  0  0  0  0  0  0  0  0
  126.2820  122.8030   57.6770 C   0  0  0  0  0  0  0  0  0  0  0  0
  125.1150  123.0460   56.9530 C   0  0  0  0  0  0  0  0  0  0  0  0
  125.2890  122.3840   55.7600 C   0  0  0  0  0  0  0  0  0  0  0  0
  126.4980  121.7740   55.7640 O   0  0  0  0  0  0  0  0  0  0  0  0
  127.1180  122.0480   56.9840 N   0  0  0  0  0  0  0  0  0  0  0  0
  1  2  3  0
  2  3  1  0
  3  4  2  0
  4  5  1  0
  5  6  1  0
  5  7  1  0
  5  8  1  0
  4  9  1  0
  9 10  2  0
 10 11  1  0
 11 12  2  0
 12 13  1  0
 13 14  2  0
 14 15  1  0
 15 16  2  0
 10 17  1  0
 17 18  2  0
 18 19  1  0
 19 20  1  0
 20 21  1  0
 21 22  2  0
 21 23  1  0
 23 24  1  0
 24 25  1  0
 25 26  2  0
 26 27  1  0
 27 28  1  0
 18  3  1  0
 28 24  2  0
 16 11  1  0
M  END
>  <Binding energies>  (29) 
[-8.55]

>  <Ligand effiencies>  (29) 
[-0.2948275862068966]

>  <Interactions>  (29) 
["V-A:ASP:366:CG:3212, V-B:PRO:540:N:9855, H-B:ALA:541:N:9862, V-B:ALA:541:CB:9863, V-B:PRO:540:CA:9854, V-B:TYR:539:C:9838, V-A:LEU:475:CD2:4258, V-A:HIS:383:CE1:3393, V-A:ILE:369:CD1:3238, V-B:TYR:539:CD2:9845, V-A:ILE:369:CG2:3236, V-B:TYR:539:CE2:9847, V-B:TYR:539:CB:9842, V-A:GLY:454:CA:4048, H-B:TYR:539:N:9841, V-B:PRO:540:CB:9856, V-A:GLY:453:C:4041, V-B:PRO:540:CD:9858, V-B:TYR:531:CE2:9764, V-B:LEU:363:CD1:8159, V-A:ARG:545:CZ:4925, V-B:ILE:538:CD1:9836, V-B:ILE:538:CG2:9834, V-B:ILE:538:CA:9831, V-A:GLY:453:CA:4043, V-A:LEU:373:CG:3278, V-A:LEU:373:CD2:3280, V-A:VAL:384:C:3396"]

$$$$
3aj_Grossjean_2025
     RDKit          3D

 28 30  0  0  0  0  0  0  0  0999 V2000
  129.4270  123.6770   64.0910 N   0  0  0  0  0  0  0  0  0  0  0  0
  128.9600  123.5680   63.0380 C   0  0  0  0  0  0  0  0  0  0  0  0
  128.3660  123.4320   61.7050 C   0  0  0  0  0  0  0  0  0  0  0  0
  126.9860  123.6770   61.4990 C   0  0  0  0  0  0  0  0  0  0  0  0
  126.0450  124.1380   62.6290 C   0  0  0  0  0  0  0  0  0  0  0  0
  126.2700  123.5000   63.7810 F   0  0  0  0  0  0  0  0  0  0  0  0
  126.2050  125.4420   62.8530 F   0  0  0  0  0  0  0  0  0  0  0  0
  124.7770  123.9100   62.2880 F   0  0  0  0  0  0  0  0  0  0  0  0
  126.4560  123.4870   60.2130 C   0  0  0  0  0  0  0  0  0  0  0  0
  127.2780  123.0590   59.1650 C   0  0  0  0  0  0  0  0  0  0  0  0
  126.7630  122.8310   57.7770 C   0  0  0  0  0  0  0  0  0  0  0  0
  125.4240  123.1020   57.4580 C   0  0  0  0  0  0  0  0  0  0  0  0
  124.9380  122.8950   56.1680 C   0  0  0  0  0  0  0  0  0  0  0  0
  125.7900  122.4130   55.1800 C   0  0  0  0  0  0  0  0  0  0  0  0
  127.1220  122.1380   55.4710 C   0  0  0  0  0  0  0  0  0  0  0  0
  127.6030  122.3470   56.7600 C   0  0  0  0  0  0  0  0  0  0  0  0
  128.5990  122.8180   59.3700 N   0  0  0  0  0  0  0  0  0  0  0  0
  129.1390  123.0180   60.5960 C   0  0  0  0  0  0  0  0  0  0  0  0
  130.8830  122.6730   60.6680 S   0  0  0  0  0  0  0  0  0  0  0  0
  131.7260  124.1740   61.2730 C   0  0  0  0  0  0  0  0  0  0  0  0
  132.1550  124.1280   62.7470 C   0  0  0  0  0  0  0  0  0  0  0  0
  132.1630  123.0640   63.3690 O   0  0  0  0  0  0  0  0  0  0  0  0
  132.5080  125.3240   63.2690 N   0  0  0  0  0  0  0  0  0  0  0  0
  132.9400  125.5670   64.5660 C   0  0  0  0  0  0  0  0  0  0  0  0
  134.1540  125.4270   65.0530 N   0  0  0  0  0  0  0  0  0  0  0  0
  134.2070  125.7530   66.3290 C   0  0  0  0  0  0  0  0  0  0  0  0
  133.0100  126.1700   66.9070 C   0  0  0  0  0  0  0  0  0  0  0  0
  131.7570  126.1270   65.7050 S   0  0  0  0  0  0  0  0  0  0  0  0
  1  2  3  0
  2  3  1  0
  3  4  2  0
  4  5  1  0
  5  6  1  0
  5  7  1  0
  5  8  1  0
  4  9  1  0
  9 10  2  0
 10 11  1  0
 11 12  2  0
 12 13  1  0
 13 14  2  0
 14 15  1  0
 15 16  2  0
 10 17  1  0
 17 18  2  0
 18 19  1  0
 19 20  1  0
 20 21  1  0
 21 22  2  0
 21 23  1  0
 23 24  1  0
 24 25  2  0
 25 26  1  0
 26 27  2  0
 27 28  1  0
 18  3  1  0
 28 24  1  0
 16 11  1  0
M  END
>  <Binding energies>  (30) 
[-7.68]

>  <Ligand effiencies>  (30) 
[-0.26482758620689656]

>  <Interactions>  (30) 
["V-A:ASP:366:CG:3212, V-B:GLU:543:CD:9879, V-B:PRO:540:N:9855, H-A:TYR:484:OH:4347, V-B:PRO:540:CA:9854, V-B:ALA:541:CA:9861, V-B:TYR:539:C:9838, V-B:TYR:539:CD2:9845, V-B:TYR:539:CE2:9847, V-A:GLY:454:CA:4048, V-B:TYR:539:CG:9843, V-B:MET:535:CE:9806, V-B:TYR:539:CZ:9848, V-B:GLU:543:CG:9878, V-B:ALA:541:C:9859, V-B:PRO:540:CB:9856, H-A:GLY:454:N:4049, V-B:TYR:539:CA:9840, V-A:GLY:453:C:4041, V-A:ARG:545:CD:4922, V-B:TYR:539:CD1:9844, V-B:TYR:531:CZ:9765, V-B:PRO:540:CD:9858, V-B:TYR:531:CE2:9764, V-B:LEU:363:CD1:8159, V-A:ARG:545:CZ:4925, V-B:ILE:538:CD1:9836, V-A:ARG:545:CG:4921, V-A:HIS:456:CE1:4069, V-B:ILE:538:CG2:9834, H-A:ASP:366:OD2:3214, H-A:ARG:545:NH1:4926, H-A:ARG:545:NH2:4927, V-B:ILE:538:CA:9831, V-A:GLY:453:CA:4043, V-B:TYR:539:CE1:9846, V-B:ILE:538:C:9829, V-B:ILE:538:CB:9833, H-A:ARG:545:NE:4923, H-A:ASP:366:OD1:3213, V-B:MET:535:CG:9804"]

$$$$
3ak_Grossjean_2025
     RDKit          3D

 33 34  0  0  0  0  0  0  0  0999 V2000
  127.7290  122.3940   56.6950 C   0  0  0  0  0  0  0  0  0  0  0  0
  126.4940  121.6950   56.6650 O   0  0  0  0  0  0  0  0  0  0  0  0
  125.5080  122.3250   55.8600 C   0  0  0  0  0  0  0  0  0  0  0  0
  124.6760  123.2700   56.7370 C   0  0  0  0  0  0  0  0  0  0  0  0
  125.5490  124.1950   57.3770 O   0  0  0  0  0  0  0  0  0  0  0  0
  125.0010  124.8810   58.5000 C   0  0  0  0  0  0  0  0  0  0  0  0
  124.4330  123.9430   59.5820 C   0  0  0  0  0  0  0  0  0  0  0  0
  125.4970  123.4660   60.3930 O   0  0  0  0  0  0  0  0  0  0  0  0
  126.7760  123.5560   59.7780 C   0  0  0  0  0  0  0  0  0  0  0  0
  127.6720  124.5360   60.5580 C   0  0  0  0  0  0  0  0  0  0  0  0
  127.7180  124.2690   61.9970 N   0  0  0  0  0  0  0  0  0  0  0  0
  128.0320  123.0920   62.5730 C   0  0  0  0  0  0  0  0  0  0  0  0
  128.3390  122.0930   61.9220 O   0  0  0  0  0  0  0  0  0  0  0  0
  128.0070  122.9890   64.1070 C   0  0  0  0  0  0  0  0  0  0  0  0
  129.5330  122.3740   64.9100 S   0  0  0  0  0  0  0  0  0  0  0  0
  130.8470  122.3470   63.7000 C   0  0  0  0  0  0  0  0  0  0  0  0
  130.9060  121.2380   62.9230 N   0  0  0  0  0  0  0  0  0  0  0  0
  131.8730  121.1220   61.9790 C   0  0  0  0  0  0  0  0  0  0  0  0
  131.8640  119.8620   61.1640 C   0  0  0  0  0  0  0  0  0  0  0  0
  130.7910  118.9610   61.2490 C   0  0  0  0  0  0  0  0  0  0  0  0
  130.7750  117.7920   60.4930 C   0  0  0  0  0  0  0  0  0  0  0  0
  131.8340  117.5090   59.6370 C   0  0  0  0  0  0  0  0  0  0  0  0
  132.9080  118.3860   59.5320 C   0  0  0  0  0  0  0  0  0  0  0  0
  132.9210  119.5540   60.2890 C   0  0  0  0  0  0  0  0  0  0  0  0
  132.8080  122.1430   61.7810 C   0  0  0  0  0  0  0  0  0  0  0  0
  132.7690  123.3020   62.5690 C   0  0  0  0  0  0  0  0  0  0  0  0
  133.8170  124.4050   62.3230 C   0  0  0  0  0  0  0  0  0  0  0  0
  133.3420  125.5840   62.7240 F   0  0  0  0  0  0  0  0  0  0  0  0
  134.9330  124.1350   63.0020 F   0  0  0  0  0  0  0  0  0  0  0  0
  134.1520  124.5240   61.0360 F   0  0  0  0  0  0  0  0  0  0  0  0
  131.7630  123.4120   63.5590 C   0  0  0  0  0  0  0  0  0  0  0  0
  131.6740  124.6010   64.4140 C   0  0  0  0  0  0  0  0  0  0  0  0
  131.6030  125.5390   65.0890 N   0  0  0  0  0  0  0  0  0  0  0  0
  1  2  1  0
  2  3  1  0
  3  4  1  0
  4  5  1  0
  5  6  1  0
  6  7  1  0
  7  8  1  0
  8  9  1  0
  9 10  1  0
 10 11  1  0
 11 12  1  0
 12 13  2  0
 12 14  1  0
 14 15  1  0
 15 16  1  0
 16 17  2  0
 17 18  1  0
 18 19  1  0
 19 20  2  0
 20 21  1  0
 21 22  2  0
 22 23  1  0
 23 24  2  0
 18 25  2  0
 25 26  1  0
 26 27  1  0
 27 28  1  0
 27 29  1  0
 27 30  1  0
 26 31  2  0
 31 32  1  0
 32 33  3  0
 31 16  1  0
 24 19  1  0
M  END
>  <Binding energies>  (31) 
[-6.98]

>  <Ligand effiencies>  (31) 
[-0.20529411764705885]

>  <Interactions>  (31) 
["V-A:ASP:366:CG:3212, V-A:ASP:366:CB:3211, V-B:GLU:543:CD:9879, V-B:PRO:540:N:9855, H-B:ALA:541:N:9862, H-A:TYR:484:OH:4347, V-B:ALA:541:CB:9863, V-B:PRO:540:CA:9854, H-B:GLU:543:OE2:9881, V-B:ALA:541:CA:9861, H-B:GLU:543:OE1:9880, V-B:TYR:539:C:9838, V-A:LEU:475:CD2:4258, V-A:HIS:383:CE1:3393, V-A:ILE:369:CD1:3238, V-B:TYR:539:CD2:9845, V-A:ILE:369:CG2:3236, V-B:TYR:539:CE2:9847, V-B:TYR:539:CB:9842, V-A:SER:385:CA:3406, V-A:GLY:454:CA:4048, H-B:TYR:539:N:9841, V-B:TYR:539:CG:9843, V-B:MET:535:CE:9806, V-B:TYR:539:CZ:9848, V-B:GLU:543:CG:9878, V-B:ALA:541:C:9859, V-B:PRO:540:CB:9856, V-B:TYR:539:CA:9840, V-A:GLY:453:C:4041, V-B:TYR:539:CD1:9844, V-B:TYR:531:CZ:9765, V-B:PRO:540:CD:9858, V-B:TYR:531:CE2:9764, V-B:LEU:363:CD1:8159, V-A:ARG:545:CZ:4925, V-B:ILE:538:CD1:9836, V-B:ILE:538:CG2:9834, V-B:ILE:538:CA:9831, V-A:GLY:453:CA:4043, V-B:TYR:539:CE1:9846, V-A:LEU:373:CD2:3280, H-B:TYR:531:OH:9766, V-A:ASP:366:CA:3209"]

$$$$
3bk_Grossjean_2025
     RDKit          3D

 30 31  0  0  0  0  0  0  0  0999 V2000
  126.3940  122.3730   55.1240 C   0  0  0  0  0  0  0  0  0  0  0  0
  125.7010  123.3260   55.9160 O   0  0  0  0  0  0  0  0  0  0  0  0
  125.0980  122.7670   57.0750 C   0  0  0  0  0  0  0  0  0  0  0  0
  124.5670  123.8920   57.9730 C   0  0  0  0  0  0  0  0  0  0  0  0
  125.1020  123.7440   59.2810 O   0  0  0  0  0  0  0  0  0  0  0  0
  125.7860  124.8960   59.7560 C   0  0  0  0  0  0  0  0  0  0  0  0
  127.0260  125.1430   58.8870 C   0  0  0  0  0  0  0  0  0  0  0  0
  128.1730  124.6140   59.5400 O   0  0  0  0  0  0  0  0  0  0  0  0
  128.6030  123.3610   59.0220 C   0  0  0  0  0  0  0  0  0  0  0  0
  128.5020  122.2930   60.1200 C   0  0  0  0  0  0  0  0  0  0  0  0
  128.8050  122.8290   61.4490 N   0  0  0  0  0  0  0  0  0  0  0  0
  127.8970  123.1990   62.3670 C   0  0  0  0  0  0  0  0  0  0  0  0
  126.6790  123.1100   62.1990 O   0  0  0  0  0  0  0  0  0  0  0  0
  128.4450  123.7300   63.6930 C   0  0  0  0  0  0  0  0  0  0  0  0
  129.6070  122.5610   64.4670 S   0  0  0  0  0  0  0  0  0  0  0  0
  131.0690  122.4360   63.4510 C   0  0  0  0  0  0  0  0  0  0  0  0
  131.1310  121.3560   62.6320 N   0  0  0  0  0  0  0  0  0  0  0  0
  132.2090  121.1760   61.8230 C   0  0  0  0  0  0  0  0  0  0  0  0
  132.1880  119.9690   60.9350 C   0  0  0  0  0  0  0  0  0  0  0  0
  131.1570  119.0220   61.0360 C   0  0  0  0  0  0  0  0  0  0  0  0
  131.1350  117.8950   60.2170 C   0  0  0  0  0  0  0  0  0  0  0  0
  132.1470  117.7010   59.2830 C   0  0  0  0  0  0  0  0  0  0  0  0
  133.1780  118.6270   59.1600 C   0  0  0  0  0  0  0  0  0  0  0  0
  133.1950  119.7520   59.9790 C   0  0  0  0  0  0  0  0  0  0  0  0
  133.2620  122.0980   61.8170 C   0  0  0  0  0  0  0  0  0  0  0  0
  133.2150  123.2170   62.6560 C   0  0  0  0  0  0  0  0  0  0  0  0
  134.3860  124.1980   62.6180 C   0  0  0  0  0  0  0  0  0  0  0  0
  132.0980  123.4020   63.4970 C   0  0  0  0  0  0  0  0  0  0  0  0
  132.0200  124.5650   64.3850 C   0  0  0  0  0  0  0  0  0  0  0  0
  131.9590  125.4840   65.0870 N   0  0  0  0  0  0  0  0  0  0  0  0
  1  2  1  0
  2  3  1  0
  3  4  1  0
  4  5  1  0
  5  6  1  0
  6  7  1  0
  7  8  1  0
  8  9  1  0
  9 10  1  0
 10 11  1  0
 11 12  1  0
 12 13  2  0
 12 14  1  0
 14 15  1  0
 15 16  1  0
 16 17  2  0
 17 18  1  0
 18 19  1  0
 19 20  2  0
 20 21  1  0
 21 22  2  0
 22 23  1  0
 23 24  2  0
 18 25  2  0
 25 26  1  0
 26 27  1  0
 26 28  2  0
 28 29  1  0
 29 30  3  0
 28 16  1  0
 24 19  1  0
M  END
>  <Binding energies>  (32) 
[-7.54]

>  <Ligand effiencies>  (32) 
[-0.2432258064516129]

>  <Interactions>  (32) 
["V-A:ASP:366:CG:3212, V-B:GLU:543:CD:9879, V-B:PRO:540:N:9855, H-B:ALA:541:N:9862, H-A:TYR:484:OH:4347, V-B:PRO:540:CA:9854, V-B:TYR:539:C:9838, V-A:LEU:475:CD2:4258, V-A:HIS:383:CE1:3393, V-A:ILE:369:CD1:3238, V-B:TYR:539:CD2:9845, V-A:ILE:369:CG2:3236, V-B:TYR:539:CE2:9847, V-B:TYR:539:CB:9842, V-A:SER:385:CA:3406, V-A:GLY:454:CA:4048, V-A:LEU:373:CD1:3279, V-B:TYR:539:CG:9843, V-B:MET:535:CE:9806, V-B:GLU:543:CG:9878, V-B:PRO:540:CB:9856, V-A:GLY:453:C:4041, V-B:PRO:540:CD:9858, V-B:LEU:363:CD1:8159, V-B:ILE:538:CD1:9836, V-B:ILE:538:CA:9831, V-A:GLY:453:CA:4043, V-B:ILE:538:C:9829, V-A:LEU:373:CG:3278, V-A:LEU:373:CD2:3280, H-B:TYR:531:OH:9766, V-B:MET:535:CG:9804, V-B:PRO:540:CG:9857"]

$$$$
3cb_Grossjean_2025
     RDKit          3D

 30 32  0  0  0  0  0  0  0  0999 V2000
  126.1230  122.2480   54.9190 C   0  0  0  0  0  0  0  0  0  0  0  0
  126.7580  122.2350   56.1890 O   0  0  0  0  0  0  0  0  0  0  0  0
  126.6360  123.2840   57.0430 C   0  0  0  0  0  0  0  0  0  0  0  0
  125.6020  123.9470   57.1630 O   0  0  0  0  0  0  0  0  0  0  0  0
  127.8880  123.5590   57.8270 C   0  0  0  0  0  0  0  0  0  0  0  0
  128.2490  122.7920   58.9450 C   0  0  0  0  0  0  0  0  0  0  0  0
  129.4170  123.0730   59.6480 C   0  0  0  0  0  0  0  0  0  0  0  0
  130.2450  124.1250   59.2550 C   0  0  0  0  0  0  0  0  0  0  0  0
  131.4030  124.3170   60.0350 N   0  0  0  0  0  0  0  0  0  0  0  0
  132.7050  124.3000   59.6760 C   0  0  0  0  0  0  0  0  0  0  0  0
  133.1180  124.1200   58.5290 O   0  0  0  0  0  0  0  0  0  0  0  0
  133.6880  124.5490   60.8300 C   0  0  0  0  0  0  0  0  0  0  0  0
  133.0120  124.2340   62.4970 S   0  0  0  0  0  0  0  0  0  0  0  0
  131.7440  122.9930   62.3450 C   0  0  0  0  0  0  0  0  0  0  0  0
  130.5360  123.3960   62.8090 N   0  0  0  0  0  0  0  0  0  0  0  0
  129.4970  122.5360   62.7440 C   0  0  0  0  0  0  0  0  0  0  0  0
  128.1730  123.0590   63.2700 C   0  0  0  0  0  0  0  0  0  0  0  0
  129.6190  121.2500   62.2250 C   0  0  0  0  0  0  0  0  0  0  0  0
  130.8610  120.8050   61.7550 C   0  0  0  0  0  0  0  0  0  0  0  0
  130.9420  119.4140   61.2130 C   0  0  0  0  0  0  0  0  0  0  0  0
  130.0020  118.4520   61.6010 C   0  0  0  0  0  0  0  0  0  0  0  0
  130.0620  117.1560   61.0930 C   0  0  0  0  0  0  0  0  0  0  0  0
  131.0650  116.8180   60.1880 C   0  0  0  0  0  0  0  0  0  0  0  0
  132.0030  117.7640   59.7850 C   0  0  0  0  0  0  0  0  0  0  0  0
  131.9390  119.0590   60.2930 C   0  0  0  0  0  0  0  0  0  0  0  0
  131.9660  121.6920   61.8280 C   0  0  0  0  0  0  0  0  0  0  0  0
  133.3080  121.2490   61.4370 C   0  0  0  0  0  0  0  0  0  0  0  0
  134.3670  120.9000   61.1290 N   0  0  0  0  0  0  0  0  0  0  0  0
  129.8940  124.8940   58.1350 C   0  0  0  0  0  0  0  0  0  0  0  0
  128.7250  124.6120   57.4320 C   0  0  0  0  0  0  0  0  0  0  0  0
  1  2  1  0
  2  3  1  0
  3  4  2  0
  3  5  1  0
  5  6  2  0
  6  7  1  0
  7  8  2  0
  8  9  1  0
  9 10  1  0
 10 11  2  0
 10 12  1  0
 12 13  1  0
 13 14  1  0
 14 15  2  0
 15 16  1  0
 16 17  1  0
 16 18  2  0
 18 19  1  0
 19 20  1  0
 20 21  2  0
 21 22  1  0
 22 23  2  0
 23 24  1  0
 24 25  2  0
 19 26  2  0
 26 27  1  0
 27 28  3  0
  8 29  1  0
 29 30  2  0
 30  5  1  0
 26 14  1  0
 25 20  1  0
M  END
>  <Binding energies>  (33) 
[-8.83]

>  <Ligand effiencies>  (33) 
[-0.28483870967741937]

>  <Interactions>  (33) 
["V-A:ASP:366:CG:3212, V-A:ASP:366:CB:3211, V-B:GLU:543:CD:9879, V-B:PRO:540:N:9855, V-B:ALA:541:CB:9863, V-B:PRO:540:CA:9854, V-B:ALA:541:CA:9861, V-B:TYR:539:C:9838, V-A:LEU:475:CD2:4258, V-A:PRO:482:CG:4326, V-A:HIS:383:CE1:3393, V-A:ILE:369:CD1:3238, V-B:TYR:539:CD2:9845, V-A:ILE:369:CG2:3236, V-B:TYR:539:CE2:9847, V-B:TYR:539:CB:9842, H-B:TYR:539:N:9841, V-B:VAL:344:CG1:7971, V-B:TYR:539:CG:9843, V-B:MET:535:CE:9806, H-B:TYR:539:OH:9849, V-B:TYR:539:CZ:9848, V-A:PRO:482:CB:4325, V-B:TYR:531:CE2:9764, V-B:ILE:538:CD1:9836, V-B:ILE:538:CG2:9834, H-A:ASP:366:OD2:3214, V-B:ILE:538:CA:9831, V-B:ILE:538:C:9829, V-B:ILE:538:CB:9833, H-B:TYR:531:OH:9766, V-B:MET:535:CG:9804"]

$$$$
3ch_Grossjean_2025
     RDKit          3D

 32 34  0  0  0  0  0  0  0  0999 V2000
  131.2430  127.5880   68.2370 C   0  0  0  0  0  0  0  0  0  0  0  0
  132.2850  126.9270   67.5270 O   0  0  0  0  0  0  0  0  0  0  0  0
  132.0490  126.4620   66.2460 C   0  0  0  0  0  0  0  0  0  0  0  0
  130.7940  126.4940   65.6170 C   0  0  0  0  0  0  0  0  0  0  0  0
  130.6320  126.0130   64.3100 C   0  0  0  0  0  0  0  0  0  0  0  0
  129.4180  126.0080   63.5970 N   0  0  0  0  0  0  0  0  0  0  0  0
  129.2010  125.9990   62.2630 C   0  0  0  0  0  0  0  0  0  0  0  0
  130.0750  125.9790   61.3970 O   0  0  0  0  0  0  0  0  0  0  0  0
  127.7340  125.9690   61.8350 C   0  0  0  0  0  0  0  0  0  0  0  0
  127.0160  124.3040   61.9600 S   0  0  0  0  0  0  0  0  0  0  0  0
  128.3140  123.2510   62.5720 C   0  0  0  0  0  0  0  0  0  0  0  0
  128.4320  123.2530   63.9220 N   0  0  0  0  0  0  0  0  0  0  0  0
  129.3950  122.4900   64.4870 C   0  0  0  0  0  0  0  0  0  0  0  0
  129.4760  122.5430   66.0010 C   0  0  0  0  0  0  0  0  0  0  0  0
  130.2680  121.7060   63.7380 C   0  0  0  0  0  0  0  0  0  0  0  0
  130.1570  121.6850   62.3400 C   0  0  0  0  0  0  0  0  0  0  0  0
  131.1220  120.8370   61.5760 C   0  0  0  0  0  0  0  0  0  0  0  0
  130.8000  119.5110   61.2650 C   0  0  0  0  0  0  0  0  0  0  0  0
  131.6970  118.7120   60.5610 C   0  0  0  0  0  0  0  0  0  0  0  0
  132.9260  119.2380   60.1680 C   0  0  0  0  0  0  0  0  0  0  0  0
  133.2650  120.5520   60.4760 C   0  0  0  0  0  0  0  0  0  0  0  0
  132.3650  121.3480   61.1810 C   0  0  0  0  0  0  0  0  0  0  0  0
  129.1390  122.4650   61.7340 C   0  0  0  0  0  0  0  0  0  0  0  0
  128.9160  122.4080   60.2860 C   0  0  0  0  0  0  0  0  0  0  0  0
  128.7400  122.3650   59.1430 N   0  0  0  0  0  0  0  0  0  0  0  0
  131.7350  125.4800   63.6400 C   0  0  0  0  0  0  0  0  0  0  0  0
  132.9990  125.4350   64.2480 C   0  0  0  0  0  0  0  0  0  0  0  0
  134.1330  124.9270   63.6370 O   0  0  0  0  0  0  0  0  0  0  0  0
  134.0180  124.2830   62.3730 C   0  0  0  0  0  0  0  0  0  0  0  0
  133.1420  125.9270   65.5520 C   0  0  0  0  0  0  0  0  0  0  0  0
  134.3790  125.9050   66.1520 O   0  0  0  0  0  0  0  0  0  0  0  0
  134.3770  125.3590   67.4640 C   0  0  0  0  0  0  0  0  0  0  0  0
  1  2  1  0
  2  3  1  0
  3  4  2  0
  4  5  1  0
  5  6  1  0
  6  7  1  0
  7  8  2  0
  7  9  1  0
  9 10  1  0
 10 11  1  0
 11 12  2  0
 12 13  1  0
 13 14  1  0
 13 15  2  0
 15 16  1  0
 16 17  1  0
 17 18  2  0
 18 19  1  0
 19 20  2  0
 20 21  1  0
 21 22  2  0
 16 23  2  0
 23 24  1  0
 24 25  3  0
  5 26  2  0
 26 27  1  0
 27 28  1  0
 28 29  1  0
 27 30  2  0
 30 31  1  0
 31 32  1  0
 30  3  1  0
 23 11  1  0
 22 17  1  0
M  END
>  <Binding energies>  (34) 
[-7.96]

>  <Ligand effiencies>  (34) 
[-0.2412121212121212]

>  <Interactions>  (34) 
["V-A:ASP:366:CG:3212, V-B:GLU:543:CD:9879, H-A:TYR:484:OH:4347, V-B:ALA:541:CB:9863, V-B:PRO:540:CA:9854, H-B:GLU:543:OE2:9881, H-B:GLU:543:OE1:9880, V-B:TYR:539:C:9838, V-A:LEU:475:CD2:4258, V-A:ILE:369:CD1:3238, V-B:TYR:539:CD2:9845, V-A:ILE:369:CG2:3236, V-B:TYR:539:CE2:9847, V-A:SER:385:CA:3406, V-A:GLY:454:CA:4048, V-B:GLU:543:CG:9878, V-A:LEU:475:CD1:4257, H-A:GLY:454:N:4049, V-A:ARG:545:CD:4922, V-A:ARG:545:CZ:4925, V-A:ARG:545:CG:4921, V-A:HIS:456:CE1:4069, V-A:GLU:543:CD:4907, V-A:GLU:543:CB:4905, H-A:ARG:545:NH1:4926, H-A:ARG:545:NE:4923, V-A:TYR:484:CZ:4346, V-A:TYR:484:CE2:4345, V-A:ILE:455:C:4051, V-A:GLY:454:C:4046"]

$$$$
3ci_Grossjean_2025
     RDKit          3D

 25 27  0  0  0  0  0  0  0  0999 V2000
  129.4790  121.5390   62.1720 C   0  0  0  0  0  0  0  0  0  0  0  0
  129.4430  122.4190   60.9370 C   0  0  0  0  0  0  0  0  0  0  0  0
  128.3840  122.3700   60.0350 C   0  0  0  0  0  0  0  0  0  0  0  0
  128.3880  123.2150   58.9160 C   0  0  0  0  0  0  0  0  0  0  0  0
  127.2240  123.1390   57.9840 C   0  0  0  0  0  0  0  0  0  0  0  0
  125.9930  123.7130   58.3260 C   0  0  0  0  0  0  0  0  0  0  0  0
  124.9080  123.6320   57.4560 C   0  0  0  0  0  0  0  0  0  0  0  0
  125.0490  122.9690   56.2410 C   0  0  0  0  0  0  0  0  0  0  0  0
  126.2630  122.3840   55.8890 C   0  0  0  0  0  0  0  0  0  0  0  0
  127.3450  122.4680   56.7610 C   0  0  0  0  0  0  0  0  0  0  0  0
  129.4890  124.0910   58.7370 C   0  0  0  0  0  0  0  0  0  0  0  0
  129.5690  124.9670   57.5630 C   0  0  0  0  0  0  0  0  0  0  0  0
  129.6300  125.6580   56.6370 N   0  0  0  0  0  0  0  0  0  0  0  0
  130.5220  124.0800   59.7060 C   0  0  0  0  0  0  0  0  0  0  0  0
  131.9450  125.1570   59.5910 S   0  0  0  0  0  0  0  0  0  0  0  0
  133.4390  124.2470   60.1030 C   0  0  0  0  0  0  0  0  0  0  0  0
  133.6080  124.1640   61.6250 C   0  0  0  0  0  0  0  0  0  0  0  0
  134.0780  123.1390   62.1230 O   0  0  0  0  0  0  0  0  0  0  0  0
  133.2020  125.2490   62.3210 N   0  0  0  0  0  0  0  0  0  0  0  0
  133.2700  125.4420   63.6940 C   0  0  0  0  0  0  0  0  0  0  0  0
  132.1520  125.7180   64.4790 C   0  0  0  0  0  0  0  0  0  0  0  0
  132.6370  125.8400   65.7620 C   0  0  0  0  0  0  0  0  0  0  0  0
  133.9780  125.6470   65.7480 O   0  0  0  0  0  0  0  0  0  0  0  0
  134.3670  125.3960   64.4310 N   0  0  0  0  0  0  0  0  0  0  0  0
  130.4960  123.2510   60.7800 N   0  0  0  0  0  0  0  0  0  0  0  0
  1  2  1  0
  2  3  2  0
  3  4  1  0
  4  5  1  0
  5  6  2  0
  6  7  1  0
  7  8  2  0
  8  9  1  0
  9 10  2  0
  4 11  2  0
 11 12  1  0
 12 13  3  0
 11 14  1  0
 14 15  1  0
 15 16  1  0
 16 17  1  0
 17 18  2  0
 17 19  1  0
 19 20  1  0
 20 21  1  0
 21 22  2  0
 22 23  1  0
 23 24  1  0
 14 25  2  0
 25  2  1  0
 10  5  1  0
 24 20  2  0
M  END
>  <Binding energies>  (35) 
[-8.54]

>  <Ligand effiencies>  (35) 
[-0.3284615384615384]

>  <Interactions>  (35) 
["V-A:ASP:366:CG:3212, V-A:ASP:366:CB:3211, V-B:PRO:540:N:9855, H-A:TYR:484:OH:4347, V-B:ALA:541:CB:9863, V-B:PRO:540:CA:9854, V-B:ALA:541:CA:9861, V-B:TYR:539:C:9838, V-A:ILE:369:CD1:3238, V-B:TYR:539:CD2:9845, V-A:ILE:369:CG2:3236, V-B:TYR:539:CE2:9847, V-B:TYR:539:CG:9843, V-B:MET:535:CE:9806, H-B:TYR:539:OH:9849, V-B:TYR:539:CZ:9848, V-B:PRO:540:CB:9856, H-A:GLY:454:N:4049, V-B:TYR:539:CA:9840, V-B:TYR:539:CD1:9844, V-B:TYR:531:CZ:9765, V-B:TYR:531:CE2:9764, V-B:LEU:363:CD1:8159, V-A:ARG:545:CZ:4925, H-A:ASP:366:OD2:3214, H-A:ARG:545:NH1:4926, H-A:ARG:545:NH2:4927, V-B:ILE:538:CA:9831, H-A:ARG:545:NE:4923, H-A:ASP:366:OD1:3213, V-B:MET:535:CG:9804, V-A:ILE:369:CB:3235"]

$$$$
3ck_Grossjean_2025
     RDKit          3D

 30 31  0  0  0  0  0  0  0  0999 V2000
  125.5530  122.3290   55.7580 C   0  0  0  0  0  0  0  0  0  0  0  0
  126.8680  122.0030   56.1800 O   0  0  0  0  0  0  0  0  0  0  0  0
  127.1530  122.4090   57.5110 C   0  0  0  0  0  0  0  0  0  0  0  0
  128.2830  123.4460   57.5000 C   0  0  0  0  0  0  0  0  0  0  0  0
  129.0780  123.2870   58.6680 O   0  0  0  0  0  0  0  0  0  0  0  0
  129.9130  124.4020   58.9550 C   0  0  0  0  0  0  0  0  0  0  0  0
  130.9610  123.9890   59.9950 C   0  0  0  0  0  0  0  0  0  0  0  0
  132.0960  124.8280   59.8430 O   0  0  0  0  0  0  0  0  0  0  0  0
  133.3460  124.1750   60.0080 C   0  0  0  0  0  0  0  0  0  0  0  0
  133.7430  124.1900   61.4970 C   0  0  0  0  0  0  0  0  0  0  0  0
  132.7050  124.7310   62.3790 N   0  0  0  0  0  0  0  0  0  0  0  0
  132.8900  125.1510   63.6430 C   0  0  0  0  0  0  0  0  0  0  0  0
  133.9890  125.1480   64.2020 O   0  0  0  0  0  0  0  0  0  0  0  0
  131.6290  125.6500   64.3670 C   0  0  0  0  0  0  0  0  0  0  0  0
  130.5080  124.3440   64.9770 S   0  0  0  0  0  0  0  0  0  0  0  0
  130.0300  123.2970   63.6110 C   0  0  0  0  0  0  0  0  0  0  0  0
  128.8210  123.5690   63.0600 N   0  0  0  0  0  0  0  0  0  0  0  0
  128.3930  122.8130   62.0240 C   0  0  0  0  0  0  0  0  0  0  0  0
  127.0320  123.1740   61.4620 C   0  0  0  0  0  0  0  0  0  0  0  0
  129.1450  121.7640   61.4990 C   0  0  0  0  0  0  0  0  0  0  0  0
  130.3940  121.4620   62.0570 C   0  0  0  0  0  0  0  0  0  0  0  0
  131.1550  120.3140   61.4770 C   0  0  0  0  0  0  0  0  0  0  0  0
  132.3990  120.5290   60.8730 C   0  0  0  0  0  0  0  0  0  0  0  0
  133.1100  119.4640   60.3210 C   0  0  0  0  0  0  0  0  0  0  0  0
  132.5740  118.1810   60.3680 C   0  0  0  0  0  0  0  0  0  0  0  0
  131.3330  117.9520   60.9580 C   0  0  0  0  0  0  0  0  0  0  0  0
  130.6260  119.0180   61.5080 C   0  0  0  0  0  0  0  0  0  0  0  0
  130.8610  122.2550   63.1360 C   0  0  0  0  0  0  0  0  0  0  0  0
  132.1790  122.0110   63.7320 C   0  0  0  0  0  0  0  0  0  0  0  0
  133.2190  121.8180   64.2010 N   0  0  0  0  0  0  0  0  0  0  0  0
  1  2  1  0
  2  3  1  0
  3  4  1  0
  4  5  1  0
  5  6  1  0
  6  7  1  0
  7  8  1  0
  8  9  1  0
  9 10  1  0
 10 11  1  0
 11 12  1  0
 12 13  2  0
 12 14  1  0
 14 15  1  0
 15 16  1  0
 16 17  2  0
 17 18  1  0
 18 19  1  0
 18 20  2  0
 20 21  1  0
 21 22  1  0
 22 23  2  0
 23 24  1  0
 24 25  2  0
 25 26  1  0
 26 27  2  0
 21 28  2  0
 28 29  1  0
 29 30  3  0
 28 16  1  0
 27 22  1  0
M  END
>  <Binding energies>  (36) 
[-7.47]

>  <Ligand effiencies>  (36) 
[-0.24096774193548387]

>  <Interactions>  (36) 
["V-A:ASP:366:CG:3212, V-A:ASP:366:CB:3211, V-B:PRO:540:N:9855, H-A:TYR:484:OH:4347, V-B:ALA:541:CB:9863, V-B:PRO:540:CA:9854, V-B:PRO:540:C:9852, V-B:TYR:539:C:9838, V-A:LEU:475:CD2:4258, V-A:ILE:369:CD1:3238, V-B:TYR:539:CD2:9845, V-A:ILE:369:CG2:3236, V-B:TYR:539:CE2:9847, V-A:SER:385:CA:3406, V-A:SER:385:CB:3408, V-A:GLY:454:CA:4048, H-B:TYR:539:N:9841, V-B:MET:535:CE:9806, V-B:TYR:539:CZ:9848, H-A:GLY:454:N:4049, V-B:TYR:539:CA:9840, V-B:PRO:540:CD:9858, V-B:TYR:531:CE2:9764, V-B:LEU:363:CD1:8159, V-B:ILE:538:CD1:9836, V-B:ILE:538:CG2:9834, H-A:ASP:366:OD2:3214, H-A:ARG:545:NH1:4926, H-A:ARG:545:NH2:4927, V-B:ILE:538:CA:9831, V-A:ILE:369:CB:3235"]

$$$$
4aa_Grossjean_2025
     RDKit          3D

 26 28  0  0  0  0  0  0  0  0999 V2000
  124.2490  124.3330   57.7670 C   0  0  0  0  0  0  0  0  0  0  0  0
  124.7490  122.9710   57.2760 C   0  0  0  0  0  0  0  0  0  0  0  0
  125.7170  123.1650   56.2530 O   0  0  0  0  0  0  0  0  0  0  0  0
  126.9560  122.6170   56.3470 C   0  0  0  0  0  0  0  0  0  0  0  0
  127.3760  121.7460   55.5770 O   0  0  0  0  0  0  0  0  0  0  0  0
  127.7660  123.1710   57.4830 C   0  0  0  0  0  0  0  0  0  0  0  0
  127.7830  122.4900   58.7070 C   0  0  0  0  0  0  0  0  0  0  0  0
  128.5190  122.9820   59.7820 C   0  0  0  0  0  0  0  0  0  0  0  0
  129.2610  124.1570   59.6520 C   0  0  0  0  0  0  0  0  0  0  0  0
  129.9610  124.5680   60.8020 N   0  0  0  0  0  0  0  0  0  0  0  0
  130.2430  125.8130   61.2560 C   0  0  0  0  0  0  0  0  0  0  0  0
  129.9410  126.8500   60.6630 O   0  0  0  0  0  0  0  0  0  0  0  0
  130.9740  125.8660   62.5230 C   0  0  0  0  0  0  0  0  0  0  0  0
  132.6400  125.2890   62.6150 S   0  0  0  0  0  0  0  0  0  0  0  0
  132.7160  125.6400   64.3260 C   0  0  0  0  0  0  0  0  0  0  0  0
  133.8150  125.4050   65.0460 N   0  0  0  0  0  0  0  0  0  0  0  0
  133.7400  125.7180   66.3630 C   0  0  0  0  0  0  0  0  0  0  0  0
  134.9990  125.4390   67.1650 C   0  0  0  0  0  0  0  0  0  0  0  0
  132.6080  126.2570   66.9690 C   0  0  0  0  0  0  0  0  0  0  0  0
  131.4580  126.5020   66.2110 C   0  0  0  0  0  0  0  0  0  0  0  0
  130.2460  127.0910   66.9180 C   0  0  0  0  0  0  0  0  0  0  0  0
  131.4950  126.1830   64.8270 C   0  0  0  0  0  0  0  0  0  0  0  0
  130.5170  126.2980   63.7780 C   0  0  0  0  0  0  0  0  0  0  0  0
  129.2570  126.7910   64.0050 N   0  0  0  0  0  0  0  0  0  0  0  0
  129.2460  124.8490   58.4320 C   0  0  0  0  0  0  0  0  0  0  0  0
  128.5050  124.3580   57.3600 C   0  0  0  0  0  0  0  0  0  0  0  0
  1  2  1  0
  2  3  1  0
  3  4  1  0
  4  5  2  0
  4  6  1  0
  6  7  2  0
  7  8  1  0
  8  9  2  0
  9 10  1  0
 10 11  1  0
 11 12  2  0
 11 13  1  0
 13 14  1  0
 14 15  1  0
 15 16  2  0
 16 17  1  0
 17 18  1  0
 17 19  2  0
 19 20  1  0
 20 21  1  0
 20 22  2  0
 22 23  1  0
 23 24  1  0
  9 25  1  0
 25 26  2  0
 26  6  1  0
 23 13  2  0
 22 15  1  0
M  END
>  <Binding energies>  (37) 
[-8.14]

>  <Ligand effiencies>  (37) 
[-0.2806896551724138]

>  <Interactions>  (37) 
["V-A:ASP:366:CG:3212, V-B:GLU:543:CD:9879, V-B:PRO:540:N:9855, H-A:TYR:484:OH:4347, V-B:PRO:540:CA:9854, H-B:GLU:543:OE2:9881, H-B:GLU:543:OE1:9880, V-B:TYR:539:C:9838, V-B:TYR:539:CD2:9845, V-B:TYR:539:CE2:9847, V-A:GLY:454:CA:4048, H-B:TYR:539:N:9841, V-B:MET:535:CE:9806, V-B:TYR:539:CZ:9848, V-B:PRO:540:CB:9856, H-A:GLY:454:N:4049, V-A:GLY:453:C:4041, V-A:ARG:545:CD:4922, V-B:TYR:531:CZ:9765, V-B:PRO:540:CD:9858, V-B:TYR:531:CE2:9764, V-B:LEU:363:CD1:8159, V-A:ARG:545:CZ:4925, V-A:ARG:545:CG:4921, V-A:HIS:456:CE1:4069, V-A:GLU:543:CD:4907, H-A:ARG:545:NH2:4927, V-A:GLY:453:CA:4043, H-A:ARG:545:NE:4923, H-B:TYR:531:OH:9766, V-B:PRO:540:CG:9857, V-A:ILE:455:C:4051, V-A:GLY:454:C:4046"]

$$$$
4ab_Grossjean_2025
     RDKit          3D

 25 27  0  0  0  0  0  0  0  0999 V2000
  124.6670  123.4900   57.3450 C   0  0  0  0  0  0  0  0  0  0  0  0
  125.6910  123.5520   56.3620 O   0  0  0  0  0  0  0  0  0  0  0  0
  126.8450  122.8530   56.5100 C   0  0  0  0  0  0  0  0  0  0  0  0
  127.2320  121.9990   55.7050 O   0  0  0  0  0  0  0  0  0  0  0  0
  127.6030  123.2170   57.7540 C   0  0  0  0  0  0  0  0  0  0  0  0
  128.7130  124.0660   57.6540 C   0  0  0  0  0  0  0  0  0  0  0  0
  129.4380  124.4200   58.7890 C   0  0  0  0  0  0  0  0  0  0  0  0
  129.0630  123.9430   60.0450 C   0  0  0  0  0  0  0  0  0  0  0  0
  129.8700  124.3580   61.1210 N   0  0  0  0  0  0  0  0  0  0  0  0
  130.9310  125.2020   61.1430 C   0  0  0  0  0  0  0  0  0  0  0  0
  131.4080  125.7410   60.1440 O   0  0  0  0  0  0  0  0  0  0  0  0
  131.5190  125.4300   62.4640 C   0  0  0  0  0  0  0  0  0  0  0  0
  133.2030  125.0020   62.7750 S   0  0  0  0  0  0  0  0  0  0  0  0
  133.0750  125.5140   64.4420 C   0  0  0  0  0  0  0  0  0  0  0  0
  134.1050  125.4360   65.2860 N   0  0  0  0  0  0  0  0  0  0  0  0
  133.8720  125.8630   66.5510 C   0  0  0  0  0  0  0  0  0  0  0  0
  135.0550  125.7610   67.4960 C   0  0  0  0  0  0  0  0  0  0  0  0
  132.6480  126.3640   66.9870 C   0  0  0  0  0  0  0  0  0  0  0  0
  131.5690  126.4440   66.0990 C   0  0  0  0  0  0  0  0  0  0  0  0
  130.2520  126.9970   66.6230 C   0  0  0  0  0  0  0  0  0  0  0  0
  131.7730  126.0020   64.7640 C   0  0  0  0  0  0  0  0  0  0  0  0
  130.9050  125.9370   63.6200 C   0  0  0  0  0  0  0  0  0  0  0  0
  129.5950  126.3430   63.6720 N   0  0  0  0  0  0  0  0  0  0  0  0
  127.9560  123.0880   60.1540 C   0  0  0  0  0  0  0  0  0  0  0  0
  127.2340  122.7330   59.0180 C   0  0  0  0  0  0  0  0  0  0  0  0
  1  2  1  0
  2  3  1  0
  3  4  2  0
  3  5  1  0
  5  6  2  0
  6  7  1  0
  7  8  2  0
  8  9  1  0
  9 10  1  0
 10 11  2  0
 10 12  1  0
 12 13  1  0
 13 14  1  0
 14 15  2  0
 15 16  1  0
 16 17  1  0
 16 18  2  0
 18 19  1  0
 19 20  1  0
 19 21  2  0
 21 22  1  0
 22 23  1  0
  8 24  1  0
 24 25  2  0
 25  5  1  0
 22 12  2  0
 21 14  1  0
M  END
>  <Binding energies>  (38) 
[-7.97]

>  <Ligand effiencies>  (38) 
[-0.28464285714285714]

>  <Interactions>  (38) 
["V-A:ASP:366:CG:3212, V-B:GLU:543:CD:9879, V-B:PRO:540:N:9855, H-A:TYR:484:OH:4347, V-B:PRO:540:CA:9854, H-B:GLU:543:OE2:9881, H-B:GLU:543:OE1:9880, V-B:TYR:539:C:9838, V-B:TYR:539:CE2:9847, H-B:TYR:539:N:9841, V-B:MET:535:CE:9806, V-B:TYR:539:CZ:9848, V-B:PRO:540:CB:9856, H-A:GLY:454:N:4049, V-A:GLY:453:C:4041, V-A:ARG:545:CD:4922, V-B:TYR:531:CE2:9764, V-B:LEU:363:CD1:8159, V-A:ARG:545:CZ:4925, V-A:ARG:545:CG:4921, V-A:HIS:456:CE1:4069, V-A:GLU:543:CD:4907, H-A:ARG:545:NH1:4926, V-A:GLY:453:CA:4043, H-A:ARG:545:NE:4923, H-B:TYR:531:OH:9766, V-A:ILE:455:C:4051, V-A:ARG:545:CB:4920"]

$$$$
4ac_Grossjean_2025
     RDKit          3D

 23 25  0  0  0  0  0  0  0  0999 V2000
  133.6330  126.1070   66.7230 C   0  0  0  0  0  0  0  0  0  0  0  0
  133.8830  125.3740   65.5280 O   0  0  0  0  0  0  0  0  0  0  0  0
  132.8400  125.1250   64.6580 C   0  0  0  0  0  0  0  0  0  0  0  0
  133.1520  124.4170   63.4980 C   0  0  0  0  0  0  0  0  0  0  0  0
  132.1650  124.1180   62.5630 C   0  0  0  0  0  0  0  0  0  0  0  0
  130.8460  124.5170   62.7820 C   0  0  0  0  0  0  0  0  0  0  0  0
  129.9200  124.1820   61.7760 N   0  0  0  0  0  0  0  0  0  0  0  0
  128.6260  123.7980   61.8950 C   0  0  0  0  0  0  0  0  0  0  0  0
  128.0500  123.6460   62.9740 O   0  0  0  0  0  0  0  0  0  0  0  0
  127.9240  123.5560   60.6330 C   0  0  0  0  0  0  0  0  0  0  0  0
  128.7530  122.7740   59.2870 S   0  0  0  0  0  0  0  0  0  0  0  0
  127.3240  122.8780   58.2840 C   0  0  0  0  0  0  0  0  0  0  0  0
  127.3040  122.4150   57.0330 N   0  0  0  0  0  0  0  0  0  0  0  0
  126.1340  122.5570   56.3650 C   0  0  0  0  0  0  0  0  0  0  0  0
  126.1310  122.0240   54.9440 C   0  0  0  0  0  0  0  0  0  0  0  0
  124.9960  123.1480   56.9110 C   0  0  0  0  0  0  0  0  0  0  0  0
  125.0210  123.6330   58.2240 C   0  0  0  0  0  0  0  0  0  0  0  0
  123.7540  124.2690   58.7750 C   0  0  0  0  0  0  0  0  0  0  0  0
  126.2300  123.4990   58.9570 C   0  0  0  0  0  0  0  0  0  0  0  0
  126.5990  123.8750   60.2950 C   0  0  0  0  0  0  0  0  0  0  0  0
  125.7200  124.4900   61.1510 N   0  0  0  0  0  0  0  0  0  0  0  0
  130.5260  125.2400   63.9400 C   0  0  0  0  0  0  0  0  0  0  0  0
  131.5160  125.5380   64.8730 C   0  0  0  0  0  0  0  0  0  0  0  0
  1  2  1  0
  2  3  1  0
  3  4  2  0
  4  5  1  0
  5  6  2  0
  6  7  1  0
  7  8  1  0
  8  9  2  0
  8 10  1  0
 10 11  1  0
 11 12  1  0
 12 13  2  0
 13 14  1  0
 14 15  1  0
 14 16  2  0
 16 17  1  0
 17 18  1  0
 17 19  2  0
 19 20  1  0
 20 21  1  0
  6 22  1  0
 22 23  2  0
 23  3  1  0
 20 10  2  0
 19 12  1  0
M  END
>  <Binding energies>  (39) 
[-7.4]

>  <Ligand effiencies>  (39) 
[-0.2846153846153846]

>  <Interactions>  (39) 
["V-B:PRO:540:N:9855, H-A:TYR:484:OH:4347, V-B:PRO:540:CA:9854, H-B:GLU:543:OE1:9880, V-B:TYR:539:C:9838, V-B:TYR:539:CD2:9845, V-B:TYR:539:CE2:9847, H-B:TYR:539:N:9841, V-B:MET:535:CE:9806, V-B:PRO:540:CB:9856, H-A:GLY:454:N:4049, V-A:ARG:545:CD:4922, V-B:PRO:540:CD:9858, V-B:TYR:531:CE2:9764, V-B:LEU:363:CD1:8159, V-A:ARG:545:CZ:4925, V-B:ILE:538:CD1:9836, V-A:ARG:545:CG:4921, V-B:ILE:538:CG2:9834, V-B:ILE:538:CA:9831, V-B:ILE:538:CG1:9835, V-B:ILE:538:C:9829, V-B:ILE:538:CB:9833, H-A:ARG:545:NE:4923, V-B:ASP:366:CB:8182, V-B:ASP:366:CG:8183, V-B:MET:535:CG:9804, V-B:LEU:363:CA:8155, V-B:VAL:537:C:9821, H-B:ASP:366:OD1:8184"]

$$$$
4ad_Grossjean_2025
     RDKit          3D

 21 23  0  0  0  0  0  0  0  0999 V2000
  126.2300  122.0060   54.7480 C   0  0  0  0  0  0  0  0  0  0  0  0
  126.0980  122.5220   56.1690 C   0  0  0  0  0  0  0  0  0  0  0  0
  124.9350  123.1590   56.5960 C   0  0  0  0  0  0  0  0  0  0  0  0
  124.8370  123.6300   57.9110 C   0  0  0  0  0  0  0  0  0  0  0  0
  123.5480  124.3210   58.3300 C   0  0  0  0  0  0  0  0  0  0  0  0
  125.9510  123.4330   58.7700 C   0  0  0  0  0  0  0  0  0  0  0  0
  126.1880  123.7790   60.1460 C   0  0  0  0  0  0  0  0  0  0  0  0
  125.2470  124.4230   60.9100 N   0  0  0  0  0  0  0  0  0  0  0  0
  127.4540  123.3990   60.6210 C   0  0  0  0  0  0  0  0  0  0  0  0
  128.0280  123.6070   61.9510 C   0  0  0  0  0  0  0  0  0  0  0  0
  127.4850  123.1320   62.9510 O   0  0  0  0  0  0  0  0  0  0  0  0
  129.1740  124.3310   61.9830 N   0  0  0  0  0  0  0  0  0  0  0  0
  129.9440  124.7400   63.0880 C   0  0  0  0  0  0  0  0  0  0  0  0
  130.8660  123.8060   63.5710 C   0  0  0  0  0  0  0  0  0  0  0  0
  131.6820  124.1190   64.6540 C   0  0  0  0  0  0  0  0  0  0  0  0
  131.5830  125.3730   65.2520 C   0  0  0  0  0  0  0  0  0  0  0  0
  130.6790  126.3170   64.7720 C   0  0  0  0  0  0  0  0  0  0  0  0
  129.8610  126.0060   63.6900 C   0  0  0  0  0  0  0  0  0  0  0  0
  128.3880  122.5900   59.3620 S   0  0  0  0  0  0  0  0  0  0  0  0
  127.0840  122.7680   58.2110 C   0  0  0  0  0  0  0  0  0  0  0  0
  127.1800  122.3180   56.9590 N   0  0  0  0  0  0  0  0  0  0  0  0
  1  2  1  0
  2  3  2  0
  3  4  1  0
  4  5  1  0
  4  6  2  0
  6  7  1  0
  7  8  1  0
  7  9  2  0
  9 10  1  0
 10 11  2  0
 10 12  1  0
 12 13  1  0
 13 14  2  0
 14 15  1  0
 15 16  2  0
 16 17  1  0
 17 18  2  0
  9 19  1  0
 19 20  1  0
 20 21  2  0
 21  2  1  0
 20  6  1  0
 18 13  1  0
M  END
>  <Binding energies>  (40) 
[-6.94]

>  <Ligand effiencies>  (40) 
[-0.2891666666666667]

>  <Interactions>  (40) 
["V-B:PRO:540:N:9855, H-B:ALA:541:N:9862, V-B:PRO:540:CA:9854, V-B:TYR:539:C:9838, V-B:TYR:539:CD2:9845, V-B:TYR:539:CE2:9847, H-B:TYR:539:N:9841, V-B:MET:535:CE:9806, V-B:PRO:540:CB:9856, V-B:TYR:531:CZ:9765, V-B:PRO:540:CD:9858, V-B:TYR:531:CE2:9764, V-B:LEU:363:CD1:8159, V-B:ILE:538:CD1:9836, V-B:ILE:538:CG2:9834, V-B:ILE:538:CA:9831, V-B:ILE:538:CG1:9835, V-B:ILE:538:C:9829, V-B:ILE:538:CB:9833, V-B:ASP:366:CB:8182, V-B:ASP:366:CG:8183, V-B:MET:535:CG:9804, V-B:LEU:363:CA:8155, V-B:VAL:537:C:9821, H-B:ASP:366:OD1:8184, V-B:LEU:363:CB:8157"]

$$$$
4ae_Grossjean_2025
     RDKit          3D

 22 24  0  0  0  0  0  0  0  0999 V2000
  126.5100  121.9990   55.1230 C   0  0  0  0  0  0  0  0  0  0  0  0
  126.0940  122.5770   56.4620 C   0  0  0  0  0  0  0  0  0  0  0  0
  124.7860  123.0090   56.6970 C   0  0  0  0  0  0  0  0  0  0  0  0
  124.4770  123.5380   57.9500 C   0  0  0  0  0  0  0  0  0  0  0  0
  125.4720  123.6230   58.9270 C   0  0  0  0  0  0  0  0  0  0  0  0
  126.7590  123.1640   58.6280 C   0  0  0  0  0  0  0  0  0  0  0  0
  127.7220  123.2950   59.6440 N   0  0  0  0  0  0  0  0  0  0  0  0
  127.5630  123.1610   60.9850 C   0  0  0  0  0  0  0  0  0  0  0  0
  126.4880  122.8970   61.5250 O   0  0  0  0  0  0  0  0  0  0  0  0
  128.7760  123.3570   61.7820 C   0  0  0  0  0  0  0  0  0  0  0  0
  128.9370  124.7700   62.8260 S   0  0  0  0  0  0  0  0  0  0  0  0
  130.5410  124.2820   63.3210 C   0  0  0  0  0  0  0  0  0  0  0  0
  131.2650  125.0020   64.1780 N   0  0  0  0  0  0  0  0  0  0  0  0
  132.4940  124.5160   64.4750 C   0  0  0  0  0  0  0  0  0  0  0  0
  133.3040  125.3550   65.4470 C   0  0  0  0  0  0  0  0  0  0  0  0
  133.0110  123.3360   63.9410 C   0  0  0  0  0  0  0  0  0  0  0  0
  132.2480  122.5820   63.0430 C   0  0  0  0  0  0  0  0  0  0  0  0
  132.8560  121.3040   62.4850 C   0  0  0  0  0  0  0  0  0  0  0  0
  130.9530  123.0620   62.7060 C   0  0  0  0  0  0  0  0  0  0  0  0
  129.9270  122.5540   61.8340 C   0  0  0  0  0  0  0  0  0  0  0  0
  130.0780  121.3890   61.1250 N   0  0  0  0  0  0  0  0  0  0  0  0
  127.0700  122.6520   57.4010 N   0  0  0  0  0  0  0  0  0  0  0  0
  1  2  1  0
  2  3  2  0
  3  4  1  0
  4  5  2  0
  5  6  1  0
  6  7  1  0
  7  8  1  0
  8  9  2  0
  8 10  1  0
 10 11  1  0
 11 12  1  0
 12 13  2  0
 13 14  1  0
 14 15  1  0
 14 16  2  0
 16 17  1  0
 17 18  1  0
 17 19  2  0
 19 20  1  0
 20 21  1  0
  6 22  2  0
 22  2  1  0
 20 10  2  0
 19 12  1  0
M  END
>  <Binding energies>  (41) 
[-6.82]

>  <Ligand effiencies>  (41) 
[-0.2728]

>  <Interactions>  (41) 
["V-B:GLU:543:CD:9879, V-B:PRO:540:N:9855, H-B:ALA:541:N:9862, V-B:PRO:540:CA:9854, V-B:TYR:539:C:9838, V-A:LEU:475:CD2:4258, H-B:TYR:539:O:9839, V-B:TYR:539:CD2:9845, V-B:TYR:539:CE2:9847, V-A:GLY:454:CA:4048, V-B:MET:535:CE:9806, V-B:PRO:540:CB:9856, V-B:TYR:531:CZ:9765, V-B:PRO:540:CD:9858, V-B:TYR:531:CE2:9764, V-B:LEU:363:CD1:8159, V-A:ARG:545:CZ:4925, V-B:ILE:538:CD1:9836, V-B:ILE:538:CG2:9834, V-B:ILE:538:CA:9831, V-B:ILE:538:C:9829, V-B:ILE:538:CB:9833, V-B:MET:535:CG:9804, V-B:VAL:537:C:9821"]

$$$$
4af_Grossjean_2025
     RDKit          3D

 21 23  0  0  0  0  0  0  0  0999 V2000
  126.4770  122.0060   54.7640 C   0  0  0  0  0  0  0  0  0  0  0  0
  126.2590  122.5220   56.1750 C   0  0  0  0  0  0  0  0  0  0  0  0
  125.0720  123.1570   56.5310 C   0  0  0  0  0  0  0  0  0  0  0  0
  124.8940  123.6270   57.8380 C   0  0  0  0  0  0  0  0  0  0  0  0
  123.5820  124.3150   58.1790 C   0  0  0  0  0  0  0  0  0  0  0  0
  125.9550  123.4310   58.7630 C   0  0  0  0  0  0  0  0  0  0  0  0
  126.1090  123.7800   60.1500 C   0  0  0  0  0  0  0  0  0  0  0  0
  125.1260  124.4280   60.8550 N   0  0  0  0  0  0  0  0  0  0  0  0
  127.3420  123.3970   60.7010 C   0  0  0  0  0  0  0  0  0  0  0  0
  127.8410  123.6170   62.0600 C   0  0  0  0  0  0  0  0  0  0  0  0
  127.2680  123.1150   63.0280 O   0  0  0  0  0  0  0  0  0  0  0  0
  128.9560  124.3820   62.1510 N   0  0  0  0  0  0  0  0  0  0  0  0
  129.6530  124.8170   63.2950 C   0  0  0  0  0  0  0  0  0  0  0  0
  130.2320  126.0880   63.4620 C   0  0  0  0  0  0  0  0  0  0  0  0
  130.9130  126.3870   64.6440 C   0  0  0  0  0  0  0  0  0  0  0  0
  131.0030  125.4040   65.6300 C   0  0  0  0  0  0  0  0  0  0  0  0
  130.4610  124.1680   65.4900 N   0  0  0  0  0  0  0  0  0  0  0  0
  129.8020  123.8930   64.3360 C   0  0  0  0  0  0  0  0  0  0  0  0
  128.3530  122.5890   59.5010 S   0  0  0  0  0  0  0  0  0  0  0  0
  127.1190  122.7660   58.2740 C   0  0  0  0  0  0  0  0  0  0  0  0
  127.2910  122.3170   57.0300 N   0  0  0  0  0  0  0  0  0  0  0  0
  1  2  1  0
  2  3  2  0
  3  4  1  0
  4  5  1  0
  4  6  2  0
  6  7  1  0
  7  8  1  0
  7  9  2  0
  9 10  1  0
 10 11  2  0
 10 12  1  0
 12 13  1  0
 13 14  2  0
 14 15  1  0
 15 16  2  0
 16 17  1  0
 17 18  2  0
  9 19  1  0
 19 20  1  0
 20 21  2  0
 21  2  1  0
 20  6  1  0
 18 13  1  0
M  END
>  <Binding energies>  (42) 
[-7.28]

>  <Ligand effiencies>  (42) 
[-0.30333333333333334]

>  <Interactions>  (42) 
["V-B:GLU:543:CD:9879, V-B:PRO:540:N:9855, H-B:ALA:541:N:9862, H-A:TYR:484:OH:4347, V-B:PRO:540:CA:9854, V-B:TYR:539:C:9838, V-B:TYR:539:CD2:9845, V-B:TYR:539:CE2:9847, H-B:TYR:539:N:9841, V-B:MET:535:CE:9806, V-B:PRO:540:CB:9856, V-B:TYR:531:CZ:9765, V-B:PRO:540:CD:9858, V-B:TYR:531:CE2:9764, V-B:LEU:363:CD1:8159, V-B:ILE:538:CD1:9836, V-B:ILE:538:CG2:9834, V-B:ILE:538:CA:9831, V-B:ILE:538:CG1:9835, V-B:ILE:538:C:9829, V-B:ILE:538:CB:9833, V-B:ASP:366:CB:8182, V-B:ASP:366:CG:8183, V-B:MET:535:CG:9804, V-B:LEU:363:CA:8155, V-B:VAL:537:C:9821, H-B:ASP:366:OD1:8184"]

$$$$
4ag_Grossjean_2025
     RDKit          3D

 22 24  0  0  0  0  0  0  0  0999 V2000
  126.4690  122.0020   54.7520 C   0  0  0  0  0  0  0  0  0  0  0  0
  126.2580  122.5300   56.1590 C   0  0  0  0  0  0  0  0  0  0  0  0
  125.0750  123.1770   56.5120 C   0  0  0  0  0  0  0  0  0  0  0  0
  124.9010  123.6550   57.8160 C   0  0  0  0  0  0  0  0  0  0  0  0
  123.5930  124.3550   58.1530 C   0  0  0  0  0  0  0  0  0  0  0  0
  125.9590  123.4560   58.7420 C   0  0  0  0  0  0  0  0  0  0  0  0
  126.1140  123.8080   60.1270 C   0  0  0  0  0  0  0  0  0  0  0  0
  125.1370  124.4670   60.8310 N   0  0  0  0  0  0  0  0  0  0  0  0
  127.3440  123.4210   60.6790 C   0  0  0  0  0  0  0  0  0  0  0  0
  127.8260  123.6090   62.0480 C   0  0  0  0  0  0  0  0  0  0  0  0
  127.2380  123.1090   63.0090 O   0  0  0  0  0  0  0  0  0  0  0  0
  128.9300  124.3720   62.1890 N   0  0  0  0  0  0  0  0  0  0  0  0
  129.5980  124.6690   63.4560 C   0  0  0  0  0  0  0  0  0  0  0  0
  131.1200  124.6360   63.3760 C   0  0  0  0  0  0  0  0  0  0  0  0
  131.7470  123.9250   62.3490 C   0  0  0  0  0  0  0  0  0  0  0  0
  133.1370  123.9130   62.2600 C   0  0  0  0  0  0  0  0  0  0  0  0
  133.8940  124.6220   63.1900 C   0  0  0  0  0  0  0  0  0  0  0  0
  133.2750  125.3450   64.2070 C   0  0  0  0  0  0  0  0  0  0  0  0
  131.8860  125.3580   64.2960 C   0  0  0  0  0  0  0  0  0  0  0  0
  128.3470  122.5920   59.4890 S   0  0  0  0  0  0  0  0  0  0  0  0
  127.1180  122.7780   58.2570 C   0  0  0  0  0  0  0  0  0  0  0  0
  127.2870  122.3200   57.0160 N   0  0  0  0  0  0  0  0  0  0  0  0
  1  2  1  0
  2  3  2  0
  3  4  1  0
  4  5  1  0
  4  6  2  0
  6  7  1  0
  7  8  1  0
  7  9  2  0
  9 10  1  0
 10 11  2  0
 10 12  1  0
 12 13  1  0
 13 14  1  0
 14 15  2  0
 15 16  1  0
 16 17  2  0
 17 18  1  0
 18 19  2  0
  9 20  1  0
 20 21  1  0
 21 22  2  0
 22  2  1  0
 21  6  1  0
 19 14  1  0
M  END
>  <Binding energies>  (43) 
[-7.48]

>  <Ligand effiencies>  (43) 
[-0.2992]

>  <Interactions>  (43) 
["V-A:ASP:366:CG:3212, V-B:GLU:543:CD:9879, V-B:PRO:540:N:9855, H-B:ALA:541:N:9862, V-B:PRO:540:CA:9854, V-B:TYR:539:C:9838, V-B:TYR:539:CD2:9845, V-B:TYR:539:CE2:9847, V-A:GLY:454:CA:4048, H-B:TYR:539:N:9841, V-B:MET:535:CE:9806, V-B:PRO:540:CB:9856, V-A:GLY:453:C:4041, V-B:TYR:531:CZ:9765, V-B:TYR:531:CE2:9764, V-B:LEU:363:CD1:8159, V-A:ARG:545:CZ:4925, V-B:ILE:538:CD1:9836, V-B:ILE:538:CG2:9834, V-B:ILE:538:CA:9831, V-B:ILE:538:CG1:9835, V-B:ILE:538:C:9829, V-B:ILE:538:CB:9833, V-B:ASP:366:CB:8182, V-B:ASP:366:CG:8183, V-B:MET:535:CG:9804, V-B:LEU:363:CA:8155, V-B:VAL:537:C:9821, H-B:ASP:366:OD1:8184"]

$$$$
4ah_Grossjean_2025
     RDKit          3D

 28 30  0  0  0  0  0  0  0  0999 V2000
  133.9850  122.1130   62.5090 C   0  0  0  0  0  0  0  0  0  0  0  0
  133.9120  123.2420   63.3720 O   0  0  0  0  0  0  0  0  0  0  0  0
  132.6860  123.6220   63.8910 C   0  0  0  0  0  0  0  0  0  0  0  0
  131.5040  122.8830   63.7280 C   0  0  0  0  0  0  0  0  0  0  0  0
  130.3010  123.3290   64.2780 C   0  0  0  0  0  0  0  0  0  0  0  0
  129.0370  122.4900   64.1310 C   0  0  0  0  0  0  0  0  0  0  0  0
  128.4630  122.5260   62.7860 N   0  0  0  0  0  0  0  0  0  0  0  0
  127.6310  123.4790   62.3160 C   0  0  0  0  0  0  0  0  0  0  0  0
  127.2340  124.4160   63.0110 O   0  0  0  0  0  0  0  0  0  0  0  0
  127.1840  123.3160   60.9330 C   0  0  0  0  0  0  0  0  0  0  0  0
  128.1750  122.4170   59.7830 S   0  0  0  0  0  0  0  0  0  0  0  0
  127.0340  122.7240   58.4930 C   0  0  0  0  0  0  0  0  0  0  0  0
  127.2240  122.2610   57.2570 N   0  0  0  0  0  0  0  0  0  0  0  0
  126.2640  122.5680   56.3520 C   0  0  0  0  0  0  0  0  0  0  0  0
  126.5020  122.0350   54.9510 C   0  0  0  0  0  0  0  0  0  0  0  0
  125.1280  123.3170   56.6510 C   0  0  0  0  0  0  0  0  0  0  0  0
  124.9310  123.8040   57.9480 C   0  0  0  0  0  0  0  0  0  0  0  0
  123.6770  124.6180   58.2260 C   0  0  0  0  0  0  0  0  0  0  0  0
  125.9190  123.5040   58.9250 C   0  0  0  0  0  0  0  0  0  0  0  0
  126.0370  123.8380   60.3190 C   0  0  0  0  0  0  0  0  0  0  0  0
  125.0970  124.5930   60.9750 N   0  0  0  0  0  0  0  0  0  0  0  0
  130.2800  124.5090   65.0220 C   0  0  0  0  0  0  0  0  0  0  0  0
  131.4460  125.2710   65.1970 C   0  0  0  0  0  0  0  0  0  0  0  0
  131.4940  126.4570   65.9080 O   0  0  0  0  0  0  0  0  0  0  0  0
  130.6360  126.6320   67.0300 C   0  0  0  0  0  0  0  0  0  0  0  0
  132.6410  124.8190   64.6200 C   0  0  0  0  0  0  0  0  0  0  0  0
  133.7950  125.5460   64.7980 O   0  0  0  0  0  0  0  0  0  0  0  0
  134.1560  125.7330   66.1590 C   0  0  0  0  0  0  0  0  0  0  0  0
  1  2  1  0
  2  3  1  0
  3  4  2  0
  4  5  1  0
  5  6  1  0
  6  7  1  0
  7  8  1  0
  8  9  2  0
  8 10  1  0
 10 11  1  0
 11 12  1  0
 12 13  2  0
 13 14  1  0
 14 15  1  0
 14 16  2  0
 16 17  1  0
 17 18  1  0
 17 19  2  0
 19 20  1  0
 20 21  1  0
  5 22  2  0
 22 23  1  0
 23 24  1  0
 24 25  1  0
 23 26  2  0
 26 27  1  0
 27 28  1  0
 26  3  1  0
 20 10  2  0
 19 12  1  0
M  END
>  <Binding energies>  (44) 
[-7.44]

>  <Ligand effiencies>  (44) 
[-0.24000000000000002]

>  <Interactions>  (44) 
["V-B:GLU:543:CD:9879, V-B:PRO:540:N:9855, H-A:TYR:484:OH:4347, V-B:ALA:541:CB:9863, V-B:PRO:540:CA:9854, V-B:ALA:541:CA:9861, H-B:GLU:543:OE1:9880, V-B:TYR:539:C:9838, V-A:LEU:475:CD2:4258, H-B:TYR:539:O:9839, V-A:ILE:369:CD1:3238, V-B:TYR:539:CD2:9845, V-B:TYR:539:CE2:9847, V-A:GLY:454:CA:4048, H-B:TYR:539:N:9841, V-B:MET:535:CE:9806, V-B:GLU:543:CG:9878, V-B:PRO:540:CB:9856, H-A:GLY:454:N:4049, V-A:GLY:453:C:4041, V-A:ARG:545:CD:4922, V-B:TYR:531:CZ:9765, V-B:PRO:540:CD:9858, V-B:TYR:531:CE2:9764, V-B:LEU:363:CD1:8159, V-A:ARG:545:CZ:4925, V-B:ILE:538:CD1:9836, V-A:ARG:545:CG:4921, V-B:ILE:538:CG2:9834, H-A:ARG:545:NH1:4926, H-A:ARG:545:NH2:4927, V-B:ILE:538:CA:9831, V-A:GLY:453:CA:4043, V-B:ILE:538:C:9829, V-B:ILE:538:CB:9833, H-A:ARG:545:NE:4923, V-B:ASP:366:CB:8182, V-B:ASP:366:CG:8183, V-B:MET:535:CG:9804, V-B:LEU:363:CA:8155, V-B:VAL:537:C:9821, H-B:ASP:366:OD1:8184"]

$$$$
4ai_Grossjean_2025
     RDKit          3D

 20 22  0  0  0  0  0  0  0  0999 V2000
  126.4890  122.0580   54.8870 C   0  0  0  0  0  0  0  0  0  0  0  0
  126.2410  122.5710   56.2940 C   0  0  0  0  0  0  0  0  0  0  0  0
  125.0690  123.2540   56.6120 C   0  0  0  0  0  0  0  0  0  0  0  0
  124.8590  123.7140   57.9170 C   0  0  0  0  0  0  0  0  0  0  0  0
  123.5630  124.4520   58.2150 C   0  0  0  0  0  0  0  0  0  0  0  0
  125.8710  123.4570   58.8820 C   0  0  0  0  0  0  0  0  0  0  0  0
  125.9810  123.7780   60.2790 C   0  0  0  0  0  0  0  0  0  0  0  0
  125.0020  124.4650   60.9520 N   0  0  0  0  0  0  0  0  0  0  0  0
  127.1650  123.3190   60.8780 C   0  0  0  0  0  0  0  0  0  0  0  0
  127.6040  123.4770   62.2660 C   0  0  0  0  0  0  0  0  0  0  0  0
  126.8770  123.1300   63.1990 O   0  0  0  0  0  0  0  0  0  0  0  0
  128.8440  124.0030   62.4270 N   0  0  0  0  0  0  0  0  0  0  0  0
  129.5080  124.2490   63.6220 C   0  0  0  0  0  0  0  0  0  0  0  0
  130.2980  125.3790   63.8350 C   0  0  0  0  0  0  0  0  0  0  0  0
  130.7720  125.2470   65.1200 C   0  0  0  0  0  0  0  0  0  0  0  0
  130.2910  124.1000   65.6540 O   0  0  0  0  0  0  0  0  0  0  0  0
  129.4900  123.4760   64.6960 N   0  0  0  0  0  0  0  0  0  0  0  0
  128.1930  122.4930   59.7050 S   0  0  0  0  0  0  0  0  0  0  0  0
  127.0240  122.7480   58.4290 C   0  0  0  0  0  0  0  0  0  0  0  0
  127.2280  122.3100   57.1860 N   0  0  0  0  0  0  0  0  0  0  0  0
  1  2  1  0
  2  3  2  0
  3  4  1  0
  4  5  1  0
  4  6  2  0
  6  7  1  0
  7  8  1  0
  7  9  2  0
  9 10  1  0
 10 11  2  0
 10 12  1  0
 12 13  1  0
 13 14  1  0
 14 15  2  0
 15 16  1  0
 16 17  1  0
  9 18  1  0
 18 19  1  0
 19 20  2  0
 20  2  1  0
 19  6  1  0
 17 13  2  0
M  END
>  <Binding energies>  (45) 
[-7.15]

>  <Ligand effiencies>  (45) 
[-0.31086956521739134]

>  <Interactions>  (45) 
["V-B:GLU:543:CD:9879, V-B:PRO:540:N:9855, H-B:ALA:541:N:9862, H-A:TYR:484:OH:4347, V-B:PRO:540:CA:9854, V-B:TYR:539:C:9838, V-B:TYR:539:CD2:9845, V-B:TYR:539:CE2:9847, H-B:TYR:539:N:9841, V-B:MET:535:CE:9806, V-B:PRO:540:CB:9856, V-B:TYR:531:CZ:9765, V-B:PRO:540:CD:9858, V-B:TYR:531:CE2:9764, V-B:LEU:363:CD1:8159, V-B:ILE:538:CD1:9836, V-B:ILE:538:CG2:9834, V-B:ILE:538:CA:9831, V-B:ILE:538:C:9829, V-B:ILE:538:CB:9833, V-B:ASP:366:CB:8182, V-B:ASP:366:CG:8183, V-B:MET:535:CG:9804, V-B:LEU:363:CA:8155, V-B:VAL:537:C:9821, H-B:ASP:366:OD1:8184"]

$$$$
4aj_Grossjean_2025
     RDKit          3D

 20 22  0  0  0  0  0  0  0  0999 V2000
  126.0750  122.3620   54.7520 C   0  0  0  0  0  0  0  0  0  0  0  0
  125.9780  122.7560   56.2150 C   0  0  0  0  0  0  0  0  0  0  0  0
  124.8580  123.4210   56.7060 C   0  0  0  0  0  0  0  0  0  0  0  0
  124.7920  123.7800   58.0570 C   0  0  0  0  0  0  0  0  0  0  0  0
  123.5470  124.5060   58.5440 C   0  0  0  0  0  0  0  0  0  0  0  0
  125.8940  123.4420   58.8870 C   0  0  0  0  0  0  0  0  0  0  0  0
  126.1560  123.6550   60.2850 C   0  0  0  0  0  0  0  0  0  0  0  0
  125.2650  124.2950   61.1080 N   0  0  0  0  0  0  0  0  0  0  0  0
  127.3900  123.1450   60.7180 C   0  0  0  0  0  0  0  0  0  0  0  0
  127.9760  123.1930   62.0590 C   0  0  0  0  0  0  0  0  0  0  0  0
  127.3580  123.6980   62.9990 O   0  0  0  0  0  0  0  0  0  0  0  0
  129.2090  122.6410   62.1760 N   0  0  0  0  0  0  0  0  0  0  0  0
  129.9740  122.5470   63.3300 C   0  0  0  0  0  0  0  0  0  0  0  0
  129.5530  122.4110   64.5690 N   0  0  0  0  0  0  0  0  0  0  0  0
  130.5600  122.3490   65.4190 C   0  0  0  0  0  0  0  0  0  0  0  0
  131.8360  122.4370   64.8700 C   0  0  0  0  0  0  0  0  0  0  0  0
  131.6970  122.6090   63.1450 S   0  0  0  0  0  0  0  0  0  0  0  0
  128.2730  122.3960   59.3860 S   0  0  0  0  0  0  0  0  0  0  0  0
  126.9810  122.7580   58.2630 C   0  0  0  0  0  0  0  0  0  0  0  0
  127.0470  122.4160   56.9760 N   0  0  0  0  0  0  0  0  0  0  0  0
  1  2  1  0
  2  3  2  0
  3  4  1  0
  4  5  1  0
  4  6  2  0
  6  7  1  0
  7  8  1  0
  7  9  2  0
  9 10  1  0
 10 11  2  0
 10 12  1  0
 12 13  1  0
 13 14  2  0
 14 15  1  0
 15 16  2  0
 16 17  1  0
  9 18  1  0
 18 19  1  0
 19 20  2  0
 20  2  1  0
 19  6  1  0
 17 13  1  0
M  END
>  <Binding energies>  (46) 
[-6.59]

>  <Ligand effiencies>  (46) 
[-0.28652173913043477]

>  <Interactions>  (46) 
["V-B:PRO:540:N:9855, V-B:ALA:541:CB:9863, V-B:PRO:540:CA:9854, V-B:PRO:540:C:9852, H-B:GLU:543:OE1:9880, V-B:TYR:539:C:9838, V-A:LEU:475:CD2:4258, H-B:TYR:539:O:9839, V-B:TYR:539:CD2:9845, V-B:TYR:539:CE2:9847, V-A:GLY:454:CA:4048, H-B:TYR:539:N:9841, V-B:MET:535:CE:9806, V-A:LEU:475:CD1:4257, V-B:PRO:540:CB:9856, V-B:TYR:531:CZ:9765, V-B:TYR:531:CE2:9764, V-B:LEU:363:CD1:8159, V-B:ILE:538:CD1:9836, V-B:ILE:538:CG2:9834, V-B:ILE:538:CA:9831, V-B:ILE:538:CG1:9835, V-B:ILE:538:C:9829, V-B:ILE:538:CB:9833, V-B:ASP:366:CB:8182, V-A:TYR:484:CZ:4346, V-A:TYR:484:CE2:4345, V-B:ASP:366:CG:8183, V-B:MET:535:CG:9804, V-B:LEU:363:CA:8155, H-B:ASP:366:OD1:8184"]

$$$$
4ak_Grossjean_2025
     RDKit          3D

 25 26  0  0  0  0  0  0  0  0999 V2000
  131.9670  117.4810   58.9260 C   0  0  0  0  0  0  0  0  0  0  0  0
  132.8000  117.4030   60.0730 O   0  0  0  0  0  0  0  0  0  0  0  0
  132.1390  117.7690   61.2780 C   0  0  0  0  0  0  0  0  0  0  0  0
  130.9370  118.6640   60.9510 C   0  0  0  0  0  0  0  0  0  0  0  0
  131.2910  120.0240   61.1610 O   0  0  0  0  0  0  0  0  0  0  0  0
  132.6910  120.2660   61.1180 C   0  0  0  0  0  0  0  0  0  0  0  0
  132.9880  121.6330   61.7470 C   0  0  0  0  0  0  0  0  0  0  0  0
  131.7680  122.3340   61.9470 O   0  0  0  0  0  0  0  0  0  0  0  0
  131.5010  122.6470   63.3070 C   0  0  0  0  0  0  0  0  0  0  0  0
  130.0950  123.2630   63.4210 C   0  0  0  0  0  0  0  0  0  0  0  0
  129.3330  123.2200   62.1720 N   0  0  0  0  0  0  0  0  0  0  0  0
  127.9890  123.1690   62.0800 C   0  0  0  0  0  0  0  0  0  0  0  0
  127.2580  123.1760   63.0720 O   0  0  0  0  0  0  0  0  0  0  0  0
  127.4390  123.1140   60.7260 C   0  0  0  0  0  0  0  0  0  0  0  0
  128.3620  122.3710   59.4210 S   0  0  0  0  0  0  0  0  0  0  0  0
  127.0840  122.6940   58.2710 C   0  0  0  0  0  0  0  0  0  0  0  0
  127.1850  122.3460   56.9880 N   0  0  0  0  0  0  0  0  0  0  0  0
  126.1240  122.6560   56.2020 C   0  0  0  0  0  0  0  0  0  0  0  0
  126.2570  122.2520   54.7460 C   0  0  0  0  0  0  0  0  0  0  0  0
  124.9770  123.2970   56.6660 C   0  0  0  0  0  0  0  0  0  0  0  0
  124.8740  123.6600   58.0150 C   0  0  0  0  0  0  0  0  0  0  0  0
  123.6050  124.3610   58.4730 C   0  0  0  0  0  0  0  0  0  0  0  0
  125.9670  123.3520   58.8680 C   0  0  0  0  0  0  0  0  0  0  0  0
  126.1940  123.5750   60.2710 C   0  0  0  0  0  0  0  0  0  0  0  0
  125.2670  124.1870   61.0760 N   0  0  0  0  0  0  0  0  0  0  0  0
  1  2  1  0
  2  3  1  0
  3  4  1  0
  4  5  1  0
  5  6  1  0
  6  7  1  0
  7  8  1  0
  8  9  1  0
  9 10  1  0
 10 11  1  0
 11 12  1  0
 12 13  2  0
 12 14  1  0
 14 15  1  0
 15 16  1  0
 16 17  2  0
 17 18  1  0
 18 19  1  0
 18 20  2  0
 20 21  1  0
 21 22  1  0
 21 23  2  0
 23 24  1  0
 24 25  1  0
 24 14  2  0
 23 16  1  0
M  END
>  <Binding energies>  (47) 
[-6.62]

>  <Ligand effiencies>  (47) 
[-0.23642857142857143]

>  <Interactions>  (47) 
["V-B:PRO:540:N:9855, H-B:ALA:541:N:9862, V-B:PRO:540:CA:9854, V-B:PRO:540:C:9852, V-B:TYR:539:C:9838, V-A:LEU:475:CD2:4258, V-A:HIS:383:CE1:3393, V-B:TYR:539:CD2:9845, V-B:TYR:539:CE2:9847, V-B:TYR:539:CB:9842, V-A:SER:385:CA:3406, V-A:SER:385:CB:3408, V-A:LEU:373:CD1:3279, H-B:TYR:539:N:9841, V-B:TYR:539:CG:9843, V-B:MET:535:CE:9806, V-B:PRO:540:CB:9856, H-A:HIS:383:ND1:3390, V-B:TYR:531:CZ:9765, V-B:TYR:531:CE2:9764, V-B:LEU:363:CD1:8159, V-B:ILE:538:CD1:9836, V-B:ILE:538:CG2:9834, V-B:ILE:538:CA:9831, V-B:ILE:538:CG1:9835, V-B:ILE:538:C:9829, V-B:ILE:538:CB:9833, V-B:ASP:366:CB:8182, V-A:LEU:373:CG:3278, V-A:LEU:373:CD2:3280, V-B:ASP:366:CG:8183, V-B:MET:535:CG:9804, V-B:LEU:363:CA:8155, V-B:VAL:537:C:9821, H-B:ASP:366:OD1:8184"]

$$$$
4al_Grossjean_2025
     RDKit          3D

 16 17  0  0  0  0  0  0  0  0999 V2000
  125.4700  122.1230   55.5250 C   0  0  0  0  0  0  0  0  0  0  0  0
  125.5360  123.4600   55.9960 O   0  0  0  0  0  0  0  0  0  0  0  0
  125.0230  123.7990   57.2080 C   0  0  0  0  0  0  0  0  0  0  0  0
  123.9020  124.2860   57.3700 O   0  0  0  0  0  0  0  0  0  0  0  0
  125.9530  123.5220   58.3240 C   0  0  0  0  0  0  0  0  0  0  0  0
  127.5070  122.7470   58.0060 S   0  0  0  0  0  0  0  0  0  0  0  0
  127.9240  122.7950   59.7030 C   0  0  0  0  0  0  0  0  0  0  0  0
  129.0830  122.3160   60.1580 N   0  0  0  0  0  0  0  0  0  0  0  0
  129.2840  122.4130   61.4950 C   0  0  0  0  0  0  0  0  0  0  0  0
  130.6090  121.8620   61.9910 C   0  0  0  0  0  0  0  0  0  0  0  0
  128.3630  122.9720   62.3790 C   0  0  0  0  0  0  0  0  0  0  0  0
  127.1480  123.4730   61.8990 C   0  0  0  0  0  0  0  0  0  0  0  0
  126.1750  124.0740   62.9010 C   0  0  0  0  0  0  0  0  0  0  0  0
  126.9030  123.3890   60.5020 C   0  0  0  0  0  0  0  0  0  0  0  0
  125.7900  123.7940   59.6880 C   0  0  0  0  0  0  0  0  0  0  0  0
  124.6730  124.3930   60.2090 N   0  0  0  0  0  0  0  0  0  0  0  0
  1  2  1  0
  2  3  1  0
  3  4  2  0
  3  5  1  0
  5  6  1  0
  6  7  1  0
  7  8  2  0
  8  9  1  0
  9 10  1  0
  9 11  2  0
 11 12  1  0
 12 13  1  0
 12 14  2  0
 14 15  1  0
 15 16  1  0
 15  5  2  0
 14  7  1  0
M  END
>  <Binding energies>  (48) 
[-5.7]

>  <Ligand effiencies>  (48) 
[-0.31666666666666665]

>  <Interactions>  (48) 
["V-B:GLU:543:CD:9879, V-B:PRO:540:N:9855, V-B:ALA:541:CB:9863, V-B:PRO:540:CA:9854, V-B:TYR:539:C:9838, V-B:TYR:539:CD2:9845, V-B:GLU:543:CG:9878, V-B:PRO:540:CB:9856, V-B:TYR:531:CZ:9765, V-B:PRO:540:CD:9858, V-B:TYR:531:CE2:9764, V-B:LEU:363:CD1:8159, V-B:ILE:538:CD1:9836, V-B:ILE:538:CG2:9834, V-B:ILE:538:CA:9831, V-B:ILE:538:C:9829, V-B:ILE:538:CB:9833, H-B:TYR:531:OH:9766, V-B:ASP:366:CG:8183, V-B:MET:535:CG:9804, H-B:ASP:366:OD1:8184"]

$$$$
4bc_Grossjean_2025
     RDKit          3D

 26 28  0  0  0  0  0  0  0  0999 V2000
  124.0490  129.2160   67.3500 C   0  0  0  0  0  0  0  0  0  0  0  0
  123.5990  129.7850   66.1240 O   0  0  0  0  0  0  0  0  0  0  0  0
  124.5280  130.2950   65.2380 C   0  0  0  0  0  0  0  0  0  0  0  0
  125.0290  129.4110   64.2840 C   0  0  0  0  0  0  0  0  0  0  0  0
  125.9700  129.8340   63.3480 C   0  0  0  0  0  0  0  0  0  0  0  0
  126.4170  131.1570   63.3510 C   0  0  0  0  0  0  0  0  0  0  0  0
  127.3780  131.4890   62.3790 N   0  0  0  0  0  0  0  0  0  0  0  0
  128.1750  132.5830   62.3000 C   0  0  0  0  0  0  0  0  0  0  0  0
  128.1410  133.5170   63.1030 O   0  0  0  0  0  0  0  0  0  0  0  0
  129.1050  132.6040   61.1680 C   0  0  0  0  0  0  0  0  0  0  0  0
  128.5920  133.2480   59.6100 S   0  0  0  0  0  0  0  0  0  0  0  0
  130.1580  132.9190   58.9070 C   0  0  0  0  0  0  0  0  0  0  0  0
  130.4240  133.2110   57.6340 N   0  0  0  0  0  0  0  0  0  0  0  0
  131.6700  132.9090   57.2020 C   0  0  0  0  0  0  0  0  0  0  0  0
  131.9540  133.2550   55.7520 C   0  0  0  0  0  0  0  0  0  0  0  0
  132.6470  132.3250   58.0050 C   0  0  0  0  0  0  0  0  0  0  0  0
  132.3720  132.0140   59.3460 C   0  0  0  0  0  0  0  0  0  0  0  0
  133.4790  131.3700   60.1890 C   0  0  0  0  0  0  0  0  0  0  0  0
  134.0870  132.2370   61.0010 F   0  0  0  0  0  0  0  0  0  0  0  0
  132.9620  130.4060   60.9490 F   0  0  0  0  0  0  0  0  0  0  0  0
  134.4110  130.8510   59.3900 F   0  0  0  0  0  0  0  0  0  0  0  0
  131.0670  132.3230   59.8340 C   0  0  0  0  0  0  0  0  0  0  0  0
  130.4350  132.1580   61.1200 C   0  0  0  0  0  0  0  0  0  0  0  0
  131.0840  131.6130   62.1990 N   0  0  0  0  0  0  0  0  0  0  0  0
  125.9270  132.0500   64.3160 C   0  0  0  0  0  0  0  0  0  0  0  0
  124.9880  131.6220   65.2500 C   0  0  0  0  0  0  0  0  0  0  0  0
  1  2  1  0
  2  3  1  0
  3  4  2  0
  4  5  1  0
  5  6  2  0
  6  7  1  0
  7  8  1  0
  8  9  2  0
  8 10  1  0
 10 11  1  0
 11 12  1  0
 12 13  2  0
 13 14  1  0
 14 15  1  0
 14 16  2  0
 16 17  1  0
 17 18  1  0
 18 19  1  0
 18 20  1  0
 18 21  1  0
 17 22  2  0
 22 23  1  0
 23 24  1  0
  6 25  1  0
 25 26  2  0
 26  3  1  0
 23 10  2  0
 22 12  1  0
M  END
>  <Binding energies>  (49) 
[-6.74]

>  <Ligand effiencies>  (49) 
[-0.23241379310344829]

>  <Interactions>  (49) 
["V-A:LEU:363:CA:3184, V-A:ASP:366:CG:3212, V-A:ASN:362:C:3171, V-A:PRO:540:CB:4884, V-A:TYR:539:CE1:4874, H-A:GLU:543:OE2:4909, V-A:TYR:539:CD1:4872, V-A:ASP:366:CB:3211, V-A:PRO:540:CA:4882, V-A:TYR:531:CE2:4792, V-A:LEU:363:C:3182, V-A:LEU:363:CD1:3188, V-A:GLU:543:CD:4907, V-B:ARG:545:CD:9894, V-B:ARG:545:CG:9893, V-A:ILE:538:CB:4861, V-A:ILE:538:CG2:4862, H-B:TYR:484:OH:9318, V-A:PRO:540:N:4883, V-A:TYR:539:C:4866, V-A:LEU:363:CB:3186, H-B:ARG:545:NE:9895, V-A:ASN:362:CB:3175, V-B:ARG:545:CZ:9897, V-B:LEU:475:CD1:9228, V-B:GLY:454:CA:9019, V-A:ASN:362:CA:3173, H-B:GLY:454:N:9020, H-A:ALA:541:O:4888"]

$$$$
4bf_Grossjean_2025
     RDKit          3D

 24 26  0  0  0  0  0  0  0  0999 V2000
  133.2590  125.3820   65.2790 C   0  0  0  0  0  0  0  0  0  0  0  0
  132.5170  124.5100   64.2820 C   0  0  0  0  0  0  0  0  0  0  0  0
  133.0830  123.3330   63.8000 C   0  0  0  0  0  0  0  0  0  0  0  0
  132.3880  122.5370   62.8750 C   0  0  0  0  0  0  0  0  0  0  0  0
  133.0510  121.2520   62.3700 C   0  0  0  0  0  0  0  0  0  0  0  0
  132.1880  120.2440   62.2150 F   0  0  0  0  0  0  0  0  0  0  0  0
  133.6230  121.4730   61.1870 F   0  0  0  0  0  0  0  0  0  0  0  0
  133.9790  120.8500   63.2400 F   0  0  0  0  0  0  0  0  0  0  0  0
  131.0990  122.9890   62.4640 C   0  0  0  0  0  0  0  0  0  0  0  0
  130.1150  122.4560   61.5540 C   0  0  0  0  0  0  0  0  0  0  0  0
  130.3030  121.2820   60.8680 N   0  0  0  0  0  0  0  0  0  0  0  0
  128.9550  123.2380   61.4380 C   0  0  0  0  0  0  0  0  0  0  0  0
  127.7810  123.0120   60.5880 C   0  0  0  0  0  0  0  0  0  0  0  0
  126.6860  122.7530   61.0880 O   0  0  0  0  0  0  0  0  0  0  0  0
  128.0000  123.1260   59.2550 N   0  0  0  0  0  0  0  0  0  0  0  0
  127.1110  122.9250   58.1810 C   0  0  0  0  0  0  0  0  0  0  0  0
  125.7560  123.2980   58.1650 C   0  0  0  0  0  0  0  0  0  0  0  0
  124.9780  123.0260   57.0370 C   0  0  0  0  0  0  0  0  0  0  0  0
  125.5760  122.3820   55.9530 C   0  0  0  0  0  0  0  0  0  0  0  0
  126.8790  122.0060   55.9470 N   0  0  0  0  0  0  0  0  0  0  0  0
  127.6220  122.2770   57.0500 C   0  0  0  0  0  0  0  0  0  0  0  0
  129.0500  124.6730   62.4570 S   0  0  0  0  0  0  0  0  0  0  0  0
  130.6340  124.2150   63.0350 C   0  0  0  0  0  0  0  0  0  0  0  0
  131.2970  124.9660   63.9130 N   0  0  0  0  0  0  0  0  0  0  0  0
  1  2  1  0
  2  3  2  0
  3  4  1  0
  4  5  1  0
  5  6  1  0
  5  7  1  0
  5  8  1  0
  4  9  2  0
  9 10  1  0
 10 11  1  0
 10 12  2  0
 12 13  1  0
 13 14  2  0
 13 15  1  0
 15 16  1  0
 16 17  2  0
 17 18  1  0
 18 19  2  0
 19 20  1  0
 20 21  2  0
 12 22  1  0
 22 23  1  0
 23 24  2  0
 24  2  1  0
 23  9  1  0
 21 16  1  0
M  END
>  <Binding energies>  (50) 
[-6.76]

>  <Ligand effiencies>  (50) 
[-0.25037037037037035]

>  <Interactions>  (50) 
["V-B:PRO:540:N:9855, H-B:ALA:541:N:9862, V-B:PRO:540:CA:9854, V-B:TYR:539:C:9838, V-A:LEU:475:CD2:4258, H-B:TYR:539:O:9839, V-A:ILE:369:CD1:3238, V-A:SER:385:C:3404, V-B:TYR:539:CD2:9845, V-A:ILE:369:CG2:3236, V-B:TYR:539:CE2:9847, V-A:SER:385:CA:3406, V-A:SER:385:CB:3408, V-A:GLY:454:CA:4048, H-B:TYR:539:N:9841, V-B:TYR:539:CG:9843, V-B:MET:535:CE:9806, V-B:TYR:539:CZ:9848, V-B:PRO:540:CB:9856, V-B:TYR:539:CA:9840, V-B:TYR:539:CD1:9844, V-B:PRO:540:CD:9858, V-B:TYR:531:CE2:9764, V-B:LEU:363:CD1:8159, V-A:ARG:545:CZ:4925, V-B:ILE:538:CD1:9836, V-B:ILE:538:CG2:9834, V-B:ILE:538:CA:9831, V-B:TYR:539:CE1:9846"]

$$$$
4bh_Grossjean_2025
     RDKit          3D

 31 33  0  0  0  0  0  0  0  0999 V2000
  129.1900  124.0060   73.1650 C   0  0  0  0  0  0  0  0  0  0  0  0
  128.5530  125.2500   73.4330 O   0  0  0  0  0  0  0  0  0  0  0  0
  129.2470  126.4280   73.2240 C   0  0  0  0  0  0  0  0  0  0  0  0
  129.1200  127.2190   72.0720 C   0  0  0  0  0  0  0  0  0  0  0  0
  129.8550  128.3960   71.9260 C   0  0  0  0  0  0  0  0  0  0  0  0
  129.6690  129.2660   70.6890 C   0  0  0  0  0  0  0  0  0  0  0  0
  130.1730  128.6490   69.4610 N   0  0  0  0  0  0  0  0  0  0  0  0
  129.5710  127.6500   68.7840 C   0  0  0  0  0  0  0  0  0  0  0  0
  128.5270  127.1210   69.1720 O   0  0  0  0  0  0  0  0  0  0  0  0
  130.2530  127.1910   67.5740 C   0  0  0  0  0  0  0  0  0  0  0  0
  131.7840  126.3300   67.6980 S   0  0  0  0  0  0  0  0  0  0  0  0
  131.9080  126.2110   65.9580 C   0  0  0  0  0  0  0  0  0  0  0  0
  132.9410  125.6050   65.3750 N   0  0  0  0  0  0  0  0  0  0  0  0
  132.9240  125.5740   64.0220 C   0  0  0  0  0  0  0  0  0  0  0  0
  134.1120  124.8810   63.3780 C   0  0  0  0  0  0  0  0  0  0  0  0
  131.9090  126.1260   63.2470 C   0  0  0  0  0  0  0  0  0  0  0  0
  130.8180  126.7670   63.8560 C   0  0  0  0  0  0  0  0  0  0  0  0
  129.7230  127.3580   62.9610 C   0  0  0  0  0  0  0  0  0  0  0  0
  128.5400  126.7600   63.1180 F   0  0  0  0  0  0  0  0  0  0  0  0
  129.5570  128.6490   63.2440 F   0  0  0  0  0  0  0  0  0  0  0  0
  130.0690  127.2290   61.6800 F   0  0  0  0  0  0  0  0  0  0  0  0
  130.8060  126.8200   65.2810 C   0  0  0  0  0  0  0  0  0  0  0  0
  129.8820  127.3850   66.2340 C   0  0  0  0  0  0  0  0  0  0  0  0
  128.7400  128.0440   65.8600 N   0  0  0  0  0  0  0  0  0  0  0  0
  130.7060  128.8060   72.9540 C   0  0  0  0  0  0  0  0  0  0  0  0
  130.8590  128.0320   74.1140 C   0  0  0  0  0  0  0  0  0  0  0  0
  131.6940  128.3690   75.1640 O   0  0  0  0  0  0  0  0  0  0  0  0
  133.0630  127.9790   75.1200 C   0  0  0  0  0  0  0  0  0  0  0  0
  130.1280  126.8410   74.2340 C   0  0  0  0  0  0  0  0  0  0  0  0
  130.2550  126.0810   75.3740 O   0  0  0  0  0  0  0  0  0  0  0  0
  131.3440  125.1690   75.3410 C   0  0  0  0  0  0  0  0  0  0  0  0
  1  2  1  0
  2  3  1  0
  3  4  2  0
  4  5  1  0
  5  6  1  0
  6  7  1  0
  7  8  1  0
  8  9  2  0
  8 10  1  0
 10 11  1  0
 11 12  1  0
 12 13  2  0
 13 14  1  0
 14 15  1  0
 14 16  2  0
 16 17  1  0
 17 18  1  0
 18 19  1  0
 18 20  1  0
 18 21  1  0
 17 22  2  0
 22 23  1  0
 23 24  1  0
  5 25  2  0
 25 26  1  0
 26 27  1  0
 27 28  1  0
 26 29  2  0
 29 30  1  0
 30 31  1  0
 29  3  1  0
 23 10  2  0
 22 12  1  0
M  END
>  <Binding energies>  (51) 
[-6.19]

>  <Ligand effiencies>  (51) 
[-0.18205882352941177]

>  <Interactions>  (51) 
["V-A:ASP:366:CG:3212, V-B:GLU:543:CD:9879, H-A:TYR:484:OH:4347, H-B:GLU:543:OE2:9881, H-B:GLU:543:OE1:9880, V-A:GLY:454:CA:4048, V-A:GLY:453:C:4041, V-A:ARG:545:CZ:4925, V-A:HIS:456:CE1:4069, H-A:GLU:543:OE1:4908, V-A:GLU:543:CD:4907, V-B:HIS:456:CE1:9040, H-B:LYS:547:NZ:9922, V-A:HIS:456:CD2:4067, H-A:GLU:543:O:4902, V-A:GLY:544:C:4911, H-A:LYS:547:NZ:4950, V-A:LYS:547:CE:4949, V-A:GLU:543:CB:4905, V-A:GLU:543:C:4901, V-A:GLY:453:CA:4043, V-A:TYR:484:CZ:4346, V-A:LYS:547:CD:4948"]

$$$$
4bi_Grossjean_2025
     RDKit          3D

 23 25  0  0  0  0  0  0  0  0999 V2000
  133.2720  125.3590   65.2110 C   0  0  0  0  0  0  0  0  0  0  0  0
  132.5710  124.4710   64.1980 C   0  0  0  0  0  0  0  0  0  0  0  0
  133.1460  123.2760   63.7730 C   0  0  0  0  0  0  0  0  0  0  0  0
  132.4840  122.4620   62.8380 C   0  0  0  0  0  0  0  0  0  0  0  0
  133.1520  121.1530   62.4060 C   0  0  0  0  0  0  0  0  0  0  0  0
  132.2770  120.1680   62.1860 F   0  0  0  0  0  0  0  0  0  0  0  0
  133.8300  121.3430   61.2750 F   0  0  0  0  0  0  0  0  0  0  0  0
  133.9890  120.7370   63.3570 F   0  0  0  0  0  0  0  0  0  0  0  0
  131.2210  122.9180   62.3560 C   0  0  0  0  0  0  0  0  0  0  0  0
  130.2750  122.3700   61.4140 C   0  0  0  0  0  0  0  0  0  0  0  0
  130.4850  121.1840   60.7580 N   0  0  0  0  0  0  0  0  0  0  0  0
  129.1230  123.1540   61.2360 C   0  0  0  0  0  0  0  0  0  0  0  0
  127.9780  122.9070   60.3560 C   0  0  0  0  0  0  0  0  0  0  0  0
  126.8450  122.7660   60.8210 O   0  0  0  0  0  0  0  0  0  0  0  0
  128.2600  122.8690   59.0300 N   0  0  0  0  0  0  0  0  0  0  0  0
  127.3720  122.6660   57.9810 C   0  0  0  0  0  0  0  0  0  0  0  0
  126.0700  123.1640   57.9790 C   0  0  0  0  0  0  0  0  0  0  0  0
  125.5300  122.7500   56.7830 C   0  0  0  0  0  0  0  0  0  0  0  0
  126.4590  122.0410   56.0990 O   0  0  0  0  0  0  0  0  0  0  0  0
  127.6230  121.9940   56.8700 N   0  0  0  0  0  0  0  0  0  0  0  0
  129.1880  124.6150   62.2180 S   0  0  0  0  0  0  0  0  0  0  0  0
  130.7440  124.1610   62.8730 C   0  0  0  0  0  0  0  0  0  0  0  0
  131.3750  124.9280   63.7610 N   0  0  0  0  0  0  0  0  0  0  0  0
  1  2  1  0
  2  3  2  0
  3  4  1  0
  4  5  1  0
  5  6  1  0
  5  7  1  0
  5  8  1  0
  4  9  2  0
  9 10  1  0
 10 11  1  0
 10 12  2  0
 12 13  1  0
 13 14  2  0
 13 15  1  0
 15 16  1  0
 16 17  1  0
 17 18  2  0
 18 19  1  0
 19 20  1  0
 12 21  1  0
 21 22  1  0
 22 23  2  0
 23  2  1  0
 22  9  1  0
 20 16  2  0
M  END
>  <Binding energies>  (52) 
[-6.52]

>  <Ligand effiencies>  (52) 
[-0.25076923076923074]

>  <Interactions>  (52) 
["V-B:PRO:540:N:9855, H-B:ALA:541:N:9862, V-B:PRO:540:CA:9854, V-B:TYR:539:C:9838, V-A:LEU:475:CD2:4258, H-B:TYR:539:O:9839, V-A:ILE:369:CD1:3238, V-A:SER:385:C:3404, V-B:TYR:539:CD2:9845, V-A:ILE:369:CG2:3236, V-B:TYR:539:CE2:9847, V-A:SER:385:CA:3406, V-A:SER:385:CB:3408, V-A:GLY:454:CA:4048, H-B:TYR:539:N:9841, V-B:PRO:540:CB:9856, V-B:PRO:540:CD:9858, V-B:LEU:363:CD1:8159, V-A:ARG:545:CZ:4925"]

$$$$
4bj_Grossjean_2025
     RDKit          3D

 23 25  0  0  0  0  0  0  0  0999 V2000
  128.5070  117.2730   76.5780 C   0  0  0  0  0  0  0  0  0  0  0  0
  128.6450  118.6060   75.8670 C   0  0  0  0  0  0  0  0  0  0  0  0
  127.9820  118.8520   74.6670 C   0  0  0  0  0  0  0  0  0  0  0  0
  128.1240  120.0880   74.0160 C   0  0  0  0  0  0  0  0  0  0  0  0
  127.3760  120.3100   72.6970 C   0  0  0  0  0  0  0  0  0  0  0  0
  128.1400  120.8580   71.7500 F   0  0  0  0  0  0  0  0  0  0  0  0
  126.9320  119.1450   72.2280 F   0  0  0  0  0  0  0  0  0  0  0  0
  126.3420  121.1270   72.8990 F   0  0  0  0  0  0  0  0  0  0  0  0
  128.9640  121.0590   74.6370 C   0  0  0  0  0  0  0  0  0  0  0  0
  129.3470  122.4020   74.2740 C   0  0  0  0  0  0  0  0  0  0  0  0
  128.9020  123.0160   73.1310 N   0  0  0  0  0  0  0  0  0  0  0  0
  130.2040  123.0230   75.1970 C   0  0  0  0  0  0  0  0  0  0  0  0
  130.7890  124.3650   75.1390 C   0  0  0  0  0  0  0  0  0  0  0  0
  130.0840  125.3510   74.9100 O   0  0  0  0  0  0  0  0  0  0  0  0
  132.1240  124.4290   75.3650 N   0  0  0  0  0  0  0  0  0  0  0  0
  132.9130  125.5710   75.3780 C   0  0  0  0  0  0  0  0  0  0  0  0
  132.6280  126.7570   74.8870 N   0  0  0  0  0  0  0  0  0  0  0  0
  133.6110  127.6130   75.0830 C   0  0  0  0  0  0  0  0  0  0  0  0
  134.7310  127.1220   75.7470 C   0  0  0  0  0  0  0  0  0  0  0  0
  134.4720  125.4460   76.1300 S   0  0  0  0  0  0  0  0  0  0  0  0
  130.5850  121.9480   76.5390 S   0  0  0  0  0  0  0  0  0  0  0  0
  129.5830  120.6820   75.8690 C   0  0  0  0  0  0  0  0  0  0  0  0
  129.4470  119.5060   76.4810 N   0  0  0  0  0  0  0  0  0  0  0  0
  1  2  1  0
  2  3  2  0
  3  4  1  0
  4  5  1  0
  5  6  1  0
  5  7  1  0
  5  8  1  0
  4  9  2  0
  9 10  1  0
 10 11  1  0
 10 12  2  0
 12 13  1  0
 13 14  2  0
 13 15  1  0
 15 16  1  0
 16 17  2  0
 17 18  1  0
 18 19  2  0
 19 20  1  0
 12 21  1  0
 21 22  1  0
 22 23  2  0
 23  2  1  0
 22  9  1  0
 20 16  1  0
M  END
>  <Binding energies>  (53) 
[-6.01]

>  <Ligand effiencies>  (53) 
[-0.23115384615384615]

>  <Interactions>  (53) 
["H-B:GLU:543:O:9874, H-B:LYS:547:NZ:9922, V-B:GLU:543:C:9873, H-A:ASP:473:OD2:4241, V-B:GLY:544:CA:9885, V-A:ASP:473:CG:4239, V-A:TYR:484:CB:4340, V-A:TYR:484:C:4336, V-A:HIS:456:CB:4064, V-B:GLU:543:CA:9875, V-A:VAL:457:C:4072, V-A:HIS:456:C:4060, V-A:HIS:456:CG:4065, V-A:VAL:458:CG2:4086, H-A:HIS:456:ND1:4066, V-A:TYR:484:CD2:4343, V-A:TYR:484:CG:4341, V-A:TYR:484:CA:4338"]

$$$$
4bk_Grossjean_2025
     RDKit          3D

 28 29  0  0  0  0  0  0  0  0999 V2000
  127.7860  125.8670   57.5140 C   0  0  0  0  0  0  0  0  0  0  0  0
  127.7360  124.5360   58.0030 O   0  0  0  0  0  0  0  0  0  0  0  0
  128.4270  123.6050   57.1800 C   0  0  0  0  0  0  0  0  0  0  0  0
  127.6730  122.2690   57.1760 C   0  0  0  0  0  0  0  0  0  0  0  0
  127.0900  122.0600   55.8970 O   0  0  0  0  0  0  0  0  0  0  0  0
  125.6690  122.0820   55.9030 C   0  0  0  0  0  0  0  0  0  0  0  0
  125.1710  122.4610   57.3040 C   0  0  0  0  0  0  0  0  0  0  0  0
  125.2700  123.8690   57.4730 O   0  0  0  0  0  0  0  0  0  0  0  0
  124.1570  124.4470   58.1450 C   0  0  0  0  0  0  0  0  0  0  0  0
  124.2520  124.1350   59.6490 C   0  0  0  0  0  0  0  0  0  0  0  0
  125.5930  123.7400   60.0830 N   0  0  0  0  0  0  0  0  0  0  0  0
  125.9310  123.3820   61.3400 C   0  0  0  0  0  0  0  0  0  0  0  0
  125.1100  123.3360   62.2570 O   0  0  0  0  0  0  0  0  0  0  0  0
  127.3380  123.0390   61.5550 C   0  0  0  0  0  0  0  0  0  0  0  0
  128.3960  122.7450   60.1770 S   0  0  0  0  0  0  0  0  0  0  0  0
  129.7610  122.4610   61.2310 C   0  0  0  0  0  0  0  0  0  0  0  0
  130.9650  122.1610   60.7450 N   0  0  0  0  0  0  0  0  0  0  0  0
  131.9440  121.9650   61.6590 C   0  0  0  0  0  0  0  0  0  0  0  0
  133.3070  121.6270   61.0820 C   0  0  0  0  0  0  0  0  0  0  0  0
  131.7490  122.0610   63.0340 C   0  0  0  0  0  0  0  0  0  0  0  0
  130.4830  122.3750   63.5530 C   0  0  0  0  0  0  0  0  0  0  0  0
  130.3170  122.4650   65.0740 C   0  0  0  0  0  0  0  0  0  0  0  0
  130.1430  123.7160   65.5070 F   0  0  0  0  0  0  0  0  0  0  0  0
  129.2530  121.7580   65.4540 F   0  0  0  0  0  0  0  0  0  0  0  0
  131.4030  121.9820   65.6760 F   0  0  0  0  0  0  0  0  0  0  0  0
  129.4290  122.5890   62.6160 C   0  0  0  0  0  0  0  0  0  0  0  0
  128.0340  122.9250   62.7670 C   0  0  0  0  0  0  0  0  0  0  0  0
  127.4450  123.1120   63.9910 N   0  0  0  0  0  0  0  0  0  0  0  0
  1  2  1  0
  2  3  1  0
  3  4  1  0
  4  5  1  0
  5  6  1  0
  6  7  1  0
  7  8  1  0
  8  9  1  0
  9 10  1  0
 10 11  1  0
 11 12  1  0
 12 13  2  0
 12 14  1  0
 14 15  1  0
 15 16  1  0
 16 17  2  0
 17 18  1  0
 18 19  1  0
 18 20  2  0
 20 21  1  0
 21 22  1  0
 22 23  1  0
 22 24  1  0
 22 25  1  0
 21 26  2  0
 26 27  1  0
 27 28  1  0
 27 14  2  0
 26 16  1  0
M  END
>  <Binding energies>  (54) 
[-5.24]

>  <Ligand effiencies>  (54) 
[-0.16903225806451613]

>  <Interactions>  (54) 
["V-B:GLU:543:CD:9879, V-B:PRO:540:N:9855, H-B:ALA:541:N:9862, V-B:ALA:541:CB:9863, V-B:PRO:540:CA:9854, H-B:GLU:543:OE2:9881, V-B:ALA:541:CA:9861, V-B:PRO:540:C:9852, H-B:GLU:543:OE1:9880, V-B:TYR:539:C:9838, V-A:LEU:475:CD2:4258, H-B:ALA:541:O:9860, V-A:ILE:369:CD1:3238, V-B:TYR:539:CD2:9845, V-A:ILE:369:CG2:3236, V-B:TYR:539:CE2:9847, H-B:TYR:539:N:9841, V-B:TYR:539:CG:9843, V-B:MET:535:CE:9806, V-B:TYR:539:CZ:9848, V-B:GLU:543:CG:9878, V-A:LEU:475:CD1:4257, V-B:ALA:541:C:9859, V-B:PRO:540:CB:9856, V-B:TYR:539:CA:9840, V-B:TYR:539:CD1:9844, V-B:PRO:540:CD:9858, V-B:LEU:363:CD1:8159, V-B:ILE:538:CD1:9836, V-B:ILE:538:CG2:9834, H-B:ARG:545:NH2:9899, V-B:ILE:538:CA:9831, V-B:TYR:539:CE1:9846, V-B:ILE:538:C:9829, V-B:ILE:538:CB:9833, V-B:ASP:366:CB:8182, V-A:TYR:484:CZ:4346, V-A:TYR:484:CE2:4345, H-B:TYR:531:OH:9766, V-B:ASP:366:CG:8183, V-B:PRO:540:CG:9857, V-A:LEU:475:CG:4256, V-A:LEU:475:CB:4255, V-A:TYR:484:CE1:4344"]

$$$$
4cd_Grossjean_2025
     RDKit          3D

 29 32  0  0  0  0  0  0  0  0999 V2000
  132.8460  125.9350   62.7440 N   0  0  0  0  0  0  0  0  0  0  0  0
  132.2880  124.7890   63.2520 C   0  0  0  0  0  0  0  0  0  0  0  0
  131.7770  124.6950   64.5560 C   0  0  0  0  0  0  0  0  0  0  0  0
  131.7450  125.7240   65.6010 C   0  0  0  0  0  0  0  0  0  0  0  0
  132.7830  126.0930   66.1490 O   0  0  0  0  0  0  0  0  0  0  0  0
  130.5170  126.2180   65.8920 N   0  0  0  0  0  0  0  0  0  0  0  0
  130.1380  127.1620   66.8640 C   0  0  0  0  0  0  0  0  0  0  0  0
  129.1560  128.0790   66.4780 C   0  0  0  0  0  0  0  0  0  0  0  0
  128.7050  129.0440   67.3730 C   0  0  0  0  0  0  0  0  0  0  0  0
  129.2310  129.0890   68.6620 C   0  0  0  0  0  0  0  0  0  0  0  0
  130.1990  128.1730   69.0650 C   0  0  0  0  0  0  0  0  0  0  0  0
  130.6540  127.2060   68.1710 C   0  0  0  0  0  0  0  0  0  0  0  0
  131.1270  123.0880   64.8710 S   0  0  0  0  0  0  0  0  0  0  0  0
  131.5520  122.5520   63.2630 C   0  0  0  0  0  0  0  0  0  0  0  0
  131.2990  121.3110   62.8540 N   0  0  0  0  0  0  0  0  0  0  0  0
  131.6790  120.9830   61.5910 C   0  0  0  0  0  0  0  0  0  0  0  0
  131.3830  119.5760   61.1600 C   0  0  0  0  0  0  0  0  0  0  0  0
  130.2330  118.9110   61.6160 C   0  0  0  0  0  0  0  0  0  0  0  0
  129.9520  117.6060   61.2200 C   0  0  0  0  0  0  0  0  0  0  0  0
  130.8210  116.9450   60.3580 C   0  0  0  0  0  0  0  0  0  0  0  0
  131.9650  117.5810   59.8890 C   0  0  0  0  0  0  0  0  0  0  0  0
  132.2410  118.8860   60.2860 C   0  0  0  0  0  0  0  0  0  0  0  0
  132.2910  121.9070   60.7400 C   0  0  0  0  0  0  0  0  0  0  0  0
  132.5590  123.2200   61.1600 C   0  0  0  0  0  0  0  0  0  0  0  0
  133.2370  124.1810   60.1760 C   0  0  0  0  0  0  0  0  0  0  0  0
  133.5240  123.6130   59.0020 F   0  0  0  0  0  0  0  0  0  0  0  0
  132.4350  125.2180   59.9320 F   0  0  0  0  0  0  0  0  0  0  0  0
  134.3820  124.6230   60.6950 F   0  0  0  0  0  0  0  0  0  0  0  0
  132.1770  123.5720   62.4860 C   0  0  0  0  0  0  0  0  0  0  0  0
  1  2  1  0
  2  3  2  0
  3  4  1  0
  4  5  2  0
  4  6  1  0
  6  7  1  0
  7  8  2  0
  8  9  1  0
  9 10  2  0
 10 11  1  0
 11 12  2  0
  3 13  1  0
 13 14  1  0
 14 15  2  0
 15 16  1  0
 16 17  1  0
 17 18  2  0
 18 19  1  0
 19 20  2  0
 20 21  1  0
 21 22  2  0
 16 23  2  0
 23 24  1  0
 24 25  1  0
 25 26  1  0
 25 27  1  0
 25 28  1  0
 24 29  2  0
 29  2  1  0
 12  7  1  0
 29 14  1  0
 22 17  1  0
M  END
>  <Binding energies>  (55) 
[-7.97]

>  <Ligand effiencies>  (55) 
[-0.2490625]

>  <Interactions>  (55) 
["V-A:ASP:366:CG:3212, V-A:ASP:366:CB:3211, V-B:GLU:543:CD:9879, H-A:TYR:484:OH:4347, V-B:ALA:541:CB:9863, H-B:GLU:543:OE2:9881, V-B:TYR:539:C:9838, V-A:LEU:475:CD2:4258, V-A:PRO:482:CG:4326, V-A:HIS:383:CE1:3393, V-A:ILE:369:CD1:3238, V-B:TYR:539:CD2:9845, V-A:ILE:369:CG2:3236, V-B:TYR:539:CE2:9847, V-B:TYR:539:CB:9842, V-B:VAL:344:CG1:7971, V-B:TYR:539:CZ:9848, V-A:PRO:482:CB:4325, V-A:ARG:545:CZ:4925, V-A:HIS:456:CE1:4069, V-A:GLU:543:CD:4907, V-A:GLU:543:CG:4906, H-A:ASP:366:OD2:3214, V-A:GLU:543:CB:4905, H-A:ARG:545:NE:4923, V-A:TYR:484:CZ:4346, H-A:ASP:366:OD1:3213, V-A:ILE:369:CB:3235, V-A:ASP:366:CA:3209, V-A:ILE:369:CG1:3237"]

$$$$
4cg_Grossjean_2025
     RDKit          3D

 30 33  0  0  0  0  0  0  0  0999 V2000
  129.3560  125.5440   63.7870 N   0  0  0  0  0  0  0  0  0  0  0  0
  130.3980  124.6530   63.8340 C   0  0  0  0  0  0  0  0  0  0  0  0
  131.4860  124.7910   64.7080 C   0  0  0  0  0  0  0  0  0  0  0  0
  131.7130  125.8140   65.7280 C   0  0  0  0  0  0  0  0  0  0  0  0
  132.8140  126.3510   65.8650 O   0  0  0  0  0  0  0  0  0  0  0  0
  130.6620  126.0980   66.5260 N   0  0  0  0  0  0  0  0  0  0  0  0
  130.6540  127.0970   67.5920 C   0  0  0  0  0  0  0  0  0  0  0  0
  129.3360  127.1580   68.3570 C   0  0  0  0  0  0  0  0  0  0  0  0
  128.3060  127.9860   67.9010 C   0  0  0  0  0  0  0  0  0  0  0  0
  127.0900  128.0200   68.5780 C   0  0  0  0  0  0  0  0  0  0  0  0
  126.9040  127.2190   69.7030 C   0  0  0  0  0  0  0  0  0  0  0  0
  127.9210  126.3790   70.1520 C   0  0  0  0  0  0  0  0  0  0  0  0
  129.1370  126.3430   69.4750 C   0  0  0  0  0  0  0  0  0  0  0  0
  132.6300  123.4650   64.5220 S   0  0  0  0  0  0  0  0  0  0  0  0
  131.6560  122.7470   63.2600 C   0  0  0  0  0  0  0  0  0  0  0  0
  132.0240  121.6200   62.6570 N   0  0  0  0  0  0  0  0  0  0  0  0
  131.2010  121.1340   61.6900 C   0  0  0  0  0  0  0  0  0  0  0  0
  131.6450  119.8620   61.0270 C   0  0  0  0  0  0  0  0  0  0  0  0
  132.8340  119.8130   60.2810 C   0  0  0  0  0  0  0  0  0  0  0  0
  133.2490  118.6370   59.6640 C   0  0  0  0  0  0  0  0  0  0  0  0
  132.4750  117.4860   59.7810 C   0  0  0  0  0  0  0  0  0  0  0  0
  131.2920  117.5060   60.5110 C   0  0  0  0  0  0  0  0  0  0  0  0
  130.8810  118.6850   61.1260 C   0  0  0  0  0  0  0  0  0  0  0  0
  130.0230  121.7950   61.3230 C   0  0  0  0  0  0  0  0  0  0  0  0
  129.6270  122.9850   61.9530 C   0  0  0  0  0  0  0  0  0  0  0  0
  128.3250  123.6570   61.5010 C   0  0  0  0  0  0  0  0  0  0  0  0
  127.7310  123.0210   60.4890 F   0  0  0  0  0  0  0  0  0  0  0  0
  127.4600  123.6900   62.5150 F   0  0  0  0  0  0  0  0  0  0  0  0
  128.5770  124.9010   61.0970 F   0  0  0  0  0  0  0  0  0  0  0  0
  130.4750  123.4950   62.9780 C   0  0  0  0  0  0  0  0  0  0  0  0
  1  2  1  0
  2  3  2  0
  3  4  1  0
  4  5  2  0
  4  6  1  0
  6  7  1  0
  7  8  1  0
  8  9  2  0
  9 10  1  0
 10 11  2  0
 11 12  1  0
 12 13  2  0
  3 14  1  0
 14 15  1  0
 15 16  2  0
 16 17  1  0
 17 18  1  0
 18 19  2  0
 19 20  1  0
 20 21  2  0
 21 22  1  0
 22 23  2  0
 17 24  2  0
 24 25  1  0
 25 26  1  0
 26 27  1  0
 26 28  1  0
 26 29  1  0
 25 30  2  0
 30  2  1  0
 13  8  1  0
 30 15  1  0
 23 18  1  0
M  END
>  <Binding energies>  (56) 
[-8.28]

>  <Ligand effiencies>  (56) 
[-0.2509090909090909]

>  <Interactions>  (56) 
["V-B:GLU:543:CD:9879, H-A:TYR:484:OH:4347, V-B:PRO:540:CA:9854, H-B:GLU:543:OE2:9881, H-B:GLU:543:OE1:9880, V-A:LEU:475:CD2:4258, V-A:HIS:383:CE1:3393, V-B:TYR:539:CD2:9845, V-A:ILE:369:CG2:3236, V-B:TYR:539:CE2:9847, V-A:SER:385:CA:3406, V-A:GLY:454:CA:4048, V-A:HIS:456:CE1:4069, V-B:GLU:543:CB:9877, V-A:GLU:543:CD:4907, V-B:HIS:456:CE1:9040, V-B:GLU:543:C:9873, H-A:ARG:545:NH2:4927, H-A:ARG:545:NE:4923, V-A:LEU:373:CD2:3280, V-A:VAL:384:C:3396"]

$$$$
4ch_Grossjean_2025
     RDKit          3D

 36 39  0  0  0  0  0  0  0  0999 V2000
  128.0660  129.9910   64.9740 C   0  0  0  0  0  0  0  0  0  0  0  0
  127.5340  129.6810   66.2580 O   0  0  0  0  0  0  0  0  0  0  0  0
  128.1080  128.6680   67.0030 C   0  0  0  0  0  0  0  0  0  0  0  0
  129.4170  128.1980   66.8100 C   0  0  0  0  0  0  0  0  0  0  0  0
  129.9330  127.1700   67.6020 C   0  0  0  0  0  0  0  0  0  0  0  0
  131.3460  126.6540   67.3590 C   0  0  0  0  0  0  0  0  0  0  0  0
  131.4580  125.7060   66.2500 N   0  0  0  0  0  0  0  0  0  0  0  0
  132.5960  125.3940   65.5960 C   0  0  0  0  0  0  0  0  0  0  0  0
  133.6890  125.8750   65.9020 O   0  0  0  0  0  0  0  0  0  0  0  0
  132.4680  124.4150   64.5170 C   0  0  0  0  0  0  0  0  0  0  0  0
  131.8310  122.8080   64.8540 S   0  0  0  0  0  0  0  0  0  0  0  0
  131.9770  122.3500   63.1740 C   0  0  0  0  0  0  0  0  0  0  0  0
  131.6300  121.1370   62.7520 N   0  0  0  0  0  0  0  0  0  0  0  0
  131.7730  120.8740   61.4270 C   0  0  0  0  0  0  0  0  0  0  0  0
  131.3780  119.4940   60.9840 C   0  0  0  0  0  0  0  0  0  0  0  0
  132.1430  118.7980   60.0340 C   0  0  0  0  0  0  0  0  0  0  0  0
  131.7810  117.5190   59.6180 C   0  0  0  0  0  0  0  0  0  0  0  0
  130.6460  116.9160   60.1480 C   0  0  0  0  0  0  0  0  0  0  0  0
  129.8690  117.5850   61.0880 C   0  0  0  0  0  0  0  0  0  0  0  0
  130.2320  118.8640   61.4990 C   0  0  0  0  0  0  0  0  0  0  0  0
  132.2810  121.8250   60.5360 C   0  0  0  0  0  0  0  0  0  0  0  0
  132.6520  123.1080   60.9710 C   0  0  0  0  0  0  0  0  0  0  0  0
  133.2020  124.1020   59.9410 C   0  0  0  0  0  0  0  0  0  0  0  0
  134.4120  124.5680   60.2570 F   0  0  0  0  0  0  0  0  0  0  0  0
  133.2990  123.5120   58.7510 F   0  0  0  0  0  0  0  0  0  0  0  0
  132.3840  125.1500   59.8460 F   0  0  0  0  0  0  0  0  0  0  0  0
  132.4940  123.3980   62.3560 C   0  0  0  0  0  0  0  0  0  0  0  0
  132.7540  124.5730   63.1520 C   0  0  0  0  0  0  0  0  0  0  0  0
  133.2480  125.7370   62.6200 N   0  0  0  0  0  0  0  0  0  0  0  0
  129.1310  126.5920   68.5860 C   0  0  0  0  0  0  0  0  0  0  0  0
  127.8180  127.0410   68.8000 C   0  0  0  0  0  0  0  0  0  0  0  0
  126.9690  126.5150   69.7570 O   0  0  0  0  0  0  0  0  0  0  0  0
  127.4080  126.4270   71.1090 C   0  0  0  0  0  0  0  0  0  0  0  0
  127.3210  128.0840   68.0050 C   0  0  0  0  0  0  0  0  0  0  0  0
  126.0330  128.5230   68.1940 O   0  0  0  0  0  0  0  0  0  0  0  0
  125.1830  128.3230   67.0720 C   0  0  0  0  0  0  0  0  0  0  0  0
  1  2  1  0
  2  3  1  0
  3  4  2  0
  4  5  1  0
  5  6  1  0
  6  7  1  0
  7  8  1  0
  8  9  2  0
  8 10  1  0
 10 11  1  0
 11 12  1  0
 12 13  2  0
 13 14  1  0
 14 15  1  0
 15 16  2  0
 16 17  1  0
 17 18  2  0
 18 19  1  0
 19 20  2  0
 14 21  2  0
 21 22  1  0
 22 23  1  0
 23 24  1  0
 23 25  1  0
 23 26  1  0
 22 27  2  0
 27 28  1  0
 28 29  1  0
  5 30  2  0
 30 31  1  0
 31 32  1  0
 32 33  1  0
 31 34  2  0
 34 35  1  0
 35 36  1  0
 34  3  1  0
 28 10  2  0
 27 12  1  0
 20 15  1  0
M  END
>  <Binding energies>  (57) 
[-7.93]

>  <Ligand effiencies>  (57) 
[-0.20333333333333334]

>  <Interactions>  (57) 
["V-A:ASP:366:CG:3212, V-A:ASP:366:CB:3211, V-B:GLU:543:CD:9879, H-A:TYR:484:OH:4347, V-B:ALA:541:CB:9863, H-B:GLU:543:OE2:9881, V-B:TYR:539:C:9838, V-A:LEU:475:CD2:4258, V-A:PRO:482:CG:4326, V-A:HIS:383:CE1:3393, V-A:ILE:369:CD1:3238, V-B:TYR:539:CD2:9845, V-A:ILE:369:CG2:3236, V-B:TYR:539:CE2:9847, V-B:TYR:539:CB:9842, V-A:GLY:454:CA:4048, V-B:VAL:344:CG1:7971, V-B:TYR:539:CG:9843, V-B:TYR:539:CZ:9848, V-A:PRO:482:CB:4325, V-B:GLU:543:CG:9878, H-A:GLY:454:N:4049, V-A:ARG:545:CZ:4925, V-A:HIS:456:CE1:4069, V-B:GLU:543:CB:9877, V-A:GLU:543:CD:4907, V-B:HIS:456:CE1:9040, V-B:ARG:545:CD:9894, V-B:GLU:543:C:9873, V-A:GLU:543:CG:4906, V-B:ARG:545:CG:9893, H-A:ASP:366:OD2:3214, V-A:GLU:543:CB:4905, H-A:ARG:545:NE:4923, H-B:TYR:484:OH:9318, V-A:TYR:484:CZ:4346, V-B:GLY:544:C:9883, H-A:ASP:366:OD1:3213, V-A:ILE:369:CB:3235, V-B:ARG:545:CZ:9897, V-A:ASP:366:CA:3209, V-A:ILE:369:CG1:3237"]

$$$$
4cj_Grossjean_2025
     RDKit          3D

 28 31  0  0  0  0  0  0  0  0999 V2000
  132.1190  125.3670   61.2480 N   0  0  0  0  0  0  0  0  0  0  0  0
  130.9750  124.6150   61.3260 C   0  0  0  0  0  0  0  0  0  0  0  0
  130.5130  124.0390   62.5210 C   0  0  0  0  0  0  0  0  0  0  0  0
  131.1040  124.1140   63.8600 C   0  0  0  0  0  0  0  0  0  0  0  0
  130.8810  123.2370   64.6980 O   0  0  0  0  0  0  0  0  0  0  0  0
  131.8820  125.2000   64.0930 N   0  0  0  0  0  0  0  0  0  0  0  0
  132.5530  125.5080   65.2680 C   0  0  0  0  0  0  0  0  0  0  0  0
  133.8300  125.3340   65.5380 N   0  0  0  0  0  0  0  0  0  0  0  0
  134.1280  125.7430   66.7550 C   0  0  0  0  0  0  0  0  0  0  0  0
  133.0770  126.2650   67.5040 C   0  0  0  0  0  0  0  0  0  0  0  0
  131.6230  126.2140   66.5510 S   0  0  0  0  0  0  0  0  0  0  0  0
  129.0110  123.1540   62.2630 S   0  0  0  0  0  0  0  0  0  0  0  0
  129.0150  123.5570   60.5620 C   0  0  0  0  0  0  0  0  0  0  0  0
  128.0460  123.1440   59.7490 N   0  0  0  0  0  0  0  0  0  0  0  0
  128.1290  123.5130   58.4450 C   0  0  0  0  0  0  0  0  0  0  0  0
  127.0130  123.0420   57.5570 C   0  0  0  0  0  0  0  0  0  0  0  0
  127.2850  122.4510   56.3130 C   0  0  0  0  0  0  0  0  0  0  0  0
  126.2540  122.0170   55.4830 C   0  0  0  0  0  0  0  0  0  0  0  0
  124.9320  122.1710   55.8860 C   0  0  0  0  0  0  0  0  0  0  0  0
  124.6350  122.7550   57.1120 C   0  0  0  0  0  0  0  0  0  0  0  0
  125.6680  123.1860   57.9400 C   0  0  0  0  0  0  0  0  0  0  0  0
  129.1970  124.2740   57.9590 C   0  0  0  0  0  0  0  0  0  0  0  0
  130.2260  124.7130   58.8070 C   0  0  0  0  0  0  0  0  0  0  0  0
  131.3650  125.5470   58.2100 C   0  0  0  0  0  0  0  0  0  0  0  0
  131.4650  126.7630   58.7510 F   0  0  0  0  0  0  0  0  0  0  0  0
  132.5280  124.9260   58.4060 F   0  0  0  0  0  0  0  0  0  0  0  0
  131.1690  125.7080   56.9010 F   0  0  0  0  0  0  0  0  0  0  0  0
  130.1390  124.3480   60.1810 C   0  0  0  0  0  0  0  0  0  0  0  0
  1  2  1  0
  2  3  2  0
  3  4  1  0
  4  5  2  0
  4  6  1  0
  6  7  1  0
  7  8  2  0
  8  9  1  0
  9 10  2  0
 10 11  1  0
  3 12  1  0
 12 13  1  0
 13 14  2  0
 14 15  1  0
 15 16  1  0
 16 17  2  0
 17 18  1  0
 18 19  2  0
 19 20  1  0
 20 21  2  0
 15 22  2  0
 22 23  1  0
 23 24  1  0
 24 25  1  0
 24 26  1  0
 24 27  1  0
 23 28  2  0
 28  2  1  0
 11  7  1  0
 28 13  1  0
 21 16  1  0
M  END
>  <Binding energies>  (58) 
[-7.6]

>  <Ligand effiencies>  (58) 
[-0.24516129032258063]

>  <Interactions>  (58) 
["V-A:ASP:366:CG:3212, V-A:ASP:366:CB:3211, V-B:PRO:540:N:9855, H-A:TYR:484:OH:4347, V-B:PRO:540:CA:9854, V-B:TYR:539:C:9838, V-B:TYR:539:CE2:9847, V-B:TYR:539:CG:9843, V-B:MET:535:CE:9806, V-B:TYR:539:CZ:9848, V-B:PRO:540:CB:9856, H-A:GLY:454:N:4049, V-A:ARG:545:CD:4922, V-B:TYR:539:CD1:9844, V-B:PRO:540:CD:9858, V-B:TYR:531:CE2:9764, V-B:LEU:363:CD1:8159, V-A:ARG:545:CZ:4925, V-B:ILE:538:CD1:9836, V-A:ARG:545:CG:4921, V-A:HIS:456:CE1:4069, V-B:ILE:538:CG2:9834, H-A:ASP:366:OD2:3214, V-B:ILE:538:CA:9831, V-B:TYR:539:CE1:9846, V-B:ILE:538:C:9829, V-B:ILE:538:CB:9833, H-A:ARG:545:NE:4923, V-A:TYR:484:CZ:4346, H-A:ASP:366:OD1:3213, V-B:MET:535:CG:9804, V-B:PRO:540:CG:9857"]

$$$$
4ck_Grossjean_2025
     RDKit          3D

 33 35  0  0  0  0  0  0  0  0999 V2000
  130.7790  124.5710   74.5910 C   0  0  0  0  0  0  0  0  0  0  0  0
  129.4740  125.1250   74.5320 O   0  0  0  0  0  0  0  0  0  0  0  0
  128.8760  125.0250   73.2470 C   0  0  0  0  0  0  0  0  0  0  0  0
  127.9200  126.2070   73.0450 C   0  0  0  0  0  0  0  0  0  0  0  0
  127.5450  126.2730   71.6760 O   0  0  0  0  0  0  0  0  0  0  0  0
  128.6250  126.5850   70.8070 C   0  0  0  0  0  0  0  0  0  0  0  0
  128.8770  125.3970   69.8700 C   0  0  0  0  0  0  0  0  0  0  0  0
  128.9270  125.8720   68.5320 O   0  0  0  0  0  0  0  0  0  0  0  0
  129.4490  127.1890   68.4090 C   0  0  0  0  0  0  0  0  0  0  0  0
  130.7140  127.1620   67.5360 C   0  0  0  0  0  0  0  0  0  0  0  0
  130.6480  126.1260   66.5040 N   0  0  0  0  0  0  0  0  0  0  0  0
  131.5970  125.8730   65.5790 C   0  0  0  0  0  0  0  0  0  0  0  0
  132.6600  126.4920   65.5280 O   0  0  0  0  0  0  0  0  0  0  0  0
  131.2940  124.7990   64.6320 C   0  0  0  0  0  0  0  0  0  0  0  0
  132.3680  123.4080   64.5010 S   0  0  0  0  0  0  0  0  0  0  0  0
  131.3280  122.6640   63.3080 C   0  0  0  0  0  0  0  0  0  0  0  0
  131.6230  121.4840   62.7700 N   0  0  0  0  0  0  0  0  0  0  0  0
  130.7550  120.9860   61.8500 C   0  0  0  0  0  0  0  0  0  0  0  0
  131.1070  119.6440   61.2750 C   0  0  0  0  0  0  0  0  0  0  0  0
  132.2810  119.4680   60.5250 C   0  0  0  0  0  0  0  0  0  0  0  0
  132.6110  118.2260   59.9870 C   0  0  0  0  0  0  0  0  0  0  0  0
  131.7690  117.1390   60.1920 C   0  0  0  0  0  0  0  0  0  0  0  0
  130.6020  117.2840   60.9350 C   0  0  0  0  0  0  0  0  0  0  0  0
  130.2760  118.5270   61.4730 C   0  0  0  0  0  0  0  0  0  0  0  0
  129.5930  121.6710   61.4830 C   0  0  0  0  0  0  0  0  0  0  0  0
  129.2730  122.9180   62.0440 C   0  0  0  0  0  0  0  0  0  0  0  0
  127.9850  123.6170   61.5930 C   0  0  0  0  0  0  0  0  0  0  0  0
  128.1970  124.8390   61.1030 F   0  0  0  0  0  0  0  0  0  0  0  0
  127.3940  122.9000   60.6380 F   0  0  0  0  0  0  0  0  0  0  0  0
  127.1540  123.7400   62.6290 F   0  0  0  0  0  0  0  0  0  0  0  0
  130.1770  123.4510   63.0080 C   0  0  0  0  0  0  0  0  0  0  0  0
  130.1810  124.6650   63.7880 C   0  0  0  0  0  0  0  0  0  0  0  0
  129.1860  125.6040   63.7050 N   0  0  0  0  0  0  0  0  0  0  0  0
  1  2  1  0
  2  3  1  0
  3  4  1  0
  4  5  1  0
  5  6  1  0
  6  7  1  0
  7  8  1  0
  8  9  1  0
  9 10  1  0
 10 11  1  0
 11 12  1  0
 12 13  2  0
 12 14  1  0
 14 15  1  0
 15 16  1  0
 16 17  2  0
 17 18  1  0
 18 19  1  0
 19 20  2  0
 20 21  1  0
 21 22  2  0
 22 23  1  0
 23 24  2  0
 18 25  2  0
 25 26  1  0
 26 27  1  0
 27 28  1  0
 27 29  1  0
 27 30  1  0
 26 31  2  0
 31 32  1  0
 32 33  1  0
 32 14  2  0
 31 16  1  0
 24 19  1  0
M  END
>  <Binding energies>  (59) 
[-6.82]

>  <Ligand effiencies>  (59) 
[-0.18944444444444444]

>  <Interactions>  (59) 
["V-B:GLU:543:CD:9879, V-B:PRO:540:N:9855, H-A:TYR:484:OH:4347, V-B:ALA:541:CB:9863, V-B:PRO:540:CA:9854, H-B:GLU:543:OE2:9881, V-B:PRO:540:C:9852, H-B:GLU:543:OE1:9880, V-A:LEU:475:CD2:4258, V-A:PRO:482:CG:4326, V-A:HIS:383:CE1:3393, V-B:TYR:539:CD2:9845, V-B:TYR:539:CE2:9847, V-A:GLY:454:CA:4048, V-A:PRO:482:CB:4325, V-B:PRO:540:CB:9856, V-A:HIS:456:CE1:4069, V-B:GLU:543:CB:9877, V-A:GLU:543:CD:4907, V-B:LYS:547:CE:9921, H-B:LYS:547:NZ:9922, V-A:HIS:456:CD2:4067, V-B:GLU:543:C:9873, H-A:ARG:545:NH2:4927, H-A:ARG:545:NE:4923, V-A:TYR:484:CE2:4345, V-B:GLU:543:CA:9875, V-A:HIS:456:CG:4065"]

$$$$
4dd_Grossjean_2025
     RDKit          3D

 26 29  0  0  0  0  0  0  0  0999 V2000
  133.8160  124.2540   60.4590 C   0  0  0  0  0  0  0  0  0  0  0  0
  133.0120  123.3030   61.3310 C   0  0  0  0  0  0  0  0  0  0  0  0
  132.7560  122.0150   60.8430 C   0  0  0  0  0  0  0  0  0  0  0  0
  132.0220  121.0920   61.5980 C   0  0  0  0  0  0  0  0  0  0  0  0
  131.7280  119.7090   61.0970 C   0  0  0  0  0  0  0  0  0  0  0  0
  132.6010  119.0660   60.2040 C   0  0  0  0  0  0  0  0  0  0  0  0
  132.3360  117.7810   59.7380 C   0  0  0  0  0  0  0  0  0  0  0  0
  131.1880  117.1180   60.1590 C   0  0  0  0  0  0  0  0  0  0  0  0
  130.3080  117.7290   61.0450 C   0  0  0  0  0  0  0  0  0  0  0  0
  130.5780  119.0140   61.5100 C   0  0  0  0  0  0  0  0  0  0  0  0
  131.5180  121.4040   62.8230 N   0  0  0  0  0  0  0  0  0  0  0  0
  131.7660  122.6260   63.2920 C   0  0  0  0  0  0  0  0  0  0  0  0
  131.1940  123.1530   64.8590 S   0  0  0  0  0  0  0  0  0  0  0  0
  131.9330  124.7430   64.6460 C   0  0  0  0  0  0  0  0  0  0  0  0
  131.8300  125.7550   65.6990 C   0  0  0  0  0  0  0  0  0  0  0  0
  132.8240  126.0950   66.3420 O   0  0  0  0  0  0  0  0  0  0  0  0
  130.5900  126.2700   65.8900 N   0  0  0  0  0  0  0  0  0  0  0  0
  130.1460  127.2050   66.8420 C   0  0  0  0  0  0  0  0  0  0  0  0
  129.1950  128.1270   66.3940 C   0  0  0  0  0  0  0  0  0  0  0  0
  128.6810  129.0850   67.2640 C   0  0  0  0  0  0  0  0  0  0  0  0
  129.1130  129.1170   68.5870 C   0  0  0  0  0  0  0  0  0  0  0  0
  130.0500  128.1970   69.0500 C   0  0  0  0  0  0  0  0  0  0  0  0
  130.5660  127.2380   68.1820 C   0  0  0  0  0  0  0  0  0  0  0  0
  132.5820  124.8360   63.4050 C   0  0  0  0  0  0  0  0  0  0  0  0
  133.2390  125.9600   62.9700 N   0  0  0  0  0  0  0  0  0  0  0  0
  132.5040  123.6370   62.6130 C   0  0  0  0  0  0  0  0  0  0  0  0
  1  2  1  0
  2  3  2  0
  3  4  1  0
  4  5  1  0
  5  6  2  0
  6  7  1  0
  7  8  2  0
  8  9  1  0
  9 10  2  0
  4 11  2  0
 11 12  1  0
 12 13  1  0
 13 14  1  0
 14 15  1  0
 15 16  2  0
 15 17  1  0
 17 18  1  0
 18 19  2  0
 19 20  1  0
 20 21  2  0
 21 22  1  0
 22 23  2  0
 14 24  2  0
 24 25  1  0
 24 26  1  0
 26  2  1  0
 10  5  1  0
 26 12  2  0
 23 18  1  0
M  END
>  <Binding energies>  (60) 
[-8.77]

>  <Ligand effiencies>  (60) 
[-0.30241379310344824]

>  <Interactions>  (60) 
["V-A:ASP:366:CG:3212, V-A:ASP:366:CB:3211, V-B:GLU:543:CD:9879, H-A:TYR:484:OH:4347, V-B:ALA:541:CB:9863, H-B:GLU:543:OE2:9881, V-A:LEU:475:CD2:4258, V-A:PRO:482:CG:4326, V-A:HIS:383:CE1:3393, V-A:ILE:369:CD1:3238, V-B:TYR:539:CD2:9845, V-A:ILE:369:CG2:3236, V-B:TYR:539:CE2:9847, V-B:TYR:539:CB:9842, V-A:PRO:482:CB:4325, V-A:ARG:545:CZ:4925, V-A:HIS:456:CE1:4069, V-A:GLU:543:CD:4907, V-B:HIS:456:CE1:9040, V-A:GLU:543:CG:4906, H-A:ASP:366:OD2:3214, V-A:GLU:543:CB:4905, H-A:ARG:545:NE:4923, V-A:TYR:484:CZ:4346, H-A:ASP:366:OD1:3213, V-A:ILE:369:CB:3235, V-A:ASP:366:CA:3209"]

$$$$
4dg_Grossjean_2025
     RDKit          3D

 27 30  0  0  0  0  0  0  0  0999 V2000
  133.6540  124.2420   60.5400 C   0  0  0  0  0  0  0  0  0  0  0  0
  132.8110  123.3310   61.4180 C   0  0  0  0  0  0  0  0  0  0  0  0
  132.5430  122.0350   60.9610 C   0  0  0  0  0  0  0  0  0  0  0  0
  131.7730  121.1480   61.7220 C   0  0  0  0  0  0  0  0  0  0  0  0
  131.4710  119.7510   61.2580 C   0  0  0  0  0  0  0  0  0  0  0  0
  132.3600  119.0630   60.4160 C   0  0  0  0  0  0  0  0  0  0  0  0
  132.0820  117.7690   59.9800 C   0  0  0  0  0  0  0  0  0  0  0  0
  130.9080  117.1420   60.3810 C   0  0  0  0  0  0  0  0  0  0  0  0
  130.0070  117.8020   61.2120 C   0  0  0  0  0  0  0  0  0  0  0  0
  130.2880  119.0950   61.6450 C   0  0  0  0  0  0  0  0  0  0  0  0
  131.2700  121.4950   62.9380 N   0  0  0  0  0  0  0  0  0  0  0  0
  131.5230  122.7280   63.3750 C   0  0  0  0  0  0  0  0  0  0  0  0
  130.9310  123.3040   64.9150 S   0  0  0  0  0  0  0  0  0  0  0  0
  131.6880  124.8770   64.6670 C   0  0  0  0  0  0  0  0  0  0  0  0
  131.5250  125.9360   65.6620 C   0  0  0  0  0  0  0  0  0  0  0  0
  132.4430  126.2490   66.4230 O   0  0  0  0  0  0  0  0  0  0  0  0
  130.3060  126.5130   65.7150 N   0  0  0  0  0  0  0  0  0  0  0  0
  129.9230  127.6020   66.6120 C   0  0  0  0  0  0  0  0  0  0  0  0
  129.5390  127.1300   68.0090 C   0  0  0  0  0  0  0  0  0  0  0  0
  129.1650  128.0640   68.9800 C   0  0  0  0  0  0  0  0  0  0  0  0
  128.7830  127.6340   70.2470 C   0  0  0  0  0  0  0  0  0  0  0  0
  128.7660  126.2710   70.5380 C   0  0  0  0  0  0  0  0  0  0  0  0
  129.1210  125.3340   69.5710 C   0  0  0  0  0  0  0  0  0  0  0  0
  129.5020  125.7640   68.3020 C   0  0  0  0  0  0  0  0  0  0  0  0
  132.3500  124.9350   63.4320 C   0  0  0  0  0  0  0  0  0  0  0  0
  133.0140  126.0440   62.9730 N   0  0  0  0  0  0  0  0  0  0  0  0
  132.2810  123.7120   62.6780 C   0  0  0  0  0  0  0  0  0  0  0  0
  1  2  1  0
  2  3  2  0
  3  4  1  0
  4  5  1  0
  5  6  2  0
  6  7  1  0
  7  8  2  0
  8  9  1  0
  9 10  2  0
  4 11  2  0
 11 12  1  0
 12 13  1  0
 13 14  1  0
 14 15  1  0
 15 16  2  0
 15 17  1  0
 17 18  1  0
 18 19  1  0
 19 20  2  0
 20 21  1  0
 21 22  2  0
 22 23  1  0
 23 24  2  0
 14 25  2  0
 25 26  1  0
 25 27  1  0
 27  2  1  0
 10  5  1  0
 27 12  2  0
 24 19  1  0
M  END
>  <Binding energies>  (61) 
[-8.64]

>  <Ligand effiencies>  (61) 
[-0.28800000000000003]

>  <Interactions>  (61) 
["V-A:ASP:366:CG:3212, V-A:ASP:366:CB:3211, V-B:GLU:543:CD:9879, H-A:TYR:484:OH:4347, V-B:ALA:541:CB:9863, H-B:GLU:543:OE2:9881, V-B:TYR:539:C:9838, V-A:LEU:475:CD2:4258, V-A:PRO:482:CG:4326, V-A:HIS:383:CE1:3393, V-A:ILE:369:CD1:3238, V-B:TYR:539:CD2:9845, V-A:ILE:369:CG2:3236, V-B:TYR:539:CE2:9847, V-B:TYR:539:CB:9842, V-A:PRO:482:CB:4325, V-B:GLU:543:CG:9878, V-A:ARG:545:CZ:4925, V-A:HIS:456:CE1:4069, V-B:GLU:543:CB:9877, V-A:GLU:543:CD:4907, V-B:HIS:456:CE1:9040, V-A:HIS:456:CD2:4067, V-B:GLU:543:C:9873, H-A:ASP:366:OD2:3214, H-A:ARG:545:NE:4923, V-A:TYR:484:CZ:4346, V-A:TYR:484:CE2:4345, H-A:ASP:366:OD1:3213, V-B:GLU:543:CA:9875"]

$$$$
4dj_Grossjean_2025
     RDKit          3D

 25 28  0  0  0  0  0  0  0  0999 V2000
  133.9620  124.2110   60.4960 C   0  0  0  0  0  0  0  0  0  0  0  0
  133.1130  123.2810   61.3490 C   0  0  0  0  0  0  0  0  0  0  0  0
  132.8300  122.0040   60.8500 C   0  0  0  0  0  0  0  0  0  0  0  0
  132.0520  121.1010   61.5850 C   0  0  0  0  0  0  0  0  0  0  0  0
  131.7370  119.7220   61.0790 C   0  0  0  0  0  0  0  0  0  0  0  0
  130.5890  119.0400   61.5130 C   0  0  0  0  0  0  0  0  0  0  0  0
  130.2910  117.7620   61.0480 C   0  0  0  0  0  0  0  0  0  0  0  0
  131.1440  117.1420   60.1400 C   0  0  0  0  0  0  0  0  0  0  0  0
  132.2900  117.7920   59.6960 C   0  0  0  0  0  0  0  0  0  0  0  0
  132.5830  119.0700   60.1630 C   0  0  0  0  0  0  0  0  0  0  0  0
  131.5550  121.4140   62.8130 N   0  0  0  0  0  0  0  0  0  0  0  0
  131.8220  122.6300   63.2880 C   0  0  0  0  0  0  0  0  0  0  0  0
  131.2390  123.1660   64.8470 S   0  0  0  0  0  0  0  0  0  0  0  0
  132.0130  124.7400   64.6480 C   0  0  0  0  0  0  0  0  0  0  0  0
  131.8930  125.7610   65.6900 C   0  0  0  0  0  0  0  0  0  0  0  0
  132.8910  126.3500   66.1130 O   0  0  0  0  0  0  0  0  0  0  0  0
  130.6350  125.9890   66.1410 N   0  0  0  0  0  0  0  0  0  0  0  0
  130.2510  126.8950   67.1190 C   0  0  0  0  0  0  0  0  0  0  0  0
  130.5810  126.8980   68.3930 N   0  0  0  0  0  0  0  0  0  0  0  0
  130.0330  127.9120   69.0340 C   0  0  0  0  0  0  0  0  0  0  0  0
  129.2380  128.7630   68.2740 C   0  0  0  0  0  0  0  0  0  0  0  0
  129.2110  128.1950   66.6310 S   0  0  0  0  0  0  0  0  0  0  0  0
  132.6830  124.8210   63.4180 C   0  0  0  0  0  0  0  0  0  0  0  0
  133.3700  125.9320   62.9950 N   0  0  0  0  0  0  0  0  0  0  0  0
  132.5920  123.6270   62.6220 C   0  0  0  0  0  0  0  0  0  0  0  0
  1  2  1  0
  2  3  2  0
  3  4  1  0
  4  5  1  0
  5  6  2  0
  6  7  1  0
  7  8  2  0
  8  9  1  0
  9 10  2  0
  4 11  2  0
 11 12  1  0
 12 13  1  0
 13 14  1  0
 14 15  1  0
 15 16  2  0
 15 17  1  0
 17 18  1  0
 18 19  2  0
 19 20  1  0
 20 21  2  0
 21 22  1  0
 14 23  2  0
 23 24  1  0
 23 25  1  0
 25  2  1  0
 10  5  1  0
 25 12  2  0
 22 18  1  0
M  END
>  <Binding energies>  (62) 
[-8.21]

>  <Ligand effiencies>  (62) 
[-0.29321428571428576]

>  <Interactions>  (62) 
["V-A:ASP:366:CG:3212, V-A:ASP:366:CB:3211, V-B:GLU:543:CD:9879, H-A:TYR:484:OH:4347, V-B:ALA:541:CB:9863, H-B:GLU:543:OE2:9881, V-B:TYR:539:C:9838, V-A:LEU:475:CD2:4258, V-A:PRO:482:CG:4326, V-A:HIS:383:CE1:3393, V-A:ILE:369:CD1:3238, V-B:TYR:539:CD2:9845, V-A:ILE:369:CG2:3236, V-B:TYR:539:CE2:9847, V-B:TYR:539:CB:9842, V-A:PRO:482:CB:4325, V-A:ARG:545:CZ:4925, V-A:HIS:456:CE1:4069, V-A:GLU:543:CD:4907, V-A:GLU:543:CG:4906, H-A:ASP:366:OD2:3214, V-A:GLU:543:CB:4905, H-A:ARG:545:NH2:4927, H-A:ARG:545:NE:4923, V-A:TYR:484:CZ:4346, H-A:ASP:366:OD1:3213, V-A:ILE:369:CB:3235, V-A:ASP:366:CA:3209, V-A:ILE:369:CG1:3237"]

$$$$
4ea_Grossjean_2025
     RDKit          3D

 31 34  0  0  0  0  0  0  0  0999 V2000
  124.1700  124.6400   57.7590 C   0  0  0  0  0  0  0  0  0  0  0  0
  124.6260  123.2960   57.1810 C   0  0  0  0  0  0  0  0  0  0  0  0
  125.7490  123.5030   56.3350 O   0  0  0  0  0  0  0  0  0  0  0  0
  126.9050  122.8160   56.5220 C   0  0  0  0  0  0  0  0  0  0  0  0
  127.3230  121.9620   55.7330 O   0  0  0  0  0  0  0  0  0  0  0  0
  127.6240  123.1970   57.7830 C   0  0  0  0  0  0  0  0  0  0  0  0
  128.7630  124.0090   57.7010 C   0  0  0  0  0  0  0  0  0  0  0  0
  129.4520  124.3810   58.8520 C   0  0  0  0  0  0  0  0  0  0  0  0
  129.0190  123.9500   60.1070 C   0  0  0  0  0  0  0  0  0  0  0  0
  129.7940  124.3870   61.1990 N   0  0  0  0  0  0  0  0  0  0  0  0
  130.6290  125.4490   61.3140 C   0  0  0  0  0  0  0  0  0  0  0  0
  130.8560  126.2540   60.4110 O   0  0  0  0  0  0  0  0  0  0  0  0
  131.2760  125.5950   62.6210 C   0  0  0  0  0  0  0  0  0  0  0  0
  132.9700  125.1470   62.8350 S   0  0  0  0  0  0  0  0  0  0  0  0
  132.9260  125.5970   64.5230 C   0  0  0  0  0  0  0  0  0  0  0  0
  133.9970  125.4830   65.3110 N   0  0  0  0  0  0  0  0  0  0  0  0
  133.8310  125.8660   66.6010 C   0  0  0  0  0  0  0  0  0  0  0  0
  135.0610  125.7280   67.4790 C   0  0  0  0  0  0  0  0  0  0  0  0
  132.6330  126.3560   67.1160 C   0  0  0  0  0  0  0  0  0  0  0  0
  131.5130  126.4740   66.2870 C   0  0  0  0  0  0  0  0  0  0  0  0
  130.2470  126.9960   66.8480 C   0  0  0  0  0  0  0  0  0  0  0  0
  129.7200  126.4490   68.0230 C   0  0  0  0  0  0  0  0  0  0  0  0
  128.5310  126.9410   68.5530 C   0  0  0  0  0  0  0  0  0  0  0  0
  127.8650  127.9790   67.9060 C   0  0  0  0  0  0  0  0  0  0  0  0
  128.3780  128.5290   66.7330 C   0  0  0  0  0  0  0  0  0  0  0  0
  129.5680  128.0350   66.2040 C   0  0  0  0  0  0  0  0  0  0  0  0
  131.6450  126.0820   64.9260 C   0  0  0  0  0  0  0  0  0  0  0  0
  130.7220  126.0700   63.8200 C   0  0  0  0  0  0  0  0  0  0  0  0
  129.4230  126.4900   63.9480 N   0  0  0  0  0  0  0  0  0  0  0  0
  127.8790  123.1360   60.1980 C   0  0  0  0  0  0  0  0  0  0  0  0
  127.1920  122.7650   59.0460 C   0  0  0  0  0  0  0  0  0  0  0  0
  1  2  1  0
  2  3  1  0
  3  4  1  0
  4  5  2  0
  4  6  1  0
  6  7  2  0
  7  8  1  0
  8  9  2  0
  9 10  1  0
 10 11  1  0
 11 12  2  0
 11 13  1  0
 13 14  1  0
 14 15  1  0
 15 16  2  0
 16 17  1  0
 17 18  1  0
 17 19  2  0
 19 20  1  0
 20 21  1  0
 21 22  2  0
 22 23  1  0
 23 24  2  0
 24 25  1  0
 25 26  2  0
 20 27  2  0
 27 28  1  0
 28 29  1  0
  9 30  1  0
 30 31  2  0
 31  6  1  0
 28 13  2  0
 27 15  1  0
 26 21  1  0
M  END
>  <Binding energies>  (63) 
[-9.15]

>  <Ligand effiencies>  (63) 
[-0.2691176470588235]

>  <Interactions>  (63) 
["V-A:ASP:366:CG:3212, V-B:GLU:543:CD:9879, V-B:PRO:540:N:9855, H-A:TYR:484:OH:4347, V-B:PRO:540:CA:9854, H-B:GLU:543:OE2:9881, H-B:GLU:543:OE1:9880, V-B:TYR:539:C:9838, V-B:TYR:539:CE2:9847, H-B:TYR:539:N:9841, V-B:MET:535:CE:9806, V-B:TYR:539:CZ:9848, V-B:PRO:540:CB:9856, H-A:GLY:454:N:4049, V-A:GLY:453:C:4041, V-A:ARG:545:CD:4922, V-B:TYR:531:CZ:9765, V-B:TYR:531:CE2:9764, V-B:LEU:363:CD1:8159, V-A:ARG:545:CZ:4925, V-A:ARG:545:CG:4921, V-A:HIS:456:CE1:4069, V-B:GLU:543:CB:9877, V-A:GLU:543:CD:4907, V-A:GLU:543:CG:4906, H-A:ARG:545:NH1:4926, H-A:ARG:545:NH2:4927, V-A:GLY:453:CA:4043, H-A:ARG:545:NE:4923, V-B:ASP:366:CB:8182, H-B:TYR:531:OH:9766, V-A:ILE:455:C:4051, V-A:ARG:545:CB:4920"]

$$$$
4eb_Grossjean_2025
     RDKit          3D

 30 33  0  0  0  0  0  0  0  0999 V2000
  124.6150  123.6160   57.5410 C   0  0  0  0  0  0  0  0  0  0  0  0
  125.5010  123.4760   56.4390 O   0  0  0  0  0  0  0  0  0  0  0  0
  126.7140  122.8830   56.5900 C   0  0  0  0  0  0  0  0  0  0  0  0
  127.1310  121.9910   55.8470 O   0  0  0  0  0  0  0  0  0  0  0  0
  127.4980  123.4240   57.7510 C   0  0  0  0  0  0  0  0  0  0  0  0
  128.0050  122.5330   58.7070 C   0  0  0  0  0  0  0  0  0  0  0  0
  128.7350  123.0030   59.7950 C   0  0  0  0  0  0  0  0  0  0  0  0
  128.9740  124.3690   59.9510 C   0  0  0  0  0  0  0  0  0  0  0  0
  129.7230  124.7280   61.0880 N   0  0  0  0  0  0  0  0  0  0  0  0
  130.4530  125.8420   61.3420 C   0  0  0  0  0  0  0  0  0  0  0  0
  130.5810  126.7820   60.5570 O   0  0  0  0  0  0  0  0  0  0  0  0
  131.1090  125.8740   62.6520 C   0  0  0  0  0  0  0  0  0  0  0  0
  132.7850  125.3470   62.8240 S   0  0  0  0  0  0  0  0  0  0  0  0
  132.7650  125.6830   64.5400 C   0  0  0  0  0  0  0  0  0  0  0  0
  133.8330  125.4740   65.3120 N   0  0  0  0  0  0  0  0  0  0  0  0
  133.6870  125.7740   66.6250 C   0  0  0  0  0  0  0  0  0  0  0  0
  134.9150  125.5290   67.4840 C   0  0  0  0  0  0  0  0  0  0  0  0
  132.5110  126.2730   67.1800 C   0  0  0  0  0  0  0  0  0  0  0  0
  131.3930  126.4900   66.3670 C   0  0  0  0  0  0  0  0  0  0  0  0
  130.1500  127.0210   66.9720 C   0  0  0  0  0  0  0  0  0  0  0  0
  129.5140  128.1320   66.4100 C   0  0  0  0  0  0  0  0  0  0  0  0
  128.3440  128.6310   66.9770 C   0  0  0  0  0  0  0  0  0  0  0  0
  127.8110  128.0190   68.1090 C   0  0  0  0  0  0  0  0  0  0  0  0
  128.4390  126.9130   68.6780 C   0  0  0  0  0  0  0  0  0  0  0  0
  129.6090  126.4160   68.1100 C   0  0  0  0  0  0  0  0  0  0  0  0
  131.5050  126.1880   64.9830 C   0  0  0  0  0  0  0  0  0  0  0  0
  130.5800  126.2870   63.8850 C   0  0  0  0  0  0  0  0  0  0  0  0
  129.2970  126.7460   64.0480 N   0  0  0  0  0  0  0  0  0  0  0  0
  128.4700  125.2680   58.9990 C   0  0  0  0  0  0  0  0  0  0  0  0
  127.7400  124.7970   57.9110 C   0  0  0  0  0  0  0  0  0  0  0  0
  1  2  1  0
  2  3  1  0
  3  4  2  0
  3  5  1  0
  5  6  2  0
  6  7  1  0
  7  8  2  0
  8  9  1  0
  9 10  1  0
 10 11  2  0
 10 12  1  0
 12 13  1  0
 13 14  1  0
 14 15  2  0
 15 16  1  0
 16 17  1  0
 16 18  2  0
 18 19  1  0
 19 20  1  0
 20 21  2  0
 21 22  1  0
 22 23  2  0
 23 24  1  0
 24 25  2  0
 19 26  2  0
 26 27  1  0
 27 28  1  0
  8 29  1  0
 29 30  2  0
 30  5  1  0
 27 12  2  0
 26 14  1  0
 25 20  1  0
M  END
>  <Binding energies>  (64) 
[-8.92]

>  <Ligand effiencies>  (64) 
[-0.2703030303030303]

>  <Interactions>  (64) 
["V-A:ASP:366:CG:3212, V-B:GLU:543:CD:9879, V-B:PRO:540:N:9855, H-A:TYR:484:OH:4347, V-B:PRO:540:CA:9854, H-B:GLU:543:OE2:9881, H-B:GLU:543:OE1:9880, V-B:TYR:539:C:9838, V-B:TYR:539:CD2:9845, V-B:TYR:539:CE2:9847, V-A:GLY:454:CA:4048, H-B:TYR:539:N:9841, V-B:TYR:539:CG:9843, V-B:MET:535:CE:9806, V-B:PRO:540:CB:9856, H-A:GLY:454:N:4049, V-A:GLY:453:C:4041, V-A:ARG:545:CD:4922, V-B:TYR:531:CE2:9764, V-B:LEU:363:CD1:8159, V-A:ARG:545:CZ:4925, V-A:ARG:545:CG:4921, V-A:HIS:456:CE1:4069, V-B:GLU:543:CB:9877, V-A:GLU:543:CD:4907, V-A:GLU:543:CG:4906, H-A:ARG:545:NH2:4927, V-A:GLY:453:CA:4043, H-A:ARG:545:NE:4923, V-A:TYR:484:CZ:4346, H-B:TYR:531:OH:9766, V-A:ILE:455:C:4051, V-A:ARG:545:CB:4920, V-A:GLY:454:C:4046"]

$$$$
8b_Ghoteimi_2023
     RDKit          3D

 34 38  0  0  0  0  0  0  0  0999 V2000
  124.2120  132.3700   63.3910 C   0  0  0  0  0  0  0  0  0  0  0  0
  124.4580  131.3290   64.3300 O   0  0  0  0  0  0  0  0  0  0  0  0
  125.0480  130.1570   63.8960 C   0  0  0  0  0  0  0  0  0  0  0  0
  124.6680  129.6980   62.6370 C   0  0  0  0  0  0  0  0  0  0  0  0
  125.2090  128.5250   62.1180 C   0  0  0  0  0  0  0  0  0  0  0  0
  126.1460  127.7800   62.8480 C   0  0  0  0  0  0  0  0  0  0  0  0
  126.7290  126.5180   62.2960 C   0  0  0  0  0  0  0  0  0  0  0  0
  126.3330  126.0020   61.0580 C   0  0  0  0  0  0  0  0  0  0  0  0
  126.8940  124.8210   60.5640 C   0  0  0  0  0  0  0  0  0  0  0  0
  126.4440  124.2970   59.2530 C   0  0  0  0  0  0  0  0  0  0  0  0
  127.3640  124.0990   58.2230 C   0  0  0  0  0  0  0  0  0  0  0  0
  126.9420  123.5970   56.9950 C   0  0  0  0  0  0  0  0  0  0  0  0
  125.5980  123.2890   56.7780 C   0  0  0  0  0  0  0  0  0  0  0  0
  125.2700  122.7950   55.5300 O   0  0  0  0  0  0  0  0  0  0  0  0
  126.2590  122.1000   54.7770 C   0  0  0  0  0  0  0  0  0  0  0  0
  124.6740  123.4940   57.8150 C   0  0  0  0  0  0  0  0  0  0  0  0
  125.0980  123.9950   59.0430 C   0  0  0  0  0  0  0  0  0  0  0  0
  127.8800  124.1690   61.3520 C   0  0  0  0  0  0  0  0  0  0  0  0
  128.6510  122.9690   61.1540 C   0  0  0  0  0  0  0  0  0  0  0  0
  128.5240  122.1910   60.0320 N   0  0  0  0  0  0  0  0  0  0  0  0
  129.5340  122.6820   62.2070 C   0  0  0  0  0  0  0  0  0  0  0  0
  130.4630  121.5570   62.3360 C   0  0  0  0  0  0  0  0  0  0  0  0
  131.4250  121.6200   63.1050 O   0  0  0  0  0  0  0  0  0  0  0  0
  130.1820  120.4790   61.5600 N   0  0  0  0  0  0  0  0  0  0  0  0
  130.8870  119.2850   61.4860 C   0  0  0  0  0  0  0  0  0  0  0  0
  130.2680  118.0360   61.4780 C   0  0  0  0  0  0  0  0  0  0  0  0
  131.2980  117.1260   61.4000 C   0  0  0  0  0  0  0  0  0  0  0  0
  132.4760  117.7930   61.3600 O   0  0  0  0  0  0  0  0  0  0  0  0
  132.2020  119.1610   61.4140 N   0  0  0  0  0  0  0  0  0  0  0  0
  129.4300  123.9020   63.4770 S   0  0  0  0  0  0  0  0  0  0  0  0
  128.2090  124.7860   62.5930 C   0  0  0  0  0  0  0  0  0  0  0  0
  127.6730  125.9110   63.0650 N   0  0  0  0  0  0  0  0  0  0  0  0
  126.5260  128.2480   64.1130 C   0  0  0  0  0  0  0  0  0  0  0  0
  125.9860  129.4210   64.6350 C   0  0  0  0  0  0  0  0  0  0  0  0
  1  2  1  0
  2  3  1  0
  3  4  2  0
  4  5  1  0
  5  6  2  0
  6  7  1  0
  7  8  2  0
  8  9  1  0
  9 10  1  0
 10 11  2  0
 11 12  1  0
 12 13  2  0
 13 14  1  0
 14 15  1  0
 13 16  1  0
 16 17  2  0
  9 18  2  0
 18 19  1  0
 19 20  1  0
 19 21  2  0
 21 22  1  0
 22 23  2  0
 22 24  1  0
 24 25  1  0
 25 26  1  0
 26 27  2  0
 27 28  1  0
 28 29  1  0
 21 30  1  0
 30 31  1  0
 31 32  2  0
  6 33  1  0
 33 34  2  0
 34  3  1  0
 32  7  1  0
 17 10  1  0
 31 18  1  0
 29 25  2  0
M  END
>  <Binding energies>  (65) 
[-7.83]

>  <Ligand effiencies>  (65) 
[-0.21162162162162163]

>  <Interactions>  (65) 
["V-B:GLU:543:CD:9879, V-B:PRO:540:N:9855, V-B:ALA:541:CB:9863, V-B:PRO:540:CA:9854, V-B:TYR:539:C:9838, V-A:LEU:475:CD2:4258, V-A:PRO:482:CG:4326, V-A:HIS:383:CE1:3393, H-B:TYR:539:O:9839, V-B:TYR:539:CD2:9845, V-B:TYR:539:CE2:9847, V-B:MET:535:CE:9806, V-A:PRO:482:CB:4325, V-B:PRO:540:CB:9856, V-B:TYR:531:CZ:9765, V-B:TYR:531:CE2:9764, V-B:LEU:363:CD1:8159, V-B:ILE:538:CD1:9836, V-B:ILE:538:CG2:9834, V-B:ILE:538:CA:9831, V-B:ILE:538:CG1:9835, V-B:ILE:538:C:9829, V-B:ILE:538:CB:9833, H-B:TYR:531:OH:9766, V-B:ASP:366:CG:8183, V-B:MET:535:CG:9804, V-B:VAL:537:C:9821, V-B:ARG:545:CZ:9897, V-B:LEU:475:CD1:9228, V-B:GLY:454:CA:9019, H-B:GLY:454:N:9020"]

$$$$
9d_Ghoteimi_2023
     RDKit          3D

 38 43  0  0  0  0  0  0  0  0999 V2000
  135.1300  124.9200   76.4830 C   0  0  0  0  0  0  0  0  0  0  0  0
  133.8660  125.4690   76.8270 O   0  0  0  0  0  0  0  0  0  0  0  0
  133.4430  126.6390   76.2820 C   0  0  0  0  0  0  0  0  0  0  0  0
  133.9280  127.7410   76.5530 O   0  0  0  0  0  0  0  0  0  0  0  0
  132.3290  126.4600   75.3250 C   0  0  0  0  0  0  0  0  0  0  0  0
  131.8270  127.8050   74.3010 S   0  0  0  0  0  0  0  0  0  0  0  0
  130.6040  126.8170   73.5370 C   0  0  0  0  0  0  0  0  0  0  0  0
  129.8330  127.2930   72.5600 N   0  0  0  0  0  0  0  0  0  0  0  0
  128.9250  126.4400   72.0190 C   0  0  0  0  0  0  0  0  0  0  0  0
  128.0880  126.9880   70.9080 C   0  0  0  0  0  0  0  0  0  0  0  0
  126.7270  126.6780   70.8250 C   0  0  0  0  0  0  0  0  0  0  0  0
  125.9400  127.1810   69.7930 C   0  0  0  0  0  0  0  0  0  0  0  0
  126.4840  128.0250   68.8110 C   0  0  0  0  0  0  0  0  0  0  0  0
  125.7090  128.5250   67.7580 N   0  0  0  0  0  0  0  0  0  0  0  0
  124.4030  129.1680   68.0030 C   0  0  0  0  0  0  0  0  0  0  0  0
  123.5430  129.3400   66.7340 C   0  0  0  0  0  0  0  0  0  0  0  0
  124.2770  130.0390   65.7420 O   0  0  0  0  0  0  0  0  0  0  0  0
  125.4530  129.3370   65.3750 C   0  0  0  0  0  0  0  0  0  0  0  0
  126.3730  129.1630   66.6020 C   0  0  0  0  0  0  0  0  0  0  0  0
  127.8520  128.3200   68.8900 C   0  0  0  0  0  0  0  0  0  0  0  0
  128.6400  127.8140   69.9210 C   0  0  0  0  0  0  0  0  0  0  0  0
  128.7680  125.1290   72.4770 C   0  0  0  0  0  0  0  0  0  0  0  0
  129.5630  124.6300   73.5150 C   0  0  0  0  0  0  0  0  0  0  0  0
  129.3360  123.2370   73.9830 C   0  0  0  0  0  0  0  0  0  0  0  0
  130.3990  122.3370   74.0850 C   0  0  0  0  0  0  0  0  0  0  0  0
  130.1840  121.0390   74.5410 C   0  0  0  0  0  0  0  0  0  0  0  0
  128.9020  120.6120   74.9230 C   0  0  0  0  0  0  0  0  0  0  0  0
  128.6600  119.3130   75.3740 N   0  0  0  0  0  0  0  0  0  0  0  0
  127.5360  118.5510   74.7960 C   0  0  0  0  0  0  0  0  0  0  0  0
  127.6160  117.0360   75.0830 C   0  0  0  0  0  0  0  0  0  0  0  0
  127.7160  116.8100   76.4810 O   0  0  0  0  0  0  0  0  0  0  0  0
  128.8730  117.4240   77.0300 C   0  0  0  0  0  0  0  0  0  0  0  0
  128.8200  118.9490   76.7950 C   0  0  0  0  0  0  0  0  0  0  0  0
  127.8430  121.5240   74.8150 C   0  0  0  0  0  0  0  0  0  0  0  0
  128.0570  122.8210   74.3570 C   0  0  0  0  0  0  0  0  0  0  0  0
  130.5490  125.4940   74.0680 C   0  0  0  0  0  0  0  0  0  0  0  0
  131.5610  125.3160   75.0760 C   0  0  0  0  0  0  0  0  0  0  0  0
  131.7700  124.1230   75.7190 N   0  0  0  0  0  0  0  0  0  0  0  0
  1  2  1  0
  2  3  1  0
  3  4  2  0
  3  5  1  0
  5  6  1  0
  6  7  1  0
  7  8  2  0
  8  9  1  0
  9 10  1  0
 10 11  2  0
 11 12  1  0
 12 13  2  0
 13 14  1  0
 14 15  1  0
 15 16  1  0
 16 17  1  0
 17 18  1  0
 18 19  1  0
 13 20  1  0
 20 21  2  0
  9 22  2  0
 22 23  1  0
 23 24  1  0
 24 25  2  0
 25 26  1  0
 26 27  2  0
 27 28  1  0
 28 29  1  0
 29 30  1  0
 30 31  1  0
 31 32  1  0
 32 33  1  0
 27 34  1  0
 34 35  2  0
 23 36  2  0
 36 37  1  0
 37 38  1  0
 37  5  2  0
 36  7  1  0
 21 10  1  0
 35 24  1  0
 19 14  1  0
 33 28  1  0
M  END
>  <Binding energies>  (66) 
[-8.79]

>  <Ligand effiencies>  (66) 
[-0.21974999999999997]

>  <Interactions>  (66) 
["V-B:GLU:543:CD:9879, V-A:HIS:456:CE1:4069, V-B:GLU:543:CB:9877, V-B:HIS:456:CE1:9040, V-B:LYS:547:CE:9921, V-A:HIS:456:CD2:4067, V-B:ARG:545:CD:9894, V-B:GLU:543:C:9873, V-B:ARG:545:CG:9893, H-A:ASP:473:OD2:4241, V-A:ASP:473:CG:4239, V-A:TYR:484:CB:4340, H-B:TYR:484:OH:9318, V-B:GLY:544:C:9883, V-B:ARG:545:CZ:9897, V-A:HIS:456:CB:4064, V-A:VAL:457:C:4072, V-A:HIS:456:C:4060, V-A:VAL:457:CA:4074, V-A:HIS:456:CG:4065, V-A:VAL:458:CG2:4086, V-A:LYS:471:CD:4218, V-B:ARG:545:CA:9890, H-B:GLY:454:N:9020"]

$$$$
RR10_Rahimova_2017
     RDKit          3D

 34 38  0  0  0  0  0  0  0  0999 V2000
  132.0440  116.7690   58.1250 C   0  0  0  0  0  0  0  0  0  0  0  0
  132.3210  117.4720   59.4650 C   0  0  1  0  0  0  0  0  0  0  0  0
  132.5360  118.9920   59.2850 C   0  0  0  0  0  0  0  0  0  0  0  0
  132.8480  119.6720   60.6380 C   0  0  0  0  0  0  0  0  0  0  0  0
  131.7260  119.4380   61.6820 C   0  0  1  0  0  0  0  0  0  0  0  0
  130.4980  120.1440   61.2930 N   0  0  0  0  0  0  0  0  0  0  0  0
  130.0810  121.3190   61.7990 C   0  0  0  0  0  0  0  0  0  0  0  0
  130.7170  121.9490   62.6480 O   0  0  0  0  0  0  0  0  0  0  0  0
  128.7330  121.8600   61.2770 C   0  0  1  0  0  0  0  0  0  0  0  0
  128.1510  122.8670   62.3030 C   0  0  0  0  0  0  0  0  0  0  0  0
  126.8470  123.4820   61.7410 C   0  0  0  0  0  0  0  0  0  0  0  0
  127.0310  124.0660   60.3210 C   0  0  0  0  0  0  0  0  0  0  0  0
  127.6520  123.0620   59.4160 N   0  0  0  0  0  0  0  0  0  0  0  0
  127.6380  123.5100   57.7020 S   0  0  0  0  0  0  0  0  0  0  0  0
  126.2400  123.6480   57.2780 O   0  0  0  0  0  0  0  0  0  0  0  0
  128.5400  122.5970   56.9900 O   0  0  0  0  0  0  0  0  0  0  0  0
  128.3580  125.1510   57.6450 C   0  0  0  0  0  0  0  0  0  0  0  0
  128.0040  126.0180   56.6060 C   0  0  0  0  0  0  0  0  0  0  0  0
  128.5310  127.3090   56.5020 C   0  0  0  0  0  0  0  0  0  0  0  0
  129.4340  127.6960   57.4950 C   0  0  0  0  0  0  0  0  0  0  0  0
  130.1510  128.8430   57.7350 N   0  0  0  0  0  0  0  0  0  0  0  0
  130.8930  128.6480   58.8820 C   0  0  0  0  0  0  0  0  0  0  0  0
  131.8150  129.6830   59.4610 C   0  0  0  0  0  0  0  0  0  0  0  0
  131.7280  130.0330   60.8150 C   0  0  0  0  0  0  0  0  0  0  0  0
  132.5850  130.9890   61.3540 C   0  0  0  0  0  0  0  0  0  0  0  0
  133.5340  131.6020   60.5400 C   0  0  0  0  0  0  0  0  0  0  0  0
  133.6340  131.2650   59.1940 C   0  0  0  0  0  0  0  0  0  0  0  0
  132.7770  130.3080   58.6560 C   0  0  0  0  0  0  0  0  0  0  0  0
  130.6970  127.4560   59.3990 N   0  0  0  0  0  0  0  0  0  0  0  0
  129.8020  126.8420   58.5630 C   0  0  0  0  0  0  0  0  0  0  0  0
  129.2550  125.5530   58.6420 C   0  0  0  0  0  0  0  0  0  0  0  0
  128.9560  122.5490   59.9080 C   0  0  0  0  0  0  0  0  0  0  0  0
  131.5100  117.9080   61.8400 C   0  0  0  0  0  0  0  0  0  0  0  0
  131.1900  117.2260   60.4910 C   0  0  0  0  0  0  0  0  0  0  0  0
  2  1  1  6
  2  3  1  0
  3  4  1  0
  4  5  1  0
  5  6  1  6
  6  7  1  0
  7  8  2  0
  9  7  1  1
  9 10  1  0
 10 11  1  0
 11 12  1  0
 12 13  1  0
 13 14  1  0
 14 15  2  0
 14 16  2  0
 14 17  1  0
 17 18  2  0
 18 19  1  0
 19 20  2  0
 20 21  1  0
 21 22  1  0
 22 23  1  0
 23 24  2  0
 24 25  1  0
 25 26  2  0
 26 27  1  0
 27 28  2  0
 22 29  2  0
 29 30  1  0
 30 31  2  0
 13 32  1  0
  5 33  1  0
 33 34  1  0
 34  2  1  0
 32  9  1  0
 31 17  1  0
 30 20  1  0
 28 23  1  0
M  END
>  <Binding energies>  (67) 
[-9.75]

>  <Ligand effiencies>  (67) 
[-0.2708333333333333]

>  <Interactions>  (67) 
["V-A:LEU:363:CA:3184, V-A:ASP:366:CG:3212, V-A:ASN:362:C:3171, V-A:PRO:540:CB:4884, V-A:ASP:366:CB:3211, H-A:TYR:531:OH:4794, V-A:PRO:540:CA:4882, V-B:ALA:541:CB:9863, V-B:PRO:540:CA:9854, V-B:PRO:540:C:9852, V-B:TYR:539:C:9838, V-A:LEU:475:CD2:4258, V-A:HIS:383:CE1:3393, H-B:TYR:539:O:9839, V-B:TYR:539:CD2:9845, V-A:ILE:369:CG2:3236, V-B:TYR:539:CE2:9847, V-B:TYR:539:CB:9842, V-A:SER:385:CA:3406, V-A:SER:385:CB:3408, V-A:LEU:373:CD1:3279, V-B:TYR:539:CG:9843, V-B:MET:535:CE:9806, V-A:PRO:482:CB:4325, V-A:LEU:373:CG:3278, V-A:LEU:373:CD2:3280, H-B:TYR:531:OH:9766, V-A:ASN:362:CB:3175, V-A:HIS:383:CG:3389, V-A:HIS:383:CB:3388"]

$$$$
RR12_Rahimova_2017
     RDKit          3D

 26 28  0  0  0  0  0  0  0  0999 V2000
  133.3000  123.9050   59.3160 C   0  0  0  0  0  0  0  0  0  0  0  0
  132.2890  123.4970   60.3960 C   0  0  0  0  0  0  0  0  0  0  0  0
  132.8460  122.4290   61.3550 C   0  0  0  0  0  0  0  0  0  0  0  0
  131.9730  121.2590   61.3920 N   0  0  0  0  0  0  0  0  0  0  0  0
  130.7480  121.1400   62.0300 C   0  0  0  0  0  0  0  0  0  0  0  0
  130.1170  122.2400   62.8650 C   0  0  0  0  0  0  0  0  0  0  0  0
  128.6090  122.3940   62.5910 C   0  0  0  0  0  0  0  0  0  0  0  0
  128.1460  123.8630   62.6190 C   0  0  0  0  0  0  0  0  0  0  0  0
  127.1310  124.1810   61.6150 N   0  0  0  0  0  0  0  0  0  0  0  0
  125.8500  123.7740   61.6560 C   0  0  0  0  0  0  0  0  0  0  0  0
  125.3930  123.0720   62.5610 O   0  0  0  0  0  0  0  0  0  0  0  0
  124.9670  124.2420   60.4930 C   0  0  0  0  0  0  0  0  0  0  0  0
  125.7930  124.7030   59.4230 O   0  0  0  0  0  0  0  0  0  0  0  0
  125.9910  123.8920   58.3220 C   0  0  0  0  0  0  0  0  0  0  0  0
  124.8920  123.7110   57.4790 C   0  0  0  0  0  0  0  0  0  0  0  0
  124.9950  122.9130   56.3430 C   0  0  0  0  0  0  0  0  0  0  0  0
  126.2040  122.2920   56.0450 C   0  0  0  0  0  0  0  0  0  0  0  0
  127.3100  122.4590   56.8760 C   0  0  0  0  0  0  0  0  0  0  0  0
  127.2050  123.2570   58.0130 C   0  0  0  0  0  0  0  0  0  0  0  0
  130.1850  119.9690   61.8590 N   0  0  0  0  0  0  0  0  0  0  0  0
  131.0480  119.2780   61.0550 C   0  0  0  0  0  0  0  0  0  0  0  0
  130.9320  117.9750   60.5490 C   0  0  0  0  0  0  0  0  0  0  0  0
  131.9560  117.4930   59.7330 C   0  0  0  0  0  0  0  0  0  0  0  0
  133.0670  118.2780   59.4250 C   0  0  0  0  0  0  0  0  0  0  0  0
  133.2130  119.5780   59.9140 C   0  0  0  0  0  0  0  0  0  0  0  0
  132.1850  120.0610   60.7330 C   0  0  0  0  0  0  0  0  0  0  0  0
  1  2  1  0
  2  3  1  0
  3  4  1  0
  4  5  1  0
  5  6  1  0
  6  7  1  0
  7  8  1  0
  8  9  1  0
  9 10  1  0
 10 11  2  0
 10 12  1  0
 12 13  1  0
 13 14  1  0
 14 15  2  0
 15 16  1  0
 16 17  2  0
 17 18  1  0
 18 19  2  0
  5 20  2  0
 20 21  1  0
 21 22  2  0
 22 23  1  0
 23 24  2  0
 24 25  1  0
 25 26  2  0
 26  4  1  0
 19 14  1  0
 26 21  1  0
M  END
>  <Binding energies>  (68) 
[-7.66]

>  <Ligand effiencies>  (68) 
[-0.28370370370370374]

>  <Interactions>  (68) 
["V-A:ASP:366:CG:3212, V-B:GLU:543:CD:9879, V-B:PRO:540:N:9855, H-B:ALA:541:N:9862, V-B:ALA:541:CB:9863, V-B:PRO:540:CA:9854, V-B:ALA:541:CA:9861, V-B:TYR:539:C:9838, V-A:LEU:475:CD2:4258, V-A:HIS:383:CE1:3393, V-A:ILE:369:CD1:3238, V-B:TYR:539:CD2:9845, V-A:ILE:369:CG2:3236, V-B:TYR:539:CE2:9847, V-B:TYR:539:CB:9842, V-A:SER:385:CA:3406, V-B:TYR:539:CG:9843, V-B:MET:535:CE:9806, V-B:PRO:540:CB:9856, V-B:TYR:539:CA:9840, V-B:TYR:539:CD1:9844, V-B:TYR:531:CZ:9765, V-B:PRO:540:CD:9858, V-B:TYR:531:CE2:9764, V-B:LEU:363:CD1:8159, V-B:ILE:538:CA:9831, V-B:ILE:538:C:9829, V-A:LEU:373:CD2:3280, V-A:VAL:384:C:3396, V-A:ILE:369:CB:3235"]

$$$$
RR13_Rahimova_2017
     RDKit          3D

 48 54  0  0  0  0  0  0  0  0999 V2000
  127.4770  131.3710   58.4440 Cl  0  0  0  0  0  0  0  0  0  0  0  0
  127.6320  132.0960   60.0090 C   0  0  0  0  0  0  0  0  0  0  0  0
  126.5340  132.7970   60.5130 C   0  0  0  0  0  0  0  0  0  0  0  0
  126.6030  133.4210   61.7550 C   0  0  0  0  0  0  0  0  0  0  0  0
  127.7750  133.3500   62.5030 C   0  0  0  0  0  0  0  0  0  0  0  0
  128.8750  132.6530   62.0080 C   0  0  0  0  0  0  0  0  0  0  0  0
  128.8210  132.0070   60.7610 C   0  0  0  0  0  0  0  0  0  0  0  0
  130.0620  131.2620   60.2230 C   0  0  1  0  0  0  0  0  0  0  0  0
  131.3370  131.7190   60.9470 C   0  0  0  0  0  0  0  0  0  0  0  0
  131.4170  132.1990   62.1690 N   0  0  0  0  0  0  0  0  0  0  0  0
  132.7610  132.4960   62.3740 N   0  0  0  0  0  0  0  0  0  0  0  0
  133.4910  132.2010   61.2390 N   0  0  0  0  0  0  0  0  0  0  0  0
  132.5860  131.7460   60.3650 N   0  0  0  0  0  0  0  0  0  0  0  0
  133.0010  131.2930   59.0420 C   0  0  0  0  0  0  0  0  0  0  0  0
  133.2760  132.5010   58.1260 C   0  0  0  0  0  0  0  0  0  0  0  0
  132.0690  132.8610   57.2740 C   0  0  0  0  0  0  0  0  0  0  0  0
  130.8440  133.1470   57.8840 C   0  0  0  0  0  0  0  0  0  0  0  0
  129.7380  133.4690   57.1030 C   0  0  0  0  0  0  0  0  0  0  0  0
  129.8600  133.5060   55.7150 C   0  0  0  0  0  0  0  0  0  0  0  0
  131.0780  133.2220   55.1010 C   0  0  0  0  0  0  0  0  0  0  0  0
  132.1850  132.8980   55.8820 C   0  0  0  0  0  0  0  0  0  0  0  0
  129.9110  129.7870   60.2220 N   0  0  0  0  0  0  0  0  0  0  0  0
  130.7970  129.1750   61.2300 C   0  0  0  0  0  0  0  0  0  0  0  0
  130.5490  127.6520   61.3270 C   0  0  0  0  0  0  0  0  0  0  0  0
  130.8310  126.9960   60.0400 N   0  0  0  0  0  0  0  0  0  0  0  0
  130.6850  125.5240   60.1100 C   0  0  1  0  0  0  0  0  0  0  0  0
  129.4110  124.9490   59.4540 C   0  0  0  0  0  0  0  0  0  0  0  0
  129.4810  124.6270   58.0910 C   0  0  0  0  0  0  0  0  0  0  0  0
  128.3850  124.0870   57.4210 C   0  0  0  0  0  0  0  0  0  0  0  0
  127.1930  123.8660   58.1050 C   0  0  0  0  0  0  0  0  0  0  0  0
  127.0970  124.1940   59.4540 C   0  0  0  0  0  0  0  0  0  0  0  0
  128.1880  124.7390   60.1340 C   0  0  0  0  0  0  0  0  0  0  0  0
  127.9470  125.1770   61.7920 Cl  0  0  0  0  0  0  0  0  0  0  0  0
  131.9200  124.7730   59.6060 C   0  0  0  0  0  0  0  0  0  0  0  0
  132.5440  125.0050   58.4750 N   0  0  0  0  0  0  0  0  0  0  0  0
  133.6080  124.1100   58.4350 N   0  0  0  0  0  0  0  0  0  0  0  0
  133.6220  123.3400   59.5800 N   0  0  0  0  0  0  0  0  0  0  0  0
  132.5830  123.7810   60.2980 N   0  0  0  0  0  0  0  0  0  0  0  0
  132.2730  123.1700   61.5860 C   0  0  0  0  0  0  0  0  0  0  0  0
  131.0880  122.1970   61.4480 C   0  0  0  0  0  0  0  0  0  0  0  0
  131.5440  120.7740   61.1640 C   0  0  0  0  0  0  0  0  0  0  0  0
  130.6740  119.7040   61.3910 C   0  0  0  0  0  0  0  0  0  0  0  0
  131.0890  118.4020   61.1250 C   0  0  0  0  0  0  0  0  0  0  0  0
  132.3740  118.1740   60.6330 C   0  0  0  0  0  0  0  0  0  0  0  0
  133.2450  119.2370   60.4040 C   0  0  0  0  0  0  0  0  0  0  0  0
  132.8310  120.5390   60.6690 C   0  0  0  0  0  0  0  0  0  0  0  0
  129.9400  127.6070   59.0370 C   0  0  0  0  0  0  0  0  0  0  0  0
  130.2000  129.1270   58.9370 C   0  0  0  0  0  0  0  0  0  0  0  0
  1  2  1  0
  2  3  2  0
  3  4  1  0
  4  5  2  0
  5  6  1  0
  6  7  2  0
  7  8  1  0
  8  9  1  0
  9 10  2  0
 10 11  1  0
 11 12  2  0
 12 13  1  0
 13 14  1  0
 14 15  1  0
 15 16  1  0
 16 17  2  0
 17 18  1  0
 18 19  2  0
 19 20  1  0
 20 21  2  0
  8 22  1  1
 22 23  1  0
 23 24  1  0
 24 25  1  0
 26 25  1  6
 26 27  1  0
 27 28  2  0
 28 29  1  0
 29 30  2  0
 30 31  1  0
 31 32  2  0
 32 33  1  0
 26 34  1  0
 34 35  2  0
 35 36  1  0
 36 37  2  0
 37 38  1  0
 38 39  1  0
 39 40  1  0
 40 41  1  0
 41 42  2  0
 42 43  1  0
 43 44  2  0
 44 45  1  0
 45 46  2  0
 25 47  1  0
 47 48  1  0
  7  2  1  0
 13  9  1  0
 21 16  1  0
 48 22  1  0
 32 27  1  0
 38 34  1  0
 46 41  1  0
M  END
>  <Binding energies>  (69) 
[-13.67]

>  <Ligand effiencies>  (69) 
[-0.28479166666666667]

>  <Interactions>  (69) 
["V-A:LEU:363:CA:3184, V-A:TYR:539:CG:4871, V-A:TYR:539:CZ:4876, V-A:ASP:366:CG:3212, H-A:ALA:541:N:4890, V-A:PRO:540:CB:4884, V-A:TYR:539:CE1:4874, V-A:TYR:539:CD1:4872, V-A:PRO:540:CA:4882, V-A:TYR:531:CE2:4792, V-A:TYR:531:CZ:4793, V-A:ILE:538:CA:4859, V-A:LEU:363:CD1:3188, V-B:ALA:541:CB:9863, V-A:LEU:475:CD2:4258, V-B:TYR:539:CD2:9845, V-A:ILE:369:CG2:3236, V-B:TYR:539:CE2:9847, V-A:SER:385:CA:3406, V-A:SER:385:CB:3408, V-B:MET:535:CE:9806, H-B:TYR:539:OH:9849, V-B:TYR:539:CZ:9848, V-A:ILE:538:CB:4861, V-A:ILE:538:CG2:4862, V-A:PRO:540:N:4883, V-A:MET:535:CG:4832, V-A:PRO:540:CD:4886, V-A:ALA:541:CB:4891, V-A:TYR:539:C:4866, V-A:LEU:363:CB:3186, V-A:TYR:539:CA:4868, H-A:LEU:363:N:3185"]

$$$$
RR14_Rahimova_2017
     RDKit          3D

 39 43  0  0  0  0  0  0  0  0999 V2000
  131.0540  117.3380   59.9800 C   0  0  0  0  0  0  0  0  0  0  0  0
  130.7850  118.1800   61.0960 O   0  0  0  0  0  0  0  0  0  0  0  0
  131.3620  119.4340   61.1460 C   0  0  0  0  0  0  0  0  0  0  0  0
  130.5230  120.4920   61.4990 C   0  0  0  0  0  0  0  0  0  0  0  0
  131.0090  121.7940   61.5520 C   0  0  0  0  0  0  0  0  0  0  0  0
  132.3470  122.0530   61.2450 C   0  0  0  0  0  0  0  0  0  0  0  0
  132.8670  123.4860   61.2390 C   0  0  0  0  0  0  0  0  0  0  0  0
  132.8910  124.0870   59.9050 N   0  0  0  0  0  0  0  0  0  0  0  0
  133.9390  123.8960   59.0970 N   0  0  0  0  0  0  0  0  0  0  0  0
  133.6400  124.6180   57.9580 N   0  0  0  0  0  0  0  0  0  0  0  0
  132.4070  125.2460   58.1000 N   0  0  0  0  0  0  0  0  0  0  0  0
  131.9740  124.9140   59.2930 C   0  0  0  0  0  0  0  0  0  0  0  0
  130.6650  125.3830   59.9130 C   0  0  0  0  0  0  0  0  0  0  0  0
  129.8450  126.1650   58.9720 N   0  0  0  0  0  0  0  0  0  0  0  0
  128.6780  125.4070   58.5010 C   0  0  0  0  0  0  0  0  0  0  0  0
  128.3420  124.1860   59.3850 C   0  0  0  0  0  0  0  0  0  0  0  0
  128.3980  122.8410   58.6310 C   0  0  0  0  0  0  0  0  0  0  0  0
  127.1770  122.5500   57.8730 N   0  0  0  0  0  0  0  0  0  0  0  0
  127.4890  122.3800   56.4480 C   0  0  0  0  0  0  0  0  0  0  0  0
  126.2170  122.1230   55.6130 C   0  0  0  0  0  0  0  0  0  0  0  0
  125.2660  123.1590   55.8380 O   0  0  0  0  0  0  0  0  0  0  0  0
  124.8790  123.2470   57.2040 C   0  0  0  0  0  0  0  0  0  0  0  0
  126.1110  123.5400   58.0870 C   0  0  0  0  0  0  0  0  0  0  0  0
  129.4220  127.4260   59.5970 C   0  0  0  0  0  0  0  0  0  0  0  0
  129.8450  128.7050   58.8790 C   0  0  0  0  0  0  0  0  0  0  0  0
  131.0150  129.3210   59.1780 C   0  0  0  0  0  0  0  0  0  0  0  0
  131.4290  130.5810   58.5260 C   0  0  0  0  0  0  0  0  0  0  0  0
  132.6430  131.2350   58.7970 C   0  0  0  0  0  0  0  0  0  0  0  0
  133.6410  130.6790   59.8040 C   0  0  0  0  0  0  0  0  0  0  0  0
  132.9400  132.4220   58.1230 C   0  0  0  0  0  0  0  0  0  0  0  0
  132.0490  132.9560   57.1930 C   0  0  0  0  0  0  0  0  0  0  0  0
  130.8390  132.3110   56.9160 C   0  0  0  0  0  0  0  0  0  0  0  0
  129.8880  132.9180   55.8930 C   0  0  0  0  0  0  0  0  0  0  0  0
  130.5310  131.1180   57.5870 C   0  0  0  0  0  0  0  0  0  0  0  0
  129.3210  130.4340   57.3410 N   0  0  0  0  0  0  0  0  0  0  0  0
  128.9010  129.2790   57.9140 C   0  0  0  0  0  0  0  0  0  0  0  0
  127.8080  128.7970   57.6160 O   0  0  0  0  0  0  0  0  0  0  0  0
  133.2020  120.9980   60.9210 C   0  0  0  0  0  0  0  0  0  0  0  0
  132.7140  119.6960   60.8670 C   0  0  0  0  0  0  0  0  0  0  0  0
  1  2  1  0
  2  3  1  0
  3  4  2  0
  4  5  1  0
  5  6  2  0
  6  7  1  0
  7  8  1  0
  8  9  1  0
  9 10  2  0
 10 11  1  0
 11 12  2  0
 12 13  1  0
 13 14  1  0
 14 15  1  0
 15 16  1  0
 16 17  1  0
 17 18  1  0
 18 19  1  0
 19 20  1  0
 20 21  1  0
 21 22  1  0
 22 23  1  0
 14 24  1  0
 24 25  1  0
 25 26  2  0
 26 27  1  0
 27 28  2  0
 28 29  1  0
 28 30  1  0
 30 31  2  0
 31 32  1  0
 32 33  1  0
 32 34  2  0
 34 35  1  0
 35 36  1  0
 36 37  2  0
  6 38  1  0
 38 39  2  0
 39  3  1  0
 12  8  1  0
 23 18  1  0
 36 25  1  0
 34 27  1  0
M  END
>  <Binding energies>  (70) 
[-11.1]

>  <Ligand effiencies>  (70) 
[-0.27749999999999997]

>  <Interactions>  (70) 
["V-A:LEU:363:CA:3184, V-A:ASP:366:CG:3212, V-A:ASN:362:C:3171, V-A:PRO:540:CB:4884, V-A:TYR:539:CE1:4874, V-A:ASP:366:CB:3211, H-A:TYR:531:OH:4794, V-A:PRO:540:CA:4882, V-A:TYR:531:CE2:4792, V-A:LEU:363:CD1:3188, V-B:PRO:540:N:9855, V-B:ALA:541:CB:9863, V-B:PRO:540:CA:9854, V-B:TYR:539:C:9838, V-A:LEU:475:CD2:4258, V-A:HIS:383:CE1:3393, V-A:ILE:369:CD1:3238, V-B:TYR:539:CD2:9845, V-A:ILE:369:CG2:3236, V-B:TYR:539:CE2:9847, V-B:TYR:539:CB:9842, V-A:SER:385:CA:3406, V-B:TYR:539:CG:9843, V-B:MET:535:CE:9806, H-B:TYR:539:OH:9849, V-B:TYR:539:CZ:9848, V-B:PRO:540:CB:9856, V-B:TYR:539:CA:9840, V-B:TYR:539:CD1:9844, V-B:PRO:540:CD:9858, V-B:TYR:531:CE2:9764, V-B:LEU:363:CD1:8159, V-B:ILE:538:CD1:9836, V-B:ILE:538:CG2:9834, V-B:ILE:538:CA:9831, V-B:TYR:539:CE1:9846, V-B:ILE:538:C:9829, H-B:TYR:531:OH:9766, V-A:PRO:540:N:4883, V-B:MET:535:CG:9804, V-A:PRO:540:CD:4886"]

$$$$
RR15_Rahimova_2017
     RDKit          3D

 45 49  0  0  0  0  0  0  0  0999 V2000
  123.9620  131.1220   56.0230 C   0  0  0  0  0  0  0  0  0  0  0  0
  125.1030  130.9880   55.1810 O   0  0  0  0  0  0  0  0  0  0  0  0
  126.1330  130.1430   55.5570 C   0  0  0  0  0  0  0  0  0  0  0  0
  125.9350  128.9320   56.2390 C   0  0  0  0  0  0  0  0  0  0  0  0
  127.0170  128.1290   56.5900 C   0  0  0  0  0  0  0  0  0  0  0  0
  128.3250  128.5110   56.2750 C   0  0  0  0  0  0  0  0  0  0  0  0
  129.4940  127.6470   56.6610 C   0  0  0  0  0  0  0  0  0  0  0  0
  130.3870  127.2100   55.7840 N   0  0  0  0  0  0  0  0  0  0  0  0
  131.2890  126.4520   56.5030 N   0  0  0  0  0  0  0  0  0  0  0  0
  130.8520  126.5520   57.7590 N   0  0  0  0  0  0  0  0  0  0  0  0
  131.4280  125.7610   58.8450 C   0  0  0  0  0  0  0  0  0  0  0  0
  130.4240  125.3470   59.9500 C   0  0  0  0  0  0  0  0  0  0  0  0
  129.6430  126.2000   60.3770 O   0  0  0  0  0  0  0  0  0  0  0  0
  130.4050  124.0540   60.3980 N   0  0  0  0  0  0  0  0  0  0  0  0
  129.4920  123.0520   59.8140 C   0  0  0  0  0  0  0  0  0  0  0  0
  128.7490  123.5520   58.5560 C   0  0  0  0  0  0  0  0  0  0  0  0
  128.3220  122.4400   57.5690 C   0  0  0  0  0  0  0  0  0  0  0  0
  126.8780  122.3940   57.3210 N   0  0  0  0  0  0  0  0  0  0  0  0
  126.1280  123.4540   58.0110 C   0  0  0  0  0  0  0  0  0  0  0  0
  124.6280  123.4130   57.6490 C   0  0  0  0  0  0  0  0  0  0  0  0
  124.4620  123.4680   56.2360 O   0  0  0  0  0  0  0  0  0  0  0  0
  125.1010  122.3830   55.5720 C   0  0  0  0  0  0  0  0  0  0  0  0
  126.6150  122.3980   55.8750 C   0  0  0  0  0  0  0  0  0  0  0  0
  131.4120  123.5010   61.3550 C   0  0  2  0  0  0  0  0  0  0  0  0
  132.3990  122.4730   60.7170 C   0  0  0  0  0  0  0  0  0  0  0  0
  133.4340  122.8450   60.1640 O   0  0  0  0  0  0  0  0  0  0  0  0
  132.0580  121.1790   60.8520 N   0  0  0  0  0  0  0  0  0  0  0  0
  132.8710  120.0450   60.4300 C   0  0  0  0  0  0  0  0  0  0  0  0
  132.4280  118.7490   61.1340 C   0  0  2  0  0  0  0  0  0  0  0  0
  132.1620  117.5510   60.2060 C   0  0  0  0  0  0  0  0  0  0  0  0
  130.6590  117.4950   60.0820 C   0  0  0  0  0  0  0  0  0  0  0  0
  130.2260  117.9760   61.4560 C   0  0  0  0  0  0  0  0  0  0  0  0
  131.1470  119.0300   61.7160 O   0  0  0  0  0  0  0  0  0  0  0  0
  130.7480  123.1120   62.6710 C   0  0  0  0  0  0  0  0  0  0  0  0
  131.5700  122.7140   63.7320 C   0  0  0  0  0  0  0  0  0  0  0  0
  131.0190  122.3480   64.9560 C   0  0  0  0  0  0  0  0  0  0  0  0
  129.6380  122.3790   65.1300 C   0  0  0  0  0  0  0  0  0  0  0  0
  129.1030  122.0240   66.3190 F   0  0  0  0  0  0  0  0  0  0  0  0
  128.8050  122.7740   64.0860 C   0  0  0  0  0  0  0  0  0  0  0  0
  129.3570  123.1390   62.8620 C   0  0  0  0  0  0  0  0  0  0  0  0
  129.7190  127.2510   57.9000 N   0  0  0  0  0  0  0  0  0  0  0  0
  128.5190  129.7190   55.5930 C   0  0  0  0  0  0  0  0  0  0  0  0
  127.4370  130.5390   55.2280 C   0  0  0  0  0  0  0  0  0  0  0  0
  127.5780  131.7380   54.5510 O   0  0  0  0  0  0  0  0  0  0  0  0
  128.7340  132.5390   54.7700 C   0  0  0  0  0  0  0  0  0  0  0  0
  1  2  1  0
  2  3  1  0
  3  4  2  0
  4  5  1  0
  5  6  2  0
  6  7  1  0
  7  8  1  0
  8  9  2  0
  9 10  1  0
 10 11  1  0
 11 12  1  0
 12 13  2  0
 12 14  1  0
 14 15  1  0
 15 16  1  0
 16 17  1  0
 17 18  1  0
 18 19  1  0
 19 20  1  0
 20 21  1  0
 21 22  1  0
 22 23  1  0
 24 14  1  6
 24 25  1  0
 25 26  2  0
 25 27  1  0
 27 28  1  0
 29 28  1  6
 29 30  1  0
 30 31  1  0
 31 32  1  0
 32 33  1  0
 24 34  1  0
 34 35  2  0
 35 36  1  0
 36 37  2  0
 37 38  1  0
 37 39  1  0
 39 40  2  0
 10 41  1  0
  6 42  1  0
 42 43  2  0
 43 44  1  0
 44 45  1  0
 43  3  1  0
 41  7  2  0
 23 18  1  0
 33 29  1  0
 40 34  1  0
M  END
>  <Binding energies>  (71) 
[-10.12]

>  <Ligand effiencies>  (71) 
[-0.21999999999999997]

>  <Interactions>  (71) 
["V-A:TYR:539:CZ:4876, V-A:ASP:366:CG:3212, V-A:TYR:539:CE1:4874, V-A:ASP:366:CB:3211, H-A:TYR:531:OH:4794, V-A:TYR:539:CE2:4875, V-B:GLU:543:CD:9879, V-B:PRO:540:N:9855, V-B:ALA:541:CB:9863, V-B:PRO:540:CA:9854, V-B:TYR:539:C:9838, V-A:LEU:475:CD2:4258, V-A:PRO:482:CG:4326, V-A:HIS:383:CE1:3393, V-B:TYR:539:CD2:9845, V-A:ILE:369:CG2:3236, V-B:TYR:539:CE2:9847, V-B:TYR:539:CB:9842, V-A:SER:385:CA:3406, V-A:SER:385:CB:3408, H-B:TYR:539:N:9841, V-B:TYR:539:CG:9843, V-B:MET:535:CE:9806, H-B:TYR:539:OH:9849, V-B:TYR:539:CZ:9848, V-A:PRO:482:CB:4325, V-B:GLU:543:CG:9878, V-A:LEU:475:CD1:4257, V-B:PRO:540:CB:9856, V-B:TYR:539:CA:9840, V-B:TYR:539:CD1:9844, V-B:TYR:531:CZ:9765, V-B:TYR:531:CE2:9764, V-B:LEU:363:CD1:8159, V-B:ILE:538:CD1:9836, V-B:ILE:538:CG2:9834, V-B:GLU:543:CB:9877, V-B:ILE:538:CA:9831, V-B:TYR:539:CE1:9846, V-B:ILE:538:CB:9833, V-A:TYR:484:CZ:4346, V-A:TYR:484:CE2:4345, V-A:MET:535:CE:4834, H-B:TYR:531:OH:9766, V-B:MET:535:CG:9804, V-A:MET:535:CG:4832, V-B:TYR:531:CE1:9763, H-A:TYR:539:OH:4877, V-B:GLU:543:CA:9875, V-A:TYR:484:CD2:4343, V-B:ASN:370:CB:8215, V-B:ASN:370:CA:8213"]

$$$$
RR17_Rahimova_2017
     RDKit          3D

 38 41  0  0  0  0  0  0  0  0999 V2000
  131.7230  116.7160   62.1810 C   0  0  0  0  0  0  0  0  0  0  0  0
  130.6810  117.2740   61.2060 C   0  0  0  0  0  0  0  0  0  0  0  0
  130.2270  118.5330   61.6950 O   0  0  0  0  0  0  0  0  0  0  0  0
  130.9150  119.6820   61.3510 C   0  0  0  0  0  0  0  0  0  0  0  0
  130.2040  120.8790   61.4200 C   0  0  0  0  0  0  0  0  0  0  0  0
  130.8120  122.0860   61.0910 C   0  0  0  0  0  0  0  0  0  0  0  0
  132.1530  122.1210   60.6820 C   0  0  0  0  0  0  0  0  0  0  0  0
  132.7830  123.4380   60.3350 C   0  0  0  0  0  0  0  0  0  0  0  0
  132.8830  123.8370   59.1710 O   0  0  0  0  0  0  0  0  0  0  0  0
  133.3260  124.2870   61.5060 C   0  0  0  0  0  0  0  0  0  0  0  0
  133.3970  123.3390   63.0690 S   0  0  0  0  0  0  0  0  0  0  0  0
  132.9550  124.6120   64.2170 C   0  0  0  0  0  0  0  0  0  0  0  0
  133.8010  125.3580   64.8880 N   0  0  0  0  0  0  0  0  0  0  0  0
  133.0650  126.2380   65.6710 N   0  0  0  0  0  0  0  0  0  0  0  0
  131.7990  125.9920   65.4420 C   0  0  0  0  0  0  0  0  0  0  0  0
  130.6430  126.7400   66.0890 C   0  0  0  0  0  0  0  0  0  0  0  0
  130.9450  127.2540   67.4230 N   0  0  0  0  0  0  0  0  0  0  0  0
  130.1100  127.0670   68.5390 C   0  0  0  0  0  0  0  0  0  0  0  0
  129.9130  128.1590   69.3840 C   0  0  0  0  0  0  0  0  0  0  0  0
  129.1030  128.0410   70.5090 C   0  0  0  0  0  0  0  0  0  0  0  0
  128.4760  126.8260   70.8020 C   0  0  0  0  0  0  0  0  0  0  0  0
  127.5950  126.7120   72.0460 C   0  0  0  0  0  0  0  0  0  0  0  0
  126.3030  126.9010   71.7690 F   0  0  0  0  0  0  0  0  0  0  0  0
  127.7250  125.5050   72.5980 F   0  0  0  0  0  0  0  0  0  0  0  0
  127.9710  127.6320   72.9340 F   0  0  0  0  0  0  0  0  0  0  0  0
  128.6670  125.7320   69.9520 C   0  0  0  0  0  0  0  0  0  0  0  0
  129.4760  125.8510   68.8260 C   0  0  0  0  0  0  0  0  0  0  0  0
  131.6580  124.9610   64.5360 N   0  0  0  0  0  0  0  0  0  0  0  0
  130.4680  124.4170   64.0310 C   0  0  0  0  0  0  0  0  0  0  0  0
  129.9220  123.2820   64.6300 C   0  0  0  0  0  0  0  0  0  0  0  0
  128.7430  122.7400   64.1260 C   0  0  0  0  0  0  0  0  0  0  0  0
  128.1070  123.3320   63.0230 C   0  0  0  0  0  0  0  0  0  0  0  0
  126.9360  122.8650   62.4570 O   0  0  0  0  0  0  0  0  0  0  0  0
  125.7430  123.6270   62.6000 C   0  0  0  0  0  0  0  0  0  0  0  0
  128.6690  124.4670   62.4350 C   0  0  0  0  0  0  0  0  0  0  0  0
  129.8470  125.0140   62.9340 C   0  0  0  0  0  0  0  0  0  0  0  0
  132.8680  120.9170   60.6140 C   0  0  0  0  0  0  0  0  0  0  0  0
  132.2580  119.7100   60.9450 C   0  0  0  0  0  0  0  0  0  0  0  0
  1  2  1  0
  2  3  1  0
  3  4  1  0
  4  5  2  0
  5  6  1  0
  6  7  2  0
  7  8  1  0
  8  9  2  0
  8 10  1  0
 10 11  1  0
 11 12  1  0
 12 13  2  0
 13 14  1  0
 14 15  2  0
 15 16  1  0
 16 17  1  0
 17 18  1  0
 18 19  2  0
 19 20  1  0
 20 21  2  0
 21 22  1  0
 22 23  1  0
 22 24  1  0
 22 25  1  0
 21 26  1  0
 26 27  2  0
 15 28  1  0
 28 29  1  0
 29 30  2  0
 30 31  1  0
 31 32  2  0
 32 33  1  0
 33 34  1  0
 32 35  1  0
 35 36  2  0
  7 37  1  0
 37 38  2  0
 38  4  1  0
 28 12  1  0
 36 29  1  0
 27 18  1  0
M  END
>  <Binding energies>  (72) 
[-9.79]

>  <Ligand effiencies>  (72) 
[-0.251025641025641]

>  <Interactions>  (72) 
["V-A:ASP:366:CG:3212, V-B:GLU:543:CD:9879, H-B:ALA:541:N:9862, H-A:TYR:484:OH:4347, V-B:ALA:541:CB:9863, V-B:ALA:541:CA:9861, V-A:LEU:475:CD2:4258, V-A:PRO:482:CG:4326, V-A:HIS:383:CE1:3393, V-A:ILE:369:CD1:3238, V-B:TYR:539:CD2:9845, V-A:ILE:369:CG2:3236, V-B:TYR:539:CE2:9847, V-A:SER:385:CB:3408, V-A:GLY:454:CA:4048, V-A:THR:477:CG2:4272, H-B:TYR:539:OH:9849, V-A:PRO:482:CB:4325, V-B:GLU:543:CG:9878, H-A:GLY:454:N:4049, V-A:HIS:456:CE1:4069, H-A:GLU:543:OE1:4908, V-B:GLU:543:CB:9877, V-A:GLU:543:CD:4907, V-B:HIS:456:CE1:9040, V-B:LYS:547:CE:9921, V-B:GLU:543:C:9873, V-B:GLY:544:CA:9885, V-A:GLU:543:CB:4905, H-A:ARG:545:NH2:4927, H-A:ARG:545:NE:4923, V-B:GLY:544:C:9883, V-A:TYR:484:CE2:4345, V-B:GLU:543:CA:9875, V-B:HIS:456:CD2:9038, V-B:ARG:545:CA:9890"]

$$$$
RR19_Rahimova_2017
     RDKit          3D

 46 51  0  0  0  0  0  0  0  0999 V2000
  133.7440  124.2020   58.6220 O   0  0  0  0  0  0  0  0  0  0  0  0
  132.7530  124.4120   59.3270 C   0  0  0  0  0  0  0  0  0  0  0  0
  131.8290  125.3870   59.1340 N   0  0  0  0  0  0  0  0  0  0  0  0
  131.5670  126.2330   58.0850 C   0  0  0  0  0  0  0  0  0  0  0  0
  132.2390  126.1190   56.5350 S   0  0  0  0  0  0  0  0  0  0  0  0
  130.6690  127.1850   58.5020 N   0  0  0  0  0  0  0  0  0  0  0  0
  129.9790  128.1530   57.8480 C   0  0  0  0  0  0  0  0  0  0  0  0
  129.8750  128.2790   56.6260 O   0  0  0  0  0  0  0  0  0  0  0  0
  129.2960  129.1800   58.7870 C   0  0  2  0  0  0  0  0  0  0  0  0
  128.2620  130.1130   58.0910 C   0  0  0  0  0  0  0  0  0  0  0  0
  128.8610  131.2150   57.2320 C   0  0  0  0  0  0  0  0  0  0  0  0
  128.7540  131.1740   55.8250 C   0  0  0  0  0  0  0  0  0  0  0  0
  129.2360  132.2280   55.0610 C   0  0  0  0  0  0  0  0  0  0  0  0
  129.8090  133.3350   55.6760 C   0  0  0  0  0  0  0  0  0  0  0  0
  129.8940  133.4020   57.0610 C   0  0  0  0  0  0  0  0  0  0  0  0
  129.4150  132.3600   57.8430 C   0  0  0  0  0  0  0  0  0  0  0  0
  130.3020  129.9580   59.5600 N   0  0  0  0  0  0  0  0  0  0  0  0
  131.5910  130.0730   59.1310 C   0  0  0  0  0  0  0  0  0  0  0  0
  132.0930  129.5620   58.1280 O   0  0  0  0  0  0  0  0  0  0  0  0
  132.2630  130.9460   60.1250 C   0  0  0  0  0  0  0  0  0  0  0  0
  133.5800  131.3990   60.2020 C   0  0  0  0  0  0  0  0  0  0  0  0
  133.9410  132.2340   61.2650 C   0  0  0  0  0  0  0  0  0  0  0  0
  132.9910  132.6020   62.2280 C   0  0  0  0  0  0  0  0  0  0  0  0
  131.6740  132.1370   62.1330 C   0  0  0  0  0  0  0  0  0  0  0  0
  131.3360  131.3040   61.0650 C   0  0  0  0  0  0  0  0  0  0  0  0
  130.0450  130.6710   60.6970 C   0  0  0  0  0  0  0  0  0  0  0  0
  128.9700  130.7770   61.2890 O   0  0  0  0  0  0  0  0  0  0  0  0
  132.4970  123.5200   60.5710 C   0  0  2  0  0  0  0  0  0  0  0  0
  131.3150  122.5230   60.3990 C   0  0  0  0  0  0  0  0  0  0  0  0
  131.6620  121.0880   60.7540 C   0  0  0  0  0  0  0  0  0  0  0  0
  130.6550  120.2060   61.2030 C   0  0  0  0  0  0  0  0  0  0  0  0
  130.9550  118.8690   61.4300 C   0  0  0  0  0  0  0  0  0  0  0  0
  132.2350  118.3870   61.1910 C   0  0  0  0  0  0  0  0  0  0  0  0
  133.2260  119.2350   60.7110 C   0  0  0  0  0  0  0  0  0  0  0  0
  132.9470  120.5760   60.4790 C   0  0  0  0  0  0  0  0  0  0  0  0
  132.3770  124.2940   61.8400 N   0  0  0  0  0  0  0  0  0  0  0  0
  131.2690  125.0320   62.1270 C   0  0  0  0  0  0  0  0  0  0  0  0
  130.2680  125.1800   61.4250 O   0  0  0  0  0  0  0  0  0  0  0  0
  131.5230  125.6190   63.4670 C   0  0  0  0  0  0  0  0  0  0  0  0
  130.7430  126.4630   64.2590 C   0  0  0  0  0  0  0  0  0  0  0  0
  131.2420  126.8640   65.5030 C   0  0  0  0  0  0  0  0  0  0  0  0
  132.4980  126.4200   65.9370 C   0  0  0  0  0  0  0  0  0  0  0  0
  133.2650  125.5720   65.1290 C   0  0  0  0  0  0  0  0  0  0  0  0
  132.7500  125.1850   63.8900 C   0  0  0  0  0  0  0  0  0  0  0  0
  133.3140  124.3100   62.8340 C   0  0  0  0  0  0  0  0  0  0  0  0
  134.3950  123.7210   62.8520 O   0  0  0  0  0  0  0  0  0  0  0  0
  1  2  2  0
  2  3  1  0
  3  4  1  0
  4  5  2  0
  4  6  1  0
  6  7  1  0
  7  8  2  0
  7  9  1  0
  9 10  1  6
 10 11  1  0
 11 12  2  0
 12 13  1  0
 13 14  2  0
 14 15  1  0
 15 16  2  0
  9 17  1  0
 17 18  1  0
 18 19  2  0
 18 20  1  0
 20 21  2  0
 21 22  1  0
 22 23  2  0
 23 24  1  0
 24 25  2  0
 25 26  1  0
 26 27  2  0
  2 28  1  0
 28 29  1  6
 29 30  1  0
 30 31  2  0
 31 32  1  0
 32 33  2  0
 33 34  1  0
 34 35  2  0
 28 36  1  0
 36 37  1  0
 37 38  2  0
 37 39  1  0
 39 40  2  0
 40 41  1  0
 41 42  2  0
 42 43  1  0
 43 44  2  0
 44 45  1  0
 45 46  2  0
 16 11  1  0
 26 17  1  0
 35 30  1  0
 45 36  1  0
 25 20  1  0
 44 39  1  0
M  END
>  <Binding energies>  (73) 
[-11.59]

>  <Ligand effiencies>  (73) 
[-0.24145833333333333]

>  <Interactions>  (73) 
["V-A:LEU:363:CA:3184, V-A:TYR:539:CG:4871, V-A:TYR:539:CZ:4876, V-A:ASP:366:CG:3212, V-A:ASN:362:C:3171, V-A:PRO:540:CB:4884, V-A:TYR:539:CE1:4874, V-A:TYR:539:CD1:4872, V-A:ASP:366:CB:3211, H-A:TYR:531:OH:4794, V-A:PRO:540:CA:4882, V-A:TYR:531:CZ:4793, V-A:ILE:538:CA:4859, V-B:ALA:541:CB:9863, V-A:LEU:475:CD2:4258, V-B:TYR:539:CD2:9845, V-A:ILE:369:CG2:3236, V-B:TYR:539:CE2:9847, V-A:SER:385:CA:3406, V-A:SER:385:CB:3408, H-B:TYR:539:OH:9849, H-A:GLY:454:N:4049, V-A:ARG:545:CZ:4925, V-A:GLU:543:CD:4907, H-A:ASP:366:OD2:3214, V-A:TYR:531:CE1:4791, V-A:PRO:540:N:4883, V-A:MET:535:CG:4832, V-A:TYR:539:C:4866, V-A:ASN:362:CB:3175, V-A:ALA:541:C:4887, V-A:PRO:540:C:4880, V-A:ASN:370:CB:3244, V-A:ASN:362:CA:3173"]

$$$$
RR1_Rahimova_2017
     RDKit          3D

 41 44  0  0  0  0  0  0  0  0999 V2000
  125.0940  122.3640   55.6200 C   0  0  0  0  0  0  0  0  0  0  0  0
  126.4830  122.3690   55.9290 O   0  0  0  0  0  0  0  0  0  0  0  0
  126.8900  122.7290   57.1990 C   0  0  0  0  0  0  0  0  0  0  0  0
  126.0450  123.2820   58.1740 C   0  0  0  0  0  0  0  0  0  0  0  0
  126.5470  123.6220   59.4260 C   0  0  0  0  0  0  0  0  0  0  0  0
  127.8940  123.4120   59.7290 C   0  0  0  0  0  0  0  0  0  0  0  0
  128.3160  123.8300   61.0050 N   0  0  0  0  0  0  0  0  0  0  0  0
  127.8280  123.4970   62.2190 C   0  0  0  0  0  0  0  0  0  0  0  0
  126.8390  122.7880   62.4070 O   0  0  0  0  0  0  0  0  0  0  0  0
  128.6080  124.0850   63.4050 C   0  0  0  0  0  0  0  0  0  0  0  0
  129.2020  122.8690   64.6330 S   0  0  0  0  0  0  0  0  0  0  0  0
  130.5180  122.1880   63.6800 C   0  0  0  0  0  0  0  0  0  0  0  0
  130.3680  121.2460   62.7850 N   0  0  0  0  0  0  0  0  0  0  0  0
  131.5960  121.0550   62.3150 C   0  0  0  0  0  0  0  0  0  0  0  0
  131.8970  120.0530   61.2370 C   0  0  0  0  0  0  0  0  0  0  0  0
  131.0910  118.9210   61.0400 C   0  0  0  0  0  0  0  0  0  0  0  0
  131.3970  118.0050   60.0310 C   0  0  0  0  0  0  0  0  0  0  0  0
  132.5150  118.2450   59.2340 C   0  0  0  0  0  0  0  0  0  0  0  0
  133.3170  119.3280   59.3970 N   0  0  0  0  0  0  0  0  0  0  0  0
  133.0000  120.2060   60.3820 C   0  0  0  0  0  0  0  0  0  0  0  0
  132.5330  121.8100   62.8570 N   0  0  0  0  0  0  0  0  0  0  0  0
  131.8420  122.5390   63.7380 N   0  0  0  0  0  0  0  0  0  0  0  0
  132.5140  123.5480   64.5570 C   0  0  0  0  0  0  0  0  0  0  0  0
  132.6590  124.9300   63.8960 C   0  0  0  0  0  0  0  0  0  0  0  0
  133.7760  125.4120   63.6760 O   0  0  0  0  0  0  0  0  0  0  0  0
  131.4970  125.5420   63.5970 N   0  0  0  0  0  0  0  0  0  0  0  0
  131.5480  126.7220   62.8680 N   0  0  0  0  0  0  0  0  0  0  0  0
  130.4950  127.0190   62.0760 C   0  0  0  0  0  0  0  0  0  0  0  0
  129.4490  126.3620   62.0380 O   0  0  0  0  0  0  0  0  0  0  0  0
  130.6480  128.2610   61.2210 C   0  0  0  0  0  0  0  0  0  0  0  0
  130.4710  128.1810   59.8350 C   0  0  0  0  0  0  0  0  0  0  0  0
  130.6180  129.3060   59.0300 C   0  0  0  0  0  0  0  0  0  0  0  0
  130.9560  130.5490   59.5880 C   0  0  0  0  0  0  0  0  0  0  0  0
  131.1310  131.7020   58.8430 O   0  0  0  0  0  0  0  0  0  0  0  0
  130.0840  132.6630   58.7830 C   0  0  0  0  0  0  0  0  0  0  0  0
  131.1450  130.6480   60.9730 C   0  0  0  0  0  0  0  0  0  0  0  0
  131.4970  131.8920   61.4710 O   0  0  0  0  0  0  0  0  0  0  0  0
  132.8340  132.1270   61.8960 C   0  0  0  0  0  0  0  0  0  0  0  0
  130.9860  129.5050   61.7770 C   0  0  0  0  0  0  0  0  0  0  0  0
  128.7410  122.8580   58.7570 C   0  0  0  0  0  0  0  0  0  0  0  0
  128.2350  122.5180   57.5060 C   0  0  0  0  0  0  0  0  0  0  0  0
  1  2  1  0
  2  3  1  0
  3  4  2  0
  4  5  1  0
  5  6  2  0
  6  7  1  0
  7  8  1  0
  8  9  2  0
  8 10  1  0
 10 11  1  0
 11 12  1  0
 12 13  2  0
 13 14  1  0
 14 15  1  0
 15 16  2  0
 16 17  1  0
 17 18  2  0
 18 19  1  0
 19 20  2  0
 14 21  2  0
 21 22  1  0
 22 23  1  0
 23 24  1  0
 24 25  2  0
 24 26  1  0
 26 27  1  0
 27 28  1  0
 28 29  2  0
 28 30  1  0
 30 31  2  0
 31 32  1  0
 32 33  2  0
 33 34  1  0
 34 35  1  0
 33 36  1  0
 36 37  1  0
 37 38  1  0
 36 39  2  0
  6 40  1  0
 40 41  2  0
 41  3  1  0
 22 12  1  0
 39 30  1  0
 20 15  1  0
M  END
>  <Binding energies>  (74) 
[-9.37]

>  <Ligand effiencies>  (74) 
[-0.21295454545454542]

>  <Interactions>  (74) 
["V-A:ASP:366:CG:3212, H-A:ALA:541:N:4890, V-A:PRO:540:CB:4884, V-A:PRO:540:CA:4882, V-B:GLU:543:CD:9879, V-B:PRO:540:N:9855, H-B:ALA:541:N:9862, V-B:ALA:541:CB:9863, V-B:PRO:540:CA:9854, H-B:GLU:543:OE2:9881, V-B:TYR:539:C:9838, V-A:LEU:475:CD2:4258, V-B:TYR:539:CD2:9845, V-A:ILE:369:CG2:3236, V-B:TYR:539:CE2:9847, V-B:TYR:539:CB:9842, V-A:GLY:454:CA:4048, H-B:TYR:539:N:9841, V-B:TYR:539:CG:9843, V-B:MET:535:CE:9806, V-B:TYR:539:CZ:9848, V-B:PRO:540:CB:9856, H-A:GLY:454:N:4049, V-B:TYR:539:CA:9840, V-B:TYR:539:CD1:9844, V-B:PRO:540:CD:9858, V-B:TYR:531:CE2:9764, V-B:LEU:363:CD1:8159, V-B:ILE:538:CD1:9836, V-B:ILE:538:CG2:9834, V-A:GLU:543:CD:4907, H-A:ASP:366:OD2:3214, H-A:ARG:545:NH1:4926, H-A:ARG:545:NH2:4927, V-B:ILE:538:CA:9831, V-B:TYR:539:CE1:9846, V-B:ILE:538:CB:9833, V-A:LEU:373:CG:3278, V-A:LEU:373:CD2:3280, H-A:ASP:366:OD1:3213, V-A:PRO:540:N:4883, V-A:TYR:539:C:4866, V-A:ASN:362:CB:3175"]

$$$$
RR22_Rahimova_2017
     RDKit          3D

 31 36  0  0  0  0  0  0  0  0999 V2000
  126.1090  123.1190   61.9850 O   0  0  0  0  0  0  0  0  0  0  0  0
  127.2350  123.5350   61.7180 C   0  0  0  0  0  0  0  0  0  0  0  0
  128.2970  123.7120   62.5870 N   0  0  0  0  0  0  0  0  0  0  0  0
  129.5700  124.1510   62.1010 C   0  0  1  0  0  0  0  0  0  0  0  0
  129.8770  125.3240   62.8600 O   0  0  0  0  0  0  0  0  0  0  0  0
  131.0390  125.3270   63.6330 C   0  0  0  0  0  0  0  0  0  0  0  0
  131.1220  126.3040   64.6260 C   0  0  0  0  0  0  0  0  0  0  0  0
  132.2700  126.3960   65.4130 C   0  0  0  0  0  0  0  0  0  0  0  0
  133.3350  125.5190   65.2010 C   0  0  0  0  0  0  0  0  0  0  0  0
  133.2520  124.5430   64.2070 C   0  0  0  0  0  0  0  0  0  0  0  0
  132.0970  124.4220   63.4270 C   0  0  0  0  0  0  0  0  0  0  0  0
  131.9250  123.4290   62.3000 C   0  0  1  0  0  0  0  0  0  0  0  0
  132.5760  122.0610   62.3140 C   0  0  0  0  0  0  0  0  0  0  0  0
  131.5470  121.2740   61.4970 C   0  0  0  0  0  0  0  0  0  0  0  0
  131.8530  119.9730   60.8680 C   0  0  0  0  0  0  0  0  0  0  0  0
  131.0460  118.8530   61.1170 C   0  0  0  0  0  0  0  0  0  0  0  0
  131.3380  117.6300   60.5200 C   0  0  0  0  0  0  0  0  0  0  0  0
  132.4370  117.5180   59.6740 C   0  0  0  0  0  0  0  0  0  0  0  0
  133.2480  118.6200   59.4170 C   0  0  0  0  0  0  0  0  0  0  0  0
  132.9570  119.8450   60.0110 C   0  0  0  0  0  0  0  0  0  0  0  0
  130.4200  121.8790   61.4670 N   0  0  0  0  0  0  0  0  0  0  0  0
  130.5450  123.0570   62.2240 N   0  0  0  0  0  0  0  0  0  0  0  0
  129.3570  124.5940   60.6610 C   0  0  0  0  0  0  0  0  0  0  0  0
  130.2370  125.3760   59.9930 C   0  0  0  0  0  0  0  0  0  0  0  0
  130.1650  125.8590   58.6000 C   0  0  0  0  0  0  0  0  0  0  0  0
  128.9550  126.0990   57.9330 C   0  0  0  0  0  0  0  0  0  0  0  0
  128.9650  126.5550   56.6140 C   0  0  0  0  0  0  0  0  0  0  0  0
  130.1950  126.7560   55.9890 C   0  0  0  0  0  0  0  0  0  0  0  0
  131.3800  126.5240   56.6060 N   0  0  0  0  0  0  0  0  0  0  0  0
  131.3500  126.0810   57.8890 C   0  0  0  0  0  0  0  0  0  0  0  0
  127.7890  124.0340   60.0600 S   0  0  0  0  0  0  0  0  0  0  0  0
  1  2  2  0
  2  3  1  0
  4  3  1  1
  4  5  1  0
  5  6  1  0
  6  7  2  0
  7  8  1  0
  8  9  2  0
  9 10  1  0
 10 11  2  0
 11 12  1  0
 12 13  1  1
 13 14  1  0
 14 15  1  0
 15 16  2  0
 16 17  1  0
 17 18  2  0
 18 19  1  0
 19 20  2  0
 14 21  2  0
 21 22  1  0
  4 23  1  0
 23 24  2  0
 24 25  1  0
 25 26  2  0
 26 27  1  0
 27 28  2  0
 28 29  1  0
 29 30  2  0
 23 31  1  0
 31  2  1  0
 22  4  1  0
 30 25  1  0
 11  6  1  0
 22 12  1  0
 20 15  1  0
M  END
>  <Binding energies>  (75) 
[-9.29]

>  <Ligand effiencies>  (75) 
[-0.2903125]

>  <Interactions>  (75) 
["H-A:TYR:531:OH:4794, H-B:ALA:541:N:9862, V-B:PRO:540:CA:9854, H-B:GLU:543:OE2:9881, V-A:LEU:475:CD2:4258, V-A:HIS:383:CE1:3393, V-B:TYR:539:CD2:9845, V-A:ILE:369:CG2:3236, V-B:TYR:539:CE2:9847, V-A:SER:385:CA:3406, V-A:GLY:454:CA:4048, V-B:MET:535:CE:9806, H-B:TYR:539:OH:9849, V-A:ARG:545:CZ:4925, V-A:GLU:543:CD:4907, V-A:LEU:373:CD2:3280, V-A:MET:535:CE:4834, V-A:TYR:531:CE1:4791, V-A:VAL:384:C:3396"]

$$$$
RR24_Rahimova_2017
     RDKit          3D

 43 49  0  0  0  0  0  0  0  0999 V2000
  126.0750  123.5640   58.0730 C   0  0  0  0  0  0  0  0  0  0  0  0
  125.9740  124.5610   59.2370 C   0  0  2  0  0  0  0  0  0  0  0  0
  125.0370  124.0760   60.3820 C   0  0  0  0  0  0  0  0  0  0  0  0
  123.9600  123.5140   60.1550 O   0  0  0  0  0  0  0  0  0  0  0  0
  125.5310  124.3670   61.6210 O   0  0  0  0  0  0  0  0  0  0  0  0
  126.7260  123.8160   62.0230 C   0  0  0  0  0  0  0  0  0  0  0  0
  126.8760  123.3970   63.3460 C   0  0  0  0  0  0  0  0  0  0  0  0
  128.0780  122.8300   63.7620 C   0  0  0  0  0  0  0  0  0  0  0  0
  129.1300  122.6720   62.8560 C   0  0  0  0  0  0  0  0  0  0  0  0
  130.4580  122.0640   63.3240 C   0  0  1  0  0  0  0  0  0  0  0  0
  131.0310  121.0640   62.2930 C   0  0  0  0  0  0  0  0  0  0  0  0
  132.2970  121.1280   61.8420 C   0  0  0  0  0  0  0  0  0  0  0  0
  133.1770  122.0940   62.2640 N   0  0  0  0  0  0  0  0  0  0  0  0
  132.8020  123.0520   63.1770 C   0  0  0  0  0  0  0  0  0  0  0  0
  133.7900  123.9270   63.4960 N   0  0  0  0  0  0  0  0  0  0  0  0
  133.5830  124.9890   64.3220 C   0  0  0  0  0  0  0  0  0  0  0  0
  134.3960  125.9150   64.3290 O   0  0  0  0  0  0  0  0  0  0  0  0
  132.3530  124.9760   64.9620 N   0  0  0  0  0  0  0  0  0  0  0  0
  132.1130  126.0580   65.9390 C   0  0  0  0  0  0  0  0  0  0  0  0
  131.2800  124.1370   64.7130 C   0  0  0  0  0  0  0  0  0  0  0  0
  130.1900  124.2170   65.2880 O   0  0  0  0  0  0  0  0  0  0  0  0
  131.5520  123.1050   63.7070 C   0  0  0  0  0  0  0  0  0  0  0  0
  132.5600  120.0660   60.8850 C   0  0  0  0  0  0  0  0  0  0  0  0
  133.6880  119.7110   60.1440 C   0  0  0  0  0  0  0  0  0  0  0  0
  133.6210  118.6090   59.2870 C   0  0  0  0  0  0  0  0  0  0  0  0
  132.4370  117.8730   59.1770 C   0  0  0  0  0  0  0  0  0  0  0  0
  131.3110  118.2340   59.9220 C   0  0  0  0  0  0  0  0  0  0  0  0
  131.3830  119.3370   60.7750 C   0  0  0  0  0  0  0  0  0  0  0  0
  130.3620  119.9290   61.6650 C   0  0  0  0  0  0  0  0  0  0  0  0
  129.2000  119.5840   61.8680 O   0  0  0  0  0  0  0  0  0  0  0  0
  128.9700  123.0760   61.5260 C   0  0  0  0  0  0  0  0  0  0  0  0
  127.7690  123.6410   61.1090 C   0  0  0  0  0  0  0  0  0  0  0  0
  125.6340  125.9370   58.7690 N   0  0  0  0  0  0  0  0  0  0  0  0
  126.3510  127.0240   59.1690 C   0  0  0  0  0  0  0  0  0  0  0  0
  127.3180  127.0420   59.9330 O   0  0  0  0  0  0  0  0  0  0  0  0
  125.7210  128.1850   58.4910 C   0  0  0  0  0  0  0  0  0  0  0  0
  126.0320  129.5440   58.5300 C   0  0  0  0  0  0  0  0  0  0  0  0
  125.2550  130.4300   57.7740 C   0  0  0  0  0  0  0  0  0  0  0  0
  124.1930  129.9520   56.9970 C   0  0  0  0  0  0  0  0  0  0  0  0
  123.8970  128.5840   56.9710 C   0  0  0  0  0  0  0  0  0  0  0  0
  124.6820  127.7170   57.7330 C   0  0  0  0  0  0  0  0  0  0  0  0
  124.6190  126.2440   57.9040 C   0  0  0  0  0  0  0  0  0  0  0  0
  123.8240  125.4660   57.3760 O   0  0  0  0  0  0  0  0  0  0  0  0
  2  1  1  6
  2  3  1  0
  3  4  2  0
  3  5  1  0
  5  6  1  0
  6  7  2  0
  7  8  1  0
  8  9  2  0
 10  9  1  6
 10 11  1  0
 11 12  2  0
 12 13  1  0
 13 14  1  0
 14 15  1  0
 15 16  1  0
 16 17  2  0
 16 18  1  0
 18 19  1  0
 18 20  1  0
 20 21  2  0
 20 22  1  0
 12 23  1  0
 23 24  2  0
 24 25  1  0
 25 26  2  0
 26 27  1  0
 27 28  2  0
 28 29  1  0
 29 30  2  0
  9 31  1  0
 31 32  2  0
  2 33  1  0
 33 34  1  0
 34 35  2  0
 34 36  1  0
 36 37  2  0
 37 38  1  0
 38 39  2  0
 39 40  1  0
 40 41  2  0
 41 42  1  0
 42 43  2  0
 32  6  1  0
 42 33  1  0
 22 10  1  0
 28 23  1  0
 41 36  1  0
 29 11  1  0
 22 14  2  0
M  END
>  <Binding energies>  (76) 
[-10.15]

>  <Ligand effiencies>  (76) 
[-0.22555555555555556]

>  <Interactions>  (76) 
["V-B:GLU:543:CD:9879, H-B:ALA:541:N:9862, H-A:TYR:484:OH:4347, V-B:ALA:541:CB:9863, V-B:PRO:540:CA:9854, V-B:ALA:541:CA:9861, V-A:LEU:475:CD2:4258, V-B:TYR:539:CD2:9845, V-A:ILE:369:CG2:3236, V-B:TYR:539:CE2:9847, V-B:TYR:539:CB:9842, V-A:SER:385:CA:3406, V-A:GLY:454:CA:4048, V-A:LEU:373:CD1:3279, V-B:TYR:539:CG:9843, V-B:GLU:543:CG:9878, V-B:ALA:541:C:9859, V-B:PRO:540:CB:9856, H-A:GLY:454:N:4049, V-A:GLY:453:C:4041, V-B:TYR:531:CZ:9765, V-A:ARG:545:CZ:4925, H-A:ARG:545:NH1:4926, H-A:ARG:545:NH2:4927, H-B:ARG:545:NH2:9899, H-A:ARG:545:NE:4923, V-B:ASP:366:CB:8182, V-A:LEU:373:CG:3278, V-A:LEU:373:CD2:3280, H-B:TYR:531:OH:9766, H-A:ASP:366:OD1:3213, V-B:ASP:366:CG:8183, V-B:TYR:531:CE1:9763, V-A:VAL:384:C:3396, H-A:SER:385:O:3405, V-B:TYR:531:CD1:9761, V-B:ASP:366:C:8178, V-B:ASP:366:CA:8180"]

$$$$
RR25_Rahimova_2017
     RDKit          3D

 39 44  0  0  0  0  0  0  0  0999 V2000
  128.1060  122.7620   58.0840 O   0  0  0  0  0  0  0  0  0  0  0  0
  127.9920  122.9170   59.3000 C   0  0  0  0  0  0  0  0  0  0  0  0
  128.7320  122.0730   60.0910 O   0  0  0  0  0  0  0  0  0  0  0  0
  128.8860  122.3020   61.4460 C   0  0  0  0  0  0  0  0  0  0  0  0
  130.0320  121.7820   62.0440 C   0  0  0  0  0  0  0  0  0  0  0  0
  130.2460  121.9680   63.4080 C   0  0  0  0  0  0  0  0  0  0  0  0
  129.3200  122.6720   64.1920 C   0  0  0  0  0  0  0  0  0  0  0  0
  129.5540  122.8760   65.6430 N   0  0  0  0  0  0  0  0  0  0  0  0
  130.1830  123.8680   66.0030 O   0  0  0  0  0  0  0  0  0  0  0  0
  129.1110  122.0470   66.4320 O   0  0  0  0  0  0  0  0  0  0  0  0
  128.1650  123.1770   63.5720 C   0  0  0  0  0  0  0  0  0  0  0  0
  127.9310  122.9920   62.2070 C   0  0  0  0  0  0  0  0  0  0  0  0
  126.7060  123.5280   61.4890 C   0  0  0  0  0  0  0  0  0  0  0  0
  127.0890  123.9460   60.0410 C   0  0  2  0  0  0  0  0  0  0  0  0
  125.8360  124.4080   59.2410 C   0  0  0  0  0  0  0  0  0  0  0  0
  124.7820  123.8190   59.4960 O   0  0  0  0  0  0  0  0  0  0  0  0
  125.8670  125.4860   58.4000 N   0  0  0  0  0  0  0  0  0  0  0  0
  127.1210  126.0190   57.8270 C   0  0  0  0  0  0  0  0  0  0  0  0
  127.0230  127.5570   57.7480 C   0  0  0  0  0  0  0  0  0  0  0  0
  125.8330  127.9790   57.0040 N   0  0  0  0  0  0  0  0  0  0  0  0
  125.8070  129.4360   56.8130 C   0  0  0  0  0  0  0  0  0  0  0  0
  126.4740  130.2090   57.9820 C   0  0  0  0  0  0  0  0  0  0  0  0
  127.7670  130.8840   57.6690 N   0  0  0  0  0  0  0  0  0  0  0  0
  128.7170  130.8290   58.6680 C   0  0  0  0  0  0  0  0  0  0  0  0
  128.5150  130.2940   59.7650 O   0  0  0  0  0  0  0  0  0  0  0  0
  130.0470  131.4610   58.3090 C   0  0  0  0  0  0  0  0  0  0  0  0
  131.0930  131.4390   59.2410 C   0  0  0  0  0  0  0  0  0  0  0  0
  132.3320  132.0030   58.9420 C   0  0  0  0  0  0  0  0  0  0  0  0
  132.5660  132.6030   57.7060 C   0  0  0  0  0  0  0  0  0  0  0  0
  131.5390  132.6500   56.7330 C   0  0  0  0  0  0  0  0  0  0  0  0
  131.7090  133.2420   55.4590 C   0  0  0  0  0  0  0  0  0  0  0  0
  130.6560  133.2510   54.5450 C   0  0  0  0  0  0  0  0  0  0  0  0
  129.4250  132.6830   54.8660 C   0  0  0  0  0  0  0  0  0  0  0  0
  129.2110  132.0860   56.1150 C   0  0  0  0  0  0  0  0  0  0  0  0
  130.2780  132.0720   57.0500 C   0  0  0  0  0  0  0  0  0  0  0  0
  127.8590  131.4710   56.4240 C   0  0  0  0  0  0  0  0  0  0  0  0
  126.9310  131.4870   55.6090 O   0  0  0  0  0  0  0  0  0  0  0  0
  124.6270  127.5020   57.6820 C   0  0  0  0  0  0  0  0  0  0  0  0
  124.6040  125.9580   57.7880 C   0  0  0  0  0  0  0  0  0  0  0  0
  1  2  2  0
  2  3  1  0
  3  4  1  0
  4  5  2  0
  5  6  1  0
  6  7  2  0
  7  8  1  0
  8  9  2  0
  8 10  1  0
  7 11  1  0
 11 12  2  0
 12 13  1  0
 13 14  1  0
 14 15  1  6
 15 16  2  0
 15 17  1  0
 17 18  1  0
 18 19  1  0
 19 20  1  0
 20 21  1  0
 21 22  1  0
 22 23  1  0
 23 24  1  0
 24 25  2  0
 24 26  1  0
 26 27  2  0
 27 28  1  0
 28 29  2  0
 29 30  1  0
 30 31  2  0
 31 32  1  0
 32 33  2  0
 33 34  1  0
 34 35  2  0
 34 36  1  0
 36 37  2  0
 20 38  1  0
 38 39  1  0
 14  2  1  0
 39 17  1  0
 12  4  1  0
 36 23  1  0
 35 26  1  0
 35 30  1  0
M  CHG  2   8   1  10  -1
M  END
>  <Binding energies>  (77) 
[-10.27]

>  <Ligand effiencies>  (77) 
[-0.2633333333333333]

>  <Interactions>  (77) 
["V-A:TYR:539:CZ:4876, V-A:PRO:540:CB:4884, V-A:TYR:539:CE1:4874, V-A:PRO:540:CA:4882, V-A:TYR:531:CE2:4792, V-A:TYR:531:CZ:4793, V-A:ILE:538:CA:4859, V-A:LEU:363:CD1:3188, V-B:GLU:543:CD:9879, V-B:PRO:540:N:9855, H-A:TYR:484:OH:4347, V-B:ALA:541:CB:9863, V-B:PRO:540:CA:9854, V-B:TYR:539:C:9838, V-A:LEU:475:CD2:4258, V-B:TYR:539:CD2:9845, V-B:GLU:543:CG:9878, V-A:LEU:475:CD1:4257, V-B:TYR:531:CZ:9765, V-B:TYR:531:CE2:9764, V-A:ILE:538:CB:4861, V-A:ILE:538:CG2:4862, V-B:ASP:366:CB:8182, V-A:TYR:484:CZ:4346, V-A:TYR:484:CE2:4345, H-B:TYR:531:OH:9766, V-A:PRO:540:N:4883, V-B:ASP:366:CG:8183, V-A:MET:535:CG:4832, V-B:TYR:531:CE1:9763, H-A:TYR:539:OH:4877, V-A:MET:535:CB:4831"]

$$$$
RR27_Rahimova_2017
     RDKit          3D

 39 44  0  0  0  0  0  0  0  0999 V2000
  129.4760  122.0090   59.6150 O   0  0  0  0  0  0  0  0  0  0  0  0
  128.7630  122.9140   60.0570 C   0  0  0  0  0  0  0  0  0  0  0  0
  128.3500  124.0670   59.0960 C   0  0  0  0  0  0  0  0  0  0  0  0
  127.2760  123.6480   58.0750 C   0  0  0  0  0  0  0  0  0  0  0  0
  127.5650  122.7820   57.0090 C   0  0  0  0  0  0  0  0  0  0  0  0
  126.5700  122.4220   56.1060 C   0  0  0  0  0  0  0  0  0  0  0  0
  125.2810  122.9250   56.2630 C   0  0  0  0  0  0  0  0  0  0  0  0
  124.9800  123.7860   57.3140 C   0  0  0  0  0  0  0  0  0  0  0  0
  125.9750  124.1460   58.2170 C   0  0  0  0  0  0  0  0  0  0  0  0
  129.5780  124.7740   58.4920 C   0  0  0  0  0  0  0  0  0  0  0  0
  129.4970  125.5000   57.2960 C   0  0  0  0  0  0  0  0  0  0  0  0
  130.6300  126.1180   56.7720 C   0  0  0  0  0  0  0  0  0  0  0  0
  131.8470  126.0080   57.4380 C   0  0  0  0  0  0  0  0  0  0  0  0
  131.9450  125.2810   58.6210 C   0  0  0  0  0  0  0  0  0  0  0  0
  130.8130  124.6630   59.1430 C   0  0  0  0  0  0  0  0  0  0  0  0
  128.2140  122.8470   61.3040 N   0  0  0  0  0  0  0  0  0  0  0  0
  127.5770  123.9920   61.9720 C   0  0  0  0  0  0  0  0  0  0  0  0
  128.6960  124.7590   62.7110 C   0  0  0  0  0  0  0  0  0  0  0  0
  129.5060  123.8490   63.6890 C   0  0  0  0  0  0  0  0  0  0  0  0
  130.7050  124.5380   64.3670 C   0  0  0  0  0  0  0  0  0  0  0  0
  131.8990  124.4650   63.7100 N   0  0  0  0  0  0  0  0  0  0  0  0
  132.9850  125.0800   64.2540 C   0  0  0  0  0  0  0  0  0  0  0  0
  134.2330  125.0810   63.6870 O   0  0  0  0  0  0  0  0  0  0  0  0
  132.8320  125.7660   65.4740 C   0  0  0  0  0  0  0  0  0  0  0  0
  133.6850  126.4740   66.2690 N   0  0  0  0  0  0  0  0  0  0  0  0
  132.9600  126.9160   67.3590 N   0  0  0  0  0  0  0  0  0  0  0  0
  131.6840  126.4940   67.2340 N   0  0  0  0  0  0  0  0  0  0  0  0
  130.6970  126.8000   68.2660 C   0  0  0  0  0  0  0  0  0  0  0  0
  129.4520  127.4990   67.7350 C   0  0  0  0  0  0  0  0  0  0  0  0
  129.4970  128.1890   66.5190 C   0  0  0  0  0  0  0  0  0  0  0  0
  128.3530  128.8200   66.0280 C   0  0  0  0  0  0  0  0  0  0  0  0
  127.1590  128.7610   66.7460 C   0  0  0  0  0  0  0  0  0  0  0  0
  127.1050  128.0650   67.9550 C   0  0  0  0  0  0  0  0  0  0  0  0
  125.6210  127.9680   68.8320 Cl  0  0  0  0  0  0  0  0  0  0  0  0
  128.2500  127.4410   68.4510 C   0  0  0  0  0  0  0  0  0  0  0  0
  131.5510  125.7610   66.0660 C   0  0  0  0  0  0  0  0  0  0  0  0
  130.4720  125.1600   65.5580 N   0  0  0  0  0  0  0  0  0  0  0  0
  129.8660  122.4760   63.0420 C   0  0  0  0  0  0  0  0  0  0  0  0
  128.6860  121.8390   62.2660 C   0  0  0  0  0  0  0  0  0  0  0  0
  1  2  2  0
  2  3  1  0
  3  4  1  0
  4  5  2  0
  5  6  1  0
  6  7  2  0
  7  8  1  0
  8  9  2  0
  3 10  1  0
 10 11  2  0
 11 12  1  0
 12 13  2  0
 13 14  1  0
 14 15  2  0
  2 16  1  0
 16 17  1  0
 17 18  1  0
 18 19  1  0
 19 20  1  0
 20 21  2  0
 21 22  1  0
 22 23  1  0
 22 24  2  0
 24 25  1  0
 25 26  2  0
 26 27  1  0
 27 28  1  0
 28 29  1  0
 29 30  2  0
 30 31  1  0
 31 32  2  0
 32 33  1  0
 33 34  1  0
 33 35  2  0
 27 36  1  0
 36 37  2  0
 19 38  1  0
 38 39  1  0
  9  4  1  0
 15 10  1  0
 39 16  1  0
 37 20  1  0
 36 24  1  0
 35 29  1  0
M  END
>  <Binding energies>  (78) 
[-10.87]

>  <Ligand effiencies>  (78) 
[-0.27175]

>  <Interactions>  (78) 
["V-A:ASP:366:CG:3212, V-A:ASP:366:CB:3211, V-B:GLU:543:CD:9879, V-B:PRO:540:N:9855, H-A:TYR:484:OH:4347, V-B:ALA:541:CB:9863, V-B:PRO:540:CA:9854, V-B:ALA:541:CA:9861, V-B:PRO:540:C:9852, V-B:TYR:539:C:9838, V-B:TYR:539:CD2:9845, V-B:TYR:539:CE2:9847, V-B:TYR:539:CG:9843, V-B:MET:535:CE:9806, V-B:TYR:539:CZ:9848, V-B:PRO:540:CB:9856, H-A:GLY:454:N:4049, V-B:TYR:539:CD1:9844, V-B:TYR:531:CZ:9765, V-B:TYR:531:CE2:9764, V-B:LEU:363:CD1:8159, V-A:ARG:545:CZ:4925, V-A:HIS:456:CE1:4069, V-B:GLU:543:CB:9877, V-A:GLU:543:CD:4907, V-B:HIS:456:CE1:9040, V-A:GLU:543:CG:4906, V-B:ARG:545:CG:9893, H-A:ASP:366:OD2:3214, V-A:GLU:543:CB:4905, H-A:ARG:545:NH1:4926, H-A:ARG:545:NH2:4927, V-B:ILE:538:CA:9831, H-A:ARG:545:NE:4923, H-A:ASP:366:OD1:3213, V-B:ARG:545:CA:9890"]

$$$$
RR28_Rahimova_2017
     RDKit          3D

 46 49  0  0  0  0  0  0  0  0999 V2000
  133.9950  119.5050   60.3880 C   0  0  0  0  0  0  0  0  0  0  0  0
  132.8490  120.4890   60.5920 C   0  0  0  0  0  0  0  0  0  0  0  0
  131.6930  120.1290   60.3770 O   0  0  0  0  0  0  0  0  0  0  0  0
  133.1900  121.7270   61.0060 N   0  0  0  0  0  0  0  0  0  0  0  0
  132.3020  122.8790   61.2770 C   0  0  0  0  0  0  0  0  0  0  0  0
  132.3710  123.8430   60.0580 C   0  0  0  0  0  0  0  0  0  0  0  0
  131.2310  124.5770   59.6950 C   0  0  0  0  0  0  0  0  0  0  0  0
  131.2540  125.4450   58.6080 C   0  0  0  0  0  0  0  0  0  0  0  0
  132.4200  125.5990   57.8560 C   0  0  0  0  0  0  0  0  0  0  0  0
  132.4260  126.5540   56.6630 C   0  0  0  0  0  0  0  0  0  0  0  0
  133.1980  126.1150   55.6670 F   0  0  0  0  0  0  0  0  0  0  0  0
  131.1900  126.7080   56.1880 F   0  0  0  0  0  0  0  0  0  0  0  0
  132.8860  127.7420   57.0550 F   0  0  0  0  0  0  0  0  0  0  0  0
  133.5620  124.8740   58.2060 C   0  0  0  0  0  0  0  0  0  0  0  0
  133.5370  124.0050   59.2940 C   0  0  0  0  0  0  0  0  0  0  0  0
  132.6820  123.5580   62.6410 C   0  0  0  0  0  0  0  0  0  0  0  0
  132.4300  122.6480   63.8700 C   0  0  0  0  0  0  0  0  0  0  0  0
  130.9980  122.3080   63.8500 N   0  0  0  0  0  0  0  0  0  0  0  0
  130.1040  123.0550   64.5550 C   0  0  0  0  0  0  0  0  0  0  0  0
  130.4630  123.9210   65.3560 O   0  0  0  0  0  0  0  0  0  0  0  0
  128.6000  122.6970   64.4710 C   0  0  0  0  0  0  0  0  0  0  0  0
  128.0120  122.5640   63.0400 C   0  0  0  0  0  0  0  0  0  0  0  0
  126.8710  123.5530   62.7050 C   0  0  0  0  0  0  0  0  0  0  0  0
  125.8040  123.4330   63.3140 O   0  0  0  0  0  0  0  0  0  0  0  0
  127.1080  124.6000   61.8650 N   0  0  0  0  0  0  0  0  0  0  0  0
  128.2080  124.6230   60.8940 C   0  0  0  0  0  0  0  0  0  0  0  0
  127.6920  123.9060   59.6270 C   0  0  0  0  0  0  0  0  0  0  0  0
  126.3840  124.5170   59.0140 C   0  0  0  0  0  0  0  0  0  0  0  0
  125.7810  123.5390   58.0850 N   0  0  0  0  0  0  0  0  0  0  0  0
  126.3950  122.8100   57.1300 C   0  0  0  0  0  0  0  0  0  0  0  0
  125.5020  121.8880   56.3060 C   0  0  0  0  0  0  0  0  0  0  0  0
  127.6020  122.8540   56.8990 O   0  0  0  0  0  0  0  0  0  0  0  0
  126.8010  125.7690   58.1750 C   0  0  0  0  0  0  0  0  0  0  0  0
  126.0160  126.9320   58.1000 C   0  0  0  0  0  0  0  0  0  0  0  0
  126.4240  128.0250   57.3420 C   0  0  0  0  0  0  0  0  0  0  0  0
  127.6280  127.9840   56.6350 C   0  0  0  0  0  0  0  0  0  0  0  0
  128.0910  129.1780   55.8010 C   0  0  0  0  0  0  0  0  0  0  0  0
  127.9120  130.3170   56.4710 F   0  0  0  0  0  0  0  0  0  0  0  0
  129.3890  129.0430   55.5290 F   0  0  0  0  0  0  0  0  0  0  0  0
  127.4290  129.2720   54.6460 F   0  0  0  0  0  0  0  0  0  0  0  0
  128.4150  126.8330   56.6910 C   0  0  0  0  0  0  0  0  0  0  0  0
  128.0040  125.7410   57.4510 C   0  0  0  0  0  0  0  0  0  0  0  0
  125.3800  124.8590   60.1820 C   0  0  0  0  0  0  0  0  0  0  0  0
  126.0070  125.4820   61.4580 C   0  0  0  0  0  0  0  0  0  0  0  0
  130.6090  121.4910   62.6920 C   0  0  0  0  0  0  0  0  0  0  0  0
  130.8350  122.3590   61.4270 C   0  0  0  0  0  0  0  0  0  0  0  0
  1  2  1  0
  2  3  2  0
  2  4  1  0
  4  5  1  0
  5  6  1  0
  6  7  2  0
  7  8  1  0
  8  9  2  0
  9 10  1  0
 10 11  1  0
 10 12  1  0
 10 13  1  0
  9 14  1  0
 14 15  2  0
  5 16  1  0
 16 17  1  0
 17 18  1  0
 18 19  1  0
 19 20  2  0
 19 21  1  0
 21 22  1  0
 22 23  1  0
 23 24  2  0
 23 25  1  0
 25 26  1  0
 26 27  1  0
 27 28  1  0
 28 29  1  0
 29 30  1  0
 30 31  1  0
 30 32  2  0
 28 33  1  0
 33 34  2  0
 34 35  1  0
 35 36  2  0
 36 37  1  0
 37 38  1  0
 37 39  1  0
 37 40  1  0
 36 41  1  0
 41 42  2  0
 28 43  1  0
 43 44  1  0
 18 45  1  0
 45 46  1  0
 46  5  1  0
 15  6  1  0
 44 25  1  0
 42 33  1  0
M  END
>  <Binding energies>  (79) 
[-8.98]

>  <Ligand effiencies>  (79) 
[-0.18708333333333335]

>  <Interactions>  (79) 
["V-A:ASP:366:CG:3212, V-A:ASP:366:CB:3211, V-A:TYR:531:CZ:4793, V-B:GLU:543:CD:9879, V-B:PRO:540:N:9855, H-B:ALA:541:N:9862, H-A:TYR:484:OH:4347, V-B:ALA:541:CB:9863, V-B:PRO:540:CA:9854, V-B:ALA:541:CA:9861, V-A:LEU:475:CD2:4258, V-A:ILE:369:CD1:3238, V-A:SER:385:C:3404, V-B:TYR:539:CD2:9845, V-A:ILE:369:CG2:3236, V-B:TYR:539:CE2:9847, V-A:SER:385:CA:3406, V-A:SER:385:CB:3408, V-A:GLY:454:CA:4048, V-B:MET:535:CE:9806, V-B:TYR:539:CZ:9848, V-B:GLU:543:CG:9878, V-B:ALA:541:C:9859, V-B:PRO:540:CB:9856, V-B:PRO:540:CD:9858, V-B:LEU:363:CD1:8159, V-B:ILE:538:CD1:9836, V-B:ILE:538:CG2:9834, H-B:ARG:545:NH2:9899, V-B:ILE:538:CA:9831, V-B:ILE:538:C:9829, V-A:MET:535:CE:4834, V-A:TYR:531:CE1:4791, V-B:ASP:366:CG:8183, V-B:TYR:531:CE1:9763, V-A:VAL:384:C:3396, V-B:PRO:540:CG:9857, V-A:ILE:369:CB:3235, V-A:ASP:366:CA:3209, V-A:ASP:366:C:3207, H-A:SER:385:O:3405, V-A:ASN:370:CB:3244, V-A:ASN:370:CG:3245, V-A:TYR:531:CD1:4789, V-A:ASN:370:CA:3242"]

$$$$
RR29_Rahimova_2017
     RDKit          3D

 18 19  0  0  0  0  0  0  0  0999 V2000
  128.3130  122.7550   63.6420 C   0  0  0  0  0  0  0  0  0  0  0  0
  128.9790  123.9610   62.9950 C   0  0  0  0  0  0  0  0  0  0  0  0
  128.4700  124.2340   61.5620 C   0  0  0  0  0  0  0  0  0  0  0  0
  128.4770  122.9540   60.7000 C   0  0  0  0  0  0  0  0  0  0  0  0
  127.6270  123.0970   59.4470 C   0  0  0  0  0  0  0  0  0  0  0  0
  126.4940  123.9350   59.4580 C   0  0  0  0  0  0  0  0  0  0  0  0
  125.6970  124.0820   58.3140 C   0  0  0  0  0  0  0  0  0  0  0  0
  126.0610  123.3640   57.1810 C   0  0  0  0  0  0  0  0  0  0  0  0
  127.1570  122.5480   57.1650 C   0  0  0  0  0  0  0  0  0  0  0  0
  127.9720  122.3910   58.2810 C   0  0  0  0  0  0  0  0  0  0  0  0
  127.2940  122.0020   55.9280 O   0  0  0  0  0  0  0  0  0  0  0  0
  126.1220  122.3380   55.2340 C   0  0  0  0  0  0  0  0  0  0  0  0
  125.4760  123.3550   55.9530 O   0  0  0  0  0  0  0  0  0  0  0  0
  129.8650  124.6040   63.6610 N   0  0  0  0  0  0  0  0  0  0  0  0
  130.5300  125.6430   63.0470 N   0  0  0  0  0  0  0  0  0  0  0  0
  130.6850  126.8610   63.5900 C   0  0  0  0  0  0  0  0  0  0  0  0
  130.2370  127.2220   64.7940 N   0  0  0  0  0  0  0  0  0  0  0  0
  131.3310  127.7750   62.8810 N   0  0  0  0  0  0  0  0  0  0  0  0
  1  2  1  0
  2  3  1  0
  3  4  1  0
  4  5  1  0
  5  6  2  0
  6  7  1  0
  7  8  2  0
  8  9  1  0
  9 10  2  0
  9 11  1  0
 11 12  1  0
 12 13  1  0
  2 14  2  0
 14 15  1  0
 15 16  1  0
 16 17  1  0
 16 18  2  0
 10  5  1  0
 13  8  1  0
M  CHG  1  18   1
M  END
>  <Binding energies>  (80) 
[-7.95]

>  <Ligand effiencies>  (80) 
[-0.3456521739130435]

>  <Interactions>  (80) 
["H-A:GLU:543:OE2:4909, V-B:GLU:543:CD:9879, V-B:PRO:540:N:9855, V-B:ALA:541:CB:9863, V-B:PRO:540:CA:9854, H-B:GLU:543:OE2:9881, V-B:ALA:541:CA:9861, V-B:TYR:539:C:9838, V-B:TYR:539:CD2:9845, V-B:TYR:539:CE2:9847, H-B:TYR:539:N:9841, V-B:TYR:539:CG:9843, V-B:MET:535:CE:9806, V-B:GLU:543:CG:9878, V-B:ALA:541:C:9859, V-B:PRO:540:CB:9856, V-B:TYR:539:CA:9840, V-B:TYR:531:CE2:9764, V-A:ARG:545:CZ:4925, V-B:ILE:538:CD1:9836, H-A:GLU:543:OE1:4908, V-B:ILE:538:CG2:9834, V-A:GLU:543:CD:4907, H-A:ASP:366:OD2:3214, V-B:ILE:538:CA:9831, V-B:ILE:538:C:9829, V-B:ILE:538:CB:9833, H-B:TYR:531:OH:9766, V-B:MET:535:CG:9804"]

$$$$
RR30_Rahimova_2017
     RDKit          3D

 18 19  0  0  0  0  0  0  0  0999 V2000
  123.5560  122.1370   62.6200 C   0  0  0  0  0  0  0  0  0  0  0  0
  123.9000  123.5980   62.2920 C   0  0  0  0  0  0  0  0  0  0  0  0
  125.3910  123.8570   62.3280 C   0  0  0  0  0  0  0  0  0  0  0  0
  126.0100  125.0060   62.4350 N   0  0  0  0  0  0  0  0  0  0  0  0
  127.3710  124.7100   62.4120 N   0  0  0  0  0  0  0  0  0  0  0  0
  127.4560  123.4100   62.2830 C   0  0  0  0  0  0  0  0  0  0  0  0
  128.9210  122.4310   62.2060 S   0  0  0  0  0  0  0  0  0  0  0  0
  129.8630  123.3740   60.9660 C   0  0  0  0  0  0  0  0  0  0  0  0
  129.0780  123.5660   59.6650 C   0  0  0  0  0  0  0  0  0  0  0  0
  129.0210  124.6870   59.1560 O   0  0  0  0  0  0  0  0  0  0  0  0
  128.4610  122.4650   59.1800 N   0  0  0  0  0  0  0  0  0  0  0  0
  127.6940  122.3920   58.0270 C   0  0  0  0  0  0  0  0  0  0  0  0
  128.0530  121.9670   56.8360 N   0  0  0  0  0  0  0  0  0  0  0  0
  127.0150  122.0390   55.9150 N   0  0  0  0  0  0  0  0  0  0  0  0
  125.9000  122.5120   56.4220 C   0  0  0  0  0  0  0  0  0  0  0  0
  124.6340  122.6870   55.6160 C   0  0  0  0  0  0  0  0  0  0  0  0
  126.0400  122.9140   58.1120 S   0  0  0  0  0  0  0  0  0  0  0  0
  126.2420  122.8050   62.2280 O   0  0  0  0  0  0  0  0  0  0  0  0
  1  2  1  0
  2  3  1  0
  3  4  2  0
  4  5  1  0
  5  6  2  0
  6  7  1  0
  7  8  1  0
  8  9  1  0
  9 10  2  0
  9 11  1  0
 11 12  1  0
 12 13  2  0
 13 14  1  0
 14 15  2  0
 15 16  1  0
 15 17  1  0
  6 18  1  0
 18  3  1  0
 17 12  1  0
M  END
>  <Binding energies>  (81) 
[-6.8]

>  <Ligand effiencies>  (81) 
[-0.35789473684210527]

>  <Interactions>  (81) 
["V-B:PRO:540:N:9855, H-B:ALA:541:N:9862, V-B:PRO:540:CA:9854, V-B:PRO:540:C:9852, V-B:TYR:539:C:9838, H-B:TYR:539:O:9839, V-B:TYR:539:CD2:9845, V-B:TYR:539:CE2:9847, H-B:TYR:539:N:9841, V-B:TYR:539:CG:9843, V-B:MET:535:CE:9806, V-B:ALA:541:C:9859, V-B:PRO:540:CB:9856, V-B:ASN:362:CB:8146, V-B:TYR:539:CA:9840, V-B:TYR:531:CZ:9765, V-B:PRO:540:CD:9858, V-B:TYR:531:CE2:9764, V-B:LEU:363:CD1:8159, V-B:ILE:538:CD1:9836, V-B:ILE:538:CG2:9834, H-B:ARG:545:NH2:9899, V-B:ARG:545:CZ:9897, V-B:ASN:362:CG:8147, V-B:ASN:359:CB:8121"]

$$$$
RR31_Rahimova_2017
     RDKit          3D

 18 19  0  0  0  0  0  0  0  0999 V2000
  132.1980  117.2310   58.9490 C   0  0  0  0  0  0  0  0  0  0  0  0
  132.3500  118.4760   59.8140 C   0  0  0  0  0  0  0  0  0  0  0  0
  133.4430  119.3190   59.6080 C   0  0  0  0  0  0  0  0  0  0  0  0
  133.6080  120.4670   60.3800 C   0  0  0  0  0  0  0  0  0  0  0  0
  132.6810  120.8110   61.3770 C   0  0  0  0  0  0  0  0  0  0  0  0
  132.8380  121.9530   62.1660 N   0  0  0  0  0  0  0  0  0  0  0  0
  133.1350  121.8710   63.6090 C   0  0  0  0  0  0  0  0  0  0  0  0
  132.8690  123.1830   64.3830 C   0  0  0  0  0  0  0  0  0  0  0  0
  133.6120  124.2990   63.7930 N   0  0  0  0  0  0  0  0  0  0  0  0
  133.4070  125.5520   64.5270 C   0  0  0  0  0  0  0  0  0  0  0  0
  132.0850  125.5760   65.3210 C   0  0  0  0  0  0  0  0  0  0  0  0
  131.0080  126.4290   64.6330 C   0  0  0  0  0  0  0  0  0  0  0  0
  130.0370  126.9890   65.6790 N   0  0  0  0  0  0  0  0  0  0  0  0
  133.1460  124.4550   62.4150 C   0  0  0  0  0  0  0  0  0  0  0  0
  133.4310  123.1770   61.5920 C   0  0  0  0  0  0  0  0  0  0  0  0
  131.5920  119.9500   61.5790 C   0  0  0  0  0  0  0  0  0  0  0  0
  131.4150  118.7930   60.8110 C   0  0  0  0  0  0  0  0  0  0  0  0
  130.2130  117.8980   61.0830 C   0  0  0  0  0  0  0  0  0  0  0  0
  1  2  1  0
  2  3  2  0
  3  4  1  0
  4  5  2  0
  5  6  1  0
  6  7  1  0
  7  8  1  0
  8  9  1  0
  9 10  1  0
 10 11  1  0
 11 12  1  0
 12 13  1  0
  9 14  1  0
 14 15  1  0
  5 16  1  0
 16 17  2  0
 17 18  1  0
 17  2  1  0
 15  6  1  0
M  CHG  1  13   1
M  END
>  <Binding energies>  (82) 
[-7.75]

>  <Ligand effiencies>  (82) 
[-0.36904761904761907]

>  <Interactions>  (82) 
["V-A:ASP:366:CG:3212, H-A:GLU:543:OE2:4909, V-B:GLU:543:CD:9879, H-B:GLU:543:OE2:9881, V-B:TYR:539:C:9838, V-A:LEU:475:CD2:4258, V-A:PRO:482:CG:4326, V-A:HIS:383:CE1:3393, V-A:ILE:369:CD1:3238, V-B:TYR:539:CD2:9845, V-A:ILE:369:CG2:3236, V-B:TYR:539:CE2:9847, V-B:TYR:539:CB:9842, V-A:SER:385:CA:3406, V-A:GLY:454:CA:4048, V-A:LEU:373:CD1:3279, V-B:TYR:539:CG:9843, V-A:PRO:482:CB:4325, H-A:GLY:454:N:4049, V-A:ARG:545:CZ:4925, H-A:GLU:543:OE1:4908, V-A:GLU:543:CD:4907, V-A:LEU:373:CG:3278, V-A:LEU:373:CD2:3280, V-A:HIS:383:CG:3389"]

$$$$
RR32_Rahimova_2017
     RDKit          3D

 18 20  0  0  0  0  0  0  0  0999 V2000
  123.6470  124.0690   59.2720 C   0  0  0  0  0  0  0  0  0  0  0  0
  125.0920  123.6110   59.1130 C   0  0  0  0  0  0  0  0  0  0  0  0
  125.9090  123.5980   60.2440 C   0  0  0  0  0  0  0  0  0  0  0  0
  127.2330  123.1820   60.1370 C   0  0  0  0  0  0  0  0  0  0  0  0
  128.0400  123.1710   61.2620 N   0  0  0  0  0  0  0  0  0  0  0  0
  127.4030  123.4880   62.5530 C   0  0  0  0  0  0  0  0  0  0  0  0
  128.4150  123.6270   63.7150 C   0  0  0  0  0  0  0  0  0  0  0  0
  129.1860  122.3930   63.8650 N   0  0  0  0  0  0  0  0  0  0  0  0
  130.1170  122.5120   64.9810 C   0  0  0  0  0  0  0  0  0  0  0  0
  129.9140  122.1610   62.6190 C   0  0  0  0  0  0  0  0  0  0  0  0
  128.9250  122.0040   61.4400 C   0  0  0  0  0  0  0  0  0  0  0  0
  127.7830  122.7830   58.9610 N   0  0  0  0  0  0  0  0  0  0  0  0
  127.0120  122.7880   57.8390 C   0  0  0  0  0  0  0  0  0  0  0  0
  127.6120  122.3690   56.6260 C   0  0  0  0  0  0  0  0  0  0  0  0
  126.8730  122.3540   55.4490 C   0  0  0  0  0  0  0  0  0  0  0  0
  125.5400  122.7470   55.4480 C   0  0  0  0  0  0  0  0  0  0  0  0
  124.9210  123.1640   56.6220 C   0  0  0  0  0  0  0  0  0  0  0  0
  125.6390  123.1970   57.8530 C   0  0  0  0  0  0  0  0  0  0  0  0
  1  2  1  0
  2  3  2  0
  3  4  1  0
  4  5  1  0
  5  6  1  0
  6  7  1  0
  7  8  1  0
  8  9  1  0
  8 10  1  0
 10 11  1  0
  4 12  2  0
 12 13  1  0
 13 14  2  0
 14 15  1  0
 15 16  2  0
 16 17  1  0
 17 18  2  0
 18  2  1  0
 11  5  1  0
 18 13  1  0
M  END
>  <Binding energies>  (83) 
[-6.48]

>  <Ligand effiencies>  (83) 
[-0.36000000000000004]

>  <Interactions>  (83) 
["V-B:GLU:543:CD:9879, V-B:PRO:540:N:9855, V-B:ALA:541:CB:9863, V-B:PRO:540:CA:9854, V-B:PRO:540:C:9852, V-B:TYR:539:C:9838, V-A:LEU:475:CD2:4258, V-B:TYR:539:CD2:9845, V-B:TYR:539:CE2:9847, V-B:TYR:539:CG:9843, V-B:MET:535:CE:9806, V-B:TYR:539:CZ:9848, V-B:GLU:543:CG:9878, V-A:LEU:475:CD1:4257, V-B:PRO:540:CB:9856, V-B:TYR:539:CA:9840, V-B:TYR:539:CD1:9844, V-B:TYR:531:CZ:9765, V-B:PRO:540:CD:9858, V-B:TYR:531:CE2:9764, V-B:LEU:363:CD1:8159, V-B:ILE:538:CD1:9836, V-B:ILE:538:CA:9831, V-B:TYR:539:CE1:9846, V-B:ILE:538:C:9829, V-B:ASP:366:CB:8182, V-A:TYR:484:CZ:4346, V-A:TYR:484:CE2:4345, V-B:ASP:366:CG:8183, V-B:MET:535:CG:9804, V-B:LEU:363:CA:8155, V-B:LEU:363:CB:8157"]

$$$$
RR5_Rahimova_2017
     RDKit          3D

 45 50  0  0  0  0  0  0  0  0999 V2000
  128.7010  126.0620   57.4340 O   0  0  0  0  0  0  0  0  0  0  0  0
  128.8650  125.6520   58.5820 C   0  0  0  0  0  0  0  0  0  0  0  0
  130.2660  125.7080   59.2210 C   0  0  0  0  0  0  0  0  0  0  0  0
  131.2270  126.7600   58.5600 C   0  0  2  0  0  0  0  0  0  0  0  0
  130.5750  128.0100   58.1190 N   0  0  0  0  0  0  0  0  0  0  0  0
  129.9030  128.8330   59.0120 C   0  0  0  0  0  0  0  0  0  0  0  0
  129.8030  128.6720   60.2300 O   0  0  0  0  0  0  0  0  0  0  0  0
  129.3540  129.8470   58.3210 O   0  0  0  0  0  0  0  0  0  0  0  0
  128.7640  130.9630   58.9820 C   0  0  0  0  0  0  0  0  0  0  0  0
  129.7190  132.1780   58.9670 C   0  0  0  0  0  0  0  0  0  0  0  0
  131.0420  131.9210   59.6660 C   0  0  0  0  0  0  0  0  0  0  0  0
  131.2890  131.5310   60.9860 C   0  0  0  0  0  0  0  0  0  0  0  0
  132.6010  131.3280   61.4160 C   0  0  0  0  0  0  0  0  0  0  0  0
  133.6660  131.5150   60.5330 C   0  0  0  0  0  0  0  0  0  0  0  0
  133.4210  131.9070   59.2150 C   0  0  0  0  0  0  0  0  0  0  0  0
  132.1080  132.1100   58.7870 C   0  0  0  0  0  0  0  0  0  0  0  0
  131.5690  132.5250   57.4830 C   0  0  0  0  0  0  0  0  0  0  0  0
  132.2080  132.8480   56.2840 C   0  0  0  0  0  0  0  0  0  0  0  0
  131.4490  133.2400   55.1800 C   0  0  0  0  0  0  0  0  0  0  0  0
  130.0570  133.3050   55.2750 C   0  0  0  0  0  0  0  0  0  0  0  0
  129.4220  132.9770   56.4730 C   0  0  0  0  0  0  0  0  0  0  0  0
  130.1780  132.5820   57.5790 C   0  0  0  0  0  0  0  0  0  0  0  0
  132.0000  126.1290   57.3750 C   0  0  0  0  0  0  0  0  0  0  0  0
  132.9710  125.4080   57.4880 O   0  0  0  0  0  0  0  0  0  0  0  0
  131.4120  126.4920   56.1980 O   0  0  0  0  0  0  0  0  0  0  0  0
  127.8830  125.1670   59.3760 N   0  0  0  0  0  0  0  0  0  0  0  0
  126.4200  124.9420   59.1780 C   0  0  0  0  0  0  0  0  0  0  0  0
  125.9100  126.3820   58.8350 C   0  0  0  0  0  0  0  0  0  0  0  0
  125.0460  126.6160   57.7530 C   0  0  0  0  0  0  0  0  0  0  0  0
  124.5980  127.9010   57.4580 C   0  0  0  0  0  0  0  0  0  0  0  0
  125.0160  128.9760   58.2360 C   0  0  0  0  0  0  0  0  0  0  0  0
  125.8690  128.7740   59.3140 C   0  0  0  0  0  0  0  0  0  0  0  0
  126.3080  127.4880   59.6140 C   0  0  0  0  0  0  0  0  0  0  0  0
  126.2580  123.9460   57.9810 C   0  0  0  0  0  0  0  0  0  0  0  0
  125.0040  123.6720   57.4130 C   0  0  0  0  0  0  0  0  0  0  0  0
  124.8810  122.7670   56.3610 C   0  0  0  0  0  0  0  0  0  0  0  0
  126.0100  122.1230   55.8660 C   0  0  0  0  0  0  0  0  0  0  0  0
  127.2640  122.3810   56.4090 C   0  0  0  0  0  0  0  0  0  0  0  0
  127.3860  123.2920   57.4540 C   0  0  0  0  0  0  0  0  0  0  0  0
  125.8730  124.4120   60.5460 C   0  0  0  0  0  0  0  0  0  0  0  0
  124.5690  123.8950   60.6530 C   0  0  0  0  0  0  0  0  0  0  0  0
  124.0740  123.4300   61.8690 C   0  0  0  0  0  0  0  0  0  0  0  0
  124.8790  123.4680   63.0010 C   0  0  0  0  0  0  0  0  0  0  0  0
  126.1770  123.9610   62.9240 C   0  0  0  0  0  0  0  0  0  0  0  0
  126.6670  124.4250   61.7070 C   0  0  0  0  0  0  0  0  0  0  0  0
  1  2  2  0
  2  3  1  0
  4  3  1  6
  4  5  1  0
  5  6  1  0
  6  7  2  0
  6  8  1  0
  8  9  1  0
  9 10  1  0
 10 11  1  0
 11 12  2  0
 12 13  1  0
 13 14  2  0
 14 15  1  0
 15 16  2  0
 16 17  1  0
 17 18  2  0
 18 19  1  0
 19 20  2  0
 20 21  1  0
 21 22  2  0
  4 23  1  0
 23 24  2  0
 23 25  1  0
  2 26  1  0
 26 27  1  0
 27 28  1  0
 28 29  2  0
 29 30  1  0
 30 31  2  0
 31 32  1  0
 32 33  2  0
 27 34  1  0
 34 35  2  0
 35 36  1  0
 36 37  2  0
 37 38  1  0
 38 39  2  0
 27 40  1  0
 40 41  2  0
 41 42  1  0
 42 43  2  0
 43 44  1  0
 44 45  2  0
 22 10  1  0
 33 28  1  0
 39 34  1  0
 45 40  1  0
 16 11  1  0
 22 17  1  0
M  END
>  <Binding energies>  (84) 
[-12.07]

>  <Ligand effiencies>  (84) 
[-0.25145833333333334]

>  <Interactions>  (84) 
["V-A:LEU:363:CA:3184, V-A:TYR:539:CZ:4876, V-A:ASP:366:CG:3212, V-A:ASN:362:C:3171, V-A:PRO:540:CB:4884, V-A:TYR:539:CE1:4874, V-A:TYR:539:CD1:4872, V-A:ASP:366:CB:3211, H-A:TYR:531:OH:4794, V-A:PRO:540:CA:4882, V-A:TYR:531:CE2:4792, V-A:TYR:531:CZ:4793, V-A:ILE:538:CA:4859, V-A:LEU:363:CD1:3188, V-B:GLU:543:CD:9879, V-B:PRO:540:N:9855, V-B:PRO:540:CA:9854, V-B:TYR:539:C:9838, V-B:TYR:539:CG:9843, V-B:MET:535:CE:9806, H-B:TYR:539:OH:9849, V-B:GLU:543:CG:9878, V-B:ALA:541:C:9859, V-B:PRO:540:CB:9856, V-B:ASN:362:CB:8146, V-B:TYR:539:CA:9840, V-B:TYR:539:CD1:9844, V-B:TYR:531:CZ:9765, V-B:PRO:540:CD:9858, V-B:TYR:531:CE2:9764, V-B:LEU:363:CD1:8159, V-B:ILE:538:CD1:9836, V-B:ILE:538:CG2:9834, V-A:ILE:538:CB:4861, V-A:ILE:538:CG2:4862, V-B:ILE:538:CA:9831, V-B:TYR:539:CE1:9846, V-B:ILE:538:C:9829, V-B:ASP:366:CB:8182, V-A:PRO:540:N:4883, V-B:ASP:366:CG:8183, V-B:TYR:531:CE1:9763, V-A:ASN:362:CB:3175"]

$$$$
1a_Grossjean_2025
     RDKit          3D

 26 27  0  0  0  0  0  0  0  0999 V2000
  123.7130  123.9650   58.6340 C   0  0  0  0  0  0  0  0  0  0  0  0
  125.1010  124.4610   58.2190 C   0  0  0  0  0  0  0  0  0  0  0  0
  125.4480  123.8990   56.9600 O   0  0  0  0  0  0  0  0  0  0  0  0
  126.4240  122.9590   56.8570 C   0  0  0  0  0  0  0  0  0  0  0  0
  126.3120  121.9340   56.1790 O   0  0  0  0  0  0  0  0  0  0  0  0
  127.6480  123.2850   57.6640 C   0  0  0  0  0  0  0  0  0  0  0  0
  127.9960  122.4590   58.7410 C   0  0  0  0  0  0  0  0  0  0  0  0
  129.1220  122.7370   59.5100 C   0  0  0  0  0  0  0  0  0  0  0  0
  129.9210  123.8440   59.2230 C   0  0  0  0  0  0  0  0  0  0  0  0
  131.0330  124.0300   60.0680 N   0  0  0  0  0  0  0  0  0  0  0  0
  132.3340  124.2210   59.7610 C   0  0  0  0  0  0  0  0  0  0  0  0
  132.8010  124.2690   58.6230 O   0  0  0  0  0  0  0  0  0  0  0  0
  133.2720  124.3860   60.9590 C   0  0  0  0  0  0  0  0  0  0  0  0
  133.7370  122.7880   61.6910 S   0  0  0  0  0  0  0  0  0  0  0  0
  132.2790  121.7700   61.7210 C   0  0  0  0  0  0  0  0  0  0  0  0
  131.2000  122.3740   62.2780 N   0  0  0  0  0  0  0  0  0  0  0  0
  130.0370  121.6860   62.3570 C   0  0  0  0  0  0  0  0  0  0  0  0
  128.8780  122.4210   63.0040 C   0  0  0  0  0  0  0  0  0  0  0  0
  129.8990  120.3850   61.8790 C   0  0  0  0  0  0  0  0  0  0  0  0
  131.0000  119.7590   61.2840 C   0  0  0  0  0  0  0  0  0  0  0  0
  130.8210  118.3380   60.7530 C   0  0  0  0  0  0  0  0  0  0  0  0
  132.2240  120.4600   61.1870 C   0  0  0  0  0  0  0  0  0  0  0  0
  133.3770  119.8440   60.5240 C   0  0  0  0  0  0  0  0  0  0  0  0
  134.2850  119.3550   60.0000 N   0  0  0  0  0  0  0  0  0  0  0  0
  129.5850  124.6720   58.1410 C   0  0  0  0  0  0  0  0  0  0  0  0
  128.4580  124.3930   57.3730 C   0  0  0  0  0  0  0  0  0  0  0  0
  1  2  1  0
  2  3  1  0
  3  4  1  0
  4  5  2  0
  4  6  1  0
  6  7  2  0
  7  8  1  0
  8  9  2  0
  9 10  1  0
 10 11  1  0
 11 12  2  0
 11 13  1  0
 13 14  1  0
 14 15  1  0
 15 16  2  0
 16 17  1  0
 17 18  1  0
 17 19  2  0
 19 20  1  0
 20 21  1  0
 20 22  2  0
 22 23  1  0
 23 24  3  0
  9 25  1  0
 25 26  2  0
 26  6  1  0
 22 15  1  0
M  END
>  <Binding energies>  (85) 
[-8.17]

>  <Ligand effiencies>  (85) 
[-0.3025925925925926]

>  <Interactions>  (85) 
["V-A:ASP:366:CG:3212, V-B:PRO:540:N:9855, V-B:ALA:541:CB:9863, V-B:PRO:540:CA:9854, V-B:ALA:541:CA:9861, V-B:TYR:539:C:9838, V-A:LEU:475:CD2:4258, V-A:ILE:369:CD1:3238, V-B:TYR:539:CD2:9845, V-A:ILE:369:CG2:3236, V-B:TYR:539:CE2:9847, V-B:TYR:539:CB:9842, V-A:SER:385:CA:3406, H-B:TYR:539:N:9841, V-B:TYR:539:CG:9843, V-B:MET:535:CE:9806, H-B:TYR:539:OH:9849, V-B:TYR:539:CZ:9848, V-B:PRO:540:CB:9856, V-B:LEU:363:CD1:8159, H-B:TYR:531:OH:9766, V-B:LEU:363:CA:8155, V-B:LEU:363:CB:8157"]

$$$$
1aa_Ghoteimi_2023
     RDKit          3D

 40 43  0  0  0  0  0  0  0  0999 V2000
  130.8840  117.4850   60.8830 C   0  0  0  0  0  0  0  0  0  0  0  0
  132.1710  118.0900   60.3150 C   0  0  0  0  0  0  0  0  0  0  0  0
  132.1360  119.5040   60.4630 O   0  0  0  0  0  0  0  0  0  0  0  0
  133.2090  120.1850   60.9400 C   0  0  0  0  0  0  0  0  0  0  0  0
  134.3730  119.9420   60.6070 O   0  0  0  0  0  0  0  0  0  0  0  0
  132.8400  121.2660   61.9150 C   0  0  0  0  0  0  0  0  0  0  0  0
  131.5090  121.5020   62.2930 C   0  0  0  0  0  0  0  0  0  0  0  0
  131.1970  122.5120   63.2010 C   0  0  0  0  0  0  0  0  0  0  0  0
  132.2150  123.3050   63.7500 C   0  0  0  0  0  0  0  0  0  0  0  0
  132.0200  124.3500   64.6710 N   0  0  0  0  0  0  0  0  0  0  0  0
  132.8640  125.3230   65.0860 C   0  0  0  0  0  0  0  0  0  0  0  0
  134.0210  125.4650   64.6910 O   0  0  0  0  0  0  0  0  0  0  0  0
  132.3310  126.3220   66.1240 C   0  0  0  0  0  0  0  0  0  0  0  0
  131.0900  125.8610   66.6740 O   0  0  0  0  0  0  0  0  0  0  0  0
  130.2150  126.7530   67.2770 C   0  0  0  0  0  0  0  0  0  0  0  0
  130.0800  126.7010   68.6310 N   0  0  0  0  0  0  0  0  0  0  0  0
  129.2220  127.5490   69.2580 C   0  0  0  0  0  0  0  0  0  0  0  0
  129.1330  127.4300   70.7520 C   0  0  0  0  0  0  0  0  0  0  0  0
  129.7500  128.3710   71.5900 C   0  0  0  0  0  0  0  0  0  0  0  0
  129.6700  128.2620   72.9750 C   0  0  0  0  0  0  0  0  0  0  0  0
  128.9710  127.2120   73.5660 C   0  0  0  0  0  0  0  0  0  0  0  0
  128.9460  127.1840   74.9470 O   0  0  0  0  0  0  0  0  0  0  0  0
  128.9620  128.4120   75.6670 C   0  0  0  0  0  0  0  0  0  0  0  0
  128.3440  126.2660   72.7430 C   0  0  0  0  0  0  0  0  0  0  0  0
  128.4250  126.3790   71.3580 C   0  0  0  0  0  0  0  0  0  0  0  0
  128.4880  128.4910   68.5260 C   0  0  0  0  0  0  0  0  0  0  0  0
  128.6170  128.5730   67.1330 C   0  0  0  0  0  0  0  0  0  0  0  0
  127.8150  129.6050   66.4120 C   0  0  0  0  0  0  0  0  0  0  0  0
  126.5990  129.2600   65.8130 C   0  0  0  0  0  0  0  0  0  0  0  0
  125.8410  130.2190   65.1470 C   0  0  0  0  0  0  0  0  0  0  0  0
  126.2770  131.5410   65.0710 C   0  0  0  0  0  0  0  0  0  0  0  0
  125.4600  132.4230   64.3910 O   0  0  0  0  0  0  0  0  0  0  0  0
  124.5010  131.9130   63.4720 C   0  0  0  0  0  0  0  0  0  0  0  0
  127.4920  131.8940   65.6780 C   0  0  0  0  0  0  0  0  0  0  0  0
  128.2500  130.9330   66.3430 C   0  0  0  0  0  0  0  0  0  0  0  0
  129.4990  127.6720   66.4910 C   0  0  0  0  0  0  0  0  0  0  0  0
  129.6650  127.6530   65.0370 C   0  0  0  0  0  0  0  0  0  0  0  0
  129.7990  127.6360   63.8880 N   0  0  0  0  0  0  0  0  0  0  0  0
  133.5390  123.0730   63.3740 C   0  0  0  0  0  0  0  0  0  0  0  0
  133.8500  122.0650   62.4670 C   0  0  0  0  0  0  0  0  0  0  0  0
  1  2  1  0
  2  3  1  0
  3  4  1  0
  4  5  2  0
  4  6  1  0
  6  7  2  0
  7  8  1  0
  8  9  2  0
  9 10  1  0
 10 11  1  0
 11 12  2  0
 11 13  1  0
 13 14  1  0
 14 15  1  0
 15 16  2  0
 16 17  1  0
 17 18  1  0
 18 19  2  0
 19 20  1  0
 20 21  2  0
 21 22  1  0
 22 23  1  0
 21 24  1  0
 24 25  2  0
 17 26  2  0
 26 27  1  0
 27 28  1  0
 28 29  2  0
 29 30  1  0
 30 31  2  0
 31 32  1  0
 32 33  1  0
 31 34  1  0
 34 35  2  0
 27 36  2  0
 36 37  1  0
 37 38  3  0
  9 39  1  0
 39 40  2  0
 40  6  1  0
 36 15  1  0
 25 18  1  0
 35 28  1  0
M  END
>  <Binding energies>  (86) 
[-8.54]

>  <Ligand effiencies>  (86) 
[-0.20829268292682926]

>  <Interactions>  (86) 
["V-B:GLU:543:CD:9879, H-A:TYR:484:OH:4347, H-B:GLU:543:OE2:9881, V-A:LEU:475:CD2:4258, V-A:HIS:383:CE1:3393, V-A:ILE:369:CD1:3238, V-B:TYR:539:CD2:9845, V-A:ILE:369:CG2:3236, V-A:SER:385:CA:3406, V-A:GLY:454:CA:4048, V-A:PRO:482:CB:4325, H-A:GLY:454:N:4049, V-A:ARG:545:CZ:4925, V-A:HIS:456:CE1:4069, V-A:GLU:543:CD:4907, V-B:HIS:456:CE1:9040, V-B:TYR:484:CZ:9317, H-B:LYS:547:NZ:9922, V-A:GLU:543:CG:4906, V-A:GLU:543:CB:4905, H-A:ARG:545:NH1:4926, H-A:ARG:545:NH2:4927, H-A:ARG:545:NE:4923, V-B:TYR:484:CE2:9316, V-B:GLY:454:CA:9019"]

$$$$
1b_Grossjean_2025
     RDKit          3D

 25 26  0  0  0  0  0  0  0  0999 V2000
  124.5970  123.9900   58.1170 C   0  0  0  0  0  0  0  0  0  0  0  0
  125.4120  123.9270   56.9540 O   0  0  0  0  0  0  0  0  0  0  0  0
  126.3810  122.9850   56.8310 C   0  0  0  0  0  0  0  0  0  0  0  0
  126.2810  121.9960   56.0980 O   0  0  0  0  0  0  0  0  0  0  0  0
  127.5950  123.2690   57.6690 C   0  0  0  0  0  0  0  0  0  0  0  0
  127.9570  122.4530   58.7510 C   0  0  0  0  0  0  0  0  0  0  0  0
  129.0870  122.7440   59.5090 C   0  0  0  0  0  0  0  0  0  0  0  0
  129.8770  123.8530   59.2050 C   0  0  0  0  0  0  0  0  0  0  0  0
  130.9940  124.0510   60.0390 N   0  0  0  0  0  0  0  0  0  0  0  0
  132.2960  124.2260   59.7230 C   0  0  0  0  0  0  0  0  0  0  0  0
  132.7590  124.2500   58.5840 O   0  0  0  0  0  0  0  0  0  0  0  0
  133.2380  124.4190   60.9130 C   0  0  0  0  0  0  0  0  0  0  0  0
  133.6940  122.8400   61.6900 S   0  0  0  0  0  0  0  0  0  0  0  0
  132.2360  121.8190   61.7120 C   0  0  0  0  0  0  0  0  0  0  0  0
  131.1750  122.3960   62.3280 N   0  0  0  0  0  0  0  0  0  0  0  0
  130.0120  121.7070   62.4010 C   0  0  0  0  0  0  0  0  0  0  0  0
  128.8640  122.4200   63.0900 C   0  0  0  0  0  0  0  0  0  0  0  0
  129.8650  120.4230   61.8780 C   0  0  0  0  0  0  0  0  0  0  0  0
  130.9600  119.8120   61.2610 C   0  0  0  0  0  0  0  0  0  0  0  0
  130.7800  118.3980   60.7090 C   0  0  0  0  0  0  0  0  0  0  0  0
  132.1850  120.5120   61.1730 C   0  0  0  0  0  0  0  0  0  0  0  0
  133.3580  119.8750   60.5700 C   0  0  0  0  0  0  0  0  0  0  0  0
  134.2820  119.3690   60.0930 N   0  0  0  0  0  0  0  0  0  0  0  0
  129.5220  124.6740   58.1250 C   0  0  0  0  0  0  0  0  0  0  0  0
  128.3920  124.3810   57.3670 C   0  0  0  0  0  0  0  0  0  0  0  0
  1  2  1  0
  2  3  1  0
  3  4  2  0
  3  5  1  0
  5  6  2  0
  6  7  1  0
  7  8  2  0
  8  9  1  0
  9 10  1  0
 10 11  2  0
 10 12  1  0
 12 13  1  0
 13 14  1  0
 14 15  2  0
 15 16  1  0
 16 17  1  0
 16 18  2  0
 18 19  1  0
 19 20  1  0
 19 21  2  0
 21 22  1  0
 22 23  3  0
  8 24  1  0
 24 25  2  0
 25  5  1  0
 21 14  1  0
M  END
>  <Binding energies>  (87) 
[-7.85]

>  <Ligand effiencies>  (87) 
[-0.3019230769230769]

>  <Interactions>  (87) 
["V-A:ASP:366:CG:3212, V-B:PRO:540:N:9855, V-B:ALA:541:CB:9863, V-B:PRO:540:CA:9854, V-B:ALA:541:CA:9861, V-B:TYR:539:C:9838, V-A:LEU:475:CD2:4258, V-A:ILE:369:CD1:3238, V-B:TYR:539:CD2:9845, V-A:ILE:369:CG2:3236, V-B:TYR:539:CE2:9847, V-B:TYR:539:CB:9842, V-A:SER:385:CA:3406, H-B:TYR:539:N:9841, V-B:TYR:539:CG:9843, V-B:MET:535:CE:9806, H-B:TYR:539:OH:9849, V-B:TYR:539:CZ:9848, V-B:PRO:540:CB:9856, V-B:LEU:363:CD1:8159, H-B:TYR:531:OH:9766, H-A:SER:385:N:3407"]

$$$$
1c_Grossjean_2025
     RDKit          3D

 23 24  0  0  0  0  0  0  0  0999 V2000
  125.0520  122.0580   55.6530 C   0  0  0  0  0  0  0  0  0  0  0  0
  125.9740  123.1190   55.8770 O   0  0  0  0  0  0  0  0  0  0  0  0
  126.6110  123.2100   57.1000 C   0  0  0  0  0  0  0  0  0  0  0  0
  125.9100  123.8520   58.1200 C   0  0  0  0  0  0  0  0  0  0  0  0
  126.4670  123.9920   59.3880 C   0  0  0  0  0  0  0  0  0  0  0  0
  127.7460  123.4790   59.6520 C   0  0  0  0  0  0  0  0  0  0  0  0
  128.4070  123.5750   60.8920 N   0  0  0  0  0  0  0  0  0  0  0  0
  127.9630  123.2560   62.1270 C   0  0  0  0  0  0  0  0  0  0  0  0
  126.8550  122.7870   62.3890 O   0  0  0  0  0  0  0  0  0  0  0  0
  128.9540  123.5070   63.2650 C   0  0  0  0  0  0  0  0  0  0  0  0
  129.8630  121.9990   63.7160 S   0  0  0  0  0  0  0  0  0  0  0  0
  131.3150  121.8900   62.6910 C   0  0  0  0  0  0  0  0  0  0  0  0
  132.1310  122.9710   62.7930 N   0  0  0  0  0  0  0  0  0  0  0  0
  133.2670  123.0010   62.0580 C   0  0  0  0  0  0  0  0  0  0  0  0
  134.1320  124.2360   62.2330 C   0  0  0  0  0  0  0  0  0  0  0  0
  133.6300  121.9730   61.1930 C   0  0  0  0  0  0  0  0  0  0  0  0
  132.7860  120.8660   61.0600 C   0  0  0  0  0  0  0  0  0  0  0  0
  133.1970  119.7590   60.0910 C   0  0  0  0  0  0  0  0  0  0  0  0
  131.5910  120.8130   61.8160 C   0  0  0  0  0  0  0  0  0  0  0  0
  130.6680  119.6880   61.6500 C   0  0  0  0  0  0  0  0  0  0  0  0
  129.9390  118.7990   61.5190 N   0  0  0  0  0  0  0  0  0  0  0  0
  128.4550  122.8460   58.6310 C   0  0  0  0  0  0  0  0  0  0  0  0
  127.8950  122.7080   57.3640 C   0  0  0  0  0  0  0  0  0  0  0  0
  1  2  1  0
  2  3  1  0
  3  4  2  0
  4  5  1  0
  5  6  2  0
  6  7  1  0
  7  8  1  0
  8  9  2  0
  8 10  1  0
 10 11  1  0
 11 12  1  0
 12 13  2  0
 13 14  1  0
 14 15  1  0
 14 16  2  0
 16 17  1  0
 17 18  1  0
 17 19  2  0
 19 20  1  0
 20 21  3  0
  6 22  1  0
 22 23  2  0
 23  3  1  0
 19 12  1  0
M  END
>  <Binding energies>  (88) 
[-7.46]

>  <Ligand effiencies>  (88) 
[-0.31083333333333335]

>  <Interactions>  (88) 
["V-A:ASP:366:CG:3212, V-B:GLU:543:CD:9879, V-B:PRO:540:N:9855, H-B:ALA:541:N:9862, V-B:ALA:541:CB:9863, V-B:PRO:540:CA:9854, V-B:TYR:539:C:9838, V-A:LEU:475:CD2:4258, V-A:ILE:369:CD1:3238, V-B:TYR:539:CD2:9845, V-A:ILE:369:CG2:3236, V-B:TYR:539:CE2:9847, V-A:SER:385:CA:3406, V-B:TYR:539:CG:9843, V-B:MET:535:CE:9806, V-B:TYR:539:CZ:9848, V-B:PRO:540:CB:9856, V-B:TYR:539:CD1:9844, V-B:PRO:540:CD:9858, V-B:TYR:531:CE2:9764, V-B:LEU:363:CD1:8159, V-B:ILE:538:CD1:9836, V-B:ILE:538:CG2:9834, V-B:ILE:538:CA:9831, V-B:TYR:539:CE1:9846, V-B:ILE:538:CB:9833, H-B:TYR:531:OH:9766"]

$$$$
1d_Grossjean_2025
     RDKit          3D

 21 22  0  0  0  0  0  0  0  0999 V2000
  124.3280  123.4990   63.3430 C   0  0  0  0  0  0  0  0  0  0  0  0
  124.8480  123.5390   61.9200 C   0  0  0  0  0  0  0  0  0  0  0  0
  124.0160  123.8510   60.8470 C   0  0  0  0  0  0  0  0  0  0  0  0
  124.5540  123.8820   59.5550 C   0  0  0  0  0  0  0  0  0  0  0  0
  123.6260  124.2420   58.3970 C   0  0  0  0  0  0  0  0  0  0  0  0
  125.9250  123.5880   59.3700 C   0  0  0  0  0  0  0  0  0  0  0  0
  126.5200  123.6620   58.0340 C   0  0  0  0  0  0  0  0  0  0  0  0
  126.9870  123.7210   56.9770 N   0  0  0  0  0  0  0  0  0  0  0  0
  126.6890  123.2580   60.5140 C   0  0  0  0  0  0  0  0  0  0  0  0
  128.4220  122.8610   60.4650 S   0  0  0  0  0  0  0  0  0  0  0  0
  129.0010  122.7440   62.1850 C   0  0  0  0  0  0  0  0  0  0  0  0
  130.0140  121.6150   62.3770 C   0  0  0  0  0  0  0  0  0  0  0  0
  130.8190  121.6800   63.3070 O   0  0  0  0  0  0  0  0  0  0  0  0
  129.9190  120.5970   61.4940 N   0  0  0  0  0  0  0  0  0  0  0  0
  130.6940  119.4280   61.3780 C   0  0  0  0  0  0  0  0  0  0  0  0
  132.0240  119.6190   60.9940 C   0  0  0  0  0  0  0  0  0  0  0  0
  132.8800  118.5300   60.8550 C   0  0  0  0  0  0  0  0  0  0  0  0
  132.4070  117.2450   61.1070 C   0  0  0  0  0  0  0  0  0  0  0  0
  131.0860  117.0410   61.4990 C   0  0  0  0  0  0  0  0  0  0  0  0
  130.2280  118.1280   61.6380 C   0  0  0  0  0  0  0  0  0  0  0  0
  126.1620  123.2510   61.7650 N   0  0  0  0  0  0  0  0  0  0  0  0
  1  2  1  0
  2  3  2  0
  3  4  1  0
  4  5  1  0
  4  6  2  0
  6  7  1  0
  7  8  3  0
  6  9  1  0
  9 10  1  0
 10 11  1  0
 11 12  1  0
 12 13  2  0
 12 14  1  0
 14 15  1  0
 15 16  2  0
 16 17  1  0
 17 18  2  0
 18 19  1  0
 19 20  2  0
  9 21  2  0
 21  2  1  0
 20 15  1  0
M  END
>  <Binding energies>  (89) 
[-7.95]

>  <Ligand effiencies>  (89) 
[-0.3613636363636364]

>  <Interactions>  (89) 
["V-B:GLU:543:CD:9879, H-B:ALA:541:N:9862, V-B:ALA:541:CB:9863, V-B:PRO:540:CA:9854, V-B:PRO:540:C:9852, V-B:TYR:539:C:9838, V-A:LEU:475:CD2:4258, V-A:PRO:482:CG:4326, V-A:HIS:383:CE1:3393, H-B:TYR:539:O:9839, V-B:TYR:539:CD2:9845, V-A:SER:385:CA:3406, V-A:SER:385:CB:3408, V-A:THR:477:CG2:4272, V-A:PRO:482:CB:4325, V-B:ALA:541:C:9859, V-B:PRO:540:CB:9856, V-B:ASN:362:CB:8146, V-B:LEU:363:CD1:8159, V-B:ASP:366:CB:8182, H-B:TYR:531:OH:9766, V-B:ASP:366:CG:8183, V-B:LEU:363:CA:8155, V-B:ARG:545:CZ:9897, V-B:ASN:362:CG:8147, V-B:LEU:363:CB:8157"]

$$$$
1e_Grossjean_2025
     RDKit          3D

 22 23  0  0  0  0  0  0  0  0999 V2000
  129.8430  117.0610   60.7040 C   0  0  0  0  0  0  0  0  0  0  0  0
  131.0580  117.9190   60.4060 C   0  0  0  0  0  0  0  0  0  0  0  0
  132.0040  117.5400   59.4500 C   0  0  0  0  0  0  0  0  0  0  0  0
  133.0970  118.3790   59.2310 C   0  0  0  0  0  0  0  0  0  0  0  0
  133.2190  119.5620   59.9630 C   0  0  0  0  0  0  0  0  0  0  0  0
  132.2320  119.8840   60.9020 C   0  0  0  0  0  0  0  0  0  0  0  0
  132.4140  121.0820   61.6170 N   0  0  0  0  0  0  0  0  0  0  0  0
  133.2490  121.3240   62.6510 C   0  0  0  0  0  0  0  0  0  0  0  0
  134.0060  120.4950   63.1570 O   0  0  0  0  0  0  0  0  0  0  0  0
  133.2000  122.7410   63.2270 C   0  0  0  0  0  0  0  0  0  0  0  0
  133.1270  124.0040   61.9210 S   0  0  0  0  0  0  0  0  0  0  0  0
  131.5270  123.9240   61.1390 C   0  0  0  0  0  0  0  0  0  0  0  0
  130.5450  123.4790   61.9640 N   0  0  0  0  0  0  0  0  0  0  0  0
  129.2850  123.3730   61.4810 C   0  0  0  0  0  0  0  0  0  0  0  0
  128.2410  122.8770   62.4620 C   0  0  0  0  0  0  0  0  0  0  0  0
  128.9560  123.6900   60.1650 C   0  0  0  0  0  0  0  0  0  0  0  0
  129.9640  124.1260   59.2990 C   0  0  0  0  0  0  0  0  0  0  0  0
  129.5810  124.4510   57.8560 C   0  0  0  0  0  0  0  0  0  0  0  0
  131.2880  124.2420   59.7810 C   0  0  0  0  0  0  0  0  0  0  0  0
  132.3660  124.6400   58.8720 C   0  0  0  0  0  0  0  0  0  0  0  0
  133.2150  124.9550   58.1510 N   0  0  0  0  0  0  0  0  0  0  0  0
  131.1610  119.0660   61.1250 N   0  0  0  0  0  0  0  0  0  0  0  0
  1  2  1  0
  2  3  2  0
  3  4  1  0
  4  5  2  0
  5  6  1  0
  6  7  1  0
  7  8  1  0
  8  9  2  0
  8 10  1  0
 10 11  1  0
 11 12  1  0
 12 13  2  0
 13 14  1  0
 14 15  1  0
 14 16  2  0
 16 17  1  0
 17 18  1  0
 17 19  2  0
 19 20  1  0
 20 21  3  0
  6 22  2  0
 22  2  1  0
 19 12  1  0
M  END
>  <Binding energies>  (90) 
[-6.69]

>  <Ligand effiencies>  (90) 
[-0.2908695652173913]

>  <Interactions>  (90) 
["V-A:ASP:366:CG:3212, V-A:ASP:366:CB:3211, V-B:ALA:541:CB:9863, V-B:TYR:539:C:9838, V-A:LEU:475:CD2:4258, V-A:PRO:482:CG:4326, V-A:HIS:383:CE1:3393, V-B:TYR:539:CD2:9845, V-A:ILE:369:CG2:3236, V-B:TYR:539:CE2:9847, V-B:TYR:539:CB:9842, V-A:SER:385:CA:3406, V-A:GLY:454:CA:4048, V-B:VAL:344:CG1:7971, V-B:TYR:539:CG:9843, V-B:MET:535:CE:9806, H-B:TYR:539:OH:9849, V-B:TYR:539:CZ:9848, V-A:PRO:482:CB:4325, V-A:LEU:373:CG:3278, V-A:LEU:373:CD2:3280, V-A:VAL:384:C:3396"]

$$$$
1f_Grossjean_2025
     RDKit          3D

 21 22  0  0  0  0  0  0  0  0999 V2000
  133.9620  124.1450   61.8500 C   0  0  0  0  0  0  0  0  0  0  0  0
  133.1800  122.8520   61.7110 C   0  0  0  0  0  0  0  0  0  0  0  0
  133.7540  121.7080   61.1620 C   0  0  0  0  0  0  0  0  0  0  0  0
  132.9800  120.5480   61.0480 C   0  0  0  0  0  0  0  0  0  0  0  0
  133.6260  119.3120   60.4260 C   0  0  0  0  0  0  0  0  0  0  0  0
  131.6410  120.5630   61.4990 C   0  0  0  0  0  0  0  0  0  0  0  0
  130.7980  119.3750   61.3370 C   0  0  0  0  0  0  0  0  0  0  0  0
  130.1340  118.4370   61.2080 N   0  0  0  0  0  0  0  0  0  0  0  0
  131.1490  121.7610   62.0700 C   0  0  0  0  0  0  0  0  0  0  0  0
  129.4930  121.9680   62.6910 S   0  0  0  0  0  0  0  0  0  0  0  0
  128.7810  123.4730   61.9430 C   0  0  0  0  0  0  0  0  0  0  0  0
  127.5910  123.2280   61.0030 C   0  0  0  0  0  0  0  0  0  0  0  0
  126.4650  123.0280   61.4600 O   0  0  0  0  0  0  0  0  0  0  0  0
  127.9050  123.2280   59.6900 N   0  0  0  0  0  0  0  0  0  0  0  0
  127.0740  123.0450   58.5680 C   0  0  0  0  0  0  0  0  0  0  0  0
  125.7450  123.4920   58.4500 C   0  0  0  0  0  0  0  0  0  0  0  0
  125.0340  123.2450   57.2730 C   0  0  0  0  0  0  0  0  0  0  0  0
  125.6710  122.5580   56.2390 C   0  0  0  0  0  0  0  0  0  0  0  0
  126.9520  122.1210   56.3250 N   0  0  0  0  0  0  0  0  0  0  0  0
  127.6300  122.3690   57.4760 C   0  0  0  0  0  0  0  0  0  0  0  0
  131.9010  122.8870   62.1530 N   0  0  0  0  0  0  0  0  0  0  0  0
  1  2  1  0
  2  3  2  0
  3  4  1  0
  4  5  1  0
  4  6  2  0
  6  7  1  0
  7  8  3  0
  6  9  1  0
  9 10  1  0
 10 11  1  0
 11 12  1  0
 12 13  2  0
 12 14  1  0
 14 15  1  0
 15 16  2  0
 16 17  1  0
 17 18  2  0
 18 19  1  0
 19 20  2  0
  9 21  2  0
 21  2  1  0
 20 15  1  0
M  END
>  <Binding energies>  (91) 
[-7.48]

>  <Ligand effiencies>  (91) 
[-0.34]

>  <Interactions>  (91) 
["V-A:ASP:366:CG:3212, V-B:PRO:540:N:9855, H-B:ALA:541:N:9862, V-B:ALA:541:CB:9863, V-B:PRO:540:CA:9854, V-B:TYR:539:C:9838, V-A:LEU:475:CD2:4258, V-A:ILE:369:CD1:3238, V-B:TYR:539:CD2:9845, V-A:ILE:369:CG2:3236, V-B:TYR:539:CE2:9847, V-A:SER:385:CA:3406, V-A:SER:385:CB:3408, H-B:TYR:539:N:9841, V-B:TYR:539:CG:9843, V-B:MET:535:CE:9806, V-B:PRO:540:CB:9856, V-B:TYR:539:CA:9840, V-B:TYR:539:CD1:9844, V-B:PRO:540:CD:9858, V-B:TYR:531:CE2:9764, V-B:LEU:363:CD1:8159, V-A:VAL:384:C:3396"]

$$$$
1g_Grossjean_2025
     RDKit          3D

 22 23  0  0  0  0  0  0  0  0999 V2000
  129.6210  116.8510   60.6290 C   0  0  0  0  0  0  0  0  0  0  0  0
  130.6000  118.0080   60.6940 C   0  0  0  0  0  0  0  0  0  0  0  0
  131.7970  117.9930   59.9820 C   0  0  0  0  0  0  0  0  0  0  0  0
  132.6680  119.0820   60.0940 C   0  0  0  0  0  0  0  0  0  0  0  0
  133.9820  119.0360   59.3150 C   0  0  0  0  0  0  0  0  0  0  0  0
  132.3100  120.1730   60.9170 C   0  0  0  0  0  0  0  0  0  0  0  0
  133.2300  121.3000   61.0910 C   0  0  0  0  0  0  0  0  0  0  0  0
  133.9590  122.1890   61.2270 N   0  0  0  0  0  0  0  0  0  0  0  0
  131.0630  120.1140   61.5840 C   0  0  0  0  0  0  0  0  0  0  0  0
  130.4520  121.4000   62.6500 S   0  0  0  0  0  0  0  0  0  0  0  0
  128.8440  121.9320   61.9870 C   0  0  0  0  0  0  0  0  0  0  0  0
  129.0000  122.8520   60.7750 C   0  0  0  0  0  0  0  0  0  0  0  0
  129.6750  123.8790   60.8630 O   0  0  0  0  0  0  0  0  0  0  0  0
  128.3640  122.4720   59.6540 N   0  0  0  0  0  0  0  0  0  0  0  0
  128.4230  123.1670   58.3680 C   0  0  0  0  0  0  0  0  0  0  0  0
  127.1770  122.9970   57.5050 C   0  0  0  0  0  0  0  0  0  0  0  0
  125.9380  123.4490   57.9710 C   0  0  0  0  0  0  0  0  0  0  0  0
  124.8000  123.2950   57.1830 C   0  0  0  0  0  0  0  0  0  0  0  0
  124.9060  122.6930   55.9300 C   0  0  0  0  0  0  0  0  0  0  0  0
  126.1370  122.2450   55.4580 C   0  0  0  0  0  0  0  0  0  0  0  0
  127.2750  122.3970   56.2460 C   0  0  0  0  0  0  0  0  0  0  0  0
  130.2350  119.0430   61.4870 N   0  0  0  0  0  0  0  0  0  0  0  0
  1  2  1  0
  2  3  2  0
  3  4  1  0
  4  5  1  0
  4  6  2  0
  6  7  1  0
  7  8  3  0
  6  9  1  0
  9 10  1  0
 10 11  1  0
 11 12  1  0
 12 13  2  0
 12 14  1  0
 14 15  1  0
 15 16  1  0
 16 17  2  0
 17 18  1  0
 18 19  2  0
 19 20  1  0
 20 21  2  0
  9 22  2  0
 22  2  1  0
 21 16  1  0
M  END
>  <Binding energies>  (92) 
[-7.91]

>  <Ligand effiencies>  (92) 
[-0.34391304347826085]

>  <Interactions>  (92) 
["V-B:PRO:540:N:9855, V-B:ALA:541:CB:9863, V-B:PRO:540:CA:9854, V-B:ALA:541:CA:9861, V-B:PRO:540:C:9852, V-B:TYR:539:C:9838, V-A:LEU:475:CD2:4258, V-A:PRO:482:CG:4326, V-A:HIS:383:CE1:3393, H-B:TYR:539:O:9839, V-B:TYR:539:CD2:9845, V-A:ILE:369:CG2:3236, V-B:TYR:539:CE2:9847, V-B:TYR:539:CB:9842, V-A:SER:385:CA:3406, V-B:VAL:344:CG1:7971, V-B:TYR:539:CG:9843, V-B:MET:535:CE:9806, V-B:TYR:539:CZ:9848, V-A:PRO:482:CB:4325, V-B:PRO:540:CB:9856, V-B:TYR:539:CD1:9844, V-B:TYR:531:CZ:9765, V-B:TYR:531:CE2:9764, V-B:LEU:363:CD1:8159, V-B:ILE:538:CD1:9836, V-B:ILE:538:CG2:9834, V-B:ILE:538:CA:9831, V-B:TYR:539:CE1:9846, V-B:ILE:538:C:9829, V-A:LEU:373:CG:3278, V-A:LEU:373:CD2:3280, V-B:MET:535:CG:9804, V-A:VAL:384:C:3396"]

$$$$
1h_Grossjean_2025
     RDKit          3D

 28 29  0  0  0  0  0  0  0  0999 V2000
  126.1090  122.2560   55.9370 C   0  0  0  0  0  0  0  0  0  0  0  0
  126.4500  123.6180   56.1670 O   0  0  0  0  0  0  0  0  0  0  0  0
  127.0380  123.9770   57.3660 C   0  0  0  0  0  0  0  0  0  0  0  0
  128.3020  124.5790   57.4700 C   0  0  0  0  0  0  0  0  0  0  0  0
  128.8390  124.9020   58.7170 C   0  0  0  0  0  0  0  0  0  0  0  0
  130.2040  125.5770   58.8140 C   0  0  0  0  0  0  0  0  0  0  0  0
  131.2320  124.7530   59.4500 N   0  0  0  0  0  0  0  0  0  0  0  0
  132.4630  124.5270   58.9570 C   0  0  0  0  0  0  0  0  0  0  0  0
  132.8790  125.0190   57.9090 O   0  0  0  0  0  0  0  0  0  0  0  0
  133.3620  123.5960   59.7710 C   0  0  0  0  0  0  0  0  0  0  0  0
  133.4100  124.0600   61.5290 S   0  0  0  0  0  0  0  0  0  0  0  0
  131.8960  123.4990   62.2900 C   0  0  0  0  0  0  0  0  0  0  0  0
  131.0330  122.8400   61.4730 N   0  0  0  0  0  0  0  0  0  0  0  0
  129.8680  122.3830   61.9870 C   0  0  0  0  0  0  0  0  0  0  0  0
  128.9600  121.6540   61.0140 C   0  0  0  0  0  0  0  0  0  0  0  0
  129.5130  122.5620   63.3220 C   0  0  0  0  0  0  0  0  0  0  0  0
  130.3910  123.2410   64.1740 C   0  0  0  0  0  0  0  0  0  0  0  0
  129.9840  123.4250   65.6340 C   0  0  0  0  0  0  0  0  0  0  0  0
  131.6150  123.7270   63.6570 C   0  0  0  0  0  0  0  0  0  0  0  0
  132.5530  124.4440   64.5250 C   0  0  0  0  0  0  0  0  0  0  0  0
  133.2940  125.0100   65.2110 N   0  0  0  0  0  0  0  0  0  0  0  0
  128.0960  124.6570   59.8720 C   0  0  0  0  0  0  0  0  0  0  0  0
  126.8270  124.0610   59.7980 C   0  0  0  0  0  0  0  0  0  0  0  0
  126.0370  123.7870   60.8990 O   0  0  0  0  0  0  0  0  0  0  0  0
  126.5510  124.0240   62.2050 C   0  0  0  0  0  0  0  0  0  0  0  0
  126.3140  123.7160   58.5390 C   0  0  0  0  0  0  0  0  0  0  0  0
  125.0710  123.1380   58.4500 O   0  0  0  0  0  0  0  0  0  0  0  0
  123.9950  124.0610   58.5480 C   0  0  0  0  0  0  0  0  0  0  0  0
  1  2  1  0
  2  3  1  0
  3  4  2  0
  4  5  1  0
  5  6  1  0
  6  7  1  0
  7  8  1  0
  8  9  2  0
  8 10  1  0
 10 11  1  0
 11 12  1  0
 12 13  2  0
 13 14  1  0
 14 15  1  0
 14 16  2  0
 16 17  1  0
 17 18  1  0
 17 19  2  0
 19 20  1  0
 20 21  3  0
  5 22  2  0
 22 23  1  0
 23 24  1  0
 24 25  1  0
 23 26  2  0
 26 27  1  0
 27 28  1  0
 26  3  1  0
 19 12  1  0
M  END
>  <Binding energies>  (93) 
[-6.23]

>  <Ligand effiencies>  (93) 
[-0.21482758620689657]

>  <Interactions>  (93) 
["V-A:ASP:366:CG:3212, V-A:ASP:366:CB:3211, V-B:GLU:543:CD:9879, H-A:TYR:484:OH:4347, V-B:ALA:541:CB:9863, V-B:PRO:540:CA:9854, V-B:PRO:540:C:9852, V-B:TYR:539:C:9838, V-A:ILE:369:CD1:3238, V-B:TYR:539:CD2:9845, V-A:ILE:369:CG2:3236, V-B:TYR:539:CE2:9847, V-B:MET:535:CE:9806, H-B:TYR:539:OH:9849, V-B:TYR:539:CZ:9848, V-B:GLU:543:CG:9878, V-B:PRO:540:CB:9856, H-A:GLY:454:N:4049, V-B:PRO:540:CD:9858, V-B:LEU:363:CD1:8159, V-B:ILE:538:CD1:9836, V-B:ILE:538:CG2:9834, V-B:ILE:538:CA:9831, V-B:ILE:538:C:9829, V-A:TYR:484:CZ:4346, V-A:TYR:484:CE2:4345, H-B:TYR:531:OH:9766, V-B:LEU:363:CA:8155, V-A:ILE:369:CB:3235"]

$$$$
1i_Grossjean_2025
     RDKit          3D

 20 21  0  0  0  0  0  0  0  0999 V2000
  129.8080  116.9000   60.7430 C   0  0  0  0  0  0  0  0  0  0  0  0
  130.6670  118.1450   60.8620 C   0  0  0  0  0  0  0  0  0  0  0  0
  131.9700  118.1810   60.3710 C   0  0  0  0  0  0  0  0  0  0  0  0
  132.7130  119.3590   60.5000 C   0  0  0  0  0  0  0  0  0  0  0  0
  134.1340  119.3800   59.9390 C   0  0  0  0  0  0  0  0  0  0  0  0
  132.1270  120.4810   61.1310 C   0  0  0  0  0  0  0  0  0  0  0  0
  132.8690  121.7400   61.2320 C   0  0  0  0  0  0  0  0  0  0  0  0
  133.4560  122.7340   61.3090 N   0  0  0  0  0  0  0  0  0  0  0  0
  130.8070  120.3450   61.6220 C   0  0  0  0  0  0  0  0  0  0  0  0
  129.9170  121.6510   62.4410 S   0  0  0  0  0  0  0  0  0  0  0  0
  129.6840  122.9950   61.2400 C   0  0  0  0  0  0  0  0  0  0  0  0
  128.4100  122.8120   60.4120 C   0  0  0  0  0  0  0  0  0  0  0  0
  127.3290  122.6780   60.9880 O   0  0  0  0  0  0  0  0  0  0  0  0
  128.5810  122.8170   59.0720 N   0  0  0  0  0  0  0  0  0  0  0  0
  127.6030  122.6680   58.0990 C   0  0  0  0  0  0  0  0  0  0  0  0
  126.3250  123.2120   58.2140 C   0  0  0  0  0  0  0  0  0  0  0  0
  125.6730  122.8430   57.0610 C   0  0  0  0  0  0  0  0  0  0  0  0
  126.5130  122.1120   56.2910 O   0  0  0  0  0  0  0  0  0  0  0  0
  127.7340  122.0060   56.9610 N   0  0  0  0  0  0  0  0  0  0  0  0
  130.0870  119.2040   61.4740 N   0  0  0  0  0  0  0  0  0  0  0  0
  1  2  1  0
  2  3  2  0
  3  4  1  0
  4  5  1  0
  4  6  2  0
  6  7  1  0
  7  8  3  0
  6  9  1  0
  9 10  1  0
 10 11  1  0
 11 12  1  0
 12 13  2  0
 12 14  1  0
 14 15  1  0
 15 16  1  0
 16 17  2  0
 17 18  1  0
 18 19  1  0
  9 20  2  0
 20  2  1  0
 19 15  2  0
M  END
>  <Binding energies>  (94) 
[-7.83]

>  <Ligand effiencies>  (94) 
[-0.3728571428571429]

>  <Interactions>  (94) 
["V-B:PRO:540:N:9855, H-B:ALA:541:N:9862, V-B:ALA:541:CB:9863, V-B:PRO:540:CA:9854, V-B:TYR:539:C:9838, V-A:LEU:475:CD2:4258, V-A:PRO:482:CG:4326, V-A:HIS:383:CE1:3393, H-B:TYR:539:O:9839, V-B:TYR:539:CD2:9845, V-A:ILE:369:CG2:3236, V-B:TYR:539:CE2:9847, V-B:TYR:539:CB:9842, V-A:SER:385:CA:3406, V-A:SER:385:CB:3408, H-B:TYR:539:N:9841, V-B:VAL:344:CG1:7971, V-A:PRO:482:CB:4325, V-B:PRO:540:CB:9856, V-B:PRO:540:CD:9858, V-A:VAL:384:C:3396"]

$$$$
1k_Grossjean_2025
     RDKit          3D

 25 25  0  0  0  0  0  0  0  0999 V2000
  125.5080  122.3810   56.3120 C   0  0  0  0  0  0  0  0  0  0  0  0
  126.8820  122.0400   56.2290 O   0  0  0  0  0  0  0  0  0  0  0  0
  127.6270  122.4050   57.3830 C   0  0  0  0  0  0  0  0  0  0  0  0
  126.9580  123.6070   58.0650 C   0  0  0  0  0  0  0  0  0  0  0  0
  126.3210  123.1770   59.2620 O   0  0  0  0  0  0  0  0  0  0  0  0
  126.3350  124.1500   60.2970 C   0  0  0  0  0  0  0  0  0  0  0  0
  125.8910  123.5000   61.6140 C   0  0  0  0  0  0  0  0  0  0  0  0
  127.0210  122.9340   62.2670 O   0  0  0  0  0  0  0  0  0  0  0  0
  127.5140  123.7230   63.3420 C   0  0  0  0  0  0  0  0  0  0  0  0
  128.6740  122.9850   64.0350 C   0  0  0  0  0  0  0  0  0  0  0  0
  129.8530  122.8010   63.1870 N   0  0  0  0  0  0  0  0  0  0  0  0
  130.9840  122.1760   63.5580 C   0  0  0  0  0  0  0  0  0  0  0  0
  131.1430  121.6770   64.6740 O   0  0  0  0  0  0  0  0  0  0  0  0
  132.0910  122.1210   62.4930 C   0  0  0  0  0  0  0  0  0  0  0  0
  133.3510  123.4410   62.5940 S   0  0  0  0  0  0  0  0  0  0  0  0
  132.8340  124.6540   63.8010 C   0  0  0  0  0  0  0  0  0  0  0  0
  133.6210  124.7670   64.9020 N   0  0  0  0  0  0  0  0  0  0  0  0
  133.2810  125.6600   65.8590 C   0  0  0  0  0  0  0  0  0  0  0  0
  134.2040  125.7210   67.0610 C   0  0  0  0  0  0  0  0  0  0  0  0
  132.1580  126.4790   65.7590 C   0  0  0  0  0  0  0  0  0  0  0  0
  131.3440  126.3780   64.6260 C   0  0  0  0  0  0  0  0  0  0  0  0
  130.1180  127.2830   64.5360 C   0  0  0  0  0  0  0  0  0  0  0  0
  131.6790  125.4480   63.6170 C   0  0  0  0  0  0  0  0  0  0  0  0
  130.8410  125.3180   62.4210 C   0  0  0  0  0  0  0  0  0  0  0  0
  130.1790  125.2150   61.4770 N   0  0  0  0  0  0  0  0  0  0  0  0
  1  2  1  0
  2  3  1  0
  3  4  1  0
  4  5  1  0
  5  6  1  0
  6  7  1  0
  7  8  1  0
  8  9  1  0
  9 10  1  0
 10 11  1  0
 11 12  1  0
 12 13  2  0
 12 14  1  0
 14 15  1  0
 15 16  1  0
 16 17  2  0
 17 18  1  0
 18 19  1  0
 18 20  2  0
 20 21  1  0
 21 22  1  0
 21 23  2  0
 23 24  1  0
 24 25  3  0
 23 16  1  0
M  END
>  <Binding energies>  (95) 
[-5.81]

>  <Ligand effiencies>  (95) 
[-0.22346153846153843]

>  <Interactions>  (95) 
["V-B:GLU:543:CD:9879, V-B:PRO:540:N:9855, H-B:ALA:541:N:9862, H-A:TYR:484:OH:4347, V-B:ALA:541:CB:9863, V-B:PRO:540:CA:9854, V-B:PRO:540:C:9852, V-B:TYR:539:C:9838, V-A:LEU:475:CD2:4258, V-B:TYR:539:CD2:9845, V-B:TYR:539:CE2:9847, H-B:TYR:539:N:9841, V-B:TYR:539:CG:9843, V-B:MET:535:CE:9806, V-B:GLU:543:CG:9878, V-B:PRO:540:CB:9856, H-A:GLY:454:N:4049, V-B:TYR:539:CA:9840, V-A:ARG:545:CD:4922, V-B:TYR:539:CD1:9844, V-B:PRO:540:CD:9858, V-B:LEU:363:CD1:8159, V-A:ARG:545:CZ:4925, V-A:ARG:545:CG:4921, V-B:ILE:538:CG2:9834, V-A:GLU:543:CD:4907, V-B:ILE:538:CA:9831"]

$$$$
1l_Grossjean_2025
     RDKit          3D

 17 17  0  0  0  0  0  0  0  0999 V2000
  128.0190  122.3780   57.0000 C   0  0  0  0  0  0  0  0  0  0  0  0
  126.7960  121.6570   56.9970 O   0  0  0  0  0  0  0  0  0  0  0  0
  125.7940  122.4170   57.5990 N   0  0  0  0  0  0  0  0  0  0  0  0
  125.0220  123.2080   56.8280 C   0  0  0  0  0  0  0  0  0  0  0  0
  124.9880  123.1400   55.5970 O   0  0  0  0  0  0  0  0  0  0  0  0
  124.1530  124.2160   57.5940 C   0  0  0  0  0  0  0  0  0  0  0  0
  123.9610  123.8720   59.3760 S   0  0  0  0  0  0  0  0  0  0  0  0
  125.5720  123.9720   60.1380 C   0  0  0  0  0  0  0  0  0  0  0  0
  126.5720  124.4390   59.3460 N   0  0  0  0  0  0  0  0  0  0  0  0
  127.8200  124.5400   59.8600 C   0  0  0  0  0  0  0  0  0  0  0  0
  128.8820  125.0690   58.9140 C   0  0  0  0  0  0  0  0  0  0  0  0
  128.1240  124.1840   61.1720 C   0  0  0  0  0  0  0  0  0  0  0  0
  127.1030  123.7030   61.9980 C   0  0  0  0  0  0  0  0  0  0  0  0
  127.4580  123.3200   63.4340 C   0  0  0  0  0  0  0  0  0  0  0  0
  125.7930  123.5900   61.4820 C   0  0  0  0  0  0  0  0  0  0  0  0
  124.7030  123.0880   62.3260 C   0  0  0  0  0  0  0  0  0  0  0  0
  123.8450  122.6930   62.9920 N   0  0  0  0  0  0  0  0  0  0  0  0
  1  2  1  0
  2  3  1  0
  3  4  1  0
  4  5  2  0
  4  6  1  0
  6  7  1  0
  7  8  1  0
  8  9  2  0
  9 10  1  0
 10 11  1  0
 10 12  2  0
 12 13  1  0
 13 14  1  0
 13 15  2  0
 15 16  1  0
 16 17  3  0
 15  8  1  0
M  END
>  <Binding energies>  (96) 
[-6.07]

>  <Ligand effiencies>  (96) 
[-0.33722222222222226]

>  <Interactions>  (96) 
["V-B:GLU:543:CD:9879, V-B:PRO:540:N:9855, H-B:ALA:541:N:9862, V-B:ALA:541:CB:9863, V-B:PRO:540:CA:9854, V-B:ALA:541:CA:9861, V-B:PRO:540:C:9852, V-B:TYR:539:C:9838, V-B:TYR:539:CD2:9845, V-B:TYR:539:CE2:9847, H-B:TYR:539:N:9841, V-B:TYR:539:CG:9843, V-B:MET:535:CE:9806, V-B:TYR:539:CZ:9848, V-B:GLU:543:CG:9878, V-B:ALA:541:C:9859, V-B:PRO:540:CB:9856, V-B:ASN:362:CB:8146, V-B:TYR:539:CA:9840, V-B:TYR:539:CD1:9844, V-B:TYR:531:CZ:9765, V-B:PRO:540:CD:9858, V-B:TYR:531:CE2:9764, V-B:LEU:363:CD1:8159, V-B:TYR:539:CE1:9846, H-B:TYR:531:OH:9766, H-B:ASN:362:ND2:8149, V-B:PRO:540:CG:9857"]

$$$$
1m_Grossjean_2025
     RDKit          3D

 20 20  0  0  0  0  0  0  0  0999 V2000
  125.0210  122.3080   55.5820 C   0  0  0  0  0  0  0  0  0  0  0  0
  125.9400  123.1590   56.2520 O   0  0  0  0  0  0  0  0  0  0  0  0
  126.9300  122.6410   57.0080 C   0  0  0  0  0  0  0  0  0  0  0  0
  127.9000  122.0070   56.5830 O   0  0  0  0  0  0  0  0  0  0  0  0
  126.7160  122.9450   58.5050 C   0  0  0  0  0  0  0  0  0  0  0  0
  127.9710  122.9370   59.2730 N   0  0  0  0  0  0  0  0  0  0  0  0
  128.0710  122.8700   60.6140 C   0  0  0  0  0  0  0  0  0  0  0  0
  127.0900  122.8220   61.3590 O   0  0  0  0  0  0  0  0  0  0  0  0
  129.5010  122.8650   61.1710 C   0  0  0  0  0  0  0  0  0  0  0  0
  129.8380  121.5510   62.3930 S   0  0  0  0  0  0  0  0  0  0  0  0
  130.7640  120.2670   61.5800 C   0  0  0  0  0  0  0  0  0  0  0  0
  130.0910  119.0920   61.4800 N   0  0  0  0  0  0  0  0  0  0  0  0
  130.6960  118.0450   60.8740 C   0  0  0  0  0  0  0  0  0  0  0  0
  129.8750  116.7720   60.7830 C   0  0  0  0  0  0  0  0  0  0  0  0
  131.9870  118.1180   60.3560 C   0  0  0  0  0  0  0  0  0  0  0  0
  132.7000  119.3150   60.4770 C   0  0  0  0  0  0  0  0  0  0  0  0
  134.1200  119.3680   59.9170 C   0  0  0  0  0  0  0  0  0  0  0  0
  132.0900  120.4240   61.1070 C   0  0  0  0  0  0  0  0  0  0  0  0
  132.8360  121.6710   61.2880 C   0  0  0  0  0  0  0  0  0  0  0  0
  133.4260  122.6560   61.4300 N   0  0  0  0  0  0  0  0  0  0  0  0
  1  2  1  0
  2  3  1  0
  3  4  2  0
  3  5  1  0
  5  6  1  0
  6  7  1  0
  7  8  2  0
  7  9  1  0
  9 10  1  0
 10 11  1  0
 11 12  2  0
 12 13  1  0
 13 14  1  0
 13 15  2  0
 15 16  1  0
 16 17  1  0
 16 18  2  0
 18 19  1  0
 19 20  3  0
 18 11  1  0
M  END
>  <Binding energies>  (97) 
[-7.04]

>  <Ligand effiencies>  (97) 
[-0.3352380952380952]

>  <Interactions>  (97) 
["V-B:PRO:540:N:9855, H-B:ALA:541:N:9862, V-B:ALA:541:CB:9863, V-B:PRO:540:CA:9854, V-B:TYR:539:C:9838, V-A:LEU:475:CD2:4258, V-A:PRO:482:CG:4326, V-A:HIS:383:CE1:3393, H-B:TYR:539:O:9839, V-B:TYR:539:CD2:9845, V-A:ILE:369:CG2:3236, V-B:TYR:539:CE2:9847, V-B:TYR:539:CB:9842, V-A:SER:385:CA:3406, H-B:TYR:539:N:9841, V-B:VAL:344:CG1:7971, V-B:MET:535:CE:9806, V-A:PRO:482:CB:4325, V-B:PRO:540:CB:9856, V-B:PRO:540:CD:9858, V-B:TYR:531:CE2:9764, V-B:LEU:363:CD1:8159, V-B:ILE:538:CD1:9836, V-B:ILE:538:CG2:9834, V-B:ILE:538:CA:9831, V-B:ILE:538:CB:9833, H-B:TYR:531:OH:9766, V-A:VAL:384:C:3396"]

$$$$
1n_Grossjean_2025
     RDKit          3D

 27 28  0  0  0  0  0  0  0  0999 V2000
  123.5940  124.9980   57.7520 C   0  0  0  0  0  0  0  0  0  0  0  0
  124.5200  123.7810   57.8440 C   0  0  0  0  0  0  0  0  0  0  0  0
  125.5810  123.9220   56.9070 O   0  0  0  0  0  0  0  0  0  0  0  0
  126.5500  122.9780   56.7960 C   0  0  0  0  0  0  0  0  0  0  0  0
  126.4670  122.0040   56.0420 O   0  0  0  0  0  0  0  0  0  0  0  0
  127.7390  123.2420   57.6740 C   0  0  0  0  0  0  0  0  0  0  0  0
  128.0300  122.4430   58.7910 C   0  0  0  0  0  0  0  0  0  0  0  0
  129.1390  122.7180   59.5860 C   0  0  0  0  0  0  0  0  0  0  0  0
  129.9730  123.7960   59.2890 C   0  0  0  0  0  0  0  0  0  0  0  0
  131.0620  123.9850   60.1620 N   0  0  0  0  0  0  0  0  0  0  0  0
  132.3860  124.0280   59.8960 C   0  0  0  0  0  0  0  0  0  0  0  0
  132.8930  123.9090   58.7800 O   0  0  0  0  0  0  0  0  0  0  0  0
  133.3000  124.2480   61.1080 C   0  0  0  0  0  0  0  0  0  0  0  0
  133.8200  122.9300   61.7210 C   0  0  0  0  0  0  0  0  0  0  0  0
  132.6930  122.1600   62.9210 S   0  0  0  0  0  0  0  0  0  0  0  0
  131.3920  123.3250   63.2640 C   0  0  0  0  0  0  0  0  0  0  0  0
  130.1770  122.9320   62.8050 N   0  0  0  0  0  0  0  0  0  0  0  0
  129.1090  123.7340   63.0240 C   0  0  0  0  0  0  0  0  0  0  0  0
  127.7820  123.2260   62.4930 C   0  0  0  0  0  0  0  0  0  0  0  0
  129.2060  124.9510   63.6960 C   0  0  0  0  0  0  0  0  0  0  0  0
  130.4590  125.3740   64.1550 C   0  0  0  0  0  0  0  0  0  0  0  0
  130.5440  126.7170   64.8780 C   0  0  0  0  0  0  0  0  0  0  0  0
  131.5890  124.5550   63.9340 C   0  0  0  0  0  0  0  0  0  0  0  0
  132.9170  125.0020   64.3600 C   0  0  0  0  0  0  0  0  0  0  0  0
  133.9650  125.3580   64.6960 N   0  0  0  0  0  0  0  0  0  0  0  0
  129.6950  124.5930   58.1690 C   0  0  0  0  0  0  0  0  0  0  0  0
  128.5870  124.3150   57.3730 C   0  0  0  0  0  0  0  0  0  0  0  0
  1  2  1  0
  2  3  1  0
  3  4  1  0
  4  5  2  0
  4  6  1  0
  6  7  2  0
  7  8  1  0
  8  9  2  0
  9 10  1  0
 10 11  1  0
 11 12  2  0
 11 13  1  0
 13 14  1  0
 14 15  1  0
 15 16  1  0
 16 17  2  0
 17 18  1  0
 18 19  1  0
 18 20  2  0
 20 21  1  0
 21 22  1  0
 21 23  2  0
 23 24  1  0
 24 25  3  0
  9 26  1  0
 26 27  2  0
 27  6  1  0
 23 16  1  0
M  END
>  <Binding energies>  (98) 
[-7.63]

>  <Ligand effiencies>  (98) 
[-0.2725]

>  <Interactions>  (98) 
["V-A:ASP:366:CG:3212, V-B:GLU:543:CD:9879, V-B:PRO:540:N:9855, V-B:ALA:541:CB:9863, V-B:PRO:540:CA:9854, V-B:TYR:539:C:9838, V-A:ILE:369:CD1:3238, V-B:TYR:539:CD2:9845, V-B:TYR:539:CE2:9847, H-B:TYR:539:N:9841, V-B:TYR:539:CG:9843, V-B:MET:535:CE:9806, H-B:TYR:539:OH:9849, V-B:TYR:539:CZ:9848, V-B:PRO:540:CB:9856, H-A:GLY:454:N:4049, V-B:TYR:531:CZ:9765, V-B:TYR:531:CE2:9764, V-B:LEU:363:CD1:8159, V-A:GLU:543:CD:4907, H-A:ARG:545:NH1:4926, H-A:ARG:545:NH2:4927, V-B:ASP:366:CB:8182, H-B:TYR:531:OH:9766, V-B:ASP:366:CG:8183, V-B:LEU:363:CA:8155"]

$$$$
1q_Grossjean_2025
     RDKit          3D

 21 21  0  0  0  0  0  0  0  0999 V2000
  134.1900  125.7520   67.1740 C   0  0  0  0  0  0  0  0  0  0  0  0
  134.3880  126.0030   65.7910 O   0  0  0  0  0  0  0  0  0  0  0  0
  133.5820  125.4290   64.8640 C   0  0  0  0  0  0  0  0  0  0  0  0
  133.9500  124.9620   63.7850 O   0  0  0  0  0  0  0  0  0  0  0  0
  132.0870  125.4210   65.2500 C   0  0  0  0  0  0  0  0  0  0  0  0
  131.3330  124.3350   64.6060 N   0  0  0  0  0  0  0  0  0  0  0  0
  130.3160  123.6450   65.1570 C   0  0  0  0  0  0  0  0  0  0  0  0
  129.8960  123.8600   66.2960 O   0  0  0  0  0  0  0  0  0  0  0  0
  129.6800  122.5630   64.2730 C   0  0  0  0  0  0  0  0  0  0  0  0
  128.6940  123.1050   63.2190 C   0  0  0  0  0  0  0  0  0  0  0  0
  128.6750  122.1430   61.6770 S   0  0  0  0  0  0  0  0  0  0  0  0
  130.1660  121.1720   61.5960 C   0  0  0  0  0  0  0  0  0  0  0  0
  129.9360  119.8360   61.5260 N   0  0  0  0  0  0  0  0  0  0  0  0
  130.9940  118.9940   61.4620 C   0  0  0  0  0  0  0  0  0  0  0  0
  130.6580  117.5160   61.4030 C   0  0  0  0  0  0  0  0  0  0  0  0
  132.3130  119.4440   61.4540 C   0  0  0  0  0  0  0  0  0  0  0  0
  132.5610  120.8190   61.5000 C   0  0  0  0  0  0  0  0  0  0  0  0
  134.0160  121.2870   61.4730 C   0  0  0  0  0  0  0  0  0  0  0  0
  131.4730  121.7180   61.5650 C   0  0  0  0  0  0  0  0  0  0  0  0
  131.7130  123.1620   61.5560 C   0  0  0  0  0  0  0  0  0  0  0  0
  131.9070  124.3030   61.5490 N   0  0  0  0  0  0  0  0  0  0  0  0
  1  2  1  0
  2  3  1  0
  3  4  2  0
  3  5  1  0
  5  6  1  0
  6  7  1  0
  7  8  2  0
  7  9  1  0
  9 10  1  0
 10 11  1  0
 11 12  1  0
 12 13  2  0
 13 14  1  0
 14 15  1  0
 14 16  2  0
 16 17  1  0
 17 18  1  0
 17 19  2  0
 19 20  1  0
 20 21  3  0
 19 12  1  0
M  END
>  <Binding energies>  (99) 
[-5.78]

>  <Ligand effiencies>  (99) 
[-0.26272727272727275]

>  <Interactions>  (99) 
["H-B:ALA:541:N:9862, H-A:TYR:484:OH:4347, V-B:ALA:541:CB:9863, V-A:LEU:475:CD2:4258, V-A:PRO:482:CG:4326, V-A:HIS:383:CE1:3393, V-A:ILE:369:CD1:3238, V-A:SER:385:C:3404, V-B:TYR:539:CD2:9845, V-A:ILE:369:CG2:3236, V-A:SER:385:CA:3406, V-A:SER:385:CB:3408, V-A:GLY:454:CA:4048, V-A:PRO:482:CB:4325, H-A:GLY:454:N:4049, V-A:ARG:545:CD:4922, V-A:ARG:545:CZ:4925, V-A:ARG:545:CG:4921, H-A:ARG:545:NH1:4926, H-A:ARG:545:NH2:4927, H-A:ARG:545:NE:4923, V-A:TYR:484:CZ:4346, V-A:TYR:484:CE2:4345"]

$$$$
2a_Grossjean_2025
     RDKit          3D

 29 30  0  0  0  0  0  0  0  0999 V2000
  124.6310  123.9020   59.8470 C   0  0  0  0  0  0  0  0  0  0  0  0
  124.3200  124.1200   58.3640 C   0  0  0  0  0  0  0  0  0  0  0  0
  124.8350  123.0290   57.6100 O   0  0  0  0  0  0  0  0  0  0  0  0
  125.9230  123.1810   56.8110 C   0  0  0  0  0  0  0  0  0  0  0  0
  125.8730  123.1450   55.5780 O   0  0  0  0  0  0  0  0  0  0  0  0
  127.1910  123.4180   57.5800 C   0  0  0  0  0  0  0  0  0  0  0  0
  127.6510  122.5140   58.5490 C   0  0  0  0  0  0  0  0  0  0  0  0
  128.8300  122.7640   59.2450 C   0  0  0  0  0  0  0  0  0  0  0  0
  129.5680  123.9220   58.9950 C   0  0  0  0  0  0  0  0  0  0  0  0
  130.7350  124.0780   59.7660 N   0  0  0  0  0  0  0  0  0  0  0  0
  131.9840  124.4250   59.3900 C   0  0  0  0  0  0  0  0  0  0  0  0
  132.3460  124.6530   58.2350 O   0  0  0  0  0  0  0  0  0  0  0  0
  133.0100  124.5300   60.5230 C   0  0  0  0  0  0  0  0  0  0  0  0
  133.5590  122.9080   61.1520 S   0  0  0  0  0  0  0  0  0  0  0  0
  132.1410  121.8460   61.4030 C   0  0  0  0  0  0  0  0  0  0  0  0
  131.0480  122.4420   61.9440 N   0  0  0  0  0  0  0  0  0  0  0  0
  129.9430  121.6970   62.1730 C   0  0  0  0  0  0  0  0  0  0  0  0
  128.7720  122.4260   62.8050 C   0  0  0  0  0  0  0  0  0  0  0  0
  129.8760  120.3400   61.8670 C   0  0  0  0  0  0  0  0  0  0  0  0
  130.9910  119.7060   61.2980 C   0  0  0  0  0  0  0  0  0  0  0  0
  130.9000  118.2040   60.9650 C   0  0  0  0  0  0  0  0  0  0  0  0
  131.7660  117.5170   61.7100 F   0  0  0  0  0  0  0  0  0  0  0  0
  129.6670  117.7570   61.2090 F   0  0  0  0  0  0  0  0  0  0  0  0
  131.1750  117.9430   59.6840 F   0  0  0  0  0  0  0  0  0  0  0  0
  132.1570  120.4750   61.0570 C   0  0  0  0  0  0  0  0  0  0  0  0
  133.3520  119.8620   60.4670 C   0  0  0  0  0  0  0  0  0  0  0  0
  134.2950  119.3780   60.0020 N   0  0  0  0  0  0  0  0  0  0  0  0
  129.1190  124.8260   58.0220 C   0  0  0  0  0  0  0  0  0  0  0  0
  127.9420  124.5720   57.3230 C   0  0  0  0  0  0  0  0  0  0  0  0
  1  2  1  0
  2  3  1  0
  3  4  1  0
  4  5  2  0
  4  6  1  0
  6  7  2  0
  7  8  1  0
  8  9  2  0
  9 10  1  0
 10 11  1  0
 11 12  2  0
 11 13  1  0
 13 14  1  0
 14 15  1  0
 15 16  2  0
 16 17  1  0
 17 18  1  0
 17 19  2  0
 19 20  1  0
 20 21  1  0
 21 22  1  0
 21 23  1  0
 21 24  1  0
 20 25  2  0
 25 26  1  0
 26 27  3  0
  9 28  1  0
 28 29  2  0
 29  6  1  0
 25 15  1  0
M  END
>  <Binding energies>  (100) 
[-7.69]

>  <Ligand effiencies>  (100) 
[-0.25633333333333336]

>  <Interactions>  (100) 
["V-A:ASP:366:CG:3212, V-A:ASP:366:CB:3211, V-B:PRO:540:N:9855, V-B:ALA:541:CB:9863, V-B:PRO:540:CA:9854, V-B:ALA:541:CA:9861, V-B:TYR:539:C:9838, V-A:LEU:475:CD2:4258, V-A:PRO:482:CG:4326, V-A:HIS:383:CE1:3393, V-A:ILE:369:CD1:3238, V-B:TYR:539:CD2:9845, V-A:ILE:369:CG2:3236, V-B:TYR:539:CE2:9847, V-B:TYR:539:CB:9842, V-A:SER:385:CA:3406, V-A:SER:385:CB:3408, V-B:TYR:539:CG:9843, V-B:MET:535:CE:9806, H-B:TYR:539:OH:9849, V-B:TYR:539:CZ:9848, V-A:PRO:482:CB:4325, V-B:PRO:540:CB:9856, V-B:LEU:363:CD1:8159, H-B:TYR:531:OH:9766"]

$$$$
2b_Grossjean_2025
     RDKit          3D

 28 29  0  0  0  0  0  0  0  0999 V2000
  124.6570  123.9670   58.0730 C   0  0  0  0  0  0  0  0  0  0  0  0
  125.6500  124.0000   57.0570 O   0  0  0  0  0  0  0  0  0  0  0  0
  126.6060  123.0390   56.9820 C   0  0  0  0  0  0  0  0  0  0  0  0
  126.4770  122.0000   56.3280 O   0  0  0  0  0  0  0  0  0  0  0  0
  127.8370  123.3650   57.7790 C   0  0  0  0  0  0  0  0  0  0  0  0
  128.2290  122.5960   58.8850 C   0  0  0  0  0  0  0  0  0  0  0  0
  129.3750  122.9260   59.6030 C   0  0  0  0  0  0  0  0  0  0  0  0
  130.1530  124.0220   59.2310 C   0  0  0  0  0  0  0  0  0  0  0  0
  131.2860  124.2690   60.0290 N   0  0  0  0  0  0  0  0  0  0  0  0
  132.5960  124.2260   59.7040 C   0  0  0  0  0  0  0  0  0  0  0  0
  133.0460  123.9210   58.5980 O   0  0  0  0  0  0  0  0  0  0  0  0
  133.5620  124.5740   60.8400 C   0  0  0  0  0  0  0  0  0  0  0  0
  133.0620  123.8740   62.4470 S   0  0  0  0  0  0  0  0  0  0  0  0
  131.8370  122.5950   62.2010 C   0  0  0  0  0  0  0  0  0  0  0  0
  130.5610  122.9320   62.5170 N   0  0  0  0  0  0  0  0  0  0  0  0
  129.5840  122.0120   62.3610 C   0  0  0  0  0  0  0  0  0  0  0  0
  128.1890  122.4630   62.7480 C   0  0  0  0  0  0  0  0  0  0  0  0
  129.8300  120.7300   61.8780 C   0  0  0  0  0  0  0  0  0  0  0  0
  131.1400  120.3610   61.5380 C   0  0  0  0  0  0  0  0  0  0  0  0
  131.3950  118.9400   61.0010 C   0  0  0  0  0  0  0  0  0  0  0  0
  132.0670  119.0000   59.8510 F   0  0  0  0  0  0  0  0  0  0  0  0
  132.1090  118.2380   61.8830 F   0  0  0  0  0  0  0  0  0  0  0  0
  130.2670  118.2640   60.7720 F   0  0  0  0  0  0  0  0  0  0  0  0
  132.1770  121.3150   61.7030 C   0  0  0  0  0  0  0  0  0  0  0  0
  133.5650  120.9820   61.3700 C   0  0  0  0  0  0  0  0  0  0  0  0
  134.6610  120.7190   61.1050 N   0  0  0  0  0  0  0  0  0  0  0  0
  129.7640  124.8000   58.1310 C   0  0  0  0  0  0  0  0  0  0  0  0
  128.6170  124.4700   57.4140 C   0  0  0  0  0  0  0  0  0  0  0  0
  1  2  1  0
  2  3  1  0
  3  4  2  0
  3  5  1  0
  5  6  2  0
  6  7  1  0
  7  8  2  0
  8  9  1  0
  9 10  1  0
 10 11  2  0
 10 12  1  0
 12 13  1  0
 13 14  1  0
 14 15  2  0
 15 16  1  0
 16 17  1  0
 16 18  2  0
 18 19  1  0
 19 20  1  0
 20 21  1  0
 20 22  1  0
 20 23  1  0
 19 24  2  0
 24 25  1  0
 25 26  3  0
  8 27  1  0
 27 28  2  0
 28  5  1  0
 24 14  1  0
M  END
>  <Binding energies>  (101) 
[-6.76]

>  <Ligand effiencies>  (101) 
[-0.23310344827586207]

>  <Interactions>  (101) 
["V-A:ASP:366:CG:3212, V-A:ASP:366:CB:3211, V-B:PRO:540:N:9855, V-B:ALA:541:CB:9863, V-B:PRO:540:CA:9854, V-B:ALA:541:CA:9861, V-B:TYR:539:C:9838, V-A:LEU:475:CD2:4258, V-A:ILE:369:CD1:3238, V-B:TYR:539:CD2:9845, V-A:ILE:369:CG2:3236, V-B:TYR:539:CE2:9847, V-B:TYR:539:CB:9842, V-A:SER:385:CA:3406, V-A:SER:385:CB:3408, H-B:TYR:539:N:9841, V-B:TYR:539:CG:9843, V-B:MET:535:CE:9806, H-B:TYR:539:OH:9849, V-B:TYR:539:CZ:9848, V-B:PRO:540:CB:9856, V-B:LEU:363:CD1:8159, H-B:TYR:531:OH:9766"]

$$$$
2c_Grossjean_2025
     RDKit          3D

 26 27  0  0  0  0  0  0  0  0999 V2000
  124.9670  122.1880   55.6100 C   0  0  0  0  0  0  0  0  0  0  0  0
  126.0440  123.1000   55.7990 O   0  0  0  0  0  0  0  0  0  0  0  0
  126.6850  123.1410   57.0220 C   0  0  0  0  0  0  0  0  0  0  0  0
  125.9580  123.6690   58.0880 C   0  0  0  0  0  0  0  0  0  0  0  0
  126.5200  123.7530   59.3600 C   0  0  0  0  0  0  0  0  0  0  0  0
  127.8340  123.3140   59.5750 C   0  0  0  0  0  0  0  0  0  0  0  0
  128.4790  123.3420   60.8250 N   0  0  0  0  0  0  0  0  0  0  0  0
  127.9380  123.2110   62.0550 C   0  0  0  0  0  0  0  0  0  0  0  0
  126.7320  123.0940   62.2820 O   0  0  0  0  0  0  0  0  0  0  0  0
  128.9460  123.2560   63.2130 C   0  0  0  0  0  0  0  0  0  0  0  0
  129.8810  121.7120   63.5020 S   0  0  0  0  0  0  0  0  0  0  0  0
  131.1780  121.5650   62.2800 C   0  0  0  0  0  0  0  0  0  0  0  0
  131.8970  122.6940   62.0470 N   0  0  0  0  0  0  0  0  0  0  0  0
  132.8870  122.6600   61.1290 C   0  0  0  0  0  0  0  0  0  0  0  0
  133.6310  123.9640   60.9150 C   0  0  0  0  0  0  0  0  0  0  0  0
  133.2100  121.5080   60.4150 C   0  0  0  0  0  0  0  0  0  0  0  0
  132.4870  120.3290   60.6450 C   0  0  0  0  0  0  0  0  0  0  0  0
  132.8580  119.0630   59.8480 C   0  0  0  0  0  0  0  0  0  0  0  0
  133.5480  119.3960   58.7570 F   0  0  0  0  0  0  0  0  0  0  0  0
  133.6010  118.2500   60.6000 F   0  0  0  0  0  0  0  0  0  0  0  0
  131.7860  118.3730   59.4500 F   0  0  0  0  0  0  0  0  0  0  0  0
  131.4410  120.3520   61.6010 C   0  0  0  0  0  0  0  0  0  0  0  0
  130.6500  119.1490   61.8810 C   0  0  0  0  0  0  0  0  0  0  0  0
  130.0260  118.1990   62.1000 N   0  0  0  0  0  0  0  0  0  0  0  0
  128.5600  122.7700   58.5140 C   0  0  0  0  0  0  0  0  0  0  0  0
  127.9950  122.6870   57.2450 C   0  0  0  0  0  0  0  0  0  0  0  0
  1  2  1  0
  2  3  1  0
  3  4  2  0
  4  5  1  0
  5  6  2  0
  6  7  1  0
  7  8  1  0
  8  9  2  0
  8 10  1  0
 10 11  1  0
 11 12  1  0
 12 13  2  0
 13 14  1  0
 14 15  1  0
 14 16  2  0
 16 17  1  0
 17 18  1  0
 18 19  1  0
 18 20  1  0
 18 21  1  0
 17 22  2  0
 22 23  1  0
 23 24  3  0
  6 25  1  0
 25 26  2  0
 26  3  1  0
 22 12  1  0
M  END
>  <Binding energies>  (102) 
[-6.97]

>  <Ligand effiencies>  (102) 
[-0.2581481481481481]

>  <Interactions>  (102) 
["V-A:ASP:366:CG:3212, V-B:PRO:540:N:9855, H-B:ALA:541:N:9862, V-B:ALA:541:CB:9863, V-B:PRO:540:CA:9854, V-B:TYR:539:C:9838, V-A:LEU:475:CD2:4258, V-A:ILE:369:CD1:3238, V-B:TYR:539:CD2:9845, V-A:ILE:369:CG2:3236, V-B:TYR:539:CE2:9847, V-B:TYR:539:CB:9842, V-A:SER:385:CA:3406, V-A:SER:385:CB:3408, V-B:TYR:539:CG:9843, V-B:MET:535:CE:9806, V-B:TYR:539:CZ:9848, V-B:PRO:540:CB:9856, V-B:TYR:539:CD1:9844, V-B:PRO:540:CD:9858, V-B:TYR:531:CE2:9764, V-B:LEU:363:CD1:8159, V-B:ILE:538:CD1:9836, V-B:ILE:538:CG2:9834, V-B:ILE:538:CA:9831, V-B:TYR:539:CE1:9846, V-B:ILE:538:CB:9833, V-A:LEU:373:CG:3278, V-A:LEU:373:CD2:3280, H-B:TYR:531:OH:9766, V-A:VAL:384:C:3396"]

$$$$
2d_Ghoteimi_2023
     RDKit          3D

 38 42  0  0  0  0  0  0  0  0999 V2000
  135.4590  124.1480   76.8600 C   0  0  0  0  0  0  0  0  0  0  0  0
  134.1380  124.6670   76.8370 O   0  0  0  0  0  0  0  0  0  0  0  0
  133.8520  125.7800   76.1300 C   0  0  0  0  0  0  0  0  0  0  0  0
  134.6350  126.3790   75.3880 O   0  0  0  0  0  0  0  0  0  0  0  0
  132.3990  126.2250   76.3550 C   0  0  0  0  0  0  0  0  0  0  0  0
  131.8510  127.3780   75.0500 S   0  0  0  0  0  0  0  0  0  0  0  0
  130.6030  126.5660   74.0720 C   0  0  0  0  0  0  0  0  0  0  0  0
  130.3670  125.2890   74.4600 N   0  0  0  0  0  0  0  0  0  0  0  0
  129.4440  124.5470   73.7970 C   0  0  0  0  0  0  0  0  0  0  0  0
  129.2510  123.1420   74.2700 C   0  0  0  0  0  0  0  0  0  0  0  0
  130.3250  122.4120   74.7920 C   0  0  0  0  0  0  0  0  0  0  0  0
  130.1520  121.1030   75.2340 C   0  0  0  0  0  0  0  0  0  0  0  0
  128.8960  120.4800   75.1790 C   0  0  0  0  0  0  0  0  0  0  0  0
  128.7090  119.1590   75.6030 N   0  0  0  0  0  0  0  0  0  0  0  0
  128.9060  118.7650   77.0110 C   0  0  0  0  0  0  0  0  0  0  0  0
  129.0230  117.2400   77.2160 C   0  0  0  0  0  0  0  0  0  0  0  0
  127.8900  116.5890   76.6620 O   0  0  0  0  0  0  0  0  0  0  0  0
  127.7770  116.8320   75.2700 C   0  0  0  0  0  0  0  0  0  0  0  0
  127.6290  118.3460   75.0060 C   0  0  0  0  0  0  0  0  0  0  0  0
  127.8260  121.2100   74.6430 C   0  0  0  0  0  0  0  0  0  0  0  0
  127.9990  122.5180   74.1990 C   0  0  0  0  0  0  0  0  0  0  0  0
  128.7270  125.0800   72.7230 C   0  0  0  0  0  0  0  0  0  0  0  0
  128.9280  126.4070   72.3240 C   0  0  0  0  0  0  0  0  0  0  0  0
  128.1060  126.9170   71.1860 C   0  0  0  0  0  0  0  0  0  0  0  0
  128.7170  127.5870   70.1240 C   0  0  0  0  0  0  0  0  0  0  0  0
  127.9620  128.0550   69.0520 C   0  0  0  0  0  0  0  0  0  0  0  0
  126.5700  127.8700   69.0150 C   0  0  0  0  0  0  0  0  0  0  0  0
  125.7940  128.3210   67.9430 N   0  0  0  0  0  0  0  0  0  0  0  0
  126.4130  128.7750   66.6830 C   0  0  0  0  0  0  0  0  0  0  0  0
  125.4130  128.8880   65.5120 C   0  0  0  0  0  0  0  0  0  0  0  0
  124.3300  129.7300   65.8780 O   0  0  0  0  0  0  0  0  0  0  0  0
  123.6330  129.2260   67.0070 C   0  0  0  0  0  0  0  0  0  0  0  0
  124.5870  129.1250   68.2160 C   0  0  0  0  0  0  0  0  0  0  0  0
  125.9680  127.1810   70.0770 C   0  0  0  0  0  0  0  0  0  0  0  0
  126.7240  126.7120   71.1470 C   0  0  0  0  0  0  0  0  0  0  0  0
  129.8900  127.1820   73.0190 C   0  0  0  0  0  0  0  0  0  0  0  0
  130.1220  128.5820   72.6510 C   0  0  0  0  0  0  0  0  0  0  0  0
  130.3020  129.6880   72.3580 N   0  0  0  0  0  0  0  0  0  0  0  0
  1  2  1  0
  2  3  1  0
  3  4  2  0
  3  5  1  0
  5  6  1  0
  6  7  1  0
  7  8  2  0
  8  9  1  0
  9 10  1  0
 10 11  2  0
 11 12  1  0
 12 13  2  0
 13 14  1  0
 14 15  1  0
 15 16  1  0
 16 17  1  0
 17 18  1  0
 18 19  1  0
 13 20  1  0
 20 21  2  0
  9 22  2  0
 22 23  1  0
 23 24  1  0
 24 25  2  0
 25 26  1  0
 26 27  2  0
 27 28  1  0
 28 29  1  0
 29 30  1  0
 30 31  1  0
 31 32  1  0
 32 33  1  0
 27 34  1  0
 34 35  2  0
 23 36  2  0
 36 37  1  0
 37 38  3  0
 36  7  1  0
 21 10  1  0
 35 24  1  0
 19 14  1  0
 33 28  1  0
M  END
>  <Binding energies>  (103) 
[-8.8]

>  <Ligand effiencies>  (103) 
[-0.23157894736842108]

>  <Interactions>  (103) 
["V-B:GLU:543:CD:9879, V-A:HIS:456:CE1:4069, V-B:GLU:543:CB:9877, V-B:HIS:456:CE1:9040, V-B:LYS:547:CE:9921, V-B:TYR:484:CZ:9317, H-B:LYS:547:NZ:9922, V-B:ARG:545:CD:9894, V-B:GLU:543:C:9873, V-B:ARG:545:CG:9893, V-B:GLY:544:CA:9885, V-A:ASP:473:CG:4239, V-A:TYR:484:CB:4340, H-B:TYR:484:OH:9318, V-B:GLY:544:C:9883, V-B:ARG:545:CZ:9897, V-A:HIS:456:CB:4064, V-A:HIS:456:C:4060, V-A:VAL:457:CA:4074, V-A:HIS:456:CG:4065, V-A:VAL:458:CG2:4086, H-A:LYS:471:NZ:4220, V-A:LYS:471:CD:4218, V-B:ARG:545:CA:9890, H-B:GLY:454:N:9020, V-A:LYS:471:CE:4219, V-A:LYS:471:CG:4217, V-A:ASP:485:CG:4355, H-A:VAL:457:N:4075, V-A:LYS:471:CB:4216, V-A:LYS:471:C:4212"]

$$$$
2d_Grossjean_2025
     RDKit          3D

 24 25  0  0  0  0  0  0  0  0999 V2000
  124.0180  123.2060   63.0170 C   0  0  0  0  0  0  0  0  0  0  0  0
  124.9690  123.4390   61.8590 C   0  0  0  0  0  0  0  0  0  0  0  0
  124.5070  123.5690   60.5510 C   0  0  0  0  0  0  0  0  0  0  0  0
  125.4260  123.7880   59.5140 C   0  0  0  0  0  0  0  0  0  0  0  0
  124.8960  123.9400   58.0750 C   0  0  0  0  0  0  0  0  0  0  0  0
  123.5630  123.9010   58.0730 F   0  0  0  0  0  0  0  0  0  0  0  0
  125.2950  125.1040   57.5600 F   0  0  0  0  0  0  0  0  0  0  0  0
  125.3270  122.9740   57.2610 F   0  0  0  0  0  0  0  0  0  0  0  0
  126.8050  123.8640   59.8350 C   0  0  0  0  0  0  0  0  0  0  0  0
  127.8010  124.1380   58.7950 C   0  0  0  0  0  0  0  0  0  0  0  0
  128.5860  124.3560   57.9730 N   0  0  0  0  0  0  0  0  0  0  0  0
  127.1840  123.6950   61.1880 C   0  0  0  0  0  0  0  0  0  0  0  0
  128.8720  123.7290   61.7610 S   0  0  0  0  0  0  0  0  0  0  0  0
  129.1000  122.4020   62.9900 C   0  0  0  0  0  0  0  0  0  0  0  0
  130.2340  121.4380   62.6270 C   0  0  0  0  0  0  0  0  0  0  0  0
  131.3490  121.6130   63.1210 O   0  0  0  0  0  0  0  0  0  0  0  0
  129.9150  120.4660   61.7470 N   0  0  0  0  0  0  0  0  0  0  0  0
  130.7240  119.4380   61.2270 C   0  0  0  0  0  0  0  0  0  0  0  0
  131.9810  119.8260   60.7590 C   0  0  0  0  0  0  0  0  0  0  0  0
  132.8520  118.8830   60.2190 C   0  0  0  0  0  0  0  0  0  0  0  0
  132.4590  117.5480   60.1400 C   0  0  0  0  0  0  0  0  0  0  0  0
  131.2030  117.1520   60.5910 C   0  0  0  0  0  0  0  0  0  0  0  0
  130.3310  118.0920   61.1310 C   0  0  0  0  0  0  0  0  0  0  0  0
  126.2810  123.5050   62.1800 N   0  0  0  0  0  0  0  0  0  0  0  0
  1  2  1  0
  2  3  2  0
  3  4  1  0
  4  5  1  0
  5  6  1  0
  5  7  1  0
  5  8  1  0
  4  9  2  0
  9 10  1  0
 10 11  3  0
  9 12  1  0
 12 13  1  0
 13 14  1  0
 14 15  1  0
 15 16  2  0
 15 17  1  0
 17 18  1  0
 18 19  2  0
 19 20  1  0
 20 21  2  0
 21 22  1  0
 22 23  2  0
 12 24  2  0
 24  2  1  0
 23 18  1  0
M  END
>  <Binding energies>  (104) 
[-7.08]

>  <Ligand effiencies>  (104) 
[-0.2832]

>  <Interactions>  (104) 
["V-B:PRO:540:N:9855, H-B:ALA:541:N:9862, V-B:ALA:541:CB:9863, V-B:PRO:540:CA:9854, V-B:ALA:541:CA:9861, V-B:TYR:539:C:9838, V-A:LEU:475:CD2:4258, V-A:PRO:482:CG:4326, V-A:HIS:383:CE1:3393, H-B:TYR:539:O:9839, V-B:TYR:539:CD2:9845, V-B:TYR:539:CE2:9847, V-A:SER:385:CA:3406, V-A:PRO:482:CB:4325, V-B:ALA:541:C:9859, V-B:PRO:540:CB:9856, V-B:ASN:362:CB:8146, V-B:TYR:531:CZ:9765, V-B:PRO:540:CD:9858, V-B:TYR:531:CE2:9764, V-B:LEU:363:CD1:8159, V-B:LEU:363:CA:8155, V-B:ARG:545:CZ:9897, V-B:ASN:362:CG:8147, V-B:LEU:363:CB:8157, V-B:LEU:363:CG:8158"]

$$$$
2e_Grossjean_2025
     RDKit          3D

 25 26  0  0  0  0  0  0  0  0999 V2000
  123.7130  124.3420   57.7800 C   0  0  0  0  0  0  0  0  0  0  0  0
  125.0610  123.6510   57.6930 C   0  0  0  0  0  0  0  0  0  0  0  0
  125.4650  122.9770   56.5380 C   0  0  0  0  0  0  0  0  0  0  0  0
  126.7240  122.3750   56.5270 C   0  0  0  0  0  0  0  0  0  0  0  0
  127.5390  122.4580   57.6590 C   0  0  0  0  0  0  0  0  0  0  0  0
  127.0680  123.1400   58.7860 C   0  0  0  0  0  0  0  0  0  0  0  0
  127.9450  123.2300   59.8800 N   0  0  0  0  0  0  0  0  0  0  0  0
  127.6400  123.2140   61.1970 C   0  0  0  0  0  0  0  0  0  0  0  0
  126.5110  123.0390   61.6580 O   0  0  0  0  0  0  0  0  0  0  0  0
  128.8060  123.4810   62.1550 C   0  0  0  0  0  0  0  0  0  0  0  0
  129.4880  121.9400   62.8470 S   0  0  0  0  0  0  0  0  0  0  0  0
  130.9650  121.6120   61.9100 C   0  0  0  0  0  0  0  0  0  0  0  0
  131.7230  122.7060   61.6470 N   0  0  0  0  0  0  0  0  0  0  0  0
  132.8400  122.5520   60.9020 C   0  0  0  0  0  0  0  0  0  0  0  0
  133.6400  123.8150   60.6470 C   0  0  0  0  0  0  0  0  0  0  0  0
  133.2400  121.3190   60.3890 C   0  0  0  0  0  0  0  0  0  0  0  0
  132.4620  120.1800   60.6440 C   0  0  0  0  0  0  0  0  0  0  0  0
  132.9050  118.8290   60.0520 C   0  0  0  0  0  0  0  0  0  0  0  0
  133.9590  119.0020   59.2540 F   0  0  0  0  0  0  0  0  0  0  0  0
  133.2380  117.9900   61.0330 F   0  0  0  0  0  0  0  0  0  0  0  0
  131.9470  118.2440   59.3300 F   0  0  0  0  0  0  0  0  0  0  0  0
  131.2900  120.3230   61.4280 C   0  0  0  0  0  0  0  0  0  0  0  0
  130.4190  119.1770   61.7050 C   0  0  0  0  0  0  0  0  0  0  0  0
  129.7320  118.2720   61.9230 N   0  0  0  0  0  0  0  0  0  0  0  0
  125.8410  123.7390   58.8010 N   0  0  0  0  0  0  0  0  0  0  0  0
  1  2  1  0
  2  3  2  0
  3  4  1  0
  4  5  2  0
  5  6  1  0
  6  7  1  0
  7  8  1  0
  8  9  2  0
  8 10  1  0
 10 11  1  0
 11 12  1  0
 12 13  2  0
 13 14  1  0
 14 15  1  0
 14 16  2  0
 16 17  1  0
 17 18  1  0
 18 19  1  0
 18 20  1  0
 18 21  1  0
 17 22  2  0
 22 23  1  0
 23 24  3  0
  6 25  2  0
 25  2  1  0
 22 12  1  0
M  END
>  <Binding energies>  (105) 
[-7.23]

>  <Ligand effiencies>  (105) 
[-0.2780769230769231]

>  <Interactions>  (105) 
["V-A:ASP:366:CG:3212, V-B:PRO:540:N:9855, H-B:ALA:541:N:9862, V-B:ALA:541:CB:9863, V-B:PRO:540:CA:9854, V-B:TYR:539:C:9838, V-A:LEU:475:CD2:4258, V-A:ILE:369:CD1:3238, V-B:TYR:539:CD2:9845, V-A:ILE:369:CG2:3236, V-B:TYR:539:CE2:9847, V-B:TYR:539:CB:9842, V-A:SER:385:CA:3406, V-A:SER:385:CB:3408, V-B:TYR:539:CG:9843, V-B:MET:535:CE:9806, V-B:PRO:540:CB:9856, V-B:TYR:539:CA:9840, V-B:TYR:531:CZ:9765, V-B:PRO:540:CD:9858, V-B:TYR:531:CE2:9764, V-B:LEU:363:CD1:8159, V-B:ASP:366:CB:8182, V-A:LEU:373:CG:3278, V-A:LEU:373:CD2:3280, V-A:VAL:384:C:3396, V-B:LEU:363:CA:8155"]

$$$$
2f_Grossjean_2025
     RDKit          3D

 24 25  0  0  0  0  0  0  0  0999 V2000
  133.3930  123.8980   60.4430 C   0  0  0  0  0  0  0  0  0  0  0  0
  132.6350  122.6110   60.7120 C   0  0  0  0  0  0  0  0  0  0  0  0
  133.1790  121.3660   60.4050 C   0  0  0  0  0  0  0  0  0  0  0  0
  132.4350  120.2050   60.6650 C   0  0  0  0  0  0  0  0  0  0  0  0
  133.0490  118.8380   60.3070 C   0  0  0  0  0  0  0  0  0  0  0  0
  132.3590  118.2710   59.3150 F   0  0  0  0  0  0  0  0  0  0  0  0
  134.3140  118.9960   59.9170 F   0  0  0  0  0  0  0  0  0  0  0  0
  133.0470  117.9850   61.3330 F   0  0  0  0  0  0  0  0  0  0  0  0
  131.1470  120.3400   61.2450 C   0  0  0  0  0  0  0  0  0  0  0  0
  130.3100  119.1620   61.4830 C   0  0  0  0  0  0  0  0  0  0  0  0
  129.6490  118.2300   61.6720 N   0  0  0  0  0  0  0  0  0  0  0  0
  130.6870  121.6440   61.5480 C   0  0  0  0  0  0  0  0  0  0  0  0
  129.1050  121.9990   62.2860 S   0  0  0  0  0  0  0  0  0  0  0  0
  128.3740  123.4190   61.4030 C   0  0  0  0  0  0  0  0  0  0  0  0
  128.2880  123.2640   59.8780 C   0  0  0  0  0  0  0  0  0  0  0  0
  129.2980  123.3590   59.1780 O   0  0  0  0  0  0  0  0  0  0  0  0
  127.0420  123.0410   59.4070 N   0  0  0  0  0  0  0  0  0  0  0  0
  126.6080  122.8440   58.0820 C   0  0  0  0  0  0  0  0  0  0  0  0
  125.3300  123.1630   57.5860 C   0  0  0  0  0  0  0  0  0  0  0  0
  125.0290  122.9200   56.2450 C   0  0  0  0  0  0  0  0  0  0  0  0
  126.0170  122.3670   55.4290 C   0  0  0  0  0  0  0  0  0  0  0  0
  127.2580  122.0580   55.8810 N   0  0  0  0  0  0  0  0  0  0  0  0
  127.5360  122.3010   57.1870 C   0  0  0  0  0  0  0  0  0  0  0  0
  131.4110  122.7550   61.2680 N   0  0  0  0  0  0  0  0  0  0  0  0
  1  2  1  0
  2  3  2  0
  3  4  1  0
  4  5  1  0
  5  6  1  0
  5  7  1  0
  5  8  1  0
  4  9  2  0
  9 10  1  0
 10 11  3  0
  9 12  1  0
 12 13  1  0
 13 14  1  0
 14 15  1  0
 15 16  2  0
 15 17  1  0
 17 18  1  0
 18 19  2  0
 19 20  1  0
 20 21  2  0
 21 22  1  0
 22 23  2  0
 12 24  2  0
 24  2  1  0
 23 18  1  0
M  END
>  <Binding energies>  (106) 
[-7.12]

>  <Ligand effiencies>  (106) 
[-0.2848]

>  <Interactions>  (106) 
["V-A:ASP:366:CG:3212, V-B:PRO:540:N:9855, H-B:ALA:541:N:9862, V-B:ALA:541:CB:9863, V-B:PRO:540:CA:9854, V-B:TYR:539:C:9838, V-A:LEU:475:CD2:4258, V-A:ILE:369:CD1:3238, V-A:SER:385:C:3404, V-B:TYR:539:CD2:9845, V-A:ILE:369:CG2:3236, V-B:TYR:539:CE2:9847, V-B:TYR:539:CB:9842, V-A:SER:385:CA:3406, V-A:SER:385:CB:3408, H-B:TYR:539:N:9841, V-B:TYR:539:CG:9843, V-B:MET:535:CE:9806, V-B:PRO:540:CB:9856, V-B:TYR:539:CA:9840, V-B:TYR:539:CD1:9844, V-B:TYR:531:CZ:9765, V-B:PRO:540:CD:9858, V-B:TYR:531:CE2:9764, V-B:LEU:363:CD1:8159, V-B:ILE:538:CD1:9836, V-B:ILE:538:CG2:9834, V-B:ILE:538:CA:9831, V-B:TYR:539:CE1:9846, V-B:ILE:538:C:9829, V-A:LEU:373:CD2:3280, V-B:MET:535:CG:9804, V-A:VAL:384:C:3396"]

$$$$
2g_Grossjean_2025
     RDKit          3D

 25 26  0  0  0  0  0  0  0  0999 V2000
  123.9900  123.6560   62.2510 C   0  0  0  0  0  0  0  0  0  0  0  0
  125.3930  123.5000   61.6960 C   0  0  0  0  0  0  0  0  0  0  0  0
  125.6680  123.6920   60.3440 C   0  0  0  0  0  0  0  0  0  0  0  0
  126.9810  123.5280   59.8770 C   0  0  0  0  0  0  0  0  0  0  0  0
  127.2650  123.7350   58.3770 C   0  0  0  0  0  0  0  0  0  0  0  0
  128.1280  124.7380   58.2040 F   0  0  0  0  0  0  0  0  0  0  0  0
  127.7850  122.6230   57.8570 F   0  0  0  0  0  0  0  0  0  0  0  0
  126.1660  124.0310   57.6800 F   0  0  0  0  0  0  0  0  0  0  0  0
  127.9930  123.1780   60.8080 C   0  0  0  0  0  0  0  0  0  0  0  0
  129.3690  122.9390   60.3630 C   0  0  0  0  0  0  0  0  0  0  0  0
  130.4550  122.7510   60.0120 N   0  0  0  0  0  0  0  0  0  0  0  0
  127.6260  123.0330   62.1680 C   0  0  0  0  0  0  0  0  0  0  0  0
  128.7700  122.6230   63.4670 S   0  0  0  0  0  0  0  0  0  0  0  0
  130.2770  123.6190   63.2050 C   0  0  0  0  0  0  0  0  0  0  0  0
  131.5780  122.8070   63.1290 C   0  0  0  0  0  0  0  0  0  0  0  0
  132.5650  123.1120   63.8010 O   0  0  0  0  0  0  0  0  0  0  0  0
  131.5580  121.7620   62.2830 N   0  0  0  0  0  0  0  0  0  0  0  0
  132.6690  120.8390   62.0460 C   0  0  0  0  0  0  0  0  0  0  0  0
  132.3360  119.6800   61.1120 C   0  0  0  0  0  0  0  0  0  0  0  0
  133.1900  119.3770   60.0470 C   0  0  0  0  0  0  0  0  0  0  0  0
  132.9070  118.2950   59.2160 C   0  0  0  0  0  0  0  0  0  0  0  0
  131.7800  117.5150   59.4580 C   0  0  0  0  0  0  0  0  0  0  0  0
  130.9320  117.8040   60.5260 C   0  0  0  0  0  0  0  0  0  0  0  0
  131.2140  118.8850   61.3570 C   0  0  0  0  0  0  0  0  0  0  0  0
  126.3470  123.1730   62.5970 N   0  0  0  0  0  0  0  0  0  0  0  0
  1  2  1  0
  2  3  2  0
  3  4  1  0
  4  5  1  0
  5  6  1  0
  5  7  1  0
  5  8  1  0
  4  9  2  0
  9 10  1  0
 10 11  3  0
  9 12  1  0
 12 13  1  0
 13 14  1  0
 14 15  1  0
 15 16  2  0
 15 17  1  0
 17 18  1  0
 18 19  1  0
 19 20  2  0
 20 21  1  0
 21 22  2  0
 22 23  1  0
 23 24  2  0
 12 25  2  0
 25  2  1  0
 24 19  1  0
M  END
>  <Binding energies>  (107) 
[-6.77]

>  <Ligand effiencies>  (107) 
[-0.2603846153846154]

>  <Interactions>  (107) 
["V-B:PRO:540:N:9855, H-B:ALA:541:N:9862, H-A:TYR:484:OH:4347, V-B:ALA:541:CB:9863, V-B:PRO:540:CA:9854, V-B:PRO:540:C:9852, V-B:TYR:539:C:9838, V-A:LEU:475:CD2:4258, V-A:HIS:383:CE1:3393, V-B:TYR:539:CD2:9845, V-A:ILE:369:CG2:3236, V-B:TYR:539:CE2:9847, V-B:TYR:539:CB:9842, V-A:SER:385:CA:3406, V-B:TYR:539:CG:9843, V-B:PRO:540:CB:9856, V-B:ASN:362:CB:8146, V-A:LEU:373:CG:3278, V-A:LEU:373:CD2:3280, V-B:ARG:545:CZ:9897"]

$$$$
2h_Grossjean_2025
     RDKit          3D

 31 32  0  0  0  0  0  0  0  0999 V2000
  125.8450  122.5980   55.8670 C   0  0  0  0  0  0  0  0  0  0  0  0
  126.4310  123.6510   56.6240 O   0  0  0  0  0  0  0  0  0  0  0  0
  127.0020  123.3680   57.8520 C   0  0  0  0  0  0  0  0  0  0  0  0
  128.3540  123.0340   58.0300 C   0  0  0  0  0  0  0  0  0  0  0  0
  128.8600  122.7700   59.3000 C   0  0  0  0  0  0  0  0  0  0  0  0
  128.0290  122.8330   60.4200 C   0  0  0  0  0  0  0  0  0  0  0  0
  128.6100  122.5590   61.8060 C   0  0  0  0  0  0  0  0  0  0  0  0
  130.0630  122.7210   61.8760 N   0  0  0  0  0  0  0  0  0  0  0  0
  130.9590  121.8760   61.3360 C   0  0  0  0  0  0  0  0  0  0  0  0
  130.6450  120.8180   60.7870 O   0  0  0  0  0  0  0  0  0  0  0  0
  132.4270  122.3160   61.4330 C   0  0  0  0  0  0  0  0  0  0  0  0
  132.6780  124.0800   61.8240 S   0  0  0  0  0  0  0  0  0  0  0  0
  131.5060  124.9960   60.8470 C   0  0  0  0  0  0  0  0  0  0  0  0
  130.4910  125.5280   61.5700 N   0  0  0  0  0  0  0  0  0  0  0  0
  129.5330  126.2290   60.9230 C   0  0  0  0  0  0  0  0  0  0  0  0
  128.4240  126.7890   61.7940 C   0  0  0  0  0  0  0  0  0  0  0  0
  129.5490  126.4310   59.5440 C   0  0  0  0  0  0  0  0  0  0  0  0
  130.6030  125.9040   58.7820 C   0  0  0  0  0  0  0  0  0  0  0  0
  130.6090  126.1450   57.2600 C   0  0  0  0  0  0  0  0  0  0  0  0
  129.7550  127.1220   56.9510 F   0  0  0  0  0  0  0  0  0  0  0  0
  131.8100  126.5030   56.7990 F   0  0  0  0  0  0  0  0  0  0  0  0
  130.2470  125.0340   56.6180 F   0  0  0  0  0  0  0  0  0  0  0  0
  131.6210  125.1730   59.4470 C   0  0  0  0  0  0  0  0  0  0  0  0
  132.7730  124.6540   58.7050 C   0  0  0  0  0  0  0  0  0  0  0  0
  133.6830  124.2470   58.1180 N   0  0  0  0  0  0  0  0  0  0  0  0
  126.6700  123.1420   60.2560 C   0  0  0  0  0  0  0  0  0  0  0  0
  125.8450  123.2030   61.3530 O   0  0  0  0  0  0  0  0  0  0  0  0
  125.7020  124.5040   61.9090 C   0  0  0  0  0  0  0  0  0  0  0  0
  126.1660  123.4270   58.9750 C   0  0  0  0  0  0  0  0  0  0  0  0
  124.8400  123.7490   58.8120 O   0  0  0  0  0  0  0  0  0  0  0  0
  124.6110  125.1020   58.4430 C   0  0  0  0  0  0  0  0  0  0  0  0
  1  2  1  0
  2  3  1  0
  3  4  2  0
  4  5  1  0
  5  6  2  0
  6  7  1  0
  7  8  1  0
  8  9  1  0
  9 10  2  0
  9 11  1  0
 11 12  1  0
 12 13  1  0
 13 14  2  0
 14 15  1  0
 15 16  1  0
 15 17  2  0
 17 18  1  0
 18 19  1  0
 19 20  1  0
 19 21  1  0
 19 22  1  0
 18 23  2  0
 23 24  1  0
 24 25  3  0
  6 26  1  0
 26 27  1  0
 27 28  1  0
 26 29  2  0
 29 30  1  0
 30 31  1  0
 29  3  1  0
 23 13  1  0
M  END
>  <Binding energies>  (108) 
[-5.27]

>  <Ligand effiencies>  (108) 
[-0.1646875]

>  <Interactions>  (108) 
["V-A:ASP:366:CG:3212, V-A:ASP:366:CB:3211, V-A:TYR:531:CZ:4793, V-B:PRO:540:N:9855, H-B:ALA:541:N:9862, V-B:ALA:541:CB:9863, V-B:PRO:540:CA:9854, V-B:PRO:540:C:9852, V-B:TYR:539:C:9838, V-B:TYR:539:CD2:9845, V-B:TYR:539:CE2:9847, V-B:TYR:539:CG:9843, V-B:MET:535:CE:9806, H-B:TYR:539:OH:9849, V-B:TYR:539:CZ:9848, V-B:PRO:540:CB:9856, V-B:TYR:531:CE2:9764, V-B:ILE:538:CD1:9836, V-B:ILE:538:CA:9831, V-B:TYR:539:CE1:9846, V-B:ASP:366:CB:8182, H-B:TYR:531:OH:9766, V-A:TYR:531:CE1:4791, V-B:ASP:366:CG:8183, V-B:MET:535:CG:9804"]

$$$$
2i_Grossjean_2025
     RDKit          3D

 23 24  0  0  0  0  0  0  0  0999 V2000
  130.7170  117.8100   61.0710 C   0  0  0  0  0  0  0  0  0  0  0  0
  130.9550  119.2900   61.3120 C   0  0  0  0  0  0  0  0  0  0  0  0
  132.2360  119.8340   61.3010 C   0  0  0  0  0  0  0  0  0  0  0  0
  132.4030  121.2080   61.5270 C   0  0  0  0  0  0  0  0  0  0  0  0
  133.8280  121.7940   61.5120 C   0  0  0  0  0  0  0  0  0  0  0  0
  134.1670  122.2010   62.7370 F   0  0  0  0  0  0  0  0  0  0  0  0
  134.6990  120.8690   61.1070 F   0  0  0  0  0  0  0  0  0  0  0  0
  133.9470  122.8420   60.6940 F   0  0  0  0  0  0  0  0  0  0  0  0
  131.2510  122.0010   61.7610 C   0  0  0  0  0  0  0  0  0  0  0  0
  131.3680  123.4430   62.0020 C   0  0  0  0  0  0  0  0  0  0  0  0
  131.4600  124.5810   62.1920 N   0  0  0  0  0  0  0  0  0  0  0  0
  129.9880  121.3650   61.7570 C   0  0  0  0  0  0  0  0  0  0  0  0
  128.4710  122.2600   62.0480 S   0  0  0  0  0  0  0  0  0  0  0  0
  128.3750  123.6180   60.8430 C   0  0  0  0  0  0  0  0  0  0  0  0
  128.1480  123.1130   59.4170 C   0  0  0  0  0  0  0  0  0  0  0  0
  129.1170  122.7430   58.7510 O   0  0  0  0  0  0  0  0  0  0  0  0
  126.8700  123.1370   58.9810 N   0  0  0  0  0  0  0  0  0  0  0  0
  126.4150  122.7510   57.7310 C   0  0  0  0  0  0  0  0  0  0  0  0
  125.2040  123.0340   57.0840 C   0  0  0  0  0  0  0  0  0  0  0  0
  125.2990  122.3950   55.8690 C   0  0  0  0  0  0  0  0  0  0  0  0
  126.4990  121.7720   55.7880 O   0  0  0  0  0  0  0  0  0  0  0  0
  127.1960  122.0120   56.9740 N   0  0  0  0  0  0  0  0  0  0  0  0
  129.8480  120.0330   61.5350 N   0  0  0  0  0  0  0  0  0  0  0  0
  1  2  1  0
  2  3  2  0
  3  4  1  0
  4  5  1  0
  5  6  1  0
  5  7  1  0
  5  8  1  0
  4  9  2  0
  9 10  1  0
 10 11  3  0
  9 12  1  0
 12 13  1  0
 13 14  1  0
 14 15  1  0
 15 16  2  0
 15 17  1  0
 17 18  1  0
 18 19  1  0
 19 20  2  0
 20 21  1  0
 21 22  1  0
 12 23  2  0
 23  2  1  0
 22 18  2  0
M  END
>  <Binding energies>  (109) 
[-6.7]

>  <Ligand effiencies>  (109) 
[-0.2791666666666667]

>  <Interactions>  (109) 
["V-B:PRO:540:N:9855, H-B:ALA:541:N:9862, V-B:ALA:541:CB:9863, V-B:PRO:540:CA:9854, V-B:TYR:539:C:9838, V-A:LEU:475:CD2:4258, V-A:PRO:482:CG:4326, V-A:ILE:369:CD1:3238, V-A:SER:385:C:3404, V-B:TYR:539:CD2:9845, V-A:ILE:369:CG2:3236, V-A:SER:385:CA:3406, V-A:GLY:454:CA:4048, H-B:TYR:539:N:9841, V-A:PRO:482:CB:4325, V-B:PRO:540:CB:9856, V-B:PRO:540:CD:9858, V-B:TYR:531:CE2:9764, V-B:LEU:363:CD1:8159, V-B:ILE:538:CD1:9836, V-B:ILE:538:CG2:9834, V-B:ILE:538:CA:9831, V-A:ILE:369:CB:3235, V-A:ILE:369:CG1:3237"]

$$$$
2k_Grossjean_2025
     RDKit          3D

 28 28  0  0  0  0  0  0  0  0999 V2000
  133.2800  124.1680   59.2040 C   0  0  0  0  0  0  0  0  0  0  0  0
  133.2650  124.6570   57.8720 O   0  0  0  0  0  0  0  0  0  0  0  0
  132.6830  125.9490   57.7490 C   0  0  0  0  0  0  0  0  0  0  0  0
  132.2080  126.1690   56.3070 C   0  0  0  0  0  0  0  0  0  0  0  0
  130.8940  126.7060   56.3300 O   0  0  0  0  0  0  0  0  0  0  0  0
  129.8760  125.7510   56.6070 C   0  0  0  0  0  0  0  0  0  0  0  0
  129.0800  126.2310   57.8280 C   0  0  0  0  0  0  0  0  0  0  0  0
  128.3100  125.1370   58.3020 O   0  0  0  0  0  0  0  0  0  0  0  0
  129.0580  124.0770   58.8780 C   0  0  0  0  0  0  0  0  0  0  0  0
  128.4390  122.7350   58.4440 C   0  0  0  0  0  0  0  0  0  0  0  0
  127.0250  122.8510   58.0760 N   0  0  0  0  0  0  0  0  0  0  0  0
  126.5060  122.5700   56.8650 C   0  0  0  0  0  0  0  0  0  0  0  0
  127.1770  122.1470   55.9210 O   0  0  0  0  0  0  0  0  0  0  0  0
  125.0010  122.8300   56.7090 C   0  0  0  0  0  0  0  0  0  0  0  0
  124.1640  123.4950   58.1900 S   0  0  0  0  0  0  0  0  0  0  0  0
  124.9400  125.0330   58.6700 C   0  0  0  0  0  0  0  0  0  0  0  0
  124.7620  126.0730   57.8160 N   0  0  0  0  0  0  0  0  0  0  0  0
  125.3250  127.2660   58.1130 C   0  0  0  0  0  0  0  0  0  0  0  0
  125.0910  128.3730   57.1040 C   0  0  0  0  0  0  0  0  0  0  0  0
  126.0710  127.4770   59.2690 C   0  0  0  0  0  0  0  0  0  0  0  0
  126.2610  126.4180   60.1700 C   0  0  0  0  0  0  0  0  0  0  0  0
  127.0850  126.6700   61.4470 C   0  0  0  0  0  0  0  0  0  0  0  0
  126.3800  126.4810   62.5630 F   0  0  0  0  0  0  0  0  0  0  0  0
  128.1300  125.8420   61.4880 F   0  0  0  0  0  0  0  0  0  0  0  0
  127.5300  127.9270   61.4620 F   0  0  0  0  0  0  0  0  0  0  0  0
  125.6830  125.1590   59.8670 C   0  0  0  0  0  0  0  0  0  0  0  0
  125.8520  124.0170   60.7710 C   0  0  0  0  0  0  0  0  0  0  0  0
  125.9850  123.1160   61.4860 N   0  0  0  0  0  0  0  0  0  0  0  0
  1  2  1  0
  2  3  1  0
  3  4  1  0
  4  5  1  0
  5  6  1  0
  6  7  1  0
  7  8  1  0
  8  9  1  0
  9 10  1  0
 10 11  1  0
 11 12  1  0
 12 13  2  0
 12 14  1  0
 14 15  1  0
 15 16  1  0
 16 17  2  0
 17 18  1  0
 18 19  1  0
 18 20  2  0
 20 21  1  0
 21 22  1  0
 22 23  1  0
 22 24  1  0
 22 25  1  0
 21 26  2  0
 26 27  1  0
 27 28  3  0
 26 16  1  0
M  END
>  <Binding energies>  (110) 
[-5.49]

>  <Ligand effiencies>  (110) 
[-0.1893103448275862]

>  <Interactions>  (110) 
["V-A:ASP:366:CG:3212, V-A:ASP:366:CB:3211, H-A:TYR:531:OH:4794, V-A:TYR:531:CZ:4793, V-B:GLU:543:CD:9879, V-B:PRO:540:N:9855, H-B:ALA:541:N:9862, V-B:PRO:540:CA:9854, V-B:TYR:539:C:9838, V-A:ILE:369:CD1:3238, V-B:TYR:539:CD2:9845, V-A:ILE:369:CG2:3236, V-B:TYR:539:CE2:9847, H-B:TYR:539:N:9841, V-B:TYR:539:CG:9843, V-B:MET:535:CE:9806, H-B:TYR:539:OH:9849, V-B:TYR:539:CZ:9848, V-B:PRO:540:CB:9856, V-B:TYR:531:CZ:9765, V-B:PRO:540:CD:9858, V-B:TYR:531:CE2:9764, V-B:LEU:363:CD1:8159, V-B:ASP:366:CB:8182, H-B:TYR:531:OH:9766, V-A:TYR:531:CE1:4791, V-B:ASP:366:CG:8183, V-B:TYR:531:CE1:9763, V-A:ILE:369:CB:3235, V-A:ASP:366:CA:3209, V-A:ASP:366:C:3207, V-A:ASN:370:CB:3244, V-A:ASN:370:CG:3245"]

$$$$
3aa_Grossjean_2025
     RDKit          3D

 34 36  0  0  0  0  0  0  0  0999 V2000
  133.2820  126.1360   67.7600 C   0  0  0  0  0  0  0  0  0  0  0  0
  132.9740  126.2840   66.2660 C   0  0  0  0  0  0  0  0  0  0  0  0
  133.7800  125.3780   65.5240 O   0  0  0  0  0  0  0  0  0  0  0  0
  133.5170  125.1170   64.2180 C   0  0  0  0  0  0  0  0  0  0  0  0
  134.3940  125.0130   63.3540 O   0  0  0  0  0  0  0  0  0  0  0  0
  132.0500  124.9840   63.9230 C   0  0  0  0  0  0  0  0  0  0  0  0
  131.2940  123.8980   64.3870 C   0  0  0  0  0  0  0  0  0  0  0  0
  129.9350  123.8080   64.0990 C   0  0  0  0  0  0  0  0  0  0  0  0
  129.3030  124.8020   63.3490 C   0  0  0  0  0  0  0  0  0  0  0  0
  127.9250  124.6160   63.1180 N   0  0  0  0  0  0  0  0  0  0  0  0
  127.1630  123.5150   63.2960 C   0  0  0  0  0  0  0  0  0  0  0  0
  127.5700  122.4210   63.6890 O   0  0  0  0  0  0  0  0  0  0  0  0
  125.6810  123.6770   62.9570 C   0  0  0  0  0  0  0  0  0  0  0  0
  125.4400  124.5570   61.3840 S   0  0  0  0  0  0  0  0  0  0  0  0
  126.4990  123.7790   60.1850 C   0  0  0  0  0  0  0  0  0  0  0  0
  127.7390  123.5010   60.6540 N   0  0  0  0  0  0  0  0  0  0  0  0
  128.6500  122.9070   59.8390 C   0  0  0  0  0  0  0  0  0  0  0  0
  129.9940  122.6190   60.4360 C   0  0  0  0  0  0  0  0  0  0  0  0
  130.2170  121.4360   61.1580 C   0  0  0  0  0  0  0  0  0  0  0  0
  131.4630  121.1610   61.7150 C   0  0  0  0  0  0  0  0  0  0  0  0
  132.5050  122.0680   61.5570 C   0  0  0  0  0  0  0  0  0  0  0  0
  132.3110  123.2460   60.8440 C   0  0  0  0  0  0  0  0  0  0  0  0
  131.0640  123.5170   60.2860 C   0  0  0  0  0  0  0  0  0  0  0  0
  128.3230  122.5700   58.5220 C   0  0  0  0  0  0  0  0  0  0  0  0
  127.0510  122.8640   58.0080 C   0  0  0  0  0  0  0  0  0  0  0  0
  126.7330  122.4870   56.5490 C   0  0  0  0  0  0  0  0  0  0  0  0
  127.7690  121.9260   55.9220 F   0  0  0  0  0  0  0  0  0  0  0  0
  125.7240  121.6170   56.5070 F   0  0  0  0  0  0  0  0  0  0  0  0
  126.3910  123.5780   55.8620 F   0  0  0  0  0  0  0  0  0  0  0  0
  126.1100  123.4980   58.8560 C   0  0  0  0  0  0  0  0  0  0  0  0
  124.7860  123.8800   58.3570 C   0  0  0  0  0  0  0  0  0  0  0  0
  123.7410  124.1830   57.9620 N   0  0  0  0  0  0  0  0  0  0  0  0
  130.0560  125.8840   62.8700 C   0  0  0  0  0  0  0  0  0  0  0  0
  131.4140  125.9710   63.1570 C   0  0  0  0  0  0  0  0  0  0  0  0
  1  2  1  0
  2  3  1  0
  3  4  1  0
  4  5  2  0
  4  6  1  0
  6  7  2  0
  7  8  1  0
  8  9  2  0
  9 10  1  0
 10 11  1  0
 11 12  2  0
 11 13  1  0
 13 14  1  0
 14 15  1  0
 15 16  2  0
 16 17  1  0
 17 18  1  0
 18 19  2  0
 19 20  1  0
 20 21  2  0
 21 22  1  0
 22 23  2  0
 17 24  2  0
 24 25  1  0
 25 26  1  0
 26 27  1  0
 26 28  1  0
 26 29  1  0
 25 30  2  0
 30 31  1  0
 31 32  3  0
  9 33  1  0
 33 34  2  0
 34  6  1  0
 30 15  1  0
 23 18  1  0
M  END
>  <Binding energies>  (111) 
[-8.32]

>  <Ligand effiencies>  (111) 
[-0.2377142857142857]

>  <Interactions>  (111) 
["V-B:GLU:543:CD:9879, V-B:PRO:540:N:9855, H-B:ALA:541:N:9862, H-A:TYR:484:OH:4347, V-B:PRO:540:CA:9854, H-B:GLU:543:OE2:9881, H-B:GLU:543:OE1:9880, V-B:TYR:539:C:9838, V-A:LEU:475:CD2:4258, V-B:TYR:539:CD2:9845, V-B:TYR:539:CE2:9847, V-A:GLY:454:CA:4048, V-B:TYR:539:CG:9843, V-B:MET:535:CE:9806, V-B:TYR:539:CZ:9848, V-B:GLU:543:CG:9878, V-B:ALA:541:C:9859, V-B:PRO:540:CB:9856, H-A:GLY:454:N:4049, V-B:TYR:539:CA:9840, V-A:ARG:545:CD:4922, V-B:TYR:539:CD1:9844, V-B:TYR:531:CZ:9765, V-B:PRO:540:CD:9858, V-B:TYR:531:CE2:9764, V-B:LEU:363:CD1:8159, V-A:ARG:545:CZ:4925, V-A:ARG:545:CG:4921, V-A:HIS:456:CE1:4069, V-B:ILE:538:CG2:9834, V-A:HIS:456:CD2:4067, H-A:ARG:545:NH1:4926, H-B:ARG:545:NH2:9899, V-B:ILE:538:CA:9831, V-B:TYR:539:CE1:9846, V-B:ILE:538:C:9829, H-A:ARG:545:NE:4923, V-A:TYR:484:CZ:4346, V-B:MET:535:CG:9804, V-B:PRO:540:CG:9857"]

$$$$
3ad_Grossjean_2025
     RDKit          3D

 29 31  0  0  0  0  0  0  0  0999 V2000
  130.8180  125.6460   64.6340 N   0  0  0  0  0  0  0  0  0  0  0  0
  130.9310  124.6280   64.0960 C   0  0  0  0  0  0  0  0  0  0  0  0
  131.0780  123.3380   63.4140 C   0  0  0  0  0  0  0  0  0  0  0  0
  132.3100  122.9700   62.8210 C   0  0  0  0  0  0  0  0  0  0  0  0
  133.5660  123.8590   62.8890 C   0  0  0  0  0  0  0  0  0  0  0  0
  133.5760  124.8140   61.9570 F   0  0  0  0  0  0  0  0  0  0  0  0
  133.6350  124.4580   64.0800 F   0  0  0  0  0  0  0  0  0  0  0  0
  134.6620  123.1190   62.7140 F   0  0  0  0  0  0  0  0  0  0  0  0
  132.3850  121.7450   62.1400 C   0  0  0  0  0  0  0  0  0  0  0  0
  131.2630  120.9150   62.0510 C   0  0  0  0  0  0  0  0  0  0  0  0
  131.2830  119.6040   61.3220 C   0  0  0  0  0  0  0  0  0  0  0  0
  130.2570  118.6640   61.5080 C   0  0  0  0  0  0  0  0  0  0  0  0
  130.2700  117.4460   60.8340 C   0  0  0  0  0  0  0  0  0  0  0  0
  131.3130  117.1500   59.9620 C   0  0  0  0  0  0  0  0  0  0  0  0
  132.3400  118.0650   59.7590 C   0  0  0  0  0  0  0  0  0  0  0  0
  132.3230  119.2830   60.4340 C   0  0  0  0  0  0  0  0  0  0  0  0
  130.0830  121.2760   62.6160 N   0  0  0  0  0  0  0  0  0  0  0  0
  129.9920  122.4430   63.2960 C   0  0  0  0  0  0  0  0  0  0  0  0
  128.3770  122.7460   63.9790 S   0  0  0  0  0  0  0  0  0  0  0  0
  127.6120  124.0650   62.9900 C   0  0  0  0  0  0  0  0  0  0  0  0
  126.9160  123.5210   61.7400 C   0  0  0  0  0  0  0  0  0  0  0  0
  125.8120  122.9880   61.8540 O   0  0  0  0  0  0  0  0  0  0  0  0
  127.5960  123.6760   60.5840 N   0  0  0  0  0  0  0  0  0  0  0  0
  127.2420  123.3070   59.2740 C   0  0  0  0  0  0  0  0  0  0  0  0
  125.9140  123.5570   58.9120 C   0  0  0  0  0  0  0  0  0  0  0  0
  125.4580  123.2260   57.6390 C   0  0  0  0  0  0  0  0  0  0  0  0
  126.3280  122.6390   56.7250 C   0  0  0  0  0  0  0  0  0  0  0  0
  127.6500  122.3770   57.0740 C   0  0  0  0  0  0  0  0  0  0  0  0
  128.1110  122.7070   58.3460 C   0  0  0  0  0  0  0  0  0  0  0  0
  1  2  3  0
  2  3  1  0
  3  4  2  0
  4  5  1  0
  5  6  1  0
  5  7  1  0
  5  8  1  0
  4  9  1  0
  9 10  2  0
 10 11  1  0
 11 12  2  0
 12 13  1  0
 13 14  2  0
 14 15  1  0
 15 16  2  0
 10 17  1  0
 17 18  2  0
 18 19  1  0
 19 20  1  0
 20 21  1  0
 21 22  2  0
 21 23  1  0
 23 24  1  0
 24 25  2  0
 25 26  1  0
 26 27  2  0
 27 28  1  0
 28 29  2  0
 18  3  1  0
 29 24  1  0
 16 11  1  0
M  END
>  <Binding energies>  (112) 
[-8.51]

>  <Ligand effiencies>  (112) 
[-0.2836666666666667]

>  <Interactions>  (112) 
["V-A:ASP:366:CG:3212, V-B:GLU:543:CD:9879, V-B:PRO:540:N:9855, H-B:ALA:541:N:9862, V-B:ALA:541:CB:9863, V-B:PRO:540:CA:9854, V-B:TYR:539:C:9838, V-A:LEU:475:CD2:4258, V-A:PRO:482:CG:4326, V-A:HIS:383:CE1:3393, V-A:ILE:369:CD1:3238, V-B:TYR:539:CD2:9845, V-B:TYR:539:CE2:9847, V-B:TYR:539:CB:9842, V-A:GLY:454:CA:4048, V-B:TYR:539:CG:9843, V-B:MET:535:CE:9806, V-B:TYR:539:CZ:9848, V-A:PRO:482:CB:4325, V-B:GLU:543:CG:9878, V-B:PRO:540:CB:9856, V-B:TYR:539:CA:9840, V-A:GLY:453:C:4041, V-B:TYR:539:CD1:9844, V-B:PRO:540:CD:9858, V-B:TYR:539:CE1:9846"]

$$$$
3ai_Grossjean_2025
     RDKit          3D

 28 30  0  0  0  0  0  0  0  0999 V2000
  129.9810  125.6660   64.1340 N   0  0  0  0  0  0  0  0  0  0  0  0
  130.3190  124.6910   63.6110 C   0  0  0  0  0  0  0  0  0  0  0  0
  130.7470  123.4550   62.9490 C   0  0  0  0  0  0  0  0  0  0  0  0
  132.1230  123.1480   62.8080 C   0  0  0  0  0  0  0  0  0  0  0  0
  133.2380  124.0520   63.3680 C   0  0  0  0  0  0  0  0  0  0  0  0
  133.1070  125.3270   62.9960 F   0  0  0  0  0  0  0  0  0  0  0  0
  133.2230  124.0190   64.7020 F   0  0  0  0  0  0  0  0  0  0  0  0
  134.4280  123.6330   62.9390 F   0  0  0  0  0  0  0  0  0  0  0  0
  132.4820  121.9770   62.1240 C   0  0  0  0  0  0  0  0  0  0  0  0
  131.4980  121.1360   61.5950 C   0  0  0  0  0  0  0  0  0  0  0  0
  131.8240  119.8790   60.8470 C   0  0  0  0  0  0  0  0  0  0  0  0
  130.9990  118.7480   60.9510 C   0  0  0  0  0  0  0  0  0  0  0  0
  131.2930  117.5790   60.2560 C   0  0  0  0  0  0  0  0  0  0  0  0
  132.4200  117.5250   59.4420 C   0  0  0  0  0  0  0  0  0  0  0  0
  133.2530  118.6320   59.3200 C   0  0  0  0  0  0  0  0  0  0  0  0
  132.9550  119.8000   60.0160 C   0  0  0  0  0  0  0  0  0  0  0  0
  130.1800  121.4380   61.7250 N   0  0  0  0  0  0  0  0  0  0  0  0
  129.8080  122.5510   62.4020 C   0  0  0  0  0  0  0  0  0  0  0  0
  128.0430  122.7700   62.4900 S   0  0  0  0  0  0  0  0  0  0  0  0
  127.5400  123.8280   61.0910 C   0  0  0  0  0  0  0  0  0  0  0  0
  127.6120  123.1580   59.7110 C   0  0  0  0  0  0  0  0  0  0  0  0
  128.6230  122.5450   59.3600 O   0  0  0  0  0  0  0  0  0  0  0  0
  126.5010  123.3040   58.9540 N   0  0  0  0  0  0  0  0  0  0  0  0
  126.2820  122.8030   57.6770 C   0  0  0  0  0  0  0  0  0  0  0  0
  125.1150  123.0460   56.9530 C   0  0  0  0  0  0  0  0  0  0  0  0
  125.2890  122.3840   55.7600 C   0  0  0  0  0  0  0  0  0  0  0  0
  126.4980  121.7740   55.7640 O   0  0  0  0  0  0  0  0  0  0  0  0
  127.1180  122.0480   56.9840 N   0  0  0  0  0  0  0  0  0  0  0  0
  1  2  3  0
  2  3  1  0
  3  4  2  0
  4  5  1  0
  5  6  1  0
  5  7  1  0
  5  8  1  0
  4  9  1  0
  9 10  2  0
 10 11  1  0
 11 12  2  0
 12 13  1  0
 13 14  2  0
 14 15  1  0
 15 16  2  0
 10 17  1  0
 17 18  2  0
 18 19  1  0
 19 20  1  0
 20 21  1  0
 21 22  2  0
 21 23  1  0
 23 24  1  0
 24 25  1  0
 25 26  2  0
 26 27  1  0
 27 28  1  0
 18  3  1  0
 28 24  2  0
 16 11  1  0
M  END
>  <Binding energies>  (113) 
[-8.55]

>  <Ligand effiencies>  (113) 
[-0.2948275862068966]

>  <Interactions>  (113) 
["V-A:ASP:366:CG:3212, V-B:PRO:540:N:9855, H-B:ALA:541:N:9862, V-B:ALA:541:CB:9863, V-B:PRO:540:CA:9854, V-B:TYR:539:C:9838, V-A:LEU:475:CD2:4258, V-A:HIS:383:CE1:3393, V-A:ILE:369:CD1:3238, V-B:TYR:539:CD2:9845, V-A:ILE:369:CG2:3236, V-B:TYR:539:CE2:9847, V-B:TYR:539:CB:9842, V-A:GLY:454:CA:4048, H-B:TYR:539:N:9841, V-B:PRO:540:CB:9856, V-A:GLY:453:C:4041, V-B:PRO:540:CD:9858, V-B:TYR:531:CE2:9764, V-B:LEU:363:CD1:8159, V-A:ARG:545:CZ:4925, V-B:ILE:538:CD1:9836, V-B:ILE:538:CG2:9834, V-B:ILE:538:CA:9831, V-A:GLY:453:CA:4043, V-A:LEU:373:CG:3278, V-A:LEU:373:CD2:3280, V-A:VAL:384:C:3396"]

$$$$
3aj_Grossjean_2025
     RDKit          3D

 28 30  0  0  0  0  0  0  0  0999 V2000
  129.4270  123.6770   64.0910 N   0  0  0  0  0  0  0  0  0  0  0  0
  128.9600  123.5680   63.0380 C   0  0  0  0  0  0  0  0  0  0  0  0
  128.3660  123.4320   61.7050 C   0  0  0  0  0  0  0  0  0  0  0  0
  126.9860  123.6770   61.4990 C   0  0  0  0  0  0  0  0  0  0  0  0
  126.0450  124.1380   62.6290 C   0  0  0  0  0  0  0  0  0  0  0  0
  126.2700  123.5000   63.7810 F   0  0  0  0  0  0  0  0  0  0  0  0
  126.2050  125.4420   62.8530 F   0  0  0  0  0  0  0  0  0  0  0  0
  124.7770  123.9100   62.2880 F   0  0  0  0  0  0  0  0  0  0  0  0
  126.4560  123.4870   60.2130 C   0  0  0  0  0  0  0  0  0  0  0  0
  127.2780  123.0590   59.1650 C   0  0  0  0  0  0  0  0  0  0  0  0
  126.7630  122.8310   57.7770 C   0  0  0  0  0  0  0  0  0  0  0  0
  125.4240  123.1020   57.4580 C   0  0  0  0  0  0  0  0  0  0  0  0
  124.9380  122.8950   56.1680 C   0  0  0  0  0  0  0  0  0  0  0  0
  125.7900  122.4130   55.1800 C   0  0  0  0  0  0  0  0  0  0  0  0
  127.1220  122.1380   55.4710 C   0  0  0  0  0  0  0  0  0  0  0  0
  127.6030  122.3470   56.7600 C   0  0  0  0  0  0  0  0  0  0  0  0
  128.5990  122.8180   59.3700 N   0  0  0  0  0  0  0  0  0  0  0  0
  129.1390  123.0180   60.5960 C   0  0  0  0  0  0  0  0  0  0  0  0
  130.8830  122.6730   60.6680 S   0  0  0  0  0  0  0  0  0  0  0  0
  131.7260  124.1740   61.2730 C   0  0  0  0  0  0  0  0  0  0  0  0
  132.1550  124.1280   62.7470 C   0  0  0  0  0  0  0  0  0  0  0  0
  132.1630  123.0640   63.3690 O   0  0  0  0  0  0  0  0  0  0  0  0
  132.5080  125.3240   63.2690 N   0  0  0  0  0  0  0  0  0  0  0  0
  132.9400  125.5670   64.5660 C   0  0  0  0  0  0  0  0  0  0  0  0
  134.1540  125.4270   65.0530 N   0  0  0  0  0  0  0  0  0  0  0  0
  134.2070  125.7530   66.3290 C   0  0  0  0  0  0  0  0  0  0  0  0
  133.0100  126.1700   66.9070 C   0  0  0  0  0  0  0  0  0  0  0  0
  131.7570  126.1270   65.7050 S   0  0  0  0  0  0  0  0  0  0  0  0
  1  2  3  0
  2  3  1  0
  3  4  2  0
  4  5  1  0
  5  6  1  0
  5  7  1  0
  5  8  1  0
  4  9  1  0
  9 10  2  0
 10 11  1  0
 11 12  2  0
 12 13  1  0
 13 14  2  0
 14 15  1  0
 15 16  2  0
 10 17  1  0
 17 18  2  0
 18 19  1  0
 19 20  1  0
 20 21  1  0
 21 22  2  0
 21 23  1  0
 23 24  1  0
 24 25  2  0
 25 26  1  0
 26 27  2  0
 27 28  1  0
 18  3  1  0
 28 24  1  0
 16 11  1  0
M  END
>  <Binding energies>  (114) 
[-7.68]

>  <Ligand effiencies>  (114) 
[-0.26482758620689656]

>  <Interactions>  (114) 
["V-A:ASP:366:CG:3212, V-B:GLU:543:CD:9879, V-B:PRO:540:N:9855, H-A:TYR:484:OH:4347, V-B:PRO:540:CA:9854, V-B:ALA:541:CA:9861, V-B:TYR:539:C:9838, V-B:TYR:539:CD2:9845, V-B:TYR:539:CE2:9847, V-A:GLY:454:CA:4048, V-B:TYR:539:CG:9843, V-B:MET:535:CE:9806, V-B:TYR:539:CZ:9848, V-B:GLU:543:CG:9878, V-B:ALA:541:C:9859, V-B:PRO:540:CB:9856, H-A:GLY:454:N:4049, V-B:TYR:539:CA:9840, V-A:GLY:453:C:4041, V-A:ARG:545:CD:4922, V-B:TYR:539:CD1:9844, V-B:TYR:531:CZ:9765, V-B:PRO:540:CD:9858, V-B:TYR:531:CE2:9764, V-B:LEU:363:CD1:8159, V-A:ARG:545:CZ:4925, V-B:ILE:538:CD1:9836, V-A:ARG:545:CG:4921, V-A:HIS:456:CE1:4069, V-B:ILE:538:CG2:9834, H-A:ASP:366:OD2:3214, H-A:ARG:545:NH1:4926, H-A:ARG:545:NH2:4927, V-B:ILE:538:CA:9831, V-A:GLY:453:CA:4043, V-B:TYR:539:CE1:9846, V-B:ILE:538:C:9829, V-B:ILE:538:CB:9833, H-A:ARG:545:NE:4923, H-A:ASP:366:OD1:3213, V-B:MET:535:CG:9804"]

$$$$
3ak_Grossjean_2025
     RDKit          3D

 33 34  0  0  0  0  0  0  0  0999 V2000
  127.7290  122.3940   56.6950 C   0  0  0  0  0  0  0  0  0  0  0  0
  126.4940  121.6950   56.6650 O   0  0  0  0  0  0  0  0  0  0  0  0
  125.5080  122.3250   55.8600 C   0  0  0  0  0  0  0  0  0  0  0  0
  124.6760  123.2700   56.7370 C   0  0  0  0  0  0  0  0  0  0  0  0
  125.5490  124.1950   57.3770 O   0  0  0  0  0  0  0  0  0  0  0  0
  125.0010  124.8810   58.5000 C   0  0  0  0  0  0  0  0  0  0  0  0
  124.4330  123.9430   59.5820 C   0  0  0  0  0  0  0  0  0  0  0  0
  125.4970  123.4660   60.3930 O   0  0  0  0  0  0  0  0  0  0  0  0
  126.7760  123.5560   59.7780 C   0  0  0  0  0  0  0  0  0  0  0  0
  127.6720  124.5360   60.5580 C   0  0  0  0  0  0  0  0  0  0  0  0
  127.7180  124.2690   61.9970 N   0  0  0  0  0  0  0  0  0  0  0  0
  128.0320  123.0920   62.5730 C   0  0  0  0  0  0  0  0  0  0  0  0
  128.3390  122.0930   61.9220 O   0  0  0  0  0  0  0  0  0  0  0  0
  128.0070  122.9890   64.1070 C   0  0  0  0  0  0  0  0  0  0  0  0
  129.5330  122.3740   64.9100 S   0  0  0  0  0  0  0  0  0  0  0  0
  130.8470  122.3470   63.7000 C   0  0  0  0  0  0  0  0  0  0  0  0
  130.9060  121.2380   62.9230 N   0  0  0  0  0  0  0  0  0  0  0  0
  131.8730  121.1220   61.9790 C   0  0  0  0  0  0  0  0  0  0  0  0
  131.8640  119.8620   61.1640 C   0  0  0  0  0  0  0  0  0  0  0  0
  130.7910  118.9610   61.2490 C   0  0  0  0  0  0  0  0  0  0  0  0
  130.7750  117.7920   60.4930 C   0  0  0  0  0  0  0  0  0  0  0  0
  131.8340  117.5090   59.6370 C   0  0  0  0  0  0  0  0  0  0  0  0
  132.9080  118.3860   59.5320 C   0  0  0  0  0  0  0  0  0  0  0  0
  132.9210  119.5540   60.2890 C   0  0  0  0  0  0  0  0  0  0  0  0
  132.8080  122.1430   61.7810 C   0  0  0  0  0  0  0  0  0  0  0  0
  132.7690  123.3020   62.5690 C   0  0  0  0  0  0  0  0  0  0  0  0
  133.8170  124.4050   62.3230 C   0  0  0  0  0  0  0  0  0  0  0  0
  133.3420  125.5840   62.7240 F   0  0  0  0  0  0  0  0  0  0  0  0
  134.9330  124.1350   63.0020 F   0  0  0  0  0  0  0  0  0  0  0  0
  134.1520  124.5240   61.0360 F   0  0  0  0  0  0  0  0  0  0  0  0
  131.7630  123.4120   63.5590 C   0  0  0  0  0  0  0  0  0  0  0  0
  131.6740  124.6010   64.4140 C   0  0  0  0  0  0  0  0  0  0  0  0
  131.6030  125.5390   65.0890 N   0  0  0  0  0  0  0  0  0  0  0  0
  1  2  1  0
  2  3  1  0
  3  4  1  0
  4  5  1  0
  5  6  1  0
  6  7  1  0
  7  8  1  0
  8  9  1  0
  9 10  1  0
 10 11  1  0
 11 12  1  0
 12 13  2  0
 12 14  1  0
 14 15  1  0
 15 16  1  0
 16 17  2  0
 17 18  1  0
 18 19  1  0
 19 20  2  0
 20 21  1  0
 21 22  2  0
 22 23  1  0
 23 24  2  0
 18 25  2  0
 25 26  1  0
 26 27  1  0
 27 28  1  0
 27 29  1  0
 27 30  1  0
 26 31  2  0
 31 32  1  0
 32 33  3  0
 31 16  1  0
 24 19  1  0
M  END
>  <Binding energies>  (115) 
[-6.98]

>  <Ligand effiencies>  (115) 
[-0.20529411764705885]

>  <Interactions>  (115) 
["V-A:ASP:366:CG:3212, V-A:ASP:366:CB:3211, V-B:GLU:543:CD:9879, V-B:PRO:540:N:9855, H-B:ALA:541:N:9862, H-A:TYR:484:OH:4347, V-B:ALA:541:CB:9863, V-B:PRO:540:CA:9854, H-B:GLU:543:OE2:9881, V-B:ALA:541:CA:9861, H-B:GLU:543:OE1:9880, V-B:TYR:539:C:9838, V-A:LEU:475:CD2:4258, V-A:HIS:383:CE1:3393, V-A:ILE:369:CD1:3238, V-B:TYR:539:CD2:9845, V-A:ILE:369:CG2:3236, V-B:TYR:539:CE2:9847, V-B:TYR:539:CB:9842, V-A:SER:385:CA:3406, V-A:GLY:454:CA:4048, H-B:TYR:539:N:9841, V-B:TYR:539:CG:9843, V-B:MET:535:CE:9806, V-B:TYR:539:CZ:9848, V-B:GLU:543:CG:9878, V-B:ALA:541:C:9859, V-B:PRO:540:CB:9856, V-B:TYR:539:CA:9840, V-A:GLY:453:C:4041, V-B:TYR:539:CD1:9844, V-B:TYR:531:CZ:9765, V-B:PRO:540:CD:9858, V-B:TYR:531:CE2:9764, V-B:LEU:363:CD1:8159, V-A:ARG:545:CZ:4925, V-B:ILE:538:CD1:9836, V-B:ILE:538:CG2:9834, V-B:ILE:538:CA:9831, V-A:GLY:453:CA:4043, V-B:TYR:539:CE1:9846, V-A:LEU:373:CD2:3280, H-B:TYR:531:OH:9766, V-A:ASP:366:CA:3209"]

$$$$
3bk_Grossjean_2025
     RDKit          3D

 30 31  0  0  0  0  0  0  0  0999 V2000
  126.3940  122.3730   55.1240 C   0  0  0  0  0  0  0  0  0  0  0  0
  125.7010  123.3260   55.9160 O   0  0  0  0  0  0  0  0  0  0  0  0
  125.0980  122.7670   57.0750 C   0  0  0  0  0  0  0  0  0  0  0  0
  124.5670  123.8920   57.9730 C   0  0  0  0  0  0  0  0  0  0  0  0
  125.1020  123.7440   59.2810 O   0  0  0  0  0  0  0  0  0  0  0  0
  125.7860  124.8960   59.7560 C   0  0  0  0  0  0  0  0  0  0  0  0
  127.0260  125.1430   58.8870 C   0  0  0  0  0  0  0  0  0  0  0  0
  128.1730  124.6140   59.5400 O   0  0  0  0  0  0  0  0  0  0  0  0
  128.6030  123.3610   59.0220 C   0  0  0  0  0  0  0  0  0  0  0  0
  128.5020  122.2930   60.1200 C   0  0  0  0  0  0  0  0  0  0  0  0
  128.8050  122.8290   61.4490 N   0  0  0  0  0  0  0  0  0  0  0  0
  127.8970  123.1990   62.3670 C   0  0  0  0  0  0  0  0  0  0  0  0
  126.6790  123.1100   62.1990 O   0  0  0  0  0  0  0  0  0  0  0  0
  128.4450  123.7300   63.6930 C   0  0  0  0  0  0  0  0  0  0  0  0
  129.6070  122.5610   64.4670 S   0  0  0  0  0  0  0  0  0  0  0  0
  131.0690  122.4360   63.4510 C   0  0  0  0  0  0  0  0  0  0  0  0
  131.1310  121.3560   62.6320 N   0  0  0  0  0  0  0  0  0  0  0  0
  132.2090  121.1760   61.8230 C   0  0  0  0  0  0  0  0  0  0  0  0
  132.1880  119.9690   60.9350 C   0  0  0  0  0  0  0  0  0  0  0  0
  131.1570  119.0220   61.0360 C   0  0  0  0  0  0  0  0  0  0  0  0
  131.1350  117.8950   60.2170 C   0  0  0  0  0  0  0  0  0  0  0  0
  132.1470  117.7010   59.2830 C   0  0  0  0  0  0  0  0  0  0  0  0
  133.1780  118.6270   59.1600 C   0  0  0  0  0  0  0  0  0  0  0  0
  133.1950  119.7520   59.9790 C   0  0  0  0  0  0  0  0  0  0  0  0
  133.2620  122.0980   61.8170 C   0  0  0  0  0  0  0  0  0  0  0  0
  133.2150  123.2170   62.6560 C   0  0  0  0  0  0  0  0  0  0  0  0
  134.3860  124.1980   62.6180 C   0  0  0  0  0  0  0  0  0  0  0  0
  132.0980  123.4020   63.4970 C   0  0  0  0  0  0  0  0  0  0  0  0
  132.0200  124.5650   64.3850 C   0  0  0  0  0  0  0  0  0  0  0  0
  131.9590  125.4840   65.0870 N   0  0  0  0  0  0  0  0  0  0  0  0
  1  2  1  0
  2  3  1  0
  3  4  1  0
  4  5  1  0
  5  6  1  0
  6  7  1  0
  7  8  1  0
  8  9  1  0
  9 10  1  0
 10 11  1  0
 11 12  1  0
 12 13  2  0
 12 14  1  0
 14 15  1  0
 15 16  1  0
 16 17  2  0
 17 18  1  0
 18 19  1  0
 19 20  2  0
 20 21  1  0
 21 22  2  0
 22 23  1  0
 23 24  2  0
 18 25  2  0
 25 26  1  0
 26 27  1  0
 26 28  2  0
 28 29  1  0
 29 30  3  0
 28 16  1  0
 24 19  1  0
M  END
>  <Binding energies>  (116) 
[-7.54]

>  <Ligand effiencies>  (116) 
[-0.2432258064516129]

>  <Interactions>  (116) 
["V-A:ASP:366:CG:3212, V-B:GLU:543:CD:9879, V-B:PRO:540:N:9855, H-B:ALA:541:N:9862, H-A:TYR:484:OH:4347, V-B:PRO:540:CA:9854, V-B:TYR:539:C:9838, V-A:LEU:475:CD2:4258, V-A:HIS:383:CE1:3393, V-A:ILE:369:CD1:3238, V-B:TYR:539:CD2:9845, V-A:ILE:369:CG2:3236, V-B:TYR:539:CE2:9847, V-B:TYR:539:CB:9842, V-A:SER:385:CA:3406, V-A:GLY:454:CA:4048, V-A:LEU:373:CD1:3279, V-B:TYR:539:CG:9843, V-B:MET:535:CE:9806, V-B:GLU:543:CG:9878, V-B:PRO:540:CB:9856, V-A:GLY:453:C:4041, V-B:PRO:540:CD:9858, V-B:LEU:363:CD1:8159, V-B:ILE:538:CD1:9836, V-B:ILE:538:CA:9831, V-A:GLY:453:CA:4043, V-B:ILE:538:C:9829, V-A:LEU:373:CG:3278, V-A:LEU:373:CD2:3280, H-B:TYR:531:OH:9766, V-B:MET:535:CG:9804, V-B:PRO:540:CG:9857"]

$$$$
3cb_Grossjean_2025
     RDKit          3D

 30 32  0  0  0  0  0  0  0  0999 V2000
  126.1230  122.2480   54.9190 C   0  0  0  0  0  0  0  0  0  0  0  0
  126.7580  122.2350   56.1890 O   0  0  0  0  0  0  0  0  0  0  0  0
  126.6360  123.2840   57.0430 C   0  0  0  0  0  0  0  0  0  0  0  0
  125.6020  123.9470   57.1630 O   0  0  0  0  0  0  0  0  0  0  0  0
  127.8880  123.5590   57.8270 C   0  0  0  0  0  0  0  0  0  0  0  0
  128.2490  122.7920   58.9450 C   0  0  0  0  0  0  0  0  0  0  0  0
  129.4170  123.0730   59.6480 C   0  0  0  0  0  0  0  0  0  0  0  0
  130.2450  124.1250   59.2550 C   0  0  0  0  0  0  0  0  0  0  0  0
  131.4030  124.3170   60.0350 N   0  0  0  0  0  0  0  0  0  0  0  0
  132.7050  124.3000   59.6760 C   0  0  0  0  0  0  0  0  0  0  0  0
  133.1180  124.1200   58.5290 O   0  0  0  0  0  0  0  0  0  0  0  0
  133.6880  124.5490   60.8300 C   0  0  0  0  0  0  0  0  0  0  0  0
  133.0120  124.2340   62.4970 S   0  0  0  0  0  0  0  0  0  0  0  0
  131.7440  122.9930   62.3450 C   0  0  0  0  0  0  0  0  0  0  0  0
  130.5360  123.3960   62.8090 N   0  0  0  0  0  0  0  0  0  0  0  0
  129.4970  122.5360   62.7440 C   0  0  0  0  0  0  0  0  0  0  0  0
  128.1730  123.0590   63.2700 C   0  0  0  0  0  0  0  0  0  0  0  0
  129.6190  121.2500   62.2250 C   0  0  0  0  0  0  0  0  0  0  0  0
  130.8610  120.8050   61.7550 C   0  0  0  0  0  0  0  0  0  0  0  0
  130.9420  119.4140   61.2130 C   0  0  0  0  0  0  0  0  0  0  0  0
  130.0020  118.4520   61.6010 C   0  0  0  0  0  0  0  0  0  0  0  0
  130.0620  117.1560   61.0930 C   0  0  0  0  0  0  0  0  0  0  0  0
  131.0650  116.8180   60.1880 C   0  0  0  0  0  0  0  0  0  0  0  0
  132.0030  117.7640   59.7850 C   0  0  0  0  0  0  0  0  0  0  0  0
  131.9390  119.0590   60.2930 C   0  0  0  0  0  0  0  0  0  0  0  0
  131.9660  121.6920   61.8280 C   0  0  0  0  0  0  0  0  0  0  0  0
  133.3080  121.2490   61.4370 C   0  0  0  0  0  0  0  0  0  0  0  0
  134.3670  120.9000   61.1290 N   0  0  0  0  0  0  0  0  0  0  0  0
  129.8940  124.8940   58.1350 C   0  0  0  0  0  0  0  0  0  0  0  0
  128.7250  124.6120   57.4320 C   0  0  0  0  0  0  0  0  0  0  0  0
  1  2  1  0
  2  3  1  0
  3  4  2  0
  3  5  1  0
  5  6  2  0
  6  7  1  0
  7  8  2  0
  8  9  1  0
  9 10  1  0
 10 11  2  0
 10 12  1  0
 12 13  1  0
 13 14  1  0
 14 15  2  0
 15 16  1  0
 16 17  1  0
 16 18  2  0
 18 19  1  0
 19 20  1  0
 20 21  2  0
 21 22  1  0
 22 23  2  0
 23 24  1  0
 24 25  2  0
 19 26  2  0
 26 27  1  0
 27 28  3  0
  8 29  1  0
 29 30  2  0
 30  5  1  0
 26 14  1  0
 25 20  1  0
M  END
>  <Binding energies>  (117) 
[-8.83]

>  <Ligand effiencies>  (117) 
[-0.28483870967741937]

>  <Interactions>  (117) 
["V-A:ASP:366:CG:3212, V-A:ASP:366:CB:3211, V-B:GLU:543:CD:9879, V-B:PRO:540:N:9855, V-B:ALA:541:CB:9863, V-B:PRO:540:CA:9854, V-B:ALA:541:CA:9861, V-B:TYR:539:C:9838, V-A:LEU:475:CD2:4258, V-A:PRO:482:CG:4326, V-A:HIS:383:CE1:3393, V-A:ILE:369:CD1:3238, V-B:TYR:539:CD2:9845, V-A:ILE:369:CG2:3236, V-B:TYR:539:CE2:9847, V-B:TYR:539:CB:9842, H-B:TYR:539:N:9841, V-B:VAL:344:CG1:7971, V-B:TYR:539:CG:9843, V-B:MET:535:CE:9806, H-B:TYR:539:OH:9849, V-B:TYR:539:CZ:9848, V-A:PRO:482:CB:4325, V-B:TYR:531:CE2:9764, V-B:ILE:538:CD1:9836, V-B:ILE:538:CG2:9834, H-A:ASP:366:OD2:3214, V-B:ILE:538:CA:9831, V-B:ILE:538:C:9829, V-B:ILE:538:CB:9833, H-B:TYR:531:OH:9766, V-B:MET:535:CG:9804"]

$$$$
3ch_Grossjean_2025
     RDKit          3D

 32 34  0  0  0  0  0  0  0  0999 V2000
  131.2430  127.5880   68.2370 C   0  0  0  0  0  0  0  0  0  0  0  0
  132.2850  126.9270   67.5270 O   0  0  0  0  0  0  0  0  0  0  0  0
  132.0490  126.4620   66.2460 C   0  0  0  0  0  0  0  0  0  0  0  0
  130.7940  126.4940   65.6170 C   0  0  0  0  0  0  0  0  0  0  0  0
  130.6320  126.0130   64.3100 C   0  0  0  0  0  0  0  0  0  0  0  0
  129.4180  126.0080   63.5970 N   0  0  0  0  0  0  0  0  0  0  0  0
  129.2010  125.9990   62.2630 C   0  0  0  0  0  0  0  0  0  0  0  0
  130.0750  125.9790   61.3970 O   0  0  0  0  0  0  0  0  0  0  0  0
  127.7340  125.9690   61.8350 C   0  0  0  0  0  0  0  0  0  0  0  0
  127.0160  124.3040   61.9600 S   0  0  0  0  0  0  0  0  0  0  0  0
  128.3140  123.2510   62.5720 C   0  0  0  0  0  0  0  0  0  0  0  0
  128.4320  123.2530   63.9220 N   0  0  0  0  0  0  0  0  0  0  0  0
  129.3950  122.4900   64.4870 C   0  0  0  0  0  0  0  0  0  0  0  0
  129.4760  122.5430   66.0010 C   0  0  0  0  0  0  0  0  0  0  0  0
  130.2680  121.7060   63.7380 C   0  0  0  0  0  0  0  0  0  0  0  0
  130.1570  121.6850   62.3400 C   0  0  0  0  0  0  0  0  0  0  0  0
  131.1220  120.8370   61.5760 C   0  0  0  0  0  0  0  0  0  0  0  0
  130.8000  119.5110   61.2650 C   0  0  0  0  0  0  0  0  0  0  0  0
  131.6970  118.7120   60.5610 C   0  0  0  0  0  0  0  0  0  0  0  0
  132.9260  119.2380   60.1680 C   0  0  0  0  0  0  0  0  0  0  0  0
  133.2650  120.5520   60.4760 C   0  0  0  0  0  0  0  0  0  0  0  0
  132.3650  121.3480   61.1810 C   0  0  0  0  0  0  0  0  0  0  0  0
  129.1390  122.4650   61.7340 C   0  0  0  0  0  0  0  0  0  0  0  0
  128.9160  122.4080   60.2860 C   0  0  0  0  0  0  0  0  0  0  0  0
  128.7400  122.3650   59.1430 N   0  0  0  0  0  0  0  0  0  0  0  0
  131.7350  125.4800   63.6400 C   0  0  0  0  0  0  0  0  0  0  0  0
  132.9990  125.4350   64.2480 C   0  0  0  0  0  0  0  0  0  0  0  0
  134.1330  124.9270   63.6370 O   0  0  0  0  0  0  0  0  0  0  0  0
  134.0180  124.2830   62.3730 C   0  0  0  0  0  0  0  0  0  0  0  0
  133.1420  125.9270   65.5520 C   0  0  0  0  0  0  0  0  0  0  0  0
  134.3790  125.9050   66.1520 O   0  0  0  0  0  0  0  0  0  0  0  0
  134.3770  125.3590   67.4640 C   0  0  0  0  0  0  0  0  0  0  0  0
  1  2  1  0
  2  3  1  0
  3  4  2  0
  4  5  1  0
  5  6  1  0
  6  7  1  0
  7  8  2  0
  7  9  1  0
  9 10  1  0
 10 11  1  0
 11 12  2  0
 12 13  1  0
 13 14  1  0
 13 15  2  0
 15 16  1  0
 16 17  1  0
 17 18  2  0
 18 19  1  0
 19 20  2  0
 20 21  1  0
 21 22  2  0
 16 23  2  0
 23 24  1  0
 24 25  3  0
  5 26  2  0
 26 27  1  0
 27 28  1  0
 28 29  1  0
 27 30  2  0
 30 31  1  0
 31 32  1  0
 30  3  1  0
 23 11  1  0
 22 17  1  0
M  END
>  <Binding energies>  (118) 
[-7.96]

>  <Ligand effiencies>  (118) 
[-0.2412121212121212]

>  <Interactions>  (118) 
["V-A:ASP:366:CG:3212, V-B:GLU:543:CD:9879, H-A:TYR:484:OH:4347, V-B:ALA:541:CB:9863, V-B:PRO:540:CA:9854, H-B:GLU:543:OE2:9881, H-B:GLU:543:OE1:9880, V-B:TYR:539:C:9838, V-A:LEU:475:CD2:4258, V-A:ILE:369:CD1:3238, V-B:TYR:539:CD2:9845, V-A:ILE:369:CG2:3236, V-B:TYR:539:CE2:9847, V-A:SER:385:CA:3406, V-A:GLY:454:CA:4048, V-B:GLU:543:CG:9878, V-A:LEU:475:CD1:4257, H-A:GLY:454:N:4049, V-A:ARG:545:CD:4922, V-A:ARG:545:CZ:4925, V-A:ARG:545:CG:4921, V-A:HIS:456:CE1:4069, V-A:GLU:543:CD:4907, V-A:GLU:543:CB:4905, H-A:ARG:545:NH1:4926, H-A:ARG:545:NE:4923, V-A:TYR:484:CZ:4346, V-A:TYR:484:CE2:4345, V-A:ILE:455:C:4051, V-A:GLY:454:C:4046"]

$$$$
3ci_Grossjean_2025
     RDKit          3D

 25 27  0  0  0  0  0  0  0  0999 V2000
  129.4790  121.5390   62.1720 C   0  0  0  0  0  0  0  0  0  0  0  0
  129.4430  122.4190   60.9370 C   0  0  0  0  0  0  0  0  0  0  0  0
  128.3840  122.3700   60.0350 C   0  0  0  0  0  0  0  0  0  0  0  0
  128.3880  123.2150   58.9160 C   0  0  0  0  0  0  0  0  0  0  0  0
  127.2240  123.1390   57.9840 C   0  0  0  0  0  0  0  0  0  0  0  0
  125.9930  123.7130   58.3260 C   0  0  0  0  0  0  0  0  0  0  0  0
  124.9080  123.6320   57.4560 C   0  0  0  0  0  0  0  0  0  0  0  0
  125.0490  122.9690   56.2410 C   0  0  0  0  0  0  0  0  0  0  0  0
  126.2630  122.3840   55.8890 C   0  0  0  0  0  0  0  0  0  0  0  0
  127.3450  122.4680   56.7610 C   0  0  0  0  0  0  0  0  0  0  0  0
  129.4890  124.0910   58.7370 C   0  0  0  0  0  0  0  0  0  0  0  0
  129.5690  124.9670   57.5630 C   0  0  0  0  0  0  0  0  0  0  0  0
  129.6300  125.6580   56.6370 N   0  0  0  0  0  0  0  0  0  0  0  0
  130.5220  124.0800   59.7060 C   0  0  0  0  0  0  0  0  0  0  0  0
  131.9450  125.1570   59.5910 S   0  0  0  0  0  0  0  0  0  0  0  0
  133.4390  124.2470   60.1030 C   0  0  0  0  0  0  0  0  0  0  0  0
  133.6080  124.1640   61.6250 C   0  0  0  0  0  0  0  0  0  0  0  0
  134.0780  123.1390   62.1230 O   0  0  0  0  0  0  0  0  0  0  0  0
  133.2020  125.2490   62.3210 N   0  0  0  0  0  0  0  0  0  0  0  0
  133.2700  125.4420   63.6940 C   0  0  0  0  0  0  0  0  0  0  0  0
  132.1520  125.7180   64.4790 C   0  0  0  0  0  0  0  0  0  0  0  0
  132.6370  125.8400   65.7620 C   0  0  0  0  0  0  0  0  0  0  0  0
  133.9780  125.6470   65.7480 O   0  0  0  0  0  0  0  0  0  0  0  0
  134.3670  125.3960   64.4310 N   0  0  0  0  0  0  0  0  0  0  0  0
  130.4960  123.2510   60.7800 N   0  0  0  0  0  0  0  0  0  0  0  0
  1  2  1  0
  2  3  2  0
  3  4  1  0
  4  5  1  0
  5  6  2  0
  6  7  1  0
  7  8  2  0
  8  9  1  0
  9 10  2  0
  4 11  2  0
 11 12  1  0
 12 13  3  0
 11 14  1  0
 14 15  1  0
 15 16  1  0
 16 17  1  0
 17 18  2  0
 17 19  1  0
 19 20  1  0
 20 21  1  0
 21 22  2  0
 22 23  1  0
 23 24  1  0
 14 25  2  0
 25  2  1  0
 10  5  1  0
 24 20  2  0
M  END
>  <Binding energies>  (119) 
[-8.54]

>  <Ligand effiencies>  (119) 
[-0.3284615384615384]

>  <Interactions>  (119) 
["V-A:ASP:366:CG:3212, V-A:ASP:366:CB:3211, V-B:PRO:540:N:9855, H-A:TYR:484:OH:4347, V-B:ALA:541:CB:9863, V-B:PRO:540:CA:9854, V-B:ALA:541:CA:9861, V-B:TYR:539:C:9838, V-A:ILE:369:CD1:3238, V-B:TYR:539:CD2:9845, V-A:ILE:369:CG2:3236, V-B:TYR:539:CE2:9847, V-B:TYR:539:CG:9843, V-B:MET:535:CE:9806, H-B:TYR:539:OH:9849, V-B:TYR:539:CZ:9848, V-B:PRO:540:CB:9856, H-A:GLY:454:N:4049, V-B:TYR:539:CA:9840, V-B:TYR:539:CD1:9844, V-B:TYR:531:CZ:9765, V-B:TYR:531:CE2:9764, V-B:LEU:363:CD1:8159, V-A:ARG:545:CZ:4925, H-A:ASP:366:OD2:3214, H-A:ARG:545:NH1:4926, H-A:ARG:545:NH2:4927, V-B:ILE:538:CA:9831, H-A:ARG:545:NE:4923, H-A:ASP:366:OD1:3213, V-B:MET:535:CG:9804, V-A:ILE:369:CB:3235"]

$$$$
3ck_Grossjean_2025
     RDKit          3D

 30 31  0  0  0  0  0  0  0  0999 V2000
  125.5530  122.3290   55.7580 C   0  0  0  0  0  0  0  0  0  0  0  0
  126.8680  122.0030   56.1800 O   0  0  0  0  0  0  0  0  0  0  0  0
  127.1530  122.4090   57.5110 C   0  0  0  0  0  0  0  0  0  0  0  0
  128.2830  123.4460   57.5000 C   0  0  0  0  0  0  0  0  0  0  0  0
  129.0780  123.2870   58.6680 O   0  0  0  0  0  0  0  0  0  0  0  0
  129.9130  124.4020   58.9550 C   0  0  0  0  0  0  0  0  0  0  0  0
  130.9610  123.9890   59.9950 C   0  0  0  0  0  0  0  0  0  0  0  0
  132.0960  124.8280   59.8430 O   0  0  0  0  0  0  0  0  0  0  0  0
  133.3460  124.1750   60.0080 C   0  0  0  0  0  0  0  0  0  0  0  0
  133.7430  124.1900   61.4970 C   0  0  0  0  0  0  0  0  0  0  0  0
  132.7050  124.7310   62.3790 N   0  0  0  0  0  0  0  0  0  0  0  0
  132.8900  125.1510   63.6430 C   0  0  0  0  0  0  0  0  0  0  0  0
  133.9890  125.1480   64.2020 O   0  0  0  0  0  0  0  0  0  0  0  0
  131.6290  125.6500   64.3670 C   0  0  0  0  0  0  0  0  0  0  0  0
  130.5080  124.3440   64.9770 S   0  0  0  0  0  0  0  0  0  0  0  0
  130.0300  123.2970   63.6110 C   0  0  0  0  0  0  0  0  0  0  0  0
  128.8210  123.5690   63.0600 N   0  0  0  0  0  0  0  0  0  0  0  0
  128.3930  122.8130   62.0240 C   0  0  0  0  0  0  0  0  0  0  0  0
  127.0320  123.1740   61.4620 C   0  0  0  0  0  0  0  0  0  0  0  0
  129.1450  121.7640   61.4990 C   0  0  0  0  0  0  0  0  0  0  0  0
  130.3940  121.4620   62.0570 C   0  0  0  0  0  0  0  0  0  0  0  0
  131.1550  120.3140   61.4770 C   0  0  0  0  0  0  0  0  0  0  0  0
  132.3990  120.5290   60.8730 C   0  0  0  0  0  0  0  0  0  0  0  0
  133.1100  119.4640   60.3210 C   0  0  0  0  0  0  0  0  0  0  0  0
  132.5740  118.1810   60.3680 C   0  0  0  0  0  0  0  0  0  0  0  0
  131.3330  117.9520   60.9580 C   0  0  0  0  0  0  0  0  0  0  0  0
  130.6260  119.0180   61.5080 C   0  0  0  0  0  0  0  0  0  0  0  0
  130.8610  122.2550   63.1360 C   0  0  0  0  0  0  0  0  0  0  0  0
  132.1790  122.0110   63.7320 C   0  0  0  0  0  0  0  0  0  0  0  0
  133.2190  121.8180   64.2010 N   0  0  0  0  0  0  0  0  0  0  0  0
  1  2  1  0
  2  3  1  0
  3  4  1  0
  4  5  1  0
  5  6  1  0
  6  7  1  0
  7  8  1  0
  8  9  1  0
  9 10  1  0
 10 11  1  0
 11 12  1  0
 12 13  2  0
 12 14  1  0
 14 15  1  0
 15 16  1  0
 16 17  2  0
 17 18  1  0
 18 19  1  0
 18 20  2  0
 20 21  1  0
 21 22  1  0
 22 23  2  0
 23 24  1  0
 24 25  2  0
 25 26  1  0
 26 27  2  0
 21 28  2  0
 28 29  1  0
 29 30  3  0
 28 16  1  0
 27 22  1  0
M  END
>  <Binding energies>  (120) 
[-7.47]

>  <Ligand effiencies>  (120) 
[-0.24096774193548387]

>  <Interactions>  (120) 
["V-A:ASP:366:CG:3212, V-A:ASP:366:CB:3211, V-B:PRO:540:N:9855, H-A:TYR:484:OH:4347, V-B:ALA:541:CB:9863, V-B:PRO:540:CA:9854, V-B:PRO:540:C:9852, V-B:TYR:539:C:9838, V-A:LEU:475:CD2:4258, V-A:ILE:369:CD1:3238, V-B:TYR:539:CD2:9845, V-A:ILE:369:CG2:3236, V-B:TYR:539:CE2:9847, V-A:SER:385:CA:3406, V-A:SER:385:CB:3408, V-A:GLY:454:CA:4048, H-B:TYR:539:N:9841, V-B:MET:535:CE:9806, V-B:TYR:539:CZ:9848, H-A:GLY:454:N:4049, V-B:TYR:539:CA:9840, V-B:PRO:540:CD:9858, V-B:TYR:531:CE2:9764, V-B:LEU:363:CD1:8159, V-B:ILE:538:CD1:9836, V-B:ILE:538:CG2:9834, H-A:ASP:366:OD2:3214, H-A:ARG:545:NH1:4926, H-A:ARG:545:NH2:4927, V-B:ILE:538:CA:9831, V-A:ILE:369:CB:3235"]

$$$$
4aa_Grossjean_2025
     RDKit          3D

 26 28  0  0  0  0  0  0  0  0999 V2000
  124.2490  124.3330   57.7670 C   0  0  0  0  0  0  0  0  0  0  0  0
  124.7490  122.9710   57.2760 C   0  0  0  0  0  0  0  0  0  0  0  0
  125.7170  123.1650   56.2530 O   0  0  0  0  0  0  0  0  0  0  0  0
  126.9560  122.6170   56.3470 C   0  0  0  0  0  0  0  0  0  0  0  0
  127.3760  121.7460   55.5770 O   0  0  0  0  0  0  0  0  0  0  0  0
  127.7660  123.1710   57.4830 C   0  0  0  0  0  0  0  0  0  0  0  0
  127.7830  122.4900   58.7070 C   0  0  0  0  0  0  0  0  0  0  0  0
  128.5190  122.9820   59.7820 C   0  0  0  0  0  0  0  0  0  0  0  0
  129.2610  124.1570   59.6520 C   0  0  0  0  0  0  0  0  0  0  0  0
  129.9610  124.5680   60.8020 N   0  0  0  0  0  0  0  0  0  0  0  0
  130.2430  125.8130   61.2560 C   0  0  0  0  0  0  0  0  0  0  0  0
  129.9410  126.8500   60.6630 O   0  0  0  0  0  0  0  0  0  0  0  0
  130.9740  125.8660   62.5230 C   0  0  0  0  0  0  0  0  0  0  0  0
  132.6400  125.2890   62.6150 S   0  0  0  0  0  0  0  0  0  0  0  0
  132.7160  125.6400   64.3260 C   0  0  0  0  0  0  0  0  0  0  0  0
  133.8150  125.4050   65.0460 N   0  0  0  0  0  0  0  0  0  0  0  0
  133.7400  125.7180   66.3630 C   0  0  0  0  0  0  0  0  0  0  0  0
  134.9990  125.4390   67.1650 C   0  0  0  0  0  0  0  0  0  0  0  0
  132.6080  126.2570   66.9690 C   0  0  0  0  0  0  0  0  0  0  0  0
  131.4580  126.5020   66.2110 C   0  0  0  0  0  0  0  0  0  0  0  0
  130.2460  127.0910   66.9180 C   0  0  0  0  0  0  0  0  0  0  0  0
  131.4950  126.1830   64.8270 C   0  0  0  0  0  0  0  0  0  0  0  0
  130.5170  126.2980   63.7780 C   0  0  0  0  0  0  0  0  0  0  0  0
  129.2570  126.7910   64.0050 N   0  0  0  0  0  0  0  0  0  0  0  0
  129.2460  124.8490   58.4320 C   0  0  0  0  0  0  0  0  0  0  0  0
  128.5050  124.3580   57.3600 C   0  0  0  0  0  0  0  0  0  0  0  0
  1  2  1  0
  2  3  1  0
  3  4  1  0
  4  5  2  0
  4  6  1  0
  6  7  2  0
  7  8  1  0
  8  9  2  0
  9 10  1  0
 10 11  1  0
 11 12  2  0
 11 13  1  0
 13 14  1  0
 14 15  1  0
 15 16  2  0
 16 17  1  0
 17 18  1  0
 17 19  2  0
 19 20  1  0
 20 21  1  0
 20 22  2  0
 22 23  1  0
 23 24  1  0
  9 25  1  0
 25 26  2  0
 26  6  1  0
 23 13  2  0
 22 15  1  0
M  END
>  <Binding energies>  (121) 
[-8.14]

>  <Ligand effiencies>  (121) 
[-0.2806896551724138]

>  <Interactions>  (121) 
["V-A:ASP:366:CG:3212, V-B:GLU:543:CD:9879, V-B:PRO:540:N:9855, H-A:TYR:484:OH:4347, V-B:PRO:540:CA:9854, H-B:GLU:543:OE2:9881, H-B:GLU:543:OE1:9880, V-B:TYR:539:C:9838, V-B:TYR:539:CD2:9845, V-B:TYR:539:CE2:9847, V-A:GLY:454:CA:4048, H-B:TYR:539:N:9841, V-B:MET:535:CE:9806, V-B:TYR:539:CZ:9848, V-B:PRO:540:CB:9856, H-A:GLY:454:N:4049, V-A:GLY:453:C:4041, V-A:ARG:545:CD:4922, V-B:TYR:531:CZ:9765, V-B:PRO:540:CD:9858, V-B:TYR:531:CE2:9764, V-B:LEU:363:CD1:8159, V-A:ARG:545:CZ:4925, V-A:ARG:545:CG:4921, V-A:HIS:456:CE1:4069, V-A:GLU:543:CD:4907, H-A:ARG:545:NH2:4927, V-A:GLY:453:CA:4043, H-A:ARG:545:NE:4923, H-B:TYR:531:OH:9766, V-B:PRO:540:CG:9857, V-A:ILE:455:C:4051, V-A:GLY:454:C:4046"]

$$$$
4ab_Grossjean_2025
     RDKit          3D

 25 27  0  0  0  0  0  0  0  0999 V2000
  124.6670  123.4900   57.3450 C   0  0  0  0  0  0  0  0  0  0  0  0
  125.6910  123.5520   56.3620 O   0  0  0  0  0  0  0  0  0  0  0  0
  126.8450  122.8530   56.5100 C   0  0  0  0  0  0  0  0  0  0  0  0
  127.2320  121.9990   55.7050 O   0  0  0  0  0  0  0  0  0  0  0  0
  127.6030  123.2170   57.7540 C   0  0  0  0  0  0  0  0  0  0  0  0
  128.7130  124.0660   57.6540 C   0  0  0  0  0  0  0  0  0  0  0  0
  129.4380  124.4200   58.7890 C   0  0  0  0  0  0  0  0  0  0  0  0
  129.0630  123.9430   60.0450 C   0  0  0  0  0  0  0  0  0  0  0  0
  129.8700  124.3580   61.1210 N   0  0  0  0  0  0  0  0  0  0  0  0
  130.9310  125.2020   61.1430 C   0  0  0  0  0  0  0  0  0  0  0  0
  131.4080  125.7410   60.1440 O   0  0  0  0  0  0  0  0  0  0  0  0
  131.5190  125.4300   62.4640 C   0  0  0  0  0  0  0  0  0  0  0  0
  133.2030  125.0020   62.7750 S   0  0  0  0  0  0  0  0  0  0  0  0
  133.0750  125.5140   64.4420 C   0  0  0  0  0  0  0  0  0  0  0  0
  134.1050  125.4360   65.2860 N   0  0  0  0  0  0  0  0  0  0  0  0
  133.8720  125.8630   66.5510 C   0  0  0  0  0  0  0  0  0  0  0  0
  135.0550  125.7610   67.4960 C   0  0  0  0  0  0  0  0  0  0  0  0
  132.6480  126.3640   66.9870 C   0  0  0  0  0  0  0  0  0  0  0  0
  131.5690  126.4440   66.0990 C   0  0  0  0  0  0  0  0  0  0  0  0
  130.2520  126.9970   66.6230 C   0  0  0  0  0  0  0  0  0  0  0  0
  131.7730  126.0020   64.7640 C   0  0  0  0  0  0  0  0  0  0  0  0
  130.9050  125.9370   63.6200 C   0  0  0  0  0  0  0  0  0  0  0  0
  129.5950  126.3430   63.6720 N   0  0  0  0  0  0  0  0  0  0  0  0
  127.9560  123.0880   60.1540 C   0  0  0  0  0  0  0  0  0  0  0  0
  127.2340  122.7330   59.0180 C   0  0  0  0  0  0  0  0  0  0  0  0
  1  2  1  0
  2  3  1  0
  3  4  2  0
  3  5  1  0
  5  6  2  0
  6  7  1  0
  7  8  2  0
  8  9  1  0
  9 10  1  0
 10 11  2  0
 10 12  1  0
 12 13  1  0
 13 14  1  0
 14 15  2  0
 15 16  1  0
 16 17  1  0
 16 18  2  0
 18 19  1  0
 19 20  1  0
 19 21  2  0
 21 22  1  0
 22 23  1  0
  8 24  1  0
 24 25  2  0
 25  5  1  0
 22 12  2  0
 21 14  1  0
M  END
>  <Binding energies>  (122) 
[-7.97]

>  <Ligand effiencies>  (122) 
[-0.28464285714285714]

>  <Interactions>  (122) 
["V-A:ASP:366:CG:3212, V-B:GLU:543:CD:9879, V-B:PRO:540:N:9855, H-A:TYR:484:OH:4347, V-B:PRO:540:CA:9854, H-B:GLU:543:OE2:9881, H-B:GLU:543:OE1:9880, V-B:TYR:539:C:9838, V-B:TYR:539:CE2:9847, H-B:TYR:539:N:9841, V-B:MET:535:CE:9806, V-B:TYR:539:CZ:9848, V-B:PRO:540:CB:9856, H-A:GLY:454:N:4049, V-A:GLY:453:C:4041, V-A:ARG:545:CD:4922, V-B:TYR:531:CE2:9764, V-B:LEU:363:CD1:8159, V-A:ARG:545:CZ:4925, V-A:ARG:545:CG:4921, V-A:HIS:456:CE1:4069, V-A:GLU:543:CD:4907, H-A:ARG:545:NH1:4926, V-A:GLY:453:CA:4043, H-A:ARG:545:NE:4923, H-B:TYR:531:OH:9766, V-A:ILE:455:C:4051, V-A:ARG:545:CB:4920"]

$$$$
4ac_Grossjean_2025
     RDKit          3D

 23 25  0  0  0  0  0  0  0  0999 V2000
  133.6330  126.1070   66.7230 C   0  0  0  0  0  0  0  0  0  0  0  0
  133.8830  125.3740   65.5280 O   0  0  0  0  0  0  0  0  0  0  0  0
  132.8400  125.1250   64.6580 C   0  0  0  0  0  0  0  0  0  0  0  0
  133.1520  124.4170   63.4980 C   0  0  0  0  0  0  0  0  0  0  0  0
  132.1650  124.1180   62.5630 C   0  0  0  0  0  0  0  0  0  0  0  0
  130.8460  124.5170   62.7820 C   0  0  0  0  0  0  0  0  0  0  0  0
  129.9200  124.1820   61.7760 N   0  0  0  0  0  0  0  0  0  0  0  0
  128.6260  123.7980   61.8950 C   0  0  0  0  0  0  0  0  0  0  0  0
  128.0500  123.6460   62.9740 O   0  0  0  0  0  0  0  0  0  0  0  0
  127.9240  123.5560   60.6330 C   0  0  0  0  0  0  0  0  0  0  0  0
  128.7530  122.7740   59.2870 S   0  0  0  0  0  0  0  0  0  0  0  0
  127.3240  122.8780   58.2840 C   0  0  0  0  0  0  0  0  0  0  0  0
  127.3040  122.4150   57.0330 N   0  0  0  0  0  0  0  0  0  0  0  0
  126.1340  122.5570   56.3650 C   0  0  0  0  0  0  0  0  0  0  0  0
  126.1310  122.0240   54.9440 C   0  0  0  0  0  0  0  0  0  0  0  0
  124.9960  123.1480   56.9110 C   0  0  0  0  0  0  0  0  0  0  0  0
  125.0210  123.6330   58.2240 C   0  0  0  0  0  0  0  0  0  0  0  0
  123.7540  124.2690   58.7750 C   0  0  0  0  0  0  0  0  0  0  0  0
  126.2300  123.4990   58.9570 C   0  0  0  0  0  0  0  0  0  0  0  0
  126.5990  123.8750   60.2950 C   0  0  0  0  0  0  0  0  0  0  0  0
  125.7200  124.4900   61.1510 N   0  0  0  0  0  0  0  0  0  0  0  0
  130.5260  125.2400   63.9400 C   0  0  0  0  0  0  0  0  0  0  0  0
  131.5160  125.5380   64.8730 C   0  0  0  0  0  0  0  0  0  0  0  0
  1  2  1  0
  2  3  1  0
  3  4  2  0
  4  5  1  0
  5  6  2  0
  6  7  1  0
  7  8  1  0
  8  9  2  0
  8 10  1  0
 10 11  1  0
 11 12  1  0
 12 13  2  0
 13 14  1  0
 14 15  1  0
 14 16  2  0
 16 17  1  0
 17 18  1  0
 17 19  2  0
 19 20  1  0
 20 21  1  0
  6 22  1  0
 22 23  2  0
 23  3  1  0
 20 10  2  0
 19 12  1  0
M  END
>  <Binding energies>  (123) 
[-7.4]

>  <Ligand effiencies>  (123) 
[-0.2846153846153846]

>  <Interactions>  (123) 
["V-B:PRO:540:N:9855, H-A:TYR:484:OH:4347, V-B:PRO:540:CA:9854, H-B:GLU:543:OE1:9880, V-B:TYR:539:C:9838, V-B:TYR:539:CD2:9845, V-B:TYR:539:CE2:9847, H-B:TYR:539:N:9841, V-B:MET:535:CE:9806, V-B:PRO:540:CB:9856, H-A:GLY:454:N:4049, V-A:ARG:545:CD:4922, V-B:PRO:540:CD:9858, V-B:TYR:531:CE2:9764, V-B:LEU:363:CD1:8159, V-A:ARG:545:CZ:4925, V-B:ILE:538:CD1:9836, V-A:ARG:545:CG:4921, V-B:ILE:538:CG2:9834, V-B:ILE:538:CA:9831, V-B:ILE:538:CG1:9835, V-B:ILE:538:C:9829, V-B:ILE:538:CB:9833, H-A:ARG:545:NE:4923, V-B:ASP:366:CB:8182, V-B:ASP:366:CG:8183, V-B:MET:535:CG:9804, V-B:LEU:363:CA:8155, V-B:VAL:537:C:9821, H-B:ASP:366:OD1:8184"]

$$$$
4ad_Grossjean_2025
     RDKit          3D

 21 23  0  0  0  0  0  0  0  0999 V2000
  126.2300  122.0060   54.7480 C   0  0  0  0  0  0  0  0  0  0  0  0
  126.0980  122.5220   56.1690 C   0  0  0  0  0  0  0  0  0  0  0  0
  124.9350  123.1590   56.5960 C   0  0  0  0  0  0  0  0  0  0  0  0
  124.8370  123.6300   57.9110 C   0  0  0  0  0  0  0  0  0  0  0  0
  123.5480  124.3210   58.3300 C   0  0  0  0  0  0  0  0  0  0  0  0
  125.9510  123.4330   58.7700 C   0  0  0  0  0  0  0  0  0  0  0  0
  126.1880  123.7790   60.1460 C   0  0  0  0  0  0  0  0  0  0  0  0
  125.2470  124.4230   60.9100 N   0  0  0  0  0  0  0  0  0  0  0  0
  127.4540  123.3990   60.6210 C   0  0  0  0  0  0  0  0  0  0  0  0
  128.0280  123.6070   61.9510 C   0  0  0  0  0  0  0  0  0  0  0  0
  127.4850  123.1320   62.9510 O   0  0  0  0  0  0  0  0  0  0  0  0
  129.1740  124.3310   61.9830 N   0  0  0  0  0  0  0  0  0  0  0  0
  129.9440  124.7400   63.0880 C   0  0  0  0  0  0  0  0  0  0  0  0
  130.8660  123.8060   63.5710 C   0  0  0  0  0  0  0  0  0  0  0  0
  131.6820  124.1190   64.6540 C   0  0  0  0  0  0  0  0  0  0  0  0
  131.5830  125.3730   65.2520 C   0  0  0  0  0  0  0  0  0  0  0  0
  130.6790  126.3170   64.7720 C   0  0  0  0  0  0  0  0  0  0  0  0
  129.8610  126.0060   63.6900 C   0  0  0  0  0  0  0  0  0  0  0  0
  128.3880  122.5900   59.3620 S   0  0  0  0  0  0  0  0  0  0  0  0
  127.0840  122.7680   58.2110 C   0  0  0  0  0  0  0  0  0  0  0  0
  127.1800  122.3180   56.9590 N   0  0  0  0  0  0  0  0  0  0  0  0
  1  2  1  0
  2  3  2  0
  3  4  1  0
  4  5  1  0
  4  6  2  0
  6  7  1  0
  7  8  1  0
  7  9  2  0
  9 10  1  0
 10 11  2  0
 10 12  1  0
 12 13  1  0
 13 14  2  0
 14 15  1  0
 15 16  2  0
 16 17  1  0
 17 18  2  0
  9 19  1  0
 19 20  1  0
 20 21  2  0
 21  2  1  0
 20  6  1  0
 18 13  1  0
M  END
>  <Binding energies>  (124) 
[-6.94]

>  <Ligand effiencies>  (124) 
[-0.2891666666666667]

>  <Interactions>  (124) 
["V-B:PRO:540:N:9855, H-B:ALA:541:N:9862, V-B:PRO:540:CA:9854, V-B:TYR:539:C:9838, V-B:TYR:539:CD2:9845, V-B:TYR:539:CE2:9847, H-B:TYR:539:N:9841, V-B:MET:535:CE:9806, V-B:PRO:540:CB:9856, V-B:TYR:531:CZ:9765, V-B:PRO:540:CD:9858, V-B:TYR:531:CE2:9764, V-B:LEU:363:CD1:8159, V-B:ILE:538:CD1:9836, V-B:ILE:538:CG2:9834, V-B:ILE:538:CA:9831, V-B:ILE:538:CG1:9835, V-B:ILE:538:C:9829, V-B:ILE:538:CB:9833, V-B:ASP:366:CB:8182, V-B:ASP:366:CG:8183, V-B:MET:535:CG:9804, V-B:LEU:363:CA:8155, V-B:VAL:537:C:9821, H-B:ASP:366:OD1:8184, V-B:LEU:363:CB:8157"]

$$$$
4ae_Grossjean_2025
     RDKit          3D

 22 24  0  0  0  0  0  0  0  0999 V2000
  126.5100  121.9990   55.1230 C   0  0  0  0  0  0  0  0  0  0  0  0
  126.0940  122.5770   56.4620 C   0  0  0  0  0  0  0  0  0  0  0  0
  124.7860  123.0090   56.6970 C   0  0  0  0  0  0  0  0  0  0  0  0
  124.4770  123.5380   57.9500 C   0  0  0  0  0  0  0  0  0  0  0  0
  125.4720  123.6230   58.9270 C   0  0  0  0  0  0  0  0  0  0  0  0
  126.7590  123.1640   58.6280 C   0  0  0  0  0  0  0  0  0  0  0  0
  127.7220  123.2950   59.6440 N   0  0  0  0  0  0  0  0  0  0  0  0
  127.5630  123.1610   60.9850 C   0  0  0  0  0  0  0  0  0  0  0  0
  126.4880  122.8970   61.5250 O   0  0  0  0  0  0  0  0  0  0  0  0
  128.7760  123.3570   61.7820 C   0  0  0  0  0  0  0  0  0  0  0  0
  128.9370  124.7700   62.8260 S   0  0  0  0  0  0  0  0  0  0  0  0
  130.5410  124.2820   63.3210 C   0  0  0  0  0  0  0  0  0  0  0  0
  131.2650  125.0020   64.1780 N   0  0  0  0  0  0  0  0  0  0  0  0
  132.4940  124.5160   64.4750 C   0  0  0  0  0  0  0  0  0  0  0  0
  133.3040  125.3550   65.4470 C   0  0  0  0  0  0  0  0  0  0  0  0
  133.0110  123.3360   63.9410 C   0  0  0  0  0  0  0  0  0  0  0  0
  132.2480  122.5820   63.0430 C   0  0  0  0  0  0  0  0  0  0  0  0
  132.8560  121.3040   62.4850 C   0  0  0  0  0  0  0  0  0  0  0  0
  130.9530  123.0620   62.7060 C   0  0  0  0  0  0  0  0  0  0  0  0
  129.9270  122.5540   61.8340 C   0  0  0  0  0  0  0  0  0  0  0  0
  130.0780  121.3890   61.1250 N   0  0  0  0  0  0  0  0  0  0  0  0
  127.0700  122.6520   57.4010 N   0  0  0  0  0  0  0  0  0  0  0  0
  1  2  1  0
  2  3  2  0
  3  4  1  0
  4  5  2  0
  5  6  1  0
  6  7  1  0
  7  8  1  0
  8  9  2  0
  8 10  1  0
 10 11  1  0
 11 12  1  0
 12 13  2  0
 13 14  1  0
 14 15  1  0
 14 16  2  0
 16 17  1  0
 17 18  1  0
 17 19  2  0
 19 20  1  0
 20 21  1  0
  6 22  2  0
 22  2  1  0
 20 10  2  0
 19 12  1  0
M  END
>  <Binding energies>  (125) 
[-6.82]

>  <Ligand effiencies>  (125) 
[-0.2728]

>  <Interactions>  (125) 
["V-B:GLU:543:CD:9879, V-B:PRO:540:N:9855, H-B:ALA:541:N:9862, V-B:PRO:540:CA:9854, V-B:TYR:539:C:9838, V-A:LEU:475:CD2:4258, H-B:TYR:539:O:9839, V-B:TYR:539:CD2:9845, V-B:TYR:539:CE2:9847, V-A:GLY:454:CA:4048, V-B:MET:535:CE:9806, V-B:PRO:540:CB:9856, V-B:TYR:531:CZ:9765, V-B:PRO:540:CD:9858, V-B:TYR:531:CE2:9764, V-B:LEU:363:CD1:8159, V-A:ARG:545:CZ:4925, V-B:ILE:538:CD1:9836, V-B:ILE:538:CG2:9834, V-B:ILE:538:CA:9831, V-B:ILE:538:C:9829, V-B:ILE:538:CB:9833, V-B:MET:535:CG:9804, V-B:VAL:537:C:9821"]

$$$$
4af_Grossjean_2025
     RDKit          3D

 21 23  0  0  0  0  0  0  0  0999 V2000
  126.4770  122.0060   54.7640 C   0  0  0  0  0  0  0  0  0  0  0  0
  126.2590  122.5220   56.1750 C   0  0  0  0  0  0  0  0  0  0  0  0
  125.0720  123.1570   56.5310 C   0  0  0  0  0  0  0  0  0  0  0  0
  124.8940  123.6270   57.8380 C   0  0  0  0  0  0  0  0  0  0  0  0
  123.5820  124.3150   58.1790 C   0  0  0  0  0  0  0  0  0  0  0  0
  125.9550  123.4310   58.7630 C   0  0  0  0  0  0  0  0  0  0  0  0
  126.1090  123.7800   60.1500 C   0  0  0  0  0  0  0  0  0  0  0  0
  125.1260  124.4280   60.8550 N   0  0  0  0  0  0  0  0  0  0  0  0
  127.3420  123.3970   60.7010 C   0  0  0  0  0  0  0  0  0  0  0  0
  127.8410  123.6170   62.0600 C   0  0  0  0  0  0  0  0  0  0  0  0
  127.2680  123.1150   63.0280 O   0  0  0  0  0  0  0  0  0  0  0  0
  128.9560  124.3820   62.1510 N   0  0  0  0  0  0  0  0  0  0  0  0
  129.6530  124.8170   63.2950 C   0  0  0  0  0  0  0  0  0  0  0  0
  130.2320  126.0880   63.4620 C   0  0  0  0  0  0  0  0  0  0  0  0
  130.9130  126.3870   64.6440 C   0  0  0  0  0  0  0  0  0  0  0  0
  131.0030  125.4040   65.6300 C   0  0  0  0  0  0  0  0  0  0  0  0
  130.4610  124.1680   65.4900 N   0  0  0  0  0  0  0  0  0  0  0  0
  129.8020  123.8930   64.3360 C   0  0  0  0  0  0  0  0  0  0  0  0
  128.3530  122.5890   59.5010 S   0  0  0  0  0  0  0  0  0  0  0  0
  127.1190  122.7660   58.2740 C   0  0  0  0  0  0  0  0  0  0  0  0
  127.2910  122.3170   57.0300 N   0  0  0  0  0  0  0  0  0  0  0  0
  1  2  1  0
  2  3  2  0
  3  4  1  0
  4  5  1  0
  4  6  2  0
  6  7  1  0
  7  8  1  0
  7  9  2  0
  9 10  1  0
 10 11  2  0
 10 12  1  0
 12 13  1  0
 13 14  2  0
 14 15  1  0
 15 16  2  0
 16 17  1  0
 17 18  2  0
  9 19  1  0
 19 20  1  0
 20 21  2  0
 21  2  1  0
 20  6  1  0
 18 13  1  0
M  END
>  <Binding energies>  (126) 
[-7.28]

>  <Ligand effiencies>  (126) 
[-0.30333333333333334]

>  <Interactions>  (126) 
["V-B:GLU:543:CD:9879, V-B:PRO:540:N:9855, H-B:ALA:541:N:9862, H-A:TYR:484:OH:4347, V-B:PRO:540:CA:9854, V-B:TYR:539:C:9838, V-B:TYR:539:CD2:9845, V-B:TYR:539:CE2:9847, H-B:TYR:539:N:9841, V-B:MET:535:CE:9806, V-B:PRO:540:CB:9856, V-B:TYR:531:CZ:9765, V-B:PRO:540:CD:9858, V-B:TYR:531:CE2:9764, V-B:LEU:363:CD1:8159, V-B:ILE:538:CD1:9836, V-B:ILE:538:CG2:9834, V-B:ILE:538:CA:9831, V-B:ILE:538:CG1:9835, V-B:ILE:538:C:9829, V-B:ILE:538:CB:9833, V-B:ASP:366:CB:8182, V-B:ASP:366:CG:8183, V-B:MET:535:CG:9804, V-B:LEU:363:CA:8155, V-B:VAL:537:C:9821, H-B:ASP:366:OD1:8184"]

$$$$
4ag_Grossjean_2025
     RDKit          3D

 22 24  0  0  0  0  0  0  0  0999 V2000
  126.4690  122.0020   54.7520 C   0  0  0  0  0  0  0  0  0  0  0  0
  126.2580  122.5300   56.1590 C   0  0  0  0  0  0  0  0  0  0  0  0
  125.0750  123.1770   56.5120 C   0  0  0  0  0  0  0  0  0  0  0  0
  124.9010  123.6550   57.8160 C   0  0  0  0  0  0  0  0  0  0  0  0
  123.5930  124.3550   58.1530 C   0  0  0  0  0  0  0  0  0  0  0  0
  125.9590  123.4560   58.7420 C   0  0  0  0  0  0  0  0  0  0  0  0
  126.1140  123.8080   60.1270 C   0  0  0  0  0  0  0  0  0  0  0  0
  125.1370  124.4670   60.8310 N   0  0  0  0  0  0  0  0  0  0  0  0
  127.3440  123.4210   60.6790 C   0  0  0  0  0  0  0  0  0  0  0  0
  127.8260  123.6090   62.0480 C   0  0  0  0  0  0  0  0  0  0  0  0
  127.2380  123.1090   63.0090 O   0  0  0  0  0  0  0  0  0  0  0  0
  128.9300  124.3720   62.1890 N   0  0  0  0  0  0  0  0  0  0  0  0
  129.5980  124.6690   63.4560 C   0  0  0  0  0  0  0  0  0  0  0  0
  131.1200  124.6360   63.3760 C   0  0  0  0  0  0  0  0  0  0  0  0
  131.7470  123.9250   62.3490 C   0  0  0  0  0  0  0  0  0  0  0  0
  133.1370  123.9130   62.2600 C   0  0  0  0  0  0  0  0  0  0  0  0
  133.8940  124.6220   63.1900 C   0  0  0  0  0  0  0  0  0  0  0  0
  133.2750  125.3450   64.2070 C   0  0  0  0  0  0  0  0  0  0  0  0
  131.8860  125.3580   64.2960 C   0  0  0  0  0  0  0  0  0  0  0  0
  128.3470  122.5920   59.4890 S   0  0  0  0  0  0  0  0  0  0  0  0
  127.1180  122.7780   58.2570 C   0  0  0  0  0  0  0  0  0  0  0  0
  127.2870  122.3200   57.0160 N   0  0  0  0  0  0  0  0  0  0  0  0
  1  2  1  0
  2  3  2  0
  3  4  1  0
  4  5  1  0
  4  6  2  0
  6  7  1  0
  7  8  1  0
  7  9  2  0
  9 10  1  0
 10 11  2  0
 10 12  1  0
 12 13  1  0
 13 14  1  0
 14 15  2  0
 15 16  1  0
 16 17  2  0
 17 18  1  0
 18 19  2  0
  9 20  1  0
 20 21  1  0
 21 22  2  0
 22  2  1  0
 21  6  1  0
 19 14  1  0
M  END
>  <Binding energies>  (127) 
[-7.48]

>  <Ligand effiencies>  (127) 
[-0.2992]

>  <Interactions>  (127) 
["V-A:ASP:366:CG:3212, V-B:GLU:543:CD:9879, V-B:PRO:540:N:9855, H-B:ALA:541:N:9862, V-B:PRO:540:CA:9854, V-B:TYR:539:C:9838, V-B:TYR:539:CD2:9845, V-B:TYR:539:CE2:9847, V-A:GLY:454:CA:4048, H-B:TYR:539:N:9841, V-B:MET:535:CE:9806, V-B:PRO:540:CB:9856, V-A:GLY:453:C:4041, V-B:TYR:531:CZ:9765, V-B:TYR:531:CE2:9764, V-B:LEU:363:CD1:8159, V-A:ARG:545:CZ:4925, V-B:ILE:538:CD1:9836, V-B:ILE:538:CG2:9834, V-B:ILE:538:CA:9831, V-B:ILE:538:CG1:9835, V-B:ILE:538:C:9829, V-B:ILE:538:CB:9833, V-B:ASP:366:CB:8182, V-B:ASP:366:CG:8183, V-B:MET:535:CG:9804, V-B:LEU:363:CA:8155, V-B:VAL:537:C:9821, H-B:ASP:366:OD1:8184"]

$$$$
4ah_Grossjean_2025
     RDKit          3D

 28 30  0  0  0  0  0  0  0  0999 V2000
  133.9850  122.1130   62.5090 C   0  0  0  0  0  0  0  0  0  0  0  0
  133.9120  123.2420   63.3720 O   0  0  0  0  0  0  0  0  0  0  0  0
  132.6860  123.6220   63.8910 C   0  0  0  0  0  0  0  0  0  0  0  0
  131.5040  122.8830   63.7280 C   0  0  0  0  0  0  0  0  0  0  0  0
  130.3010  123.3290   64.2780 C   0  0  0  0  0  0  0  0  0  0  0  0
  129.0370  122.4900   64.1310 C   0  0  0  0  0  0  0  0  0  0  0  0
  128.4630  122.5260   62.7860 N   0  0  0  0  0  0  0  0  0  0  0  0
  127.6310  123.4790   62.3160 C   0  0  0  0  0  0  0  0  0  0  0  0
  127.2340  124.4160   63.0110 O   0  0  0  0  0  0  0  0  0  0  0  0
  127.1840  123.3160   60.9330 C   0  0  0  0  0  0  0  0  0  0  0  0
  128.1750  122.4170   59.7830 S   0  0  0  0  0  0  0  0  0  0  0  0
  127.0340  122.7240   58.4930 C   0  0  0  0  0  0  0  0  0  0  0  0
  127.2240  122.2610   57.2570 N   0  0  0  0  0  0  0  0  0  0  0  0
  126.2640  122.5680   56.3520 C   0  0  0  0  0  0  0  0  0  0  0  0
  126.5020  122.0350   54.9510 C   0  0  0  0  0  0  0  0  0  0  0  0
  125.1280  123.3170   56.6510 C   0  0  0  0  0  0  0  0  0  0  0  0
  124.9310  123.8040   57.9480 C   0  0  0  0  0  0  0  0  0  0  0  0
  123.6770  124.6180   58.2260 C   0  0  0  0  0  0  0  0  0  0  0  0
  125.9190  123.5040   58.9250 C   0  0  0  0  0  0  0  0  0  0  0  0
  126.0370  123.8380   60.3190 C   0  0  0  0  0  0  0  0  0  0  0  0
  125.0970  124.5930   60.9750 N   0  0  0  0  0  0  0  0  0  0  0  0
  130.2800  124.5090   65.0220 C   0  0  0  0  0  0  0  0  0  0  0  0
  131.4460  125.2710   65.1970 C   0  0  0  0  0  0  0  0  0  0  0  0
  131.4940  126.4570   65.9080 O   0  0  0  0  0  0  0  0  0  0  0  0
  130.6360  126.6320   67.0300 C   0  0  0  0  0  0  0  0  0  0  0  0
  132.6410  124.8190   64.6200 C   0  0  0  0  0  0  0  0  0  0  0  0
  133.7950  125.5460   64.7980 O   0  0  0  0  0  0  0  0  0  0  0  0
  134.1560  125.7330   66.1590 C   0  0  0  0  0  0  0  0  0  0  0  0
  1  2  1  0
  2  3  1  0
  3  4  2  0
  4  5  1  0
  5  6  1  0
  6  7  1  0
  7  8  1  0
  8  9  2  0
  8 10  1  0
 10 11  1  0
 11 12  1  0
 12 13  2  0
 13 14  1  0
 14 15  1  0
 14 16  2  0
 16 17  1  0
 17 18  1  0
 17 19  2  0
 19 20  1  0
 20 21  1  0
  5 22  2  0
 22 23  1  0
 23 24  1  0
 24 25  1  0
 23 26  2  0
 26 27  1  0
 27 28  1  0
 26  3  1  0
 20 10  2  0
 19 12  1  0
M  END
>  <Binding energies>  (128) 
[-7.44]

>  <Ligand effiencies>  (128) 
[-0.24000000000000002]

>  <Interactions>  (128) 
["V-B:GLU:543:CD:9879, V-B:PRO:540:N:9855, H-A:TYR:484:OH:4347, V-B:ALA:541:CB:9863, V-B:PRO:540:CA:9854, V-B:ALA:541:CA:9861, H-B:GLU:543:OE1:9880, V-B:TYR:539:C:9838, V-A:LEU:475:CD2:4258, H-B:TYR:539:O:9839, V-A:ILE:369:CD1:3238, V-B:TYR:539:CD2:9845, V-B:TYR:539:CE2:9847, V-A:GLY:454:CA:4048, H-B:TYR:539:N:9841, V-B:MET:535:CE:9806, V-B:GLU:543:CG:9878, V-B:PRO:540:CB:9856, H-A:GLY:454:N:4049, V-A:GLY:453:C:4041, V-A:ARG:545:CD:4922, V-B:TYR:531:CZ:9765, V-B:PRO:540:CD:9858, V-B:TYR:531:CE2:9764, V-B:LEU:363:CD1:8159, V-A:ARG:545:CZ:4925, V-B:ILE:538:CD1:9836, V-A:ARG:545:CG:4921, V-B:ILE:538:CG2:9834, H-A:ARG:545:NH1:4926, H-A:ARG:545:NH2:4927, V-B:ILE:538:CA:9831, V-A:GLY:453:CA:4043, V-B:ILE:538:C:9829, V-B:ILE:538:CB:9833, H-A:ARG:545:NE:4923, V-B:ASP:366:CB:8182, V-B:ASP:366:CG:8183, V-B:MET:535:CG:9804, V-B:LEU:363:CA:8155, V-B:VAL:537:C:9821, H-B:ASP:366:OD1:8184"]

$$$$
4ai_Grossjean_2025
     RDKit          3D

 20 22  0  0  0  0  0  0  0  0999 V2000
  126.4890  122.0580   54.8870 C   0  0  0  0  0  0  0  0  0  0  0  0
  126.2410  122.5710   56.2940 C   0  0  0  0  0  0  0  0  0  0  0  0
  125.0690  123.2540   56.6120 C   0  0  0  0  0  0  0  0  0  0  0  0
  124.8590  123.7140   57.9170 C   0  0  0  0  0  0  0  0  0  0  0  0
  123.5630  124.4520   58.2150 C   0  0  0  0  0  0  0  0  0  0  0  0
  125.8710  123.4570   58.8820 C   0  0  0  0  0  0  0  0  0  0  0  0
  125.9810  123.7780   60.2790 C   0  0  0  0  0  0  0  0  0  0  0  0
  125.0020  124.4650   60.9520 N   0  0  0  0  0  0  0  0  0  0  0  0
  127.1650  123.3190   60.8780 C   0  0  0  0  0  0  0  0  0  0  0  0
  127.6040  123.4770   62.2660 C   0  0  0  0  0  0  0  0  0  0  0  0
  126.8770  123.1300   63.1990 O   0  0  0  0  0  0  0  0  0  0  0  0
  128.8440  124.0030   62.4270 N   0  0  0  0  0  0  0  0  0  0  0  0
  129.5080  124.2490   63.6220 C   0  0  0  0  0  0  0  0  0  0  0  0
  130.2980  125.3790   63.8350 C   0  0  0  0  0  0  0  0  0  0  0  0
  130.7720  125.2470   65.1200 C   0  0  0  0  0  0  0  0  0  0  0  0
  130.2910  124.1000   65.6540 O   0  0  0  0  0  0  0  0  0  0  0  0
  129.4900  123.4760   64.6960 N   0  0  0  0  0  0  0  0  0  0  0  0
  128.1930  122.4930   59.7050 S   0  0  0  0  0  0  0  0  0  0  0  0
  127.0240  122.7480   58.4290 C   0  0  0  0  0  0  0  0  0  0  0  0
  127.2280  122.3100   57.1860 N   0  0  0  0  0  0  0  0  0  0  0  0
  1  2  1  0
  2  3  2  0
  3  4  1  0
  4  5  1  0
  4  6  2  0
  6  7  1  0
  7  8  1  0
  7  9  2  0
  9 10  1  0
 10 11  2  0
 10 12  1  0
 12 13  1  0
 13 14  1  0
 14 15  2  0
 15 16  1  0
 16 17  1  0
  9 18  1  0
 18 19  1  0
 19 20  2  0
 20  2  1  0
 19  6  1  0
 17 13  2  0
M  END
>  <Binding energies>  (129) 
[-7.15]

>  <Ligand effiencies>  (129) 
[-0.31086956521739134]

>  <Interactions>  (129) 
["V-B:GLU:543:CD:9879, V-B:PRO:540:N:9855, H-B:ALA:541:N:9862, H-A:TYR:484:OH:4347, V-B:PRO:540:CA:9854, V-B:TYR:539:C:9838, V-B:TYR:539:CD2:9845, V-B:TYR:539:CE2:9847, H-B:TYR:539:N:9841, V-B:MET:535:CE:9806, V-B:PRO:540:CB:9856, V-B:TYR:531:CZ:9765, V-B:PRO:540:CD:9858, V-B:TYR:531:CE2:9764, V-B:LEU:363:CD1:8159, V-B:ILE:538:CD1:9836, V-B:ILE:538:CG2:9834, V-B:ILE:538:CA:9831, V-B:ILE:538:C:9829, V-B:ILE:538:CB:9833, V-B:ASP:366:CB:8182, V-B:ASP:366:CG:8183, V-B:MET:535:CG:9804, V-B:LEU:363:CA:8155, V-B:VAL:537:C:9821, H-B:ASP:366:OD1:8184"]

$$$$
4aj_Grossjean_2025
     RDKit          3D

 20 22  0  0  0  0  0  0  0  0999 V2000
  126.0750  122.3620   54.7520 C   0  0  0  0  0  0  0  0  0  0  0  0
  125.9780  122.7560   56.2150 C   0  0  0  0  0  0  0  0  0  0  0  0
  124.8580  123.4210   56.7060 C   0  0  0  0  0  0  0  0  0  0  0  0
  124.7920  123.7800   58.0570 C   0  0  0  0  0  0  0  0  0  0  0  0
  123.5470  124.5060   58.5440 C   0  0  0  0  0  0  0  0  0  0  0  0
  125.8940  123.4420   58.8870 C   0  0  0  0  0  0  0  0  0  0  0  0
  126.1560  123.6550   60.2850 C   0  0  0  0  0  0  0  0  0  0  0  0
  125.2650  124.2950   61.1080 N   0  0  0  0  0  0  0  0  0  0  0  0
  127.3900  123.1450   60.7180 C   0  0  0  0  0  0  0  0  0  0  0  0
  127.9760  123.1930   62.0590 C   0  0  0  0  0  0  0  0  0  0  0  0
  127.3580  123.6980   62.9990 O   0  0  0  0  0  0  0  0  0  0  0  0
  129.2090  122.6410   62.1760 N   0  0  0  0  0  0  0  0  0  0  0  0
  129.9740  122.5470   63.3300 C   0  0  0  0  0  0  0  0  0  0  0  0
  129.5530  122.4110   64.5690 N   0  0  0  0  0  0  0  0  0  0  0  0
  130.5600  122.3490   65.4190 C   0  0  0  0  0  0  0  0  0  0  0  0
  131.8360  122.4370   64.8700 C   0  0  0  0  0  0  0  0  0  0  0  0
  131.6970  122.6090   63.1450 S   0  0  0  0  0  0  0  0  0  0  0  0
  128.2730  122.3960   59.3860 S   0  0  0  0  0  0  0  0  0  0  0  0
  126.9810  122.7580   58.2630 C   0  0  0  0  0  0  0  0  0  0  0  0
  127.0470  122.4160   56.9760 N   0  0  0  0  0  0  0  0  0  0  0  0
  1  2  1  0
  2  3  2  0
  3  4  1  0
  4  5  1  0
  4  6  2  0
  6  7  1  0
  7  8  1  0
  7  9  2  0
  9 10  1  0
 10 11  2  0
 10 12  1  0
 12 13  1  0
 13 14  2  0
 14 15  1  0
 15 16  2  0
 16 17  1  0
  9 18  1  0
 18 19  1  0
 19 20  2  0
 20  2  1  0
 19  6  1  0
 17 13  1  0
M  END
>  <Binding energies>  (130) 
[-6.59]

>  <Ligand effiencies>  (130) 
[-0.28652173913043477]

>  <Interactions>  (130) 
["V-B:PRO:540:N:9855, V-B:ALA:541:CB:9863, V-B:PRO:540:CA:9854, V-B:PRO:540:C:9852, H-B:GLU:543:OE1:9880, V-B:TYR:539:C:9838, V-A:LEU:475:CD2:4258, H-B:TYR:539:O:9839, V-B:TYR:539:CD2:9845, V-B:TYR:539:CE2:9847, V-A:GLY:454:CA:4048, H-B:TYR:539:N:9841, V-B:MET:535:CE:9806, V-A:LEU:475:CD1:4257, V-B:PRO:540:CB:9856, V-B:TYR:531:CZ:9765, V-B:TYR:531:CE2:9764, V-B:LEU:363:CD1:8159, V-B:ILE:538:CD1:9836, V-B:ILE:538:CG2:9834, V-B:ILE:538:CA:9831, V-B:ILE:538:CG1:9835, V-B:ILE:538:C:9829, V-B:ILE:538:CB:9833, V-B:ASP:366:CB:8182, V-A:TYR:484:CZ:4346, V-A:TYR:484:CE2:4345, V-B:ASP:366:CG:8183, V-B:MET:535:CG:9804, V-B:LEU:363:CA:8155, H-B:ASP:366:OD1:8184"]

$$$$
4ak_Grossjean_2025
     RDKit          3D

 25 26  0  0  0  0  0  0  0  0999 V2000
  131.9670  117.4810   58.9260 C   0  0  0  0  0  0  0  0  0  0  0  0
  132.8000  117.4030   60.0730 O   0  0  0  0  0  0  0  0  0  0  0  0
  132.1390  117.7690   61.2780 C   0  0  0  0  0  0  0  0  0  0  0  0
  130.9370  118.6640   60.9510 C   0  0  0  0  0  0  0  0  0  0  0  0
  131.2910  120.0240   61.1610 O   0  0  0  0  0  0  0  0  0  0  0  0
  132.6910  120.2660   61.1180 C   0  0  0  0  0  0  0  0  0  0  0  0
  132.9880  121.6330   61.7470 C   0  0  0  0  0  0  0  0  0  0  0  0
  131.7680  122.3340   61.9470 O   0  0  0  0  0  0  0  0  0  0  0  0
  131.5010  122.6470   63.3070 C   0  0  0  0  0  0  0  0  0  0  0  0
  130.0950  123.2630   63.4210 C   0  0  0  0  0  0  0  0  0  0  0  0
  129.3330  123.2200   62.1720 N   0  0  0  0  0  0  0  0  0  0  0  0
  127.9890  123.1690   62.0800 C   0  0  0  0  0  0  0  0  0  0  0  0
  127.2580  123.1760   63.0720 O   0  0  0  0  0  0  0  0  0  0  0  0
  127.4390  123.1140   60.7260 C   0  0  0  0  0  0  0  0  0  0  0  0
  128.3620  122.3710   59.4210 S   0  0  0  0  0  0  0  0  0  0  0  0
  127.0840  122.6940   58.2710 C   0  0  0  0  0  0  0  0  0  0  0  0
  127.1850  122.3460   56.9880 N   0  0  0  0  0  0  0  0  0  0  0  0
  126.1240  122.6560   56.2020 C   0  0  0  0  0  0  0  0  0  0  0  0
  126.2570  122.2520   54.7460 C   0  0  0  0  0  0  0  0  0  0  0  0
  124.9770  123.2970   56.6660 C   0  0  0  0  0  0  0  0  0  0  0  0
  124.8740  123.6600   58.0150 C   0  0  0  0  0  0  0  0  0  0  0  0
  123.6050  124.3610   58.4730 C   0  0  0  0  0  0  0  0  0  0  0  0
  125.9670  123.3520   58.8680 C   0  0  0  0  0  0  0  0  0  0  0  0
  126.1940  123.5750   60.2710 C   0  0  0  0  0  0  0  0  0  0  0  0
  125.2670  124.1870   61.0760 N   0  0  0  0  0  0  0  0  0  0  0  0
  1  2  1  0
  2  3  1  0
  3  4  1  0
  4  5  1  0
  5  6  1  0
  6  7  1  0
  7  8  1  0
  8  9  1  0
  9 10  1  0
 10 11  1  0
 11 12  1  0
 12 13  2  0
 12 14  1  0
 14 15  1  0
 15 16  1  0
 16 17  2  0
 17 18  1  0
 18 19  1  0
 18 20  2  0
 20 21  1  0
 21 22  1  0
 21 23  2  0
 23 24  1  0
 24 25  1  0
 24 14  2  0
 23 16  1  0
M  END
>  <Binding energies>  (131) 
[-6.62]

>  <Ligand effiencies>  (131) 
[-0.23642857142857143]

>  <Interactions>  (131) 
["V-B:PRO:540:N:9855, H-B:ALA:541:N:9862, V-B:PRO:540:CA:9854, V-B:PRO:540:C:9852, V-B:TYR:539:C:9838, V-A:LEU:475:CD2:4258, V-A:HIS:383:CE1:3393, V-B:TYR:539:CD2:9845, V-B:TYR:539:CE2:9847, V-B:TYR:539:CB:9842, V-A:SER:385:CA:3406, V-A:SER:385:CB:3408, V-A:LEU:373:CD1:3279, H-B:TYR:539:N:9841, V-B:TYR:539:CG:9843, V-B:MET:535:CE:9806, V-B:PRO:540:CB:9856, H-A:HIS:383:ND1:3390, V-B:TYR:531:CZ:9765, V-B:TYR:531:CE2:9764, V-B:LEU:363:CD1:8159, V-B:ILE:538:CD1:9836, V-B:ILE:538:CG2:9834, V-B:ILE:538:CA:9831, V-B:ILE:538:CG1:9835, V-B:ILE:538:C:9829, V-B:ILE:538:CB:9833, V-B:ASP:366:CB:8182, V-A:LEU:373:CG:3278, V-A:LEU:373:CD2:3280, V-B:ASP:366:CG:8183, V-B:MET:535:CG:9804, V-B:LEU:363:CA:8155, V-B:VAL:537:C:9821, H-B:ASP:366:OD1:8184"]

$$$$
4al_Grossjean_2025
     RDKit          3D

 16 17  0  0  0  0  0  0  0  0999 V2000
  125.4700  122.1230   55.5250 C   0  0  0  0  0  0  0  0  0  0  0  0
  125.5360  123.4600   55.9960 O   0  0  0  0  0  0  0  0  0  0  0  0
  125.0230  123.7990   57.2080 C   0  0  0  0  0  0  0  0  0  0  0  0
  123.9020  124.2860   57.3700 O   0  0  0  0  0  0  0  0  0  0  0  0
  125.9530  123.5220   58.3240 C   0  0  0  0  0  0  0  0  0  0  0  0
  127.5070  122.7470   58.0060 S   0  0  0  0  0  0  0  0  0  0  0  0
  127.9240  122.7950   59.7030 C   0  0  0  0  0  0  0  0  0  0  0  0
  129.0830  122.3160   60.1580 N   0  0  0  0  0  0  0  0  0  0  0  0
  129.2840  122.4130   61.4950 C   0  0  0  0  0  0  0  0  0  0  0  0
  130.6090  121.8620   61.9910 C   0  0  0  0  0  0  0  0  0  0  0  0
  128.3630  122.9720   62.3790 C   0  0  0  0  0  0  0  0  0  0  0  0
  127.1480  123.4730   61.8990 C   0  0  0  0  0  0  0  0  0  0  0  0
  126.1750  124.0740   62.9010 C   0  0  0  0  0  0  0  0  0  0  0  0
  126.9030  123.3890   60.5020 C   0  0  0  0  0  0  0  0  0  0  0  0
  125.7900  123.7940   59.6880 C   0  0  0  0  0  0  0  0  0  0  0  0
  124.6730  124.3930   60.2090 N   0  0  0  0  0  0  0  0  0  0  0  0
  1  2  1  0
  2  3  1  0
  3  4  2  0
  3  5  1  0
  5  6  1  0
  6  7  1  0
  7  8  2  0
  8  9  1  0
  9 10  1  0
  9 11  2  0
 11 12  1  0
 12 13  1  0
 12 14  2  0
 14 15  1  0
 15 16  1  0
 15  5  2  0
 14  7  1  0
M  END
>  <Binding energies>  (132) 
[-5.7]

>  <Ligand effiencies>  (132) 
[-0.31666666666666665]

>  <Interactions>  (132) 
["V-B:GLU:543:CD:9879, V-B:PRO:540:N:9855, V-B:ALA:541:CB:9863, V-B:PRO:540:CA:9854, V-B:TYR:539:C:9838, V-B:TYR:539:CD2:9845, V-B:GLU:543:CG:9878, V-B:PRO:540:CB:9856, V-B:TYR:531:CZ:9765, V-B:PRO:540:CD:9858, V-B:TYR:531:CE2:9764, V-B:LEU:363:CD1:8159, V-B:ILE:538:CD1:9836, V-B:ILE:538:CG2:9834, V-B:ILE:538:CA:9831, V-B:ILE:538:C:9829, V-B:ILE:538:CB:9833, H-B:TYR:531:OH:9766, V-B:ASP:366:CG:8183, V-B:MET:535:CG:9804, H-B:ASP:366:OD1:8184"]

$$$$
4bc_Grossjean_2025
     RDKit          3D

 26 28  0  0  0  0  0  0  0  0999 V2000
  124.0490  129.2160   67.3500 C   0  0  0  0  0  0  0  0  0  0  0  0
  123.5990  129.7850   66.1240 O   0  0  0  0  0  0  0  0  0  0  0  0
  124.5280  130.2950   65.2380 C   0  0  0  0  0  0  0  0  0  0  0  0
  125.0290  129.4110   64.2840 C   0  0  0  0  0  0  0  0  0  0  0  0
  125.9700  129.8340   63.3480 C   0  0  0  0  0  0  0  0  0  0  0  0
  126.4170  131.1570   63.3510 C   0  0  0  0  0  0  0  0  0  0  0  0
  127.3780  131.4890   62.3790 N   0  0  0  0  0  0  0  0  0  0  0  0
  128.1750  132.5830   62.3000 C   0  0  0  0  0  0  0  0  0  0  0  0
  128.1410  133.5170   63.1030 O   0  0  0  0  0  0  0  0  0  0  0  0
  129.1050  132.6040   61.1680 C   0  0  0  0  0  0  0  0  0  0  0  0
  128.5920  133.2480   59.6100 S   0  0  0  0  0  0  0  0  0  0  0  0
  130.1580  132.9190   58.9070 C   0  0  0  0  0  0  0  0  0  0  0  0
  130.4240  133.2110   57.6340 N   0  0  0  0  0  0  0  0  0  0  0  0
  131.6700  132.9090   57.2020 C   0  0  0  0  0  0  0  0  0  0  0  0
  131.9540  133.2550   55.7520 C   0  0  0  0  0  0  0  0  0  0  0  0
  132.6470  132.3250   58.0050 C   0  0  0  0  0  0  0  0  0  0  0  0
  132.3720  132.0140   59.3460 C   0  0  0  0  0  0  0  0  0  0  0  0
  133.4790  131.3700   60.1890 C   0  0  0  0  0  0  0  0  0  0  0  0
  134.0870  132.2370   61.0010 F   0  0  0  0  0  0  0  0  0  0  0  0
  132.9620  130.4060   60.9490 F   0  0  0  0  0  0  0  0  0  0  0  0
  134.4110  130.8510   59.3900 F   0  0  0  0  0  0  0  0  0  0  0  0
  131.0670  132.3230   59.8340 C   0  0  0  0  0  0  0  0  0  0  0  0
  130.4350  132.1580   61.1200 C   0  0  0  0  0  0  0  0  0  0  0  0
  131.0840  131.6130   62.1990 N   0  0  0  0  0  0  0  0  0  0  0  0
  125.9270  132.0500   64.3160 C   0  0  0  0  0  0  0  0  0  0  0  0
  124.9880  131.6220   65.2500 C   0  0  0  0  0  0  0  0  0  0  0  0
  1  2  1  0
  2  3  1  0
  3  4  2  0
  4  5  1  0
  5  6  2  0
  6  7  1  0
  7  8  1  0
  8  9  2  0
  8 10  1  0
 10 11  1  0
 11 12  1  0
 12 13  2  0
 13 14  1  0
 14 15  1  0
 14 16  2  0
 16 17  1  0
 17 18  1  0
 18 19  1  0
 18 20  1  0
 18 21  1  0
 17 22  2  0
 22 23  1  0
 23 24  1  0
  6 25  1  0
 25 26  2  0
 26  3  1  0
 23 10  2  0
 22 12  1  0
M  END
>  <Binding energies>  (133) 
[-6.74]

>  <Ligand effiencies>  (133) 
[-0.23241379310344829]

>  <Interactions>  (133) 
["V-A:LEU:363:CA:3184, V-A:ASP:366:CG:3212, V-A:ASN:362:C:3171, V-A:PRO:540:CB:4884, V-A:TYR:539:CE1:4874, H-A:GLU:543:OE2:4909, V-A:TYR:539:CD1:4872, V-A:ASP:366:CB:3211, V-A:PRO:540:CA:4882, V-A:TYR:531:CE2:4792, V-A:LEU:363:C:3182, V-A:LEU:363:CD1:3188, V-A:GLU:543:CD:4907, V-B:ARG:545:CD:9894, V-B:ARG:545:CG:9893, V-A:ILE:538:CB:4861, V-A:ILE:538:CG2:4862, H-B:TYR:484:OH:9318, V-A:PRO:540:N:4883, V-A:TYR:539:C:4866, V-A:LEU:363:CB:3186, H-B:ARG:545:NE:9895, V-A:ASN:362:CB:3175, V-B:ARG:545:CZ:9897, V-B:LEU:475:CD1:9228, V-B:GLY:454:CA:9019, V-A:ASN:362:CA:3173, H-B:GLY:454:N:9020, H-A:ALA:541:O:4888"]

$$$$
4bf_Grossjean_2025
     RDKit          3D

 24 26  0  0  0  0  0  0  0  0999 V2000
  133.2590  125.3820   65.2790 C   0  0  0  0  0  0  0  0  0  0  0  0
  132.5170  124.5100   64.2820 C   0  0  0  0  0  0  0  0  0  0  0  0
  133.0830  123.3330   63.8000 C   0  0  0  0  0  0  0  0  0  0  0  0
  132.3880  122.5370   62.8750 C   0  0  0  0  0  0  0  0  0  0  0  0
  133.0510  121.2520   62.3700 C   0  0  0  0  0  0  0  0  0  0  0  0
  132.1880  120.2440   62.2150 F   0  0  0  0  0  0  0  0  0  0  0  0
  133.6230  121.4730   61.1870 F   0  0  0  0  0  0  0  0  0  0  0  0
  133.9790  120.8500   63.2400 F   0  0  0  0  0  0  0  0  0  0  0  0
  131.0990  122.9890   62.4640 C   0  0  0  0  0  0  0  0  0  0  0  0
  130.1150  122.4560   61.5540 C   0  0  0  0  0  0  0  0  0  0  0  0
  130.3030  121.2820   60.8680 N   0  0  0  0  0  0  0  0  0  0  0  0
  128.9550  123.2380   61.4380 C   0  0  0  0  0  0  0  0  0  0  0  0
  127.7810  123.0120   60.5880 C   0  0  0  0  0  0  0  0  0  0  0  0
  126.6860  122.7530   61.0880 O   0  0  0  0  0  0  0  0  0  0  0  0
  128.0000  123.1260   59.2550 N   0  0  0  0  0  0  0  0  0  0  0  0
  127.1110  122.9250   58.1810 C   0  0  0  0  0  0  0  0  0  0  0  0
  125.7560  123.2980   58.1650 C   0  0  0  0  0  0  0  0  0  0  0  0
  124.9780  123.0260   57.0370 C   0  0  0  0  0  0  0  0  0  0  0  0
  125.5760  122.3820   55.9530 C   0  0  0  0  0  0  0  0  0  0  0  0
  126.8790  122.0060   55.9470 N   0  0  0  0  0  0  0  0  0  0  0  0
  127.6220  122.2770   57.0500 C   0  0  0  0  0  0  0  0  0  0  0  0
  129.0500  124.6730   62.4570 S   0  0  0  0  0  0  0  0  0  0  0  0
  130.6340  124.2150   63.0350 C   0  0  0  0  0  0  0  0  0  0  0  0
  131.2970  124.9660   63.9130 N   0  0  0  0  0  0  0  0  0  0  0  0
  1  2  1  0
  2  3  2  0
  3  4  1  0
  4  5  1  0
  5  6  1  0
  5  7  1  0
  5  8  1  0
  4  9  2  0
  9 10  1  0
 10 11  1  0
 10 12  2  0
 12 13  1  0
 13 14  2  0
 13 15  1  0
 15 16  1  0
 16 17  2  0
 17 18  1  0
 18 19  2  0
 19 20  1  0
 20 21  2  0
 12 22  1  0
 22 23  1  0
 23 24  2  0
 24  2  1  0
 23  9  1  0
 21 16  1  0
M  END
>  <Binding energies>  (134) 
[-6.76]

>  <Ligand effiencies>  (134) 
[-0.25037037037037035]

>  <Interactions>  (134) 
["V-B:PRO:540:N:9855, H-B:ALA:541:N:9862, V-B:PRO:540:CA:9854, V-B:TYR:539:C:9838, V-A:LEU:475:CD2:4258, H-B:TYR:539:O:9839, V-A:ILE:369:CD1:3238, V-A:SER:385:C:3404, V-B:TYR:539:CD2:9845, V-A:ILE:369:CG2:3236, V-B:TYR:539:CE2:9847, V-A:SER:385:CA:3406, V-A:SER:385:CB:3408, V-A:GLY:454:CA:4048, H-B:TYR:539:N:9841, V-B:TYR:539:CG:9843, V-B:MET:535:CE:9806, V-B:TYR:539:CZ:9848, V-B:PRO:540:CB:9856, V-B:TYR:539:CA:9840, V-B:TYR:539:CD1:9844, V-B:PRO:540:CD:9858, V-B:TYR:531:CE2:9764, V-B:LEU:363:CD1:8159, V-A:ARG:545:CZ:4925, V-B:ILE:538:CD1:9836, V-B:ILE:538:CG2:9834, V-B:ILE:538:CA:9831, V-B:TYR:539:CE1:9846"]

$$$$
4bh_Grossjean_2025
     RDKit          3D

 31 33  0  0  0  0  0  0  0  0999 V2000
  129.1900  124.0060   73.1650 C   0  0  0  0  0  0  0  0  0  0  0  0
  128.5530  125.2500   73.4330 O   0  0  0  0  0  0  0  0  0  0  0  0
  129.2470  126.4280   73.2240 C   0  0  0  0  0  0  0  0  0  0  0  0
  129.1200  127.2190   72.0720 C   0  0  0  0  0  0  0  0  0  0  0  0
  129.8550  128.3960   71.9260 C   0  0  0  0  0  0  0  0  0  0  0  0
  129.6690  129.2660   70.6890 C   0  0  0  0  0  0  0  0  0  0  0  0
  130.1730  128.6490   69.4610 N   0  0  0  0  0  0  0  0  0  0  0  0
  129.5710  127.6500   68.7840 C   0  0  0  0  0  0  0  0  0  0  0  0
  128.5270  127.1210   69.1720 O   0  0  0  0  0  0  0  0  0  0  0  0
  130.2530  127.1910   67.5740 C   0  0  0  0  0  0  0  0  0  0  0  0
  131.7840  126.3300   67.6980 S   0  0  0  0  0  0  0  0  0  0  0  0
  131.9080  126.2110   65.9580 C   0  0  0  0  0  0  0  0  0  0  0  0
  132.9410  125.6050   65.3750 N   0  0  0  0  0  0  0  0  0  0  0  0
  132.9240  125.5740   64.0220 C   0  0  0  0  0  0  0  0  0  0  0  0
  134.1120  124.8810   63.3780 C   0  0  0  0  0  0  0  0  0  0  0  0
  131.9090  126.1260   63.2470 C   0  0  0  0  0  0  0  0  0  0  0  0
  130.8180  126.7670   63.8560 C   0  0  0  0  0  0  0  0  0  0  0  0
  129.7230  127.3580   62.9610 C   0  0  0  0  0  0  0  0  0  0  0  0
  128.5400  126.7600   63.1180 F   0  0  0  0  0  0  0  0  0  0  0  0
  129.5570  128.6490   63.2440 F   0  0  0  0  0  0  0  0  0  0  0  0
  130.0690  127.2290   61.6800 F   0  0  0  0  0  0  0  0  0  0  0  0
  130.8060  126.8200   65.2810 C   0  0  0  0  0  0  0  0  0  0  0  0
  129.8820  127.3850   66.2340 C   0  0  0  0  0  0  0  0  0  0  0  0
  128.7400  128.0440   65.8600 N   0  0  0  0  0  0  0  0  0  0  0  0
  130.7060  128.8060   72.9540 C   0  0  0  0  0  0  0  0  0  0  0  0
  130.8590  128.0320   74.1140 C   0  0  0  0  0  0  0  0  0  0  0  0
  131.6940  128.3690   75.1640 O   0  0  0  0  0  0  0  0  0  0  0  0
  133.0630  127.9790   75.1200 C   0  0  0  0  0  0  0  0  0  0  0  0
  130.1280  126.8410   74.2340 C   0  0  0  0  0  0  0  0  0  0  0  0
  130.2550  126.0810   75.3740 O   0  0  0  0  0  0  0  0  0  0  0  0
  131.3440  125.1690   75.3410 C   0  0  0  0  0  0  0  0  0  0  0  0
  1  2  1  0
  2  3  1  0
  3  4  2  0
  4  5  1  0
  5  6  1  0
  6  7  1  0
  7  8  1  0
  8  9  2  0
  8 10  1  0
 10 11  1  0
 11 12  1  0
 12 13  2  0
 13 14  1  0
 14 15  1  0
 14 16  2  0
 16 17  1  0
 17 18  1  0
 18 19  1  0
 18 20  1  0
 18 21  1  0
 17 22  2  0
 22 23  1  0
 23 24  1  0
  5 25  2  0
 25 26  1  0
 26 27  1  0
 27 28  1  0
 26 29  2  0
 29 30  1  0
 30 31  1  0
 29  3  1  0
 23 10  2  0
 22 12  1  0
M  END
>  <Binding energies>  (135) 
[-6.19]

>  <Ligand effiencies>  (135) 
[-0.18205882352941177]

>  <Interactions>  (135) 
["V-A:ASP:366:CG:3212, V-B:GLU:543:CD:9879, H-A:TYR:484:OH:4347, H-B:GLU:543:OE2:9881, H-B:GLU:543:OE1:9880, V-A:GLY:454:CA:4048, V-A:GLY:453:C:4041, V-A:ARG:545:CZ:4925, V-A:HIS:456:CE1:4069, H-A:GLU:543:OE1:4908, V-A:GLU:543:CD:4907, V-B:HIS:456:CE1:9040, H-B:LYS:547:NZ:9922, V-A:HIS:456:CD2:4067, H-A:GLU:543:O:4902, V-A:GLY:544:C:4911, H-A:LYS:547:NZ:4950, V-A:LYS:547:CE:4949, V-A:GLU:543:CB:4905, V-A:GLU:543:C:4901, V-A:GLY:453:CA:4043, V-A:TYR:484:CZ:4346, V-A:LYS:547:CD:4948"]

$$$$
4bi_Grossjean_2025
     RDKit          3D

 23 25  0  0  0  0  0  0  0  0999 V2000
  133.2720  125.3590   65.2110 C   0  0  0  0  0  0  0  0  0  0  0  0
  132.5710  124.4710   64.1980 C   0  0  0  0  0  0  0  0  0  0  0  0
  133.1460  123.2760   63.7730 C   0  0  0  0  0  0  0  0  0  0  0  0
  132.4840  122.4620   62.8380 C   0  0  0  0  0  0  0  0  0  0  0  0
  133.1520  121.1530   62.4060 C   0  0  0  0  0  0  0  0  0  0  0  0
  132.2770  120.1680   62.1860 F   0  0  0  0  0  0  0  0  0  0  0  0
  133.8300  121.3430   61.2750 F   0  0  0  0  0  0  0  0  0  0  0  0
  133.9890  120.7370   63.3570 F   0  0  0  0  0  0  0  0  0  0  0  0
  131.2210  122.9180   62.3560 C   0  0  0  0  0  0  0  0  0  0  0  0
  130.2750  122.3700   61.4140 C   0  0  0  0  0  0  0  0  0  0  0  0
  130.4850  121.1840   60.7580 N   0  0  0  0  0  0  0  0  0  0  0  0
  129.1230  123.1540   61.2360 C   0  0  0  0  0  0  0  0  0  0  0  0
  127.9780  122.9070   60.3560 C   0  0  0  0  0  0  0  0  0  0  0  0
  126.8450  122.7660   60.8210 O   0  0  0  0  0  0  0  0  0  0  0  0
  128.2600  122.8690   59.0300 N   0  0  0  0  0  0  0  0  0  0  0  0
  127.3720  122.6660   57.9810 C   0  0  0  0  0  0  0  0  0  0  0  0
  126.0700  123.1640   57.9790 C   0  0  0  0  0  0  0  0  0  0  0  0
  125.5300  122.7500   56.7830 C   0  0  0  0  0  0  0  0  0  0  0  0
  126.4590  122.0410   56.0990 O   0  0  0  0  0  0  0  0  0  0  0  0
  127.6230  121.9940   56.8700 N   0  0  0  0  0  0  0  0  0  0  0  0
  129.1880  124.6150   62.2180 S   0  0  0  0  0  0  0  0  0  0  0  0
  130.7440  124.1610   62.8730 C   0  0  0  0  0  0  0  0  0  0  0  0
  131.3750  124.9280   63.7610 N   0  0  0  0  0  0  0  0  0  0  0  0
  1  2  1  0
  2  3  2  0
  3  4  1  0
  4  5  1  0
  5  6  1  0
  5  7  1  0
  5  8  1  0
  4  9  2  0
  9 10  1  0
 10 11  1  0
 10 12  2  0
 12 13  1  0
 13 14  2  0
 13 15  1  0
 15 16  1  0
 16 17  1  0
 17 18  2  0
 18 19  1  0
 19 20  1  0
 12 21  1  0
 21 22  1  0
 22 23  2  0
 23  2  1  0
 22  9  1  0
 20 16  2  0
M  END
>  <Binding energies>  (136) 
[-6.52]

>  <Ligand effiencies>  (136) 
[-0.25076923076923074]

>  <Interactions>  (136) 
["V-B:PRO:540:N:9855, H-B:ALA:541:N:9862, V-B:PRO:540:CA:9854, V-B:TYR:539:C:9838, V-A:LEU:475:CD2:4258, H-B:TYR:539:O:9839, V-A:ILE:369:CD1:3238, V-A:SER:385:C:3404, V-B:TYR:539:CD2:9845, V-A:ILE:369:CG2:3236, V-B:TYR:539:CE2:9847, V-A:SER:385:CA:3406, V-A:SER:385:CB:3408, V-A:GLY:454:CA:4048, H-B:TYR:539:N:9841, V-B:PRO:540:CB:9856, V-B:PRO:540:CD:9858, V-B:LEU:363:CD1:8159, V-A:ARG:545:CZ:4925"]

$$$$
4bj_Grossjean_2025
     RDKit          3D

 23 25  0  0  0  0  0  0  0  0999 V2000
  128.5070  117.2730   76.5780 C   0  0  0  0  0  0  0  0  0  0  0  0
  128.6450  118.6060   75.8670 C   0  0  0  0  0  0  0  0  0  0  0  0
  127.9820  118.8520   74.6670 C   0  0  0  0  0  0  0  0  0  0  0  0
  128.1240  120.0880   74.0160 C   0  0  0  0  0  0  0  0  0  0  0  0
  127.3760  120.3100   72.6970 C   0  0  0  0  0  0  0  0  0  0  0  0
  128.1400  120.8580   71.7500 F   0  0  0  0  0  0  0  0  0  0  0  0
  126.9320  119.1450   72.2280 F   0  0  0  0  0  0  0  0  0  0  0  0
  126.3420  121.1270   72.8990 F   0  0  0  0  0  0  0  0  0  0  0  0
  128.9640  121.0590   74.6370 C   0  0  0  0  0  0  0  0  0  0  0  0
  129.3470  122.4020   74.2740 C   0  0  0  0  0  0  0  0  0  0  0  0
  128.9020  123.0160   73.1310 N   0  0  0  0  0  0  0  0  0  0  0  0
  130.2040  123.0230   75.1970 C   0  0  0  0  0  0  0  0  0  0  0  0
  130.7890  124.3650   75.1390 C   0  0  0  0  0  0  0  0  0  0  0  0
  130.0840  125.3510   74.9100 O   0  0  0  0  0  0  0  0  0  0  0  0
  132.1240  124.4290   75.3650 N   0  0  0  0  0  0  0  0  0  0  0  0
  132.9130  125.5710   75.3780 C   0  0  0  0  0  0  0  0  0  0  0  0
  132.6280  126.7570   74.8870 N   0  0  0  0  0  0  0  0  0  0  0  0
  133.6110  127.6130   75.0830 C   0  0  0  0  0  0  0  0  0  0  0  0
  134.7310  127.1220   75.7470 C   0  0  0  0  0  0  0  0  0  0  0  0
  134.4720  125.4460   76.1300 S   0  0  0  0  0  0  0  0  0  0  0  0
  130.5850  121.9480   76.5390 S   0  0  0  0  0  0  0  0  0  0  0  0
  129.5830  120.6820   75.8690 C   0  0  0  0  0  0  0  0  0  0  0  0
  129.4470  119.5060   76.4810 N   0  0  0  0  0  0  0  0  0  0  0  0
  1  2  1  0
  2  3  2  0
  3  4  1  0
  4  5  1  0
  5  6  1  0
  5  7  1  0
  5  8  1  0
  4  9  2  0
  9 10  1  0
 10 11  1  0
 10 12  2  0
 12 13  1  0
 13 14  2  0
 13 15  1  0
 15 16  1  0
 16 17  2  0
 17 18  1  0
 18 19  2  0
 19 20  1  0
 12 21  1  0
 21 22  1  0
 22 23  2  0
 23  2  1  0
 22  9  1  0
 20 16  1  0
M  END
>  <Binding energies>  (137) 
[-6.01]

>  <Ligand effiencies>  (137) 
[-0.23115384615384615]

>  <Interactions>  (137) 
["H-B:GLU:543:O:9874, H-B:LYS:547:NZ:9922, V-B:GLU:543:C:9873, H-A:ASP:473:OD2:4241, V-B:GLY:544:CA:9885, V-A:ASP:473:CG:4239, V-A:TYR:484:CB:4340, V-A:TYR:484:C:4336, V-A:HIS:456:CB:4064, V-B:GLU:543:CA:9875, V-A:VAL:457:C:4072, V-A:HIS:456:C:4060, V-A:HIS:456:CG:4065, V-A:VAL:458:CG2:4086, H-A:HIS:456:ND1:4066, V-A:TYR:484:CD2:4343, V-A:TYR:484:CG:4341, V-A:TYR:484:CA:4338"]

$$$$
4bk_Grossjean_2025
     RDKit          3D

 28 29  0  0  0  0  0  0  0  0999 V2000
  127.7860  125.8670   57.5140 C   0  0  0  0  0  0  0  0  0  0  0  0
  127.7360  124.5360   58.0030 O   0  0  0  0  0  0  0  0  0  0  0  0
  128.4270  123.6050   57.1800 C   0  0  0  0  0  0  0  0  0  0  0  0
  127.6730  122.2690   57.1760 C   0  0  0  0  0  0  0  0  0  0  0  0
  127.0900  122.0600   55.8970 O   0  0  0  0  0  0  0  0  0  0  0  0
  125.6690  122.0820   55.9030 C   0  0  0  0  0  0  0  0  0  0  0  0
  125.1710  122.4610   57.3040 C   0  0  0  0  0  0  0  0  0  0  0  0
  125.2700  123.8690   57.4730 O   0  0  0  0  0  0  0  0  0  0  0  0
  124.1570  124.4470   58.1450 C   0  0  0  0  0  0  0  0  0  0  0  0
  124.2520  124.1350   59.6490 C   0  0  0  0  0  0  0  0  0  0  0  0
  125.5930  123.7400   60.0830 N   0  0  0  0  0  0  0  0  0  0  0  0
  125.9310  123.3820   61.3400 C   0  0  0  0  0  0  0  0  0  0  0  0
  125.1100  123.3360   62.2570 O   0  0  0  0  0  0  0  0  0  0  0  0
  127.3380  123.0390   61.5550 C   0  0  0  0  0  0  0  0  0  0  0  0
  128.3960  122.7450   60.1770 S   0  0  0  0  0  0  0  0  0  0  0  0
  129.7610  122.4610   61.2310 C   0  0  0  0  0  0  0  0  0  0  0  0
  130.9650  122.1610   60.7450 N   0  0  0  0  0  0  0  0  0  0  0  0
  131.9440  121.9650   61.6590 C   0  0  0  0  0  0  0  0  0  0  0  0
  133.3070  121.6270   61.0820 C   0  0  0  0  0  0  0  0  0  0  0  0
  131.7490  122.0610   63.0340 C   0  0  0  0  0  0  0  0  0  0  0  0
  130.4830  122.3750   63.5530 C   0  0  0  0  0  0  0  0  0  0  0  0
  130.3170  122.4650   65.0740 C   0  0  0  0  0  0  0  0  0  0  0  0
  130.1430  123.7160   65.5070 F   0  0  0  0  0  0  0  0  0  0  0  0
  129.2530  121.7580   65.4540 F   0  0  0  0  0  0  0  0  0  0  0  0
  131.4030  121.9820   65.6760 F   0  0  0  0  0  0  0  0  0  0  0  0
  129.4290  122.5890   62.6160 C   0  0  0  0  0  0  0  0  0  0  0  0
  128.0340  122.9250   62.7670 C   0  0  0  0  0  0  0  0  0  0  0  0
  127.4450  123.1120   63.9910 N   0  0  0  0  0  0  0  0  0  0  0  0
  1  2  1  0
  2  3  1  0
  3  4  1  0
  4  5  1  0
  5  6  1  0
  6  7  1  0
  7  8  1  0
  8  9  1  0
  9 10  1  0
 10 11  1  0
 11 12  1  0
 12 13  2  0
 12 14  1  0
 14 15  1  0
 15 16  1  0
 16 17  2  0
 17 18  1  0
 18 19  1  0
 18 20  2  0
 20 21  1  0
 21 22  1  0
 22 23  1  0
 22 24  1  0
 22 25  1  0
 21 26  2  0
 26 27  1  0
 27 28  1  0
 27 14  2  0
 26 16  1  0
M  END
>  <Binding energies>  (138) 
[-5.24]

>  <Ligand effiencies>  (138) 
[-0.16903225806451613]

>  <Interactions>  (138) 
["V-B:GLU:543:CD:9879, V-B:PRO:540:N:9855, H-B:ALA:541:N:9862, V-B:ALA:541:CB:9863, V-B:PRO:540:CA:9854, H-B:GLU:543:OE2:9881, V-B:ALA:541:CA:9861, V-B:PRO:540:C:9852, H-B:GLU:543:OE1:9880, V-B:TYR:539:C:9838, V-A:LEU:475:CD2:4258, H-B:ALA:541:O:9860, V-A:ILE:369:CD1:3238, V-B:TYR:539:CD2:9845, V-A:ILE:369:CG2:3236, V-B:TYR:539:CE2:9847, H-B:TYR:539:N:9841, V-B:TYR:539:CG:9843, V-B:MET:535:CE:9806, V-B:TYR:539:CZ:9848, V-B:GLU:543:CG:9878, V-A:LEU:475:CD1:4257, V-B:ALA:541:C:9859, V-B:PRO:540:CB:9856, V-B:TYR:539:CA:9840, V-B:TYR:539:CD1:9844, V-B:PRO:540:CD:9858, V-B:LEU:363:CD1:8159, V-B:ILE:538:CD1:9836, V-B:ILE:538:CG2:9834, H-B:ARG:545:NH2:9899, V-B:ILE:538:CA:9831, V-B:TYR:539:CE1:9846, V-B:ILE:538:C:9829, V-B:ILE:538:CB:9833, V-B:ASP:366:CB:8182, V-A:TYR:484:CZ:4346, V-A:TYR:484:CE2:4345, H-B:TYR:531:OH:9766, V-B:ASP:366:CG:8183, V-B:PRO:540:CG:9857, V-A:LEU:475:CG:4256, V-A:LEU:475:CB:4255, V-A:TYR:484:CE1:4344"]

$$$$
4cd_Grossjean_2025
     RDKit          3D

 29 32  0  0  0  0  0  0  0  0999 V2000
  132.8460  125.9350   62.7440 N   0  0  0  0  0  0  0  0  0  0  0  0
  132.2880  124.7890   63.2520 C   0  0  0  0  0  0  0  0  0  0  0  0
  131.7770  124.6950   64.5560 C   0  0  0  0  0  0  0  0  0  0  0  0
  131.7450  125.7240   65.6010 C   0  0  0  0  0  0  0  0  0  0  0  0
  132.7830  126.0930   66.1490 O   0  0  0  0  0  0  0  0  0  0  0  0
  130.5170  126.2180   65.8920 N   0  0  0  0  0  0  0  0  0  0  0  0
  130.1380  127.1620   66.8640 C   0  0  0  0  0  0  0  0  0  0  0  0
  129.1560  128.0790   66.4780 C   0  0  0  0  0  0  0  0  0  0  0  0
  128.7050  129.0440   67.3730 C   0  0  0  0  0  0  0  0  0  0  0  0
  129.2310  129.0890   68.6620 C   0  0  0  0  0  0  0  0  0  0  0  0
  130.1990  128.1730   69.0650 C   0  0  0  0  0  0  0  0  0  0  0  0
  130.6540  127.2060   68.1710 C   0  0  0  0  0  0  0  0  0  0  0  0
  131.1270  123.0880   64.8710 S   0  0  0  0  0  0  0  0  0  0  0  0
  131.5520  122.5520   63.2630 C   0  0  0  0  0  0  0  0  0  0  0  0
  131.2990  121.3110   62.8540 N   0  0  0  0  0  0  0  0  0  0  0  0
  131.6790  120.9830   61.5910 C   0  0  0  0  0  0  0  0  0  0  0  0
  131.3830  119.5760   61.1600 C   0  0  0  0  0  0  0  0  0  0  0  0
  130.2330  118.9110   61.6160 C   0  0  0  0  0  0  0  0  0  0  0  0
  129.9520  117.6060   61.2200 C   0  0  0  0  0  0  0  0  0  0  0  0
  130.8210  116.9450   60.3580 C   0  0  0  0  0  0  0  0  0  0  0  0
  131.9650  117.5810   59.8890 C   0  0  0  0  0  0  0  0  0  0  0  0
  132.2410  118.8860   60.2860 C   0  0  0  0  0  0  0  0  0  0  0  0
  132.2910  121.9070   60.7400 C   0  0  0  0  0  0  0  0  0  0  0  0
  132.5590  123.2200   61.1600 C   0  0  0  0  0  0  0  0  0  0  0  0
  133.2370  124.1810   60.1760 C   0  0  0  0  0  0  0  0  0  0  0  0
  133.5240  123.6130   59.0020 F   0  0  0  0  0  0  0  0  0  0  0  0
  132.4350  125.2180   59.9320 F   0  0  0  0  0  0  0  0  0  0  0  0
  134.3820  124.6230   60.6950 F   0  0  0  0  0  0  0  0  0  0  0  0
  132.1770  123.5720   62.4860 C   0  0  0  0  0  0  0  0  0  0  0  0
  1  2  1  0
  2  3  2  0
  3  4  1  0
  4  5  2  0
  4  6  1  0
  6  7  1  0
  7  8  2  0
  8  9  1  0
  9 10  2  0
 10 11  1  0
 11 12  2  0
  3 13  1  0
 13 14  1  0
 14 15  2  0
 15 16  1  0
 16 17  1  0
 17 18  2  0
 18 19  1  0
 19 20  2  0
 20 21  1  0
 21 22  2  0
 16 23  2  0
 23 24  1  0
 24 25  1  0
 25 26  1  0
 25 27  1  0
 25 28  1  0
 24 29  2  0
 29  2  1  0
 12  7  1  0
 29 14  1  0
 22 17  1  0
M  END
>  <Binding energies>  (139) 
[-7.97]

>  <Ligand effiencies>  (139) 
[-0.2490625]

>  <Interactions>  (139) 
["V-A:ASP:366:CG:3212, V-A:ASP:366:CB:3211, V-B:GLU:543:CD:9879, H-A:TYR:484:OH:4347, V-B:ALA:541:CB:9863, H-B:GLU:543:OE2:9881, V-B:TYR:539:C:9838, V-A:LEU:475:CD2:4258, V-A:PRO:482:CG:4326, V-A:HIS:383:CE1:3393, V-A:ILE:369:CD1:3238, V-B:TYR:539:CD2:9845, V-A:ILE:369:CG2:3236, V-B:TYR:539:CE2:9847, V-B:TYR:539:CB:9842, V-B:VAL:344:CG1:7971, V-B:TYR:539:CZ:9848, V-A:PRO:482:CB:4325, V-A:ARG:545:CZ:4925, V-A:HIS:456:CE1:4069, V-A:GLU:543:CD:4907, V-A:GLU:543:CG:4906, H-A:ASP:366:OD2:3214, V-A:GLU:543:CB:4905, H-A:ARG:545:NE:4923, V-A:TYR:484:CZ:4346, H-A:ASP:366:OD1:3213, V-A:ILE:369:CB:3235, V-A:ASP:366:CA:3209, V-A:ILE:369:CG1:3237"]

$$$$
4cg_Grossjean_2025
     RDKit          3D

 30 33  0  0  0  0  0  0  0  0999 V2000
  129.3560  125.5440   63.7870 N   0  0  0  0  0  0  0  0  0  0  0  0
  130.3980  124.6530   63.8340 C   0  0  0  0  0  0  0  0  0  0  0  0
  131.4860  124.7910   64.7080 C   0  0  0  0  0  0  0  0  0  0  0  0
  131.7130  125.8140   65.7280 C   0  0  0  0  0  0  0  0  0  0  0  0
  132.8140  126.3510   65.8650 O   0  0  0  0  0  0  0  0  0  0  0  0
  130.6620  126.0980   66.5260 N   0  0  0  0  0  0  0  0  0  0  0  0
  130.6540  127.0970   67.5920 C   0  0  0  0  0  0  0  0  0  0  0  0
  129.3360  127.1580   68.3570 C   0  0  0  0  0  0  0  0  0  0  0  0
  128.3060  127.9860   67.9010 C   0  0  0  0  0  0  0  0  0  0  0  0
  127.0900  128.0200   68.5780 C   0  0  0  0  0  0  0  0  0  0  0  0
  126.9040  127.2190   69.7030 C   0  0  0  0  0  0  0  0  0  0  0  0
  127.9210  126.3790   70.1520 C   0  0  0  0  0  0  0  0  0  0  0  0
  129.1370  126.3430   69.4750 C   0  0  0  0  0  0  0  0  0  0  0  0
  132.6300  123.4650   64.5220 S   0  0  0  0  0  0  0  0  0  0  0  0
  131.6560  122.7470   63.2600 C   0  0  0  0  0  0  0  0  0  0  0  0
  132.0240  121.6200   62.6570 N   0  0  0  0  0  0  0  0  0  0  0  0
  131.2010  121.1340   61.6900 C   0  0  0  0  0  0  0  0  0  0  0  0
  131.6450  119.8620   61.0270 C   0  0  0  0  0  0  0  0  0  0  0  0
  132.8340  119.8130   60.2810 C   0  0  0  0  0  0  0  0  0  0  0  0
  133.2490  118.6370   59.6640 C   0  0  0  0  0  0  0  0  0  0  0  0
  132.4750  117.4860   59.7810 C   0  0  0  0  0  0  0  0  0  0  0  0
  131.2920  117.5060   60.5110 C   0  0  0  0  0  0  0  0  0  0  0  0
  130.8810  118.6850   61.1260 C   0  0  0  0  0  0  0  0  0  0  0  0
  130.0230  121.7950   61.3230 C   0  0  0  0  0  0  0  0  0  0  0  0
  129.6270  122.9850   61.9530 C   0  0  0  0  0  0  0  0  0  0  0  0
  128.3250  123.6570   61.5010 C   0  0  0  0  0  0  0  0  0  0  0  0
  127.7310  123.0210   60.4890 F   0  0  0  0  0  0  0  0  0  0  0  0
  127.4600  123.6900   62.5150 F   0  0  0  0  0  0  0  0  0  0  0  0
  128.5770  124.9010   61.0970 F   0  0  0  0  0  0  0  0  0  0  0  0
  130.4750  123.4950   62.9780 C   0  0  0  0  0  0  0  0  0  0  0  0
  1  2  1  0
  2  3  2  0
  3  4  1  0
  4  5  2  0
  4  6  1  0
  6  7  1  0
  7  8  1  0
  8  9  2  0
  9 10  1  0
 10 11  2  0
 11 12  1  0
 12 13  2  0
  3 14  1  0
 14 15  1  0
 15 16  2  0
 16 17  1  0
 17 18  1  0
 18 19  2  0
 19 20  1  0
 20 21  2  0
 21 22  1  0
 22 23  2  0
 17 24  2  0
 24 25  1  0
 25 26  1  0
 26 27  1  0
 26 28  1  0
 26 29  1  0
 25 30  2  0
 30  2  1  0
 13  8  1  0
 30 15  1  0
 23 18  1  0
M  END
>  <Binding energies>  (140) 
[-8.28]

>  <Ligand effiencies>  (140) 
[-0.2509090909090909]

>  <Interactions>  (140) 
["V-B:GLU:543:CD:9879, H-A:TYR:484:OH:4347, V-B:PRO:540:CA:9854, H-B:GLU:543:OE2:9881, H-B:GLU:543:OE1:9880, V-A:LEU:475:CD2:4258, V-A:HIS:383:CE1:3393, V-B:TYR:539:CD2:9845, V-A:ILE:369:CG2:3236, V-B:TYR:539:CE2:9847, V-A:SER:385:CA:3406, V-A:GLY:454:CA:4048, V-A:HIS:456:CE1:4069, V-B:GLU:543:CB:9877, V-A:GLU:543:CD:4907, V-B:HIS:456:CE1:9040, V-B:GLU:543:C:9873, H-A:ARG:545:NH2:4927, H-A:ARG:545:NE:4923, V-A:LEU:373:CD2:3280, V-A:VAL:384:C:3396"]

$$$$
4ch_Grossjean_2025
     RDKit          3D

 36 39  0  0  0  0  0  0  0  0999 V2000
  128.0660  129.9910   64.9740 C   0  0  0  0  0  0  0  0  0  0  0  0
  127.5340  129.6810   66.2580 O   0  0  0  0  0  0  0  0  0  0  0  0
  128.1080  128.6680   67.0030 C   0  0  0  0  0  0  0  0  0  0  0  0
  129.4170  128.1980   66.8100 C   0  0  0  0  0  0  0  0  0  0  0  0
  129.9330  127.1700   67.6020 C   0  0  0  0  0  0  0  0  0  0  0  0
  131.3460  126.6540   67.3590 C   0  0  0  0  0  0  0  0  0  0  0  0
  131.4580  125.7060   66.2500 N   0  0  0  0  0  0  0  0  0  0  0  0
  132.5960  125.3940   65.5960 C   0  0  0  0  0  0  0  0  0  0  0  0
  133.6890  125.8750   65.9020 O   0  0  0  0  0  0  0  0  0  0  0  0
  132.4680  124.4150   64.5170 C   0  0  0  0  0  0  0  0  0  0  0  0
  131.8310  122.8080   64.8540 S   0  0  0  0  0  0  0  0  0  0  0  0
  131.9770  122.3500   63.1740 C   0  0  0  0  0  0  0  0  0  0  0  0
  131.6300  121.1370   62.7520 N   0  0  0  0  0  0  0  0  0  0  0  0
  131.7730  120.8740   61.4270 C   0  0  0  0  0  0  0  0  0  0  0  0
  131.3780  119.4940   60.9840 C   0  0  0  0  0  0  0  0  0  0  0  0
  132.1430  118.7980   60.0340 C   0  0  0  0  0  0  0  0  0  0  0  0
  131.7810  117.5190   59.6180 C   0  0  0  0  0  0  0  0  0  0  0  0
  130.6460  116.9160   60.1480 C   0  0  0  0  0  0  0  0  0  0  0  0
  129.8690  117.5850   61.0880 C   0  0  0  0  0  0  0  0  0  0  0  0
  130.2320  118.8640   61.4990 C   0  0  0  0  0  0  0  0  0  0  0  0
  132.2810  121.8250   60.5360 C   0  0  0  0  0  0  0  0  0  0  0  0
  132.6520  123.1080   60.9710 C   0  0  0  0  0  0  0  0  0  0  0  0
  133.2020  124.1020   59.9410 C   0  0  0  0  0  0  0  0  0  0  0  0
  134.4120  124.5680   60.2570 F   0  0  0  0  0  0  0  0  0  0  0  0
  133.2990  123.5120   58.7510 F   0  0  0  0  0  0  0  0  0  0  0  0
  132.3840  125.1500   59.8460 F   0  0  0  0  0  0  0  0  0  0  0  0
  132.4940  123.3980   62.3560 C   0  0  0  0  0  0  0  0  0  0  0  0
  132.7540  124.5730   63.1520 C   0  0  0  0  0  0  0  0  0  0  0  0
  133.2480  125.7370   62.6200 N   0  0  0  0  0  0  0  0  0  0  0  0
  129.1310  126.5920   68.5860 C   0  0  0  0  0  0  0  0  0  0  0  0
  127.8180  127.0410   68.8000 C   0  0  0  0  0  0  0  0  0  0  0  0
  126.9690  126.5150   69.7570 O   0  0  0  0  0  0  0  0  0  0  0  0
  127.4080  126.4270   71.1090 C   0  0  0  0  0  0  0  0  0  0  0  0
  127.3210  128.0840   68.0050 C   0  0  0  0  0  0  0  0  0  0  0  0
  126.0330  128.5230   68.1940 O   0  0  0  0  0  0  0  0  0  0  0  0
  125.1830  128.3230   67.0720 C   0  0  0  0  0  0  0  0  0  0  0  0
  1  2  1  0
  2  3  1  0
  3  4  2  0
  4  5  1  0
  5  6  1  0
  6  7  1  0
  7  8  1  0
  8  9  2  0
  8 10  1  0
 10 11  1  0
 11 12  1  0
 12 13  2  0
 13 14  1  0
 14 15  1  0
 15 16  2  0
 16 17  1  0
 17 18  2  0
 18 19  1  0
 19 20  2  0
 14 21  2  0
 21 22  1  0
 22 23  1  0
 23 24  1  0
 23 25  1  0
 23 26  1  0
 22 27  2  0
 27 28  1  0
 28 29  1  0
  5 30  2  0
 30 31  1  0
 31 32  1  0
 32 33  1  0
 31 34  2  0
 34 35  1  0
 35 36  1  0
 34  3  1  0
 28 10  2  0
 27 12  1  0
 20 15  1  0
M  END
>  <Binding energies>  (141) 
[-7.93]

>  <Ligand effiencies>  (141) 
[-0.20333333333333334]

>  <Interactions>  (141) 
["V-A:ASP:366:CG:3212, V-A:ASP:366:CB:3211, V-B:GLU:543:CD:9879, H-A:TYR:484:OH:4347, V-B:ALA:541:CB:9863, H-B:GLU:543:OE2:9881, V-B:TYR:539:C:9838, V-A:LEU:475:CD2:4258, V-A:PRO:482:CG:4326, V-A:HIS:383:CE1:3393, V-A:ILE:369:CD1:3238, V-B:TYR:539:CD2:9845, V-A:ILE:369:CG2:3236, V-B:TYR:539:CE2:9847, V-B:TYR:539:CB:9842, V-A:GLY:454:CA:4048, V-B:VAL:344:CG1:7971, V-B:TYR:539:CG:9843, V-B:TYR:539:CZ:9848, V-A:PRO:482:CB:4325, V-B:GLU:543:CG:9878, H-A:GLY:454:N:4049, V-A:ARG:545:CZ:4925, V-A:HIS:456:CE1:4069, V-B:GLU:543:CB:9877, V-A:GLU:543:CD:4907, V-B:HIS:456:CE1:9040, V-B:ARG:545:CD:9894, V-B:GLU:543:C:9873, V-A:GLU:543:CG:4906, V-B:ARG:545:CG:9893, H-A:ASP:366:OD2:3214, V-A:GLU:543:CB:4905, H-A:ARG:545:NE:4923, H-B:TYR:484:OH:9318, V-A:TYR:484:CZ:4346, V-B:GLY:544:C:9883, H-A:ASP:366:OD1:3213, V-A:ILE:369:CB:3235, V-B:ARG:545:CZ:9897, V-A:ASP:366:CA:3209, V-A:ILE:369:CG1:3237"]

$$$$
4cj_Grossjean_2025
     RDKit          3D

 28 31  0  0  0  0  0  0  0  0999 V2000
  132.1190  125.3670   61.2480 N   0  0  0  0  0  0  0  0  0  0  0  0
  130.9750  124.6150   61.3260 C   0  0  0  0  0  0  0  0  0  0  0  0
  130.5130  124.0390   62.5210 C   0  0  0  0  0  0  0  0  0  0  0  0
  131.1040  124.1140   63.8600 C   0  0  0  0  0  0  0  0  0  0  0  0
  130.8810  123.2370   64.6980 O   0  0  0  0  0  0  0  0  0  0  0  0
  131.8820  125.2000   64.0930 N   0  0  0  0  0  0  0  0  0  0  0  0
  132.5530  125.5080   65.2680 C   0  0  0  0  0  0  0  0  0  0  0  0
  133.8300  125.3340   65.5380 N   0  0  0  0  0  0  0  0  0  0  0  0
  134.1280  125.7430   66.7550 C   0  0  0  0  0  0  0  0  0  0  0  0
  133.0770  126.2650   67.5040 C   0  0  0  0  0  0  0  0  0  0  0  0
  131.6230  126.2140   66.5510 S   0  0  0  0  0  0  0  0  0  0  0  0
  129.0110  123.1540   62.2630 S   0  0  0  0  0  0  0  0  0  0  0  0
  129.0150  123.5570   60.5620 C   0  0  0  0  0  0  0  0  0  0  0  0
  128.0460  123.1440   59.7490 N   0  0  0  0  0  0  0  0  0  0  0  0
  128.1290  123.5130   58.4450 C   0  0  0  0  0  0  0  0  0  0  0  0
  127.0130  123.0420   57.5570 C   0  0  0  0  0  0  0  0  0  0  0  0
  127.2850  122.4510   56.3130 C   0  0  0  0  0  0  0  0  0  0  0  0
  126.2540  122.0170   55.4830 C   0  0  0  0  0  0  0  0  0  0  0  0
  124.9320  122.1710   55.8860 C   0  0  0  0  0  0  0  0  0  0  0  0
  124.6350  122.7550   57.1120 C   0  0  0  0  0  0  0  0  0  0  0  0
  125.6680  123.1860   57.9400 C   0  0  0  0  0  0  0  0  0  0  0  0
  129.1970  124.2740   57.9590 C   0  0  0  0  0  0  0  0  0  0  0  0
  130.2260  124.7130   58.8070 C   0  0  0  0  0  0  0  0  0  0  0  0
  131.3650  125.5470   58.2100 C   0  0  0  0  0  0  0  0  0  0  0  0
  131.4650  126.7630   58.7510 F   0  0  0  0  0  0  0  0  0  0  0  0
  132.5280  124.9260   58.4060 F   0  0  0  0  0  0  0  0  0  0  0  0
  131.1690  125.7080   56.9010 F   0  0  0  0  0  0  0  0  0  0  0  0
  130.1390  124.3480   60.1810 C   0  0  0  0  0  0  0  0  0  0  0  0
  1  2  1  0
  2  3  2  0
  3  4  1  0
  4  5  2  0
  4  6  1  0
  6  7  1  0
  7  8  2  0
  8  9  1  0
  9 10  2  0
 10 11  1  0
  3 12  1  0
 12 13  1  0
 13 14  2  0
 14 15  1  0
 15 16  1  0
 16 17  2  0
 17 18  1  0
 18 19  2  0
 19 20  1  0
 20 21  2  0
 15 22  2  0
 22 23  1  0
 23 24  1  0
 24 25  1  0
 24 26  1  0
 24 27  1  0
 23 28  2  0
 28  2  1  0
 11  7  1  0
 28 13  1  0
 21 16  1  0
M  END
>  <Binding energies>  (142) 
[-7.6]

>  <Ligand effiencies>  (142) 
[-0.24516129032258063]

>  <Interactions>  (142) 
["V-A:ASP:366:CG:3212, V-A:ASP:366:CB:3211, V-B:PRO:540:N:9855, H-A:TYR:484:OH:4347, V-B:PRO:540:CA:9854, V-B:TYR:539:C:9838, V-B:TYR:539:CE2:9847, V-B:TYR:539:CG:9843, V-B:MET:535:CE:9806, V-B:TYR:539:CZ:9848, V-B:PRO:540:CB:9856, H-A:GLY:454:N:4049, V-A:ARG:545:CD:4922, V-B:TYR:539:CD1:9844, V-B:PRO:540:CD:9858, V-B:TYR:531:CE2:9764, V-B:LEU:363:CD1:8159, V-A:ARG:545:CZ:4925, V-B:ILE:538:CD1:9836, V-A:ARG:545:CG:4921, V-A:HIS:456:CE1:4069, V-B:ILE:538:CG2:9834, H-A:ASP:366:OD2:3214, V-B:ILE:538:CA:9831, V-B:TYR:539:CE1:9846, V-B:ILE:538:C:9829, V-B:ILE:538:CB:9833, H-A:ARG:545:NE:4923, V-A:TYR:484:CZ:4346, H-A:ASP:366:OD1:3213, V-B:MET:535:CG:9804, V-B:PRO:540:CG:9857"]

$$$$
4ck_Grossjean_2025
     RDKit          3D

 33 35  0  0  0  0  0  0  0  0999 V2000
  130.7790  124.5710   74.5910 C   0  0  0  0  0  0  0  0  0  0  0  0
  129.4740  125.1250   74.5320 O   0  0  0  0  0  0  0  0  0  0  0  0
  128.8760  125.0250   73.2470 C   0  0  0  0  0  0  0  0  0  0  0  0
  127.9200  126.2070   73.0450 C   0  0  0  0  0  0  0  0  0  0  0  0
  127.5450  126.2730   71.6760 O   0  0  0  0  0  0  0  0  0  0  0  0
  128.6250  126.5850   70.8070 C   0  0  0  0  0  0  0  0  0  0  0  0
  128.8770  125.3970   69.8700 C   0  0  0  0  0  0  0  0  0  0  0  0
  128.9270  125.8720   68.5320 O   0  0  0  0  0  0  0  0  0  0  0  0
  129.4490  127.1890   68.4090 C   0  0  0  0  0  0  0  0  0  0  0  0
  130.7140  127.1620   67.5360 C   0  0  0  0  0  0  0  0  0  0  0  0
  130.6480  126.1260   66.5040 N   0  0  0  0  0  0  0  0  0  0  0  0
  131.5970  125.8730   65.5790 C   0  0  0  0  0  0  0  0  0  0  0  0
  132.6600  126.4920   65.5280 O   0  0  0  0  0  0  0  0  0  0  0  0
  131.2940  124.7990   64.6320 C   0  0  0  0  0  0  0  0  0  0  0  0
  132.3680  123.4080   64.5010 S   0  0  0  0  0  0  0  0  0  0  0  0
  131.3280  122.6640   63.3080 C   0  0  0  0  0  0  0  0  0  0  0  0
  131.6230  121.4840   62.7700 N   0  0  0  0  0  0  0  0  0  0  0  0
  130.7550  120.9860   61.8500 C   0  0  0  0  0  0  0  0  0  0  0  0
  131.1070  119.6440   61.2750 C   0  0  0  0  0  0  0  0  0  0  0  0
  132.2810  119.4680   60.5250 C   0  0  0  0  0  0  0  0  0  0  0  0
  132.6110  118.2260   59.9870 C   0  0  0  0  0  0  0  0  0  0  0  0
  131.7690  117.1390   60.1920 C   0  0  0  0  0  0  0  0  0  0  0  0
  130.6020  117.2840   60.9350 C   0  0  0  0  0  0  0  0  0  0  0  0
  130.2760  118.5270   61.4730 C   0  0  0  0  0  0  0  0  0  0  0  0
  129.5930  121.6710   61.4830 C   0  0  0  0  0  0  0  0  0  0  0  0
  129.2730  122.9180   62.0440 C   0  0  0  0  0  0  0  0  0  0  0  0
  127.9850  123.6170   61.5930 C   0  0  0  0  0  0  0  0  0  0  0  0
  128.1970  124.8390   61.1030 F   0  0  0  0  0  0  0  0  0  0  0  0
  127.3940  122.9000   60.6380 F   0  0  0  0  0  0  0  0  0  0  0  0
  127.1540  123.7400   62.6290 F   0  0  0  0  0  0  0  0  0  0  0  0
  130.1770  123.4510   63.0080 C   0  0  0  0  0  0  0  0  0  0  0  0
  130.1810  124.6650   63.7880 C   0  0  0  0  0  0  0  0  0  0  0  0
  129.1860  125.6040   63.7050 N   0  0  0  0  0  0  0  0  0  0  0  0
  1  2  1  0
  2  3  1  0
  3  4  1  0
  4  5  1  0
  5  6  1  0
  6  7  1  0
  7  8  1  0
  8  9  1  0
  9 10  1  0
 10 11  1  0
 11 12  1  0
 12 13  2  0
 12 14  1  0
 14 15  1  0
 15 16  1  0
 16 17  2  0
 17 18  1  0
 18 19  1  0
 19 20  2  0
 20 21  1  0
 21 22  2  0
 22 23  1  0
 23 24  2  0
 18 25  2  0
 25 26  1  0
 26 27  1  0
 27 28  1  0
 27 29  1  0
 27 30  1  0
 26 31  2  0
 31 32  1  0
 32 33  1  0
 32 14  2  0
 31 16  1  0
 24 19  1  0
M  END
>  <Binding energies>  (143) 
[-6.82]

>  <Ligand effiencies>  (143) 
[-0.18944444444444444]

>  <Interactions>  (143) 
["V-B:GLU:543:CD:9879, V-B:PRO:540:N:9855, H-A:TYR:484:OH:4347, V-B:ALA:541:CB:9863, V-B:PRO:540:CA:9854, H-B:GLU:543:OE2:9881, V-B:PRO:540:C:9852, H-B:GLU:543:OE1:9880, V-A:LEU:475:CD2:4258, V-A:PRO:482:CG:4326, V-A:HIS:383:CE1:3393, V-B:TYR:539:CD2:9845, V-B:TYR:539:CE2:9847, V-A:GLY:454:CA:4048, V-A:PRO:482:CB:4325, V-B:PRO:540:CB:9856, V-A:HIS:456:CE1:4069, V-B:GLU:543:CB:9877, V-A:GLU:543:CD:4907, V-B:LYS:547:CE:9921, H-B:LYS:547:NZ:9922, V-A:HIS:456:CD2:4067, V-B:GLU:543:C:9873, H-A:ARG:545:NH2:4927, H-A:ARG:545:NE:4923, V-A:TYR:484:CE2:4345, V-B:GLU:543:CA:9875, V-A:HIS:456:CG:4065"]

$$$$
4dd_Grossjean_2025
     RDKit          3D

 26 29  0  0  0  0  0  0  0  0999 V2000
  133.8160  124.2540   60.4590 C   0  0  0  0  0  0  0  0  0  0  0  0
  133.0120  123.3030   61.3310 C   0  0  0  0  0  0  0  0  0  0  0  0
  132.7560  122.0150   60.8430 C   0  0  0  0  0  0  0  0  0  0  0  0
  132.0220  121.0920   61.5980 C   0  0  0  0  0  0  0  0  0  0  0  0
  131.7280  119.7090   61.0970 C   0  0  0  0  0  0  0  0  0  0  0  0
  132.6010  119.0660   60.2040 C   0  0  0  0  0  0  0  0  0  0  0  0
  132.3360  117.7810   59.7380 C   0  0  0  0  0  0  0  0  0  0  0  0
  131.1880  117.1180   60.1590 C   0  0  0  0  0  0  0  0  0  0  0  0
  130.3080  117.7290   61.0450 C   0  0  0  0  0  0  0  0  0  0  0  0
  130.5780  119.0140   61.5100 C   0  0  0  0  0  0  0  0  0  0  0  0
  131.5180  121.4040   62.8230 N   0  0  0  0  0  0  0  0  0  0  0  0
  131.7660  122.6260   63.2920 C   0  0  0  0  0  0  0  0  0  0  0  0
  131.1940  123.1530   64.8590 S   0  0  0  0  0  0  0  0  0  0  0  0
  131.9330  124.7430   64.6460 C   0  0  0  0  0  0  0  0  0  0  0  0
  131.8300  125.7550   65.6990 C   0  0  0  0  0  0  0  0  0  0  0  0
  132.8240  126.0950   66.3420 O   0  0  0  0  0  0  0  0  0  0  0  0
  130.5900  126.2700   65.8900 N   0  0  0  0  0  0  0  0  0  0  0  0
  130.1460  127.2050   66.8420 C   0  0  0  0  0  0  0  0  0  0  0  0
  129.1950  128.1270   66.3940 C   0  0  0  0  0  0  0  0  0  0  0  0
  128.6810  129.0850   67.2640 C   0  0  0  0  0  0  0  0  0  0  0  0
  129.1130  129.1170   68.5870 C   0  0  0  0  0  0  0  0  0  0  0  0
  130.0500  128.1970   69.0500 C   0  0  0  0  0  0  0  0  0  0  0  0
  130.5660  127.2380   68.1820 C   0  0  0  0  0  0  0  0  0  0  0  0
  132.5820  124.8360   63.4050 C   0  0  0  0  0  0  0  0  0  0  0  0
  133.2390  125.9600   62.9700 N   0  0  0  0  0  0  0  0  0  0  0  0
  132.5040  123.6370   62.6130 C   0  0  0  0  0  0  0  0  0  0  0  0
  1  2  1  0
  2  3  2  0
  3  4  1  0
  4  5  1  0
  5  6  2  0
  6  7  1  0
  7  8  2  0
  8  9  1  0
  9 10  2  0
  4 11  2  0
 11 12  1  0
 12 13  1  0
 13 14  1  0
 14 15  1  0
 15 16  2  0
 15 17  1  0
 17 18  1  0
 18 19  2  0
 19 20  1  0
 20 21  2  0
 21 22  1  0
 22 23  2  0
 14 24  2  0
 24 25  1  0
 24 26  1  0
 26  2  1  0
 10  5  1  0
 26 12  2  0
 23 18  1  0
M  END
>  <Binding energies>  (144) 
[-8.77]

>  <Ligand effiencies>  (144) 
[-0.30241379310344824]

>  <Interactions>  (144) 
["V-A:ASP:366:CG:3212, V-A:ASP:366:CB:3211, V-B:GLU:543:CD:9879, H-A:TYR:484:OH:4347, V-B:ALA:541:CB:9863, H-B:GLU:543:OE2:9881, V-A:LEU:475:CD2:4258, V-A:PRO:482:CG:4326, V-A:HIS:383:CE1:3393, V-A:ILE:369:CD1:3238, V-B:TYR:539:CD2:9845, V-A:ILE:369:CG2:3236, V-B:TYR:539:CE2:9847, V-B:TYR:539:CB:9842, V-A:PRO:482:CB:4325, V-A:ARG:545:CZ:4925, V-A:HIS:456:CE1:4069, V-A:GLU:543:CD:4907, V-B:HIS:456:CE1:9040, V-A:GLU:543:CG:4906, H-A:ASP:366:OD2:3214, V-A:GLU:543:CB:4905, H-A:ARG:545:NE:4923, V-A:TYR:484:CZ:4346, H-A:ASP:366:OD1:3213, V-A:ILE:369:CB:3235, V-A:ASP:366:CA:3209"]

$$$$
4dg_Grossjean_2025
     RDKit          3D

 27 30  0  0  0  0  0  0  0  0999 V2000
  133.6540  124.2420   60.5400 C   0  0  0  0  0  0  0  0  0  0  0  0
  132.8110  123.3310   61.4180 C   0  0  0  0  0  0  0  0  0  0  0  0
  132.5430  122.0350   60.9610 C   0  0  0  0  0  0  0  0  0  0  0  0
  131.7730  121.1480   61.7220 C   0  0  0  0  0  0  0  0  0  0  0  0
  131.4710  119.7510   61.2580 C   0  0  0  0  0  0  0  0  0  0  0  0
  132.3600  119.0630   60.4160 C   0  0  0  0  0  0  0  0  0  0  0  0
  132.0820  117.7690   59.9800 C   0  0  0  0  0  0  0  0  0  0  0  0
  130.9080  117.1420   60.3810 C   0  0  0  0  0  0  0  0  0  0  0  0
  130.0070  117.8020   61.2120 C   0  0  0  0  0  0  0  0  0  0  0  0
  130.2880  119.0950   61.6450 C   0  0  0  0  0  0  0  0  0  0  0  0
  131.2700  121.4950   62.9380 N   0  0  0  0  0  0  0  0  0  0  0  0
  131.5230  122.7280   63.3750 C   0  0  0  0  0  0  0  0  0  0  0  0
  130.9310  123.3040   64.9150 S   0  0  0  0  0  0  0  0  0  0  0  0
  131.6880  124.8770   64.6670 C   0  0  0  0  0  0  0  0  0  0  0  0
  131.5250  125.9360   65.6620 C   0  0  0  0  0  0  0  0  0  0  0  0
  132.4430  126.2490   66.4230 O   0  0  0  0  0  0  0  0  0  0  0  0
  130.3060  126.5130   65.7150 N   0  0  0  0  0  0  0  0  0  0  0  0
  129.9230  127.6020   66.6120 C   0  0  0  0  0  0  0  0  0  0  0  0
  129.5390  127.1300   68.0090 C   0  0  0  0  0  0  0  0  0  0  0  0
  129.1650  128.0640   68.9800 C   0  0  0  0  0  0  0  0  0  0  0  0
  128.7830  127.6340   70.2470 C   0  0  0  0  0  0  0  0  0  0  0  0
  128.7660  126.2710   70.5380 C   0  0  0  0  0  0  0  0  0  0  0  0
  129.1210  125.3340   69.5710 C   0  0  0  0  0  0  0  0  0  0  0  0
  129.5020  125.7640   68.3020 C   0  0  0  0  0  0  0  0  0  0  0  0
  132.3500  124.9350   63.4320 C   0  0  0  0  0  0  0  0  0  0  0  0
  133.0140  126.0440   62.9730 N   0  0  0  0  0  0  0  0  0  0  0  0
  132.2810  123.7120   62.6780 C   0  0  0  0  0  0  0  0  0  0  0  0
  1  2  1  0
  2  3  2  0
  3  4  1  0
  4  5  1  0
  5  6  2  0
  6  7  1  0
  7  8  2  0
  8  9  1  0
  9 10  2  0
  4 11  2  0
 11 12  1  0
 12 13  1  0
 13 14  1  0
 14 15  1  0
 15 16  2  0
 15 17  1  0
 17 18  1  0
 18 19  1  0
 19 20  2  0
 20 21  1  0
 21 22  2  0
 22 23  1  0
 23 24  2  0
 14 25  2  0
 25 26  1  0
 25 27  1  0
 27  2  1  0
 10  5  1  0
 27 12  2  0
 24 19  1  0
M  END
>  <Binding energies>  (145) 
[-8.64]

>  <Ligand effiencies>  (145) 
[-0.28800000000000003]

>  <Interactions>  (145) 
["V-A:ASP:366:CG:3212, V-A:ASP:366:CB:3211, V-B:GLU:543:CD:9879, H-A:TYR:484:OH:4347, V-B:ALA:541:CB:9863, H-B:GLU:543:OE2:9881, V-B:TYR:539:C:9838, V-A:LEU:475:CD2:4258, V-A:PRO:482:CG:4326, V-A:HIS:383:CE1:3393, V-A:ILE:369:CD1:3238, V-B:TYR:539:CD2:9845, V-A:ILE:369:CG2:3236, V-B:TYR:539:CE2:9847, V-B:TYR:539:CB:9842, V-A:PRO:482:CB:4325, V-B:GLU:543:CG:9878, V-A:ARG:545:CZ:4925, V-A:HIS:456:CE1:4069, V-B:GLU:543:CB:9877, V-A:GLU:543:CD:4907, V-B:HIS:456:CE1:9040, V-A:HIS:456:CD2:4067, V-B:GLU:543:C:9873, H-A:ASP:366:OD2:3214, H-A:ARG:545:NE:4923, V-A:TYR:484:CZ:4346, V-A:TYR:484:CE2:4345, H-A:ASP:366:OD1:3213, V-B:GLU:543:CA:9875"]

$$$$
4dj_Grossjean_2025
     RDKit          3D

 25 28  0  0  0  0  0  0  0  0999 V2000
  133.9620  124.2110   60.4960 C   0  0  0  0  0  0  0  0  0  0  0  0
  133.1130  123.2810   61.3490 C   0  0  0  0  0  0  0  0  0  0  0  0
  132.8300  122.0040   60.8500 C   0  0  0  0  0  0  0  0  0  0  0  0
  132.0520  121.1010   61.5850 C   0  0  0  0  0  0  0  0  0  0  0  0
  131.7370  119.7220   61.0790 C   0  0  0  0  0  0  0  0  0  0  0  0
  130.5890  119.0400   61.5130 C   0  0  0  0  0  0  0  0  0  0  0  0
  130.2910  117.7620   61.0480 C   0  0  0  0  0  0  0  0  0  0  0  0
  131.1440  117.1420   60.1400 C   0  0  0  0  0  0  0  0  0  0  0  0
  132.2900  117.7920   59.6960 C   0  0  0  0  0  0  0  0  0  0  0  0
  132.5830  119.0700   60.1630 C   0  0  0  0  0  0  0  0  0  0  0  0
  131.5550  121.4140   62.8130 N   0  0  0  0  0  0  0  0  0  0  0  0
  131.8220  122.6300   63.2880 C   0  0  0  0  0  0  0  0  0  0  0  0
  131.2390  123.1660   64.8470 S   0  0  0  0  0  0  0  0  0  0  0  0
  132.0130  124.7400   64.6480 C   0  0  0  0  0  0  0  0  0  0  0  0
  131.8930  125.7610   65.6900 C   0  0  0  0  0  0  0  0  0  0  0  0
  132.8910  126.3500   66.1130 O   0  0  0  0  0  0  0  0  0  0  0  0
  130.6350  125.9890   66.1410 N   0  0  0  0  0  0  0  0  0  0  0  0
  130.2510  126.8950   67.1190 C   0  0  0  0  0  0  0  0  0  0  0  0
  130.5810  126.8980   68.3930 N   0  0  0  0  0  0  0  0  0  0  0  0
  130.0330  127.9120   69.0340 C   0  0  0  0  0  0  0  0  0  0  0  0
  129.2380  128.7630   68.2740 C   0  0  0  0  0  0  0  0  0  0  0  0
  129.2110  128.1950   66.6310 S   0  0  0  0  0  0  0  0  0  0  0  0
  132.6830  124.8210   63.4180 C   0  0  0  0  0  0  0  0  0  0  0  0
  133.3700  125.9320   62.9950 N   0  0  0  0  0  0  0  0  0  0  0  0
  132.5920  123.6270   62.6220 C   0  0  0  0  0  0  0  0  0  0  0  0
  1  2  1  0
  2  3  2  0
  3  4  1  0
  4  5  1  0
  5  6  2  0
  6  7  1  0
  7  8  2  0
  8  9  1  0
  9 10  2  0
  4 11  2  0
 11 12  1  0
 12 13  1  0
 13 14  1  0
 14 15  1  0
 15 16  2  0
 15 17  1  0
 17 18  1  0
 18 19  2  0
 19 20  1  0
 20 21  2  0
 21 22  1  0
 14 23  2  0
 23 24  1  0
 23 25  1  0
 25  2  1  0
 10  5  1  0
 25 12  2  0
 22 18  1  0
M  END
>  <Binding energies>  (146) 
[-8.21]

>  <Ligand effiencies>  (146) 
[-0.29321428571428576]

>  <Interactions>  (146) 
["V-A:ASP:366:CG:3212, V-A:ASP:366:CB:3211, V-B:GLU:543:CD:9879, H-A:TYR:484:OH:4347, V-B:ALA:541:CB:9863, H-B:GLU:543:OE2:9881, V-B:TYR:539:C:9838, V-A:LEU:475:CD2:4258, V-A:PRO:482:CG:4326, V-A:HIS:383:CE1:3393, V-A:ILE:369:CD1:3238, V-B:TYR:539:CD2:9845, V-A:ILE:369:CG2:3236, V-B:TYR:539:CE2:9847, V-B:TYR:539:CB:9842, V-A:PRO:482:CB:4325, V-A:ARG:545:CZ:4925, V-A:HIS:456:CE1:4069, V-A:GLU:543:CD:4907, V-A:GLU:543:CG:4906, H-A:ASP:366:OD2:3214, V-A:GLU:543:CB:4905, H-A:ARG:545:NH2:4927, H-A:ARG:545:NE:4923, V-A:TYR:484:CZ:4346, H-A:ASP:366:OD1:3213, V-A:ILE:369:CB:3235, V-A:ASP:366:CA:3209, V-A:ILE:369:CG1:3237"]

$$$$
4ea_Grossjean_2025
     RDKit          3D

 31 34  0  0  0  0  0  0  0  0999 V2000
  124.1700  124.6400   57.7590 C   0  0  0  0  0  0  0  0  0  0  0  0
  124.6260  123.2960   57.1810 C   0  0  0  0  0  0  0  0  0  0  0  0
  125.7490  123.5030   56.3350 O   0  0  0  0  0  0  0  0  0  0  0  0
  126.9050  122.8160   56.5220 C   0  0  0  0  0  0  0  0  0  0  0  0
  127.3230  121.9620   55.7330 O   0  0  0  0  0  0  0  0  0  0  0  0
  127.6240  123.1970   57.7830 C   0  0  0  0  0  0  0  0  0  0  0  0
  128.7630  124.0090   57.7010 C   0  0  0  0  0  0  0  0  0  0  0  0
  129.4520  124.3810   58.8520 C   0  0  0  0  0  0  0  0  0  0  0  0
  129.0190  123.9500   60.1070 C   0  0  0  0  0  0  0  0  0  0  0  0
  129.7940  124.3870   61.1990 N   0  0  0  0  0  0  0  0  0  0  0  0
  130.6290  125.4490   61.3140 C   0  0  0  0  0  0  0  0  0  0  0  0
  130.8560  126.2540   60.4110 O   0  0  0  0  0  0  0  0  0  0  0  0
  131.2760  125.5950   62.6210 C   0  0  0  0  0  0  0  0  0  0  0  0
  132.9700  125.1470   62.8350 S   0  0  0  0  0  0  0  0  0  0  0  0
  132.9260  125.5970   64.5230 C   0  0  0  0  0  0  0  0  0  0  0  0
  133.9970  125.4830   65.3110 N   0  0  0  0  0  0  0  0  0  0  0  0
  133.8310  125.8660   66.6010 C   0  0  0  0  0  0  0  0  0  0  0  0
  135.0610  125.7280   67.4790 C   0  0  0  0  0  0  0  0  0  0  0  0
  132.6330  126.3560   67.1160 C   0  0  0  0  0  0  0  0  0  0  0  0
  131.5130  126.4740   66.2870 C   0  0  0  0  0  0  0  0  0  0  0  0
  130.2470  126.9960   66.8480 C   0  0  0  0  0  0  0  0  0  0  0  0
  129.7200  126.4490   68.0230 C   0  0  0  0  0  0  0  0  0  0  0  0
  128.5310  126.9410   68.5530 C   0  0  0  0  0  0  0  0  0  0  0  0
  127.8650  127.9790   67.9060 C   0  0  0  0  0  0  0  0  0  0  0  0
  128.3780  128.5290   66.7330 C   0  0  0  0  0  0  0  0  0  0  0  0
  129.5680  128.0350   66.2040 C   0  0  0  0  0  0  0  0  0  0  0  0
  131.6450  126.0820   64.9260 C   0  0  0  0  0  0  0  0  0  0  0  0
  130.7220  126.0700   63.8200 C   0  0  0  0  0  0  0  0  0  0  0  0
  129.4230  126.4900   63.9480 N   0  0  0  0  0  0  0  0  0  0  0  0
  127.8790  123.1360   60.1980 C   0  0  0  0  0  0  0  0  0  0  0  0
  127.1920  122.7650   59.0460 C   0  0  0  0  0  0  0  0  0  0  0  0
  1  2  1  0
  2  3  1  0
  3  4  1  0
  4  5  2  0
  4  6  1  0
  6  7  2  0
  7  8  1  0
  8  9  2  0
  9 10  1  0
 10 11  1  0
 11 12  2  0
 11 13  1  0
 13 14  1  0
 14 15  1  0
 15 16  2  0
 16 17  1  0
 17 18  1  0
 17 19  2  0
 19 20  1  0
 20 21  1  0
 21 22  2  0
 22 23  1  0
 23 24  2  0
 24 25  1  0
 25 26  2  0
 20 27  2  0
 27 28  1  0
 28 29  1  0
  9 30  1  0
 30 31  2  0
 31  6  1  0
 28 13  2  0
 27 15  1  0
 26 21  1  0
M  END
>  <Binding energies>  (147) 
[-9.15]

>  <Ligand effiencies>  (147) 
[-0.2691176470588235]

>  <Interactions>  (147) 
["V-A:ASP:366:CG:3212, V-B:GLU:543:CD:9879, V-B:PRO:540:N:9855, H-A:TYR:484:OH:4347, V-B:PRO:540:CA:9854, H-B:GLU:543:OE2:9881, H-B:GLU:543:OE1:9880, V-B:TYR:539:C:9838, V-B:TYR:539:CE2:9847, H-B:TYR:539:N:9841, V-B:MET:535:CE:9806, V-B:TYR:539:CZ:9848, V-B:PRO:540:CB:9856, H-A:GLY:454:N:4049, V-A:GLY:453:C:4041, V-A:ARG:545:CD:4922, V-B:TYR:531:CZ:9765, V-B:TYR:531:CE2:9764, V-B:LEU:363:CD1:8159, V-A:ARG:545:CZ:4925, V-A:ARG:545:CG:4921, V-A:HIS:456:CE1:4069, V-B:GLU:543:CB:9877, V-A:GLU:543:CD:4907, V-A:GLU:543:CG:4906, H-A:ARG:545:NH1:4926, H-A:ARG:545:NH2:4927, V-A:GLY:453:CA:4043, H-A:ARG:545:NE:4923, V-B:ASP:366:CB:8182, H-B:TYR:531:OH:9766, V-A:ILE:455:C:4051, V-A:ARG:545:CB:4920"]

$$$$
4eb_Grossjean_2025
     RDKit          3D

 30 33  0  0  0  0  0  0  0  0999 V2000
  124.6150  123.6160   57.5410 C   0  0  0  0  0  0  0  0  0  0  0  0
  125.5010  123.4760   56.4390 O   0  0  0  0  0  0  0  0  0  0  0  0
  126.7140  122.8830   56.5900 C   0  0  0  0  0  0  0  0  0  0  0  0
  127.1310  121.9910   55.8470 O   0  0  0  0  0  0  0  0  0  0  0  0
  127.4980  123.4240   57.7510 C   0  0  0  0  0  0  0  0  0  0  0  0
  128.0050  122.5330   58.7070 C   0  0  0  0  0  0  0  0  0  0  0  0
  128.7350  123.0030   59.7950 C   0  0  0  0  0  0  0  0  0  0  0  0
  128.9740  124.3690   59.9510 C   0  0  0  0  0  0  0  0  0  0  0  0
  129.7230  124.7280   61.0880 N   0  0  0  0  0  0  0  0  0  0  0  0
  130.4530  125.8420   61.3420 C   0  0  0  0  0  0  0  0  0  0  0  0
  130.5810  126.7820   60.5570 O   0  0  0  0  0  0  0  0  0  0  0  0
  131.1090  125.8740   62.6520 C   0  0  0  0  0  0  0  0  0  0  0  0
  132.7850  125.3470   62.8240 S   0  0  0  0  0  0  0  0  0  0  0  0
  132.7650  125.6830   64.5400 C   0  0  0  0  0  0  0  0  0  0  0  0
  133.8330  125.4740   65.3120 N   0  0  0  0  0  0  0  0  0  0  0  0
  133.6870  125.7740   66.6250 C   0  0  0  0  0  0  0  0  0  0  0  0
  134.9150  125.5290   67.4840 C   0  0  0  0  0  0  0  0  0  0  0  0
  132.5110  126.2730   67.1800 C   0  0  0  0  0  0  0  0  0  0  0  0
  131.3930  126.4900   66.3670 C   0  0  0  0  0  0  0  0  0  0  0  0
  130.1500  127.0210   66.9720 C   0  0  0  0  0  0  0  0  0  0  0  0
  129.5140  128.1320   66.4100 C   0  0  0  0  0  0  0  0  0  0  0  0
  128.3440  128.6310   66.9770 C   0  0  0  0  0  0  0  0  0  0  0  0
  127.8110  128.0190   68.1090 C   0  0  0  0  0  0  0  0  0  0  0  0
  128.4390  126.9130   68.6780 C   0  0  0  0  0  0  0  0  0  0  0  0
  129.6090  126.4160   68.1100 C   0  0  0  0  0  0  0  0  0  0  0  0
  131.5050  126.1880   64.9830 C   0  0  0  0  0  0  0  0  0  0  0  0
  130.5800  126.2870   63.8850 C   0  0  0  0  0  0  0  0  0  0  0  0
  129.2970  126.7460   64.0480 N   0  0  0  0  0  0  0  0  0  0  0  0
  128.4700  125.2680   58.9990 C   0  0  0  0  0  0  0  0  0  0  0  0
  127.7400  124.7970   57.9110 C   0  0  0  0  0  0  0  0  0  0  0  0
  1  2  1  0
  2  3  1  0
  3  4  2  0
  3  5  1  0
  5  6  2  0
  6  7  1  0
  7  8  2  0
  8  9  1  0
  9 10  1  0
 10 11  2  0
 10 12  1  0
 12 13  1  0
 13 14  1  0
 14 15  2  0
 15 16  1  0
 16 17  1  0
 16 18  2  0
 18 19  1  0
 19 20  1  0
 20 21  2  0
 21 22  1  0
 22 23  2  0
 23 24  1  0
 24 25  2  0
 19 26  2  0
 26 27  1  0
 27 28  1  0
  8 29  1  0
 29 30  2  0
 30  5  1  0
 27 12  2  0
 26 14  1  0
 25 20  1  0
M  END
>  <Binding energies>  (148) 
[-8.92]

>  <Ligand effiencies>  (148) 
[-0.2703030303030303]

>  <Interactions>  (148) 
["V-A:ASP:366:CG:3212, V-B:GLU:543:CD:9879, V-B:PRO:540:N:9855, H-A:TYR:484:OH:4347, V-B:PRO:540:CA:9854, H-B:GLU:543:OE2:9881, H-B:GLU:543:OE1:9880, V-B:TYR:539:C:9838, V-B:TYR:539:CD2:9845, V-B:TYR:539:CE2:9847, V-A:GLY:454:CA:4048, H-B:TYR:539:N:9841, V-B:TYR:539:CG:9843, V-B:MET:535:CE:9806, V-B:PRO:540:CB:9856, H-A:GLY:454:N:4049, V-A:GLY:453:C:4041, V-A:ARG:545:CD:4922, V-B:TYR:531:CE2:9764, V-B:LEU:363:CD1:8159, V-A:ARG:545:CZ:4925, V-A:ARG:545:CG:4921, V-A:HIS:456:CE1:4069, V-B:GLU:543:CB:9877, V-A:GLU:543:CD:4907, V-A:GLU:543:CG:4906, H-A:ARG:545:NH2:4927, V-A:GLY:453:CA:4043, H-A:ARG:545:NE:4923, V-A:TYR:484:CZ:4346, H-B:TYR:531:OH:9766, V-A:ILE:455:C:4051, V-A:ARG:545:CB:4920, V-A:GLY:454:C:4046"]

$$$$
8b_Ghoteimi_2023
     RDKit          3D

 34 38  0  0  0  0  0  0  0  0999 V2000
  124.2120  132.3700   63.3910 C   0  0  0  0  0  0  0  0  0  0  0  0
  124.4580  131.3290   64.3300 O   0  0  0  0  0  0  0  0  0  0  0  0
  125.0480  130.1570   63.8960 C   0  0  0  0  0  0  0  0  0  0  0  0
  124.6680  129.6980   62.6370 C   0  0  0  0  0  0  0  0  0  0  0  0
  125.2090  128.5250   62.1180 C   0  0  0  0  0  0  0  0  0  0  0  0
  126.1460  127.7800   62.8480 C   0  0  0  0  0  0  0  0  0  0  0  0
  126.7290  126.5180   62.2960 C   0  0  0  0  0  0  0  0  0  0  0  0
  126.3330  126.0020   61.0580 C   0  0  0  0  0  0  0  0  0  0  0  0
  126.8940  124.8210   60.5640 C   0  0  0  0  0  0  0  0  0  0  0  0
  126.4440  124.2970   59.2530 C   0  0  0  0  0  0  0  0  0  0  0  0
  127.3640  124.0990   58.2230 C   0  0  0  0  0  0  0  0  0  0  0  0
  126.9420  123.5970   56.9950 C   0  0  0  0  0  0  0  0  0  0  0  0
  125.5980  123.2890   56.7780 C   0  0  0  0  0  0  0  0  0  0  0  0
  125.2700  122.7950   55.5300 O   0  0  0  0  0  0  0  0  0  0  0  0
  126.2590  122.1000   54.7770 C   0  0  0  0  0  0  0  0  0  0  0  0
  124.6740  123.4940   57.8150 C   0  0  0  0  0  0  0  0  0  0  0  0
  125.0980  123.9950   59.0430 C   0  0  0  0  0  0  0  0  0  0  0  0
  127.8800  124.1690   61.3520 C   0  0  0  0  0  0  0  0  0  0  0  0
  128.6510  122.9690   61.1540 C   0  0  0  0  0  0  0  0  0  0  0  0
  128.5240  122.1910   60.0320 N   0  0  0  0  0  0  0  0  0  0  0  0
  129.5340  122.6820   62.2070 C   0  0  0  0  0  0  0  0  0  0  0  0
  130.4630  121.5570   62.3360 C   0  0  0  0  0  0  0  0  0  0  0  0
  131.4250  121.6200   63.1050 O   0  0  0  0  0  0  0  0  0  0  0  0
  130.1820  120.4790   61.5600 N   0  0  0  0  0  0  0  0  0  0  0  0
  130.8870  119.2850   61.4860 C   0  0  0  0  0  0  0  0  0  0  0  0
  130.2680  118.0360   61.4780 C   0  0  0  0  0  0  0  0  0  0  0  0
  131.2980  117.1260   61.4000 C   0  0  0  0  0  0  0  0  0  0  0  0
  132.4760  117.7930   61.3600 O   0  0  0  0  0  0  0  0  0  0  0  0
  132.2020  119.1610   61.4140 N   0  0  0  0  0  0  0  0  0  0  0  0
  129.4300  123.9020   63.4770 S   0  0  0  0  0  0  0  0  0  0  0  0
  128.2090  124.7860   62.5930 C   0  0  0  0  0  0  0  0  0  0  0  0
  127.6730  125.9110   63.0650 N   0  0  0  0  0  0  0  0  0  0  0  0
  126.5260  128.2480   64.1130 C   0  0  0  0  0  0  0  0  0  0  0  0
  125.9860  129.4210   64.6350 C   0  0  0  0  0  0  0  0  0  0  0  0
  1  2  1  0
  2  3  1  0
  3  4  2  0
  4  5  1  0
  5  6  2  0
  6  7  1  0
  7  8  2  0
  8  9  1  0
  9 10  1  0
 10 11  2  0
 11 12  1  0
 12 13  2  0
 13 14  1  0
 14 15  1  0
 13 16  1  0
 16 17  2  0
  9 18  2  0
 18 19  1  0
 19 20  1  0
 19 21  2  0
 21 22  1  0
 22 23  2  0
 22 24  1  0
 24 25  1  0
 25 26  1  0
 26 27  2  0
 27 28  1  0
 28 29  1  0
 21 30  1  0
 30 31  1  0
 31 32  2  0
  6 33  1  0
 33 34  2  0
 34  3  1  0
 32  7  1  0
 17 10  1  0
 31 18  1  0
 29 25  2  0
M  END
>  <Binding energies>  (149) 
[-7.83]

>  <Ligand effiencies>  (149) 
[-0.21162162162162163]

>  <Interactions>  (149) 
["V-B:GLU:543:CD:9879, V-B:PRO:540:N:9855, V-B:ALA:541:CB:9863, V-B:PRO:540:CA:9854, V-B:TYR:539:C:9838, V-A:LEU:475:CD2:4258, V-A:PRO:482:CG:4326, V-A:HIS:383:CE1:3393, H-B:TYR:539:O:9839, V-B:TYR:539:CD2:9845, V-B:TYR:539:CE2:9847, V-B:MET:535:CE:9806, V-A:PRO:482:CB:4325, V-B:PRO:540:CB:9856, V-B:TYR:531:CZ:9765, V-B:TYR:531:CE2:9764, V-B:LEU:363:CD1:8159, V-B:ILE:538:CD1:9836, V-B:ILE:538:CG2:9834, V-B:ILE:538:CA:9831, V-B:ILE:538:CG1:9835, V-B:ILE:538:C:9829, V-B:ILE:538:CB:9833, H-B:TYR:531:OH:9766, V-B:ASP:366:CG:8183, V-B:MET:535:CG:9804, V-B:VAL:537:C:9821, V-B:ARG:545:CZ:9897, V-B:LEU:475:CD1:9228, V-B:GLY:454:CA:9019, H-B:GLY:454:N:9020"]

$$$$
9d_Ghoteimi_2023
     RDKit          3D

 38 43  0  0  0  0  0  0  0  0999 V2000
  135.1300  124.9200   76.4830 C   0  0  0  0  0  0  0  0  0  0  0  0
  133.8660  125.4690   76.8270 O   0  0  0  0  0  0  0  0  0  0  0  0
  133.4430  126.6390   76.2820 C   0  0  0  0  0  0  0  0  0  0  0  0
  133.9280  127.7410   76.5530 O   0  0  0  0  0  0  0  0  0  0  0  0
  132.3290  126.4600   75.3250 C   0  0  0  0  0  0  0  0  0  0  0  0
  131.8270  127.8050   74.3010 S   0  0  0  0  0  0  0  0  0  0  0  0
  130.6040  126.8170   73.5370 C   0  0  0  0  0  0  0  0  0  0  0  0
  129.8330  127.2930   72.5600 N   0  0  0  0  0  0  0  0  0  0  0  0
  128.9250  126.4400   72.0190 C   0  0  0  0  0  0  0  0  0  0  0  0
  128.0880  126.9880   70.9080 C   0  0  0  0  0  0  0  0  0  0  0  0
  126.7270  126.6780   70.8250 C   0  0  0  0  0  0  0  0  0  0  0  0
  125.9400  127.1810   69.7930 C   0  0  0  0  0  0  0  0  0  0  0  0
  126.4840  128.0250   68.8110 C   0  0  0  0  0  0  0  0  0  0  0  0
  125.7090  128.5250   67.7580 N   0  0  0  0  0  0  0  0  0  0  0  0
  124.4030  129.1680   68.0030 C   0  0  0  0  0  0  0  0  0  0  0  0
  123.5430  129.3400   66.7340 C   0  0  0  0  0  0  0  0  0  0  0  0
  124.2770  130.0390   65.7420 O   0  0  0  0  0  0  0  0  0  0  0  0
  125.4530  129.3370   65.3750 C   0  0  0  0  0  0  0  0  0  0  0  0
  126.3730  129.1630   66.6020 C   0  0  0  0  0  0  0  0  0  0  0  0
  127.8520  128.3200   68.8900 C   0  0  0  0  0  0  0  0  0  0  0  0
  128.6400  127.8140   69.9210 C   0  0  0  0  0  0  0  0  0  0  0  0
  128.7680  125.1290   72.4770 C   0  0  0  0  0  0  0  0  0  0  0  0
  129.5630  124.6300   73.5150 C   0  0  0  0  0  0  0  0  0  0  0  0
  129.3360  123.2370   73.9830 C   0  0  0  0  0  0  0  0  0  0  0  0
  130.3990  122.3370   74.0850 C   0  0  0  0  0  0  0  0  0  0  0  0
  130.1840  121.0390   74.5410 C   0  0  0  0  0  0  0  0  0  0  0  0
  128.9020  120.6120   74.9230 C   0  0  0  0  0  0  0  0  0  0  0  0
  128.6600  119.3130   75.3740 N   0  0  0  0  0  0  0  0  0  0  0  0
  127.5360  118.5510   74.7960 C   0  0  0  0  0  0  0  0  0  0  0  0
  127.6160  117.0360   75.0830 C   0  0  0  0  0  0  0  0  0  0  0  0
  127.7160  116.8100   76.4810 O   0  0  0  0  0  0  0  0  0  0  0  0
  128.8730  117.4240   77.0300 C   0  0  0  0  0  0  0  0  0  0  0  0
  128.8200  118.9490   76.7950 C   0  0  0  0  0  0  0  0  0  0  0  0
  127.8430  121.5240   74.8150 C   0  0  0  0  0  0  0  0  0  0  0  0
  128.0570  122.8210   74.3570 C   0  0  0  0  0  0  0  0  0  0  0  0
  130.5490  125.4940   74.0680 C   0  0  0  0  0  0  0  0  0  0  0  0
  131.5610  125.3160   75.0760 C   0  0  0  0  0  0  0  0  0  0  0  0
  131.7700  124.1230   75.7190 N   0  0  0  0  0  0  0  0  0  0  0  0
  1  2  1  0
  2  3  1  0
  3  4  2  0
  3  5  1  0
  5  6  1  0
  6  7  1  0
  7  8  2  0
  8  9  1  0
  9 10  1  0
 10 11  2  0
 11 12  1  0
 12 13  2  0
 13 14  1  0
 14 15  1  0
 15 16  1  0
 16 17  1  0
 17 18  1  0
 18 19  1  0
 13 20  1  0
 20 21  2  0
  9 22  2  0
 22 23  1  0
 23 24  1  0
 24 25  2  0
 25 26  1  0
 26 27  2  0
 27 28  1  0
 28 29  1  0
 29 30  1  0
 30 31  1  0
 31 32  1  0
 32 33  1  0
 27 34  1  0
 34 35  2  0
 23 36  2  0
 36 37  1  0
 37 38  1  0
 37  5  2  0
 36  7  1  0
 21 10  1  0
 35 24  1  0
 19 14  1  0
 33 28  1  0
M  END
>  <Binding energies>  (150) 
[-8.79]

>  <Ligand effiencies>  (150) 
[-0.21974999999999997]

>  <Interactions>  (150) 
["V-B:GLU:543:CD:9879, V-A:HIS:456:CE1:4069, V-B:GLU:543:CB:9877, V-B:HIS:456:CE1:9040, V-B:LYS:547:CE:9921, V-A:HIS:456:CD2:4067, V-B:ARG:545:CD:9894, V-B:GLU:543:C:9873, V-B:ARG:545:CG:9893, H-A:ASP:473:OD2:4241, V-A:ASP:473:CG:4239, V-A:TYR:484:CB:4340, H-B:TYR:484:OH:9318, V-B:GLY:544:C:9883, V-B:ARG:545:CZ:9897, V-A:HIS:456:CB:4064, V-A:VAL:457:C:4072, V-A:HIS:456:C:4060, V-A:VAL:457:CA:4074, V-A:HIS:456:CG:4065, V-A:VAL:458:CG2:4086, V-A:LYS:471:CD:4218, V-B:ARG:545:CA:9890, H-B:GLY:454:N:9020"]

$$$$
RR10_Rahimova_2017
     RDKit          3D

 34 38  0  0  0  0  0  0  0  0999 V2000
  132.0440  116.7690   58.1250 C   0  0  0  0  0  0  0  0  0  0  0  0
  132.3210  117.4720   59.4650 C   0  0  1  0  0  0  0  0  0  0  0  0
  132.5360  118.9920   59.2850 C   0  0  0  0  0  0  0  0  0  0  0  0
  132.8480  119.6720   60.6380 C   0  0  0  0  0  0  0  0  0  0  0  0
  131.7260  119.4380   61.6820 C   0  0  1  0  0  0  0  0  0  0  0  0
  130.4980  120.1440   61.2930 N   0  0  0  0  0  0  0  0  0  0  0  0
  130.0810  121.3190   61.7990 C   0  0  0  0  0  0  0  0  0  0  0  0
  130.7170  121.9490   62.6480 O   0  0  0  0  0  0  0  0  0  0  0  0
  128.7330  121.8600   61.2770 C   0  0  1  0  0  0  0  0  0  0  0  0
  128.1510  122.8670   62.3030 C   0  0  0  0  0  0  0  0  0  0  0  0
  126.8470  123.4820   61.7410 C   0  0  0  0  0  0  0  0  0  0  0  0
  127.0310  124.0660   60.3210 C   0  0  0  0  0  0  0  0  0  0  0  0
  127.6520  123.0620   59.4160 N   0  0  0  0  0  0  0  0  0  0  0  0
  127.6380  123.5100   57.7020 S   0  0  0  0  0  0  0  0  0  0  0  0
  126.2400  123.6480   57.2780 O   0  0  0  0  0  0  0  0  0  0  0  0
  128.5400  122.5970   56.9900 O   0  0  0  0  0  0  0  0  0  0  0  0
  128.3580  125.1510   57.6450 C   0  0  0  0  0  0  0  0  0  0  0  0
  128.0040  126.0180   56.6060 C   0  0  0  0  0  0  0  0  0  0  0  0
  128.5310  127.3090   56.5020 C   0  0  0  0  0  0  0  0  0  0  0  0
  129.4340  127.6960   57.4950 C   0  0  0  0  0  0  0  0  0  0  0  0
  130.1510  128.8430   57.7350 N   0  0  0  0  0  0  0  0  0  0  0  0
  130.8930  128.6480   58.8820 C   0  0  0  0  0  0  0  0  0  0  0  0
  131.8150  129.6830   59.4610 C   0  0  0  0  0  0  0  0  0  0  0  0
  131.7280  130.0330   60.8150 C   0  0  0  0  0  0  0  0  0  0  0  0
  132.5850  130.9890   61.3540 C   0  0  0  0  0  0  0  0  0  0  0  0
  133.5340  131.6020   60.5400 C   0  0  0  0  0  0  0  0  0  0  0  0
  133.6340  131.2650   59.1940 C   0  0  0  0  0  0  0  0  0  0  0  0
  132.7770  130.3080   58.6560 C   0  0  0  0  0  0  0  0  0  0  0  0
  130.6970  127.4560   59.3990 N   0  0  0  0  0  0  0  0  0  0  0  0
  129.8020  126.8420   58.5630 C   0  0  0  0  0  0  0  0  0  0  0  0
  129.2550  125.5530   58.6420 C   0  0  0  0  0  0  0  0  0  0  0  0
  128.9560  122.5490   59.9080 C   0  0  0  0  0  0  0  0  0  0  0  0
  131.5100  117.9080   61.8400 C   0  0  0  0  0  0  0  0  0  0  0  0
  131.1900  117.2260   60.4910 C   0  0  0  0  0  0  0  0  0  0  0  0
  2  1  1  6
  2  3  1  0
  3  4  1  0
  4  5  1  0
  5  6  1  6
  6  7  1  0
  7  8  2  0
  9  7  1  1
  9 10  1  0
 10 11  1  0
 11 12  1  0
 12 13  1  0
 13 14  1  0
 14 15  2  0
 14 16  2  0
 14 17  1  0
 17 18  2  0
 18 19  1  0
 19 20  2  0
 20 21  1  0
 21 22  1  0
 22 23  1  0
 23 24  2  0
 24 25  1  0
 25 26  2  0
 26 27  1  0
 27 28  2  0
 22 29  2  0
 29 30  1  0
 30 31  2  0
 13 32  1  0
  5 33  1  0
 33 34  1  0
 34  2  1  0
 32  9  1  0
 31 17  1  0
 30 20  1  0
 28 23  1  0
M  END
>  <Binding energies>  (151) 
[-9.75]

>  <Ligand effiencies>  (151) 
[-0.2708333333333333]

>  <Interactions>  (151) 
["V-A:LEU:363:CA:3184, V-A:ASP:366:CG:3212, V-A:ASN:362:C:3171, V-A:PRO:540:CB:4884, V-A:ASP:366:CB:3211, H-A:TYR:531:OH:4794, V-A:PRO:540:CA:4882, V-B:ALA:541:CB:9863, V-B:PRO:540:CA:9854, V-B:PRO:540:C:9852, V-B:TYR:539:C:9838, V-A:LEU:475:CD2:4258, V-A:HIS:383:CE1:3393, H-B:TYR:539:O:9839, V-B:TYR:539:CD2:9845, V-A:ILE:369:CG2:3236, V-B:TYR:539:CE2:9847, V-B:TYR:539:CB:9842, V-A:SER:385:CA:3406, V-A:SER:385:CB:3408, V-A:LEU:373:CD1:3279, V-B:TYR:539:CG:9843, V-B:MET:535:CE:9806, V-A:PRO:482:CB:4325, V-A:LEU:373:CG:3278, V-A:LEU:373:CD2:3280, H-B:TYR:531:OH:9766, V-A:ASN:362:CB:3175, V-A:HIS:383:CG:3389, V-A:HIS:383:CB:3388"]

$$$$
RR12_Rahimova_2017
     RDKit          3D

 26 28  0  0  0  0  0  0  0  0999 V2000
  133.3000  123.9050   59.3160 C   0  0  0  0  0  0  0  0  0  0  0  0
  132.2890  123.4970   60.3960 C   0  0  0  0  0  0  0  0  0  0  0  0
  132.8460  122.4290   61.3550 C   0  0  0  0  0  0  0  0  0  0  0  0
  131.9730  121.2590   61.3920 N   0  0  0  0  0  0  0  0  0  0  0  0
  130.7480  121.1400   62.0300 C   0  0  0  0  0  0  0  0  0  0  0  0
  130.1170  122.2400   62.8650 C   0  0  0  0  0  0  0  0  0  0  0  0
  128.6090  122.3940   62.5910 C   0  0  0  0  0  0  0  0  0  0  0  0
  128.1460  123.8630   62.6190 C   0  0  0  0  0  0  0  0  0  0  0  0
  127.1310  124.1810   61.6150 N   0  0  0  0  0  0  0  0  0  0  0  0
  125.8500  123.7740   61.6560 C   0  0  0  0  0  0  0  0  0  0  0  0
  125.3930  123.0720   62.5610 O   0  0  0  0  0  0  0  0  0  0  0  0
  124.9670  124.2420   60.4930 C   0  0  0  0  0  0  0  0  0  0  0  0
  125.7930  124.7030   59.4230 O   0  0  0  0  0  0  0  0  0  0  0  0
  125.9910  123.8920   58.3220 C   0  0  0  0  0  0  0  0  0  0  0  0
  124.8920  123.7110   57.4790 C   0  0  0  0  0  0  0  0  0  0  0  0
  124.9950  122.9130   56.3430 C   0  0  0  0  0  0  0  0  0  0  0  0
  126.2040  122.2920   56.0450 C   0  0  0  0  0  0  0  0  0  0  0  0
  127.3100  122.4590   56.8760 C   0  0  0  0  0  0  0  0  0  0  0  0
  127.2050  123.2570   58.0130 C   0  0  0  0  0  0  0  0  0  0  0  0
  130.1850  119.9690   61.8590 N   0  0  0  0  0  0  0  0  0  0  0  0
  131.0480  119.2780   61.0550 C   0  0  0  0  0  0  0  0  0  0  0  0
  130.9320  117.9750   60.5490 C   0  0  0  0  0  0  0  0  0  0  0  0
  131.9560  117.4930   59.7330 C   0  0  0  0  0  0  0  0  0  0  0  0
  133.0670  118.2780   59.4250 C   0  0  0  0  0  0  0  0  0  0  0  0
  133.2130  119.5780   59.9140 C   0  0  0  0  0  0  0  0  0  0  0  0
  132.1850  120.0610   60.7330 C   0  0  0  0  0  0  0  0  0  0  0  0
  1  2  1  0
  2  3  1  0
  3  4  1  0
  4  5  1  0
  5  6  1  0
  6  7  1  0
  7  8  1  0
  8  9  1  0
  9 10  1  0
 10 11  2  0
 10 12  1  0
 12 13  1  0
 13 14  1  0
 14 15  2  0
 15 16  1  0
 16 17  2  0
 17 18  1  0
 18 19  2  0
  5 20  2  0
 20 21  1  0
 21 22  2  0
 22 23  1  0
 23 24  2  0
 24 25  1  0
 25 26  2  0
 26  4  1  0
 19 14  1  0
 26 21  1  0
M  END
>  <Binding energies>  (152) 
[-7.66]

>  <Ligand effiencies>  (152) 
[-0.28370370370370374]

>  <Interactions>  (152) 
["V-A:ASP:366:CG:3212, V-B:GLU:543:CD:9879, V-B:PRO:540:N:9855, H-B:ALA:541:N:9862, V-B:ALA:541:CB:9863, V-B:PRO:540:CA:9854, V-B:ALA:541:CA:9861, V-B:TYR:539:C:9838, V-A:LEU:475:CD2:4258, V-A:HIS:383:CE1:3393, V-A:ILE:369:CD1:3238, V-B:TYR:539:CD2:9845, V-A:ILE:369:CG2:3236, V-B:TYR:539:CE2:9847, V-B:TYR:539:CB:9842, V-A:SER:385:CA:3406, V-B:TYR:539:CG:9843, V-B:MET:535:CE:9806, V-B:PRO:540:CB:9856, V-B:TYR:539:CA:9840, V-B:TYR:539:CD1:9844, V-B:TYR:531:CZ:9765, V-B:PRO:540:CD:9858, V-B:TYR:531:CE2:9764, V-B:LEU:363:CD1:8159, V-B:ILE:538:CA:9831, V-B:ILE:538:C:9829, V-A:LEU:373:CD2:3280, V-A:VAL:384:C:3396, V-A:ILE:369:CB:3235"]

$$$$
RR13_Rahimova_2017
     RDKit          3D

 48 54  0  0  0  0  0  0  0  0999 V2000
  127.4770  131.3710   58.4440 Cl  0  0  0  0  0  0  0  0  0  0  0  0
  127.6320  132.0960   60.0090 C   0  0  0  0  0  0  0  0  0  0  0  0
  126.5340  132.7970   60.5130 C   0  0  0  0  0  0  0  0  0  0  0  0
  126.6030  133.4210   61.7550 C   0  0  0  0  0  0  0  0  0  0  0  0
  127.7750  133.3500   62.5030 C   0  0  0  0  0  0  0  0  0  0  0  0
  128.8750  132.6530   62.0080 C   0  0  0  0  0  0  0  0  0  0  0  0
  128.8210  132.0070   60.7610 C   0  0  0  0  0  0  0  0  0  0  0  0
  130.0620  131.2620   60.2230 C   0  0  1  0  0  0  0  0  0  0  0  0
  131.3370  131.7190   60.9470 C   0  0  0  0  0  0  0  0  0  0  0  0
  131.4170  132.1990   62.1690 N   0  0  0  0  0  0  0  0  0  0  0  0
  132.7610  132.4960   62.3740 N   0  0  0  0  0  0  0  0  0  0  0  0
  133.4910  132.2010   61.2390 N   0  0  0  0  0  0  0  0  0  0  0  0
  132.5860  131.7460   60.3650 N   0  0  0  0  0  0  0  0  0  0  0  0
  133.0010  131.2930   59.0420 C   0  0  0  0  0  0  0  0  0  0  0  0
  133.2760  132.5010   58.1260 C   0  0  0  0  0  0  0  0  0  0  0  0
  132.0690  132.8610   57.2740 C   0  0  0  0  0  0  0  0  0  0  0  0
  130.8440  133.1470   57.8840 C   0  0  0  0  0  0  0  0  0  0  0  0
  129.7380  133.4690   57.1030 C   0  0  0  0  0  0  0  0  0  0  0  0
  129.8600  133.5060   55.7150 C   0  0  0  0  0  0  0  0  0  0  0  0
  131.0780  133.2220   55.1010 C   0  0  0  0  0  0  0  0  0  0  0  0
  132.1850  132.8980   55.8820 C   0  0  0  0  0  0  0  0  0  0  0  0
  129.9110  129.7870   60.2220 N   0  0  0  0  0  0  0  0  0  0  0  0
  130.7970  129.1750   61.2300 C   0  0  0  0  0  0  0  0  0  0  0  0
  130.5490  127.6520   61.3270 C   0  0  0  0  0  0  0  0  0  0  0  0
  130.8310  126.9960   60.0400 N   0  0  0  0  0  0  0  0  0  0  0  0
  130.6850  125.5240   60.1100 C   0  0  1  0  0  0  0  0  0  0  0  0
  129.4110  124.9490   59.4540 C   0  0  0  0  0  0  0  0  0  0  0  0
  129.4810  124.6270   58.0910 C   0  0  0  0  0  0  0  0  0  0  0  0
  128.3850  124.0870   57.4210 C   0  0  0  0  0  0  0  0  0  0  0  0
  127.1930  123.8660   58.1050 C   0  0  0  0  0  0  0  0  0  0  0  0
  127.0970  124.1940   59.4540 C   0  0  0  0  0  0  0  0  0  0  0  0
  128.1880  124.7390   60.1340 C   0  0  0  0  0  0  0  0  0  0  0  0
  127.9470  125.1770   61.7920 Cl  0  0  0  0  0  0  0  0  0  0  0  0
  131.9200  124.7730   59.6060 C   0  0  0  0  0  0  0  0  0  0  0  0
  132.5440  125.0050   58.4750 N   0  0  0  0  0  0  0  0  0  0  0  0
  133.6080  124.1100   58.4350 N   0  0  0  0  0  0  0  0  0  0  0  0
  133.6220  123.3400   59.5800 N   0  0  0  0  0  0  0  0  0  0  0  0
  132.5830  123.7810   60.2980 N   0  0  0  0  0  0  0  0  0  0  0  0
  132.2730  123.1700   61.5860 C   0  0  0  0  0  0  0  0  0  0  0  0
  131.0880  122.1970   61.4480 C   0  0  0  0  0  0  0  0  0  0  0  0
  131.5440  120.7740   61.1640 C   0  0  0  0  0  0  0  0  0  0  0  0
  130.6740  119.7040   61.3910 C   0  0  0  0  0  0  0  0  0  0  0  0
  131.0890  118.4020   61.1250 C   0  0  0  0  0  0  0  0  0  0  0  0
  132.3740  118.1740   60.6330 C   0  0  0  0  0  0  0  0  0  0  0  0
  133.2450  119.2370   60.4040 C   0  0  0  0  0  0  0  0  0  0  0  0
  132.8310  120.5390   60.6690 C   0  0  0  0  0  0  0  0  0  0  0  0
  129.9400  127.6070   59.0370 C   0  0  0  0  0  0  0  0  0  0  0  0
  130.2000  129.1270   58.9370 C   0  0  0  0  0  0  0  0  0  0  0  0
  1  2  1  0
  2  3  2  0
  3  4  1  0
  4  5  2  0
  5  6  1  0
  6  7  2  0
  7  8  1  0
  8  9  1  0
  9 10  2  0
 10 11  1  0
 11 12  2  0
 12 13  1  0
 13 14  1  0
 14 15  1  0
 15 16  1  0
 16 17  2  0
 17 18  1  0
 18 19  2  0
 19 20  1  0
 20 21  2  0
  8 22  1  1
 22 23  1  0
 23 24  1  0
 24 25  1  0
 26 25  1  6
 26 27  1  0
 27 28  2  0
 28 29  1  0
 29 30  2  0
 30 31  1  0
 31 32  2  0
 32 33  1  0
 26 34  1  0
 34 35  2  0
 35 36  1  0
 36 37  2  0
 37 38  1  0
 38 39  1  0
 39 40  1  0
 40 41  1  0
 41 42  2  0
 42 43  1  0
 43 44  2  0
 44 45  1  0
 45 46  2  0
 25 47  1  0
 47 48  1  0
  7  2  1  0
 13  9  1  0
 21 16  1  0
 48 22  1  0
 32 27  1  0
 38 34  1  0
 46 41  1  0
M  END
>  <Binding energies>  (153) 
[-13.67]

>  <Ligand effiencies>  (153) 
[-0.28479166666666667]

>  <Interactions>  (153) 
["V-A:LEU:363:CA:3184, V-A:TYR:539:CG:4871, V-A:TYR:539:CZ:4876, V-A:ASP:366:CG:3212, H-A:ALA:541:N:4890, V-A:PRO:540:CB:4884, V-A:TYR:539:CE1:4874, V-A:TYR:539:CD1:4872, V-A:PRO:540:CA:4882, V-A:TYR:531:CE2:4792, V-A:TYR:531:CZ:4793, V-A:ILE:538:CA:4859, V-A:LEU:363:CD1:3188, V-B:ALA:541:CB:9863, V-A:LEU:475:CD2:4258, V-B:TYR:539:CD2:9845, V-A:ILE:369:CG2:3236, V-B:TYR:539:CE2:9847, V-A:SER:385:CA:3406, V-A:SER:385:CB:3408, V-B:MET:535:CE:9806, H-B:TYR:539:OH:9849, V-B:TYR:539:CZ:9848, V-A:ILE:538:CB:4861, V-A:ILE:538:CG2:4862, V-A:PRO:540:N:4883, V-A:MET:535:CG:4832, V-A:PRO:540:CD:4886, V-A:ALA:541:CB:4891, V-A:TYR:539:C:4866, V-A:LEU:363:CB:3186, V-A:TYR:539:CA:4868, H-A:LEU:363:N:3185"]

$$$$
RR14_Rahimova_2017
     RDKit          3D

 39 43  0  0  0  0  0  0  0  0999 V2000
  131.0540  117.3380   59.9800 C   0  0  0  0  0  0  0  0  0  0  0  0
  130.7850  118.1800   61.0960 O   0  0  0  0  0  0  0  0  0  0  0  0
  131.3620  119.4340   61.1460 C   0  0  0  0  0  0  0  0  0  0  0  0
  130.5230  120.4920   61.4990 C   0  0  0  0  0  0  0  0  0  0  0  0
  131.0090  121.7940   61.5520 C   0  0  0  0  0  0  0  0  0  0  0  0
  132.3470  122.0530   61.2450 C   0  0  0  0  0  0  0  0  0  0  0  0
  132.8670  123.4860   61.2390 C   0  0  0  0  0  0  0  0  0  0  0  0
  132.8910  124.0870   59.9050 N   0  0  0  0  0  0  0  0  0  0  0  0
  133.9390  123.8960   59.0970 N   0  0  0  0  0  0  0  0  0  0  0  0
  133.6400  124.6180   57.9580 N   0  0  0  0  0  0  0  0  0  0  0  0
  132.4070  125.2460   58.1000 N   0  0  0  0  0  0  0  0  0  0  0  0
  131.9740  124.9140   59.2930 C   0  0  0  0  0  0  0  0  0  0  0  0
  130.6650  125.3830   59.9130 C   0  0  0  0  0  0  0  0  0  0  0  0
  129.8450  126.1650   58.9720 N   0  0  0  0  0  0  0  0  0  0  0  0
  128.6780  125.4070   58.5010 C   0  0  0  0  0  0  0  0  0  0  0  0
  128.3420  124.1860   59.3850 C   0  0  0  0  0  0  0  0  0  0  0  0
  128.3980  122.8410   58.6310 C   0  0  0  0  0  0  0  0  0  0  0  0
  127.1770  122.5500   57.8730 N   0  0  0  0  0  0  0  0  0  0  0  0
  127.4890  122.3800   56.4480 C   0  0  0  0  0  0  0  0  0  0  0  0
  126.2170  122.1230   55.6130 C   0  0  0  0  0  0  0  0  0  0  0  0
  125.2660  123.1590   55.8380 O   0  0  0  0  0  0  0  0  0  0  0  0
  124.8790  123.2470   57.2040 C   0  0  0  0  0  0  0  0  0  0  0  0
  126.1110  123.5400   58.0870 C   0  0  0  0  0  0  0  0  0  0  0  0
  129.4220  127.4260   59.5970 C   0  0  0  0  0  0  0  0  0  0  0  0
  129.8450  128.7050   58.8790 C   0  0  0  0  0  0  0  0  0  0  0  0
  131.0150  129.3210   59.1780 C   0  0  0  0  0  0  0  0  0  0  0  0
  131.4290  130.5810   58.5260 C   0  0  0  0  0  0  0  0  0  0  0  0
  132.6430  131.2350   58.7970 C   0  0  0  0  0  0  0  0  0  0  0  0
  133.6410  130.6790   59.8040 C   0  0  0  0  0  0  0  0  0  0  0  0
  132.9400  132.4220   58.1230 C   0  0  0  0  0  0  0  0  0  0  0  0
  132.0490  132.9560   57.1930 C   0  0  0  0  0  0  0  0  0  0  0  0
  130.8390  132.3110   56.9160 C   0  0  0  0  0  0  0  0  0  0  0  0
  129.8880  132.9180   55.8930 C   0  0  0  0  0  0  0  0  0  0  0  0
  130.5310  131.1180   57.5870 C   0  0  0  0  0  0  0  0  0  0  0  0
  129.3210  130.4340   57.3410 N   0  0  0  0  0  0  0  0  0  0  0  0
  128.9010  129.2790   57.9140 C   0  0  0  0  0  0  0  0  0  0  0  0
  127.8080  128.7970   57.6160 O   0  0  0  0  0  0  0  0  0  0  0  0
  133.2020  120.9980   60.9210 C   0  0  0  0  0  0  0  0  0  0  0  0
  132.7140  119.6960   60.8670 C   0  0  0  0  0  0  0  0  0  0  0  0
  1  2  1  0
  2  3  1  0
  3  4  2  0
  4  5  1  0
  5  6  2  0
  6  7  1  0
  7  8  1  0
  8  9  1  0
  9 10  2  0
 10 11  1  0
 11 12  2  0
 12 13  1  0
 13 14  1  0
 14 15  1  0
 15 16  1  0
 16 17  1  0
 17 18  1  0
 18 19  1  0
 19 20  1  0
 20 21  1  0
 21 22  1  0
 22 23  1  0
 14 24  1  0
 24 25  1  0
 25 26  2  0
 26 27  1  0
 27 28  2  0
 28 29  1  0
 28 30  1  0
 30 31  2  0
 31 32  1  0
 32 33  1  0
 32 34  2  0
 34 35  1  0
 35 36  1  0
 36 37  2  0
  6 38  1  0
 38 39  2  0
 39  3  1  0
 12  8  1  0
 23 18  1  0
 36 25  1  0
 34 27  1  0
M  END
>  <Binding energies>  (154) 
[-11.1]

>  <Ligand effiencies>  (154) 
[-0.27749999999999997]

>  <Interactions>  (154) 
["V-A:LEU:363:CA:3184, V-A:ASP:366:CG:3212, V-A:ASN:362:C:3171, V-A:PRO:540:CB:4884, V-A:TYR:539:CE1:4874, V-A:ASP:366:CB:3211, H-A:TYR:531:OH:4794, V-A:PRO:540:CA:4882, V-A:TYR:531:CE2:4792, V-A:LEU:363:CD1:3188, V-B:PRO:540:N:9855, V-B:ALA:541:CB:9863, V-B:PRO:540:CA:9854, V-B:TYR:539:C:9838, V-A:LEU:475:CD2:4258, V-A:HIS:383:CE1:3393, V-A:ILE:369:CD1:3238, V-B:TYR:539:CD2:9845, V-A:ILE:369:CG2:3236, V-B:TYR:539:CE2:9847, V-B:TYR:539:CB:9842, V-A:SER:385:CA:3406, V-B:TYR:539:CG:9843, V-B:MET:535:CE:9806, H-B:TYR:539:OH:9849, V-B:TYR:539:CZ:9848, V-B:PRO:540:CB:9856, V-B:TYR:539:CA:9840, V-B:TYR:539:CD1:9844, V-B:PRO:540:CD:9858, V-B:TYR:531:CE2:9764, V-B:LEU:363:CD1:8159, V-B:ILE:538:CD1:9836, V-B:ILE:538:CG2:9834, V-B:ILE:538:CA:9831, V-B:TYR:539:CE1:9846, V-B:ILE:538:C:9829, H-B:TYR:531:OH:9766, V-A:PRO:540:N:4883, V-B:MET:535:CG:9804, V-A:PRO:540:CD:4886"]

$$$$
RR15_Rahimova_2017
     RDKit          3D

 45 49  0  0  0  0  0  0  0  0999 V2000
  123.9620  131.1220   56.0230 C   0  0  0  0  0  0  0  0  0  0  0  0
  125.1030  130.9880   55.1810 O   0  0  0  0  0  0  0  0  0  0  0  0
  126.1330  130.1430   55.5570 C   0  0  0  0  0  0  0  0  0  0  0  0
  125.9350  128.9320   56.2390 C   0  0  0  0  0  0  0  0  0  0  0  0
  127.0170  128.1290   56.5900 C   0  0  0  0  0  0  0  0  0  0  0  0
  128.3250  128.5110   56.2750 C   0  0  0  0  0  0  0  0  0  0  0  0
  129.4940  127.6470   56.6610 C   0  0  0  0  0  0  0  0  0  0  0  0
  130.3870  127.2100   55.7840 N   0  0  0  0  0  0  0  0  0  0  0  0
  131.2890  126.4520   56.5030 N   0  0  0  0  0  0  0  0  0  0  0  0
  130.8520  126.5520   57.7590 N   0  0  0  0  0  0  0  0  0  0  0  0
  131.4280  125.7610   58.8450 C   0  0  0  0  0  0  0  0  0  0  0  0
  130.4240  125.3470   59.9500 C   0  0  0  0  0  0  0  0  0  0  0  0
  129.6430  126.2000   60.3770 O   0  0  0  0  0  0  0  0  0  0  0  0
  130.4050  124.0540   60.3980 N   0  0  0  0  0  0  0  0  0  0  0  0
  129.4920  123.0520   59.8140 C   0  0  0  0  0  0  0  0  0  0  0  0
  128.7490  123.5520   58.5560 C   0  0  0  0  0  0  0  0  0  0  0  0
  128.3220  122.4400   57.5690 C   0  0  0  0  0  0  0  0  0  0  0  0
  126.8780  122.3940   57.3210 N   0  0  0  0  0  0  0  0  0  0  0  0
  126.1280  123.4540   58.0110 C   0  0  0  0  0  0  0  0  0  0  0  0
  124.6280  123.4130   57.6490 C   0  0  0  0  0  0  0  0  0  0  0  0
  124.4620  123.4680   56.2360 O   0  0  0  0  0  0  0  0  0  0  0  0
  125.1010  122.3830   55.5720 C   0  0  0  0  0  0  0  0  0  0  0  0
  126.6150  122.3980   55.8750 C   0  0  0  0  0  0  0  0  0  0  0  0
  131.4120  123.5010   61.3550 C   0  0  2  0  0  0  0  0  0  0  0  0
  132.3990  122.4730   60.7170 C   0  0  0  0  0  0  0  0  0  0  0  0
  133.4340  122.8450   60.1640 O   0  0  0  0  0  0  0  0  0  0  0  0
  132.0580  121.1790   60.8520 N   0  0  0  0  0  0  0  0  0  0  0  0
  132.8710  120.0450   60.4300 C   0  0  0  0  0  0  0  0  0  0  0  0
  132.4280  118.7490   61.1340 C   0  0  2  0  0  0  0  0  0  0  0  0
  132.1620  117.5510   60.2060 C   0  0  0  0  0  0  0  0  0  0  0  0
  130.6590  117.4950   60.0820 C   0  0  0  0  0  0  0  0  0  0  0  0
  130.2260  117.9760   61.4560 C   0  0  0  0  0  0  0  0  0  0  0  0
  131.1470  119.0300   61.7160 O   0  0  0  0  0  0  0  0  0  0  0  0
  130.7480  123.1120   62.6710 C   0  0  0  0  0  0  0  0  0  0  0  0
  131.5700  122.7140   63.7320 C   0  0  0  0  0  0  0  0  0  0  0  0
  131.0190  122.3480   64.9560 C   0  0  0  0  0  0  0  0  0  0  0  0
  129.6380  122.3790   65.1300 C   0  0  0  0  0  0  0  0  0  0  0  0
  129.1030  122.0240   66.3190 F   0  0  0  0  0  0  0  0  0  0  0  0
  128.8050  122.7740   64.0860 C   0  0  0  0  0  0  0  0  0  0  0  0
  129.3570  123.1390   62.8620 C   0  0  0  0  0  0  0  0  0  0  0  0
  129.7190  127.2510   57.9000 N   0  0  0  0  0  0  0  0  0  0  0  0
  128.5190  129.7190   55.5930 C   0  0  0  0  0  0  0  0  0  0  0  0
  127.4370  130.5390   55.2280 C   0  0  0  0  0  0  0  0  0  0  0  0
  127.5780  131.7380   54.5510 O   0  0  0  0  0  0  0  0  0  0  0  0
  128.7340  132.5390   54.7700 C   0  0  0  0  0  0  0  0  0  0  0  0
  1  2  1  0
  2  3  1  0
  3  4  2  0
  4  5  1  0
  5  6  2  0
  6  7  1  0
  7  8  1  0
  8  9  2  0
  9 10  1  0
 10 11  1  0
 11 12  1  0
 12 13  2  0
 12 14  1  0
 14 15  1  0
 15 16  1  0
 16 17  1  0
 17 18  1  0
 18 19  1  0
 19 20  1  0
 20 21  1  0
 21 22  1  0
 22 23  1  0
 24 14  1  6
 24 25  1  0
 25 26  2  0
 25 27  1  0
 27 28  1  0
 29 28  1  6
 29 30  1  0
 30 31  1  0
 31 32  1  0
 32 33  1  0
 24 34  1  0
 34 35  2  0
 35 36  1  0
 36 37  2  0
 37 38  1  0
 37 39  1  0
 39 40  2  0
 10 41  1  0
  6 42  1  0
 42 43  2  0
 43 44  1  0
 44 45  1  0
 43  3  1  0
 41  7  2  0
 23 18  1  0
 33 29  1  0
 40 34  1  0
M  END
>  <Binding energies>  (155) 
[-10.12]

>  <Ligand effiencies>  (155) 
[-0.21999999999999997]

>  <Interactions>  (155) 
["V-A:TYR:539:CZ:4876, V-A:ASP:366:CG:3212, V-A:TYR:539:CE1:4874, V-A:ASP:366:CB:3211, H-A:TYR:531:OH:4794, V-A:TYR:539:CE2:4875, V-B:GLU:543:CD:9879, V-B:PRO:540:N:9855, V-B:ALA:541:CB:9863, V-B:PRO:540:CA:9854, V-B:TYR:539:C:9838, V-A:LEU:475:CD2:4258, V-A:PRO:482:CG:4326, V-A:HIS:383:CE1:3393, V-B:TYR:539:CD2:9845, V-A:ILE:369:CG2:3236, V-B:TYR:539:CE2:9847, V-B:TYR:539:CB:9842, V-A:SER:385:CA:3406, V-A:SER:385:CB:3408, H-B:TYR:539:N:9841, V-B:TYR:539:CG:9843, V-B:MET:535:CE:9806, H-B:TYR:539:OH:9849, V-B:TYR:539:CZ:9848, V-A:PRO:482:CB:4325, V-B:GLU:543:CG:9878, V-A:LEU:475:CD1:4257, V-B:PRO:540:CB:9856, V-B:TYR:539:CA:9840, V-B:TYR:539:CD1:9844, V-B:TYR:531:CZ:9765, V-B:TYR:531:CE2:9764, V-B:LEU:363:CD1:8159, V-B:ILE:538:CD1:9836, V-B:ILE:538:CG2:9834, V-B:GLU:543:CB:9877, V-B:ILE:538:CA:9831, V-B:TYR:539:CE1:9846, V-B:ILE:538:CB:9833, V-A:TYR:484:CZ:4346, V-A:TYR:484:CE2:4345, V-A:MET:535:CE:4834, H-B:TYR:531:OH:9766, V-B:MET:535:CG:9804, V-A:MET:535:CG:4832, V-B:TYR:531:CE1:9763, H-A:TYR:539:OH:4877, V-B:GLU:543:CA:9875, V-A:TYR:484:CD2:4343, V-B:ASN:370:CB:8215, V-B:ASN:370:CA:8213"]

$$$$
RR17_Rahimova_2017
     RDKit          3D

 38 41  0  0  0  0  0  0  0  0999 V2000
  131.7230  116.7160   62.1810 C   0  0  0  0  0  0  0  0  0  0  0  0
  130.6810  117.2740   61.2060 C   0  0  0  0  0  0  0  0  0  0  0  0
  130.2270  118.5330   61.6950 O   0  0  0  0  0  0  0  0  0  0  0  0
  130.9150  119.6820   61.3510 C   0  0  0  0  0  0  0  0  0  0  0  0
  130.2040  120.8790   61.4200 C   0  0  0  0  0  0  0  0  0  0  0  0
  130.8120  122.0860   61.0910 C   0  0  0  0  0  0  0  0  0  0  0  0
  132.1530  122.1210   60.6820 C   0  0  0  0  0  0  0  0  0  0  0  0
  132.7830  123.4380   60.3350 C   0  0  0  0  0  0  0  0  0  0  0  0
  132.8830  123.8370   59.1710 O   0  0  0  0  0  0  0  0  0  0  0  0
  133.3260  124.2870   61.5060 C   0  0  0  0  0  0  0  0  0  0  0  0
  133.3970  123.3390   63.0690 S   0  0  0  0  0  0  0  0  0  0  0  0
  132.9550  124.6120   64.2170 C   0  0  0  0  0  0  0  0  0  0  0  0
  133.8010  125.3580   64.8880 N   0  0  0  0  0  0  0  0  0  0  0  0
  133.0650  126.2380   65.6710 N   0  0  0  0  0  0  0  0  0  0  0  0
  131.7990  125.9920   65.4420 C   0  0  0  0  0  0  0  0  0  0  0  0
  130.6430  126.7400   66.0890 C   0  0  0  0  0  0  0  0  0  0  0  0
  130.9450  127.2540   67.4230 N   0  0  0  0  0  0  0  0  0  0  0  0
  130.1100  127.0670   68.5390 C   0  0  0  0  0  0  0  0  0  0  0  0
  129.9130  128.1590   69.3840 C   0  0  0  0  0  0  0  0  0  0  0  0
  129.1030  128.0410   70.5090 C   0  0  0  0  0  0  0  0  0  0  0  0
  128.4760  126.8260   70.8020 C   0  0  0  0  0  0  0  0  0  0  0  0
  127.5950  126.7120   72.0460 C   0  0  0  0  0  0  0  0  0  0  0  0
  126.3030  126.9010   71.7690 F   0  0  0  0  0  0  0  0  0  0  0  0
  127.7250  125.5050   72.5980 F   0  0  0  0  0  0  0  0  0  0  0  0
  127.9710  127.6320   72.9340 F   0  0  0  0  0  0  0  0  0  0  0  0
  128.6670  125.7320   69.9520 C   0  0  0  0  0  0  0  0  0  0  0  0
  129.4760  125.8510   68.8260 C   0  0  0  0  0  0  0  0  0  0  0  0
  131.6580  124.9610   64.5360 N   0  0  0  0  0  0  0  0  0  0  0  0
  130.4680  124.4170   64.0310 C   0  0  0  0  0  0  0  0  0  0  0  0
  129.9220  123.2820   64.6300 C   0  0  0  0  0  0  0  0  0  0  0  0
  128.7430  122.7400   64.1260 C   0  0  0  0  0  0  0  0  0  0  0  0
  128.1070  123.3320   63.0230 C   0  0  0  0  0  0  0  0  0  0  0  0
  126.9360  122.8650   62.4570 O   0  0  0  0  0  0  0  0  0  0  0  0
  125.7430  123.6270   62.6000 C   0  0  0  0  0  0  0  0  0  0  0  0
  128.6690  124.4670   62.4350 C   0  0  0  0  0  0  0  0  0  0  0  0
  129.8470  125.0140   62.9340 C   0  0  0  0  0  0  0  0  0  0  0  0
  132.8680  120.9170   60.6140 C   0  0  0  0  0  0  0  0  0  0  0  0
  132.2580  119.7100   60.9450 C   0  0  0  0  0  0  0  0  0  0  0  0
  1  2  1  0
  2  3  1  0
  3  4  1  0
  4  5  2  0
  5  6  1  0
  6  7  2  0
  7  8  1  0
  8  9  2  0
  8 10  1  0
 10 11  1  0
 11 12  1  0
 12 13  2  0
 13 14  1  0
 14 15  2  0
 15 16  1  0
 16 17  1  0
 17 18  1  0
 18 19  2  0
 19 20  1  0
 20 21  2  0
 21 22  1  0
 22 23  1  0
 22 24  1  0
 22 25  1  0
 21 26  1  0
 26 27  2  0
 15 28  1  0
 28 29  1  0
 29 30  2  0
 30 31  1  0
 31 32  2  0
 32 33  1  0
 33 34  1  0
 32 35  1  0
 35 36  2  0
  7 37  1  0
 37 38  2  0
 38  4  1  0
 28 12  1  0
 36 29  1  0
 27 18  1  0
M  END
>  <Binding energies>  (156) 
[-9.79]

>  <Ligand effiencies>  (156) 
[-0.251025641025641]

>  <Interactions>  (156) 
["V-A:ASP:366:CG:3212, V-B:GLU:543:CD:9879, H-B:ALA:541:N:9862, H-A:TYR:484:OH:4347, V-B:ALA:541:CB:9863, V-B:ALA:541:CA:9861, V-A:LEU:475:CD2:4258, V-A:PRO:482:CG:4326, V-A:HIS:383:CE1:3393, V-A:ILE:369:CD1:3238, V-B:TYR:539:CD2:9845, V-A:ILE:369:CG2:3236, V-B:TYR:539:CE2:9847, V-A:SER:385:CB:3408, V-A:GLY:454:CA:4048, V-A:THR:477:CG2:4272, H-B:TYR:539:OH:9849, V-A:PRO:482:CB:4325, V-B:GLU:543:CG:9878, H-A:GLY:454:N:4049, V-A:HIS:456:CE1:4069, H-A:GLU:543:OE1:4908, V-B:GLU:543:CB:9877, V-A:GLU:543:CD:4907, V-B:HIS:456:CE1:9040, V-B:LYS:547:CE:9921, V-B:GLU:543:C:9873, V-B:GLY:544:CA:9885, V-A:GLU:543:CB:4905, H-A:ARG:545:NH2:4927, H-A:ARG:545:NE:4923, V-B:GLY:544:C:9883, V-A:TYR:484:CE2:4345, V-B:GLU:543:CA:9875, V-B:HIS:456:CD2:9038, V-B:ARG:545:CA:9890"]

$$$$
RR19_Rahimova_2017
     RDKit          3D

 46 51  0  0  0  0  0  0  0  0999 V2000
  133.7440  124.2020   58.6220 O   0  0  0  0  0  0  0  0  0  0  0  0
  132.7530  124.4120   59.3270 C   0  0  0  0  0  0  0  0  0  0  0  0
  131.8290  125.3870   59.1340 N   0  0  0  0  0  0  0  0  0  0  0  0
  131.5670  126.2330   58.0850 C   0  0  0  0  0  0  0  0  0  0  0  0
  132.2390  126.1190   56.5350 S   0  0  0  0  0  0  0  0  0  0  0  0
  130.6690  127.1850   58.5020 N   0  0  0  0  0  0  0  0  0  0  0  0
  129.9790  128.1530   57.8480 C   0  0  0  0  0  0  0  0  0  0  0  0
  129.8750  128.2790   56.6260 O   0  0  0  0  0  0  0  0  0  0  0  0
  129.2960  129.1800   58.7870 C   0  0  2  0  0  0  0  0  0  0  0  0
  128.2620  130.1130   58.0910 C   0  0  0  0  0  0  0  0  0  0  0  0
  128.8610  131.2150   57.2320 C   0  0  0  0  0  0  0  0  0  0  0  0
  128.7540  131.1740   55.8250 C   0  0  0  0  0  0  0  0  0  0  0  0
  129.2360  132.2280   55.0610 C   0  0  0  0  0  0  0  0  0  0  0  0
  129.8090  133.3350   55.6760 C   0  0  0  0  0  0  0  0  0  0  0  0
  129.8940  133.4020   57.0610 C   0  0  0  0  0  0  0  0  0  0  0  0
  129.4150  132.3600   57.8430 C   0  0  0  0  0  0  0  0  0  0  0  0
  130.3020  129.9580   59.5600 N   0  0  0  0  0  0  0  0  0  0  0  0
  131.5910  130.0730   59.1310 C   0  0  0  0  0  0  0  0  0  0  0  0
  132.0930  129.5620   58.1280 O   0  0  0  0  0  0  0  0  0  0  0  0
  132.2630  130.9460   60.1250 C   0  0  0  0  0  0  0  0  0  0  0  0
  133.5800  131.3990   60.2020 C   0  0  0  0  0  0  0  0  0  0  0  0
  133.9410  132.2340   61.2650 C   0  0  0  0  0  0  0  0  0  0  0  0
  132.9910  132.6020   62.2280 C   0  0  0  0  0  0  0  0  0  0  0  0
  131.6740  132.1370   62.1330 C   0  0  0  0  0  0  0  0  0  0  0  0
  131.3360  131.3040   61.0650 C   0  0  0  0  0  0  0  0  0  0  0  0
  130.0450  130.6710   60.6970 C   0  0  0  0  0  0  0  0  0  0  0  0
  128.9700  130.7770   61.2890 O   0  0  0  0  0  0  0  0  0  0  0  0
  132.4970  123.5200   60.5710 C   0  0  2  0  0  0  0  0  0  0  0  0
  131.3150  122.5230   60.3990 C   0  0  0  0  0  0  0  0  0  0  0  0
  131.6620  121.0880   60.7540 C   0  0  0  0  0  0  0  0  0  0  0  0
  130.6550  120.2060   61.2030 C   0  0  0  0  0  0  0  0  0  0  0  0
  130.9550  118.8690   61.4300 C   0  0  0  0  0  0  0  0  0  0  0  0
  132.2350  118.3870   61.1910 C   0  0  0  0  0  0  0  0  0  0  0  0
  133.2260  119.2350   60.7110 C   0  0  0  0  0  0  0  0  0  0  0  0
  132.9470  120.5760   60.4790 C   0  0  0  0  0  0  0  0  0  0  0  0
  132.3770  124.2940   61.8400 N   0  0  0  0  0  0  0  0  0  0  0  0
  131.2690  125.0320   62.1270 C   0  0  0  0  0  0  0  0  0  0  0  0
  130.2680  125.1800   61.4250 O   0  0  0  0  0  0  0  0  0  0  0  0
  131.5230  125.6190   63.4670 C   0  0  0  0  0  0  0  0  0  0  0  0
  130.7430  126.4630   64.2590 C   0  0  0  0  0  0  0  0  0  0  0  0
  131.2420  126.8640   65.5030 C   0  0  0  0  0  0  0  0  0  0  0  0
  132.4980  126.4200   65.9370 C   0  0  0  0  0  0  0  0  0  0  0  0
  133.2650  125.5720   65.1290 C   0  0  0  0  0  0  0  0  0  0  0  0
  132.7500  125.1850   63.8900 C   0  0  0  0  0  0  0  0  0  0  0  0
  133.3140  124.3100   62.8340 C   0  0  0  0  0  0  0  0  0  0  0  0
  134.3950  123.7210   62.8520 O   0  0  0  0  0  0  0  0  0  0  0  0
  1  2  2  0
  2  3  1  0
  3  4  1  0
  4  5  2  0
  4  6  1  0
  6  7  1  0
  7  8  2  0
  7  9  1  0
  9 10  1  6
 10 11  1  0
 11 12  2  0
 12 13  1  0
 13 14  2  0
 14 15  1  0
 15 16  2  0
  9 17  1  0
 17 18  1  0
 18 19  2  0
 18 20  1  0
 20 21  2  0
 21 22  1  0
 22 23  2  0
 23 24  1  0
 24 25  2  0
 25 26  1  0
 26 27  2  0
  2 28  1  0
 28 29  1  6
 29 30  1  0
 30 31  2  0
 31 32  1  0
 32 33  2  0
 33 34  1  0
 34 35  2  0
 28 36  1  0
 36 37  1  0
 37 38  2  0
 37 39  1  0
 39 40  2  0
 40 41  1  0
 41 42  2  0
 42 43  1  0
 43 44  2  0
 44 45  1  0
 45 46  2  0
 16 11  1  0
 26 17  1  0
 35 30  1  0
 45 36  1  0
 25 20  1  0
 44 39  1  0
M  END
>  <Binding energies>  (157) 
[-11.59]

>  <Ligand effiencies>  (157) 
[-0.24145833333333333]

>  <Interactions>  (157) 
["V-A:LEU:363:CA:3184, V-A:TYR:539:CG:4871, V-A:TYR:539:CZ:4876, V-A:ASP:366:CG:3212, V-A:ASN:362:C:3171, V-A:PRO:540:CB:4884, V-A:TYR:539:CE1:4874, V-A:TYR:539:CD1:4872, V-A:ASP:366:CB:3211, H-A:TYR:531:OH:4794, V-A:PRO:540:CA:4882, V-A:TYR:531:CZ:4793, V-A:ILE:538:CA:4859, V-B:ALA:541:CB:9863, V-A:LEU:475:CD2:4258, V-B:TYR:539:CD2:9845, V-A:ILE:369:CG2:3236, V-B:TYR:539:CE2:9847, V-A:SER:385:CA:3406, V-A:SER:385:CB:3408, H-B:TYR:539:OH:9849, H-A:GLY:454:N:4049, V-A:ARG:545:CZ:4925, V-A:GLU:543:CD:4907, H-A:ASP:366:OD2:3214, V-A:TYR:531:CE1:4791, V-A:PRO:540:N:4883, V-A:MET:535:CG:4832, V-A:TYR:539:C:4866, V-A:ASN:362:CB:3175, V-A:ALA:541:C:4887, V-A:PRO:540:C:4880, V-A:ASN:370:CB:3244, V-A:ASN:362:CA:3173"]

$$$$
RR1_Rahimova_2017
     RDKit          3D

 41 44  0  0  0  0  0  0  0  0999 V2000
  125.0940  122.3640   55.6200 C   0  0  0  0  0  0  0  0  0  0  0  0
  126.4830  122.3690   55.9290 O   0  0  0  0  0  0  0  0  0  0  0  0
  126.8900  122.7290   57.1990 C   0  0  0  0  0  0  0  0  0  0  0  0
  126.0450  123.2820   58.1740 C   0  0  0  0  0  0  0  0  0  0  0  0
  126.5470  123.6220   59.4260 C   0  0  0  0  0  0  0  0  0  0  0  0
  127.8940  123.4120   59.7290 C   0  0  0  0  0  0  0  0  0  0  0  0
  128.3160  123.8300   61.0050 N   0  0  0  0  0  0  0  0  0  0  0  0
  127.8280  123.4970   62.2190 C   0  0  0  0  0  0  0  0  0  0  0  0
  126.8390  122.7880   62.4070 O   0  0  0  0  0  0  0  0  0  0  0  0
  128.6080  124.0850   63.4050 C   0  0  0  0  0  0  0  0  0  0  0  0
  129.2020  122.8690   64.6330 S   0  0  0  0  0  0  0  0  0  0  0  0
  130.5180  122.1880   63.6800 C   0  0  0  0  0  0  0  0  0  0  0  0
  130.3680  121.2460   62.7850 N   0  0  0  0  0  0  0  0  0  0  0  0
  131.5960  121.0550   62.3150 C   0  0  0  0  0  0  0  0  0  0  0  0
  131.8970  120.0530   61.2370 C   0  0  0  0  0  0  0  0  0  0  0  0
  131.0910  118.9210   61.0400 C   0  0  0  0  0  0  0  0  0  0  0  0
  131.3970  118.0050   60.0310 C   0  0  0  0  0  0  0  0  0  0  0  0
  132.5150  118.2450   59.2340 C   0  0  0  0  0  0  0  0  0  0  0  0
  133.3170  119.3280   59.3970 N   0  0  0  0  0  0  0  0  0  0  0  0
  133.0000  120.2060   60.3820 C   0  0  0  0  0  0  0  0  0  0  0  0
  132.5330  121.8100   62.8570 N   0  0  0  0  0  0  0  0  0  0  0  0
  131.8420  122.5390   63.7380 N   0  0  0  0  0  0  0  0  0  0  0  0
  132.5140  123.5480   64.5570 C   0  0  0  0  0  0  0  0  0  0  0  0
  132.6590  124.9300   63.8960 C   0  0  0  0  0  0  0  0  0  0  0  0
  133.7760  125.4120   63.6760 O   0  0  0  0  0  0  0  0  0  0  0  0
  131.4970  125.5420   63.5970 N   0  0  0  0  0  0  0  0  0  0  0  0
  131.5480  126.7220   62.8680 N   0  0  0  0  0  0  0  0  0  0  0  0
  130.4950  127.0190   62.0760 C   0  0  0  0  0  0  0  0  0  0  0  0
  129.4490  126.3620   62.0380 O   0  0  0  0  0  0  0  0  0  0  0  0
  130.6480  128.2610   61.2210 C   0  0  0  0  0  0  0  0  0  0  0  0
  130.4710  128.1810   59.8350 C   0  0  0  0  0  0  0  0  0  0  0  0
  130.6180  129.3060   59.0300 C   0  0  0  0  0  0  0  0  0  0  0  0
  130.9560  130.5490   59.5880 C   0  0  0  0  0  0  0  0  0  0  0  0
  131.1310  131.7020   58.8430 O   0  0  0  0  0  0  0  0  0  0  0  0
  130.0840  132.6630   58.7830 C   0  0  0  0  0  0  0  0  0  0  0  0
  131.1450  130.6480   60.9730 C   0  0  0  0  0  0  0  0  0  0  0  0
  131.4970  131.8920   61.4710 O   0  0  0  0  0  0  0  0  0  0  0  0
  132.8340  132.1270   61.8960 C   0  0  0  0  0  0  0  0  0  0  0  0
  130.9860  129.5050   61.7770 C   0  0  0  0  0  0  0  0  0  0  0  0
  128.7410  122.8580   58.7570 C   0  0  0  0  0  0  0  0  0  0  0  0
  128.2350  122.5180   57.5060 C   0  0  0  0  0  0  0  0  0  0  0  0
  1  2  1  0
  2  3  1  0
  3  4  2  0
  4  5  1  0
  5  6  2  0
  6  7  1  0
  7  8  1  0
  8  9  2  0
  8 10  1  0
 10 11  1  0
 11 12  1  0
 12 13  2  0
 13 14  1  0
 14 15  1  0
 15 16  2  0
 16 17  1  0
 17 18  2  0
 18 19  1  0
 19 20  2  0
 14 21  2  0
 21 22  1  0
 22 23  1  0
 23 24  1  0
 24 25  2  0
 24 26  1  0
 26 27  1  0
 27 28  1  0
 28 29  2  0
 28 30  1  0
 30 31  2  0
 31 32  1  0
 32 33  2  0
 33 34  1  0
 34 35  1  0
 33 36  1  0
 36 37  1  0
 37 38  1  0
 36 39  2  0
  6 40  1  0
 40 41  2  0
 41  3  1  0
 22 12  1  0
 39 30  1  0
 20 15  1  0
M  END
>  <Binding energies>  (158) 
[-9.37]

>  <Ligand effiencies>  (158) 
[-0.21295454545454542]

>  <Interactions>  (158) 
["V-A:ASP:366:CG:3212, H-A:ALA:541:N:4890, V-A:PRO:540:CB:4884, V-A:PRO:540:CA:4882, V-B:GLU:543:CD:9879, V-B:PRO:540:N:9855, H-B:ALA:541:N:9862, V-B:ALA:541:CB:9863, V-B:PRO:540:CA:9854, H-B:GLU:543:OE2:9881, V-B:TYR:539:C:9838, V-A:LEU:475:CD2:4258, V-B:TYR:539:CD2:9845, V-A:ILE:369:CG2:3236, V-B:TYR:539:CE2:9847, V-B:TYR:539:CB:9842, V-A:GLY:454:CA:4048, H-B:TYR:539:N:9841, V-B:TYR:539:CG:9843, V-B:MET:535:CE:9806, V-B:TYR:539:CZ:9848, V-B:PRO:540:CB:9856, H-A:GLY:454:N:4049, V-B:TYR:539:CA:9840, V-B:TYR:539:CD1:9844, V-B:PRO:540:CD:9858, V-B:TYR:531:CE2:9764, V-B:LEU:363:CD1:8159, V-B:ILE:538:CD1:9836, V-B:ILE:538:CG2:9834, V-A:GLU:543:CD:4907, H-A:ASP:366:OD2:3214, H-A:ARG:545:NH1:4926, H-A:ARG:545:NH2:4927, V-B:ILE:538:CA:9831, V-B:TYR:539:CE1:9846, V-B:ILE:538:CB:9833, V-A:LEU:373:CG:3278, V-A:LEU:373:CD2:3280, H-A:ASP:366:OD1:3213, V-A:PRO:540:N:4883, V-A:TYR:539:C:4866, V-A:ASN:362:CB:3175"]

$$$$
RR22_Rahimova_2017
     RDKit          3D

 31 36  0  0  0  0  0  0  0  0999 V2000
  126.1090  123.1190   61.9850 O   0  0  0  0  0  0  0  0  0  0  0  0
  127.2350  123.5350   61.7180 C   0  0  0  0  0  0  0  0  0  0  0  0
  128.2970  123.7120   62.5870 N   0  0  0  0  0  0  0  0  0  0  0  0
  129.5700  124.1510   62.1010 C   0  0  1  0  0  0  0  0  0  0  0  0
  129.8770  125.3240   62.8600 O   0  0  0  0  0  0  0  0  0  0  0  0
  131.0390  125.3270   63.6330 C   0  0  0  0  0  0  0  0  0  0  0  0
  131.1220  126.3040   64.6260 C   0  0  0  0  0  0  0  0  0  0  0  0
  132.2700  126.3960   65.4130 C   0  0  0  0  0  0  0  0  0  0  0  0
  133.3350  125.5190   65.2010 C   0  0  0  0  0  0  0  0  0  0  0  0
  133.2520  124.5430   64.2070 C   0  0  0  0  0  0  0  0  0  0  0  0
  132.0970  124.4220   63.4270 C   0  0  0  0  0  0  0  0  0  0  0  0
  131.9250  123.4290   62.3000 C   0  0  1  0  0  0  0  0  0  0  0  0
  132.5760  122.0610   62.3140 C   0  0  0  0  0  0  0  0  0  0  0  0
  131.5470  121.2740   61.4970 C   0  0  0  0  0  0  0  0  0  0  0  0
  131.8530  119.9730   60.8680 C   0  0  0  0  0  0  0  0  0  0  0  0
  131.0460  118.8530   61.1170 C   0  0  0  0  0  0  0  0  0  0  0  0
  131.3380  117.6300   60.5200 C   0  0  0  0  0  0  0  0  0  0  0  0
  132.4370  117.5180   59.6740 C   0  0  0  0  0  0  0  0  0  0  0  0
  133.2480  118.6200   59.4170 C   0  0  0  0  0  0  0  0  0  0  0  0
  132.9570  119.8450   60.0110 C   0  0  0  0  0  0  0  0  0  0  0  0
  130.4200  121.8790   61.4670 N   0  0  0  0  0  0  0  0  0  0  0  0
  130.5450  123.0570   62.2240 N   0  0  0  0  0  0  0  0  0  0  0  0
  129.3570  124.5940   60.6610 C   0  0  0  0  0  0  0  0  0  0  0  0
  130.2370  125.3760   59.9930 C   0  0  0  0  0  0  0  0  0  0  0  0
  130.1650  125.8590   58.6000 C   0  0  0  0  0  0  0  0  0  0  0  0
  128.9550  126.0990   57.9330 C   0  0  0  0  0  0  0  0  0  0  0  0
  128.9650  126.5550   56.6140 C   0  0  0  0  0  0  0  0  0  0  0  0
  130.1950  126.7560   55.9890 C   0  0  0  0  0  0  0  0  0  0  0  0
  131.3800  126.5240   56.6060 N   0  0  0  0  0  0  0  0  0  0  0  0
  131.3500  126.0810   57.8890 C   0  0  0  0  0  0  0  0  0  0  0  0
  127.7890  124.0340   60.0600 S   0  0  0  0  0  0  0  0  0  0  0  0
  1  2  2  0
  2  3  1  0
  4  3  1  1
  4  5  1  0
  5  6  1  0
  6  7  2  0
  7  8  1  0
  8  9  2  0
  9 10  1  0
 10 11  2  0
 11 12  1  0
 12 13  1  1
 13 14  1  0
 14 15  1  0
 15 16  2  0
 16 17  1  0
 17 18  2  0
 18 19  1  0
 19 20  2  0
 14 21  2  0
 21 22  1  0
  4 23  1  0
 23 24  2  0
 24 25  1  0
 25 26  2  0
 26 27  1  0
 27 28  2  0
 28 29  1  0
 29 30  2  0
 23 31  1  0
 31  2  1  0
 22  4  1  0
 30 25  1  0
 11  6  1  0
 22 12  1  0
 20 15  1  0
M  END
>  <Binding energies>  (159) 
[-9.29]

>  <Ligand effiencies>  (159) 
[-0.2903125]

>  <Interactions>  (159) 
["H-A:TYR:531:OH:4794, H-B:ALA:541:N:9862, V-B:PRO:540:CA:9854, H-B:GLU:543:OE2:9881, V-A:LEU:475:CD2:4258, V-A:HIS:383:CE1:3393, V-B:TYR:539:CD2:9845, V-A:ILE:369:CG2:3236, V-B:TYR:539:CE2:9847, V-A:SER:385:CA:3406, V-A:GLY:454:CA:4048, V-B:MET:535:CE:9806, H-B:TYR:539:OH:9849, V-A:ARG:545:CZ:4925, V-A:GLU:543:CD:4907, V-A:LEU:373:CD2:3280, V-A:MET:535:CE:4834, V-A:TYR:531:CE1:4791, V-A:VAL:384:C:3396"]

$$$$
RR24_Rahimova_2017
     RDKit          3D

 43 49  0  0  0  0  0  0  0  0999 V2000
  126.0750  123.5640   58.0730 C   0  0  0  0  0  0  0  0  0  0  0  0
  125.9740  124.5610   59.2370 C   0  0  2  0  0  0  0  0  0  0  0  0
  125.0370  124.0760   60.3820 C   0  0  0  0  0  0  0  0  0  0  0  0
  123.9600  123.5140   60.1550 O   0  0  0  0  0  0  0  0  0  0  0  0
  125.5310  124.3670   61.6210 O   0  0  0  0  0  0  0  0  0  0  0  0
  126.7260  123.8160   62.0230 C   0  0  0  0  0  0  0  0  0  0  0  0
  126.8760  123.3970   63.3460 C   0  0  0  0  0  0  0  0  0  0  0  0
  128.0780  122.8300   63.7620 C   0  0  0  0  0  0  0  0  0  0  0  0
  129.1300  122.6720   62.8560 C   0  0  0  0  0  0  0  0  0  0  0  0
  130.4580  122.0640   63.3240 C   0  0  1  0  0  0  0  0  0  0  0  0
  131.0310  121.0640   62.2930 C   0  0  0  0  0  0  0  0  0  0  0  0
  132.2970  121.1280   61.8420 C   0  0  0  0  0  0  0  0  0  0  0  0
  133.1770  122.0940   62.2640 N   0  0  0  0  0  0  0  0  0  0  0  0
  132.8020  123.0520   63.1770 C   0  0  0  0  0  0  0  0  0  0  0  0
  133.7900  123.9270   63.4960 N   0  0  0  0  0  0  0  0  0  0  0  0
  133.5830  124.9890   64.3220 C   0  0  0  0  0  0  0  0  0  0  0  0
  134.3960  125.9150   64.3290 O   0  0  0  0  0  0  0  0  0  0  0  0
  132.3530  124.9760   64.9620 N   0  0  0  0  0  0  0  0  0  0  0  0
  132.1130  126.0580   65.9390 C   0  0  0  0  0  0  0  0  0  0  0  0
  131.2800  124.1370   64.7130 C   0  0  0  0  0  0  0  0  0  0  0  0
  130.1900  124.2170   65.2880 O   0  0  0  0  0  0  0  0  0  0  0  0
  131.5520  123.1050   63.7070 C   0  0  0  0  0  0  0  0  0  0  0  0
  132.5600  120.0660   60.8850 C   0  0  0  0  0  0  0  0  0  0  0  0
  133.6880  119.7110   60.1440 C   0  0  0  0  0  0  0  0  0  0  0  0
  133.6210  118.6090   59.2870 C   0  0  0  0  0  0  0  0  0  0  0  0
  132.4370  117.8730   59.1770 C   0  0  0  0  0  0  0  0  0  0  0  0
  131.3110  118.2340   59.9220 C   0  0  0  0  0  0  0  0  0  0  0  0
  131.3830  119.3370   60.7750 C   0  0  0  0  0  0  0  0  0  0  0  0
  130.3620  119.9290   61.6650 C   0  0  0  0  0  0  0  0  0  0  0  0
  129.2000  119.5840   61.8680 O   0  0  0  0  0  0  0  0  0  0  0  0
  128.9700  123.0760   61.5260 C   0  0  0  0  0  0  0  0  0  0  0  0
  127.7690  123.6410   61.1090 C   0  0  0  0  0  0  0  0  0  0  0  0
  125.6340  125.9370   58.7690 N   0  0  0  0  0  0  0  0  0  0  0  0
  126.3510  127.0240   59.1690 C   0  0  0  0  0  0  0  0  0  0  0  0
  127.3180  127.0420   59.9330 O   0  0  0  0  0  0  0  0  0  0  0  0
  125.7210  128.1850   58.4910 C   0  0  0  0  0  0  0  0  0  0  0  0
  126.0320  129.5440   58.5300 C   0  0  0  0  0  0  0  0  0  0  0  0
  125.2550  130.4300   57.7740 C   0  0  0  0  0  0  0  0  0  0  0  0
  124.1930  129.9520   56.9970 C   0  0  0  0  0  0  0  0  0  0  0  0
  123.8970  128.5840   56.9710 C   0  0  0  0  0  0  0  0  0  0  0  0
  124.6820  127.7170   57.7330 C   0  0  0  0  0  0  0  0  0  0  0  0
  124.6190  126.2440   57.9040 C   0  0  0  0  0  0  0  0  0  0  0  0
  123.8240  125.4660   57.3760 O   0  0  0  0  0  0  0  0  0  0  0  0
  2  1  1  6
  2  3  1  0
  3  4  2  0
  3  5  1  0
  5  6  1  0
  6  7  2  0
  7  8  1  0
  8  9  2  0
 10  9  1  6
 10 11  1  0
 11 12  2  0
 12 13  1  0
 13 14  1  0
 14 15  1  0
 15 16  1  0
 16 17  2  0
 16 18  1  0
 18 19  1  0
 18 20  1  0
 20 21  2  0
 20 22  1  0
 12 23  1  0
 23 24  2  0
 24 25  1  0
 25 26  2  0
 26 27  1  0
 27 28  2  0
 28 29  1  0
 29 30  2  0
  9 31  1  0
 31 32  2  0
  2 33  1  0
 33 34  1  0
 34 35  2  0
 34 36  1  0
 36 37  2  0
 37 38  1  0
 38 39  2  0
 39 40  1  0
 40 41  2  0
 41 42  1  0
 42 43  2  0
 32  6  1  0
 42 33  1  0
 22 10  1  0
 28 23  1  0
 41 36  1  0
 29 11  1  0
 22 14  2  0
M  END
>  <Binding energies>  (160) 
[-10.15]

>  <Ligand effiencies>  (160) 
[-0.22555555555555556]

>  <Interactions>  (160) 
["V-B:GLU:543:CD:9879, H-B:ALA:541:N:9862, H-A:TYR:484:OH:4347, V-B:ALA:541:CB:9863, V-B:PRO:540:CA:9854, V-B:ALA:541:CA:9861, V-A:LEU:475:CD2:4258, V-B:TYR:539:CD2:9845, V-A:ILE:369:CG2:3236, V-B:TYR:539:CE2:9847, V-B:TYR:539:CB:9842, V-A:SER:385:CA:3406, V-A:GLY:454:CA:4048, V-A:LEU:373:CD1:3279, V-B:TYR:539:CG:9843, V-B:GLU:543:CG:9878, V-B:ALA:541:C:9859, V-B:PRO:540:CB:9856, H-A:GLY:454:N:4049, V-A:GLY:453:C:4041, V-B:TYR:531:CZ:9765, V-A:ARG:545:CZ:4925, H-A:ARG:545:NH1:4926, H-A:ARG:545:NH2:4927, H-B:ARG:545:NH2:9899, H-A:ARG:545:NE:4923, V-B:ASP:366:CB:8182, V-A:LEU:373:CG:3278, V-A:LEU:373:CD2:3280, H-B:TYR:531:OH:9766, H-A:ASP:366:OD1:3213, V-B:ASP:366:CG:8183, V-B:TYR:531:CE1:9763, V-A:VAL:384:C:3396, H-A:SER:385:O:3405, V-B:TYR:531:CD1:9761, V-B:ASP:366:C:8178, V-B:ASP:366:CA:8180"]

$$$$
RR25_Rahimova_2017
     RDKit          3D

 39 44  0  0  0  0  0  0  0  0999 V2000
  128.1060  122.7620   58.0840 O   0  0  0  0  0  0  0  0  0  0  0  0
  127.9920  122.9170   59.3000 C   0  0  0  0  0  0  0  0  0  0  0  0
  128.7320  122.0730   60.0910 O   0  0  0  0  0  0  0  0  0  0  0  0
  128.8860  122.3020   61.4460 C   0  0  0  0  0  0  0  0  0  0  0  0
  130.0320  121.7820   62.0440 C   0  0  0  0  0  0  0  0  0  0  0  0
  130.2460  121.9680   63.4080 C   0  0  0  0  0  0  0  0  0  0  0  0
  129.3200  122.6720   64.1920 C   0  0  0  0  0  0  0  0  0  0  0  0
  129.5540  122.8760   65.6430 N   0  0  0  0  0  0  0  0  0  0  0  0
  130.1830  123.8680   66.0030 O   0  0  0  0  0  0  0  0  0  0  0  0
  129.1110  122.0470   66.4320 O   0  0  0  0  0  0  0  0  0  0  0  0
  128.1650  123.1770   63.5720 C   0  0  0  0  0  0  0  0  0  0  0  0
  127.9310  122.9920   62.2070 C   0  0  0  0  0  0  0  0  0  0  0  0
  126.7060  123.5280   61.4890 C   0  0  0  0  0  0  0  0  0  0  0  0
  127.0890  123.9460   60.0410 C   0  0  2  0  0  0  0  0  0  0  0  0
  125.8360  124.4080   59.2410 C   0  0  0  0  0  0  0  0  0  0  0  0
  124.7820  123.8190   59.4960 O   0  0  0  0  0  0  0  0  0  0  0  0
  125.8670  125.4860   58.4000 N   0  0  0  0  0  0  0  0  0  0  0  0
  127.1210  126.0190   57.8270 C   0  0  0  0  0  0  0  0  0  0  0  0
  127.0230  127.5570   57.7480 C   0  0  0  0  0  0  0  0  0  0  0  0
  125.8330  127.9790   57.0040 N   0  0  0  0  0  0  0  0  0  0  0  0
  125.8070  129.4360   56.8130 C   0  0  0  0  0  0  0  0  0  0  0  0
  126.4740  130.2090   57.9820 C   0  0  0  0  0  0  0  0  0  0  0  0
  127.7670  130.8840   57.6690 N   0  0  0  0  0  0  0  0  0  0  0  0
  128.7170  130.8290   58.6680 C   0  0  0  0  0  0  0  0  0  0  0  0
  128.5150  130.2940   59.7650 O   0  0  0  0  0  0  0  0  0  0  0  0
  130.0470  131.4610   58.3090 C   0  0  0  0  0  0  0  0  0  0  0  0
  131.0930  131.4390   59.2410 C   0  0  0  0  0  0  0  0  0  0  0  0
  132.3320  132.0030   58.9420 C   0  0  0  0  0  0  0  0  0  0  0  0
  132.5660  132.6030   57.7060 C   0  0  0  0  0  0  0  0  0  0  0  0
  131.5390  132.6500   56.7330 C   0  0  0  0  0  0  0  0  0  0  0  0
  131.7090  133.2420   55.4590 C   0  0  0  0  0  0  0  0  0  0  0  0
  130.6560  133.2510   54.5450 C   0  0  0  0  0  0  0  0  0  0  0  0
  129.4250  132.6830   54.8660 C   0  0  0  0  0  0  0  0  0  0  0  0
  129.2110  132.0860   56.1150 C   0  0  0  0  0  0  0  0  0  0  0  0
  130.2780  132.0720   57.0500 C   0  0  0  0  0  0  0  0  0  0  0  0
  127.8590  131.4710   56.4240 C   0  0  0  0  0  0  0  0  0  0  0  0
  126.9310  131.4870   55.6090 O   0  0  0  0  0  0  0  0  0  0  0  0
  124.6270  127.5020   57.6820 C   0  0  0  0  0  0  0  0  0  0  0  0
  124.6040  125.9580   57.7880 C   0  0  0  0  0  0  0  0  0  0  0  0
  1  2  2  0
  2  3  1  0
  3  4  1  0
  4  5  2  0
  5  6  1  0
  6  7  2  0
  7  8  1  0
  8  9  2  0
  8 10  1  0
  7 11  1  0
 11 12  2  0
 12 13  1  0
 13 14  1  0
 14 15  1  6
 15 16  2  0
 15 17  1  0
 17 18  1  0
 18 19  1  0
 19 20  1  0
 20 21  1  0
 21 22  1  0
 22 23  1  0
 23 24  1  0
 24 25  2  0
 24 26  1  0
 26 27  2  0
 27 28  1  0
 28 29  2  0
 29 30  1  0
 30 31  2  0
 31 32  1  0
 32 33  2  0
 33 34  1  0
 34 35  2  0
 34 36  1  0
 36 37  2  0
 20 38  1  0
 38 39  1  0
 14  2  1  0
 39 17  1  0
 12  4  1  0
 36 23  1  0
 35 26  1  0
 35 30  1  0
M  CHG  2   8   1  10  -1
M  END
>  <Binding energies>  (161) 
[-10.27]

>  <Ligand effiencies>  (161) 
[-0.2633333333333333]

>  <Interactions>  (161) 
["V-A:TYR:539:CZ:4876, V-A:PRO:540:CB:4884, V-A:TYR:539:CE1:4874, V-A:PRO:540:CA:4882, V-A:TYR:531:CE2:4792, V-A:TYR:531:CZ:4793, V-A:ILE:538:CA:4859, V-A:LEU:363:CD1:3188, V-B:GLU:543:CD:9879, V-B:PRO:540:N:9855, H-A:TYR:484:OH:4347, V-B:ALA:541:CB:9863, V-B:PRO:540:CA:9854, V-B:TYR:539:C:9838, V-A:LEU:475:CD2:4258, V-B:TYR:539:CD2:9845, V-B:GLU:543:CG:9878, V-A:LEU:475:CD1:4257, V-B:TYR:531:CZ:9765, V-B:TYR:531:CE2:9764, V-A:ILE:538:CB:4861, V-A:ILE:538:CG2:4862, V-B:ASP:366:CB:8182, V-A:TYR:484:CZ:4346, V-A:TYR:484:CE2:4345, H-B:TYR:531:OH:9766, V-A:PRO:540:N:4883, V-B:ASP:366:CG:8183, V-A:MET:535:CG:4832, V-B:TYR:531:CE1:9763, H-A:TYR:539:OH:4877, V-A:MET:535:CB:4831"]

$$$$
RR27_Rahimova_2017
     RDKit          3D

 39 44  0  0  0  0  0  0  0  0999 V2000
  129.4760  122.0090   59.6150 O   0  0  0  0  0  0  0  0  0  0  0  0
  128.7630  122.9140   60.0570 C   0  0  0  0  0  0  0  0  0  0  0  0
  128.3500  124.0670   59.0960 C   0  0  0  0  0  0  0  0  0  0  0  0
  127.2760  123.6480   58.0750 C   0  0  0  0  0  0  0  0  0  0  0  0
  127.5650  122.7820   57.0090 C   0  0  0  0  0  0  0  0  0  0  0  0
  126.5700  122.4220   56.1060 C   0  0  0  0  0  0  0  0  0  0  0  0
  125.2810  122.9250   56.2630 C   0  0  0  0  0  0  0  0  0  0  0  0
  124.9800  123.7860   57.3140 C   0  0  0  0  0  0  0  0  0  0  0  0
  125.9750  124.1460   58.2170 C   0  0  0  0  0  0  0  0  0  0  0  0
  129.5780  124.7740   58.4920 C   0  0  0  0  0  0  0  0  0  0  0  0
  129.4970  125.5000   57.2960 C   0  0  0  0  0  0  0  0  0  0  0  0
  130.6300  126.1180   56.7720 C   0  0  0  0  0  0  0  0  0  0  0  0
  131.8470  126.0080   57.4380 C   0  0  0  0  0  0  0  0  0  0  0  0
  131.9450  125.2810   58.6210 C   0  0  0  0  0  0  0  0  0  0  0  0
  130.8130  124.6630   59.1430 C   0  0  0  0  0  0  0  0  0  0  0  0
  128.2140  122.8470   61.3040 N   0  0  0  0  0  0  0  0  0  0  0  0
  127.5770  123.9920   61.9720 C   0  0  0  0  0  0  0  0  0  0  0  0
  128.6960  124.7590   62.7110 C   0  0  0  0  0  0  0  0  0  0  0  0
  129.5060  123.8490   63.6890 C   0  0  0  0  0  0  0  0  0  0  0  0
  130.7050  124.5380   64.3670 C   0  0  0  0  0  0  0  0  0  0  0  0
  131.8990  124.4650   63.7100 N   0  0  0  0  0  0  0  0  0  0  0  0
  132.9850  125.0800   64.2540 C   0  0  0  0  0  0  0  0  0  0  0  0
  134.2330  125.0810   63.6870 O   0  0  0  0  0  0  0  0  0  0  0  0
  132.8320  125.7660   65.4740 C   0  0  0  0  0  0  0  0  0  0  0  0
  133.6850  126.4740   66.2690 N   0  0  0  0  0  0  0  0  0  0  0  0
  132.9600  126.9160   67.3590 N   0  0  0  0  0  0  0  0  0  0  0  0
  131.6840  126.4940   67.2340 N   0  0  0  0  0  0  0  0  0  0  0  0
  130.6970  126.8000   68.2660 C   0  0  0  0  0  0  0  0  0  0  0  0
  129.4520  127.4990   67.7350 C   0  0  0  0  0  0  0  0  0  0  0  0
  129.4970  128.1890   66.5190 C   0  0  0  0  0  0  0  0  0  0  0  0
  128.3530  128.8200   66.0280 C   0  0  0  0  0  0  0  0  0  0  0  0
  127.1590  128.7610   66.7460 C   0  0  0  0  0  0  0  0  0  0  0  0
  127.1050  128.0650   67.9550 C   0  0  0  0  0  0  0  0  0  0  0  0
  125.6210  127.9680   68.8320 Cl  0  0  0  0  0  0  0  0  0  0  0  0
  128.2500  127.4410   68.4510 C   0  0  0  0  0  0  0  0  0  0  0  0
  131.5510  125.7610   66.0660 C   0  0  0  0  0  0  0  0  0  0  0  0
  130.4720  125.1600   65.5580 N   0  0  0  0  0  0  0  0  0  0  0  0
  129.8660  122.4760   63.0420 C   0  0  0  0  0  0  0  0  0  0  0  0
  128.6860  121.8390   62.2660 C   0  0  0  0  0  0  0  0  0  0  0  0
  1  2  2  0
  2  3  1  0
  3  4  1  0
  4  5  2  0
  5  6  1  0
  6  7  2  0
  7  8  1  0
  8  9  2  0
  3 10  1  0
 10 11  2  0
 11 12  1  0
 12 13  2  0
 13 14  1  0
 14 15  2  0
  2 16  1  0
 16 17  1  0
 17 18  1  0
 18 19  1  0
 19 20  1  0
 20 21  2  0
 21 22  1  0
 22 23  1  0
 22 24  2  0
 24 25  1  0
 25 26  2  0
 26 27  1  0
 27 28  1  0
 28 29  1  0
 29 30  2  0
 30 31  1  0
 31 32  2  0
 32 33  1  0
 33 34  1  0
 33 35  2  0
 27 36  1  0
 36 37  2  0
 19 38  1  0
 38 39  1  0
  9  4  1  0
 15 10  1  0
 39 16  1  0
 37 20  1  0
 36 24  1  0
 35 29  1  0
M  END
>  <Binding energies>  (162) 
[-10.87]

>  <Ligand effiencies>  (162) 
[-0.27175]

>  <Interactions>  (162) 
["V-A:ASP:366:CG:3212, V-A:ASP:366:CB:3211, V-B:GLU:543:CD:9879, V-B:PRO:540:N:9855, H-A:TYR:484:OH:4347, V-B:ALA:541:CB:9863, V-B:PRO:540:CA:9854, V-B:ALA:541:CA:9861, V-B:PRO:540:C:9852, V-B:TYR:539:C:9838, V-B:TYR:539:CD2:9845, V-B:TYR:539:CE2:9847, V-B:TYR:539:CG:9843, V-B:MET:535:CE:9806, V-B:TYR:539:CZ:9848, V-B:PRO:540:CB:9856, H-A:GLY:454:N:4049, V-B:TYR:539:CD1:9844, V-B:TYR:531:CZ:9765, V-B:TYR:531:CE2:9764, V-B:LEU:363:CD1:8159, V-A:ARG:545:CZ:4925, V-A:HIS:456:CE1:4069, V-B:GLU:543:CB:9877, V-A:GLU:543:CD:4907, V-B:HIS:456:CE1:9040, V-A:GLU:543:CG:4906, V-B:ARG:545:CG:9893, H-A:ASP:366:OD2:3214, V-A:GLU:543:CB:4905, H-A:ARG:545:NH1:4926, H-A:ARG:545:NH2:4927, V-B:ILE:538:CA:9831, H-A:ARG:545:NE:4923, H-A:ASP:366:OD1:3213, V-B:ARG:545:CA:9890"]

$$$$
RR28_Rahimova_2017
     RDKit          3D

 46 49  0  0  0  0  0  0  0  0999 V2000
  133.9950  119.5050   60.3880 C   0  0  0  0  0  0  0  0  0  0  0  0
  132.8490  120.4890   60.5920 C   0  0  0  0  0  0  0  0  0  0  0  0
  131.6930  120.1290   60.3770 O   0  0  0  0  0  0  0  0  0  0  0  0
  133.1900  121.7270   61.0060 N   0  0  0  0  0  0  0  0  0  0  0  0
  132.3020  122.8790   61.2770 C   0  0  0  0  0  0  0  0  0  0  0  0
  132.3710  123.8430   60.0580 C   0  0  0  0  0  0  0  0  0  0  0  0
  131.2310  124.5770   59.6950 C   0  0  0  0  0  0  0  0  0  0  0  0
  131.2540  125.4450   58.6080 C   0  0  0  0  0  0  0  0  0  0  0  0
  132.4200  125.5990   57.8560 C   0  0  0  0  0  0  0  0  0  0  0  0
  132.4260  126.5540   56.6630 C   0  0  0  0  0  0  0  0  0  0  0  0
  133.1980  126.1150   55.6670 F   0  0  0  0  0  0  0  0  0  0  0  0
  131.1900  126.7080   56.1880 F   0  0  0  0  0  0  0  0  0  0  0  0
  132.8860  127.7420   57.0550 F   0  0  0  0  0  0  0  0  0  0  0  0
  133.5620  124.8740   58.2060 C   0  0  0  0  0  0  0  0  0  0  0  0
  133.5370  124.0050   59.2940 C   0  0  0  0  0  0  0  0  0  0  0  0
  132.6820  123.5580   62.6410 C   0  0  0  0  0  0  0  0  0  0  0  0
  132.4300  122.6480   63.8700 C   0  0  0  0  0  0  0  0  0  0  0  0
  130.9980  122.3080   63.8500 N   0  0  0  0  0  0  0  0  0  0  0  0
  130.1040  123.0550   64.5550 C   0  0  0  0  0  0  0  0  0  0  0  0
  130.4630  123.9210   65.3560 O   0  0  0  0  0  0  0  0  0  0  0  0
  128.6000  122.6970   64.4710 C   0  0  0  0  0  0  0  0  0  0  0  0
  128.0120  122.5640   63.0400 C   0  0  0  0  0  0  0  0  0  0  0  0
  126.8710  123.5530   62.7050 C   0  0  0  0  0  0  0  0  0  0  0  0
  125.8040  123.4330   63.3140 O   0  0  0  0  0  0  0  0  0  0  0  0
  127.1080  124.6000   61.8650 N   0  0  0  0  0  0  0  0  0  0  0  0
  128.2080  124.6230   60.8940 C   0  0  0  0  0  0  0  0  0  0  0  0
  127.6920  123.9060   59.6270 C   0  0  0  0  0  0  0  0  0  0  0  0
  126.3840  124.5170   59.0140 C   0  0  0  0  0  0  0  0  0  0  0  0
  125.7810  123.5390   58.0850 N   0  0  0  0  0  0  0  0  0  0  0  0
  126.3950  122.8100   57.1300 C   0  0  0  0  0  0  0  0  0  0  0  0
  125.5020  121.8880   56.3060 C   0  0  0  0  0  0  0  0  0  0  0  0
  127.6020  122.8540   56.8990 O   0  0  0  0  0  0  0  0  0  0  0  0
  126.8010  125.7690   58.1750 C   0  0  0  0  0  0  0  0  0  0  0  0
  126.0160  126.9320   58.1000 C   0  0  0  0  0  0  0  0  0  0  0  0
  126.4240  128.0250   57.3420 C   0  0  0  0  0  0  0  0  0  0  0  0
  127.6280  127.9840   56.6350 C   0  0  0  0  0  0  0  0  0  0  0  0
  128.0910  129.1780   55.8010 C   0  0  0  0  0  0  0  0  0  0  0  0
  127.9120  130.3170   56.4710 F   0  0  0  0  0  0  0  0  0  0  0  0
  129.3890  129.0430   55.5290 F   0  0  0  0  0  0  0  0  0  0  0  0
  127.4290  129.2720   54.6460 F   0  0  0  0  0  0  0  0  0  0  0  0
  128.4150  126.8330   56.6910 C   0  0  0  0  0  0  0  0  0  0  0  0
  128.0040  125.7410   57.4510 C   0  0  0  0  0  0  0  0  0  0  0  0
  125.3800  124.8590   60.1820 C   0  0  0  0  0  0  0  0  0  0  0  0
  126.0070  125.4820   61.4580 C   0  0  0  0  0  0  0  0  0  0  0  0
  130.6090  121.4910   62.6920 C   0  0  0  0  0  0  0  0  0  0  0  0
  130.8350  122.3590   61.4270 C   0  0  0  0  0  0  0  0  0  0  0  0
  1  2  1  0
  2  3  2  0
  2  4  1  0
  4  5  1  0
  5  6  1  0
  6  7  2  0
  7  8  1  0
  8  9  2  0
  9 10  1  0
 10 11  1  0
 10 12  1  0
 10 13  1  0
  9 14  1  0
 14 15  2  0
  5 16  1  0
 16 17  1  0
 17 18  1  0
 18 19  1  0
 19 20  2  0
 19 21  1  0
 21 22  1  0
 22 23  1  0
 23 24  2  0
 23 25  1  0
 25 26  1  0
 26 27  1  0
 27 28  1  0
 28 29  1  0
 29 30  1  0
 30 31  1  0
 30 32  2  0
 28 33  1  0
 33 34  2  0
 34 35  1  0
 35 36  2  0
 36 37  1  0
 37 38  1  0
 37 39  1  0
 37 40  1  0
 36 41  1  0
 41 42  2  0
 28 43  1  0
 43 44  1  0
 18 45  1  0
 45 46  1  0
 46  5  1  0
 15  6  1  0
 44 25  1  0
 42 33  1  0
M  END
>  <Binding energies>  (163) 
[-8.98]

>  <Ligand effiencies>  (163) 
[-0.18708333333333335]

>  <Interactions>  (163) 
["V-A:ASP:366:CG:3212, V-A:ASP:366:CB:3211, V-A:TYR:531:CZ:4793, V-B:GLU:543:CD:9879, V-B:PRO:540:N:9855, H-B:ALA:541:N:9862, H-A:TYR:484:OH:4347, V-B:ALA:541:CB:9863, V-B:PRO:540:CA:9854, V-B:ALA:541:CA:9861, V-A:LEU:475:CD2:4258, V-A:ILE:369:CD1:3238, V-A:SER:385:C:3404, V-B:TYR:539:CD2:9845, V-A:ILE:369:CG2:3236, V-B:TYR:539:CE2:9847, V-A:SER:385:CA:3406, V-A:SER:385:CB:3408, V-A:GLY:454:CA:4048, V-B:MET:535:CE:9806, V-B:TYR:539:CZ:9848, V-B:GLU:543:CG:9878, V-B:ALA:541:C:9859, V-B:PRO:540:CB:9856, V-B:PRO:540:CD:9858, V-B:LEU:363:CD1:8159, V-B:ILE:538:CD1:9836, V-B:ILE:538:CG2:9834, H-B:ARG:545:NH2:9899, V-B:ILE:538:CA:9831, V-B:ILE:538:C:9829, V-A:MET:535:CE:4834, V-A:TYR:531:CE1:4791, V-B:ASP:366:CG:8183, V-B:TYR:531:CE1:9763, V-A:VAL:384:C:3396, V-B:PRO:540:CG:9857, V-A:ILE:369:CB:3235, V-A:ASP:366:CA:3209, V-A:ASP:366:C:3207, H-A:SER:385:O:3405, V-A:ASN:370:CB:3244, V-A:ASN:370:CG:3245, V-A:TYR:531:CD1:4789, V-A:ASN:370:CA:3242"]

$$$$
RR29_Rahimova_2017
     RDKit          3D

 18 19  0  0  0  0  0  0  0  0999 V2000
  128.3130  122.7550   63.6420 C   0  0  0  0  0  0  0  0  0  0  0  0
  128.9790  123.9610   62.9950 C   0  0  0  0  0  0  0  0  0  0  0  0
  128.4700  124.2340   61.5620 C   0  0  0  0  0  0  0  0  0  0  0  0
  128.4770  122.9540   60.7000 C   0  0  0  0  0  0  0  0  0  0  0  0
  127.6270  123.0970   59.4470 C   0  0  0  0  0  0  0  0  0  0  0  0
  126.4940  123.9350   59.4580 C   0  0  0  0  0  0  0  0  0  0  0  0
  125.6970  124.0820   58.3140 C   0  0  0  0  0  0  0  0  0  0  0  0
  126.0610  123.3640   57.1810 C   0  0  0  0  0  0  0  0  0  0  0  0
  127.1570  122.5480   57.1650 C   0  0  0  0  0  0  0  0  0  0  0  0
  127.9720  122.3910   58.2810 C   0  0  0  0  0  0  0  0  0  0  0  0
  127.2940  122.0020   55.9280 O   0  0  0  0  0  0  0  0  0  0  0  0
  126.1220  122.3380   55.2340 C   0  0  0  0  0  0  0  0  0  0  0  0
  125.4760  123.3550   55.9530 O   0  0  0  0  0  0  0  0  0  0  0  0
  129.8650  124.6040   63.6610 N   0  0  0  0  0  0  0  0  0  0  0  0
  130.5300  125.6430   63.0470 N   0  0  0  0  0  0  0  0  0  0  0  0
  130.6850  126.8610   63.5900 C   0  0  0  0  0  0  0  0  0  0  0  0
  130.2370  127.2220   64.7940 N   0  0  0  0  0  0  0  0  0  0  0  0
  131.3310  127.7750   62.8810 N   0  0  0  0  0  0  0  0  0  0  0  0
  1  2  1  0
  2  3  1  0
  3  4  1  0
  4  5  1  0
  5  6  2  0
  6  7  1  0
  7  8  2  0
  8  9  1  0
  9 10  2  0
  9 11  1  0
 11 12  1  0
 12 13  1  0
  2 14  2  0
 14 15  1  0
 15 16  1  0
 16 17  1  0
 16 18  2  0
 10  5  1  0
 13  8  1  0
M  CHG  1  18   1
M  END
>  <Binding energies>  (164) 
[-7.95]

>  <Ligand effiencies>  (164) 
[-0.3456521739130435]

>  <Interactions>  (164) 
["H-A:GLU:543:OE2:4909, V-B:GLU:543:CD:9879, V-B:PRO:540:N:9855, V-B:ALA:541:CB:9863, V-B:PRO:540:CA:9854, H-B:GLU:543:OE2:9881, V-B:ALA:541:CA:9861, V-B:TYR:539:C:9838, V-B:TYR:539:CD2:9845, V-B:TYR:539:CE2:9847, H-B:TYR:539:N:9841, V-B:TYR:539:CG:9843, V-B:MET:535:CE:9806, V-B:GLU:543:CG:9878, V-B:ALA:541:C:9859, V-B:PRO:540:CB:9856, V-B:TYR:539:CA:9840, V-B:TYR:531:CE2:9764, V-A:ARG:545:CZ:4925, V-B:ILE:538:CD1:9836, H-A:GLU:543:OE1:4908, V-B:ILE:538:CG2:9834, V-A:GLU:543:CD:4907, H-A:ASP:366:OD2:3214, V-B:ILE:538:CA:9831, V-B:ILE:538:C:9829, V-B:ILE:538:CB:9833, H-B:TYR:531:OH:9766, V-B:MET:535:CG:9804"]

$$$$
RR30_Rahimova_2017
     RDKit          3D

 18 19  0  0  0  0  0  0  0  0999 V2000
  123.5560  122.1370   62.6200 C   0  0  0  0  0  0  0  0  0  0  0  0
  123.9000  123.5980   62.2920 C   0  0  0  0  0  0  0  0  0  0  0  0
  125.3910  123.8570   62.3280 C   0  0  0  0  0  0  0  0  0  0  0  0
  126.0100  125.0060   62.4350 N   0  0  0  0  0  0  0  0  0  0  0  0
  127.3710  124.7100   62.4120 N   0  0  0  0  0  0  0  0  0  0  0  0
  127.4560  123.4100   62.2830 C   0  0  0  0  0  0  0  0  0  0  0  0
  128.9210  122.4310   62.2060 S   0  0  0  0  0  0  0  0  0  0  0  0
  129.8630  123.3740   60.9660 C   0  0  0  0  0  0  0  0  0  0  0  0
  129.0780  123.5660   59.6650 C   0  0  0  0  0  0  0  0  0  0  0  0
  129.0210  124.6870   59.1560 O   0  0  0  0  0  0  0  0  0  0  0  0
  128.4610  122.4650   59.1800 N   0  0  0  0  0  0  0  0  0  0  0  0
  127.6940  122.3920   58.0270 C   0  0  0  0  0  0  0  0  0  0  0  0
  128.0530  121.9670   56.8360 N   0  0  0  0  0  0  0  0  0  0  0  0
  127.0150  122.0390   55.9150 N   0  0  0  0  0  0  0  0  0  0  0  0
  125.9000  122.5120   56.4220 C   0  0  0  0  0  0  0  0  0  0  0  0
  124.6340  122.6870   55.6160 C   0  0  0  0  0  0  0  0  0  0  0  0
  126.0400  122.9140   58.1120 S   0  0  0  0  0  0  0  0  0  0  0  0
  126.2420  122.8050   62.2280 O   0  0  0  0  0  0  0  0  0  0  0  0
  1  2  1  0
  2  3  1  0
  3  4  2  0
  4  5  1  0
  5  6  2  0
  6  7  1  0
  7  8  1  0
  8  9  1  0
  9 10  2  0
  9 11  1  0
 11 12  1  0
 12 13  2  0
 13 14  1  0
 14 15  2  0
 15 16  1  0
 15 17  1  0
  6 18  1  0
 18  3  1  0
 17 12  1  0
M  END
>  <Binding energies>  (165) 
[-6.8]

>  <Ligand effiencies>  (165) 
[-0.35789473684210527]

>  <Interactions>  (165) 
["V-B:PRO:540:N:9855, H-B:ALA:541:N:9862, V-B:PRO:540:CA:9854, V-B:PRO:540:C:9852, V-B:TYR:539:C:9838, H-B:TYR:539:O:9839, V-B:TYR:539:CD2:9845, V-B:TYR:539:CE2:9847, H-B:TYR:539:N:9841, V-B:TYR:539:CG:9843, V-B:MET:535:CE:9806, V-B:ALA:541:C:9859, V-B:PRO:540:CB:9856, V-B:ASN:362:CB:8146, V-B:TYR:539:CA:9840, V-B:TYR:531:CZ:9765, V-B:PRO:540:CD:9858, V-B:TYR:531:CE2:9764, V-B:LEU:363:CD1:8159, V-B:ILE:538:CD1:9836, V-B:ILE:538:CG2:9834, H-B:ARG:545:NH2:9899, V-B:ARG:545:CZ:9897, V-B:ASN:362:CG:8147, V-B:ASN:359:CB:8121"]

$$$$
RR31_Rahimova_2017
     RDKit          3D

 18 19  0  0  0  0  0  0  0  0999 V2000
  132.1980  117.2310   58.9490 C   0  0  0  0  0  0  0  0  0  0  0  0
  132.3500  118.4760   59.8140 C   0  0  0  0  0  0  0  0  0  0  0  0
  133.4430  119.3190   59.6080 C   0  0  0  0  0  0  0  0  0  0  0  0
  133.6080  120.4670   60.3800 C   0  0  0  0  0  0  0  0  0  0  0  0
  132.6810  120.8110   61.3770 C   0  0  0  0  0  0  0  0  0  0  0  0
  132.8380  121.9530   62.1660 N   0  0  0  0  0  0  0  0  0  0  0  0
  133.1350  121.8710   63.6090 C   0  0  0  0  0  0  0  0  0  0  0  0
  132.8690  123.1830   64.3830 C   0  0  0  0  0  0  0  0  0  0  0  0
  133.6120  124.2990   63.7930 N   0  0  0  0  0  0  0  0  0  0  0  0
  133.4070  125.5520   64.5270 C   0  0  0  0  0  0  0  0  0  0  0  0
  132.0850  125.5760   65.3210 C   0  0  0  0  0  0  0  0  0  0  0  0
  131.0080  126.4290   64.6330 C   0  0  0  0  0  0  0  0  0  0  0  0
  130.0370  126.9890   65.6790 N   0  0  0  0  0  0  0  0  0  0  0  0
  133.1460  124.4550   62.4150 C   0  0  0  0  0  0  0  0  0  0  0  0
  133.4310  123.1770   61.5920 C   0  0  0  0  0  0  0  0  0  0  0  0
  131.5920  119.9500   61.5790 C   0  0  0  0  0  0  0  0  0  0  0  0
  131.4150  118.7930   60.8110 C   0  0  0  0  0  0  0  0  0  0  0  0
  130.2130  117.8980   61.0830 C   0  0  0  0  0  0  0  0  0  0  0  0
  1  2  1  0
  2  3  2  0
  3  4  1  0
  4  5  2  0
  5  6  1  0
  6  7  1  0
  7  8  1  0
  8  9  1  0
  9 10  1  0
 10 11  1  0
 11 12  1  0
 12 13  1  0
  9 14  1  0
 14 15  1  0
  5 16  1  0
 16 17  2  0
 17 18  1  0
 17  2  1  0
 15  6  1  0
M  CHG  1  13   1
M  END
>  <Binding energies>  (166) 
[-7.75]

>  <Ligand effiencies>  (166) 
[-0.36904761904761907]

>  <Interactions>  (166) 
["V-A:ASP:366:CG:3212, H-A:GLU:543:OE2:4909, V-B:GLU:543:CD:9879, H-B:GLU:543:OE2:9881, V-B:TYR:539:C:9838, V-A:LEU:475:CD2:4258, V-A:PRO:482:CG:4326, V-A:HIS:383:CE1:3393, V-A:ILE:369:CD1:3238, V-B:TYR:539:CD2:9845, V-A:ILE:369:CG2:3236, V-B:TYR:539:CE2:9847, V-B:TYR:539:CB:9842, V-A:SER:385:CA:3406, V-A:GLY:454:CA:4048, V-A:LEU:373:CD1:3279, V-B:TYR:539:CG:9843, V-A:PRO:482:CB:4325, H-A:GLY:454:N:4049, V-A:ARG:545:CZ:4925, H-A:GLU:543:OE1:4908, V-A:GLU:543:CD:4907, V-A:LEU:373:CG:3278, V-A:LEU:373:CD2:3280, V-A:HIS:383:CG:3389"]

$$$$
RR32_Rahimova_2017
     RDKit          3D

 18 20  0  0  0  0  0  0  0  0999 V2000
  123.6470  124.0690   59.2720 C   0  0  0  0  0  0  0  0  0  0  0  0
  125.0920  123.6110   59.1130 C   0  0  0  0  0  0  0  0  0  0  0  0
  125.9090  123.5980   60.2440 C   0  0  0  0  0  0  0  0  0  0  0  0
  127.2330  123.1820   60.1370 C   0  0  0  0  0  0  0  0  0  0  0  0
  128.0400  123.1710   61.2620 N   0  0  0  0  0  0  0  0  0  0  0  0
  127.4030  123.4880   62.5530 C   0  0  0  0  0  0  0  0  0  0  0  0
  128.4150  123.6270   63.7150 C   0  0  0  0  0  0  0  0  0  0  0  0
  129.1860  122.3930   63.8650 N   0  0  0  0  0  0  0  0  0  0  0  0
  130.1170  122.5120   64.9810 C   0  0  0  0  0  0  0  0  0  0  0  0
  129.9140  122.1610   62.6190 C   0  0  0  0  0  0  0  0  0  0  0  0
  128.9250  122.0040   61.4400 C   0  0  0  0  0  0  0  0  0  0  0  0
  127.7830  122.7830   58.9610 N   0  0  0  0  0  0  0  0  0  0  0  0
  127.0120  122.7880   57.8390 C   0  0  0  0  0  0  0  0  0  0  0  0
  127.6120  122.3690   56.6260 C   0  0  0  0  0  0  0  0  0  0  0  0
  126.8730  122.3540   55.4490 C   0  0  0  0  0  0  0  0  0  0  0  0
  125.5400  122.7470   55.4480 C   0  0  0  0  0  0  0  0  0  0  0  0
  124.9210  123.1640   56.6220 C   0  0  0  0  0  0  0  0  0  0  0  0
  125.6390  123.1970   57.8530 C   0  0  0  0  0  0  0  0  0  0  0  0
  1  2  1  0
  2  3  2  0
  3  4  1  0
  4  5  1  0
  5  6  1  0
  6  7  1  0
  7  8  1  0
  8  9  1  0
  8 10  1  0
 10 11  1  0
  4 12  2  0
 12 13  1  0
 13 14  2  0
 14 15  1  0
 15 16  2  0
 16 17  1  0
 17 18  2  0
 18  2  1  0
 11  5  1  0
 18 13  1  0
M  END
>  <Binding energies>  (167) 
[-6.48]

>  <Ligand effiencies>  (167) 
[-0.36000000000000004]

>  <Interactions>  (167) 
["V-B:GLU:543:CD:9879, V-B:PRO:540:N:9855, V-B:ALA:541:CB:9863, V-B:PRO:540:CA:9854, V-B:PRO:540:C:9852, V-B:TYR:539:C:9838, V-A:LEU:475:CD2:4258, V-B:TYR:539:CD2:9845, V-B:TYR:539:CE2:9847, V-B:TYR:539:CG:9843, V-B:MET:535:CE:9806, V-B:TYR:539:CZ:9848, V-B:GLU:543:CG:9878, V-A:LEU:475:CD1:4257, V-B:PRO:540:CB:9856, V-B:TYR:539:CA:9840, V-B:TYR:539:CD1:9844, V-B:TYR:531:CZ:9765, V-B:PRO:540:CD:9858, V-B:TYR:531:CE2:9764, V-B:LEU:363:CD1:8159, V-B:ILE:538:CD1:9836, V-B:ILE:538:CA:9831, V-B:TYR:539:CE1:9846, V-B:ILE:538:C:9829, V-B:ASP:366:CB:8182, V-A:TYR:484:CZ:4346, V-A:TYR:484:CE2:4345, V-B:ASP:366:CG:8183, V-B:MET:535:CG:9804, V-B:LEU:363:CA:8155, V-B:LEU:363:CB:8157"]

$$$$
RR5_Rahimova_2017
     RDKit          3D

 45 50  0  0  0  0  0  0  0  0999 V2000
  128.7010  126.0620   57.4340 O   0  0  0  0  0  0  0  0  0  0  0  0
  128.8650  125.6520   58.5820 C   0  0  0  0  0  0  0  0  0  0  0  0
  130.2660  125.7080   59.2210 C   0  0  0  0  0  0  0  0  0  0  0  0
  131.2270  126.7600   58.5600 C   0  0  2  0  0  0  0  0  0  0  0  0
  130.5750  128.0100   58.1190 N   0  0  0  0  0  0  0  0  0  0  0  0
  129.9030  128.8330   59.0120 C   0  0  0  0  0  0  0  0  0  0  0  0
  129.8030  128.6720   60.2300 O   0  0  0  0  0  0  0  0  0  0  0  0
  129.3540  129.8470   58.3210 O   0  0  0  0  0  0  0  0  0  0  0  0
  128.7640  130.9630   58.9820 C   0  0  0  0  0  0  0  0  0  0  0  0
  129.7190  132.1780   58.9670 C   0  0  0  0  0  0  0  0  0  0  0  0
  131.0420  131.9210   59.6660 C   0  0  0  0  0  0  0  0  0  0  0  0
  131.2890  131.5310   60.9860 C   0  0  0  0  0  0  0  0  0  0  0  0
  132.6010  131.3280   61.4160 C   0  0  0  0  0  0  0  0  0  0  0  0
  133.6660  131.5150   60.5330 C   0  0  0  0  0  0  0  0  0  0  0  0
  133.4210  131.9070   59.2150 C   0  0  0  0  0  0  0  0  0  0  0  0
  132.1080  132.1100   58.7870 C   0  0  0  0  0  0  0  0  0  0  0  0
  131.5690  132.5250   57.4830 C   0  0  0  0  0  0  0  0  0  0  0  0
  132.2080  132.8480   56.2840 C   0  0  0  0  0  0  0  0  0  0  0  0
  131.4490  133.2400   55.1800 C   0  0  0  0  0  0  0  0  0  0  0  0
  130.0570  133.3050   55.2750 C   0  0  0  0  0  0  0  0  0  0  0  0
  129.4220  132.9770   56.4730 C   0  0  0  0  0  0  0  0  0  0  0  0
  130.1780  132.5820   57.5790 C   0  0  0  0  0  0  0  0  0  0  0  0
  132.0000  126.1290   57.3750 C   0  0  0  0  0  0  0  0  0  0  0  0
  132.9710  125.4080   57.4880 O   0  0  0  0  0  0  0  0  0  0  0  0
  131.4120  126.4920   56.1980 O   0  0  0  0  0  0  0  0  0  0  0  0
  127.8830  125.1670   59.3760 N   0  0  0  0  0  0  0  0  0  0  0  0
  126.4200  124.9420   59.1780 C   0  0  0  0  0  0  0  0  0  0  0  0
  125.9100  126.3820   58.8350 C   0  0  0  0  0  0  0  0  0  0  0  0
  125.0460  126.6160   57.7530 C   0  0  0  0  0  0  0  0  0  0  0  0
  124.5980  127.9010   57.4580 C   0  0  0  0  0  0  0  0  0  0  0  0
  125.0160  128.9760   58.2360 C   0  0  0  0  0  0  0  0  0  0  0  0
  125.8690  128.7740   59.3140 C   0  0  0  0  0  0  0  0  0  0  0  0
  126.3080  127.4880   59.6140 C   0  0  0  0  0  0  0  0  0  0  0  0
  126.2580  123.9460   57.9810 C   0  0  0  0  0  0  0  0  0  0  0  0
  125.0040  123.6720   57.4130 C   0  0  0  0  0  0  0  0  0  0  0  0
  124.8810  122.7670   56.3610 C   0  0  0  0  0  0  0  0  0  0  0  0
  126.0100  122.1230   55.8660 C   0  0  0  0  0  0  0  0  0  0  0  0
  127.2640  122.3810   56.4090 C   0  0  0  0  0  0  0  0  0  0  0  0
  127.3860  123.2920   57.4540 C   0  0  0  0  0  0  0  0  0  0  0  0
  125.8730  124.4120   60.5460 C   0  0  0  0  0  0  0  0  0  0  0  0
  124.5690  123.8950   60.6530 C   0  0  0  0  0  0  0  0  0  0  0  0
  124.0740  123.4300   61.8690 C   0  0  0  0  0  0  0  0  0  0  0  0
  124.8790  123.4680   63.0010 C   0  0  0  0  0  0  0  0  0  0  0  0
  126.1770  123.9610   62.9240 C   0  0  0  0  0  0  0  0  0  0  0  0
  126.6670  124.4250   61.7070 C   0  0  0  0  0  0  0  0  0  0  0  0
  1  2  2  0
  2  3  1  0
  4  3  1  6
  4  5  1  0
  5  6  1  0
  6  7  2  0
  6  8  1  0
  8  9  1  0
  9 10  1  0
 10 11  1  0
 11 12  2  0
 12 13  1  0
 13 14  2  0
 14 15  1  0
 15 16  2  0
 16 17  1  0
 17 18  2  0
 18 19  1  0
 19 20  2  0
 20 21  1  0
 21 22  2  0
  4 23  1  0
 23 24  2  0
 23 25  1  0
  2 26  1  0
 26 27  1  0
 27 28  1  0
 28 29  2  0
 29 30  1  0
 30 31  2  0
 31 32  1  0
 32 33  2  0
 27 34  1  0
 34 35  2  0
 35 36  1  0
 36 37  2  0
 37 38  1  0
 38 39  2  0
 27 40  1  0
 40 41  2  0
 41 42  1  0
 42 43  2  0
 43 44  1  0
 44 45  2  0
 22 10  1  0
 33 28  1  0
 39 34  1  0
 45 40  1  0
 16 11  1  0
 22 17  1  0
M  END
>  <Binding energies>  (168) 
[-12.07]

>  <Ligand effiencies>  (168) 
[-0.25145833333333334]

>  <Interactions>  (168) 
["V-A:LEU:363:CA:3184, V-A:TYR:539:CZ:4876, V-A:ASP:366:CG:3212, V-A:ASN:362:C:3171, V-A:PRO:540:CB:4884, V-A:TYR:539:CE1:4874, V-A:TYR:539:CD1:4872, V-A:ASP:366:CB:3211, H-A:TYR:531:OH:4794, V-A:PRO:540:CA:4882, V-A:TYR:531:CE2:4792, V-A:TYR:531:CZ:4793, V-A:ILE:538:CA:4859, V-A:LEU:363:CD1:3188, V-B:GLU:543:CD:9879, V-B:PRO:540:N:9855, V-B:PRO:540:CA:9854, V-B:TYR:539:C:9838, V-B:TYR:539:CG:9843, V-B:MET:535:CE:9806, H-B:TYR:539:OH:9849, V-B:GLU:543:CG:9878, V-B:ALA:541:C:9859, V-B:PRO:540:CB:9856, V-B:ASN:362:CB:8146, V-B:TYR:539:CA:9840, V-B:TYR:539:CD1:9844, V-B:TYR:531:CZ:9765, V-B:PRO:540:CD:9858, V-B:TYR:531:CE2:9764, V-B:LEU:363:CD1:8159, V-B:ILE:538:CD1:9836, V-B:ILE:538:CG2:9834, V-A:ILE:538:CB:4861, V-A:ILE:538:CG2:4862, V-B:ILE:538:CA:9831, V-B:TYR:539:CE1:9846, V-B:ILE:538:C:9829, V-B:ASP:366:CB:8182, V-A:PRO:540:N:4883, V-B:ASP:366:CG:8183, V-B:TYR:531:CE1:9763, V-A:ASN:362:CB:3175"]

$$$$
