1a_Ghoteimi_2023
     RDKit          3D

 40 43  0  0  0  0  0  0  0  0999 V2000
  133.7140  130.7540   57.9430 C   0  0  0  0  0  0  0  0  0  0  0  0
  133.0570  132.0660   57.5020 C   0  0  0  0  0  0  0  0  0  0  0  0
  131.6450  131.9000   57.4750 O   0  0  0  0  0  0  0  0  0  0  0  0
  130.8190  132.8280   58.0220 C   0  0  0  0  0  0  0  0  0  0  0  0
  130.3450  133.7760   57.3880 O   0  0  0  0  0  0  0  0  0  0  0  0
  130.5330  132.5830   59.4760 C   0  0  0  0  0  0  0  0  0  0  0  0
  131.4870  132.0180   60.3340 C   0  0  0  0  0  0  0  0  0  0  0  0
  131.1920  131.8000   61.6780 C   0  0  0  0  0  0  0  0  0  0  0  0
  129.9330  132.1490   62.1890 C   0  0  0  0  0  0  0  0  0  0  0  0
  129.5270  131.9700   63.5250 N   0  0  0  0  0  0  0  0  0  0  0  0
  128.2910  131.7830   64.0360 C   0  0  0  0  0  0  0  0  0  0  0  0
  127.2490  131.7180   63.3840 O   0  0  0  0  0  0  0  0  0  0  0  0
  128.2230  131.6360   65.5560 C   0  0  0  0  0  0  0  0  0  0  0  0
  127.2050  130.2140   66.0500 S   0  0  0  0  0  0  0  0  0  0  0  0
  128.3350  128.9810   66.6530 C   0  0  0  0  0  0  0  0  0  0  0  0
  128.2720  128.7870   67.9920 N   0  0  0  0  0  0  0  0  0  0  0  0
  129.0820  127.8660   68.5790 C   0  0  0  0  0  0  0  0  0  0  0  0
  128.9380  127.6950   70.0640 C   0  0  0  0  0  0  0  0  0  0  0  0
  128.0990  126.7080   70.6070 C   0  0  0  0  0  0  0  0  0  0  0  0
  127.9680  126.5510   71.9830 C   0  0  0  0  0  0  0  0  0  0  0  0
  128.6700  127.3740   72.8610 C   0  0  0  0  0  0  0  0  0  0  0  0
  128.4820  127.1450   74.2100 O   0  0  0  0  0  0  0  0  0  0  0  0
  129.3710  127.7440   75.1460 C   0  0  0  0  0  0  0  0  0  0  0  0
  129.5090  128.3660   72.3350 C   0  0  0  0  0  0  0  0  0  0  0  0
  129.6360  128.5210   70.9580 C   0  0  0  0  0  0  0  0  0  0  0  0
  129.9820  127.1170   67.8120 C   0  0  0  0  0  0  0  0  0  0  0  0
  130.0830  127.3190   66.4290 C   0  0  0  0  0  0  0  0  0  0  0  0
  131.0880  126.5060   65.6790 C   0  0  0  0  0  0  0  0  0  0  0  0
  132.4060  126.3960   66.1360 C   0  0  0  0  0  0  0  0  0  0  0  0
  133.3320  125.6250   65.4400 C   0  0  0  0  0  0  0  0  0  0  0  0
  132.9610  124.9440   64.2810 C   0  0  0  0  0  0  0  0  0  0  0  0
  133.9470  124.2040   63.6590 O   0  0  0  0  0  0  0  0  0  0  0  0
  133.9590  124.1190   62.2380 C   0  0  0  0  0  0  0  0  0  0  0  0
  131.6370  125.0450   63.8250 C   0  0  0  0  0  0  0  0  0  0  0  0
  130.7120  125.8180   64.5220 C   0  0  0  0  0  0  0  0  0  0  0  0
  129.2330  128.2760   65.8240 C   0  0  0  0  0  0  0  0  0  0  0  0
  129.2810  128.5190   64.3780 C   0  0  0  0  0  0  0  0  0  0  0  0
  129.3190  128.7110   63.2380 N   0  0  0  0  0  0  0  0  0  0  0  0
  128.9810  132.7080   61.3360 C   0  0  0  0  0  0  0  0  0  0  0  0
  129.2770  132.9260   59.9930 C   0  0  0  0  0  0  0  0  0  0  0  0
  1  2  1  0
  2  3  1  0
  3  4  1  0
  4  5  2  0
  4  6  1  0
  6  7  2  0
  7  8  1  0
  8  9  2  0
  9 10  1  0
 10 11  1  0
 11 12  2  0
 11 13  1  0
 13 14  1  0
 14 15  1  0
 15 16  2  0
 16 17  1  0
 17 18  1  0
 18 19  2  0
 19 20  1  0
 20 21  2  0
 21 22  1  0
 22 23  1  0
 21 24  1  0
 24 25  2  0
 17 26  2  0
 26 27  1  0
 27 28  1  0
 28 29  2  0
 29 30  1  0
 30 31  2  0
 31 32  1  0
 32 33  1  0
 31 34  1  0
 34 35  2  0
 27 36  2  0
 36 37  1  0
 37 38  3  0
  9 39  1  0
 39 40  2  0
 40  6  1  0
 36 15  1  0
 25 18  1  0
 35 28  1  0
M  END
>  <Binding energies>  (1) 
[-8.92]

>  <Ligand effiencies>  (1) 
[-0.2175609756097561]

>  <Interactions>  (1) 
["H-A:GLY:454:N:4049, V-A:ASP:366:CG:3212, V-A:ARG:545:CZ:4925, V-A:ILE:369:CD1:3238, V-A:HIS:456:CE1:4069, V-A:ASP:366:CB:3211, V-B:HIS:456:CE1:9040, V-B:GLU:543:CB:9877, V-A:PRO:540:CB:4884, V-A:PRO:540:CA:4882, V-A:GLU:543:CD:4907, H-A:GLU:543:OE2:4909, V-A:GLU:543:CG:4906, H-A:TYR:531:OH:4794, V-A:PRO:540:N:4883, V-A:TYR:531:CE2:4792, V-A:TYR:539:C:4866, V-A:TYR:531:CZ:4793, V-A:LEU:363:CD1:3188, H-B:LYS:547:NZ:9922, V-A:LEU:363:CA:3184, V-A:ALA:541:CB:4891, H-A:TYR:539:N:4869, H-B:TYR:484:OH:9318"]

$$$$
1b_Ghoteimi_2023
     RDKit          3D

 34 37  0  0  0  0  0  0  0  0999 V2000
  129.1030  127.8170   75.2200 C   0  0  0  0  0  0  0  0  0  0  0  0
  128.3780  126.9360   74.3700 O   0  0  0  0  0  0  0  0  0  0  0  0
  128.4930  127.0760   73.0010 C   0  0  0  0  0  0  0  0  0  0  0  0
  129.3540  128.0720   72.5440 C   0  0  0  0  0  0  0  0  0  0  0  0
  129.5310  128.2880   71.1810 C   0  0  0  0  0  0  0  0  0  0  0  0
  128.8540  127.5090   70.2300 C   0  0  0  0  0  0  0  0  0  0  0  0
  129.0470  127.7460   68.7580 C   0  0  0  0  0  0  0  0  0  0  0  0
  130.0160  127.0800   68.0000 C   0  0  0  0  0  0  0  0  0  0  0  0
  130.1520  127.3340   66.6300 C   0  0  0  0  0  0  0  0  0  0  0  0
  131.2110  126.5900   65.8850 C   0  0  0  0  0  0  0  0  0  0  0  0
  130.9060  125.9420   64.6840 C   0  0  0  0  0  0  0  0  0  0  0  0
  131.8880  125.2400   63.9910 C   0  0  0  0  0  0  0  0  0  0  0  0
  133.1900  125.1680   64.4850 C   0  0  0  0  0  0  0  0  0  0  0  0
  134.0980  124.4490   63.7300 O   0  0  0  0  0  0  0  0  0  0  0  0
  133.8750  124.3020   62.3310 C   0  0  0  0  0  0  0  0  0  0  0  0
  133.4990  125.8100   65.6930 C   0  0  0  0  0  0  0  0  0  0  0  0
  132.5150  126.5110   66.3840 C   0  0  0  0  0  0  0  0  0  0  0  0
  129.2770  128.2730   66.0280 C   0  0  0  0  0  0  0  0  0  0  0  0
  129.3150  128.5030   64.5810 C   0  0  0  0  0  0  0  0  0  0  0  0
  129.3450  128.6850   63.4380 N   0  0  0  0  0  0  0  0  0  0  0  0
  128.3350  128.9260   66.8540 C   0  0  0  0  0  0  0  0  0  0  0  0
  127.1660  130.1370   66.2740 S   0  0  0  0  0  0  0  0  0  0  0  0
  127.9390  131.7820   66.4270 C   0  0  0  0  0  0  0  0  0  0  0  0
  128.3170  132.4480   65.0970 C   0  0  0  0  0  0  0  0  0  0  0  0
  127.9570  133.6000   64.8440 O   0  0  0  0  0  0  0  0  0  0  0  0
  129.0520  131.6730   64.2670 N   0  0  0  0  0  0  0  0  0  0  0  0
  129.5350  132.0100   63.0080 C   0  0  0  0  0  0  0  0  0  0  0  0
  128.8300  131.7610   61.8310 C   0  0  0  0  0  0  0  0  0  0  0  0
  129.6380  132.2370   60.8240 C   0  0  0  0  0  0  0  0  0  0  0  0
  130.7690  132.7490   61.3670 O   0  0  0  0  0  0  0  0  0  0  0  0
  130.6910  132.5990   62.7520 N   0  0  0  0  0  0  0  0  0  0  0  0
  128.2160  128.6500   68.1750 N   0  0  0  0  0  0  0  0  0  0  0  0
  127.9880  126.5100   70.7010 C   0  0  0  0  0  0  0  0  0  0  0  0
  127.8070  126.2930   72.0630 C   0  0  0  0  0  0  0  0  0  0  0  0
  1  2  1  0
  2  3  1  0
  3  4  2  0
  4  5  1  0
  5  6  2  0
  6  7  1  0
  7  8  2  0
  8  9  1  0
  9 10  1  0
 10 11  2  0
 11 12  1  0
 12 13  2  0
 13 14  1  0
 14 15  1  0
 13 16  1  0
 16 17  2  0
  9 18  2  0
 18 19  1  0
 19 20  3  0
 18 21  1  0
 21 22  1  0
 22 23  1  0
 23 24  1  0
 24 25  2  0
 24 26  1  0
 26 27  1  0
 27 28  1  0
 28 29  2  0
 29 30  1  0
 30 31  1  0
 21 32  2  0
  6 33  1  0
 33 34  2  0
 34  3  1  0
 32  7  1  0
 17 10  1  0
 31 27  2  0
M  END
>  <Binding energies>  (2) 
[-7.83]

>  <Ligand effiencies>  (2) 
[-0.22371428571428573]

>  <Interactions>  (2) 
["H-A:GLY:454:N:4049, V-A:ARG:545:CD:4922, V-A:ASP:366:CG:3212, V-A:ARG:545:CG:4921, V-A:ARG:545:CZ:4925, V-A:ILE:369:CD1:3238, V-A:HIS:456:CE1:4069, V-B:HIS:456:CE1:9040, V-B:GLU:543:CB:9877, V-B:GLY:544:C:9883, V-A:GLU:543:CB:4905, V-B:GLU:543:C:9873, V-A:GLU:543:CD:4907, H-A:GLU:543:OE2:4909, V-A:GLU:543:CG:4906, V-B:TYR:484:CE2:9316, H-A:GLU:543:OE1:4908, H-B:LYS:547:NZ:9922, V-A:ALA:541:CB:4891, V-B:TYR:484:CZ:9317, H-A:ALA:541:N:4890, H-B:TYR:484:OH:9318"]

$$$$
1c_Ghoteimi_2023
     RDKit          3D

 34 37  0  0  0  0  0  0  0  0999 V2000
  129.8610  127.0660   75.2360 C   0  0  0  0  0  0  0  0  0  0  0  0
  128.7740  126.6560   74.4130 O   0  0  0  0  0  0  0  0  0  0  0  0
  128.8680  126.8120   73.0440 C   0  0  0  0  0  0  0  0  0  0  0  0
  129.3900  128.0190   72.5860 C   0  0  0  0  0  0  0  0  0  0  0  0
  129.5170  128.2640   71.2220 C   0  0  0  0  0  0  0  0  0  0  0  0
  129.1250  127.3080   70.2730 C   0  0  0  0  0  0  0  0  0  0  0  0
  129.2560  127.5700   68.8000 C   0  0  0  0  0  0  0  0  0  0  0  0
  130.1780  126.8970   67.9910 C   0  0  0  0  0  0  0  0  0  0  0  0
  130.2450  127.1560   66.6170 C   0  0  0  0  0  0  0  0  0  0  0  0
  131.2060  126.3530   65.8040 C   0  0  0  0  0  0  0  0  0  0  0  0
  132.5590  126.2980   66.1500 C   0  0  0  0  0  0  0  0  0  0  0  0
  133.4560  125.5660   65.3790 C   0  0  0  0  0  0  0  0  0  0  0  0
  133.0210  124.8810   64.2460 C   0  0  0  0  0  0  0  0  0  0  0  0
  133.9820  124.1810   63.5400 O   0  0  0  0  0  0  0  0  0  0  0  0
  133.9590  124.2130   62.1170 C   0  0  0  0  0  0  0  0  0  0  0  0
  131.6640  124.9390   63.8900 C   0  0  0  0  0  0  0  0  0  0  0  0
  130.7680  125.6710   64.6640 C   0  0  0  0  0  0  0  0  0  0  0  0
  129.3800  128.1340   66.0730 C   0  0  0  0  0  0  0  0  0  0  0  0
  129.4240  128.4750   64.6470 C   0  0  0  0  0  0  0  0  0  0  0  0
  129.4600  128.7430   63.5220 N   0  0  0  0  0  0  0  0  0  0  0  0
  128.4630  128.7620   66.9420 C   0  0  0  0  0  0  0  0  0  0  0  0
  127.2070  129.8830   66.3670 S   0  0  0  0  0  0  0  0  0  0  0  0
  127.9950  131.5260   66.4040 C   0  0  0  0  0  0  0  0  0  0  0  0
  128.0120  132.1900   65.0230 C   0  0  0  0  0  0  0  0  0  0  0  0
  127.3430  133.2060   64.8280 O   0  0  0  0  0  0  0  0  0  0  0  0
  128.8240  131.6060   64.1130 N   0  0  0  0  0  0  0  0  0  0  0  0
  129.1380  132.0890   62.8530 C   0  0  0  0  0  0  0  0  0  0  0  0
  130.2800  132.6030   62.4470 N   0  0  0  0  0  0  0  0  0  0  0  0
  130.2370  132.9230   61.1680 C   0  0  0  0  0  0  0  0  0  0  0  0
  129.0400  132.6660   60.5090 C   0  0  0  0  0  0  0  0  0  0  0  0
  127.9120  131.9700   61.6340 S   0  0  0  0  0  0  0  0  0  0  0  0
  128.4000  128.4790   68.2650 N   0  0  0  0  0  0  0  0  0  0  0  0
  128.6060  126.0930   70.7450 C   0  0  0  0  0  0  0  0  0  0  0  0
  128.4760  125.8450   72.1080 C   0  0  0  0  0  0  0  0  0  0  0  0
  1  2  1  0
  2  3  1  0
  3  4  2  0
  4  5  1  0
  5  6  2  0
  6  7  1  0
  7  8  2  0
  8  9  1  0
  9 10  1  0
 10 11  2  0
 11 12  1  0
 12 13  2  0
 13 14  1  0
 14 15  1  0
 13 16  1  0
 16 17  2  0
  9 18  2  0
 18 19  1  0
 19 20  3  0
 18 21  1  0
 21 22  1  0
 22 23  1  0
 23 24  1  0
 24 25  2  0
 24 26  1  0
 26 27  1  0
 27 28  2  0
 28 29  1  0
 29 30  2  0
 30 31  1  0
 21 32  2  0
  6 33  1  0
 33 34  2  0
 34  3  1  0
 32  7  1  0
 17 10  1  0
 31 27  1  0
M  END
>  <Binding energies>  (3) 
[-7.37]

>  <Ligand effiencies>  (3) 
[-0.21057142857142858]

>  <Interactions>  (3) 
["H-A:GLY:454:N:4049, V-A:ASP:366:CG:3212, V-A:ARG:545:CZ:4925, V-A:ILE:369:CD1:3238, V-B:GLU:543:CD:9879, V-A:HIS:456:CE1:4069, V-B:HIS:456:CE1:9040, V-B:GLU:543:CB:9877, V-A:GLU:543:CB:4905, V-A:PRO:540:CA:4882, V-B:GLU:543:C:9873, V-A:GLU:543:CD:4907, H-A:GLU:543:OE2:4909, V-A:GLU:543:CG:4906, V-B:TYR:484:CE2:9316, H-A:GLU:543:OE1:4908, H-B:LYS:547:NZ:9922, V-A:PRO:540:C:4880, V-A:ALA:541:CB:4891, V-B:TYR:484:CZ:9317, H-A:ALA:541:N:4890, H-B:TYR:484:OH:9318"]

$$$$
1d_Ghoteimi_2023
     RDKit          3D

 30 32  0  0  0  0  0  0  0  0999 V2000
  128.4910  133.3600   66.5110 C   0  0  0  0  0  0  0  0  0  0  0  0
  127.3330  133.3130   65.6910 O   0  0  0  0  0  0  0  0  0  0  0  0
  126.6570  132.1570   65.5260 C   0  0  0  0  0  0  0  0  0  0  0  0
  125.4380  132.0380   65.3990 O   0  0  0  0  0  0  0  0  0  0  0  0
  127.5810  130.9420   65.5130 C   0  0  0  0  0  0  0  0  0  0  0  0
  126.8640  129.6990   66.6290 S   0  0  0  0  0  0  0  0  0  0  0  0
  128.1980  128.6490   67.1650 C   0  0  0  0  0  0  0  0  0  0  0  0
  128.2320  128.4520   68.5040 N   0  0  0  0  0  0  0  0  0  0  0  0
  129.2020  127.6740   69.0500 C   0  0  0  0  0  0  0  0  0  0  0  0
  129.1650  127.5010   70.5410 C   0  0  0  0  0  0  0  0  0  0  0  0
  128.5540  126.3830   71.1300 C   0  0  0  0  0  0  0  0  0  0  0  0
  128.5150  126.2280   72.5120 C   0  0  0  0  0  0  0  0  0  0  0  0
  129.0840  127.1850   73.3490 C   0  0  0  0  0  0  0  0  0  0  0  0
  128.9960  126.9500   74.7080 O   0  0  0  0  0  0  0  0  0  0  0  0
  130.1790  126.9950   75.4980 C   0  0  0  0  0  0  0  0  0  0  0  0
  129.6980  128.3070   72.7760 C   0  0  0  0  0  0  0  0  0  0  0  0
  129.7350  128.4580   71.3930 C   0  0  0  0  0  0  0  0  0  0  0  0
  130.1650  127.0620   68.2390 C   0  0  0  0  0  0  0  0  0  0  0  0
  130.1620  127.2610   66.8530 C   0  0  0  0  0  0  0  0  0  0  0  0
  131.2240  126.5840   66.0470 C   0  0  0  0  0  0  0  0  0  0  0  0
  132.5310  126.4980   66.5370 C   0  0  0  0  0  0  0  0  0  0  0  0
  133.5250  125.8680   65.7930 C   0  0  0  0  0  0  0  0  0  0  0  0
  133.2330  125.3090   64.5490 C   0  0  0  0  0  0  0  0  0  0  0  0
  134.2830  124.7110   63.8790 O   0  0  0  0  0  0  0  0  0  0  0  0
  134.1120  124.3320   62.5180 C   0  0  0  0  0  0  0  0  0  0  0  0
  131.9200  125.3820   64.0590 C   0  0  0  0  0  0  0  0  0  0  0  0
  130.9280  126.0110   64.8060 C   0  0  0  0  0  0  0  0  0  0  0  0
  129.1630  128.0960   66.2930 C   0  0  0  0  0  0  0  0  0  0  0  0
  129.1750  128.4230   64.8640 C   0  0  0  0  0  0  0  0  0  0  0  0
  129.1850  128.6800   63.7360 N   0  0  0  0  0  0  0  0  0  0  0  0
  1  2  1  0
  2  3  1  0
  3  4  2  0
  3  5  1  0
  5  6  1  0
  6  7  1  0
  7  8  2  0
  8  9  1  0
  9 10  1  0
 10 11  2  0
 11 12  1  0
 12 13  2  0
 13 14  1  0
 14 15  1  0
 13 16  1  0
 16 17  2  0
  9 18  2  0
 18 19  1  0
 19 20  1  0
 20 21  2  0
 21 22  1  0
 22 23  2  0
 23 24  1  0
 24 25  1  0
 23 26  1  0
 26 27  2  0
 19 28  2  0
 28 29  1  0
 29 30  3  0
 28  7  1  0
 17 10  1  0
 27 20  1  0
M  END
>  <Binding energies>  (4) 
[-6.35]

>  <Ligand effiencies>  (4) 
[-0.21166666666666664]

>  <Interactions>  (4) 
["H-A:GLY:454:N:4049, V-A:ARG:545:CD:4922, V-A:ASP:366:CG:3212, V-A:ARG:545:CG:4921, V-A:ARG:545:CZ:4925, V-A:ILE:369:CD1:3238, V-B:GLU:543:CD:9879, V-A:HIS:456:CE1:4069, V-B:HIS:456:CE1:9040, V-A:GLU:543:CB:4905, V-A:GLU:543:CD:4907, V-A:GLU:543:CG:4906, V-A:GLU:543:CA:4903, V-B:TYR:484:CE2:9316, H-B:LYS:547:NZ:9922, V-B:LEU:475:CD1:9228, V-A:ALA:541:CB:4891, V-B:TYR:484:CZ:9317, H-B:TYR:484:OH:9318, V-B:LEU:475:CD2:9229"]

$$$$
1j_Grossjean_2025
     RDKit          3D

 20 21  0  0  0  0  0  0  0  0999 V2000
  129.0200  122.1630   62.4870 C   0  0  0  0  0  0  0  0  0  0  0  0
  130.1780  121.4260   61.8390 C   0  0  0  0  0  0  0  0  0  0  0  0
  130.1510  120.0460   61.6520 C   0  0  0  0  0  0  0  0  0  0  0  0
  131.2410  119.4230   61.0370 C   0  0  0  0  0  0  0  0  0  0  0  0
  131.1810  117.9100   60.8270 C   0  0  0  0  0  0  0  0  0  0  0  0
  132.3450  120.2050   60.6300 C   0  0  0  0  0  0  0  0  0  0  0  0
  133.4740  119.5810   59.9360 C   0  0  0  0  0  0  0  0  0  0  0  0
  134.3640  119.0840   59.3880 N   0  0  0  0  0  0  0  0  0  0  0  0
  132.2980  121.5970   60.8830 C   0  0  0  0  0  0  0  0  0  0  0  0
  133.5970  122.7300   60.4410 S   0  0  0  0  0  0  0  0  0  0  0  0
  133.2080  124.3370   61.1940 C   0  0  0  0  0  0  0  0  0  0  0  0
  133.2840  124.2890   62.7210 C   0  0  0  0  0  0  0  0  0  0  0  0
  133.3870  123.2000   63.2870 O   0  0  0  0  0  0  0  0  0  0  0  0
  133.2330  125.4860   63.3450 N   0  0  0  0  0  0  0  0  0  0  0  0
  133.2760  125.7100   64.7140 C   0  0  0  0  0  0  0  0  0  0  0  0
  134.3130  125.6000   65.5170 N   0  0  0  0  0  0  0  0  0  0  0  0
  133.9920  125.8900   66.7630 C   0  0  0  0  0  0  0  0  0  0  0  0
  132.6660  126.2460   66.9910 C   0  0  0  0  0  0  0  0  0  0  0  0
  131.8010  126.1970   65.4840 S   0  0  0  0  0  0  0  0  0  0  0  0
  131.2260  122.1950   61.4610 N   0  0  0  0  0  0  0  0  0  0  0  0
  1  2  1  0
  2  3  2  0
  3  4  1  0
  4  5  1  0
  4  6  2  0
  6  7  1  0
  7  8  3  0
  6  9  1  0
  9 10  1  0
 10 11  1  0
 11 12  1  0
 12 13  2  0
 12 14  1  0
 14 15  1  0
 15 16  2  0
 16 17  1  0
 17 18  2  0
 18 19  1  0
  9 20  2  0
 20  2  1  0
 19 15  1  0
M  END
>  <Binding energies>  (5) 
[-6.78]

>  <Ligand effiencies>  (5) 
[-0.32285714285714284]

>  <Interactions>  (5) 
["H-A:GLY:454:N:4049, H-A:ARG:545:NE:4923, H-A:ARG:545:NH1:4926, V-B:TYR:539:CE2:9847, V-A:ARG:545:CD:4922, V-A:LEU:475:CD2:4258, V-A:ILE:369:CG2:3236, V-A:ASP:366:CG:3212, V-B:TYR:539:CD2:9845, V-A:ARG:545:CG:4921, V-B:ALA:541:CB:9863, V-A:ARG:545:CZ:4925, H-A:TYR:484:OH:4347, V-A:ILE:369:CD1:3238, V-A:SER:385:CA:3406, V-A:HIS:456:CE1:4069, V-B:ALA:541:CA:9861, H-A:ASP:366:OD2:3214, H-A:ASP:366:OD1:3213"]

$$$$
1o_Grossjean_2025
     RDKit          3D

 26 27  0  0  0  0  0  0  0  0999 V2000
  132.2850  117.5820   58.9380 C   0  0  0  0  0  0  0  0  0  0  0  0
  132.8480  117.2150   60.1900 O   0  0  0  0  0  0  0  0  0  0  0  0
  132.4310  117.8000   61.3420 C   0  0  0  0  0  0  0  0  0  0  0  0
  132.3250  117.1940   62.4130 O   0  0  0  0  0  0  0  0  0  0  0  0
  132.1150  119.2600   61.1870 C   0  0  0  0  0  0  0  0  0  0  0  0
  133.0940  120.1960   60.8220 C   0  0  0  0  0  0  0  0  0  0  0  0
  132.7670  121.5430   60.6830 C   0  0  0  0  0  0  0  0  0  0  0  0
  131.4630  121.9820   60.9120 C   0  0  0  0  0  0  0  0  0  0  0  0
  131.2410  123.3620   60.7350 N   0  0  0  0  0  0  0  0  0  0  0  0
  131.8440  124.2350   59.8980 C   0  0  0  0  0  0  0  0  0  0  0  0
  132.7080  123.9440   59.0710 O   0  0  0  0  0  0  0  0  0  0  0  0
  131.3610  125.6890   60.0000 C   0  0  0  0  0  0  0  0  0  0  0  0
  129.8250  125.8260   59.9660 C   0  0  0  0  0  0  0  0  0  0  0  0
  129.0750  126.1200   61.5950 S   0  0  0  0  0  0  0  0  0  0  0  0
  129.9000  125.0890   62.7910 C   0  0  0  0  0  0  0  0  0  0  0  0
  131.1920  125.4420   63.0080 N   0  0  0  0  0  0  0  0  0  0  0  0
  131.9190  124.7340   63.9040 C   0  0  0  0  0  0  0  0  0  0  0  0
  133.3500  125.1960   64.1040 C   0  0  0  0  0  0  0  0  0  0  0  0
  131.3970  123.6490   64.6050 C   0  0  0  0  0  0  0  0  0  0  0  0
  130.0740  123.2610   64.3700 C   0  0  0  0  0  0  0  0  0  0  0  0
  129.5300  122.0590   65.1410 C   0  0  0  0  0  0  0  0  0  0  0  0
  129.2970  123.9820   63.4360 C   0  0  0  0  0  0  0  0  0  0  0  0
  127.9290  123.5540   63.1340 C   0  0  0  0  0  0  0  0  0  0  0  0
  126.8480  123.2150   62.8970 N   0  0  0  0  0  0  0  0  0  0  0  0
  130.4770  121.0500   61.2720 C   0  0  0  0  0  0  0  0  0  0  0  0
  130.8060  119.7040   61.4090 C   0  0  0  0  0  0  0  0  0  0  0  0
  1  2  1  0
  2  3  1  0
  3  4  2  0
  3  5  1  0
  5  6  2  0
  6  7  1  0
  7  8  2  0
  8  9  1  0
  9 10  1  0
 10 11  2  0
 10 12  1  0
 12 13  1  0
 13 14  1  0
 14 15  1  0
 15 16  2  0
 16 17  1  0
 17 18  1  0
 17 19  2  0
 19 20  1  0
 20 21  1  0
 20 22  2  0
 22 23  1  0
 23 24  3  0
  8 25  1  0
 25 26  2  0
 26  5  1  0
 22 15  1  0
M  END
>  <Binding energies>  (6) 
[-6.56]

>  <Ligand effiencies>  (6) 
[-0.24296296296296294]

>  <Interactions>  (6) 
["V-A:HIS:383:CE1:3393, V-B:TYR:539:CE2:9847, H-A:HIS:383:ND1:3390, V-A:LEU:475:CD2:4258, V-A:ILE:369:CG2:3236, V-B:TYR:539:CB:9842, V-A:ASP:366:CG:3212, V-A:LEU:373:CD2:3280, V-B:TYR:539:CD2:9845, V-B:ALA:541:CB:9863, V-A:ARG:545:CZ:4925, V-B:GLU:543:CD:9879, V-A:SER:385:CB:3408, V-A:SER:385:CA:3406, H-B:ALA:541:N:9862, V-B:GLU:543:CG:9878, V-B:TYR:539:CG:9843, V-A:TYR:484:CE2:4345, V-A:LEU:475:CD1:4257, H-B:TYR:539:OH:9849, V-A:LEU:373:CG:3278, V-A:LEU:373:CD1:3279"]

$$$$
1p_Grossjean_2025
     RDKit          3D

 21 22  0  0  0  0  0  0  0  0999 V2000
  131.4570  128.6140   73.6480 C   0  0  0  0  0  0  0  0  0  0  0  0
  130.2830  128.1570   72.8030 C   0  0  0  0  0  0  0  0  0  0  0  0
  129.3410  127.2550   73.2930 C   0  0  0  0  0  0  0  0  0  0  0  0
  128.2860  126.8570   72.4650 C   0  0  0  0  0  0  0  0  0  0  0  0
  127.2730  125.8560   73.0180 C   0  0  0  0  0  0  0  0  0  0  0  0
  128.1960  127.3860   71.1580 C   0  0  0  0  0  0  0  0  0  0  0  0
  127.1290  126.9500   70.2560 C   0  0  0  0  0  0  0  0  0  0  0  0
  126.2840  126.6040   69.5430 N   0  0  0  0  0  0  0  0  0  0  0  0
  129.1850  128.3140   70.7520 C   0  0  0  0  0  0  0  0  0  0  0  0
  129.2150  129.0810   69.1480 S   0  0  0  0  0  0  0  0  0  0  0  0
  129.2040  127.7400   67.9230 C   0  0  0  0  0  0  0  0  0  0  0  0
  130.1220  126.5580   68.2880 C   0  0  0  0  0  0  0  0  0  0  0  0
  130.7680  125.8840   67.0680 C   0  0  0  0  0  0  0  0  0  0  0  0
  130.2580  124.8660   66.5950 O   0  0  0  0  0  0  0  0  0  0  0  0
  131.8760  126.4890   66.5850 N   0  0  0  0  0  0  0  0  0  0  0  0
  132.6460  126.0910   65.5000 C   0  0  0  0  0  0  0  0  0  0  0  0
  132.1220  125.9040   64.2210 C   0  0  0  0  0  0  0  0  0  0  0  0
  133.1920  125.5180   63.4470 C   0  0  0  0  0  0  0  0  0  0  0  0
  134.3030  125.4720   64.2200 O   0  0  0  0  0  0  0  0  0  0  0  0
  133.9440  125.8360   65.5190 N   0  0  0  0  0  0  0  0  0  0  0  0
  130.2160  128.6770   71.5550 N   0  0  0  0  0  0  0  0  0  0  0  0
  1  2  1  0
  2  3  2  0
  3  4  1  0
  4  5  1  0
  4  6  2  0
  6  7  1  0
  7  8  3  0
  6  9  1  0
  9 10  1  0
 10 11  1  0
 11 12  1  0
 12 13  1  0
 13 14  2  0
 13 15  1  0
 15 16  1  0
 16 17  1  0
 17 18  2  0
 18 19  1  0
 19 20  1  0
  9 21  2  0
 21  2  1  0
 20 16  2  0
M  END
>  <Binding energies>  (7) 
[-7.1]

>  <Ligand effiencies>  (7) 
[-0.3227272727272727]

>  <Interactions>  (7) 
["H-A:GLY:454:N:4049, H-A:ARG:545:NE:4923, H-A:ARG:545:NH2:4927, H-A:ARG:545:NH1:4926, V-A:ASP:366:CG:3212, V-A:ARG:545:CZ:4925, H-A:TYR:484:OH:4347, V-A:HIS:456:CE1:4069, V-A:TYR:484:CE2:4345, V-A:TYR:484:CZ:4346, V-B:HIS:456:CE1:9040, V-B:GLU:543:CB:9877, V-B:GLY:544:C:9883, V-B:GLU:543:C:9873, V-A:GLU:543:CD:4907, H-A:GLU:543:OE1:4908, V-A:GLY:544:CA:4913, V-A:GLY:544:C:4911, V-B:LYS:547:CE:9921, V-B:GLY:544:CA:9885, H-B:ARG:545:N:9891"]

$$$$
2a_Ghoteimi_2023
     RDKit          3D

 48 53  0  0  0  0  0  0  0  0999 V2000
  131.3930  132.8310   56.4240 C   0  0  0  0  0  0  0  0  0  0  0  0
  132.8240  132.8090   56.9700 C   0  0  0  0  0  0  0  0  0  0  0  0
  133.2480  131.4620   57.1280 O   0  0  0  0  0  0  0  0  0  0  0  0
  133.6660  130.9940   58.3320 C   0  0  0  0  0  0  0  0  0  0  0  0
  134.7110  130.3550   58.4870 O   0  0  0  0  0  0  0  0  0  0  0  0
  132.7330  131.3370   59.4580 C   0  0  0  0  0  0  0  0  0  0  0  0
  131.3650  131.0320   59.4070 C   0  0  0  0  0  0  0  0  0  0  0  0
  130.5280  131.3630   60.4680 C   0  0  0  0  0  0  0  0  0  0  0  0
  131.0370  132.0000   61.6020 C   0  0  0  0  0  0  0  0  0  0  0  0
  130.1010  132.2910   62.6120 N   0  0  0  0  0  0  0  0  0  0  0  0
  128.9540  133.0020   62.5500 C   0  0  0  0  0  0  0  0  0  0  0  0
  128.5360  133.5860   61.5490 O   0  0  0  0  0  0  0  0  0  0  0  0
  128.1690  133.0890   63.8650 C   0  0  0  0  0  0  0  0  0  0  0  0
  126.5120  132.3330   63.8060 S   0  0  0  0  0  0  0  0  0  0  0  0
  126.7810  130.5800   63.9160 C   0  0  0  0  0  0  0  0  0  0  0  0
  127.0300  130.1410   65.1720 N   0  0  0  0  0  0  0  0  0  0  0  0
  127.2610  128.8210   65.3840 C   0  0  0  0  0  0  0  0  0  0  0  0
  127.5390  128.4110   66.7940 C   0  0  0  0  0  0  0  0  0  0  0  0
  128.8500  128.3220   67.2790 C   0  0  0  0  0  0  0  0  0  0  0  0
  129.1030  127.9280   68.5900 C   0  0  0  0  0  0  0  0  0  0  0  0
  128.0560  127.6160   69.4690 C   0  0  0  0  0  0  0  0  0  0  0  0
  128.3270  127.1930   70.7740 N   0  0  0  0  0  0  0  0  0  0  0  0
  127.2830  126.5760   71.6160 C   0  0  0  0  0  0  0  0  0  0  0  0
  127.8350  125.8520   72.8630 C   0  0  0  0  0  0  0  0  0  0  0  0
  128.6410  126.7380   73.6220 O   0  0  0  0  0  0  0  0  0  0  0  0
  129.7480  127.2050   72.8680 C   0  0  0  0  0  0  0  0  0  0  0  0
  129.2570  127.9700   71.6210 C   0  0  0  0  0  0  0  0  0  0  0  0
  126.7440  127.6960   68.9740 C   0  0  0  0  0  0  0  0  0  0  0  0
  126.4910  128.0920   67.6640 C   0  0  0  0  0  0  0  0  0  0  0  0
  127.2330  127.9040   64.3300 C   0  0  0  0  0  0  0  0  0  0  0  0
  126.9760  128.3350   63.0210 C   0  0  0  0  0  0  0  0  0  0  0  0
  126.9660  127.3020   61.9410 C   0  0  0  0  0  0  0  0  0  0  0  0
  127.9540  126.3150   61.9040 C   0  0  0  0  0  0  0  0  0  0  0  0
  127.9650  125.3600   60.8910 C   0  0  0  0  0  0  0  0  0  0  0  0
  126.9860  125.3630   59.8860 C   0  0  0  0  0  0  0  0  0  0  0  0
  126.9900  124.4250   58.8490 N   0  0  0  0  0  0  0  0  0  0  0  0
  125.7240  123.7680   58.4640 C   0  0  0  0  0  0  0  0  0  0  0  0
  125.7930  123.0740   57.0870 C   0  0  0  0  0  0  0  0  0  0  0  0
  126.8690  122.1490   57.0610 O   0  0  0  0  0  0  0  0  0  0  0  0
  128.1150  122.7870   57.2920 C   0  0  0  0  0  0  0  0  0  0  0  0
  128.1080  123.4780   58.6720 C   0  0  0  0  0  0  0  0  0  0  0  0
  126.0050  126.3640   59.9240 C   0  0  0  0  0  0  0  0  0  0  0  0
  125.9950  127.3200   60.9360 C   0  0  0  0  0  0  0  0  0  0  0  0
  126.7360  129.7130   62.8010 C   0  0  0  0  0  0  0  0  0  0  0  0
  126.4070  130.2150   61.4630 C   0  0  0  0  0  0  0  0  0  0  0  0
  126.1490  130.6090   60.4060 N   0  0  0  0  0  0  0  0  0  0  0  0
  132.4030  132.3150   61.6560 C   0  0  0  0  0  0  0  0  0  0  0  0
  133.2400  131.9820   60.5930 C   0  0  0  0  0  0  0  0  0  0  0  0
  1  2  1  0
  2  3  1  0
  3  4  1  0
  4  5  2  0
  4  6  1  0
  6  7  2  0
  7  8  1  0
  8  9  2  0
  9 10  1  0
 10 11  1  0
 11 12  2  0
 11 13  1  0
 13 14  1  0
 14 15  1  0
 15 16  2  0
 16 17  1  0
 17 18  1  0
 18 19  2  0
 19 20  1  0
 20 21  2  0
 21 22  1  0
 22 23  1  0
 23 24  1  0
 24 25  1  0
 25 26  1  0
 26 27  1  0
 21 28  1  0
 28 29  2  0
 17 30  2  0
 30 31  1  0
 31 32  1  0
 32 33  2  0
 33 34  1  0
 34 35  2  0
 35 36  1  0
 36 37  1  0
 37 38  1  0
 38 39  1  0
 39 40  1  0
 40 41  1  0
 35 42  1  0
 42 43  2  0
 31 44  2  0
 44 45  1  0
 45 46  3  0
  9 47  1  0
 47 48  2  0
 48  6  1  0
 44 15  1  0
 29 18  1  0
 43 32  1  0
 27 22  1  0
 41 36  1  0
M  END
>  <Binding energies>  (8) 
[-9.89]

>  <Ligand effiencies>  (8) 
[-0.20183673469387756]

>  <Interactions>  (8) 
["V-B:TYR:539:CE2:9847, V-B:TYR:539:CD2:9845, V-B:PRO:540:CB:9856, V-B:GLU:543:CD:9879, V-B:PRO:540:CA:9854, V-B:TYR:539:CG:9843, V-A:HIS:456:CE1:4069, V-B:TYR:539:CZ:9848, V-A:ASP:366:CB:3211, V-B:TYR:539:C:9838, V-B:HIS:456:CE1:9040, V-B:GLU:543:CB:9877, V-B:GLY:544:C:9883, V-A:PRO:540:CB:4884, V-A:PRO:540:CA:4882, V-B:GLU:543:C:9873, V-A:GLU:543:CD:4907, H-A:GLU:543:OE2:4909, V-B:MET:535:CE:9806, V-B:PRO:540:N:9855, H-B:TYR:539:N:9841, V-B:TYR:539:CE1:9846, H-A:TYR:531:OH:4794, V-A:TYR:531:CE2:4792, V-A:LEU:363:CD1:3188, H-B:LYS:547:NZ:9922, V-A:ASN:362:CB:3175, V-A:LEU:363:CA:3184, V-B:ASP:366:CG:8183, V-A:ASN:362:C:3171, V-A:PRO:540:C:4880, V-B:TYR:539:CD1:9844, V-B:LYS:547:CE:9921, V-A:ALA:541:CB:4891, H-A:LEU:363:N:3185, V-B:GLY:544:CA:9885"]

$$$$
2aa_Ghoteimi_2023
     RDKit          3D

 48 53  0  0  0  0  0  0  0  0999 V2000
  133.4550  130.8160   61.1250 C   0  0  0  0  0  0  0  0  0  0  0  0
  133.7570  131.9850   60.1820 C   0  0  0  0  0  0  0  0  0  0  0  0
  133.8660  131.5000   58.8500 O   0  0  0  0  0  0  0  0  0  0  0  0
  132.9530  131.8380   57.9030 C   0  0  0  0  0  0  0  0  0  0  0  0
  133.2540  132.1150   56.7370 O   0  0  0  0  0  0  0  0  0  0  0  0
  131.5400  131.8260   58.4090 C   0  0  0  0  0  0  0  0  0  0  0  0
  131.0290  130.7520   59.1530 C   0  0  0  0  0  0  0  0  0  0  0  0
  129.7160  130.7720   59.6130 C   0  0  0  0  0  0  0  0  0  0  0  0
  128.8850  131.8580   59.3330 C   0  0  0  0  0  0  0  0  0  0  0  0
  127.5760  131.7760   59.8490 N   0  0  0  0  0  0  0  0  0  0  0  0
  126.9720  132.5230   60.7970 C   0  0  0  0  0  0  0  0  0  0  0  0
  127.4880  133.4770   61.3830 O   0  0  0  0  0  0  0  0  0  0  0  0
  125.5250  132.1170   61.1050 C   0  0  0  0  0  0  0  0  0  0  0  0
  125.4050  131.7760   62.4900 O   0  0  0  0  0  0  0  0  0  0  0  0
  125.9150  130.5730   62.9590 C   0  0  0  0  0  0  0  0  0  0  0  0
  125.9700  129.5210   62.0950 N   0  0  0  0  0  0  0  0  0  0  0  0
  126.4670  128.3320   62.5200 C   0  0  0  0  0  0  0  0  0  0  0  0
  126.4930  127.2210   61.5180 C   0  0  0  0  0  0  0  0  0  0  0  0
  127.0380  127.4200   60.2460 C   0  0  0  0  0  0  0  0  0  0  0  0
  127.0710  126.3880   59.3110 C   0  0  0  0  0  0  0  0  0  0  0  0
  126.5710  125.1130   59.6200 C   0  0  0  0  0  0  0  0  0  0  0  0
  126.5840  124.0680   58.6890 N   0  0  0  0  0  0  0  0  0  0  0  0
  125.4550  123.8480   57.7620 C   0  0  0  0  0  0  0  0  0  0  0  0
  125.4780  122.4700   57.0690 C   0  0  0  0  0  0  0  0  0  0  0  0
  126.7190  122.2780   56.4100 O   0  0  0  0  0  0  0  0  0  0  0  0
  127.8040  122.3220   57.3240 C   0  0  0  0  0  0  0  0  0  0  0  0
  127.8510  123.6970   58.0250 C   0  0  0  0  0  0  0  0  0  0  0  0
  126.0050  124.9260   60.8900 C   0  0  0  0  0  0  0  0  0  0  0  0
  125.9700  125.9590   61.8220 C   0  0  0  0  0  0  0  0  0  0  0  0
  126.9080  128.1620   63.8360 C   0  0  0  0  0  0  0  0  0  0  0  0
  126.8510  129.2240   64.7470 C   0  0  0  0  0  0  0  0  0  0  0  0
  127.3130  128.9740   66.1460 C   0  0  0  0  0  0  0  0  0  0  0  0
  128.5750  129.4090   66.5610 C   0  0  0  0  0  0  0  0  0  0  0  0
  129.0190  129.1620   67.8570 C   0  0  0  0  0  0  0  0  0  0  0  0
  128.2200  128.4600   68.7720 C   0  0  0  0  0  0  0  0  0  0  0  0
  128.6440  128.2040   70.0790 N   0  0  0  0  0  0  0  0  0  0  0  0
  129.8580  128.8350   70.6310 C   0  0  0  0  0  0  0  0  0  0  0  0
  129.9670  128.7200   72.1660 C   0  0  0  0  0  0  0  0  0  0  0  0
  129.8830  127.3570   72.5570 O   0  0  0  0  0  0  0  0  0  0  0  0
  128.6510  126.7750   72.1590 C   0  0  0  0  0  0  0  0  0  0  0  0
  128.5080  126.8390   70.6250 C   0  0  0  0  0  0  0  0  0  0  0  0
  126.9530  128.0350   68.3490 C   0  0  0  0  0  0  0  0  0  0  0  0
  126.5080  128.2820   67.0540 C   0  0  0  0  0  0  0  0  0  0  0  0
  126.3540  130.4670   64.2910 C   0  0  0  0  0  0  0  0  0  0  0  0
  126.3040  131.6460   65.1590 C   0  0  0  0  0  0  0  0  0  0  0  0
  126.2660  132.5770   65.8450 N   0  0  0  0  0  0  0  0  0  0  0  0
  129.3900  132.9390   58.5960 C   0  0  0  0  0  0  0  0  0  0  0  0
  130.7050  132.9180   58.1400 C   0  0  0  0  0  0  0  0  0  0  0  0
  1  2  1  0
  2  3  1  0
  3  4  1  0
  4  5  2  0
  4  6  1  0
  6  7  2  0
  7  8  1  0
  8  9  2  0
  9 10  1  0
 10 11  1  0
 11 12  2  0
 11 13  1  0
 13 14  1  0
 14 15  1  0
 15 16  2  0
 16 17  1  0
 17 18  1  0
 18 19  2  0
 19 20  1  0
 20 21  2  0
 21 22  1  0
 22 23  1  0
 23 24  1  0
 24 25  1  0
 25 26  1  0
 26 27  1  0
 21 28  1  0
 28 29  2  0
 17 30  2  0
 30 31  1  0
 31 32  1  0
 32 33  2  0
 33 34  1  0
 34 35  2  0
 35 36  1  0
 36 37  1  0
 37 38  1  0
 38 39  1  0
 39 40  1  0
 40 41  1  0
 35 42  1  0
 42 43  2  0
 31 44  2  0
 44 45  1  0
 45 46  3  0
  9 47  1  0
 47 48  2  0
 48  6  1  0
 44 15  1  0
 29 18  1  0
 43 32  1  0
 27 22  1  0
 41 36  1  0
M  END
>  <Binding energies>  (9) 
[-8.82]

>  <Ligand effiencies>  (9) 
[-0.18]

>  <Interactions>  (9) 
["V-B:TYR:539:CE2:9847, V-A:ASP:366:CG:3212, V-B:TYR:539:CD2:9845, V-B:PRO:540:CB:9856, V-B:GLU:543:CD:9879, V-B:PRO:540:CA:9854, V-B:TYR:539:CG:9843, V-A:HIS:456:CE1:4069, V-B:TYR:539:CZ:9848, V-B:TYR:539:C:9838, V-B:HIS:456:CE1:9040, V-B:GLU:543:CB:9877, V-A:PRO:540:CB:4884, V-A:GLU:543:CB:4905, V-A:PRO:540:CA:4882, V-A:GLU:543:CD:4907, V-B:MET:535:CE:9806, V-B:PRO:540:N:9855, H-B:TYR:539:N:9841, V-B:TYR:539:CE1:9846, V-A:GLU:543:CG:4906, H-A:TYR:531:OH:4794, V-A:GLU:543:C:4901, H-A:HIS:456:ND1:4066, V-A:PRO:540:N:4883, V-A:TYR:531:CE2:4792, V-A:TYR:539:C:4866, V-A:LEU:363:CD1:3188, V-B:LEU:475:CD1:9228, V-A:ASN:362:CB:3175, V-A:LEU:363:CA:3184, V-B:PRO:540:CD:9858, V-B:PRO:540:CG:9857, V-B:TYR:539:CA:9840, V-A:ASN:362:C:3171, V-A:TYR:539:CD1:4872, V-A:TYR:539:CE1:4874, V-B:TYR:539:CD1:9844, H-A:LEU:363:N:3185, H-B:TYR:484:OH:9318, V-B:LEU:363:CD1:8159"]

$$$$
2b_Ghoteimi_2023
     RDKit          3D

 42 47  0  0  0  0  0  0  0  0999 V2000
  131.0110  125.9530   58.7460 N   0  0  0  0  0  0  0  0  0  0  0  0
  130.8850  126.1040   59.8860 C   0  0  0  0  0  0  0  0  0  0  0  0
  130.7270  126.2900   61.3320 C   0  0  0  0  0  0  0  0  0  0  0  0
  130.8460  125.1890   62.2160 C   0  0  0  0  0  0  0  0  0  0  0  0
  131.1350  123.7930   61.7710 C   0  0  0  0  0  0  0  0  0  0  0  0
  132.4360  123.4170   61.4330 C   0  0  0  0  0  0  0  0  0  0  0  0
  132.7110  122.1180   61.0160 C   0  0  0  0  0  0  0  0  0  0  0  0
  131.6870  121.1630   60.9090 C   0  0  0  0  0  0  0  0  0  0  0  0
  131.9390  119.8510   60.5060 N   0  0  0  0  0  0  0  0  0  0  0  0
  133.1920  119.5480   59.7860 C   0  0  0  0  0  0  0  0  0  0  0  0
  133.1750  118.1770   59.0770 C   0  0  0  0  0  0  0  0  0  0  0  0
  132.8570  117.1510   60.0040 O   0  0  0  0  0  0  0  0  0  0  0  0
  131.5840  117.3560   60.5980 C   0  0  0  0  0  0  0  0  0  0  0  0
  131.5670  118.7000   61.3530 C   0  0  0  0  0  0  0  0  0  0  0  0
  130.3830  121.5520   61.2470 C   0  0  0  0  0  0  0  0  0  0  0  0
  130.1090  122.8500   61.6680 C   0  0  0  0  0  0  0  0  0  0  0  0
  130.6920  125.4170   63.5890 C   0  0  0  0  0  0  0  0  0  0  0  0
  130.4590  126.7080   64.0710 C   0  0  0  0  0  0  0  0  0  0  0  0
  130.3170  127.0090   65.5290 C   0  0  0  0  0  0  0  0  0  0  0  0
  129.4780  128.0400   65.9670 C   0  0  0  0  0  0  0  0  0  0  0  0
  129.3280  128.3150   67.3230 C   0  0  0  0  0  0  0  0  0  0  0  0
  130.0230  127.5770   68.2940 C   0  0  0  0  0  0  0  0  0  0  0  0
  129.8600  127.8220   69.6630 N   0  0  0  0  0  0  0  0  0  0  0  0
  130.1410  129.1660   70.2080 C   0  0  0  0  0  0  0  0  0  0  0  0
  130.2990  129.1880   71.7440 C   0  0  0  0  0  0  0  0  0  0  0  0
  129.1530  128.6190   72.3580 O   0  0  0  0  0  0  0  0  0  0  0  0
  128.9690  127.2690   71.9640 C   0  0  0  0  0  0  0  0  0  0  0  0
  128.7750  127.1870   70.4350 C   0  0  0  0  0  0  0  0  0  0  0  0
  130.8570  126.5400   67.8520 C   0  0  0  0  0  0  0  0  0  0  0  0
  131.0040  126.2640   66.4950 C   0  0  0  0  0  0  0  0  0  0  0  0
  130.3460  127.7610   63.2220 N   0  0  0  0  0  0  0  0  0  0  0  0
  130.4580  127.5610   61.8880 C   0  0  0  0  0  0  0  0  0  0  0  0
  130.2790  129.0480   60.9260 S   0  0  0  0  0  0  0  0  0  0  0  0
  131.4440  130.2750   61.5910 C   0  0  0  0  0  0  0  0  0  0  0  0
  131.4880  131.5460   60.7410 C   0  0  0  0  0  0  0  0  0  0  0  0
  131.6020  132.6400   61.2970 O   0  0  0  0  0  0  0  0  0  0  0  0
  131.3890  131.3570   59.4070 N   0  0  0  0  0  0  0  0  0  0  0  0
  131.4110  132.3280   58.4160 C   0  0  0  0  0  0  0  0  0  0  0  0
  132.5010  132.5250   57.5690 C   0  0  0  0  0  0  0  0  0  0  0  0
  132.1310  133.5620   56.7450 C   0  0  0  0  0  0  0  0  0  0  0  0
  130.8820  133.9680   57.0770 O   0  0  0  0  0  0  0  0  0  0  0  0
  130.4350  133.1760   58.1380 N   0  0  0  0  0  0  0  0  0  0  0  0
  1  2  3  0
  2  3  1  0
  3  4  2  0
  4  5  1  0
  5  6  2  0
  6  7  1  0
  7  8  2  0
  8  9  1  0
  9 10  1  0
 10 11  1  0
 11 12  1  0
 12 13  1  0
 13 14  1  0
  8 15  1  0
 15 16  2  0
  4 17  1  0
 17 18  2  0
 18 19  1  0
 19 20  2  0
 20 21  1  0
 21 22  2  0
 22 23  1  0
 23 24  1  0
 24 25  1  0
 25 26  1  0
 26 27  1  0
 27 28  1  0
 22 29  1  0
 29 30  2  0
 18 31  1  0
 31 32  2  0
 32 33  1  0
 33 34  1  0
 34 35  1  0
 35 36  2  0
 35 37  1  0
 37 38  1  0
 38 39  1  0
 39 40  2  0
 40 41  1  0
 41 42  1  0
 32  3  1  0
 42 38  2  0
 16  5  1  0
 30 19  1  0
 14  9  1  0
 28 23  1  0
M  END
>  <Binding energies>  (10) 
[-10.26]

>  <Ligand effiencies>  (10) 
[-0.2386046511627907]

>  <Interactions>  (10) 
["V-A:HIS:383:CE1:3393, H-A:ARG:545:NH2:4927, V-B:TYR:539:CE2:9847, H-A:HIS:383:ND1:3390, V-A:LEU:475:CD2:4258, V-A:ILE:369:CG2:3236, V-A:ASP:366:CG:3212, V-A:LEU:373:CD2:3280, V-B:TYR:539:CD2:9845, V-B:GLU:543:CD:9879, V-A:SER:385:CA:3406, V-A:VAL:384:C:3396, V-A:HIS:456:CE1:4069, V-B:HIS:456:CE1:9040, V-A:PRO:540:CB:4884, V-A:GLU:543:CB:4905, V-A:PRO:540:CA:4882, V-A:GLU:543:CD:4907, V-A:GLU:543:CG:4906, H-A:TYR:531:OH:4794, V-A:GLU:543:C:4901, V-A:GLU:543:CA:4903, V-A:PRO:540:N:4883, V-A:TYR:531:CE2:4792, V-A:LEU:363:CD1:3188, V-A:GLY:544:CA:4913, V-A:GLY:544:C:4911, V-A:LEU:373:CG:3278, V-A:LEU:373:CD1:3279, H-A:ALA:541:N:4890, H-A:TYR:539:N:4869, V-A:ILE:538:CB:4861, V-A:PRO:540:CD:4886"]

$$$$
2c_Ghoteimi_2023
     RDKit          3D

 42 47  0  0  0  0  0  0  0  0999 V2000
  128.0890  132.4930   66.4100 N   0  0  0  0  0  0  0  0  0  0  0  0
  127.9900  131.6250   65.6530 C   0  0  0  0  0  0  0  0  0  0  0  0
  127.8620  130.5200   64.6960 C   0  0  0  0  0  0  0  0  0  0  0  0
  127.8210  129.1770   65.1470 C   0  0  0  0  0  0  0  0  0  0  0  0
  127.9040  128.7790   66.5840 C   0  0  0  0  0  0  0  0  0  0  0  0
  126.7720  128.3000   67.2470 C   0  0  0  0  0  0  0  0  0  0  0  0
  126.8420  127.9220   68.5850 C   0  0  0  0  0  0  0  0  0  0  0  0
  128.0440  128.0270   69.3030 C   0  0  0  0  0  0  0  0  0  0  0  0
  128.1420  127.6350   70.6400 N   0  0  0  0  0  0  0  0  0  0  0  0
  127.2730  126.5520   71.1410 C   0  0  0  0  0  0  0  0  0  0  0  0
  127.2040  126.4890   72.6820 C   0  0  0  0  0  0  0  0  0  0  0  0
  128.5120  126.3800   73.2230 O   0  0  0  0  0  0  0  0  0  0  0  0
  129.3210  127.4900   72.8670 C   0  0  0  0  0  0  0  0  0  0  0  0
  129.4450  127.5800   71.3310 C   0  0  0  0  0  0  0  0  0  0  0  0
  129.1740  128.5130   68.6300 C   0  0  0  0  0  0  0  0  0  0  0  0
  129.1040  128.8880   67.2910 C   0  0  0  0  0  0  0  0  0  0  0  0
  127.6940  128.1580   64.1940 C   0  0  0  0  0  0  0  0  0  0  0  0
  127.5850  128.4680   62.8350 C   0  0  0  0  0  0  0  0  0  0  0  0
  127.4320  127.4190   61.7820 C   0  0  0  0  0  0  0  0  0  0  0  0
  126.2270  126.7250   61.6350 C   0  0  0  0  0  0  0  0  0  0  0  0
  126.0750  125.7500   60.6520 C   0  0  0  0  0  0  0  0  0  0  0  0
  127.1300  125.4240   59.7850 C   0  0  0  0  0  0  0  0  0  0  0  0
  126.9870  124.4660   58.7760 N   0  0  0  0  0  0  0  0  0  0  0  0
  128.0800  123.5080   58.5110 C   0  0  0  0  0  0  0  0  0  0  0  0
  127.9530  122.7840   57.1540 C   0  0  0  0  0  0  0  0  0  0  0  0
  126.6910  122.1460   57.0600 O   0  0  0  0  0  0  0  0  0  0  0  0
  125.6280  123.0820   57.1510 C   0  0  0  0  0  0  0  0  0  0  0  0
  125.6860  123.8200   58.5060 C   0  0  0  0  0  0  0  0  0  0  0  0
  128.3320  126.1320   59.9270 C   0  0  0  0  0  0  0  0  0  0  0  0
  128.4820  127.1080   60.9100 C   0  0  0  0  0  0  0  0  0  0  0  0
  127.6230  129.7560   62.4070 N   0  0  0  0  0  0  0  0  0  0  0  0
  127.7760  130.7570   63.3060 C   0  0  0  0  0  0  0  0  0  0  0  0
  127.8150  132.3750   62.5690 S   0  0  0  0  0  0  0  0  0  0  0  0
  127.8060  132.1540   60.7650 C   0  0  0  0  0  0  0  0  0  0  0  0
  129.1460  132.5350   60.1330 C   0  0  0  0  0  0  0  0  0  0  0  0
  130.1060  132.7920   60.8610 O   0  0  0  0  0  0  0  0  0  0  0  0
  129.1670  132.5630   58.7830 N   0  0  0  0  0  0  0  0  0  0  0  0
  130.2550  132.8600   57.9760 C   0  0  0  0  0  0  0  0  0  0  0  0
  130.3200  133.7360   56.9970 N   0  0  0  0  0  0  0  0  0  0  0  0
  131.5170  133.7600   56.4470 C   0  0  0  0  0  0  0  0  0  0  0  0
  132.4590  132.8860   56.9820 C   0  0  0  0  0  0  0  0  0  0  0  0
  131.7240  131.9890   58.2770 S   0  0  0  0  0  0  0  0  0  0  0  0
  1  2  3  0
  2  3  1  0
  3  4  2  0
  4  5  1  0
  5  6  2  0
  6  7  1  0
  7  8  2  0
  8  9  1  0
  9 10  1  0
 10 11  1  0
 11 12  1  0
 12 13  1  0
 13 14  1  0
  8 15  1  0
 15 16  2  0
  4 17  1  0
 17 18  2  0
 18 19  1  0
 19 20  2  0
 20 21  1  0
 21 22  2  0
 22 23  1  0
 23 24  1  0
 24 25  1  0
 25 26  1  0
 26 27  1  0
 27 28  1  0
 22 29  1  0
 29 30  2  0
 18 31  1  0
 31 32  2  0
 32 33  1  0
 33 34  1  0
 34 35  1  0
 35 36  2  0
 35 37  1  0
 37 38  1  0
 38 39  2  0
 39 40  1  0
 40 41  2  0
 41 42  1  0
 32  3  1  0
 42 38  1  0
 16  5  1  0
 30 19  1  0
 14  9  1  0
 28 23  1  0
M  END
>  <Binding energies>  (11) 
[-9.76]

>  <Ligand effiencies>  (11) 
[-0.22697674418604652]

>  <Interactions>  (11) 
["V-B:TYR:539:CE2:9847, V-B:TYR:539:CD2:9845, V-B:PRO:540:CB:9856, V-B:GLU:543:CD:9879, V-B:PRO:540:CA:9854, V-B:TYR:539:CG:9843, V-A:HIS:456:CE1:4069, V-B:TYR:539:CZ:9848, V-B:TYR:539:C:9838, V-B:HIS:456:CE1:9040, V-B:GLU:543:CB:9877, V-B:GLY:544:C:9883, V-A:PRO:540:CB:4884, V-A:GLU:543:CB:4905, V-A:PRO:540:CA:4882, V-B:GLU:543:C:9873, V-A:GLU:543:CD:4907, V-B:MET:535:CE:9806, V-B:PRO:540:N:9855, H-B:TYR:539:N:9841, V-B:TYR:539:CE1:9846, V-A:GLU:543:CG:4906, V-A:PRO:540:N:4883, V-A:TYR:531:CE2:4792, V-A:TYR:539:C:4866, V-A:LEU:363:CD1:3188, H-B:LYS:547:NZ:9922, V-B:PRO:540:CD:9858, V-A:TYR:539:CD1:4872, V-A:TYR:539:CE1:4874, V-B:TYR:539:CD1:9844, V-B:LYS:547:CE:9921, V-B:GLY:544:CA:9885, H-A:ALA:541:N:4890, H-A:TYR:539:N:4869, V-A:ILE:538:CB:4861, V-A:PRO:540:CD:4886, V-A:ILE:538:CA:4859, H-B:TYR:484:OH:9318"]

$$$$
2j_Grossjean_2025
     RDKit          3D

 23 24  0  0  0  0  0  0  0  0999 V2000
  134.0940  125.8180   67.1360 C   0  0  0  0  0  0  0  0  0  0  0  0
  133.3300  125.8120   65.8250 C   0  0  0  0  0  0  0  0  0  0  0  0
  132.1110  126.4720   65.6880 C   0  0  0  0  0  0  0  0  0  0  0  0
  131.4430  126.4400   64.4550 C   0  0  0  0  0  0  0  0  0  0  0  0
  130.0970  127.1770   64.3210 C   0  0  0  0  0  0  0  0  0  0  0  0
  130.2230  128.2080   63.4850 F   0  0  0  0  0  0  0  0  0  0  0  0
  129.1670  126.3470   63.8470 F   0  0  0  0  0  0  0  0  0  0  0  0
  129.6520  127.6550   65.4850 F   0  0  0  0  0  0  0  0  0  0  0  0
  132.0370  125.7290   63.3820 C   0  0  0  0  0  0  0  0  0  0  0  0
  131.3830  125.6620   62.0720 C   0  0  0  0  0  0  0  0  0  0  0  0
  130.8670  125.6100   61.0370 N   0  0  0  0  0  0  0  0  0  0  0  0
  133.2770  125.0860   63.6100 C   0  0  0  0  0  0  0  0  0  0  0  0
  134.1180  124.1640   62.3310 S   0  0  0  0  0  0  0  0  0  0  0  0
  134.0620  122.3920   62.7690 C   0  0  0  0  0  0  0  0  0  0  0  0
  133.2070  121.5230   61.8350 C   0  0  0  0  0  0  0  0  0  0  0  0
  132.0770  121.8840   61.4980 O   0  0  0  0  0  0  0  0  0  0  0  0
  133.7900  120.3670   61.4470 N   0  0  0  0  0  0  0  0  0  0  0  0
  133.2440  119.4030   60.6090 C   0  0  0  0  0  0  0  0  0  0  0  0
  133.5790  119.1310   59.3660 N   0  0  0  0  0  0  0  0  0  0  0  0
  132.8520  118.1490   58.8710 C   0  0  0  0  0  0  0  0  0  0  0  0
  131.8970  117.6010   59.7220 C   0  0  0  0  0  0  0  0  0  0  0  0
  131.9650  118.4240   61.2520 S   0  0  0  0  0  0  0  0  0  0  0  0
  133.9090  125.1310   64.8110 N   0  0  0  0  0  0  0  0  0  0  0  0
  1  2  1  0
  2  3  2  0
  3  4  1  0
  4  5  1  0
  5  6  1  0
  5  7  1  0
  5  8  1  0
  4  9  2  0
  9 10  1  0
 10 11  3  0
  9 12  1  0
 12 13  1  0
 13 14  1  0
 14 15  1  0
 15 16  2  0
 15 17  1  0
 17 18  1  0
 18 19  2  0
 19 20  1  0
 20 21  2  0
 21 22  1  0
 12 23  2  0
 23  2  1  0
 22 18  1  0
M  END
>  <Binding energies>  (12) 
[-6.41]

>  <Ligand effiencies>  (12) 
[-0.26708333333333334]

>  <Interactions>  (12) 
["H-A:GLY:454:N:4049, V-A:HIS:383:CE1:3393, V-A:ARG:545:CD:4922, V-A:LEU:475:CD2:4258, V-A:ILE:369:CG2:3236, V-B:TYR:539:CB:9842, V-A:ASP:366:CG:3212, V-A:LEU:373:CD2:3280, V-B:TYR:539:CD2:9845, V-A:ARG:545:CG:4921, V-A:ARG:545:CZ:4925, H-A:TYR:484:OH:4347, V-A:ILE:369:CD1:3238, V-B:GLU:543:CD:9879, V-A:SER:385:CB:3408, V-A:SER:385:CA:3406, V-A:GLY:454:CA:4048, V-B:TYR:539:CG:9843, V-A:GLU:543:CD:4907, V-A:SER:385:C:3404, V-A:LEU:373:CG:3278, V-A:LEU:373:CD1:3279, H-A:SER:385:O:3405"]

$$$$
3ab_Grossjean_2025
     RDKit          3D

 33 35  0  0  0  0  0  0  0  0999 V2000
  132.0050  117.7360   60.0470 C   0  0  0  0  0  0  0  0  0  0  0  0
  132.0720  118.8510   60.9250 O   0  0  0  0  0  0  0  0  0  0  0  0
  133.0900  119.7460   60.8400 C   0  0  0  0  0  0  0  0  0  0  0  0
  134.1050  119.5600   60.1640 O   0  0  0  0  0  0  0  0  0  0  0  0
  132.8560  120.9890   61.6510 C   0  0  0  0  0  0  0  0  0  0  0  0
  133.9020  121.8600   61.9940 C   0  0  0  0  0  0  0  0  0  0  0  0
  133.6560  123.0050   62.7450 C   0  0  0  0  0  0  0  0  0  0  0  0
  132.3510  123.3010   63.1700 C   0  0  0  0  0  0  0  0  0  0  0  0
  131.9860  124.4310   63.9270 N   0  0  0  0  0  0  0  0  0  0  0  0
  132.7540  125.2760   64.6470 C   0  0  0  0  0  0  0  0  0  0  0  0
  133.9740  125.1930   64.7850 O   0  0  0  0  0  0  0  0  0  0  0  0
  132.0030  126.4180   65.3350 C   0  0  0  0  0  0  0  0  0  0  0  0
  130.8070  125.8110   66.5610 S   0  0  0  0  0  0  0  0  0  0  0  0
  129.9740  127.2290   67.2440 C   0  0  0  0  0  0  0  0  0  0  0  0
  129.9980  127.2710   68.5970 N   0  0  0  0  0  0  0  0  0  0  0  0
  129.4050  128.3020   69.2520 C   0  0  0  0  0  0  0  0  0  0  0  0
  129.4790  128.2760   70.7500 C   0  0  0  0  0  0  0  0  0  0  0  0
  130.2760  129.1980   71.4470 C   0  0  0  0  0  0  0  0  0  0  0  0
  130.3480  129.1790   72.8370 C   0  0  0  0  0  0  0  0  0  0  0  0
  129.6210  128.2330   73.5530 C   0  0  0  0  0  0  0  0  0  0  0  0
  128.8260  127.3050   72.8870 C   0  0  0  0  0  0  0  0  0  0  0  0
  128.7580  127.3280   71.4970 C   0  0  0  0  0  0  0  0  0  0  0  0
  128.7480  129.3160   68.5460 C   0  0  0  0  0  0  0  0  0  0  0  0
  128.6930  129.2840   67.1450 C   0  0  0  0  0  0  0  0  0  0  0  0
  127.9540  130.4170   66.4050 C   0  0  0  0  0  0  0  0  0  0  0  0
  128.4930  130.6950   65.2160 F   0  0  0  0  0  0  0  0  0  0  0  0
  126.6810  130.0770   66.1970 F   0  0  0  0  0  0  0  0  0  0  0  0
  127.9890  131.5340   67.1330 F   0  0  0  0  0  0  0  0  0  0  0  0
  129.3150  128.2070   66.4660 C   0  0  0  0  0  0  0  0  0  0  0  0
  129.2380  128.0960   65.0070 C   0  0  0  0  0  0  0  0  0  0  0  0
  129.1760  128.0110   63.8550 N   0  0  0  0  0  0  0  0  0  0  0  0
  131.3080  122.4400   62.8260 C   0  0  0  0  0  0  0  0  0  0  0  0
  131.5570  121.2940   62.0760 C   0  0  0  0  0  0  0  0  0  0  0  0
  1  2  1  0
  2  3  1  0
  3  4  2  0
  3  5  1  0
  5  6  2  0
  6  7  1  0
  7  8  2  0
  8  9  1  0
  9 10  1  0
 10 11  2  0
 10 12  1  0
 12 13  1  0
 13 14  1  0
 14 15  2  0
 15 16  1  0
 16 17  1  0
 17 18  2  0
 18 19  1  0
 19 20  2  0
 20 21  1  0
 21 22  2  0
 16 23  2  0
 23 24  1  0
 24 25  1  0
 25 26  1  0
 25 27  1  0
 25 28  1  0
 24 29  2  0
 29 30  1  0
 30 31  3  0
  8 32  1  0
 32 33  2  0
 33  5  1  0
 29 14  1  0
 22 17  1  0
M  END
>  <Binding energies>  (13) 
[-7.46]

>  <Ligand effiencies>  (13) 
[-0.21941176470588236]

>  <Interactions>  (13) 
["H-A:GLY:454:N:4049, V-A:HIS:383:CE1:3393, V-A:LEU:475:CD2:4258, V-A:ILE:369:CG2:3236, V-B:TYR:539:CB:9842, V-B:TYR:539:CD2:9845, V-A:ARG:545:CZ:4925, H-A:TYR:484:OH:4347, V-A:ILE:369:CD1:3238, V-A:SER:385:CB:3408, V-A:SER:385:CA:3406, V-A:GLY:454:CA:4048, V-A:HIS:456:CE1:4069, V-B:HIS:456:CE1:9040, V-A:GLU:543:CB:4905, V-A:GLU:543:CD:4907, V-A:GLU:543:CG:4906, V-A:GLU:543:C:4901, V-A:GLU:543:CA:4903, V-B:TYR:484:CE2:9316, V-A:GLY:544:CA:4913, V-B:TYR:484:CZ:9317"]

$$$$
3ac_Grossjean_2025
     RDKit          3D

 31 33  0  0  0  0  0  0  0  0999 V2000
  133.7170  125.8120   66.3090 C   0  0  0  0  0  0  0  0  0  0  0  0
  134.3480  125.4860   65.0740 O   0  0  0  0  0  0  0  0  0  0  0  0
  133.5700  125.2830   63.9510 C   0  0  0  0  0  0  0  0  0  0  0  0
  132.3340  125.9280   63.9260 C   0  0  0  0  0  0  0  0  0  0  0  0
  131.4830  125.7870   62.8340 C   0  0  0  0  0  0  0  0  0  0  0  0
  131.8540  124.9880   61.7510 C   0  0  0  0  0  0  0  0  0  0  0  0
  130.9370  124.9230   60.6850 N   0  0  0  0  0  0  0  0  0  0  0  0
  131.1630  124.6390   59.3840 C   0  0  0  0  0  0  0  0  0  0  0  0
  132.2540  124.3330   58.9020 O   0  0  0  0  0  0  0  0  0  0  0  0
  129.9380  124.7090   58.4720 C   0  0  0  0  0  0  0  0  0  0  0  0
  128.5820  123.6470   59.0580 S   0  0  0  0  0  0  0  0  0  0  0  0
  129.1060  122.8210   60.5480 C   0  0  0  0  0  0  0  0  0  0  0  0
  129.8610  121.7220   60.3110 N   0  0  0  0  0  0  0  0  0  0  0  0
  130.3400  120.9920   61.3520 C   0  0  0  0  0  0  0  0  0  0  0  0
  131.1620  119.7870   61.0030 C   0  0  0  0  0  0  0  0  0  0  0  0
  132.4770  119.9270   60.5300 C   0  0  0  0  0  0  0  0  0  0  0  0
  133.2470  118.8120   60.2100 C   0  0  0  0  0  0  0  0  0  0  0  0
  132.7100  117.5370   60.3570 C   0  0  0  0  0  0  0  0  0  0  0  0
  131.4090  117.3710   60.8180 C   0  0  0  0  0  0  0  0  0  0  0  0
  130.6420  118.4880   61.1370 C   0  0  0  0  0  0  0  0  0  0  0  0
  130.0480  121.3490   62.6710 C   0  0  0  0  0  0  0  0  0  0  0  0
  129.2490  122.4690   62.9440 C   0  0  0  0  0  0  0  0  0  0  0  0
  128.9470  122.8240   64.4130 C   0  0  0  0  0  0  0  0  0  0  0  0
  129.4620  121.9440   65.2750 F   0  0  0  0  0  0  0  0  0  0  0  0
  129.4580  124.0190   64.7140 F   0  0  0  0  0  0  0  0  0  0  0  0
  127.6280  122.8560   64.6090 F   0  0  0  0  0  0  0  0  0  0  0  0
  128.7470  123.2250   61.8550 C   0  0  0  0  0  0  0  0  0  0  0  0
  127.8460  124.3560   62.0870 C   0  0  0  0  0  0  0  0  0  0  0  0
  127.1340  125.2500   62.2720 N   0  0  0  0  0  0  0  0  0  0  0  0
  133.1000  124.3420   61.7650 C   0  0  0  0  0  0  0  0  0  0  0  0
  133.9490  124.4860   62.8590 C   0  0  0  0  0  0  0  0  0  0  0  0
  1  2  1  0
  2  3  1  0
  3  4  2  0
  4  5  1  0
  5  6  2  0
  6  7  1  0
  7  8  1  0
  8  9  2  0
  8 10  1  0
 10 11  1  0
 11 12  1  0
 12 13  2  0
 13 14  1  0
 14 15  1  0
 15 16  2  0
 16 17  1  0
 17 18  2  0
 18 19  1  0
 19 20  2  0
 14 21  2  0
 21 22  1  0
 22 23  1  0
 23 24  1  0
 23 25  1  0
 23 26  1  0
 22 27  2  0
 27 28  1  0
 28 29  3  0
  6 30  1  0
 30 31  2  0
 31  3  1  0
 27 12  1  0
 20 15  1  0
M  END
>  <Binding energies>  (14) 
[-7.5]

>  <Ligand effiencies>  (14) 
[-0.234375]

>  <Interactions>  (14) 
["H-A:GLY:454:N:4049, H-A:ARG:545:NE:4923, V-A:HIS:383:CE1:3393, H-A:ARG:545:NH2:4927, H-A:ARG:545:NH1:4926, V-B:TYR:539:CE2:9847, V-A:ARG:545:CD:4922, V-A:LEU:475:CD2:4258, V-A:ILE:369:CG2:3236, V-A:ASP:366:CG:3212, V-B:TYR:539:CD2:9845, V-A:ARG:545:CG:4921, V-B:ALA:541:CB:9863, V-A:ARG:545:CZ:4925, V-A:ILE:369:CD1:3238, V-B:GLU:543:CD:9879, V-A:SER:385:CB:3408, V-A:SER:385:CA:3406, V-B:GLU:543:CG:9878, V-A:VAL:384:C:3396, V-B:ALA:541:CA:9861, V-B:TYR:539:CZ:9848, V-A:TYR:484:CE2:4345, V-A:LEU:475:CD1:4257, V-B:ALA:541:C:9859, H-B:TYR:539:OH:9849"]

$$$$
3af_Grossjean_2025
     RDKit          3D

 29 31  0  0  0  0  0  0  0  0999 V2000
  132.7120  121.9360   64.3880 N   0  0  0  0  0  0  0  0  0  0  0  0
  131.8820  122.1510   63.6100 C   0  0  0  0  0  0  0  0  0  0  0  0
  130.8310  122.4230   62.6260 C   0  0  0  0  0  0  0  0  0  0  0  0
  129.5090  122.7120   63.0420 C   0  0  0  0  0  0  0  0  0  0  0  0
  129.1060  122.8080   64.5270 C   0  0  0  0  0  0  0  0  0  0  0  0
  129.5290  121.7670   65.2470 F   0  0  0  0  0  0  0  0  0  0  0  0
  129.6260  123.9100   65.0700 F   0  0  0  0  0  0  0  0  0  0  0  0
  127.7780  122.8550   64.6390 F   0  0  0  0  0  0  0  0  0  0  0  0
  128.5250  122.9120   62.0620 C   0  0  0  0  0  0  0  0  0  0  0  0
  128.8520  122.8230   60.7050 C   0  0  0  0  0  0  0  0  0  0  0  0
  127.8370  123.0080   59.6170 C   0  0  0  0  0  0  0  0  0  0  0  0
  126.6620  123.7410   59.8480 C   0  0  0  0  0  0  0  0  0  0  0  0
  125.7170  123.9190   58.8410 C   0  0  0  0  0  0  0  0  0  0  0  0
  125.9360  123.3640   57.5850 C   0  0  0  0  0  0  0  0  0  0  0  0
  127.0930  122.6370   57.3270 C   0  0  0  0  0  0  0  0  0  0  0  0
  128.0350  122.4620   58.3370 C   0  0  0  0  0  0  0  0  0  0  0  0
  130.1190  122.5420   60.3100 N   0  0  0  0  0  0  0  0  0  0  0  0
  131.0920  122.3680   61.2380 C   0  0  0  0  0  0  0  0  0  0  0  0
  132.6890  122.0230   60.5290 S   0  0  0  0  0  0  0  0  0  0  0  0
  133.5350  123.6090   60.2520 C   0  0  0  0  0  0  0  0  0  0  0  0
  132.9620  124.3560   59.0490 C   0  0  0  0  0  0  0  0  0  0  0  0
  133.6850  124.5670   58.0750 O   0  0  0  0  0  0  0  0  0  0  0  0
  131.6720  124.7380   59.1660 N   0  0  0  0  0  0  0  0  0  0  0  0
  130.8570  125.4410   58.2570 C   0  0  0  0  0  0  0  0  0  0  0  0
  129.5910  125.0310   57.8020 C   0  0  0  0  0  0  0  0  0  0  0  0
  128.8910  125.8290   56.8940 C   0  0  0  0  0  0  0  0  0  0  0  0
  129.4750  127.0200   56.4620 C   0  0  0  0  0  0  0  0  0  0  0  0
  130.6930  127.4380   56.8860 N   0  0  0  0  0  0  0  0  0  0  0  0
  131.3610  126.6520   57.7680 C   0  0  0  0  0  0  0  0  0  0  0  0
  1  2  3  0
  2  3  1  0
  3  4  2  0
  4  5  1  0
  5  6  1  0
  5  7  1  0
  5  8  1  0
  4  9  1  0
  9 10  2  0
 10 11  1  0
 11 12  2  0
 12 13  1  0
 13 14  2  0
 14 15  1  0
 15 16  2  0
 10 17  1  0
 17 18  2  0
 18 19  1  0
 19 20  1  0
 20 21  1  0
 21 22  2  0
 21 23  1  0
 23 24  1  0
 24 25  2  0
 25 26  1  0
 26 27  2  0
 27 28  1  0
 28 29  2  0
 18  3  1  0
 29 24  1  0
 16 11  1  0
M  END
>  <Binding energies>  (15) 
[-7.21]

>  <Ligand effiencies>  (15) 
[-0.24033333333333334]

>  <Interactions>  (15) 
["V-B:TYR:539:CE2:9847, V-A:LEU:475:CD2:4258, V-A:ILE:369:CG2:3236, V-A:ASP:366:CG:3212, V-B:TYR:539:CD2:9845, V-B:ALA:541:CB:9863, H-A:TYR:484:OH:4347, V-A:ILE:369:CD1:3238, V-B:PRO:540:CB:9856, V-B:GLU:543:CD:9879, V-B:PRO:540:CA:9854, V-B:GLU:543:CG:9878, V-B:TYR:539:CG:9843, V-B:ALA:541:CA:9861, V-B:TYR:539:CZ:9848, V-A:ASP:366:CB:3211, V-A:ILE:369:CB:3235, V-A:TYR:484:CE2:4345, V-A:LEU:475:CD1:4257, V-B:TYR:539:C:9838, V-B:ALA:541:C:9859, V-B:MET:535:CE:9806, V-B:PRO:540:N:9855, H-B:TYR:539:OH:9849, H-A:TYR:531:OH:4794, V-A:LEU:475:CG:4256"]

$$$$
3ag_Grossjean_2025
     RDKit          3D

 30 32  0  0  0  0  0  0  0  0999 V2000
  131.6910  125.6110   64.7090 N   0  0  0  0  0  0  0  0  0  0  0  0
  131.7440  124.6200   64.1120 C   0  0  0  0  0  0  0  0  0  0  0  0
  131.8150  123.3680   63.3540 C   0  0  0  0  0  0  0  0  0  0  0  0
  132.8650  123.1390   62.4310 C   0  0  0  0  0  0  0  0  0  0  0  0
  134.0120  124.1440   62.2090 C   0  0  0  0  0  0  0  0  0  0  0  0
  134.2740  124.3540   60.9180 F   0  0  0  0  0  0  0  0  0  0  0  0
  133.6960  125.3200   62.7520 F   0  0  0  0  0  0  0  0  0  0  0  0
  135.1330  123.6940   62.7750 F   0  0  0  0  0  0  0  0  0  0  0  0
  132.8590  121.9470   61.6900 C   0  0  0  0  0  0  0  0  0  0  0  0
  131.8280  121.0160   61.8570 C   0  0  0  0  0  0  0  0  0  0  0  0
  131.7700  119.7300   61.0910 C   0  0  0  0  0  0  0  0  0  0  0  0
  130.6990  118.8380   61.2660 C   0  0  0  0  0  0  0  0  0  0  0  0
  130.6390  117.6410   60.5580 C   0  0  0  0  0  0  0  0  0  0  0  0
  131.6530  117.3180   59.6620 C   0  0  0  0  0  0  0  0  0  0  0  0
  132.7260  118.1830   59.4720 C   0  0  0  0  0  0  0  0  0  0  0  0
  132.7830  119.3780   60.1820 C   0  0  0  0  0  0  0  0  0  0  0  0
  130.8300  121.2340   62.7520 N   0  0  0  0  0  0  0  0  0  0  0  0
  130.8260  122.3690   63.4920 C   0  0  0  0  0  0  0  0  0  0  0  0
  129.4480  122.4830   64.6120 S   0  0  0  0  0  0  0  0  0  0  0  0
  128.2050  123.5560   63.8320 C   0  0  0  0  0  0  0  0  0  0  0  0
  127.6930  122.9820   62.5100 C   0  0  0  0  0  0  0  0  0  0  0  0
  126.4810  122.8640   62.3200 O   0  0  0  0  0  0  0  0  0  0  0  0
  128.6270  122.6360   61.6080 N   0  0  0  0  0  0  0  0  0  0  0  0
  128.3610  122.1030   60.2720 C   0  0  0  0  0  0  0  0  0  0  0  0
  128.0910  123.1720   59.2180 C   0  0  0  0  0  0  0  0  0  0  0  0
  129.0860  124.1020   58.9020 C   0  0  0  0  0  0  0  0  0  0  0  0
  128.8540  125.0610   57.9190 C   0  0  0  0  0  0  0  0  0  0  0  0
  127.6320  125.0810   57.2500 C   0  0  0  0  0  0  0  0  0  0  0  0
  126.6420  124.1480   57.5490 C   0  0  0  0  0  0  0  0  0  0  0  0
  126.8730  123.1890   58.5310 C   0  0  0  0  0  0  0  0  0  0  0  0
  1  2  3  0
  2  3  1  0
  3  4  2  0
  4  5  1  0
  5  6  1  0
  5  7  1  0
  5  8  1  0
  4  9  1  0
  9 10  2  0
 10 11  1  0
 11 12  2  0
 12 13  1  0
 13 14  2  0
 14 15  1  0
 15 16  2  0
 10 17  1  0
 17 18  2  0
 18 19  1  0
 19 20  1  0
 20 21  1  0
 21 22  2  0
 21 23  1  0
 23 24  1  0
 24 25  1  0
 25 26  2  0
 26 27  1  0
 27 28  2  0
 28 29  1  0
 29 30  2  0
 18  3  1  0
 30 25  1  0
 16 11  1  0
M  END
>  <Binding energies>  (16) 
[-7.56]

>  <Ligand effiencies>  (16) 
[-0.24387096774193548]

>  <Interactions>  (16) 
["V-A:GLY:453:C:4041, V-A:HIS:383:CE1:3393, V-A:GLY:453:CA:4043, V-B:TYR:539:CE2:9847, V-A:LEU:475:CD2:4258, V-A:ILE:369:CG2:3236, V-B:TYR:539:CB:9842, V-A:ASP:366:CG:3212, V-A:LEU:373:CD2:3280, V-B:TYR:539:CD2:9845, V-B:ALA:541:CB:9863, V-A:ARG:545:CZ:4925, H-A:TYR:484:OH:4347, V-A:ILE:369:CD1:3238, V-B:PRO:540:CB:9856, V-B:GLU:543:CD:9879, V-B:PRO:540:CA:9854, H-B:ALA:541:N:9862, V-B:GLU:543:CG:9878, V-A:GLY:454:CA:4048, V-B:PRO:540:C:9852, V-B:ALA:541:CA:9861, V-A:ASP:366:CB:3211, V-A:ILE:369:CB:3235, V-A:ASP:366:CA:3209, V-B:TYR:539:C:9838, V-B:MET:535:CE:9806, V-B:PRO:540:N:9855, V-A:ILE:369:CG1:3237"]

$$$$
3bc_Grossjean_2025
     RDKit          3D

 28 30  0  0  0  0  0  0  0  0999 V2000
  132.1400  117.3040   58.7020 C   0  0  0  0  0  0  0  0  0  0  0  0
  132.7970  117.6540   59.9150 O   0  0  0  0  0  0  0  0  0  0  0  0
  132.4300  118.8150   60.5690 C   0  0  0  0  0  0  0  0  0  0  0  0
  131.0940  118.9140   60.9570 C   0  0  0  0  0  0  0  0  0  0  0  0
  130.6300  120.0470   61.6210 C   0  0  0  0  0  0  0  0  0  0  0  0
  131.4990  121.1030   61.9000 C   0  0  0  0  0  0  0  0  0  0  0  0
  130.9430  122.1990   62.5850 N   0  0  0  0  0  0  0  0  0  0  0  0
  129.6730  122.6580   62.5700 C   0  0  0  0  0  0  0  0  0  0  0  0
  128.7460  122.1370   61.9490 O   0  0  0  0  0  0  0  0  0  0  0  0
  129.4290  123.8990   63.4420 C   0  0  0  0  0  0  0  0  0  0  0  0
  130.5690  125.2920   63.1440 S   0  0  0  0  0  0  0  0  0  0  0  0
  131.3750  125.6750   64.6840 C   0  0  0  0  0  0  0  0  0  0  0  0
  130.5200  126.0500   65.6680 N   0  0  0  0  0  0  0  0  0  0  0  0
  131.0020  126.3680   66.8970 C   0  0  0  0  0  0  0  0  0  0  0  0
  129.9940  126.7930   67.9230 C   0  0  0  0  0  0  0  0  0  0  0  0
  129.4270  125.8570   68.8020 C   0  0  0  0  0  0  0  0  0  0  0  0
  128.4900  126.2440   69.7570 C   0  0  0  0  0  0  0  0  0  0  0  0
  128.1060  127.5780   69.8440 C   0  0  0  0  0  0  0  0  0  0  0  0
  128.6500  128.5260   68.9830 C   0  0  0  0  0  0  0  0  0  0  0  0
  129.5860  128.1330   68.0290 C   0  0  0  0  0  0  0  0  0  0  0  0
  132.3730  126.3160   67.1670 C   0  0  0  0  0  0  0  0  0  0  0  0
  133.2660  125.9080   66.1700 C   0  0  0  0  0  0  0  0  0  0  0  0
  134.7540  125.8490   66.5150 C   0  0  0  0  0  0  0  0  0  0  0  0
  132.7680  125.5660   64.8940 C   0  0  0  0  0  0  0  0  0  0  0  0
  133.6780  125.0910   63.8500 C   0  0  0  0  0  0  0  0  0  0  0  0
  134.3990  124.7160   63.0270 N   0  0  0  0  0  0  0  0  0  0  0  0
  132.8470  121.0060   61.5250 C   0  0  0  0  0  0  0  0  0  0  0  0
  133.3070  119.8710   60.8610 C   0  0  0  0  0  0  0  0  0  0  0  0
  1  2  1  0
  2  3  1  0
  3  4  2  0
  4  5  1  0
  5  6  2  0
  6  7  1  0
  7  8  1  0
  8  9  2  0
  8 10  1  0
 10 11  1  0
 11 12  1  0
 12 13  2  0
 13 14  1  0
 14 15  1  0
 15 16  2  0
 16 17  1  0
 17 18  2  0
 18 19  1  0
 19 20  2  0
 14 21  2  0
 21 22  1  0
 22 23  1  0
 22 24  2  0
 24 25  1  0
 25 26  3  0
  6 27  1  0
 27 28  2  0
 28  3  1  0
 24 12  1  0
 20 15  1  0
M  END
>  <Binding energies>  (17) 
[-8.0]

>  <Ligand effiencies>  (17) 
[-0.27586206896551724]

>  <Interactions>  (17) 
["H-A:GLY:454:N:4049, V-A:GLY:453:C:4041, V-A:HIS:383:CE1:3393, V-A:GLY:453:CA:4043, H-A:HIS:383:ND1:3390, V-A:ARG:545:CD:4922, V-A:LEU:475:CD2:4258, V-A:ILE:369:CG2:3236, V-B:TYR:539:CB:9842, V-A:LEU:373:CD2:3280, V-B:TYR:539:CD2:9845, V-A:ARG:545:CG:4921, V-B:ALA:541:CB:9863, V-A:ARG:545:CZ:4925, V-B:GLU:543:CD:9879, V-A:SER:385:CB:3408, V-A:SER:385:CA:3406, H-B:ALA:541:N:9862, V-A:GLY:454:CA:4048, V-B:TYR:539:CG:9843, V-A:HIS:456:CE1:4069, V-A:TYR:484:CE2:4345, V-B:HIS:456:CE1:9040, V-B:GLU:543:CB:9877, V-A:GLU:543:CB:4905, V-B:GLU:543:C:9873, V-A:GLU:543:CD:4907, V-A:LEU:373:CG:3278, V-A:HIS:383:CG:3389, V-A:LEU:373:CD1:3279"]

$$$$
3bd_Grossjean_2025
     RDKit          3D

 26 28  0  0  0  0  0  0  0  0999 V2000
  133.9750  123.9970   63.0460 C   0  0  0  0  0  0  0  0  0  0  0  0
  132.7830  123.0600   62.8610 C   0  0  0  0  0  0  0  0  0  0  0  0
  132.9390  121.9480   62.0260 C   0  0  0  0  0  0  0  0  0  0  0  0
  131.8690  121.0670   61.8280 C   0  0  0  0  0  0  0  0  0  0  0  0
  131.9700  119.8550   60.9500 C   0  0  0  0  0  0  0  0  0  0  0  0
  133.0530  119.6930   60.0710 C   0  0  0  0  0  0  0  0  0  0  0  0
  133.1510  118.5710   59.2520 C   0  0  0  0  0  0  0  0  0  0  0  0
  132.1630  117.5930   59.3010 C   0  0  0  0  0  0  0  0  0  0  0  0
  131.0780  117.7310   60.1600 C   0  0  0  0  0  0  0  0  0  0  0  0
  130.9840  118.8540   60.9770 C   0  0  0  0  0  0  0  0  0  0  0  0
  130.6780  121.2700   62.4490 N   0  0  0  0  0  0  0  0  0  0  0  0
  130.5090  122.3430   63.2620 C   0  0  0  0  0  0  0  0  0  0  0  0
  128.8950  122.5020   64.0080 S   0  0  0  0  0  0  0  0  0  0  0  0
  128.0600  123.9270   63.2470 C   0  0  0  0  0  0  0  0  0  0  0  0
  127.2450  123.5240   62.0180 C   0  0  0  0  0  0  0  0  0  0  0  0
  126.0810  123.1490   62.1690 O   0  0  0  0  0  0  0  0  0  0  0  0
  127.8910  123.6020   60.8350 N   0  0  0  0  0  0  0  0  0  0  0  0
  127.4070  123.3290   59.5410 C   0  0  0  0  0  0  0  0  0  0  0  0
  128.3250  122.7720   58.6470 C   0  0  0  0  0  0  0  0  0  0  0  0
  127.9400  122.4750   57.3420 C   0  0  0  0  0  0  0  0  0  0  0  0
  126.6390  122.7440   56.9280 C   0  0  0  0  0  0  0  0  0  0  0  0
  125.7190  123.3120   57.8060 C   0  0  0  0  0  0  0  0  0  0  0  0
  126.1000  123.6090   59.1120 C   0  0  0  0  0  0  0  0  0  0  0  0
  131.5430  123.2750   63.4990 C   0  0  0  0  0  0  0  0  0  0  0  0
  131.3480  124.4290   64.3810 C   0  0  0  0  0  0  0  0  0  0  0  0
  131.1960  125.3410   65.0780 N   0  0  0  0  0  0  0  0  0  0  0  0
  1  2  1  0
  2  3  2  0
  3  4  1  0
  4  5  1  0
  5  6  2  0
  6  7  1  0
  7  8  2  0
  8  9  1  0
  9 10  2  0
  4 11  2  0
 11 12  1  0
 12 13  1  0
 13 14  1  0
 14 15  1  0
 15 16  2  0
 15 17  1  0
 17 18  1  0
 18 19  2  0
 19 20  1  0
 20 21  2  0
 21 22  1  0
 22 23  2  0
 12 24  2  0
 24 25  1  0
 25 26  3  0
 24  2  1  0
 10  5  1  0
 23 18  1  0
M  END
>  <Binding energies>  (18) 
[-8.92]

>  <Ligand effiencies>  (18) 
[-0.33037037037037037]

>  <Interactions>  (18) 
["V-A:GLY:453:C:4041, V-A:HIS:383:CE1:3393, V-B:TYR:539:CE2:9847, V-A:LEU:475:CD2:4258, V-A:ILE:369:CG2:3236, V-B:TYR:539:CB:9842, V-A:LEU:373:CD2:3280, V-B:TYR:539:CD2:9845, V-B:ALA:541:CB:9863, H-A:TYR:484:OH:4347, V-A:ILE:369:CD1:3238, V-B:PRO:540:CB:9856, V-B:GLU:543:CD:9879, V-B:PRO:540:CA:9854, V-A:SER:385:CA:3406, H-B:ALA:541:N:9862, V-B:GLU:543:CG:9878, V-A:GLY:454:CA:4048, V-B:TYR:539:CG:9843, V-B:TYR:539:CZ:9848, V-B:TYR:539:C:9838, V-B:MET:535:CE:9806, V-B:PRO:540:N:9855, V-B:TYR:539:CE1:9846, V-A:LEU:373:CG:3278, V-A:LEU:373:CD1:3279, V-B:TYR:539:CA:9840, V-B:TYR:539:CD1:9844"]

$$$$
3be_Grossjean_2025
     RDKit          3D

 27 29  0  0  0  0  0  0  0  0999 V2000
  126.8630  122.4050   57.3820 C   0  0  0  0  0  0  0  0  0  0  0  0
  127.9190  123.0550   58.2540 C   0  0  0  0  0  0  0  0  0  0  0  0
  128.8320  123.9770   57.7350 C   0  0  0  0  0  0  0  0  0  0  0  0
  129.7780  124.5320   58.5960 C   0  0  0  0  0  0  0  0  0  0  0  0
  129.7900  124.1580   59.9420 C   0  0  0  0  0  0  0  0  0  0  0  0
  128.8450  123.2320   60.3990 C   0  0  0  0  0  0  0  0  0  0  0  0
  128.9150  122.8880   61.7610 N   0  0  0  0  0  0  0  0  0  0  0  0
  127.9410  122.9340   62.6960 C   0  0  0  0  0  0  0  0  0  0  0  0
  126.7860  123.3100   62.4860 O   0  0  0  0  0  0  0  0  0  0  0  0
  128.3720  122.4700   64.0970 C   0  0  0  0  0  0  0  0  0  0  0  0
  129.7970  123.3640   64.8060 S   0  0  0  0  0  0  0  0  0  0  0  0
  131.2220  123.0230   63.7960 C   0  0  0  0  0  0  0  0  0  0  0  0
  131.1200  121.8740   63.0840 N   0  0  0  0  0  0  0  0  0  0  0  0
  132.1370  121.4920   62.2660 C   0  0  0  0  0  0  0  0  0  0  0  0
  131.9510  120.2010   61.5240 C   0  0  0  0  0  0  0  0  0  0  0  0
  132.9570  119.7090   60.6770 C   0  0  0  0  0  0  0  0  0  0  0  0
  132.7910  118.5140   59.9840 C   0  0  0  0  0  0  0  0  0  0  0  0
  131.6110  117.7920   60.1280 C   0  0  0  0  0  0  0  0  0  0  0  0
  130.5980  118.2570   60.9590 C   0  0  0  0  0  0  0  0  0  0  0  0
  130.7680  119.4540   61.6500 C   0  0  0  0  0  0  0  0  0  0  0  0
  133.2940  122.2690   62.1500 C   0  0  0  0  0  0  0  0  0  0  0  0
  133.4050  123.4690   62.8590 C   0  0  0  0  0  0  0  0  0  0  0  0
  134.6800  124.2930   62.6880 C   0  0  0  0  0  0  0  0  0  0  0  0
  132.3450  123.8750   63.6990 C   0  0  0  0  0  0  0  0  0  0  0  0
  132.4170  125.1550   64.4080 C   0  0  0  0  0  0  0  0  0  0  0  0
  132.4750  126.1660   64.9670 N   0  0  0  0  0  0  0  0  0  0  0  0
  127.9180  122.6820   59.5600 N   0  0  0  0  0  0  0  0  0  0  0  0
  1  2  1  0
  2  3  2  0
  3  4  1  0
  4  5  2  0
  5  6  1  0
  6  7  1  0
  7  8  1  0
  8  9  2  0
  8 10  1  0
 10 11  1  0
 11 12  1  0
 12 13  2  0
 13 14  1  0
 14 15  1  0
 15 16  2  0
 16 17  1  0
 17 18  2  0
 18 19  1  0
 19 20  2  0
 14 21  2  0
 21 22  1  0
 22 23  1  0
 22 24  2  0
 24 25  1  0
 25 26  3  0
  6 27  2  0
 27  2  1  0
 24 12  1  0
 20 15  1  0
M  END
>  <Binding energies>  (19) 
[-8.23]

>  <Ligand effiencies>  (19) 
[-0.29392857142857143]

>  <Interactions>  (19) 
["H-A:ARG:545:NE:4923, V-A:GLY:453:C:4041, V-A:HIS:383:CE1:3393, H-A:ARG:545:NH2:4927, V-A:GLY:453:CA:4043, V-B:TYR:539:CE2:9847, V-A:LEU:475:CD2:4258, V-A:ILE:369:CG2:3236, V-B:TYR:539:CB:9842, V-A:ASP:366:CG:3212, V-B:TYR:539:CD2:9845, V-B:ALA:541:CB:9863, V-A:ILE:369:CD1:3238, V-B:PRO:540:CB:9856, V-B:GLU:543:CD:9879, V-B:PRO:540:CA:9854, V-A:SER:385:CA:3406, H-B:ALA:541:N:9862, V-B:GLU:543:CG:9878, V-A:GLY:454:CA:4048, V-B:ALA:541:CA:9861, V-B:TYR:539:CZ:9848, V-B:TYR:539:C:9838, V-B:ALA:541:C:9859, V-B:MET:535:CE:9806, V-B:PRO:540:N:9855, V-B:PRO:540:CD:9858, V-B:TYR:539:CA:9840"]

$$$$
3bf_Grossjean_2025
     RDKit          3D

 26 28  0  0  0  0  0  0  0  0999 V2000
  134.2640  124.2580   62.2320 C   0  0  0  0  0  0  0  0  0  0  0  0
  133.1980  123.1810   62.4230 C   0  0  0  0  0  0  0  0  0  0  0  0
  133.2030  122.0870   61.5520 C   0  0  0  0  0  0  0  0  0  0  0  0
  132.2530  121.0700   61.7010 C   0  0  0  0  0  0  0  0  0  0  0  0
  132.2180  119.8610   60.8150 C   0  0  0  0  0  0  0  0  0  0  0  0
  131.1720  118.9310   60.9140 C   0  0  0  0  0  0  0  0  0  0  0  0
  131.1330  117.8060   60.0950 C   0  0  0  0  0  0  0  0  0  0  0  0
  132.1440  117.5950   59.1640 C   0  0  0  0  0  0  0  0  0  0  0  0
  133.1930  118.5010   59.0470 C   0  0  0  0  0  0  0  0  0  0  0  0
  133.2290  119.6250   59.8690 C   0  0  0  0  0  0  0  0  0  0  0  0
  131.3180  121.1290   62.6860 N   0  0  0  0  0  0  0  0  0  0  0  0
  131.2850  122.1960   63.5230 C   0  0  0  0  0  0  0  0  0  0  0  0
  129.9910  122.1050   64.7430 S   0  0  0  0  0  0  0  0  0  0  0  0
  128.6850  123.2880   64.2720 C   0  0  0  0  0  0  0  0  0  0  0  0
  128.2010  123.1810   62.8180 C   0  0  0  0  0  0  0  0  0  0  0  0
  127.0310  122.8880   62.5640 O   0  0  0  0  0  0  0  0  0  0  0  0
  129.1420  123.4600   61.8900 N   0  0  0  0  0  0  0  0  0  0  0  0
  129.0310  123.4440   60.4870 C   0  0  0  0  0  0  0  0  0  0  0  0
  128.1350  122.5260   59.9280 C   0  0  0  0  0  0  0  0  0  0  0  0
  127.9690  122.4700   58.5420 C   0  0  0  0  0  0  0  0  0  0  0  0
  128.7080  123.3470   57.7480 C   0  0  0  0  0  0  0  0  0  0  0  0
  129.5760  124.2540   58.2620 N   0  0  0  0  0  0  0  0  0  0  0  0
  129.7270  124.2960   59.6120 C   0  0  0  0  0  0  0  0  0  0  0  0
  132.2240  123.2480   63.4420 C   0  0  0  0  0  0  0  0  0  0  0  0
  132.2310  124.3600   64.3970 C   0  0  0  0  0  0  0  0  0  0  0  0
  132.2380  125.2400   65.1490 N   0  0  0  0  0  0  0  0  0  0  0  0
  1  2  1  0
  2  3  2  0
  3  4  1  0
  4  5  1  0
  5  6  2  0
  6  7  1  0
  7  8  2  0
  8  9  1  0
  9 10  2  0
  4 11  2  0
 11 12  1  0
 12 13  1  0
 13 14  1  0
 14 15  1  0
 15 16  2  0
 15 17  1  0
 17 18  1  0
 18 19  2  0
 19 20  1  0
 20 21  2  0
 21 22  1  0
 22 23  2  0
 12 24  2  0
 24 25  1  0
 25 26  3  0
 24  2  1  0
 10  5  1  0
 23 18  1  0
M  END
>  <Binding energies>  (20) 
[-7.76]

>  <Ligand effiencies>  (20) 
[-0.2874074074074074]

>  <Interactions>  (20) 
["V-A:HIS:383:CE1:3393, V-B:TYR:539:CE2:9847, V-A:LEU:475:CD2:4258, V-A:ILE:369:CG2:3236, V-B:TYR:539:CB:9842, V-A:ASP:366:CG:3212, V-A:LEU:373:CD2:3280, V-B:TYR:539:CD2:9845, V-B:ALA:541:CB:9863, H-A:TYR:484:OH:4347, V-A:ILE:369:CD1:3238, V-B:GLU:543:CD:9879, V-B:PRO:540:CA:9854, V-A:SER:385:CA:3406, H-B:ALA:541:N:9862, V-B:GLU:543:CG:9878, V-B:TYR:539:CG:9843, V-B:TYR:539:CZ:9848, V-B:TYR:539:C:9838, V-B:MET:535:CE:9806, V-B:PRO:540:N:9855, V-B:TYR:539:CE1:9846, H-B:TYR:539:OH:9849, V-A:LEU:373:CG:3278, V-A:LEU:373:CD1:3279"]

$$$$
3bg_Grossjean_2025
     RDKit          3D

 27 29  0  0  0  0  0  0  0  0999 V2000
  128.4700  122.6820   63.8620 C   0  0  0  0  0  0  0  0  0  0  0  0
  129.0020  122.8650   62.4430 C   0  0  0  0  0  0  0  0  0  0  0  0
  128.0950  122.7870   61.3810 C   0  0  0  0  0  0  0  0  0  0  0  0
  128.5400  122.9570   60.0630 C   0  0  0  0  0  0  0  0  0  0  0  0
  127.6160  122.8970   58.8780 C   0  0  0  0  0  0  0  0  0  0  0  0
  126.2830  123.3290   58.9760 C   0  0  0  0  0  0  0  0  0  0  0  0
  125.4300  123.2920   57.8770 C   0  0  0  0  0  0  0  0  0  0  0  0
  125.8970  122.8170   56.6560 C   0  0  0  0  0  0  0  0  0  0  0  0
  127.2080  122.3720   56.5320 C   0  0  0  0  0  0  0  0  0  0  0  0
  128.0570  122.4100   57.6350 C   0  0  0  0  0  0  0  0  0  0  0  0
  129.8500  123.2170   59.8050 N   0  0  0  0  0  0  0  0  0  0  0  0
  130.7430  123.2990   60.8240 C   0  0  0  0  0  0  0  0  0  0  0  0
  132.4230  123.6780   60.3520 S   0  0  0  0  0  0  0  0  0  0  0  0
  133.5430  122.9590   61.5980 C   0  0  0  0  0  0  0  0  0  0  0  0
  133.5620  121.4290   61.5330 C   0  0  0  0  0  0  0  0  0  0  0  0
  133.9010  120.7770   62.5200 O   0  0  0  0  0  0  0  0  0  0  0  0
  133.2190  120.8760   60.3560 N   0  0  0  0  0  0  0  0  0  0  0  0
  133.3410  119.4590   60.0160 C   0  0  0  0  0  0  0  0  0  0  0  0
  132.0620  118.6900   60.3240 C   0  0  0  0  0  0  0  0  0  0  0  0
  131.2150  119.1220   61.3500 C   0  0  0  0  0  0  0  0  0  0  0  0
  130.0520  118.4140   61.6380 C   0  0  0  0  0  0  0  0  0  0  0  0
  129.7310  117.2820   60.8920 C   0  0  0  0  0  0  0  0  0  0  0  0
  130.5590  116.8570   59.8550 C   0  0  0  0  0  0  0  0  0  0  0  0
  131.7230  117.5650   59.5670 C   0  0  0  0  0  0  0  0  0  0  0  0
  130.3630  123.1200   62.1700 C   0  0  0  0  0  0  0  0  0  0  0  0
  131.3350  123.2150   63.2620 C   0  0  0  0  0  0  0  0  0  0  0  0
  132.1020  123.2890   64.1250 N   0  0  0  0  0  0  0  0  0  0  0  0
  1  2  1  0
  2  3  2  0
  3  4  1  0
  4  5  1  0
  5  6  2  0
  6  7  1  0
  7  8  2  0
  8  9  1  0
  9 10  2  0
  4 11  2  0
 11 12  1  0
 12 13  1  0
 13 14  1  0
 14 15  1  0
 15 16  2  0
 15 17  1  0
 17 18  1  0
 18 19  1  0
 19 20  2  0
 20 21  1  0
 21 22  2  0
 22 23  1  0
 23 24  2  0
 12 25  2  0
 25 26  1  0
 26 27  3  0
 25  2  1  0
 10  5  1  0
 24 19  1  0
M  END
>  <Binding energies>  (21) 
[-8.58]

>  <Ligand effiencies>  (21) 
[-0.30642857142857144]

>  <Interactions>  (21) 
["V-A:HIS:383:CE1:3393, V-B:TYR:539:CE2:9847, V-A:LEU:475:CD2:4258, V-A:ILE:369:CG2:3236, V-B:TYR:539:CB:9842, V-B:TYR:539:CD2:9845, V-B:ALA:541:CB:9863, H-A:TYR:484:OH:4347, V-A:ILE:369:CD1:3238, V-B:PRO:540:CB:9856, V-B:GLU:543:CD:9879, V-B:PRO:540:CA:9854, V-A:SER:385:CA:3406, V-B:GLU:543:CG:9878, V-B:TYR:539:CG:9843, V-B:PRO:540:C:9852, V-B:ALA:541:CA:9861, V-B:TYR:539:CZ:9848, V-B:TYR:539:C:9838, V-B:ALA:541:C:9859, V-B:MET:535:CE:9806, V-B:PRO:540:N:9855, V-B:TYR:539:CE1:9846, V-A:PRO:482:CB:4325, V-A:PRO:482:CG:4326, V-B:PRO:540:CD:9858, V-B:TYR:539:CA:9840, V-B:TYR:539:CD1:9844, V-B:VAL:344:CG1:7971"]

$$$$
3ca_Grossjean_2025
     RDKit          3D

 31 33  0  0  0  0  0  0  0  0999 V2000
  130.9190  128.9030   72.8780 C   0  0  0  0  0  0  0  0  0  0  0  0
  129.5100  128.6680   73.4290 C   0  0  0  0  0  0  0  0  0  0  0  0
  129.1190  127.3240   73.1740 O   0  0  0  0  0  0  0  0  0  0  0  0
  128.1530  127.0360   72.2650 C   0  0  0  0  0  0  0  0  0  0  0  0
  126.9490  127.0010   72.5400 O   0  0  0  0  0  0  0  0  0  0  0  0
  128.6920  126.7690   70.8890 C   0  0  0  0  0  0  0  0  0  0  0  0
  129.1670  127.8400   70.1210 C   0  0  0  0  0  0  0  0  0  0  0  0
  129.6720  127.6250   68.8420 C   0  0  0  0  0  0  0  0  0  0  0  0
  129.7070  126.3380   68.3020 C   0  0  0  0  0  0  0  0  0  0  0  0
  130.2390  126.2330   67.0020 N   0  0  0  0  0  0  0  0  0  0  0  0
  131.5210  126.3170   66.5860 C   0  0  0  0  0  0  0  0  0  0  0  0
  132.4960  126.4910   67.3160 O   0  0  0  0  0  0  0  0  0  0  0  0
  131.7310  126.1550   65.0770 C   0  0  0  0  0  0  0  0  0  0  0  0
  132.6820  124.6620   64.6410 S   0  0  0  0  0  0  0  0  0  0  0  0
  131.6210  123.4870   63.8090 C   0  0  0  0  0  0  0  0  0  0  0  0
  130.2880  123.6850   63.9670 N   0  0  0  0  0  0  0  0  0  0  0  0
  129.4260  122.8480   63.3500 C   0  0  0  0  0  0  0  0  0  0  0  0
  127.9550  123.1450   63.5590 C   0  0  0  0  0  0  0  0  0  0  0  0
  129.8520  121.7770   62.5680 C   0  0  0  0  0  0  0  0  0  0  0  0
  131.2230  121.5410   62.4040 C   0  0  0  0  0  0  0  0  0  0  0  0
  131.6330  120.3730   61.5680 C   0  0  0  0  0  0  0  0  0  0  0  0
  130.9270  119.1660   61.6510 C   0  0  0  0  0  0  0  0  0  0  0  0
  131.3070  118.0690   60.8820 C   0  0  0  0  0  0  0  0  0  0  0  0
  132.4020  118.1740   60.0280 C   0  0  0  0  0  0  0  0  0  0  0  0
  133.1200  119.3640   59.9380 C   0  0  0  0  0  0  0  0  0  0  0  0
  132.7370  120.4580   60.7090 C   0  0  0  0  0  0  0  0  0  0  0  0
  132.1390  122.4230   63.0330 C   0  0  0  0  0  0  0  0  0  0  0  0
  133.5850  122.2560   62.8560 C   0  0  0  0  0  0  0  0  0  0  0  0
  134.7270  122.1240   62.7150 N   0  0  0  0  0  0  0  0  0  0  0  0
  129.2410  125.2590   69.0670 C   0  0  0  0  0  0  0  0  0  0  0  0
  128.7370  125.4760   70.3470 C   0  0  0  0  0  0  0  0  0  0  0  0
  1  2  1  0
  2  3  1  0
  3  4  1  0
  4  5  2  0
  4  6  1  0
  6  7  2  0
  7  8  1  0
  8  9  2  0
  9 10  1  0
 10 11  1  0
 11 12  2  0
 11 13  1  0
 13 14  1  0
 14 15  1  0
 15 16  2  0
 16 17  1  0
 17 18  1  0
 17 19  2  0
 19 20  1  0
 20 21  1  0
 21 22  2  0
 22 23  1  0
 23 24  2  0
 24 25  1  0
 25 26  2  0
 20 27  2  0
 27 28  1  0
 28 29  3  0
  9 30  1  0
 30 31  2  0
 31  6  1  0
 27 15  1  0
 26 21  1  0
M  END
>  <Binding energies>  (22) 
[-8.48]

>  <Ligand effiencies>  (22) 
[-0.265]

>  <Interactions>  (22) 
["H-A:GLY:454:N:4049, V-B:TYR:539:CE2:9847, V-A:LEU:475:CD2:4258, V-A:ILE:369:CG2:3236, V-B:TYR:539:CD2:9845, V-B:ALA:541:CB:9863, H-A:TYR:484:OH:4347, V-A:ILE:369:CD1:3238, V-B:GLU:543:CD:9879, V-A:SER:385:CA:3406, V-B:GLU:543:CG:9878, V-A:GLY:454:CA:4048, V-A:HIS:456:CE1:4069, V-B:ALA:541:CA:9861, V-A:TYR:484:CE2:4345, V-A:TYR:484:CZ:4346, H-B:GLU:543:OE2:9881, V-B:HIS:456:CE1:9040, V-B:GLU:543:CB:9877, V-B:GLU:543:C:9873, V-B:ALA:541:C:9859, V-B:GLU:543:CA:9875, V-A:GLY:544:CA:4913, V-A:GLY:544:C:4911, H-B:HIS:456:ND1:9037, V-B:HIS:456:CD2:9038"]

$$$$
3ce_Grossjean_2025
     RDKit          3D

 27 29  0  0  0  0  0  0  0  0999 V2000
  130.1760  117.1680   60.8170 C   0  0  0  0  0  0  0  0  0  0  0  0
  131.2450  118.2320   60.6560 C   0  0  0  0  0  0  0  0  0  0  0  0
  132.4990  117.9340   60.1170 C   0  0  0  0  0  0  0  0  0  0  0  0
  133.4290  118.9650   59.9890 C   0  0  0  0  0  0  0  0  0  0  0  0
  133.0890  120.2560   60.4000 C   0  0  0  0  0  0  0  0  0  0  0  0
  131.8190  120.4840   60.9410 C   0  0  0  0  0  0  0  0  0  0  0  0
  131.5250  121.8060   61.3180 N   0  0  0  0  0  0  0  0  0  0  0  0
  132.0050  122.5000   62.3740 C   0  0  0  0  0  0  0  0  0  0  0  0
  132.8110  122.0650   63.1980 O   0  0  0  0  0  0  0  0  0  0  0  0
  131.4900  123.9320   62.5150 C   0  0  0  0  0  0  0  0  0  0  0  0
  132.8370  125.1110   62.8250 S   0  0  0  0  0  0  0  0  0  0  0  0
  132.6760  125.5920   64.5290 C   0  0  0  0  0  0  0  0  0  0  0  0
  133.8170  125.4620   65.2490 N   0  0  0  0  0  0  0  0  0  0  0  0
  133.8030  125.8180   66.5540 C   0  0  0  0  0  0  0  0  0  0  0  0
  135.1160  125.6600   67.2960 C   0  0  0  0  0  0  0  0  0  0  0  0
  132.6600  126.3000   67.1870 C   0  0  0  0  0  0  0  0  0  0  0  0
  131.4640  126.4170   66.4670 C   0  0  0  0  0  0  0  0  0  0  0  0
  130.2590  126.9130   67.1960 C   0  0  0  0  0  0  0  0  0  0  0  0
  129.7970  126.2390   68.3330 C   0  0  0  0  0  0  0  0  0  0  0  0
  128.6700  126.6930   69.0140 C   0  0  0  0  0  0  0  0  0  0  0  0
  127.9950  127.8200   68.5560 C   0  0  0  0  0  0  0  0  0  0  0  0
  128.4350  128.4960   67.4210 C   0  0  0  0  0  0  0  0  0  0  0  0
  129.5620  128.0410   66.7420 C   0  0  0  0  0  0  0  0  0  0  0  0
  131.4650  126.0580   65.0950 C   0  0  0  0  0  0  0  0  0  0  0  0
  130.2480  126.1730   64.2860 C   0  0  0  0  0  0  0  0  0  0  0  0
  129.2860  126.2650   63.6490 N   0  0  0  0  0  0  0  0  0  0  0  0
  130.9000  119.4810   61.0620 N   0  0  0  0  0  0  0  0  0  0  0  0
  1  2  1  0
  2  3  2  0
  3  4  1  0
  4  5  2  0
  5  6  1  0
  6  7  1  0
  7  8  1  0
  8  9  2  0
  8 10  1  0
 10 11  1  0
 11 12  1  0
 12 13  2  0
 13 14  1  0
 14 15  1  0
 14 16  2  0
 16 17  1  0
 17 18  1  0
 18 19  2  0
 19 20  1  0
 20 21  2  0
 21 22  1  0
 22 23  2  0
 17 24  2  0
 24 25  1  0
 25 26  3  0
  6 27  2  0
 27  2  1  0
 24 12  1  0
 23 18  1  0
M  END
>  <Binding energies>  (23) 
[-8.35]

>  <Ligand effiencies>  (23) 
[-0.2982142857142857]

>  <Interactions>  (23) 
["H-A:GLY:454:N:4049, H-A:ARG:545:NE:4923, V-A:GLY:453:C:4041, V-A:HIS:383:CE1:3393, H-A:ARG:545:NH2:4927, V-A:GLY:453:CA:4043, V-B:TYR:539:CE2:9847, V-A:ARG:545:CD:4922, V-A:LEU:475:CD2:4258, V-A:ILE:369:CG2:3236, V-B:TYR:539:CB:9842, V-B:TYR:539:CD2:9845, V-A:ARG:545:CG:4921, V-A:ARG:545:CZ:4925, H-A:TYR:484:OH:4347, V-B:GLU:543:CD:9879, V-A:SER:385:CA:3406, V-A:GLY:454:CA:4048, V-A:VAL:384:C:3396, V-A:HIS:456:CE1:4069, V-B:HIS:456:CE1:9040, V-B:GLU:543:CB:9877, V-A:GLU:543:CD:4907, V-A:GLU:543:CG:4906, V-A:ILE:455:C:4051, V-A:ARG:545:CB:4920, V-A:PRO:482:CB:4325, V-A:PRO:482:CG:4326, V-B:VAL:344:CG1:7971"]

$$$$
3cj_Grossjean_2025
     RDKit          3D

 25 27  0  0  0  0  0  0  0  0999 V2000
  132.0140  126.2040   57.3220 C   0  0  0  0  0  0  0  0  0  0  0  0
  131.1050  125.3850   58.2170 C   0  0  0  0  0  0  0  0  0  0  0  0
  129.8700  124.9200   57.7720 C   0  0  0  0  0  0  0  0  0  0  0  0
  129.0710  124.1470   58.6260 C   0  0  0  0  0  0  0  0  0  0  0  0
  127.7860  123.6170   58.0840 C   0  0  0  0  0  0  0  0  0  0  0  0
  126.5610  124.0610   58.5970 C   0  0  0  0  0  0  0  0  0  0  0  0
  125.3630  123.5550   58.1000 C   0  0  0  0  0  0  0  0  0  0  0  0
  125.3860  122.5970   57.0910 C   0  0  0  0  0  0  0  0  0  0  0  0
  126.5960  122.1380   56.5780 C   0  0  0  0  0  0  0  0  0  0  0  0
  127.7930  122.6460   57.0760 C   0  0  0  0  0  0  0  0  0  0  0  0
  129.5400  123.8910   59.9380 C   0  0  0  0  0  0  0  0  0  0  0  0
  128.7380  123.1130   60.8870 C   0  0  0  0  0  0  0  0  0  0  0  0
  128.1050  122.4970   61.6360 N   0  0  0  0  0  0  0  0  0  0  0  0
  130.8070  124.3980   60.3040 C   0  0  0  0  0  0  0  0  0  0  0  0
  131.5710  124.0360   61.8710 S   0  0  0  0  0  0  0  0  0  0  0  0
  133.0020  122.9870   61.4620 C   0  0  0  0  0  0  0  0  0  0  0  0
  132.7230  121.5070   61.7420 C   0  0  0  0  0  0  0  0  0  0  0  0
  133.1480  120.9950   62.7800 O   0  0  0  0  0  0  0  0  0  0  0  0
  131.9770  120.8730   60.8120 N   0  0  0  0  0  0  0  0  0  0  0  0
  131.4760  119.5830   60.8930 C   0  0  0  0  0  0  0  0  0  0  0  0
  130.4100  119.1700   61.5430 N   0  0  0  0  0  0  0  0  0  0  0  0
  130.2130  117.8770   61.3740 C   0  0  0  0  0  0  0  0  0  0  0  0
  131.1340  117.2130   60.5700 C   0  0  0  0  0  0  0  0  0  0  0  0
  132.3220  118.3520   60.0100 S   0  0  0  0  0  0  0  0  0  0  0  0
  131.5790  125.1220   59.4560 N   0  0  0  0  0  0  0  0  0  0  0  0
  1  2  1  0
  2  3  2  0
  3  4  1  0
  4  5  1  0
  5  6  2  0
  6  7  1  0
  7  8  2  0
  8  9  1  0
  9 10  2  0
  4 11  2  0
 11 12  1  0
 12 13  3  0
 11 14  1  0
 14 15  1  0
 15 16  1  0
 16 17  1  0
 17 18  2  0
 17 19  1  0
 19 20  1  0
 20 21  2  0
 21 22  1  0
 22 23  2  0
 23 24  1  0
 14 25  2  0
 25  2  1  0
 10  5  1  0
 24 20  1  0
M  END
>  <Binding energies>  (24) 
[-7.45]

>  <Ligand effiencies>  (24) 
[-0.2865384615384615]

>  <Interactions>  (24) 
["V-A:HIS:383:CE1:3393, V-B:TYR:539:CE2:9847, V-A:LEU:475:CD2:4258, V-B:TYR:539:CD2:9845, V-B:ALA:541:CB:9863, V-A:ILE:369:CD1:3238, V-B:PRO:540:CB:9856, V-B:PRO:540:CA:9854, H-B:ALA:541:N:9862, V-B:TYR:539:CG:9843, V-B:TYR:539:CZ:9848, V-A:ASP:366:CB:3211, V-B:TYR:539:C:9838, V-B:MET:535:CE:9806, V-B:PRO:540:N:9855, V-B:TYR:539:CE1:9846, V-A:PRO:482:CB:4325, V-A:PRO:482:CG:4326, V-B:PRO:540:CD:9858, V-B:PRO:540:CG:9857, V-B:TYR:539:CA:9840, V-B:TYR:539:CD1:9844, V-B:LEU:363:CD1:8159, V-B:ILE:538:CA:9831, V-B:ILE:538:C:9829"]

$$$$
4ba_Grossjean_2025
     RDKit          3D

 28 30  0  0  0  0  0  0  0  0999 V2000
  132.0890  117.3100   61.4610 C   0  0  0  0  0  0  0  0  0  0  0  0
  131.8010  118.6150   60.6950 C   0  0  0  0  0  0  0  0  0  0  0  0
  132.8810  119.7070   60.8330 C   0  0  0  0  0  0  0  0  0  0  0  0
  133.9180  119.6230   60.1710 O   0  0  0  0  0  0  0  0  0  0  0  0
  132.6100  120.8400   61.7800 C   0  0  0  0  0  0  0  0  0  0  0  0
  131.2880  121.2410   62.0120 C   0  0  0  0  0  0  0  0  0  0  0  0
  131.0090  122.2900   62.8830 C   0  0  0  0  0  0  0  0  0  0  0  0
  132.0420  122.9560   63.5430 C   0  0  0  0  0  0  0  0  0  0  0  0
  131.6470  124.0060   64.3940 N   0  0  0  0  0  0  0  0  0  0  0  0
  132.3680  125.0370   64.9000 C   0  0  0  0  0  0  0  0  0  0  0  0
  133.5750  125.1970   64.7080 O   0  0  0  0  0  0  0  0  0  0  0  0
  131.6170  125.9740   65.7380 C   0  0  0  0  0  0  0  0  0  0  0  0
  132.0760  126.2230   67.4200 S   0  0  0  0  0  0  0  0  0  0  0  0
  130.7540  127.3400   67.6650 C   0  0  0  0  0  0  0  0  0  0  0  0
  130.5470  127.9230   68.8450 N   0  0  0  0  0  0  0  0  0  0  0  0
  129.4920  128.7670   68.9130 C   0  0  0  0  0  0  0  0  0  0  0  0
  129.2690  129.4130   70.2690 C   0  0  0  0  0  0  0  0  0  0  0  0
  128.6510  129.0440   67.8380 C   0  0  0  0  0  0  0  0  0  0  0  0
  128.8650  128.4330   66.5920 C   0  0  0  0  0  0  0  0  0  0  0  0
  127.9140  128.7700   65.4390 C   0  0  0  0  0  0  0  0  0  0  0  0
  127.6430  127.7200   64.6620 F   0  0  0  0  0  0  0  0  0  0  0  0
  126.7550  129.2190   65.9230 F   0  0  0  0  0  0  0  0  0  0  0  0
  128.4600  129.7090   64.6650 F   0  0  0  0  0  0  0  0  0  0  0  0
  129.9660  127.5310   66.4890 C   0  0  0  0  0  0  0  0  0  0  0  0
  130.4800  126.7290   65.4050 C   0  0  0  0  0  0  0  0  0  0  0  0
  129.9030  126.7110   64.1600 N   0  0  0  0  0  0  0  0  0  0  0  0
  133.3690  122.5650   63.3110 C   0  0  0  0  0  0  0  0  0  0  0  0
  133.6470  121.5160   62.4390 C   0  0  0  0  0  0  0  0  0  0  0  0
  1  2  1  0
  2  3  1  0
  3  4  2  0
  3  5  1  0
  5  6  2  0
  6  7  1  0
  7  8  2  0
  8  9  1  0
  9 10  1  0
 10 11  2  0
 10 12  1  0
 12 13  1  0
 13 14  1  0
 14 15  2  0
 15 16  1  0
 16 17  1  0
 16 18  2  0
 18 19  1  0
 19 20  1  0
 20 21  1  0
 20 22  1  0
 20 23  1  0
 19 24  2  0
 24 25  1  0
 25 26  1  0
  8 27  1  0
 27 28  2  0
 28  5  1  0
 25 12  2  0
 24 14  1  0
M  END
>  <Binding energies>  (25) 
[-6.78]

>  <Ligand effiencies>  (25) 
[-0.21870967741935485]

>  <Interactions>  (25) 
["H-A:GLY:454:N:4049, V-A:HIS:383:CE1:3393, V-A:LEU:475:CD2:4258, V-B:TYR:539:CD2:9845, H-A:TYR:484:OH:4347, V-A:ILE:369:CD1:3238, V-B:GLU:543:CD:9879, V-A:SER:385:CB:3408, V-A:SER:385:CA:3406, V-A:GLY:454:CA:4048, V-A:HIS:456:CE1:4069, V-A:TYR:484:CZ:4346, H-B:GLU:543:OE2:9881, H-B:GLU:543:OE1:9880, V-B:HIS:456:CE1:9040, V-A:GLU:543:CB:4905, V-A:GLU:543:CD:4907, V-A:GLU:543:CG:4906, V-A:GLU:543:C:4901, V-A:SER:385:C:3404, V-A:THR:477:CG2:4272"]

$$$$
4bb_Grossjean_2025
     RDKit          3D

 27 29  0  0  0  0  0  0  0  0999 V2000
  131.8980  118.6640   60.6730 C   0  0  0  0  0  0  0  0  0  0  0  0
  132.9470  119.7710   60.8040 C   0  0  0  0  0  0  0  0  0  0  0  0
  133.9830  119.6690   60.1450 O   0  0  0  0  0  0  0  0  0  0  0  0
  132.6630  120.9120   61.7340 C   0  0  0  0  0  0  0  0  0  0  0  0
  131.3370  121.2110   62.0700 C   0  0  0  0  0  0  0  0  0  0  0  0
  131.0460  122.2660   62.9300 C   0  0  0  0  0  0  0  0  0  0  0  0
  132.0740  123.0370   63.4770 C   0  0  0  0  0  0  0  0  0  0  0  0
  131.6670  124.0800   64.3320 N   0  0  0  0  0  0  0  0  0  0  0  0
  132.3810  125.1080   64.8530 C   0  0  0  0  0  0  0  0  0  0  0  0
  133.5850  125.2800   64.6630 O   0  0  0  0  0  0  0  0  0  0  0  0
  131.6230  126.0230   65.7100 C   0  0  0  0  0  0  0  0  0  0  0  0
  132.0720  126.2310   67.4010 S   0  0  0  0  0  0  0  0  0  0  0  0
  130.7530  127.3470   67.6640 C   0  0  0  0  0  0  0  0  0  0  0  0
  130.5430  127.9090   68.8530 N   0  0  0  0  0  0  0  0  0  0  0  0
  129.4900  128.7550   68.9330 C   0  0  0  0  0  0  0  0  0  0  0  0
  129.2710  129.3860   70.2960 C   0  0  0  0  0  0  0  0  0  0  0  0
  128.6500  129.0490   67.8620 C   0  0  0  0  0  0  0  0  0  0  0  0
  128.8660  128.4610   66.6070 C   0  0  0  0  0  0  0  0  0  0  0  0
  127.9150  128.8150   65.4590 C   0  0  0  0  0  0  0  0  0  0  0  0
  128.4180  129.7300   64.6280 F   0  0  0  0  0  0  0  0  0  0  0  0
  127.6500  127.7240   64.7400 F   0  0  0  0  0  0  0  0  0  0  0  0
  126.7770  129.3050   65.9500 F   0  0  0  0  0  0  0  0  0  0  0  0
  129.9690  127.5620   66.4880 C   0  0  0  0  0  0  0  0  0  0  0  0
  130.4890  126.7880   65.3890 C   0  0  0  0  0  0  0  0  0  0  0  0
  129.9250  126.8050   64.1390 N   0  0  0  0  0  0  0  0  0  0  0  0
  133.4050  122.7480   63.1380 C   0  0  0  0  0  0  0  0  0  0  0  0
  133.6930  121.6930   62.2760 C   0  0  0  0  0  0  0  0  0  0  0  0
  1  2  1  0
  2  3  2  0
  2  4  1  0
  4  5  2  0
  5  6  1  0
  6  7  2  0
  7  8  1  0
  8  9  1  0
  9 10  2  0
  9 11  1  0
 11 12  1  0
 12 13  1  0
 13 14  2  0
 14 15  1  0
 15 16  1  0
 15 17  2  0
 17 18  1  0
 18 19  1  0
 19 20  1  0
 19 21  1  0
 19 22  1  0
 18 23  2  0
 23 24  1  0
 24 25  1  0
  7 26  1  0
 26 27  2  0
 27  4  1  0
 24 11  2  0
 23 13  1  0
M  END
>  <Binding energies>  (26) 
[-6.33]

>  <Ligand effiencies>  (26) 
[-0.211]

>  <Interactions>  (26) 
["H-A:GLY:454:N:4049, H-A:ARG:545:NH2:4927, V-A:LEU:475:CD2:4258, V-A:ILE:369:CG2:3236, V-B:TYR:539:CD2:9845, H-A:TYR:484:OH:4347, V-A:ILE:369:CD1:3238, V-B:GLU:543:CD:9879, V-A:SER:385:CA:3406, V-A:GLY:454:CA:4048, V-A:HIS:456:CE1:4069, V-A:TYR:484:CZ:4346, H-B:GLU:543:OE2:9881, H-B:GLU:543:OE1:9880, V-B:HIS:456:CE1:9040, V-A:GLU:543:CB:4905, V-A:GLU:543:CD:4907, V-A:GLU:543:CG:4906, V-A:GLU:543:C:4901"]

$$$$
4bd_Grossjean_2025
     RDKit          3D

 24 26  0  0  0  0  0  0  0  0999 V2000
  133.5130  123.2740   59.8770 C   0  0  0  0  0  0  0  0  0  0  0  0
  132.7730  123.4950   61.1840 C   0  0  0  0  0  0  0  0  0  0  0  0
  131.6310  122.7630   61.4960 C   0  0  0  0  0  0  0  0  0  0  0  0
  130.9560  122.9790   62.7070 C   0  0  0  0  0  0  0  0  0  0  0  0
  129.7010  122.1510   63.0050 C   0  0  0  0  0  0  0  0  0  0  0  0
  128.6000  122.8970   63.1260 F   0  0  0  0  0  0  0  0  0  0  0  0
  129.4880  121.2820   62.0170 F   0  0  0  0  0  0  0  0  0  0  0  0
  129.8600  121.4870   64.1490 F   0  0  0  0  0  0  0  0  0  0  0  0
  131.4920  123.9670   63.5860 C   0  0  0  0  0  0  0  0  0  0  0  0
  131.0850  124.4530   64.8820 C   0  0  0  0  0  0  0  0  0  0  0  0
  129.9860  123.9670   65.5420 N   0  0  0  0  0  0  0  0  0  0  0  0
  131.9120  125.4630   65.4020 C   0  0  0  0  0  0  0  0  0  0  0  0
  131.7830  126.1850   66.6710 C   0  0  0  0  0  0  0  0  0  0  0  0
  132.7830  126.5370   67.2980 O   0  0  0  0  0  0  0  0  0  0  0  0
  130.5110  126.4340   67.0720 N   0  0  0  0  0  0  0  0  0  0  0  0
  130.0490  127.0600   68.2440 C   0  0  0  0  0  0  0  0  0  0  0  0
  129.1730  126.3100   69.0340 C   0  0  0  0  0  0  0  0  0  0  0  0
  128.6680  126.8370   70.2190 C   0  0  0  0  0  0  0  0  0  0  0  0
  129.0470  128.1140   70.6220 C   0  0  0  0  0  0  0  0  0  0  0  0
  129.9310  128.8670   69.8520 C   0  0  0  0  0  0  0  0  0  0  0  0
  130.4370  128.3430   68.6660 C   0  0  0  0  0  0  0  0  0  0  0  0
  133.2310  125.8390   64.2960 S   0  0  0  0  0  0  0  0  0  0  0  0
  132.6680  124.6480   63.1460 C   0  0  0  0  0  0  0  0  0  0  0  0
  133.3050  124.4380   61.9950 N   0  0  0  0  0  0  0  0  0  0  0  0
  1  2  1  0
  2  3  2  0
  3  4  1  0
  4  5  1  0
  5  6  1  0
  5  7  1  0
  5  8  1  0
  4  9  2  0
  9 10  1  0
 10 11  1  0
 10 12  2  0
 12 13  1  0
 13 14  2  0
 13 15  1  0
 15 16  1  0
 16 17  2  0
 17 18  1  0
 18 19  2  0
 19 20  1  0
 20 21  2  0
 12 22  1  0
 22 23  1  0
 23 24  2  0
 24  2  1  0
 23  9  1  0
 21 16  1  0
M  END
>  <Binding energies>  (27) 
[-5.88]

>  <Ligand effiencies>  (27) 
[-0.21777777777777776]

>  <Interactions>  (27) 
["H-A:ARG:545:NE:4923, V-B:TYR:539:CE2:9847, V-A:LEU:475:CD2:4258, V-A:ILE:369:CG2:3236, V-B:ALA:541:CB:9863, V-A:ARG:545:CZ:4925, H-A:TYR:484:OH:4347, V-A:ILE:369:CD1:3238, V-B:GLU:543:CD:9879, V-B:GLU:543:CG:9878, V-A:HIS:456:CE1:4069, V-B:ALA:541:CA:9861, V-A:ILE:369:CB:3235, V-A:TYR:484:CE2:4345, V-A:TYR:484:CZ:4346, V-A:LEU:475:CD1:4257, H-B:GLU:543:OE2:9881, V-B:HIS:456:CE1:9040, V-B:GLU:543:CB:9877, V-A:GLU:543:CB:4905, V-A:GLU:543:CD:4907, V-A:GLU:543:CG:4906, V-A:GLU:543:C:4901, V-A:LEU:475:CG:4256, V-A:ILE:369:CG1:3237"]

$$$$
4be_Grossjean_2025
     RDKit          3D

 25 27  0  0  0  0  0  0  0  0999 V2000
  127.6100  126.2340   71.0760 C   0  0  0  0  0  0  0  0  0  0  0  0
  128.6240  126.9560   70.2100 C   0  0  0  0  0  0  0  0  0  0  0  0
  129.0980  128.2270   70.5430 C   0  0  0  0  0  0  0  0  0  0  0  0
  130.0280  128.8320   69.6970 C   0  0  0  0  0  0  0  0  0  0  0  0
  130.4590  128.1590   68.5520 C   0  0  0  0  0  0  0  0  0  0  0  0
  129.9490  126.8850   68.2800 C   0  0  0  0  0  0  0  0  0  0  0  0
  130.4170  126.2640   67.1080 N   0  0  0  0  0  0  0  0  0  0  0  0
  131.6960  126.0580   66.7050 C   0  0  0  0  0  0  0  0  0  0  0  0
  132.6840  126.4030   67.3560 O   0  0  0  0  0  0  0  0  0  0  0  0
  131.8480  125.4020   65.4040 C   0  0  0  0  0  0  0  0  0  0  0  0
  133.1720  125.8560   64.3330 S   0  0  0  0  0  0  0  0  0  0  0  0
  132.6340  124.7260   63.1130 C   0  0  0  0  0  0  0  0  0  0  0  0
  133.2850  124.5860   61.9600 N   0  0  0  0  0  0  0  0  0  0  0  0
  132.7740  123.6790   61.0950 C   0  0  0  0  0  0  0  0  0  0  0  0
  133.5280  123.5370   59.7860 C   0  0  0  0  0  0  0  0  0  0  0  0
  131.6400  122.9140   61.3570 C   0  0  0  0  0  0  0  0  0  0  0  0
  130.9500  123.0560   62.5710 C   0  0  0  0  0  0  0  0  0  0  0  0
  129.7100  122.1900   62.8140 C   0  0  0  0  0  0  0  0  0  0  0  0
  129.4820  121.3160   61.8310 F   0  0  0  0  0  0  0  0  0  0  0  0
  129.8600  121.4920   63.9400 F   0  0  0  0  0  0  0  0  0  0  0  0
  128.6310  122.9660   62.9180 F   0  0  0  0  0  0  0  0  0  0  0  0
  131.4600  124.0080   63.5030 C   0  0  0  0  0  0  0  0  0  0  0  0
  131.0290  124.4260   64.8150 C   0  0  0  0  0  0  0  0  0  0  0  0
  129.9200  123.9050   65.4300 N   0  0  0  0  0  0  0  0  0  0  0  0
  129.0340  126.2890   69.1000 N   0  0  0  0  0  0  0  0  0  0  0  0
  1  2  1  0
  2  3  2  0
  3  4  1  0
  4  5  2  0
  5  6  1  0
  6  7  1  0
  7  8  1  0
  8  9  2  0
  8 10  1  0
 10 11  1  0
 11 12  1  0
 12 13  2  0
 13 14  1  0
 14 15  1  0
 14 16  2  0
 16 17  1  0
 17 18  1  0
 18 19  1  0
 18 20  1  0
 18 21  1  0
 17 22  2  0
 22 23  1  0
 23 24  1  0
  6 25  2  0
 25  2  1  0
 23 10  2  0
 22 12  1  0
M  END
>  <Binding energies>  (28) 
[-6.02]

>  <Ligand effiencies>  (28) 
[-0.215]

>  <Interactions>  (28) 
["V-B:TYR:539:CE2:9847, V-A:LEU:475:CD2:4258, V-A:ILE:369:CG2:3236, V-A:ASP:366:CG:3212, V-B:ALA:541:CB:9863, V-A:ARG:545:CZ:4925, H-A:TYR:484:OH:4347, V-A:ILE:369:CD1:3238, V-B:GLU:543:CD:9879, V-B:GLU:543:CG:9878, V-A:HIS:456:CE1:4069, V-B:ALA:541:CA:9861, V-A:ILE:369:CB:3235, V-A:TYR:484:CE2:4345, V-A:TYR:484:CZ:4346, V-A:LEU:475:CD1:4257, H-B:GLU:543:OE2:9881, V-B:HIS:456:CE1:9040, V-B:GLU:543:CB:9877, V-B:GLY:544:C:9883, V-A:GLU:543:CB:4905, V-B:GLU:543:C:9873, V-A:GLU:543:CD:4907, V-A:GLU:543:C:4901, V-A:ILE:369:CG1:3237"]

$$$$
4bg_Grossjean_2025
     RDKit          3D

 25 27  0  0  0  0  0  0  0  0999 V2000
  133.5000  120.2200   61.4170 C   0  0  0  0  0  0  0  0  0  0  0  0
  132.6290  121.3830   60.9790 C   0  0  0  0  0  0  0  0  0  0  0  0
  131.2680  121.4110   61.2730 C   0  0  0  0  0  0  0  0  0  0  0  0
  130.4730  122.4910   60.8560 C   0  0  0  0  0  0  0  0  0  0  0  0
  128.9800  122.4780   61.2030 C   0  0  0  0  0  0  0  0  0  0  0  0
  128.6060  123.5270   61.9380 F   0  0  0  0  0  0  0  0  0  0  0  0
  128.2570  122.4980   60.0830 F   0  0  0  0  0  0  0  0  0  0  0  0
  128.6870  121.3790   61.8970 F   0  0  0  0  0  0  0  0  0  0  0  0
  131.1200  123.5360   60.1320 C   0  0  0  0  0  0  0  0  0  0  0  0
  130.6440  124.7680   59.5510 C   0  0  0  0  0  0  0  0  0  0  0  0
  129.3300  125.1580   59.6090 N   0  0  0  0  0  0  0  0  0  0  0  0
  131.6460  125.5320   58.9320 C   0  0  0  0  0  0  0  0  0  0  0  0
  131.5140  126.8060   58.2250 C   0  0  0  0  0  0  0  0  0  0  0  0
  131.3720  126.8500   57.0020 O   0  0  0  0  0  0  0  0  0  0  0  0
  131.5200  127.9130   58.9960 N   0  0  0  0  0  0  0  0  0  0  0  0
  131.4180  129.2880   58.5070 C   0  0  0  0  0  0  0  0  0  0  0  0
  132.0280  130.3170   59.4500 C   0  0  0  0  0  0  0  0  0  0  0  0
  131.3940  130.6250   60.6570 C   0  0  0  0  0  0  0  0  0  0  0  0
  131.9740  131.5370   61.5340 C   0  0  0  0  0  0  0  0  0  0  0  0
  133.1930  132.1290   61.2100 C   0  0  0  0  0  0  0  0  0  0  0  0
  133.8390  131.8130   60.0170 C   0  0  0  0  0  0  0  0  0  0  0  0
  133.2590  130.9020   59.1380 C   0  0  0  0  0  0  0  0  0  0  0  0
  133.2100  124.7280   59.0160 S   0  0  0  0  0  0  0  0  0  0  0  0
  132.5230  123.3880   59.9030 C   0  0  0  0  0  0  0  0  0  0  0  0
  133.2720  122.3600   60.2990 N   0  0  0  0  0  0  0  0  0  0  0  0
  1  2  1  0
  2  3  2  0
  3  4  1  0
  4  5  1  0
  5  6  1  0
  5  7  1  0
  5  8  1  0
  4  9  2  0
  9 10  1  0
 10 11  1  0
 10 12  2  0
 12 13  1  0
 13 14  2  0
 13 15  1  0
 15 16  1  0
 16 17  1  0
 17 18  2  0
 18 19  1  0
 19 20  2  0
 20 21  1  0
 21 22  2  0
 12 23  1  0
 23 24  1  0
 24 25  2  0
 25  2  1  0
 24  9  1  0
 22 17  1  0
M  END
>  <Binding energies>  (29) 
[-5.99]

>  <Ligand effiencies>  (29) 
[-0.21392857142857144]

>  <Interactions>  (29) 
["V-B:TYR:539:CE2:9847, V-A:LEU:475:CD2:4258, V-A:ILE:369:CG2:3236, V-A:ASP:366:CG:3212, V-B:TYR:539:CD2:9845, V-B:ALA:541:CB:9863, V-B:PRO:540:CA:9854, V-A:SER:385:CB:3408, V-A:SER:385:CA:3406, V-B:PRO:540:C:9852, V-B:ALA:541:CA:9861, H-A:ASP:366:OD2:3214, V-A:ASP:366:CB:3211, V-A:ILE:369:CB:3235, V-A:ASP:366:CA:3209, V-B:TYR:539:C:9838, V-A:PRO:540:CB:4884, V-A:PRO:540:CA:4882, V-B:PRO:540:N:9855, H-A:TYR:531:OH:4794, V-A:SER:385:C:3404, V-A:ASN:362:CB:3175, V-A:LEU:363:CA:3184, V-A:ASN:362:C:3171"]

$$$$
4ca_Grossjean_2025
     RDKit          3D

 34 37  0  0  0  0  0  0  0  0999 V2000
  131.0660  128.3210   73.5850 C   0  0  0  0  0  0  0  0  0  0  0  0
  129.9130  127.3410   73.3520 C   0  0  0  0  0  0  0  0  0  0  0  0
  128.9670  127.9250   72.4660 O   0  0  0  0  0  0  0  0  0  0  0  0
  129.3670  128.6980   71.4230 C   0  0  0  0  0  0  0  0  0  0  0  0
  129.5000  129.9230   71.4970 O   0  0  0  0  0  0  0  0  0  0  0  0
  129.6340  127.9120   70.1720 C   0  0  0  0  0  0  0  0  0  0  0  0
  129.0600  126.6420   70.0260 C   0  0  0  0  0  0  0  0  0  0  0  0
  129.2860  125.8920   68.8750 C   0  0  0  0  0  0  0  0  0  0  0  0
  130.0940  126.3890   67.8530 C   0  0  0  0  0  0  0  0  0  0  0  0
  130.2470  125.5510   66.7320 N   0  0  0  0  0  0  0  0  0  0  0  0
  131.1710  125.5800   65.7400 C   0  0  0  0  0  0  0  0  0  0  0  0
  132.1110  126.3740   65.6940 O   0  0  0  0  0  0  0  0  0  0  0  0
  130.9990  124.5680   64.6950 C   0  0  0  0  0  0  0  0  0  0  0  0
  132.0890  123.1850   64.6140 S   0  0  0  0  0  0  0  0  0  0  0  0
  131.2230  122.5270   63.2460 C   0  0  0  0  0  0  0  0  0  0  0  0
  131.5940  121.3830   62.6760 N   0  0  0  0  0  0  0  0  0  0  0  0
  130.8520  120.9420   61.6270 C   0  0  0  0  0  0  0  0  0  0  0  0
  131.2890  119.6450   61.0110 C   0  0  0  0  0  0  0  0  0  0  0  0
  132.4700  119.5690   60.2550 C   0  0  0  0  0  0  0  0  0  0  0  0
  132.8780  118.3700   59.6770 C   0  0  0  0  0  0  0  0  0  0  0  0
  132.1080  117.2240   59.8470 C   0  0  0  0  0  0  0  0  0  0  0  0
  130.9330  117.2710   60.5900 C   0  0  0  0  0  0  0  0  0  0  0  0
  130.5280  118.4720   61.1660 C   0  0  0  0  0  0  0  0  0  0  0  0
  129.7560  121.6640   61.1420 C   0  0  0  0  0  0  0  0  0  0  0  0
  129.3600  122.8740   61.7330 C   0  0  0  0  0  0  0  0  0  0  0  0
  128.1470  123.6110   61.1540 C   0  0  0  0  0  0  0  0  0  0  0  0
  127.1680  123.7880   62.0430 F   0  0  0  0  0  0  0  0  0  0  0  0
  128.5160  124.8160   60.7210 F   0  0  0  0  0  0  0  0  0  0  0  0
  127.6390  122.9140   60.1370 F   0  0  0  0  0  0  0  0  0  0  0  0
  130.1200  123.3360   62.8450 C   0  0  0  0  0  0  0  0  0  0  0  0
  130.0150  124.4970   63.6950 C   0  0  0  0  0  0  0  0  0  0  0  0
  129.0390  125.4470   63.5340 N   0  0  0  0  0  0  0  0  0  0  0  0
  130.6690  127.6610   67.9880 C   0  0  0  0  0  0  0  0  0  0  0  0
  130.4400  128.4120   69.1380 C   0  0  0  0  0  0  0  0  0  0  0  0
  1  2  1  0
  2  3  1  0
  3  4  1  0
  4  5  2  0
  4  6  1  0
  6  7  2  0
  7  8  1  0
  8  9  2  0
  9 10  1  0
 10 11  1  0
 11 12  2  0
 11 13  1  0
 13 14  1  0
 14 15  1  0
 15 16  2  0
 16 17  1  0
 17 18  1  0
 18 19  2  0
 19 20  1  0
 20 21  2  0
 21 22  1  0
 22 23  2  0
 17 24  2  0
 24 25  1  0
 25 26  1  0
 26 27  1  0
 26 28  1  0
 26 29  1  0
 25 30  2  0
 30 31  1  0
 31 32  1  0
  9 33  1  0
 33 34  2  0
 34  6  1  0
 31 13  2  0
 30 15  1  0
 23 18  1  0
M  END
>  <Binding energies>  (30) 
[-7.22]

>  <Ligand effiencies>  (30) 
[-0.19513513513513514]

>  <Interactions>  (30) 
["H-A:ARG:545:NE:4923, V-A:HIS:383:CE1:3393, H-A:ARG:545:NH2:4927, V-B:TYR:539:CE2:9847, V-A:LEU:475:CD2:4258, V-B:TYR:539:CB:9842, V-B:TYR:539:CD2:9845, H-A:TYR:484:OH:4347, V-B:GLU:543:CD:9879, V-B:PRO:540:CA:9854, V-A:GLY:454:CA:4048, V-A:HIS:456:CE1:4069, V-A:TYR:484:CE2:4345, V-A:TYR:484:CZ:4346, H-B:GLU:543:OE2:9881, V-B:TYR:539:C:9838, H-B:GLU:543:OE1:9880, V-B:HIS:456:CE1:9040, V-B:GLU:543:CB:9877, V-A:GLU:543:CB:4905, V-A:GLU:543:CD:4907, V-B:PRO:540:N:9855, V-A:HIS:383:CG:3389"]

$$$$
4cb_Grossjean_2025
     RDKit          3D

 33 36  0  0  0  0  0  0  0  0999 V2000
  129.0580  126.9180   73.3430 C   0  0  0  0  0  0  0  0  0  0  0  0
  128.4930  127.7780   72.3630 O   0  0  0  0  0  0  0  0  0  0  0  0
  129.2830  128.4620   71.4970 C   0  0  0  0  0  0  0  0  0  0  0  0
  129.7250  129.5930   71.7240 O   0  0  0  0  0  0  0  0  0  0  0  0
  129.5680  127.7060   70.2300 C   0  0  0  0  0  0  0  0  0  0  0  0
  129.0940  126.3950   70.0940 C   0  0  0  0  0  0  0  0  0  0  0  0
  129.3340  125.6720   68.9300 C   0  0  0  0  0  0  0  0  0  0  0  0
  130.0580  126.2400   67.8810 C   0  0  0  0  0  0  0  0  0  0  0  0
  130.2300  125.4240   66.7450 N   0  0  0  0  0  0  0  0  0  0  0  0
  131.1740  125.4690   65.7740 C   0  0  0  0  0  0  0  0  0  0  0  0
  132.1200  126.2580   65.7640 O   0  0  0  0  0  0  0  0  0  0  0  0
  131.0180  124.4780   64.7050 C   0  0  0  0  0  0  0  0  0  0  0  0
  132.1170  123.1040   64.6020 S   0  0  0  0  0  0  0  0  0  0  0  0
  131.2680  122.4710   63.2110 C   0  0  0  0  0  0  0  0  0  0  0  0
  131.6510  121.3440   62.6170 N   0  0  0  0  0  0  0  0  0  0  0  0
  130.9230  120.9260   61.5490 C   0  0  0  0  0  0  0  0  0  0  0  0
  131.3760  119.6480   60.9030 C   0  0  0  0  0  0  0  0  0  0  0  0
  132.5800  119.5960   60.1820 C   0  0  0  0  0  0  0  0  0  0  0  0
  133.0040  118.4160   59.5770 C   0  0  0  0  0  0  0  0  0  0  0  0
  132.2280  117.2670   59.6860 C   0  0  0  0  0  0  0  0  0  0  0  0
  131.0290  117.2910   60.3930 C   0  0  0  0  0  0  0  0  0  0  0  0
  130.6090  118.4740   60.9940 C   0  0  0  0  0  0  0  0  0  0  0  0
  129.8280  121.6530   61.0710 C   0  0  0  0  0  0  0  0  0  0  0  0
  129.4180  122.8450   61.6880 C   0  0  0  0  0  0  0  0  0  0  0  0
  128.2080  123.5910   61.1130 C   0  0  0  0  0  0  0  0  0  0  0  0
  127.6770  122.9860   60.0480 F   0  0  0  0  0  0  0  0  0  0  0  0
  127.2520  123.6790   62.0390 F   0  0  0  0  0  0  0  0  0  0  0  0
  128.5700  124.8170   60.7360 F   0  0  0  0  0  0  0  0  0  0  0  0
  130.1650  123.2840   62.8190 C   0  0  0  0  0  0  0  0  0  0  0  0
  130.0420  124.4240   63.6960 C   0  0  0  0  0  0  0  0  0  0  0  0
  129.0590  125.3680   63.5500 N   0  0  0  0  0  0  0  0  0  0  0  0
  130.5340  127.5530   68.0070 C   0  0  0  0  0  0  0  0  0  0  0  0
  130.2910  128.2760   69.1710 C   0  0  0  0  0  0  0  0  0  0  0  0
  1  2  1  0
  2  3  1  0
  3  4  2  0
  3  5  1  0
  5  6  2  0
  6  7  1  0
  7  8  2  0
  8  9  1  0
  9 10  1  0
 10 11  2  0
 10 12  1  0
 12 13  1  0
 13 14  1  0
 14 15  2  0
 15 16  1  0
 16 17  1  0
 17 18  2  0
 18 19  1  0
 19 20  2  0
 20 21  1  0
 21 22  2  0
 16 23  2  0
 23 24  1  0
 24 25  1  0
 25 26  1  0
 25 27  1  0
 25 28  1  0
 24 29  2  0
 29 30  1  0
 30 31  1  0
  8 32  1  0
 32 33  2  0
 33  5  1  0
 30 12  2  0
 29 14  1  0
 22 17  1  0
M  END
>  <Binding energies>  (31) 
[-7.13]

>  <Ligand effiencies>  (31) 
[-0.19805555555555554]

>  <Interactions>  (31) 
["V-A:HIS:383:CE1:3393, V-B:TYR:539:CE2:9847, V-A:LEU:475:CD2:4258, V-A:ILE:369:CG2:3236, V-B:TYR:539:CB:9842, V-A:LEU:373:CD2:3280, V-B:TYR:539:CD2:9845, H-A:TYR:484:OH:4347, V-B:GLU:543:CD:9879, V-B:PRO:540:CA:9854, V-A:GLY:454:CA:4048, V-A:VAL:384:C:3396, V-A:HIS:456:CE1:4069, V-A:TYR:484:CE2:4345, V-A:TYR:484:CZ:4346, H-B:GLU:543:OE2:9881, V-B:TYR:539:C:9838, H-B:GLU:543:OE1:9880, V-B:HIS:456:CE1:9040, V-B:GLU:543:CB:9877, V-A:GLU:543:CB:4905, V-A:GLU:543:CD:4907, V-B:PRO:540:N:9855, V-A:HIS:383:CG:3389"]

$$$$
4cc_Grossjean_2025
     RDKit          3D

 31 34  0  0  0  0  0  0  0  0999 V2000
  130.1250  129.2120   71.7800 C   0  0  0  0  0  0  0  0  0  0  0  0
  129.1710  129.0170   70.7410 O   0  0  0  0  0  0  0  0  0  0  0  0
  129.4260  128.0800   69.7590 C   0  0  0  0  0  0  0  0  0  0  0  0
  130.2710  128.4780   68.7240 C   0  0  0  0  0  0  0  0  0  0  0  0
  130.5880  127.6010   67.6900 C   0  0  0  0  0  0  0  0  0  0  0  0
  130.0520  126.3120   67.6730 C   0  0  0  0  0  0  0  0  0  0  0  0
  130.4410  125.4920   66.5970 N   0  0  0  0  0  0  0  0  0  0  0  0
  131.4930  125.6260   65.7540 C   0  0  0  0  0  0  0  0  0  0  0  0
  132.3350  126.5220   65.8400 O   0  0  0  0  0  0  0  0  0  0  0  0
  131.5860  124.6140   64.6970 C   0  0  0  0  0  0  0  0  0  0  0  0
  130.9230  123.0010   64.9510 S   0  0  0  0  0  0  0  0  0  0  0  0
  131.4100  122.4990   63.3490 C   0  0  0  0  0  0  0  0  0  0  0  0
  131.1670  121.2690   62.9030 N   0  0  0  0  0  0  0  0  0  0  0  0
  131.5740  120.9750   61.6410 C   0  0  0  0  0  0  0  0  0  0  0  0
  131.2890  119.5800   61.1650 C   0  0  0  0  0  0  0  0  0  0  0  0
  132.1420  118.9460   60.2470 C   0  0  0  0  0  0  0  0  0  0  0  0
  131.8830  117.6530   59.8000 C   0  0  0  0  0  0  0  0  0  0  0  0
  130.7630  116.9730   60.2660 C   0  0  0  0  0  0  0  0  0  0  0  0
  129.9000  117.5790   61.1740 C   0  0  0  0  0  0  0  0  0  0  0  0
  130.1620  118.8720   61.6170 C   0  0  0  0  0  0  0  0  0  0  0  0
  132.2380  121.9100   60.8410 C   0  0  0  0  0  0  0  0  0  0  0  0
  132.5010  123.2100   61.3030 C   0  0  0  0  0  0  0  0  0  0  0  0
  133.2270  124.1870   60.3710 C   0  0  0  0  0  0  0  0  0  0  0  0
  133.5980  123.6310   59.2150 F   0  0  0  0  0  0  0  0  0  0  0  0
  132.4280  125.2130   60.0810 F   0  0  0  0  0  0  0  0  0  0  0  0
  134.3290  124.6430   60.9660 F   0  0  0  0  0  0  0  0  0  0  0  0
  132.0700  123.5330   62.6220 C   0  0  0  0  0  0  0  0  0  0  0  0
  132.1600  124.7300   63.4210 C   0  0  0  0  0  0  0  0  0  0  0  0
  132.7530  125.8810   62.9670 N   0  0  0  0  0  0  0  0  0  0  0  0
  129.2110  125.8990   68.7170 C   0  0  0  0  0  0  0  0  0  0  0  0
  128.8990  126.7790   69.7490 C   0  0  0  0  0  0  0  0  0  0  0  0
  1  2  1  0
  2  3  1  0
  3  4  2  0
  4  5  1  0
  5  6  2  0
  6  7  1  0
  7  8  1  0
  8  9  2  0
  8 10  1  0
 10 11  1  0
 11 12  1  0
 12 13  2  0
 13 14  1  0
 14 15  1  0
 15 16  2  0
 16 17  1  0
 17 18  2  0
 18 19  1  0
 19 20  2  0
 14 21  2  0
 21 22  1  0
 22 23  1  0
 23 24  1  0
 23 25  1  0
 23 26  1  0
 22 27  2  0
 27 28  1  0
 28 29  1  0
  6 30  1  0
 30 31  2  0
 31  3  1  0
 28 10  2  0
 27 12  1  0
 20 15  1  0
M  END
>  <Binding energies>  (32) 
[-7.42]

>  <Ligand effiencies>  (32) 
[-0.21823529411764706]

>  <Interactions>  (32) 
["H-A:ARG:545:NE:4923, V-A:HIS:383:CE1:3393, H-A:ARG:545:NH2:4927, V-B:TYR:539:CE2:9847, V-A:LEU:475:CD2:4258, V-A:ILE:369:CG2:3236, V-B:TYR:539:CB:9842, V-A:ASP:366:CG:3212, V-B:TYR:539:CD2:9845, V-B:ALA:541:CB:9863, V-A:ARG:545:CZ:4925, H-A:TYR:484:OH:4347, V-A:ILE:369:CD1:3238, V-B:GLU:543:CD:9879, V-B:GLU:543:CG:9878, V-A:HIS:456:CE1:4069, H-A:ASP:366:OD2:3214, H-A:ASP:366:OD1:3213, V-B:TYR:539:CZ:9848, V-A:ASP:366:CB:3211, V-A:ILE:369:CB:3235, V-A:ASP:366:CA:3209, V-A:TYR:484:CE2:4345, V-A:TYR:484:CZ:4346, H-B:GLU:543:OE2:9881, V-B:TYR:539:C:9838, V-B:HIS:456:CE1:9040, V-B:GLU:543:CB:9877, V-A:GLU:543:CB:4905, V-A:GLU:543:CD:4907, V-A:GLU:543:CG:4906, V-A:GLU:543:C:4901, V-A:PRO:482:CB:4325, V-A:PRO:482:CG:4326, V-B:VAL:344:CG1:7971, V-A:ILE:369:CG1:3237"]

$$$$
4ce_Grossjean_2025
     RDKit          3D

 30 33  0  0  0  0  0  0  0  0999 V2000
  127.9650  130.3440   66.8790 C   0  0  0  0  0  0  0  0  0  0  0  0
  128.7810  129.1700   67.3860 C   0  0  0  0  0  0  0  0  0  0  0  0
  129.0960  129.0280   68.7400 C   0  0  0  0  0  0  0  0  0  0  0  0
  129.8430  127.9180   69.1350 C   0  0  0  0  0  0  0  0  0  0  0  0
  130.2520  126.9870   68.1790 C   0  0  0  0  0  0  0  0  0  0  0  0
  129.9080  127.1920   66.8380 C   0  0  0  0  0  0  0  0  0  0  0  0
  130.3280  126.2070   65.9270 N   0  0  0  0  0  0  0  0  0  0  0  0
  131.5920  125.8320   65.6050 C   0  0  0  0  0  0  0  0  0  0  0  0
  132.6010  126.3240   66.1110 O   0  0  0  0  0  0  0  0  0  0  0  0
  131.6970  124.7780   64.5930 C   0  0  0  0  0  0  0  0  0  0  0  0
  131.0700  123.1660   64.9250 S   0  0  0  0  0  0  0  0  0  0  0  0
  131.5220  122.6130   63.3300 C   0  0  0  0  0  0  0  0  0  0  0  0
  131.2850  121.3650   62.9350 N   0  0  0  0  0  0  0  0  0  0  0  0
  131.6590  121.0320   61.6710 C   0  0  0  0  0  0  0  0  0  0  0  0
  131.3730  119.6190   61.2560 C   0  0  0  0  0  0  0  0  0  0  0  0
  130.2040  118.9690   61.6840 C   0  0  0  0  0  0  0  0  0  0  0  0
  129.9360  117.6550   61.3070 C   0  0  0  0  0  0  0  0  0  0  0  0
  130.8340  116.9730   60.4940 C   0  0  0  0  0  0  0  0  0  0  0  0
  131.9990  117.5930   60.0570 C   0  0  0  0  0  0  0  0  0  0  0  0
  132.2660  118.9060   60.4370 C   0  0  0  0  0  0  0  0  0  0  0  0
  132.2870  121.9470   60.8200 C   0  0  0  0  0  0  0  0  0  0  0  0
  132.5460  123.2640   61.2290 C   0  0  0  0  0  0  0  0  0  0  0  0
  133.2360  124.2150   60.2450 C   0  0  0  0  0  0  0  0  0  0  0  0
  133.5660  123.6280   59.0930 F   0  0  0  0  0  0  0  0  0  0  0  0
  132.4220  125.2320   59.9550 F   0  0  0  0  0  0  0  0  0  0  0  0
  134.3570  124.6900   60.7870 F   0  0  0  0  0  0  0  0  0  0  0  0
  132.1440  123.6290   62.5460 C   0  0  0  0  0  0  0  0  0  0  0  0
  132.2330  124.8580   63.2960 C   0  0  0  0  0  0  0  0  0  0  0  0
  132.7900  126.0010   62.7840 N   0  0  0  0  0  0  0  0  0  0  0  0
  129.1730  128.2730   66.4440 N   0  0  0  0  0  0  0  0  0  0  0  0
  1  2  1  0
  2  3  2  0
  3  4  1  0
  4  5  2  0
  5  6  1  0
  6  7  1  0
  7  8  1  0
  8  9  2  0
  8 10  1  0
 10 11  1  0
 11 12  1  0
 12 13  2  0
 13 14  1  0
 14 15  1  0
 15 16  2  0
 16 17  1  0
 17 18  2  0
 18 19  1  0
 19 20  2  0
 14 21  2  0
 21 22  1  0
 22 23  1  0
 23 24  1  0
 23 25  1  0
 23 26  1  0
 22 27  2  0
 27 28  1  0
 28 29  1  0
  6 30  2  0
 30  2  1  0
 28 10  2  0
 27 12  1  0
 20 15  1  0
M  END
>  <Binding energies>  (33) 
[-7.99]

>  <Ligand effiencies>  (33) 
[-0.24212121212121213]

>  <Interactions>  (33) 
["H-A:ARG:545:NE:4923, V-A:HIS:383:CE1:3393, V-B:TYR:539:CE2:9847, V-A:LEU:475:CD2:4258, V-A:ILE:369:CG2:3236, V-B:TYR:539:CB:9842, V-A:ASP:366:CG:3212, V-B:TYR:539:CD2:9845, V-B:ALA:541:CB:9863, V-A:ARG:545:CZ:4925, H-A:TYR:484:OH:4347, V-A:ILE:369:CD1:3238, V-B:GLU:543:CD:9879, V-A:HIS:456:CE1:4069, H-A:ASP:366:OD2:3214, H-A:ASP:366:OD1:3213, V-B:TYR:539:CZ:9848, V-A:ASP:366:CB:3211, V-A:ILE:369:CB:3235, V-A:ASP:366:CA:3209, V-A:TYR:484:CE2:4345, V-A:TYR:484:CZ:4346, H-B:GLU:543:OE2:9881, V-B:TYR:539:C:9838, V-B:HIS:456:CE1:9040, V-A:GLU:543:CB:4905, V-A:GLU:543:CD:4907, V-A:GLU:543:CG:4906, V-B:TYR:484:CE2:9316, V-A:PRO:482:CB:4325, V-A:PRO:482:CG:4326, V-B:TYR:484:CZ:9317, V-B:VAL:344:CG1:7971, V-A:ILE:369:CG1:3237"]

$$$$
4cf_Grossjean_2025
     RDKit          3D

 29 32  0  0  0  0  0  0  0  0999 V2000
  132.7400  126.0320   62.7810 N   0  0  0  0  0  0  0  0  0  0  0  0
  132.1830  124.8880   63.2950 C   0  0  0  0  0  0  0  0  0  0  0  0
  131.6440  124.8090   64.5890 C   0  0  0  0  0  0  0  0  0  0  0  0
  131.5930  125.8470   65.6230 C   0  0  0  0  0  0  0  0  0  0  0  0
  132.6210  126.2090   66.1980 O   0  0  0  0  0  0  0  0  0  0  0  0
  130.3640  126.3600   65.8710 N   0  0  0  0  0  0  0  0  0  0  0  0
  129.9660  127.3190   66.8220 C   0  0  0  0  0  0  0  0  0  0  0  0
  129.0350  128.3510   66.6000 C   0  0  0  0  0  0  0  0  0  0  0  0
  128.7400  129.2480   67.6290 C   0  0  0  0  0  0  0  0  0  0  0  0
  129.3850  129.0930   68.8570 C   0  0  0  0  0  0  0  0  0  0  0  0
  130.2910  128.1110   69.0940 N   0  0  0  0  0  0  0  0  0  0  0  0
  130.5680  127.2480   68.0830 C   0  0  0  0  0  0  0  0  0  0  0  0
  131.0090  123.1980   64.9160 S   0  0  0  0  0  0  0  0  0  0  0  0
  131.4760  122.6420   63.3260 C   0  0  0  0  0  0  0  0  0  0  0  0
  131.2520  121.3900   62.9340 N   0  0  0  0  0  0  0  0  0  0  0  0
  131.6660  121.0470   61.6860 C   0  0  0  0  0  0  0  0  0  0  0  0
  131.4070  119.6270   61.2740 C   0  0  0  0  0  0  0  0  0  0  0  0
  132.3480  118.9180   60.5120 C   0  0  0  0  0  0  0  0  0  0  0  0
  132.1160  117.6000   60.1260 C   0  0  0  0  0  0  0  0  0  0  0  0
  130.9350  116.9700   60.5030 C   0  0  0  0  0  0  0  0  0  0  0  0
  129.9860  117.6470   61.2620 C   0  0  0  0  0  0  0  0  0  0  0  0
  130.2230  118.9650   61.6440 C   0  0  0  0  0  0  0  0  0  0  0  0
  132.2790  121.9670   60.8310 C   0  0  0  0  0  0  0  0  0  0  0  0
  132.5150  123.2910   61.2330 C   0  0  0  0  0  0  0  0  0  0  0  0
  133.1960  124.2470   60.2470 C   0  0  0  0  0  0  0  0  0  0  0  0
  133.4780  123.6770   59.0730 F   0  0  0  0  0  0  0  0  0  0  0  0
  132.3990  125.2870   60.0030 F   0  0  0  0  0  0  0  0  0  0  0  0
  134.3460  124.6840   60.7620 F   0  0  0  0  0  0  0  0  0  0  0  0
  132.1020  123.6580   62.5460 C   0  0  0  0  0  0  0  0  0  0  0  0
  1  2  1  0
  2  3  2  0
  3  4  1  0
  4  5  2  0
  4  6  1  0
  6  7  1  0
  7  8  2  0
  8  9  1  0
  9 10  2  0
 10 11  1  0
 11 12  2  0
  3 13  1  0
 13 14  1  0
 14 15  2  0
 15 16  1  0
 16 17  1  0
 17 18  2  0
 18 19  1  0
 19 20  2  0
 20 21  1  0
 21 22  2  0
 16 23  2  0
 23 24  1  0
 24 25  1  0
 25 26  1  0
 25 27  1  0
 25 28  1  0
 24 29  2  0
 29  2  1  0
 12  7  1  0
 29 14  1  0
 22 17  1  0
M  END
>  <Binding energies>  (34) 
[-7.72]

>  <Ligand effiencies>  (34) 
[-0.24125]

>  <Interactions>  (34) 
["H-A:ARG:545:NE:4923, V-A:HIS:383:CE1:3393, V-B:TYR:539:CE2:9847, V-A:LEU:475:CD2:4258, V-A:ILE:369:CG2:3236, V-B:TYR:539:CB:9842, V-A:ASP:366:CG:3212, V-B:TYR:539:CD2:9845, V-B:ALA:541:CB:9863, V-A:ARG:545:CZ:4925, H-A:TYR:484:OH:4347, V-A:ILE:369:CD1:3238, V-B:GLU:543:CD:9879, V-A:HIS:456:CE1:4069, H-A:ASP:366:OD2:3214, H-A:ASP:366:OD1:3213, V-B:TYR:539:CZ:9848, V-A:ASP:366:CB:3211, V-A:ILE:369:CB:3235, V-A:ASP:366:CA:3209, V-A:TYR:484:CE2:4345, V-A:TYR:484:CZ:4346, H-B:GLU:543:OE2:9881, V-B:TYR:539:C:9838, V-B:HIS:456:CE1:9040, V-A:GLU:543:CB:4905, V-A:GLU:543:CD:4907, V-A:GLU:543:CG:4906, V-A:PRO:482:CB:4325, V-A:PRO:482:CG:4326, V-A:ILE:369:CG1:3237"]

$$$$
4ci_Grossjean_2025
     RDKit          3D

 28 31  0  0  0  0  0  0  0  0999 V2000
  132.8610  125.9570   62.7720 N   0  0  0  0  0  0  0  0  0  0  0  0
  132.3490  124.7960   63.2920 C   0  0  0  0  0  0  0  0  0  0  0  0
  131.9130  124.6750   64.6210 C   0  0  0  0  0  0  0  0  0  0  0  0
  131.8960  125.6940   65.6730 C   0  0  0  0  0  0  0  0  0  0  0  0
  132.9460  126.0790   66.1930 O   0  0  0  0  0  0  0  0  0  0  0  0
  130.6680  126.1530   66.0230 N   0  0  0  0  0  0  0  0  0  0  0  0
  130.3640  127.1080   66.9840 C   0  0  0  0  0  0  0  0  0  0  0  0
  129.3550  128.0570   66.8240 C   0  0  0  0  0  0  0  0  0  0  0  0
  129.3770  128.8020   67.9790 C   0  0  0  0  0  0  0  0  0  0  0  0
  130.3480  128.3260   68.7950 O   0  0  0  0  0  0  0  0  0  0  0  0
  130.9670  127.2530   68.1530 N   0  0  0  0  0  0  0  0  0  0  0  0
  131.3070  123.0530   64.9460 S   0  0  0  0  0  0  0  0  0  0  0  0
  131.6490  122.5470   63.3080 C   0  0  0  0  0  0  0  0  0  0  0  0
  131.3900  121.3090   62.8940 N   0  0  0  0  0  0  0  0  0  0  0  0
  131.6870  121.0100   61.6030 C   0  0  0  0  0  0  0  0  0  0  0  0
  131.3870  119.6050   61.1660 C   0  0  0  0  0  0  0  0  0  0  0  0
  132.2330  118.9330   60.2680 C   0  0  0  0  0  0  0  0  0  0  0  0
  131.9610  117.6300   59.8600 C   0  0  0  0  0  0  0  0  0  0  0  0
  130.8330  116.9770   60.3460 C   0  0  0  0  0  0  0  0  0  0  0  0
  129.9760  117.6180   61.2320 C   0  0  0  0  0  0  0  0  0  0  0  0
  130.2510  118.9220   61.6360 C   0  0  0  0  0  0  0  0  0  0  0  0
  132.2590  121.9510   60.7400 C   0  0  0  0  0  0  0  0  0  0  0  0
  132.5370  123.2600   61.1670 C   0  0  0  0  0  0  0  0  0  0  0  0
  133.1640  124.2390   60.1680 C   0  0  0  0  0  0  0  0  0  0  0  0
  134.3630  124.6830   60.5520 F   0  0  0  0  0  0  0  0  0  0  0  0
  133.3200  123.6390   58.9880 F   0  0  0  0  0  0  0  0  0  0  0  0
  132.3730  125.3020   60.0200 F   0  0  0  0  0  0  0  0  0  0  0  0
  132.2170  123.5870   62.5150 C   0  0  0  0  0  0  0  0  0  0  0  0
  1  2  1  0
  2  3  2  0
  3  4  1  0
  4  5  2  0
  4  6  1  0
  6  7  1  0
  7  8  1  0
  8  9  2  0
  9 10  1  0
 10 11  1  0
  3 12  1  0
 12 13  1  0
 13 14  2  0
 14 15  1  0
 15 16  1  0
 16 17  2  0
 17 18  1  0
 18 19  2  0
 19 20  1  0
 20 21  2  0
 15 22  2  0
 22 23  1  0
 23 24  1  0
 24 25  1  0
 24 26  1  0
 24 27  1  0
 23 28  2  0
 28  2  1  0
 11  7  2  0
 28 13  1  0
 21 16  1  0
M  END
>  <Binding energies>  (35) 
[-7.47]

>  <Ligand effiencies>  (35) 
[-0.24096774193548387]

>  <Interactions>  (35) 
["H-A:ARG:545:NE:4923, V-A:HIS:383:CE1:3393, V-B:TYR:539:CE2:9847, V-A:LEU:475:CD2:4258, V-A:ILE:369:CG2:3236, V-B:TYR:539:CB:9842, V-A:ASP:366:CG:3212, V-B:TYR:539:CD2:9845, V-B:ALA:541:CB:9863, V-A:ARG:545:CZ:4925, H-A:TYR:484:OH:4347, V-A:ILE:369:CD1:3238, V-B:GLU:543:CD:9879, H-A:ASP:366:OD2:3214, H-A:ASP:366:OD1:3213, V-B:TYR:539:CZ:9848, V-A:ASP:366:CB:3211, V-A:ILE:369:CB:3235, V-A:ASP:366:CA:3209, V-A:TYR:484:CE2:4345, V-A:TYR:484:CZ:4346, H-B:GLU:543:OE2:9881, V-B:TYR:539:C:9838, V-A:GLU:543:CB:4905, V-A:GLU:543:CD:4907, V-A:GLU:543:CG:4906, V-A:PRO:482:CB:4325, V-A:PRO:482:CG:4326, V-B:VAL:344:CG1:7971, V-A:ILE:369:CG1:3237"]

$$$$
8a_Ghoteimi_2023
     RDKit          3D

 40 44  0  0  0  0  0  0  0  0999 V2000
  133.2260  132.0620   57.4310 C   0  0  0  0  0  0  0  0  0  0  0  0
  132.4450  132.9470   56.4560 C   0  0  0  0  0  0  0  0  0  0  0  0
  131.6660  133.8840   57.1880 O   0  0  0  0  0  0  0  0  0  0  0  0
  130.3310  133.7010   57.3660 C   0  0  0  0  0  0  0  0  0  0  0  0
  129.4790  134.0930   56.5630 O   0  0  0  0  0  0  0  0  0  0  0  0
  129.9960  132.9780   58.6380 C   0  0  0  0  0  0  0  0  0  0  0  0
  131.0340  132.5600   59.4810 C   0  0  0  0  0  0  0  0  0  0  0  0
  130.7550  131.8870   60.6670 C   0  0  0  0  0  0  0  0  0  0  0  0
  129.4370  131.6160   61.0360 C   0  0  0  0  0  0  0  0  0  0  0  0
  129.2760  130.9250   62.2530 N   0  0  0  0  0  0  0  0  0  0  0  0
  128.1580  130.6730   62.9780 C   0  0  0  0  0  0  0  0  0  0  0  0
  127.0280  131.0400   62.6590 O   0  0  0  0  0  0  0  0  0  0  0  0
  128.3710  129.9050   64.2080 C   0  0  0  0  0  0  0  0  0  0  0  0
  127.3770  130.2080   65.6320 S   0  0  0  0  0  0  0  0  0  0  0  0
  128.2320  128.9880   66.5470 C   0  0  0  0  0  0  0  0  0  0  0  0
  127.9360  128.7330   67.8210 N   0  0  0  0  0  0  0  0  0  0  0  0
  128.6650  127.7690   68.4430 C   0  0  0  0  0  0  0  0  0  0  0  0
  128.3300  127.5140   69.8770 C   0  0  0  0  0  0  0  0  0  0  0  0
  127.1610  126.8270   70.2360 C   0  0  0  0  0  0  0  0  0  0  0  0
  126.8490  126.6020   71.5740 C   0  0  0  0  0  0  0  0  0  0  0  0
  127.6940  127.0540   72.5840 C   0  0  0  0  0  0  0  0  0  0  0  0
  127.3030  126.7880   73.8830 O   0  0  0  0  0  0  0  0  0  0  0  0
  126.3780  127.6620   74.5210 C   0  0  0  0  0  0  0  0  0  0  0  0
  128.8680  127.7370   72.2360 C   0  0  0  0  0  0  0  0  0  0  0  0
  129.1780  127.9630   70.8970 C   0  0  0  0  0  0  0  0  0  0  0  0
  129.6770  127.0620   67.7900 C   0  0  0  0  0  0  0  0  0  0  0  0
  129.9800  127.3150   66.4480 C   0  0  0  0  0  0  0  0  0  0  0  0
  131.0440  126.5120   65.7930 C   0  0  0  0  0  0  0  0  0  0  0  0
  130.7450  125.7230   64.6800 C   0  0  0  0  0  0  0  0  0  0  0  0
  131.7430  124.9850   64.0510 C   0  0  0  0  0  0  0  0  0  0  0  0
  133.0570  125.0260   64.5180 C   0  0  0  0  0  0  0  0  0  0  0  0
  133.9800  124.2620   63.8310 O   0  0  0  0  0  0  0  0  0  0  0  0
  134.0140  124.3250   62.4100 C   0  0  0  0  0  0  0  0  0  0  0  0
  133.3620  125.8250   65.6310 C   0  0  0  0  0  0  0  0  0  0  0  0
  132.3610  126.5640   66.2580 C   0  0  0  0  0  0  0  0  0  0  0  0
  129.2440  128.3360   65.7830 C   0  0  0  0  0  0  0  0  0  0  0  0
  129.3140  128.8930   64.4550 C   0  0  0  0  0  0  0  0  0  0  0  0
  130.2360  128.4760   63.5280 N   0  0  0  0  0  0  0  0  0  0  0  0
  128.3910  132.0340   60.2000 C   0  0  0  0  0  0  0  0  0  0  0  0
  128.6710  132.7080   59.0130 C   0  0  0  0  0  0  0  0  0  0  0  0
  1  2  1  0
  2  3  1  0
  3  4  1  0
  4  5  2  0
  4  6  1  0
  6  7  2  0
  7  8  1  0
  8  9  2  0
  9 10  1  0
 10 11  1  0
 11 12  2  0
 11 13  1  0
 13 14  1  0
 14 15  1  0
 15 16  2  0
 16 17  1  0
 17 18  1  0
 18 19  2  0
 19 20  1  0
 20 21  2  0
 21 22  1  0
 22 23  1  0
 21 24  1  0
 24 25  2  0
 17 26  2  0
 26 27  1  0
 27 28  1  0
 28 29  2  0
 29 30  1  0
 30 31  2  0
 31 32  1  0
 32 33  1  0
 31 34  1  0
 34 35  2  0
 27 36  2  0
 36 37  1  0
 37 38  1  0
  9 39  1  0
 39 40  2  0
 40  6  1  0
 37 13  2  0
 36 15  1  0
 25 18  1  0
 35 28  1  0
M  END
>  <Binding energies>  (36) 
[-8.91]

>  <Ligand effiencies>  (36) 
[-0.2072093023255814]

>  <Interactions>  (36) 
["H-A:GLY:454:N:4049, V-A:ARG:545:CD:4922, V-A:ASP:366:CG:3212, V-A:ARG:545:CZ:4925, V-A:ILE:369:CD1:3238, V-B:GLU:543:CD:9879, V-A:HIS:456:CE1:4069, H-A:ASP:366:OD2:3214, V-B:HIS:456:CE1:9040, V-B:GLU:543:CB:9877, V-B:GLY:544:C:9883, V-A:PRO:540:CB:4884, V-A:PRO:540:CA:4882, V-B:GLU:543:C:9873, V-A:GLU:543:CD:4907, H-A:GLU:543:OE2:4909, V-A:GLU:543:CG:4906, V-A:PRO:540:N:4883, V-A:TYR:531:CE2:4792, V-A:TYR:539:C:4866, V-A:TYR:531:CZ:4793, V-A:LEU:363:CD1:3188, H-A:GLU:543:OE1:4908, H-B:LYS:547:NZ:9922, V-A:LEU:363:CA:3184, V-A:TYR:539:CD1:4872, V-A:TYR:539:CE1:4874, V-B:LYS:547:CE:9921, V-B:GLY:544:CA:9885, V-B:HIS:456:CD2:9038, H-A:TYR:539:N:4869, V-A:PRO:540:CD:4886, V-A:TYR:539:CA:4868, V-B:LYS:547:CD:9920, V-B:HIS:456:CG:9036"]

$$$$
8c_Ghoteimi_2023
     RDKit          3D

 34 38  0  0  0  0  0  0  0  0999 V2000
  129.4880  127.7050   75.5940 C   0  0  0  0  0  0  0  0  0  0  0  0
  128.7340  126.8320   74.7610 O   0  0  0  0  0  0  0  0  0  0  0  0
  128.8270  126.9640   73.3880 C   0  0  0  0  0  0  0  0  0  0  0  0
  129.4970  128.0900   72.9140 C   0  0  0  0  0  0  0  0  0  0  0  0
  129.6360  128.3060   71.5460 C   0  0  0  0  0  0  0  0  0  0  0  0
  129.1070  127.4010   70.6160 C   0  0  0  0  0  0  0  0  0  0  0  0
  129.2500  127.6300   69.1440 C   0  0  0  0  0  0  0  0  0  0  0  0
  130.1000  126.8480   68.3550 C   0  0  0  0  0  0  0  0  0  0  0  0
  130.2130  127.0820   66.9810 C   0  0  0  0  0  0  0  0  0  0  0  0
  131.1290  126.2420   66.1750 C   0  0  0  0  0  0  0  0  0  0  0  0
  130.6170  125.3540   65.2260 C   0  0  0  0  0  0  0  0  0  0  0  0
  131.4790  124.5730   64.4630 C   0  0  0  0  0  0  0  0  0  0  0  0
  132.8610  124.6630   64.6380 C   0  0  0  0  0  0  0  0  0  0  0  0
  133.6400  123.8510   63.8350 O   0  0  0  0  0  0  0  0  0  0  0  0
  133.9450  124.2720   62.5110 C   0  0  0  0  0  0  0  0  0  0  0  0
  133.3730  125.5530   65.5960 C   0  0  0  0  0  0  0  0  0  0  0  0
  132.5100  126.3350   66.3580 C   0  0  0  0  0  0  0  0  0  0  0  0
  129.4370  128.1280   66.4150 C   0  0  0  0  0  0  0  0  0  0  0  0
  129.3060  128.6290   65.0720 C   0  0  0  0  0  0  0  0  0  0  0  0
  130.0040  128.0960   64.0170 N   0  0  0  0  0  0  0  0  0  0  0  0
  128.4080  129.7010   64.9500 C   0  0  0  0  0  0  0  0  0  0  0  0
  128.0330  130.4440   63.7440 C   0  0  0  0  0  0  0  0  0  0  0  0
  126.8740  130.4210   63.3250 O   0  0  0  0  0  0  0  0  0  0  0  0
  129.0380  131.1330   63.1500 N   0  0  0  0  0  0  0  0  0  0  0  0
  128.9520  131.9140   62.0060 C   0  0  0  0  0  0  0  0  0  0  0  0
  127.9830  132.7340   61.6590 N   0  0  0  0  0  0  0  0  0  0  0  0
  128.2330  133.3180   60.5040 C   0  0  0  0  0  0  0  0  0  0  0  0
  129.4300  132.9720   59.8850 C   0  0  0  0  0  0  0  0  0  0  0  0
  130.2660  131.8160   60.8790 S   0  0  0  0  0  0  0  0  0  0  0  0
  127.6940  130.1150   66.5090 S   0  0  0  0  0  0  0  0  0  0  0  0
  128.6020  128.8550   67.3120 C   0  0  0  0  0  0  0  0  0  0  0  0
  128.4950  128.6340   68.6220 N   0  0  0  0  0  0  0  0  0  0  0  0
  128.4360  126.2690   71.1000 C   0  0  0  0  0  0  0  0  0  0  0  0
  128.2950  126.0500   72.4670 C   0  0  0  0  0  0  0  0  0  0  0  0
  1  2  1  0
  2  3  1  0
  3  4  2  0
  4  5  1  0
  5  6  2  0
  6  7  1  0
  7  8  2  0
  8  9  1  0
  9 10  1  0
 10 11  2  0
 11 12  1  0
 12 13  2  0
 13 14  1  0
 14 15  1  0
 13 16  1  0
 16 17  2  0
  9 18  2  0
 18 19  1  0
 19 20  1  0
 19 21  2  0
 21 22  1  0
 22 23  2  0
 22 24  1  0
 24 25  1  0
 25 26  2  0
 26 27  1  0
 27 28  2  0
 28 29  1  0
 21 30  1  0
 30 31  1  0
 31 32  2  0
  6 33  1  0
 33 34  2  0
 34  3  1  0
 32  7  1  0
 17 10  1  0
 31 18  1  0
 29 25  1  0
M  END
>  <Binding energies>  (37) 
[-7.08]

>  <Ligand effiencies>  (37) 
[-0.19135135135135134]

>  <Interactions>  (37) 
["H-A:GLY:454:N:4049, V-A:ASP:366:CG:3212, V-A:ARG:545:CZ:4925, V-A:ILE:369:CD1:3238, V-A:GLY:454:CA:4048, V-A:HIS:456:CE1:4069, H-B:GLU:543:OE2:9881, V-B:HIS:456:CE1:9040, V-A:GLU:543:CB:4905, V-A:PRO:540:CA:4882, V-B:GLU:543:C:9873, V-A:GLU:543:CD:4907, H-A:GLU:543:OE2:4909, V-A:GLU:543:CG:4906, V-A:PRO:540:N:4883, V-A:TYR:539:C:4866, H-A:GLU:543:OE1:4908, H-B:LYS:547:NZ:9922, V-A:TYR:539:CD1:4872"]

$$$$
8d_Ghoteimi_2023
     RDKit          3D

 30 33  0  0  0  0  0  0  0  0999 V2000
  126.8860  128.2960   62.6390 C   0  0  0  0  0  0  0  0  0  0  0  0
  127.6370  129.4650   62.9350 O   0  0  0  0  0  0  0  0  0  0  0  0
  127.4210  130.1600   64.0810 C   0  0  0  0  0  0  0  0  0  0  0  0
  126.8410  131.2480   64.1290 O   0  0  0  0  0  0  0  0  0  0  0  0
  127.9540  129.4760   65.2790 C   0  0  0  0  0  0  0  0  0  0  0  0
  127.2340  129.7820   66.8610 S   0  0  0  0  0  0  0  0  0  0  0  0
  128.3570  128.6840   67.6280 C   0  0  0  0  0  0  0  0  0  0  0  0
  128.3310  128.4540   68.9420 N   0  0  0  0  0  0  0  0  0  0  0  0
  129.2480  127.5800   69.4360 C   0  0  0  0  0  0  0  0  0  0  0  0
  129.2000  127.3440   70.9120 C   0  0  0  0  0  0  0  0  0  0  0  0
  129.7870  128.2470   71.8100 C   0  0  0  0  0  0  0  0  0  0  0  0
  129.7400  128.0230   73.1820 C   0  0  0  0  0  0  0  0  0  0  0  0
  129.1070  126.8910   73.6940 C   0  0  0  0  0  0  0  0  0  0  0  0
  129.1080  126.7500   75.0680 O   0  0  0  0  0  0  0  0  0  0  0  0
  130.3180  126.9670   75.7870 C   0  0  0  0  0  0  0  0  0  0  0  0
  128.5150  125.9820   72.8060 C   0  0  0  0  0  0  0  0  0  0  0  0
  128.5640  126.2110   71.4330 C   0  0  0  0  0  0  0  0  0  0  0  0
  130.1900  126.9460   68.6200 C   0  0  0  0  0  0  0  0  0  0  0  0
  130.2150  127.1850   67.2420 C   0  0  0  0  0  0  0  0  0  0  0  0
  131.2200  126.4910   66.4030 C   0  0  0  0  0  0  0  0  0  0  0  0
  130.8140  125.7470   65.2930 C   0  0  0  0  0  0  0  0  0  0  0  0
  131.7570  125.0880   64.5090 C   0  0  0  0  0  0  0  0  0  0  0  0
  133.1160  125.1660   64.8190 C   0  0  0  0  0  0  0  0  0  0  0  0
  133.9780  124.4800   63.9870 O   0  0  0  0  0  0  0  0  0  0  0  0
  133.7530  124.5010   62.5820 C   0  0  0  0  0  0  0  0  0  0  0  0
  133.5210  125.9190   65.9340 C   0  0  0  0  0  0  0  0  0  0  0  0
  132.5770  126.5760   66.7170 C   0  0  0  0  0  0  0  0  0  0  0  0
  129.2640  128.0920   66.7040 C   0  0  0  0  0  0  0  0  0  0  0  0
  129.0110  128.5630   65.3700 C   0  0  0  0  0  0  0  0  0  0  0  0
  129.7480  128.1530   64.2890 N   0  0  0  0  0  0  0  0  0  0  0  0
  1  2  1  0
  2  3  1  0
  3  4  2  0
  3  5  1  0
  5  6  1  0
  6  7  1  0
  7  8  2  0
  8  9  1  0
  9 10  1  0
 10 11  2  0
 11 12  1  0
 12 13  2  0
 13 14  1  0
 14 15  1  0
 13 16  1  0
 16 17  2  0
  9 18  2  0
 18 19  1  0
 19 20  1  0
 20 21  2  0
 21 22  1  0
 22 23  2  0
 23 24  1  0
 24 25  1  0
 23 26  1  0
 26 27  2  0
 19 28  2  0
 28 29  1  0
 29 30  1  0
 29  5  2  0
 28  7  1  0
 17 10  1  0
 27 20  1  0
M  END
>  <Binding energies>  (38) 
[-5.83]

>  <Ligand effiencies>  (38) 
[-0.1821875]

>  <Interactions>  (38) 
["H-A:GLY:454:N:4049, V-A:ARG:545:CD:4922, V-A:ASP:366:CG:3212, V-A:ARG:545:CG:4921, V-A:ARG:545:CZ:4925, V-A:ILE:369:CD1:3238, V-B:GLU:543:CD:9879, V-A:HIS:456:CE1:4069, V-B:HIS:456:CE1:9040, V-A:GLU:543:CD:4907, H-A:GLU:543:OE2:4909, V-A:GLU:543:CG:4906, H-A:GLU:543:OE1:4908, H-B:LYS:547:NZ:9922, V-B:TYR:484:CZ:9317"]

$$$$
9a_Ghoteimi_2023
     RDKit          3D

 48 54  0  0  0  0  0  0  0  0999 V2000
  132.4550  120.5410   73.3760 C   0  0  0  0  0  0  0  0  0  0  0  0
  131.9270  121.9110   73.8130 C   0  0  0  0  0  0  0  0  0  0  0  0
  130.7460  121.7400   74.5860 O   0  0  0  0  0  0  0  0  0  0  0  0
  129.6300  122.4700   74.3330 C   0  0  0  0  0  0  0  0  0  0  0  0
  128.6750  122.5470   75.1130 O   0  0  0  0  0  0  0  0  0  0  0  0
  129.6670  123.1710   73.0060 C   0  0  0  0  0  0  0  0  0  0  0  0
  129.1230  122.5380   71.8810 C   0  0  0  0  0  0  0  0  0  0  0  0
  129.1440  123.1610   70.6370 C   0  0  0  0  0  0  0  0  0  0  0  0
  129.7070  124.4290   70.4890 C   0  0  0  0  0  0  0  0  0  0  0  0
  129.6730  124.9610   69.1860 N   0  0  0  0  0  0  0  0  0  0  0  0
  128.7940  125.8190   68.6100 C   0  0  0  0  0  0  0  0  0  0  0  0
  127.8180  126.3000   69.1860 O   0  0  0  0  0  0  0  0  0  0  0  0
  129.0800  126.1630   67.2140 C   0  0  0  0  0  0  0  0  0  0  0  0
  128.9340  127.8320   66.6610 S   0  0  0  0  0  0  0  0  0  0  0  0
  129.4230  127.3870   65.0430 C   0  0  0  0  0  0  0  0  0  0  0  0
  129.5370  128.2930   64.0730 N   0  0  0  0  0  0  0  0  0  0  0  0
  129.9360  127.8440   62.8530 C   0  0  0  0  0  0  0  0  0  0  0  0
  130.0680  128.8800   61.7840 C   0  0  0  0  0  0  0  0  0  0  0  0
  129.0210  129.7720   61.5250 C   0  0  0  0  0  0  0  0  0  0  0  0
  129.1360  130.7410   60.5310 C   0  0  0  0  0  0  0  0  0  0  0  0
  130.3080  130.8620   59.7680 C   0  0  0  0  0  0  0  0  0  0  0  0
  130.4310  131.8170   58.7540 N   0  0  0  0  0  0  0  0  0  0  0  0
  130.0890  133.2350   58.9840 C   0  0  0  0  0  0  0  0  0  0  0  0
  129.9370  134.0580   57.6870 C   0  0  0  0  0  0  0  0  0  0  0  0
  131.1070  133.9380   56.8950 O   0  0  0  0  0  0  0  0  0  0  0  0
  131.3520  132.5890   56.5290 C   0  0  0  0  0  0  0  0  0  0  0  0
  131.5510  131.7280   57.7940 C   0  0  0  0  0  0  0  0  0  0  0  0
  131.3480  129.9550   60.0220 C   0  0  0  0  0  0  0  0  0  0  0  0
  131.2310  128.9860   61.0130 C   0  0  0  0  0  0  0  0  0  0  0  0
  130.1900  126.4940   62.6020 C   0  0  0  0  0  0  0  0  0  0  0  0
  130.0520  125.5360   63.6130 C   0  0  0  0  0  0  0  0  0  0  0  0
  130.2990  124.1100   63.2820 C   0  0  0  0  0  0  0  0  0  0  0  0
  129.4590  123.1090   63.7760 C   0  0  0  0  0  0  0  0  0  0  0  0
  129.6840  121.7740   63.4540 C   0  0  0  0  0  0  0  0  0  0  0  0
  130.7470  121.4050   62.6130 C   0  0  0  0  0  0  0  0  0  0  0  0
  130.9990  120.0700   62.2850 N   0  0  0  0  0  0  0  0  0  0  0  0
  131.6530  119.7570   60.9990 C   0  0  0  0  0  0  0  0  0  0  0  0
  132.2100  118.3200   60.9310 C   0  0  0  0  0  0  0  0  0  0  0  0
  131.1810  117.3850   61.2160 O   0  0  0  0  0  0  0  0  0  0  0  0
  130.6380  117.5830   62.5120 C   0  0  0  0  0  0  0  0  0  0  0  0
  130.0390  119.0010   62.6220 C   0  0  0  0  0  0  0  0  0  0  0  0
  131.5820  122.4180   62.1210 C   0  0  0  0  0  0  0  0  0  0  0  0
  131.3590  123.7520   62.4470 C   0  0  0  0  0  0  0  0  0  0  0  0
  129.6700  125.9890   64.9080 C   0  0  0  0  0  0  0  0  0  0  0  0
  129.4890  125.3180   66.1710 C   0  0  0  0  0  0  0  0  0  0  0  0
  129.7150  123.9750   66.3320 N   0  0  0  0  0  0  0  0  0  0  0  0
  130.2510  125.0730   71.6110 C   0  0  0  0  0  0  0  0  0  0  0  0
  130.2300  124.4480   72.8550 C   0  0  0  0  0  0  0  0  0  0  0  0
  1  2  1  0
  2  3  1  0
  3  4  1  0
  4  5  2  0
  4  6  1  0
  6  7  2  0
  7  8  1  0
  8  9  2  0
  9 10  1  0
 10 11  1  0
 11 12  2  0
 11 13  1  0
 13 14  1  0
 14 15  1  0
 15 16  2  0
 16 17  1  0
 17 18  1  0
 18 19  2  0
 19 20  1  0
 20 21  2  0
 21 22  1  0
 22 23  1  0
 23 24  1  0
 24 25  1  0
 25 26  1  0
 26 27  1  0
 21 28  1  0
 28 29  2  0
 17 30  2  0
 30 31  1  0
 31 32  1  0
 32 33  2  0
 33 34  1  0
 34 35  2  0
 35 36  1  0
 36 37  1  0
 37 38  1  0
 38 39  1  0
 39 40  1  0
 40 41  1  0
 35 42  1  0
 42 43  2  0
 31 44  2  0
 44 45  1  0
 45 46  1  0
  9 47  1  0
 47 48  2  0
 48  6  1  0
 45 13  2  0
 44 15  1  0
 29 18  1  0
 43 32  1  0
 27 22  1  0
 41 36  1  0
M  END
>  <Binding energies>  (39) 
[158.28]

>  <Ligand effiencies>  (39) 
[3.103529411764706]

>  <Interactions>  (39) 
["V-B:TYR:539:CE2:9847, H-A:HIS:383:ND1:3390, V-A:LEU:475:CD2:4258, V-A:ASP:366:CG:3212, V-B:TYR:539:CD2:9845, V-B:ALA:541:CB:9863, H-A:TYR:484:OH:4347, V-B:GLU:543:CD:9879, V-A:SER:385:CB:3408, V-A:SER:385:CA:3406, V-B:GLU:543:CG:9878, V-A:HIS:456:CE1:4069, V-B:ALA:541:CA:9861, V-A:TYR:484:CE2:4345, V-A:TYR:484:CZ:4346, H-B:GLU:543:OE2:9881, V-B:GLU:543:CB:9877, V-A:PRO:540:CA:4882, V-B:GLU:543:C:9873, V-A:GLU:543:CD:4907, V-A:HIS:456:CD2:4067, V-A:TYR:484:CD2:4343, V-B:GLU:543:CA:9875, V-A:PRO:540:N:4883, V-A:TYR:531:CE2:4792, V-A:TYR:539:C:4866, V-A:TYR:531:CZ:4793, V-A:PRO:482:CB:4325, V-A:PRO:482:CG:4326, V-A:HIS:456:CB:4064, V-A:HIS:456:CG:4065, H-B:LYS:547:NZ:9922, V-A:LEU:475:CG:4256, V-A:TYR:539:CD1:4872, V-A:TYR:539:CE1:4874, V-A:TYR:484:CB:4340, H-A:HIS:456:NE2:4070, V-A:TYR:484:CG:4341, V-A:ASP:473:CB:4238, V-A:ASP:473:CG:4239, V-A:TYR:484:CD1:4342, H-A:TYR:539:N:4869, V-A:PRO:540:CD:4886, V-A:TYR:539:CA:4868, V-A:TYR:539:CG:4871, V-A:TYR:484:C:4336, V-A:TYR:484:CA:4338, V-A:TYR:539:CB:4870, V-A:ASP:473:CA:4236, V-A:ASP:473:C:4234"]

$$$$
9b_Ghoteimi_2023
     RDKit          3D

 42 48  0  0  0  0  0  0  0  0999 V2000
  131.3750  125.7520   61.4570 N   0  0  0  0  0  0  0  0  0  0  0  0
  131.4630  125.1670   62.6950 C   0  0  0  0  0  0  0  0  0  0  0  0
  131.9770  123.8780   62.9060 C   0  0  0  0  0  0  0  0  0  0  0  0
  132.5240  122.9400   61.9230 C   0  0  0  0  0  0  0  0  0  0  0  0
  133.0980  123.3510   60.9130 O   0  0  0  0  0  0  0  0  0  0  0  0
  132.3450  121.6260   62.2090 N   0  0  0  0  0  0  0  0  0  0  0  0
  132.7470  120.5320   61.4530 C   0  0  0  0  0  0  0  0  0  0  0  0
  131.9110  119.4530   61.1710 C   0  0  0  0  0  0  0  0  0  0  0  0
  132.6740  118.5990   60.4090 C   0  0  0  0  0  0  0  0  0  0  0  0
  133.9060  119.1370   60.2410 O   0  0  0  0  0  0  0  0  0  0  0  0
  133.9400  120.3620   60.9080 N   0  0  0  0  0  0  0  0  0  0  0  0
  131.9080  123.4370   64.6120 S   0  0  0  0  0  0  0  0  0  0  0  0
  131.1760  124.9680   65.0260 C   0  0  0  0  0  0  0  0  0  0  0  0
  130.8260  125.2590   66.2780 N   0  0  0  0  0  0  0  0  0  0  0  0
  130.2480  126.4710   66.4910 C   0  0  0  0  0  0  0  0  0  0  0  0
  129.8460  126.7630   67.9000 C   0  0  0  0  0  0  0  0  0  0  0  0
  130.0680  128.0230   68.4690 C   0  0  0  0  0  0  0  0  0  0  0  0
  129.7050  128.2860   69.7870 C   0  0  0  0  0  0  0  0  0  0  0  0
  129.1190  127.2940   70.5890 C   0  0  0  0  0  0  0  0  0  0  0  0
  128.7460  127.5430   71.9140 N   0  0  0  0  0  0  0  0  0  0  0  0
  129.7440  127.9140   72.9370 C   0  0  0  0  0  0  0  0  0  0  0  0
  129.1270  128.4830   74.2320 C   0  0  0  0  0  0  0  0  0  0  0  0
  128.1760  127.5720   74.7570 O   0  0  0  0  0  0  0  0  0  0  0  0
  127.1180  127.3400   73.8430 C   0  0  0  0  0  0  0  0  0  0  0  0
  127.6710  126.7390   72.5320 C   0  0  0  0  0  0  0  0  0  0  0  0
  128.8810  126.0400   70.0070 C   0  0  0  0  0  0  0  0  0  0  0  0
  129.2410  125.7790   68.6880 C   0  0  0  0  0  0  0  0  0  0  0  0
  130.0470  127.3930   65.4610 C   0  0  0  0  0  0  0  0  0  0  0  0
  130.4330  127.1000   64.1480 C   0  0  0  0  0  0  0  0  0  0  0  0
  130.2250  128.1260   63.0950 C   0  0  0  0  0  0  0  0  0  0  0  0
  128.9480  128.6300   62.8440 C   0  0  0  0  0  0  0  0  0  0  0  0
  128.7530  129.6060   61.8720 C   0  0  0  0  0  0  0  0  0  0  0  0
  129.8300  130.1050   61.1220 C   0  0  0  0  0  0  0  0  0  0  0  0
  129.6600  131.0950   60.1520 N   0  0  0  0  0  0  0  0  0  0  0  0
  129.2520  132.4510   60.5690 C   0  0  0  0  0  0  0  0  0  0  0  0
  128.7200  133.3120   59.4020 C   0  0  0  0  0  0  0  0  0  0  0  0
  129.6870  133.3740   58.3650 O   0  0  0  0  0  0  0  0  0  0  0  0
  129.9970  132.0850   57.8560 C   0  0  0  0  0  0  0  0  0  0  0  0
  130.5560  131.1920   58.9830 C   0  0  0  0  0  0  0  0  0  0  0  0
  131.1120  129.6040   61.3960 C   0  0  0  0  0  0  0  0  0  0  0  0
  131.3060  128.6270   62.3690 C   0  0  0  0  0  0  0  0  0  0  0  0
  131.0080  125.8230   63.8960 C   0  0  0  0  0  0  0  0  0  0  0  0
  1  2  1  0
  2  3  2  0
  3  4  1  0
  4  5  2  0
  4  6  1  0
  6  7  1  0
  7  8  1  0
  8  9  2  0
  9 10  1  0
 10 11  1  0
  3 12  1  0
 12 13  1  0
 13 14  2  0
 14 15  1  0
 15 16  1  0
 16 17  2  0
 17 18  1  0
 18 19  2  0
 19 20  1  0
 20 21  1  0
 21 22  1  0
 22 23  1  0
 23 24  1  0
 24 25  1  0
 19 26  1  0
 26 27  2  0
 15 28  2  0
 28 29  1  0
 29 30  1  0
 30 31  2  0
 31 32  1  0
 32 33  2  0
 33 34  1  0
 34 35  1  0
 35 36  1  0
 36 37  1  0
 37 38  1  0
 38 39  1  0
 33 40  1  0
 40 41  2  0
 29 42  2  0
 42  2  1  0
 11  7  2  0
 42 13  1  0
 27 16  1  0
 41 30  1  0
 25 20  1  0
 39 34  1  0
M  END
>  <Binding energies>  (40) 
[-8.03]

>  <Ligand effiencies>  (40) 
[-0.17844444444444443]

>  <Interactions>  (40) 
["V-A:LEU:475:CD2:4258, V-A:ASP:366:CG:3212, V-B:TYR:539:CD2:9845, H-A:TYR:484:OH:4347, V-B:GLU:543:CD:9879, V-A:SER:385:CB:3408, V-A:SER:385:CA:3406, V-B:GLU:543:CG:9878, V-A:HIS:456:CE1:4069, H-A:ASP:366:OD2:3214, V-A:TYR:484:CE2:4345, V-A:TYR:484:CZ:4346, V-B:HIS:456:CE1:9040, V-B:GLU:543:CB:9877, V-A:GLU:543:CB:4905, V-A:GLU:543:CD:4907, V-A:TYR:539:C:4866, H-B:LYS:547:NZ:9922, V-A:TYR:539:CD1:4872, V-A:TYR:539:CE1:4874, V-B:LYS:547:CE:9921, V-B:HIS:456:CD2:9038"]

$$$$
9c_Ghoteimi_2023
     RDKit          3D

 42 48  0  0  0  0  0  0  0  0999 V2000
  131.3550  125.7160   61.4950 N   0  0  0  0  0  0  0  0  0  0  0  0
  131.4400  125.1230   62.7290 C   0  0  0  0  0  0  0  0  0  0  0  0
  131.9440  123.8290   62.9320 C   0  0  0  0  0  0  0  0  0  0  0  0
  132.4780  122.8910   61.9400 C   0  0  0  0  0  0  0  0  0  0  0  0
  133.1740  123.2900   61.0050 O   0  0  0  0  0  0  0  0  0  0  0  0
  132.1460  121.5900   62.1320 N   0  0  0  0  0  0  0  0  0  0  0  0
  132.5050  120.5110   61.3370 C   0  0  0  0  0  0  0  0  0  0  0  0
  133.5980  120.3650   60.6180 N   0  0  0  0  0  0  0  0  0  0  0  0
  133.6070  119.2100   59.9800 C   0  0  0  0  0  0  0  0  0  0  0  0
  132.5000  118.3890   60.1770 C   0  0  0  0  0  0  0  0  0  0  0  0
  131.3940  119.1820   61.2580 S   0  0  0  0  0  0  0  0  0  0  0  0
  131.8760  123.3780   64.6350 S   0  0  0  0  0  0  0  0  0  0  0  0
  131.1580  124.9130   65.0600 C   0  0  0  0  0  0  0  0  0  0  0  0
  130.8150  125.2000   66.3150 N   0  0  0  0  0  0  0  0  0  0  0  0
  130.2480  126.4140   66.5360 C   0  0  0  0  0  0  0  0  0  0  0  0
  129.8530  126.7020   67.9490 C   0  0  0  0  0  0  0  0  0  0  0  0
  129.2650  125.7170   68.7520 C   0  0  0  0  0  0  0  0  0  0  0  0
  128.8910  125.9920   70.0630 C   0  0  0  0  0  0  0  0  0  0  0  0
  129.0800  127.2690   70.6180 C   0  0  0  0  0  0  0  0  0  0  0  0
  128.7150  127.5590   71.9370 N   0  0  0  0  0  0  0  0  0  0  0  0
  129.7160  127.9950   72.9330 C   0  0  0  0  0  0  0  0  0  0  0  0
  129.1000  128.6010   74.2120 C   0  0  0  0  0  0  0  0  0  0  0  0
  128.1790  127.6870   74.7850 O   0  0  0  0  0  0  0  0  0  0  0  0
  127.1170  127.3920   73.8930 C   0  0  0  0  0  0  0  0  0  0  0  0
  127.6700  126.7530   72.6010 C   0  0  0  0  0  0  0  0  0  0  0  0
  129.6860  128.2450   69.8150 C   0  0  0  0  0  0  0  0  0  0  0  0
  130.0640  127.9680   68.5040 C   0  0  0  0  0  0  0  0  0  0  0  0
  130.0520  127.3450   65.5130 C   0  0  0  0  0  0  0  0  0  0  0  0
  130.4310  127.0560   64.1980 C   0  0  0  0  0  0  0  0  0  0  0  0
  130.2310  128.0900   63.1520 C   0  0  0  0  0  0  0  0  0  0  0  0
  128.9670  128.6430   62.9400 C   0  0  0  0  0  0  0  0  0  0  0  0
  128.7790  129.6250   61.9710 C   0  0  0  0  0  0  0  0  0  0  0  0
  129.8500  130.0790   61.1860 C   0  0  0  0  0  0  0  0  0  0  0  0
  129.6870  131.0720   60.2160 N   0  0  0  0  0  0  0  0  0  0  0  0
  129.2300  132.4140   60.6290 C   0  0  0  0  0  0  0  0  0  0  0  0
  128.7230  133.2730   59.4510 C   0  0  0  0  0  0  0  0  0  0  0  0
  129.7270  133.3700   58.4520 O   0  0  0  0  0  0  0  0  0  0  0  0
  130.0840  132.0950   57.9430 C   0  0  0  0  0  0  0  0  0  0  0  0
  130.6220  131.2010   59.0820 C   0  0  0  0  0  0  0  0  0  0  0  0
  131.1200  129.5310   61.4220 C   0  0  0  0  0  0  0  0  0  0  0  0
  131.3080  128.5490   62.3910 C   0  0  0  0  0  0  0  0  0  0  0  0
  130.9950  125.7750   63.9350 C   0  0  0  0  0  0  0  0  0  0  0  0
  1  2  1  0
  2  3  2  0
  3  4  1  0
  4  5  2  0
  4  6  1  0
  6  7  1  0
  7  8  2  0
  8  9  1  0
  9 10  2  0
 10 11  1  0
  3 12  1  0
 12 13  1  0
 13 14  2  0
 14 15  1  0
 15 16  1  0
 16 17  2  0
 17 18  1  0
 18 19  2  0
 19 20  1  0
 20 21  1  0
 21 22  1  0
 22 23  1  0
 23 24  1  0
 24 25  1  0
 19 26  1  0
 26 27  2  0
 15 28  2  0
 28 29  1  0
 29 30  1  0
 30 31  2  0
 31 32  1  0
 32 33  2  0
 33 34  1  0
 34 35  1  0
 35 36  1  0
 36 37  1  0
 37 38  1  0
 38 39  1  0
 33 40  1  0
 40 41  2  0
 29 42  2  0
 42  2  1  0
 11  7  1  0
 42 13  1  0
 27 16  1  0
 41 30  1  0
 25 20  1  0
 39 34  1  0
M  END
>  <Binding energies>  (41) 
[-8.37]

>  <Ligand effiencies>  (41) 
[-0.18599999999999997]

>  <Interactions>  (41) 
["V-A:LEU:475:CD2:4258, V-A:ILE:369:CG2:3236, V-A:ASP:366:CG:3212, V-B:TYR:539:CD2:9845, H-A:TYR:484:OH:4347, V-B:GLU:543:CD:9879, V-A:SER:385:CA:3406, V-B:GLU:543:CG:9878, V-A:VAL:384:C:3396, V-A:HIS:456:CE1:4069, H-A:ASP:366:OD2:3214, H-A:ASP:366:OD1:3213, V-A:TYR:484:CE2:4345, V-A:TYR:484:CZ:4346, V-B:HIS:456:CE1:9040, V-B:GLU:543:CB:9877, V-A:GLU:543:CB:4905, V-B:GLU:543:C:9873, V-A:GLU:543:CD:4907, V-A:TYR:539:C:4866, H-B:LYS:547:NZ:9922, V-A:TYR:539:CD1:4872, V-A:TYR:539:CE1:4874, V-B:LYS:547:CE:9921, V-B:HIS:456:CD2:9038, V-B:HIS:456:CG:9036"]

$$$$
RR11_Rahimova_2017
     RDKit          3D

 33 38  0  0  0  0  0  0  0  0999 V2000
  134.3170  122.5350   62.3310 N   0  0  0  0  0  0  0  0  0  0  0  0
  133.5840  123.3870   63.1560 C   0  0  0  0  0  0  0  0  0  0  0  0
  132.4560  122.9080   63.8200 C   0  0  0  0  0  0  0  0  0  0  0  0
  131.7270  123.7580   64.6460 C   0  0  0  0  0  0  0  0  0  0  0  0
  132.1170  125.0930   64.8160 C   0  0  0  0  0  0  0  0  0  0  0  0
  131.3330  126.0070   65.7110 C   0  0  0  0  0  0  0  0  0  0  0  0
  131.5230  126.1200   67.0070 N   0  0  0  0  0  0  0  0  0  0  0  0
  130.6160  127.0580   67.4250 C   0  0  0  0  0  0  0  0  0  0  0  0
  130.3940  127.5630   68.7140 C   0  0  0  0  0  0  0  0  0  0  0  0
  129.4090  128.5430   68.8850 C   0  0  0  0  0  0  0  0  0  0  0  0
  129.1420  129.1070   70.2740 C   0  0  0  0  0  0  0  0  0  0  0  0
  129.3270  128.0750   71.3780 C   0  0  0  0  0  0  0  0  0  0  0  0
  129.6210  128.5040   72.6780 C   0  0  0  0  0  0  0  0  0  0  0  0
  129.7910  127.5970   73.7260 C   0  0  0  0  0  0  0  0  0  0  0  0
  129.6530  126.2310   73.4470 C   0  0  0  0  0  0  0  0  0  0  0  0
  129.7780  125.1560   74.2870 N   0  0  0  0  0  0  0  0  0  0  0  0
  129.5590  124.0990   73.5350 C   0  0  0  0  0  0  0  0  0  0  0  0
  129.6060  122.6810   74.0270 C   0  0  0  0  0  0  0  0  0  0  0  0
  130.7410  122.1970   74.6910 C   0  0  0  0  0  0  0  0  0  0  0  0
  130.7900  120.8790   75.1390 C   0  0  0  0  0  0  0  0  0  0  0  0
  129.7020  120.0350   74.9260 C   0  0  0  0  0  0  0  0  0  0  0  0
  129.7510  118.7140   75.3690 N   0  0  0  0  0  0  0  0  0  0  0  0
  128.5660  120.5040   74.2710 C   0  0  0  0  0  0  0  0  0  0  0  0
  128.5180  121.8220   73.8240 C   0  0  0  0  0  0  0  0  0  0  0  0
  129.2890  124.4430   72.2270 N   0  0  0  0  0  0  0  0  0  0  0  0
  129.3440  125.8140   72.1300 C   0  0  0  0  0  0  0  0  0  0  0  0
  129.1670  126.7160   71.0780 C   0  0  0  0  0  0  0  0  0  0  0  0
  128.6480  128.9860   67.7970 C   0  0  0  0  0  0  0  0  0  0  0  0
  128.8420  128.4990   66.5020 C   0  0  0  0  0  0  0  0  0  0  0  0
  129.8390  127.5340   66.3430 C   0  0  0  0  0  0  0  0  0  0  0  0
  130.3250  126.8350   65.2630 N   0  0  0  0  0  0  0  0  0  0  0  0
  133.2520  125.5620   64.1410 C   0  0  0  0  0  0  0  0  0  0  0  0
  133.9840  124.7130   63.3150 C   0  0  0  0  0  0  0  0  0  0  0  0
  1  2  1  0
  2  3  2  0
  3  4  1  0
  4  5  2  0
  5  6  1  0
  6  7  2  0
  7  8  1  0
  8  9  2  0
  9 10  1  0
 10 11  1  0
 11 12  1  0
 12 13  2  0
 13 14  1  0
 14 15  2  0
 15 16  1  0
 16 17  2  0
 17 18  1  0
 18 19  2  0
 19 20  1  0
 20 21  2  0
 21 22  1  0
 21 23  1  0
 23 24  2  0
 17 25  1  0
 25 26  1  0
 26 27  2  0
 10 28  2  0
 28 29  1  0
 29 30  2  0
 30 31  1  0
  5 32  1  0
 32 33  2  0
 33  2  1  0
 31  6  1  0
 30  8  1  0
 27 12  1  0
 26 15  1  0
 24 18  1  0
M  END
>  <Binding energies>  (42) 
[-8.42]

>  <Ligand effiencies>  (42) 
[-0.2158974358974359]

>  <Interactions>  (42) 
["V-A:GLY:453:C:4041, V-A:GLY:453:CA:4043, V-A:ASP:366:CG:3212, V-A:ARG:545:CZ:4925, H-A:TYR:484:OH:4347, V-A:ILE:369:CD1:3238, V-B:GLU:543:CD:9879, V-A:GLY:454:CA:4048, V-A:HIS:456:CE1:4069, H-B:GLU:543:OE2:9881, V-B:HIS:456:CE1:9040, V-A:GLU:543:CB:4905, V-B:GLU:543:C:9873, V-A:GLU:543:CD:4907, V-A:GLU:543:CG:4906, V-A:HIS:456:CD2:4067, V-A:TYR:484:CD2:4343, H-A:GLU:543:OE1:4908, H-B:LYS:547:NZ:9922, V-A:TYR:484:CB:4340, H-B:GLU:543:O:9874, H-A:HIS:456:NE2:4070, V-A:ASP:473:CB:4238, V-A:ASP:473:CG:4239, H-A:SER:385:O:3405, V-A:TYR:484:C:4336, V-A:ASP:485:CA:4352, H-A:TYR:484:O:4337, H-A:ASP:485:OD2:4357"]

$$$$
RR16_Rahimova_2017
     RDKit          3D

 44 49  0  0  0  0  0  0  0  0999 V2000
  129.3690  125.8570   74.2960 O   0  0  0  0  0  0  0  0  0  0  0  0
  128.5510  125.1570   73.3000 S   0  0  0  0  0  0  0  0  0  0  0  0
  127.2160  124.6530   73.6430 O   0  0  0  0  0  0  0  0  0  0  0  0
  129.5040  123.8060   72.6820 N   0  0  0  0  0  0  0  0  0  0  0  0
  129.6150  122.5410   73.4450 C   0  0  0  0  0  0  0  0  0  0  0  0
  130.4490  122.7910   74.7290 C   0  0  0  0  0  0  0  0  0  0  0  0
  131.0020  121.5550   75.4650 C   0  0  0  0  0  0  0  0  0  0  0  0
  130.5710  120.2140   74.8450 C   0  0  0  0  0  0  0  0  0  0  0  0
  129.0710  119.8770   74.9710 C   0  0  0  0  0  0  0  0  0  0  0  0
  128.1280  120.4550   73.8970 C   0  0  0  0  0  0  0  0  0  0  0  0
  128.1920  121.9780   73.6700 C   0  0  0  0  0  0  0  0  0  0  0  0
  128.3810  126.2580   71.9010 C   0  0  0  0  0  0  0  0  0  0  0  0
  127.2040  126.2650   71.1470 C   0  0  0  0  0  0  0  0  0  0  0  0
  127.1310  127.0360   69.9910 C   0  0  0  0  0  0  0  0  0  0  0  0
  128.2330  127.7970   69.5940 C   0  0  0  0  0  0  0  0  0  0  0  0
  128.1920  128.6780   68.0340 S   0  0  0  0  0  0  0  0  0  0  0  0
  128.8540  129.9720   68.2430 O   0  0  0  0  0  0  0  0  0  0  0  0
  126.8120  128.6230   67.5340 O   0  0  0  0  0  0  0  0  0  0  0  0
  129.2090  127.7010   66.9570 N   0  0  0  0  0  0  0  0  0  0  0  0
  129.3030  128.2140   65.5660 C   0  0  0  0  0  0  0  0  0  0  0  0
  129.9340  127.1540   64.6410 C   0  0  0  0  0  0  0  0  0  0  0  0
  131.2900  126.6450   65.1910 C   0  0  0  0  0  0  0  0  0  0  0  0
  131.9110  125.5580   64.3100 C   0  0  0  0  0  0  0  0  0  0  0  0
  133.2630  125.6430   63.9490 C   0  0  0  0  0  0  0  0  0  0  0  0
  133.8720  124.6700   63.1550 C   0  0  0  0  0  0  0  0  0  0  0  0
  135.1970  124.7680   62.8150 O   0  0  0  0  0  0  0  0  0  0  0  0
  133.0930  123.5880   62.7190 C   0  0  0  0  0  0  0  0  0  0  0  0
  133.4150  122.4990   61.9620 N   0  0  0  0  0  0  0  0  0  0  0  0
  132.2830  121.7210   61.8520 N   0  0  0  0  0  0  0  0  0  0  0  0
  131.2750  122.3430   62.4930 N   0  0  0  0  0  0  0  0  0  0  0  0
  129.9730  121.7000   62.6110 C   0  0  0  0  0  0  0  0  0  0  0  0
  128.8840  122.4310   61.8400 C   0  0  0  0  0  0  0  0  0  0  0  0
  127.9400  123.2070   62.5230 C   0  0  0  0  0  0  0  0  0  0  0  0
  126.9550  123.8970   61.8160 C   0  0  0  0  0  0  0  0  0  0  0  0
  126.9070  123.8160   60.4240 C   0  0  0  0  0  0  0  0  0  0  0  0
  127.8460  123.0470   59.7370 C   0  0  0  0  0  0  0  0  0  0  0  0
  127.7970  122.9530   58.0150 Cl  0  0  0  0  0  0  0  0  0  0  0  0
  128.8310  122.3520   60.4440 C   0  0  0  0  0  0  0  0  0  0  0  0
  131.7270  123.5130   63.0810 C   0  0  0  0  0  0  0  0  0  0  0  0
  131.1140  124.4890   63.8740 C   0  0  0  0  0  0  0  0  0  0  0  0
  131.2010  126.2320   66.6830 C   0  0  0  0  0  0  0  0  0  0  0  0
  130.5200  127.3160   67.5410 C   0  0  0  0  0  0  0  0  0  0  0  0
  129.3930  127.8220   70.3710 C   0  0  0  0  0  0  0  0  0  0  0  0
  129.4680  127.0480   71.5240 C   0  0  0  0  0  0  0  0  0  0  0  0
  1  2  2  0
  2  3  2  0
  2  4  1  0
  4  5  1  0
  5  6  1  0
  6  7  1  0
  7  8  1  0
  8  9  1  0
  9 10  1  0
 10 11  1  0
  2 12  1  0
 12 13  2  0
 13 14  1  0
 14 15  2  0
 15 16  1  0
 16 17  2  0
 16 18  2  0
 16 19  1  0
 19 20  1  0
 20 21  1  0
 21 22  1  0
 22 23  1  0
 23 24  2  0
 24 25  1  0
 25 26  1  0
 25 27  2  0
 27 28  1  0
 28 29  2  0
 29 30  1  0
 30 31  1  0
 31 32  1  0
 32 33  2  0
 33 34  1  0
 34 35  2  0
 35 36  1  0
 36 37  1  0
 36 38  2  0
 30 39  1  0
 39 40  2  0
 22 41  1  0
 41 42  1  0
 15 43  1  0
 43 44  2  0
 11  5  1  0
 44 12  1  0
 42 19  1  0
 40 23  1  0
 39 27  1  0
 38 32  1  0
M  END
>  <Binding energies>  (43) 
[-9.15]

>  <Ligand effiencies>  (43) 
[-0.19062500000000002]

>  <Interactions>  (43) 
["H-A:GLY:454:N:4049, H-A:ARG:545:NH1:4926, V-B:TYR:539:CE2:9847, V-A:LEU:475:CD2:4258, V-A:ASP:366:CG:3212, V-B:TYR:539:CD2:9845, V-B:ALA:541:CB:9863, V-A:ARG:545:CZ:4925, V-B:PRO:540:CA:9854, V-A:HIS:456:CE1:4069, H-A:ASP:366:OD2:3214, H-A:ASP:366:OD1:3213, V-B:TYR:539:C:9838, V-B:HIS:456:CE1:9040, V-B:GLU:543:CB:9877, V-B:GLY:544:C:9883, V-B:GLU:543:C:9873, V-A:GLU:543:CD:4907, V-B:PRO:540:N:9855, V-A:GLU:543:CG:4906, V-A:TYR:484:CD2:4343, H-B:LYS:547:NZ:9922, V-B:LYS:547:CE:9921, V-A:TYR:484:CB:4340, H-B:GLU:543:O:9874, H-A:HIS:456:NE2:4070, V-A:TYR:484:CG:4341, V-A:ASP:473:CB:4238, V-A:ASP:473:CG:4239, V-B:GLY:544:CA:9885, V-A:TYR:484:C:4336, H-B:TYR:484:OH:9318"]

$$$$
RR18_Rahimova_2017
     RDKit          3D

 36 41  0  0  0  0  0  0  0  0999 V2000
  132.8140  126.2690   56.4860 C   0  0  0  0  0  0  0  0  0  0  0  0
  132.5420  125.6660   57.8420 C   0  0  0  0  0  0  0  0  0  0  0  0
  133.2260  124.7830   58.6610 C   0  0  0  0  0  0  0  0  0  0  0  0
  132.4480  124.6100   59.8050 C   0  0  0  0  0  0  0  0  0  0  0  0
  131.3170  125.3930   59.6440 C   0  0  0  0  0  0  0  0  0  0  0  0
  130.0860  125.6650   60.5060 C   0  0  1  0  0  0  0  0  0  0  0  0
  129.9980  124.6750   61.7050 C   0  0  0  0  0  0  0  0  0  0  0  0
  129.7960  123.2480   61.4710 C   0  0  0  0  0  0  0  0  0  0  0  0
  128.7060  122.7950   61.1170 O   0  0  0  0  0  0  0  0  0  0  0  0
  130.9030  122.4930   61.6610 N   0  0  0  0  0  0  0  0  0  0  0  0
  131.0860  121.0980   61.5520 C   0  0  0  0  0  0  0  0  0  0  0  0
  130.0580  120.1620   61.7670 C   0  0  0  0  0  0  0  0  0  0  0  0
  130.3070  118.7950   61.6500 C   0  0  0  0  0  0  0  0  0  0  0  0
  131.5810  118.3430   61.3240 C   0  0  0  0  0  0  0  0  0  0  0  0
  132.6120  119.2570   61.1200 C   0  0  0  0  0  0  0  0  0  0  0  0
  132.3780  120.6310   61.2330 C   0  0  0  0  0  0  0  0  0  0  0  0
  133.5420  121.5910   61.0030 C   0  0  0  0  0  0  0  0  0  0  0  0
  130.2160  125.1540   62.9580 C   0  0  0  0  0  0  0  0  0  0  0  0
  130.3920  126.4680   63.2670 N   0  0  0  0  0  0  0  0  0  0  0  0
  130.2720  127.3540   62.3480 C   0  0  0  0  0  0  0  0  0  0  0  0
  130.3210  129.0800   62.6200 S   0  0  0  0  0  0  0  0  0  0  0  0
  130.0440  129.4150   60.8820 C   0  0  0  0  0  0  0  0  0  0  0  0
  129.9480  130.6500   60.2770 C   0  0  0  0  0  0  0  0  0  0  0  0
  129.9900  131.8770   61.0850 C   0  0  0  0  0  0  0  0  0  0  0  0
  130.1310  132.0220   62.2990 O   0  0  0  0  0  0  0  0  0  0  0  0
  129.8220  132.9090   60.2520 N   0  0  0  0  0  0  0  0  0  0  0  0
  129.7020  132.5260   58.9500 C   0  0  0  0  0  0  0  0  0  0  0  0
  129.5310  133.3420   57.8320 C   0  0  0  0  0  0  0  0  0  0  0  0
  129.4610  132.7510   56.5740 C   0  0  0  0  0  0  0  0  0  0  0  0
  129.5720  131.3670   56.4540 C   0  0  0  0  0  0  0  0  0  0  0  0
  129.7430  130.5710   57.5900 C   0  0  0  0  0  0  0  0  0  0  0  0
  129.7920  131.1470   58.8740 C   0  0  0  0  0  0  0  0  0  0  0  0
  129.9190  128.1320   60.1890 C   0  0  0  0  0  0  0  0  0  0  0  0
  129.6730  127.9670   58.9980 O   0  0  0  0  0  0  0  0  0  0  0  0
  130.0870  127.0770   61.0320 N   0  0  0  0  0  0  0  0  0  0  0  0
  131.3810  126.0320   58.4450 O   0  0  0  0  0  0  0  0  0  0  0  0
  1  2  1  0
  2  3  2  0
  3  4  1  0
  4  5  2  0
  6  5  1  1
  6  7  1  0
  7  8  1  0
  8  9  2  0
  8 10  1  0
 10 11  1  0
 11 12  2  0
 12 13  1  0
 13 14  2  0
 14 15  1  0
 15 16  2  0
 16 17  1  0
  7 18  2  0
 18 19  1  0
 19 20  2  0
 20 21  1  0
 21 22  1  0
 22 23  2  0
 23 24  1  0
 24 25  2  0
 24 26  1  0
 26 27  1  0
 27 28  2  0
 28 29  1  0
 29 30  2  0
 30 31  1  0
 31 32  2  0
 22 33  1  0
 33 34  2  0
 33 35  1  0
  5 36  1  0
 36  2  1  0
 35  6  1  0
 16 11  1  0
 35 20  1  0
 32 23  1  0
 32 27  1  0
M  END
>  <Binding energies>  (44) 
[-7.99]

>  <Ligand effiencies>  (44) 
[-0.21026315789473685]

>  <Interactions>  (44) 
["V-B:TYR:539:CE2:9847, V-A:LEU:475:CD2:4258, V-A:ILE:369:CG2:3236, V-A:ASP:366:CG:3212, V-B:TYR:539:CD2:9845, V-B:ALA:541:CB:9863, V-A:ILE:369:CD1:3238, V-A:SER:385:CB:3408, V-A:SER:385:CA:3406, V-A:ASP:366:CB:3211, V-A:ILE:369:CB:3235, V-A:ASP:366:C:3207, V-A:ASP:366:CA:3209, V-A:PRO:540:CA:4882, V-A:GLU:543:CD:4907, V-A:TYR:531:CE1:4791, V-A:ASN:370:CB:3244, V-A:PRO:540:N:4883, V-A:TYR:539:C:4866, V-A:TYR:531:CZ:4793, V-A:PRO:482:CB:4325, V-A:PRO:482:CG:4326, V-A:TYR:539:CD1:4872, V-A:TYR:539:CE1:4874, V-A:TYR:539:CZ:4876, V-A:TYR:539:CG:4871, H-A:TYR:539:O:4867"]

$$$$
RR20_Rahimova_2017
     RDKit          3D

 38 43  0  0  0  0  0  0  0  0999 V2000
  131.2100  121.5600   74.4530 C   0  0  0  0  0  0  0  0  0  0  0  0
  130.4910  122.8670   74.1740 C   0  0  0  0  0  0  0  0  0  0  0  0
  129.1240  122.8620   73.8940 C   0  0  0  0  0  0  0  0  0  0  0  0
  128.4610  124.0610   73.6460 C   0  0  0  0  0  0  0  0  0  0  0  0
  129.1610  125.2730   73.6630 C   0  0  0  0  0  0  0  0  0  0  0  0
  128.4180  126.5660   73.4120 C   0  0  0  0  0  0  0  0  0  0  0  0
  127.3970  126.7760   74.0720 O   0  0  0  0  0  0  0  0  0  0  0  0
  128.9020  127.4480   72.4890 N   0  0  0  0  0  0  0  0  0  0  0  0
  129.7730  128.5700   72.8760 C   0  0  0  0  0  0  0  0  0  0  0  0
  130.2270  129.2250   71.5830 C   0  0  0  0  0  0  0  0  0  0  0  0
  129.8840  128.1960   70.5490 C   0  0  0  0  0  0  0  0  0  0  0  0
  130.1470  128.2050   69.1790 C   0  0  0  0  0  0  0  0  0  0  0  0
  129.6010  127.2250   68.3410 C   0  0  0  0  0  0  0  0  0  0  0  0
  129.8920  127.2290   66.8660 C   0  0  0  0  0  0  0  0  0  0  0  0
  130.7240  126.3180   66.3870 N   0  0  0  0  0  0  0  0  0  0  0  0
  130.8880  126.4010   65.0910 C   0  0  0  0  0  0  0  0  0  0  0  0
  131.6800  125.6060   64.2770 N   0  0  0  0  0  0  0  0  0  0  0  0
  132.9220  125.1400   64.5530 C   0  0  0  0  0  0  0  0  0  0  0  0
  133.5200  125.3550   65.6090 O   0  0  0  0  0  0  0  0  0  0  0  0
  133.6230  124.2640   63.4880 C   0  0  0  0  0  0  0  0  0  0  0  0
  132.8670  123.0400   63.1600 N   0  0  0  0  0  0  0  0  0  0  0  0
  131.5100  123.3320   62.6720 C   0  0  0  0  0  0  0  0  0  0  0  0
  130.6790  122.0310   62.6010 C   0  0  0  0  0  0  0  0  0  0  0  0
  131.4360  120.8730   61.9500 C   0  0  0  0  0  0  0  0  0  0  0  0
  130.7710  119.7080   61.5560 C   0  0  0  0  0  0  0  0  0  0  0  0
  131.4660  118.6380   60.9990 C   0  0  0  0  0  0  0  0  0  0  0  0
  132.8450  118.7230   60.8270 C   0  0  0  0  0  0  0  0  0  0  0  0
  133.5190  119.8810   61.2070 C   0  0  0  0  0  0  0  0  0  0  0  0
  132.8320  120.9630   61.7690 C   0  0  0  0  0  0  0  0  0  0  0  0
  133.5630  122.2560   62.1330 C   0  0  0  0  0  0  0  0  0  0  0  0
  129.9990  127.6700   64.3420 S   0  0  0  0  0  0  0  0  0  0  0  0
  129.3670  128.1220   65.9070 C   0  0  0  0  0  0  0  0  0  0  0  0
  128.4450  129.3140   66.0460 C   0  0  0  0  0  0  0  0  0  0  0  0
  128.7390  126.2700   68.9020 C   0  0  0  0  0  0  0  0  0  0  0  0
  128.4590  126.2700   70.2680 C   0  0  0  0  0  0  0  0  0  0  0  0
  129.0790  127.2040   71.1080 C   0  0  0  0  0  0  0  0  0  0  0  0
  130.5270  125.2730   73.9740 C   0  0  0  0  0  0  0  0  0  0  0  0
  131.1910  124.0740   74.2220 C   0  0  0  0  0  0  0  0  0  0  0  0
  1  2  1  0
  2  3  2  0
  3  4  1  0
  4  5  2  0
  5  6  1  0
  6  7  2  0
  6  8  1  0
  8  9  1  0
  9 10  1  0
 10 11  1  0
 11 12  2  0
 12 13  1  0
 13 14  1  0
 14 15  1  0
 15 16  2  0
 16 17  1  0
 17 18  1  0
 18 19  2  0
 18 20  1  0
 20 21  1  0
 21 22  1  0
 22 23  1  0
 23 24  1  0
 24 25  2  0
 25 26  1  0
 26 27  2  0
 27 28  1  0
 28 29  2  0
 29 30  1  0
 16 31  1  0
 31 32  1  0
 32 33  1  0
 13 34  2  0
 34 35  1  0
 35 36  2  0
  5 37  1  0
 37 38  2  0
 38  2  1  0
 36  8  1  0
 36 11  1  0
 32 14  2  0
 30 21  1  0
 29 24  1  0
M  END
>  <Binding energies>  (45) 
[-9.99]

>  <Ligand effiencies>  (45) 
[-0.2561538461538462]

>  <Interactions>  (45) 
["H-A:GLY:454:N:4049, V-A:LEU:475:CD2:4258, V-A:ILE:369:CG2:3236, V-B:TYR:539:CD2:9845, V-B:ALA:541:CB:9863, V-A:ARG:545:CZ:4925, H-A:TYR:484:OH:4347, V-A:ILE:369:CD1:3238, V-B:GLU:543:CD:9879, V-A:SER:385:CB:3408, V-A:SER:385:CA:3406, V-B:GLU:543:CG:9878, V-A:GLY:454:CA:4048, V-A:HIS:456:CE1:4069, V-B:HIS:456:CE1:9040, V-B:GLU:543:CB:9877, V-A:GLU:543:CB:4905, V-B:GLU:543:C:9873, V-A:GLU:543:CD:4907, V-A:GLU:543:CG:4906, V-A:GLU:543:C:4901, V-A:HIS:456:CD2:4067, V-A:SER:385:C:3404, V-A:HIS:456:CB:4064, V-A:HIS:456:CG:4065, H-B:LYS:547:NZ:9922, V-A:GLY:544:CA:4913, V-B:LYS:547:CE:9921, V-A:TYR:484:CB:4340, V-A:ASP:473:CB:4238, V-A:ASP:473:CG:4239"]

$$$$
RR21_Rahimova_2017
     RDKit          3D

 40 45  0  0  0  0  0  0  0  0999 V2000
  127.4390  126.2250   72.0220 C   0  0  0  0  0  0  0  0  0  0  0  0
  128.4520  127.1030   71.5400 O   0  0  0  0  0  0  0  0  0  0  0  0
  128.3980  127.5440   70.2320 C   0  0  0  0  0  0  0  0  0  0  0  0
  127.3660  127.2260   69.3330 C   0  0  0  0  0  0  0  0  0  0  0  0
  127.3850  127.7160   68.0270 C   0  0  0  0  0  0  0  0  0  0  0  0
  128.4300  128.5360   67.5880 C   0  0  0  0  0  0  0  0  0  0  0  0
  128.4460  129.0650   66.1860 C   0  0  0  0  0  0  0  0  0  0  0  0
  127.8210  130.1920   65.9040 N   0  0  0  0  0  0  0  0  0  0  0  0
  128.0040  130.4150   64.5930 N   0  0  0  0  0  0  0  0  0  0  0  0
  127.4740  131.5680   63.9570 C   0  0  0  0  0  0  0  0  0  0  0  0
  126.0880  131.7750   63.8860 C   0  0  0  0  0  0  0  0  0  0  0  0
  125.5800  132.9120   63.2640 C   0  0  0  0  0  0  0  0  0  0  0  0
  126.4540  133.8450   62.7100 C   0  0  0  0  0  0  0  0  0  0  0  0
  127.8310  133.6490   62.7710 C   0  0  0  0  0  0  0  0  0  0  0  0
  128.3420  132.5130   63.3930 C   0  0  0  0  0  0  0  0  0  0  0  0
  128.7720  129.4190   64.0450 C   0  0  0  0  0  0  0  0  0  0  0  0
  129.0710  128.5080   65.0470 C   0  0  0  0  0  0  0  0  0  0  0  0
  129.8960  127.3130   64.9580 C   0  0  0  0  0  0  0  0  0  0  0  0
  130.3650  126.7000   63.8470 C   0  0  0  0  0  0  0  0  0  0  0  0
  130.1060  127.1650   62.1510 S   0  0  0  0  0  0  0  0  0  0  0  0
  131.1050  125.8120   61.6420 C   0  0  0  0  0  0  0  0  0  0  0  0
  131.4280  125.4730   60.4320 N   0  0  0  0  0  0  0  0  0  0  0  0
  132.2600  124.3530   60.1560 C   0  0  0  0  0  0  0  0  0  0  0  0
  132.6280  123.9790   59.0420 O   0  0  0  0  0  0  0  0  0  0  0  0
  132.7040  123.6070   61.3840 C   0  0  0  0  0  0  0  0  0  0  0  0
  133.5900  122.3680   61.2090 C   0  0  0  0  0  0  0  0  0  0  0  0
  132.8190  121.0580   61.0630 C   0  0  0  0  0  0  0  0  0  0  0  0
  131.4760  120.9910   61.4430 C   0  0  0  0  0  0  0  0  0  0  0  0
  130.7680  119.8000   61.2940 C   0  0  0  0  0  0  0  0  0  0  0  0
  131.4010  118.6750   60.7630 C   0  0  0  0  0  0  0  0  0  0  0  0
  130.6220  117.3840   60.5910 C   0  0  0  0  0  0  0  0  0  0  0  0
  132.7400  118.7430   60.3710 C   0  0  0  0  0  0  0  0  0  0  0  0
  133.4480  119.9330   60.5200 C   0  0  0  0  0  0  0  0  0  0  0  0
  132.3690  123.9540   62.5840 N   0  0  0  0  0  0  0  0  0  0  0  0
  131.5530  125.0850   62.7130 N   0  0  0  0  0  0  0  0  0  0  0  0
  131.1880  125.5030   63.9500 C   0  0  0  0  0  0  0  0  0  0  0  0
  131.5150  124.9480   65.0060 O   0  0  0  0  0  0  0  0  0  0  0  0
  129.4610  128.8480   68.4800 C   0  0  0  0  0  0  0  0  0  0  0  0
  129.4450  128.3590   69.7860 C   0  0  0  0  0  0  0  0  0  0  0  0
  130.4570  128.6800   70.6250 F   0  0  0  0  0  0  0  0  0  0  0  0
  1  2  1  0
  2  3  1  0
  3  4  2  0
  4  5  1  0
  5  6  2  0
  6  7  1  0
  7  8  2  0
  8  9  1  0
  9 10  1  0
 10 11  2  0
 11 12  1  0
 12 13  2  0
 13 14  1  0
 14 15  2  0
  9 16  1  0
 16 17  2  0
 17 18  1  0
 18 19  2  0
 19 20  1  0
 20 21  1  0
 21 22  2  0
 22 23  1  0
 23 24  2  0
 23 25  1  0
 25 26  1  0
 26 27  1  0
 27 28  2  0
 28 29  1  0
 29 30  2  0
 30 31  1  0
 30 32  1  0
 32 33  2  0
 25 34  2  0
 34 35  1  0
 35 36  1  0
 36 37  2  0
  6 38  1  0
 38 39  2  0
 39 40  1  0
 39  3  1  0
 17  7  1  0
 36 19  1  0
 15 10  1  0
 35 21  1  0
 33 27  1  0
M  END
>  <Binding energies>  (46) 
[-9.23]

>  <Ligand effiencies>  (46) 
[-0.23075]

>  <Interactions>  (46) 
["V-A:HIS:383:CE1:3393, V-B:TYR:539:CE2:9847, V-A:LEU:475:CD2:4258, V-A:ILE:369:CG2:3236, V-B:TYR:539:CB:9842, V-A:ASP:366:CG:3212, V-B:TYR:539:CD2:9845, V-B:ALA:541:CB:9863, H-A:TYR:484:OH:4347, V-A:ILE:369:CD1:3238, V-B:GLU:543:CD:9879, V-A:SER:385:CB:3408, V-A:SER:385:CA:3406, V-A:HIS:456:CE1:4069, V-B:HIS:456:CE1:9040, V-B:GLU:543:CB:9877, V-B:GLY:544:C:9883, V-A:GLU:543:CB:4905, V-B:GLU:543:C:9873, V-A:GLU:543:CD:4907, H-B:TYR:539:OH:9849, V-A:GLU:543:CG:4906, V-A:GLU:543:C:4901, V-A:PRO:482:CG:4326, V-B:LEU:475:CD1:9228, V-A:ALA:541:CB:4891, V-B:GLY:544:CA:9885, H-B:TYR:484:OH:9318"]

$$$$
RR23_Rahimova_2017
     RDKit          3D

 39 44  0  0  0  0  0  0  0  0999 V2000
  132.4220  116.9460   58.2950 C   0  0  0  0  0  0  0  0  0  0  0  0
  132.4580  118.0070   59.3800 C   0  0  0  0  0  0  0  0  0  0  0  0
  133.3490  119.0760   59.2810 C   0  0  0  0  0  0  0  0  0  0  0  0
  133.3740  120.0550   60.2720 C   0  0  0  0  0  0  0  0  0  0  0  0
  132.5170  119.9650   61.3750 C   0  0  0  0  0  0  0  0  0  0  0  0
  132.5450  121.0480   62.4290 C   0  0  0  0  0  0  0  0  0  0  0  0
  133.4920  121.0510   63.2190 O   0  0  0  0  0  0  0  0  0  0  0  0
  131.5460  121.9800   62.4610 N   0  0  0  0  0  0  0  0  0  0  0  0
  130.1680  121.6440   62.0670 C   0  0  0  0  0  0  0  0  0  0  0  0
  129.3260  122.8720   62.3710 C   0  0  0  0  0  0  0  0  0  0  0  0
  130.2210  123.6780   63.2630 C   0  0  0  0  0  0  0  0  0  0  0  0
  129.9510  124.8740   63.9300 C   0  0  0  0  0  0  0  0  0  0  0  0
  130.9770  125.5630   64.5930 C   0  0  0  0  0  0  0  0  0  0  0  0
  130.7230  126.8810   65.3400 C   0  0  2  0  0  0  0  0  0  0  0  0
  130.2700  126.6620   66.6970 N   0  0  0  0  0  0  0  0  0  0  0  0
  129.4770  127.5780   67.0850 C   0  0  0  0  0  0  0  0  0  0  0  0
  128.8400  127.6840   68.2830 N   0  0  0  0  0  0  0  0  0  0  0  0
  128.7850  126.7790   69.2900 C   0  0  0  0  0  0  0  0  0  0  0  0
  129.3570  125.6870   69.3040 O   0  0  0  0  0  0  0  0  0  0  0  0
  127.9220  127.1830   70.4970 C   0  0  0  0  0  0  0  0  0  0  0  0
  128.7180  127.0260   71.7350 N   0  0  0  0  0  0  0  0  0  0  0  0
  128.3270  125.9840   72.5670 N   0  0  0  0  0  0  0  0  0  0  0  0
  128.9400  125.7420   73.6810 N   0  0  0  0  0  0  0  0  0  0  0  0
  130.0220  126.5370   74.0650 C   0  0  0  0  0  0  0  0  0  0  0  0
  130.6610  126.2500   75.2740 C   0  0  0  0  0  0  0  0  0  0  0  0
  131.7450  127.0270   75.6850 C   0  0  0  0  0  0  0  0  0  0  0  0
  132.1900  128.0880   74.8930 C   0  0  0  0  0  0  0  0  0  0  0  0
  131.5520  128.3770   73.6850 C   0  0  0  0  0  0  0  0  0  0  0  0
  130.4660  127.5970   73.2720 C   0  0  0  0  0  0  0  0  0  0  0  0
  129.7600  127.8950   71.9700 C   0  0  0  0  0  0  0  0  0  0  0  0
  130.0760  128.8190   71.2130 O   0  0  0  0  0  0  0  0  0  0  0  0
  129.1280  128.8930   65.9260 S   0  0  0  0  0  0  0  0  0  0  0  0
  129.7800  127.8600   64.6020 C   0  0  2  0  0  0  0  0  0  0  0  0
  128.6020  127.2330   63.8260 C   0  0  0  0  0  0  0  0  0  0  0  0
  132.2800  125.0560   64.5320 C   0  0  0  0  0  0  0  0  0  0  0  0
  132.5550  123.8720   63.8470 C   0  0  0  0  0  0  0  0  0  0  0  0
  131.5110  123.1470   63.2560 C   0  0  0  0  0  0  0  0  0  0  0  0
  131.6060  118.9030   61.4530 C   0  0  0  0  0  0  0  0  0  0  0  0
  131.5800  117.9260   60.4610 C   0  0  0  0  0  0  0  0  0  0  0  0
  1  2  1  0
  2  3  2  0
  3  4  1  0
  4  5  2  0
  5  6  1  0
  6  7  2  0
  6  8  1  0
  8  9  1  0
  9 10  1  0
 10 11  1  0
 11 12  2  0
 12 13  1  0
 14 13  1  6
 14 15  1  0
 15 16  2  0
 16 17  1  0
 17 18  1  0
 18 19  2  0
 18 20  1  0
 20 21  1  0
 21 22  1  0
 22 23  2  0
 23 24  1  0
 24 25  2  0
 25 26  1  0
 26 27  2  0
 27 28  1  0
 28 29  2  0
 29 30  1  0
 30 31  2  0
 16 32  1  0
 32 33  1  0
 33 34  1  1
 13 35  2  0
 35 36  1  0
 36 37  2  0
  5 38  1  0
 38 39  2  0
 39  2  1  0
 37  8  1  0
 37 11  1  0
 33 14  1  0
 30 21  1  0
 29 24  1  0
M  END
>  <Binding energies>  (47) 
[-9.06]

>  <Ligand effiencies>  (47) 
[-0.2265]

>  <Interactions>  (47) 
["V-A:HIS:383:CE1:3393, V-B:TYR:539:CE2:9847, V-A:LEU:475:CD2:4258, V-A:ILE:369:CG2:3236, V-B:TYR:539:CB:9842, V-A:LEU:373:CD2:3280, V-B:TYR:539:CD2:9845, V-B:ALA:541:CB:9863, V-B:GLU:543:CD:9879, V-A:SER:385:CA:3406, V-A:GLY:454:CA:4048, V-B:TYR:539:CG:9843, V-A:HIS:456:CE1:4069, V-B:HIS:456:CE1:9040, V-B:GLU:543:CB:9877, V-A:GLU:543:CD:4907, H-B:LYS:547:NZ:9922, V-A:GLY:544:C:4911, V-A:LEU:373:CG:3278, V-A:HIS:383:CG:3389, V-A:LEU:373:CD1:3279, V-A:LYS:547:CE:4949, V-A:HIS:383:CB:3388"]

$$$$
RR26_Rahimova_2017
     RDKit          3D

 38 44  0  0  0  0  0  0  0  0999 V2000
  130.1680  118.6060   61.8760 C   0  0  0  0  0  0  0  0  0  0  0  0
  131.3400  118.6740   60.9050 C   0  0  0  0  0  0  0  0  0  0  0  0
  131.5400  117.6000   60.0310 C   0  0  0  0  0  0  0  0  0  0  0  0
  132.5720  117.6270   59.0950 C   0  0  0  0  0  0  0  0  0  0  0  0
  133.4110  118.7340   59.0190 C   0  0  0  0  0  0  0  0  0  0  0  0
  133.2210  119.8110   59.8840 C   0  0  0  0  0  0  0  0  0  0  0  0
  132.1930  119.7980   60.8390 C   0  0  0  0  0  0  0  0  0  0  0  0
  132.0680  120.9920   61.7410 C   0  0  0  0  0  0  0  0  0  0  0  0
  130.9510  121.2620   62.4110 N   0  0  0  0  0  0  0  0  0  0  0  0
  131.2800  122.3470   63.0580 C   0  0  0  0  0  0  0  0  0  0  0  0
  130.4950  123.4180   64.1590 S   0  0  0  0  0  0  0  0  0  0  0  0
  132.0060  124.3990   64.2470 C   0  0  0  0  0  0  0  0  0  0  0  0
  132.2210  125.5240   64.9650 C   0  0  0  0  0  0  0  0  0  0  0  0
  131.2950  126.2170   65.8460 C   0  0  0  0  0  0  0  0  0  0  0  0
  131.2720  126.2210   67.2320 C   0  0  0  0  0  0  0  0  0  0  0  0
  130.2510  127.0440   67.6350 N   0  0  0  0  0  0  0  0  0  0  0  0
  129.8500  127.3630   68.9580 C   0  0  0  0  0  0  0  0  0  0  0  0
  130.2520  128.5640   69.5600 C   0  0  0  0  0  0  0  0  0  0  0  0
  129.8550  128.8630   70.8610 C   0  0  0  0  0  0  0  0  0  0  0  0
  129.0530  127.9650   71.5610 C   0  0  0  0  0  0  0  0  0  0  0  0
  128.6440  126.7700   70.9730 C   0  0  0  0  0  0  0  0  0  0  0  0
  129.0420  126.4670   69.6740 C   0  0  0  0  0  0  0  0  0  0  0  0
  129.6420  127.5850   66.5690 N   0  0  0  0  0  0  0  0  0  0  0  0
  130.2460  127.1000   65.5020 C   0  0  0  0  0  0  0  0  0  0  0  0
  129.7890  127.5070   64.1360 C   0  0  0  0  0  0  0  0  0  0  0  0
  130.7200  127.6980   63.1030 C   0  0  0  0  0  0  0  0  0  0  0  0
  130.3040  128.0810   61.8270 C   0  0  0  0  0  0  0  0  0  0  0  0
  128.9480  128.2780   61.5730 C   0  0  0  0  0  0  0  0  0  0  0  0
  128.0060  128.0730   62.5920 C   0  0  0  0  0  0  0  0  0  0  0  0
  128.4250  127.6970   63.8680 C   0  0  0  0  0  0  0  0  0  0  0  0
  126.6580  128.3000   62.3990 O   0  0  0  0  0  0  0  0  0  0  0  0
  126.2580  128.3190   61.0250 C   0  0  0  0  0  0  0  0  0  0  0  0
  127.2550  129.1510   60.1810 C   0  0  0  0  0  0  0  0  0  0  0  0
  128.5760  128.6100   60.2860 O   0  0  0  0  0  0  0  0  0  0  0  0
  133.0690  123.8570   63.4070 C   0  0  0  0  0  0  0  0  0  0  0  0
  134.2140  124.2780   63.2330 O   0  0  0  0  0  0  0  0  0  0  0  0
  132.5490  122.7080   62.7910 N   0  0  0  0  0  0  0  0  0  0  0  0
  133.0760  121.8280   61.9360 N   0  0  0  0  0  0  0  0  0  0  0  0
  1  2  1  0
  2  3  2  0
  3  4  1  0
  4  5  2  0
  5  6  1  0
  6  7  2  0
  7  8  1  0
  8  9  1  0
  9 10  2  0
 10 11  1  0
 11 12  1  0
 12 13  2  0
 13 14  1  0
 14 15  2  0
 15 16  1  0
 16 17  1  0
 17 18  2  0
 18 19  1  0
 19 20  2  0
 20 21  1  0
 21 22  2  0
 16 23  1  0
 23 24  2  0
 24 25  1  0
 25 26  2  0
 26 27  1  0
 27 28  2  0
 28 29  1  0
 29 30  2  0
 29 31  1  0
 31 32  1  0
 32 33  1  0
 33 34  1  0
 12 35  1  0
 35 36  2  0
 35 37  1  0
 37 38  1  0
  7  2  1  0
 38  8  2  0
 37 10  1  0
 24 14  1  0
 30 25  1  0
 22 17  1  0
 34 28  1  0
M  END
>  <Binding energies>  (48) 
[-9.2]

>  <Ligand effiencies>  (48) 
[-0.2421052631578947]

>  <Interactions>  (48) 
["H-A:GLY:454:N:4049, V-A:HIS:383:CE1:3393, V-B:TYR:539:CE2:9847, V-A:LEU:475:CD2:4258, V-A:ILE:369:CG2:3236, V-B:TYR:539:CB:9842, V-A:LEU:373:CD2:3280, V-B:TYR:539:CD2:9845, V-B:ALA:541:CB:9863, V-B:GLU:543:CD:9879, V-A:GLY:454:CA:4048, V-B:TYR:539:CG:9843, V-A:VAL:384:C:3396, V-A:HIS:456:CE1:4069, V-A:TYR:484:CZ:4346, V-B:HIS:456:CE1:9040, V-B:GLU:543:CB:9877, V-A:GLU:543:CB:4905, V-A:GLU:543:CD:4907, V-A:GLU:543:C:4901, V-A:PRO:482:CB:4325, V-A:PRO:482:CG:4326, V-A:LEU:373:CG:3278, V-A:LEU:373:CD1:3279"]

$$$$
RR2_Rahimova_2017
     RDKit          3D

 46 50  0  0  0  0  0  0  0  0999 V2000
  128.7720  125.5030   72.7890 C   0  0  0  0  0  0  0  0  0  0  0  0
  128.2950  126.8140   72.5060 O   0  0  0  0  0  0  0  0  0  0  0  0
  128.3020  127.2670   71.2000 C   0  0  0  0  0  0  0  0  0  0  0  0
  127.3650  126.8930   70.2270 C   0  0  0  0  0  0  0  0  0  0  0  0
  127.4540  127.3990   68.9340 C   0  0  0  0  0  0  0  0  0  0  0  0
  128.4800  128.2860   68.5810 C   0  0  0  0  0  0  0  0  0  0  0  0
  128.5590  128.8180   67.1630 C   0  0  0  0  0  0  0  0  0  0  0  0
  129.2710  128.2540   66.3250 O   0  0  0  0  0  0  0  0  0  0  0  0
  127.8260  129.9260   66.9070 N   0  0  0  0  0  0  0  0  0  0  0  0
  127.9340  130.5090   65.6490 N   0  0  0  0  0  0  0  0  0  0  0  0
  127.9930  131.8530   65.5710 C   0  0  0  0  0  0  0  0  0  0  0  0
  127.7790  132.6240   66.5120 O   0  0  0  0  0  0  0  0  0  0  0  0
  128.3800  132.4210   64.1990 C   0  0  0  0  0  0  0  0  0  0  0  0
  127.4580  131.7180   62.7830 S   0  0  0  0  0  0  0  0  0  0  0  0
  127.9290  130.0180   62.8980 C   0  0  0  0  0  0  0  0  0  0  0  0
  127.2250  129.1250   63.5460 N   0  0  0  0  0  0  0  0  0  0  0  0
  127.9220  127.9260   63.4920 N   0  0  0  0  0  0  0  0  0  0  0  0
  129.0090  128.1330   62.7880 C   0  0  0  0  0  0  0  0  0  0  0  0
  130.0130  127.0660   62.4940 C   0  0  0  0  0  0  0  0  0  0  0  0
  131.1640  126.9590   63.2790 C   0  0  0  0  0  0  0  0  0  0  0  0
  132.1080  125.9740   63.0090 C   0  0  0  0  0  0  0  0  0  0  0  0
  131.9020  125.0730   61.9580 C   0  0  0  0  0  0  0  0  0  0  0  0
  132.8240  124.0660   61.6330 N   0  0  0  0  0  0  0  0  0  0  0  0
  133.2680  122.7170   62.7010 S   0  0  0  0  0  0  0  0  0  0  0  0
  132.4410  122.8650   63.9040 O   0  0  0  0  0  0  0  0  0  0  0  0
  134.7320  122.6740   62.7960 O   0  0  0  0  0  0  0  0  0  0  0  0
  132.6950  121.2440   61.8590 C   0  0  0  0  0  0  0  0  0  0  0  0
  131.3450  120.8880   61.8860 C   0  0  0  0  0  0  0  0  0  0  0  0
  130.9220  119.7310   61.2380 C   0  0  0  0  0  0  0  0  0  0  0  0
  131.8460  118.9340   60.5590 C   0  0  0  0  0  0  0  0  0  0  0  0
  131.3860  117.6650   59.8650 C   0  0  0  0  0  0  0  0  0  0  0  0
  133.1970  119.2900   60.5360 C   0  0  0  0  0  0  0  0  0  0  0  0
  133.6210  120.4460   61.1850 C   0  0  0  0  0  0  0  0  0  0  0  0
  130.7510  125.1780   61.1770 C   0  0  0  0  0  0  0  0  0  0  0  0
  129.8090  126.1670   61.4430 C   0  0  0  0  0  0  0  0  0  0  0  0
  129.0800  129.4540   62.3790 N   0  0  0  0  0  0  0  0  0  0  0  0
  130.1030  130.0910   61.6460 C   0  0  0  0  0  0  0  0  0  0  0  0
  130.5380  131.3640   62.0190 C   0  0  0  0  0  0  0  0  0  0  0  0
  131.5510  131.9850   61.2940 C   0  0  0  0  0  0  0  0  0  0  0  0
  132.1340  131.3480   60.1980 C   0  0  0  0  0  0  0  0  0  0  0  0
  133.1300  132.0440   59.5410 O   0  0  0  0  0  0  0  0  0  0  0  0
  133.6030  131.5640   58.2860 C   0  0  0  0  0  0  0  0  0  0  0  0
  131.6900  130.0670   59.8300 C   0  0  0  0  0  0  0  0  0  0  0  0
  130.6790  129.4410   60.5530 C   0  0  0  0  0  0  0  0  0  0  0  0
  129.4110  128.6610   69.5620 C   0  0  0  0  0  0  0  0  0  0  0  0
  129.3190  128.1540   70.8550 C   0  0  0  0  0  0  0  0  0  0  0  0
  1  2  1  0
  2  3  1  0
  3  4  2  0
  4  5  1  0
  5  6  2  0
  6  7  1  0
  7  8  2  0
  7  9  1  0
  9 10  1  0
 10 11  1  0
 11 12  2  0
 11 13  1  0
 13 14  1  0
 14 15  1  0
 15 16  2  0
 16 17  1  0
 17 18  2  0
 18 19  1  0
 19 20  2  0
 20 21  1  0
 21 22  2  0
 22 23  1  0
 23 24  1  0
 24 25  2  0
 24 26  2  0
 24 27  1  0
 27 28  2  0
 28 29  1  0
 29 30  2  0
 30 31  1  0
 30 32  1  0
 32 33  2  0
 22 34  1  0
 34 35  2  0
 18 36  1  0
 36 37  1  0
 37 38  2  0
 38 39  1  0
 39 40  2  0
 40 41  1  0
 41 42  1  0
 40 43  1  0
 43 44  2  0
  6 45  1  0
 45 46  2  0
 46  3  1  0
 36 15  1  0
 44 37  1  0
 35 19  1  0
 33 27  1  0
M  END
>  <Binding energies>  (49) 
[-8.31]

>  <Ligand effiencies>  (49) 
[-0.16959183673469388]

>  <Interactions>  (49) 
["H-A:GLY:454:N:4049, V-A:HIS:383:CE1:3393, V-A:LEU:475:CD2:4258, V-A:ILE:369:CG2:3236, V-B:TYR:539:CB:9842, V-A:ASP:366:CG:3212, V-B:TYR:539:CD2:9845, H-A:TYR:484:OH:4347, V-B:GLU:543:CD:9879, V-A:SER:385:CB:3408, V-A:SER:385:CA:3406, V-A:GLY:454:CA:4048, V-B:TYR:539:CG:9843, V-A:HIS:456:CE1:4069, H-A:ASP:366:OD2:3214, H-A:ASP:366:OD1:3213, V-B:HIS:456:CE1:9040, V-B:GLU:543:CB:9877, V-A:PRO:540:CB:4884, V-A:GLU:543:CB:4905, V-A:PRO:540:CA:4882, V-A:GLU:543:CD:4907, H-A:GLU:543:OE2:4909, V-A:GLU:543:CG:4906, V-B:TYR:484:CE2:9316, V-A:LEU:363:CD1:3188, V-A:SER:385:C:3404, V-A:LEU:363:CA:3184, V-A:ALA:541:CB:4891, H-B:TYR:484:OH:9318, V-A:LEU:363:CB:3186"]

$$$$
RR33_Rahimova_2017
     RDKit          3D

 18 19  0  0  0  0  0  0  0  0999 V2000
  132.8030  118.0510   59.1580 C   0  0  0  0  0  0  0  0  0  0  0  0
  132.8880  118.7460   60.5200 C   0  0  0  0  0  0  0  0  0  0  0  0
  133.7410  119.8810   60.4030 O   0  0  0  0  0  0  0  0  0  0  0  0
  133.4920  121.0000   61.1750 C   0  0  0  0  0  0  0  0  0  0  0  0
  133.5070  120.8170   62.5570 C   0  0  0  0  0  0  0  0  0  0  0  0
  133.2630  121.8850   63.4150 C   0  0  0  0  0  0  0  0  0  0  0  0
  133.0000  123.1580   62.9010 C   0  0  0  0  0  0  0  0  0  0  0  0
  132.7370  124.3050   63.8240 C   0  0  0  0  0  0  0  0  0  0  0  0
  133.4010  124.6280   64.9110 N   0  0  0  0  0  0  0  0  0  0  0  0
  132.7980  125.7090   65.3800 C   0  0  0  0  0  0  0  0  0  0  0  0
  133.2930  126.3930   66.6370 C   0  0  0  0  0  0  0  0  0  0  0  0
  134.1440  125.4970   67.4070 N   0  0  0  0  0  0  0  0  0  0  0  0
  135.5440  125.8530   67.2410 C   0  0  0  0  0  0  0  0  0  0  0  0
  131.7360  126.0490   64.5510 C   0  0  0  0  0  0  0  0  0  0  0  0
  130.6950  127.1410   64.5330 C   0  0  0  0  0  0  0  0  0  0  0  0
  131.7010  125.1400   63.5500 O   0  0  0  0  0  0  0  0  0  0  0  0
  132.9870  123.3470   61.5160 C   0  0  0  0  0  0  0  0  0  0  0  0
  133.2300  122.2780   60.6560 C   0  0  0  0  0  0  0  0  0  0  0  0
  1  2  1  0
  2  3  1  0
  3  4  1  0
  4  5  2  0
  5  6  1  0
  6  7  2  0
  7  8  1  0
  8  9  2  0
  9 10  1  0
 10 11  1  0
 11 12  1  0
 12 13  1  0
 10 14  2  0
 14 15  1  0
 14 16  1  0
  7 17  1  0
 17 18  2  0
 18  4  1  0
 16  8  1  0
M  END
>  <Binding energies>  (50) 
[-5.29]

>  <Ligand effiencies>  (50) 
[-0.27842105263157896]

>  <Interactions>  (50) 
["H-A:GLY:454:N:4049, V-A:GLY:453:C:4041, V-A:GLY:453:CA:4043, V-B:TYR:539:CE2:9847, V-A:ARG:545:CD:4922, V-A:LEU:475:CD2:4258, V-A:ILE:369:CG2:3236, V-A:LEU:373:CD2:3280, V-B:TYR:539:CD2:9845, V-A:ARG:545:CG:4921, V-A:ARG:545:CZ:4925, H-A:TYR:484:OH:4347, V-A:ILE:369:CD1:3238, V-A:SER:385:CB:3408, V-A:SER:385:CA:3406, V-A:GLY:454:CA:4048, V-B:TYR:539:CG:9843, V-A:GLU:543:CD:4907, H-A:ILE:455:N:4054, V-A:ILE:455:C:4051, V-A:ARG:545:CB:4920, V-A:SER:385:C:3404, V-A:LEU:373:CG:3278, V-A:LEU:373:CD1:3279, H-A:ILE:455:O:4052"]

$$$$
RR3_Rahimova_2017
     RDKit          3D

 38 44  0  0  0  0  0  0  0  0999 V2000
  128.7870  126.4860   71.3960 C   0  0  0  0  0  0  0  0  0  0  0  0
  128.8590  125.4590   70.4600 C   0  0  0  0  0  0  0  0  0  0  0  0
  129.1040  125.7600   69.1230 C   0  0  0  0  0  0  0  0  0  0  0  0
  129.2820  127.0870   68.7050 C   0  0  0  0  0  0  0  0  0  0  0  0
  129.5470  127.4090   67.2670 C   0  0  0  0  0  0  0  0  0  0  0  0
  130.4950  126.6870   66.5300 C   0  0  0  0  0  0  0  0  0  0  0  0
  130.7440  126.9890   65.1940 C   0  0  0  0  0  0  0  0  0  0  0  0
  130.0530  128.0290   64.5660 C   0  0  0  0  0  0  0  0  0  0  0  0
  130.3190  128.3620   63.1310 C   0  0  0  0  0  0  0  0  0  0  0  0
  130.2190  129.6190   62.7110 N   0  0  0  0  0  0  0  0  0  0  0  0
  130.5480  129.6170   61.4420 C   0  0  0  0  0  0  0  0  0  0  0  0
  130.5750  130.7940   60.5780 C   0  0  0  0  0  0  0  0  0  0  0  0
  129.6940  131.8610   60.6340 C   0  0  0  0  0  0  0  0  0  0  0  0
  130.0190  132.7930   59.6830 N   0  0  0  0  0  0  0  0  0  0  0  0
  131.1200  132.3720   58.9710 C   0  0  0  0  0  0  0  0  0  0  0  0
  131.8100  132.9760   57.9140 C   0  0  0  0  0  0  0  0  0  0  0  0
  132.9040  132.2840   57.3950 C   0  0  0  0  0  0  0  0  0  0  0  0
  133.2970  131.0490   57.8980 C   0  0  0  0  0  0  0  0  0  0  0  0
  132.6100  130.4470   58.9510 C   0  0  0  0  0  0  0  0  0  0  0  0
  131.4990  131.1020   59.5110 C   0  0  0  0  0  0  0  0  0  0  0  0
  130.8590  128.3540   61.0190 N   0  0  0  0  0  0  0  0  0  0  0  0
  130.7010  127.5060   62.0840 C   0  0  0  0  0  0  0  0  0  0  0  0
  130.8960  126.0290   61.9800 C   0  0  0  0  0  0  0  0  0  0  0  0
  132.0160  125.4280   62.5570 C   0  0  0  0  0  0  0  0  0  0  0  0
  132.2080  124.0550   62.4520 C   0  0  0  0  0  0  0  0  0  0  0  0
  131.2840  123.2480   61.7710 C   0  0  0  0  0  0  0  0  0  0  0  0
  131.5040  121.7730   61.6430 C   0  0  0  0  0  0  0  0  0  0  0  0
  130.4210  120.8810   61.6490 C   0  0  0  0  0  0  0  0  0  0  0  0
  130.6260  119.5090   61.5250 C   0  0  0  0  0  0  0  0  0  0  0  0
  131.9190  119.0140   61.3920 C   0  0  0  0  0  0  0  0  0  0  0  0
  133.0070  119.8800   61.3820 C   0  0  0  0  0  0  0  0  0  0  0  0
  132.7990  121.2510   61.5080 C   0  0  0  0  0  0  0  0  0  0  0  0
  130.1550  123.8610   61.2110 C   0  0  0  0  0  0  0  0  0  0  0  0
  129.9590  125.2350   61.3150 C   0  0  0  0  0  0  0  0  0  0  0  0
  129.0970  128.7460   65.2880 C   0  0  0  0  0  0  0  0  0  0  0  0
  128.8510  128.4410   66.6240 C   0  0  0  0  0  0  0  0  0  0  0  0
  129.2040  128.1060   69.6660 C   0  0  0  0  0  0  0  0  0  0  0  0
  128.9590  127.8090   71.0040 C   0  0  0  0  0  0  0  0  0  0  0  0
  1  2  2  0
  2  3  1  0
  3  4  2  0
  4  5  1  0
  5  6  2  0
  6  7  1  0
  7  8  2  0
  8  9  1  0
  9 10  1  0
 10 11  2  0
 11 12  1  0
 12 13  2  0
 13 14  1  0
 14 15  1  0
 15 16  2  0
 16 17  1  0
 17 18  2  0
 18 19  1  0
 19 20  2  0
 11 21  1  0
 21 22  1  0
 22 23  1  0
 23 24  2  0
 24 25  1  0
 25 26  2  0
 26 27  1  0
 27 28  2  0
 28 29  1  0
 29 30  2  0
 30 31  1  0
 31 32  2  0
 26 33  1  0
 33 34  2  0
  8 35  1  0
 35 36  2  0
  4 37  1  0
 37 38  2  0
 38  1  1  0
 36  5  1  0
 22  9  2  0
 34 23  1  0
 20 12  1  0
 32 27  1  0
 20 15  1  0
M  END
>  <Binding energies>  (51) 
[-8.87]

>  <Ligand effiencies>  (51) 
[-0.22174999999999997]

>  <Interactions>  (51) 
["V-A:LEU:475:CD2:4258, V-A:ASP:366:CG:3212, V-B:TYR:539:CD2:9845, V-B:ALA:541:CB:9863, V-B:GLU:543:CD:9879, V-A:SER:385:CB:3408, V-A:SER:385:CA:3406, V-A:HIS:456:CE1:4069, H-A:ASP:366:OD2:3214, V-A:ASP:366:CB:3211, V-A:TYR:484:CE2:4345, V-B:HIS:456:CE1:9040, V-B:GLU:543:CB:9877, V-A:PRO:540:CB:4884, V-A:PRO:540:CA:4882, V-B:GLU:543:C:9873, V-A:GLU:543:CD:4907, V-A:GLU:543:CG:4906, V-A:HIS:456:CD2:4067, V-B:GLU:543:CA:9875, V-A:PRO:540:N:4883, V-A:TYR:531:CE2:4792, V-A:TYR:539:C:4866, V-A:TYR:531:CZ:4793, V-A:LEU:363:CD1:3188, V-A:LEU:363:CA:3184, V-A:PRO:540:CD:4886, H-A:TYR:539:O:4867"]

$$$$
RR4_Rahimova_2017
     RDKit          3D

 40 44  0  0  0  0  0  0  0  0999 V2000
  128.0290  128.6930   75.5590 C   0  0  0  0  0  0  0  0  0  0  0  0
  128.5500  127.5590   74.8740 O   0  0  0  0  0  0  0  0  0  0  0  0
  128.6090  127.5730   73.4940 C   0  0  0  0  0  0  0  0  0  0  0  0
  129.5320  128.4420   72.9160 C   0  0  0  0  0  0  0  0  0  0  0  0
  129.6620  128.5220   71.5330 C   0  0  0  0  0  0  0  0  0  0  0  0
  128.8680  127.7370   70.6840 C   0  0  0  0  0  0  0  0  0  0  0  0
  129.0100  127.8270   69.1920 C   0  0  0  0  0  0  0  0  0  0  0  0
  128.2480  128.7000   68.4100 C   0  0  0  0  0  0  0  0  0  0  0  0
  128.4200  128.7500   67.0200 C   0  0  0  0  0  0  0  0  0  0  0  0
  127.5900  129.7280   66.2540 C   0  0  0  0  0  0  0  0  0  0  0  0
  128.1810  130.8660   65.6970 C   0  0  0  0  0  0  0  0  0  0  0  0
  127.4180  131.7770   64.9710 C   0  0  0  0  0  0  0  0  0  0  0  0
  126.0520  131.5640   64.7830 C   0  0  0  0  0  0  0  0  0  0  0  0
  125.3760  132.5200   64.0490 O   0  0  0  0  0  0  0  0  0  0  0  0
  126.0940  133.3100   63.1070 C   0  0  0  0  0  0  0  0  0  0  0  0
  125.4560  130.4210   65.3350 C   0  0  0  0  0  0  0  0  0  0  0  0
  126.2220  129.5120   66.0600 C   0  0  0  0  0  0  0  0  0  0  0  0
  129.3630  127.8770   66.4260 C   0  0  0  0  0  0  0  0  0  0  0  0
  129.5840  127.8890   64.9770 C   0  0  0  0  0  0  0  0  0  0  0  0
  129.7590  127.8980   63.8330 N   0  0  0  0  0  0  0  0  0  0  0  0
  130.0780  126.9990   67.2730 C   0  0  0  0  0  0  0  0  0  0  0  0
  131.2900  125.8280   66.6990 S   0  0  0  0  0  0  0  0  0  0  0  0
  132.0540  126.5110   65.1900 C   0  0  0  0  0  0  0  0  0  0  0  0
  132.4610  125.4590   64.1500 C   0  0  0  0  0  0  0  0  0  0  0  0
  133.3410  125.7050   63.3220 O   0  0  0  0  0  0  0  0  0  0  0  0
  131.7740  124.2950   64.2230 N   0  0  0  0  0  0  0  0  0  0  0  0
  131.9110  123.1540   63.4280 C   0  0  0  0  0  0  0  0  0  0  0  0
  133.4530  122.5790   62.8510 S   0  0  0  0  0  0  0  0  0  0  0  0
  132.7080  121.2480   62.0200 C   0  0  0  0  0  0  0  0  0  0  0  0
  131.3140  121.2530   62.1820 C   0  0  0  0  0  0  0  0  0  0  0  0
  130.8660  122.3250   62.9920 C   0  0  0  0  0  0  0  0  0  0  0  0
  129.4630  122.5450   63.3310 C   0  0  0  0  0  0  0  0  0  0  0  0
  128.3510  122.7200   63.5980 N   0  0  0  0  0  0  0  0  0  0  0  0
  130.4310  120.1560   61.5750 C   0  0  0  0  0  0  0  0  0  0  0  0
  131.2840  118.9340   61.1660 C   0  0  0  0  0  0  0  0  0  0  0  0
  132.5570  119.3430   60.4050 C   0  0  0  0  0  0  0  0  0  0  0  0
  133.5090  120.1860   61.2790 C   0  0  0  0  0  0  0  0  0  0  0  0
  129.9150  126.9940   68.6160 N   0  0  0  0  0  0  0  0  0  0  0  0
  127.9430  126.8620   71.2760 C   0  0  0  0  0  0  0  0  0  0  0  0
  127.8110  126.7790   72.6590 C   0  0  0  0  0  0  0  0  0  0  0  0
  1  2  1  0
  2  3  1  0
  3  4  2  0
  4  5  1  0
  5  6  2  0
  6  7  1  0
  7  8  2  0
  8  9  1  0
  9 10  1  0
 10 11  2  0
 11 12  1  0
 12 13  2  0
 13 14  1  0
 14 15  1  0
 13 16  1  0
 16 17  2  0
  9 18  2  0
 18 19  1  0
 19 20  3  0
 18 21  1  0
 21 22  1  0
 22 23  1  0
 23 24  1  0
 24 25  2  0
 24 26  1  0
 26 27  1  0
 27 28  1  0
 28 29  1  0
 29 30  2  0
 30 31  1  0
 31 32  1  0
 32 33  3  0
 30 34  1  0
 34 35  1  0
 35 36  1  0
 36 37  1  0
 21 38  2  0
  6 39  1  0
 39 40  2  0
 40  3  1  0
 38  7  1  0
 17 10  1  0
 31 27  2  0
 37 29  1  0
M  END
>  <Binding energies>  (52) 
[-9.21]

>  <Ligand effiencies>  (52) 
[-0.22463414634146345]

>  <Interactions>  (52) 
["H-A:ARG:545:NH2:4927, H-A:ARG:545:NH1:4926, V-B:TYR:539:CE2:9847, V-A:LEU:475:CD2:4258, V-A:ILE:369:CG2:3236, V-B:TYR:539:CD2:9845, V-B:ALA:541:CB:9863, V-A:ARG:545:CZ:4925, H-A:TYR:484:OH:4347, V-B:GLU:543:CD:9879, V-A:SER:385:CB:3408, V-A:SER:385:CA:3406, H-B:ALA:541:N:9862, V-A:GLY:454:CA:4048, V-A:HIS:456:CE1:4069, H-B:GLU:543:OE2:9881, V-B:HIS:456:CE1:9040, V-A:GLU:543:CD:4907, V-A:GLU:543:CG:4906, V-A:SER:385:C:3404, H-B:LYS:547:NZ:9922, V-B:LEU:475:CD1:9228, V-B:HIS:456:CD2:9038"]

$$$$
RR6_Rahimova_2017
     RDKit          3D

 38 41  0  0  0  0  0  0  0  0999 V2000
  132.9430  131.4670   57.5620 C   0  0  0  0  0  0  0  0  0  0  0  0
  132.5540  132.8000   57.8620 O   0  0  0  0  0  0  0  0  0  0  0  0
  131.2440  133.1320   57.9930 C   0  0  0  0  0  0  0  0  0  0  0  0
  130.5900  133.6830   57.1020 O   0  0  0  0  0  0  0  0  0  0  0  0
  130.6680  132.7630   59.3300 C   0  0  0  0  0  0  0  0  0  0  0  0
  129.3090  132.9350   59.6270 C   0  0  0  0  0  0  0  0  0  0  0  0
  128.8070  132.5890   60.8800 C   0  0  0  0  0  0  0  0  0  0  0  0
  129.6620  132.0670   61.8610 C   0  0  0  0  0  0  0  0  0  0  0  0
  129.2670  131.7130   63.1650 N   0  0  0  0  0  0  0  0  0  0  0  0
  128.4140  132.3440   64.0020 C   0  0  0  0  0  0  0  0  0  0  0  0
  127.8000  133.3810   63.7480 O   0  0  0  0  0  0  0  0  0  0  0  0
  128.2710  131.7210   65.3940 C   0  0  0  0  0  0  0  0  0  0  0  0
  127.3560  130.1430   65.4010 S   0  0  0  0  0  0  0  0  0  0  0  0
  128.4430  128.9210   66.1060 C   0  0  0  0  0  0  0  0  0  0  0  0
  128.2230  128.6710   67.4190 N   0  0  0  0  0  0  0  0  0  0  0  0
  128.9710  127.7370   68.0600 C   0  0  0  0  0  0  0  0  0  0  0  0
  128.6230  127.4770   69.4970 C   0  0  0  0  0  0  0  0  0  0  0  0
  127.4770  126.7430   69.8410 C   0  0  0  0  0  0  0  0  0  0  0  0
  127.1480  126.5130   71.1740 C   0  0  0  0  0  0  0  0  0  0  0  0
  127.9640  127.0080   72.1900 C   0  0  0  0  0  0  0  0  0  0  0  0
  127.5960  126.7620   73.6420 C   0  0  0  0  0  0  0  0  0  0  0  0
  129.1070  127.7360   71.8700 C   0  0  0  0  0  0  0  0  0  0  0  0
  129.4320  127.9630   70.5360 C   0  0  0  0  0  0  0  0  0  0  0  0
  129.9750  127.0380   67.3840 C   0  0  0  0  0  0  0  0  0  0  0  0
  130.2250  127.2820   66.0260 C   0  0  0  0  0  0  0  0  0  0  0  0
  131.2990  126.4860   65.3620 C   0  0  0  0  0  0  0  0  0  0  0  0
  131.0630  125.8840   64.1220 C   0  0  0  0  0  0  0  0  0  0  0  0
  132.0650  125.1540   63.4880 C   0  0  0  0  0  0  0  0  0  0  0  0
  133.3210  125.0160   64.0760 C   0  0  0  0  0  0  0  0  0  0  0  0
  134.2530  124.2760   63.3750 O   0  0  0  0  0  0  0  0  0  0  0  0
  133.9850  123.9270   62.0210 C   0  0  0  0  0  0  0  0  0  0  0  0
  133.5650  125.6230   65.3180 C   0  0  0  0  0  0  0  0  0  0  0  0
  132.5610  126.3530   65.9490 C   0  0  0  0  0  0  0  0  0  0  0  0
  129.4400  128.2580   65.3630 C   0  0  0  0  0  0  0  0  0  0  0  0
  129.6680  128.5830   63.9510 C   0  0  0  0  0  0  0  0  0  0  0  0
  129.8460  128.8380   62.8370 N   0  0  0  0  0  0  0  0  0  0  0  0
  131.0120  131.8790   61.5640 C   0  0  0  0  0  0  0  0  0  0  0  0
  131.5130  132.2270   60.3120 C   0  0  0  0  0  0  0  0  0  0  0  0
  1  2  1  0
  2  3  1  0
  3  4  2  0
  3  5  1  0
  5  6  2  0
  6  7  1  0
  7  8  2  0
  8  9  1  0
  9 10  1  0
 10 11  2  0
 10 12  1  0
 12 13  1  0
 13 14  1  0
 14 15  2  0
 15 16  1  0
 16 17  1  0
 17 18  2  0
 18 19  1  0
 19 20  2  0
 20 21  1  0
 20 22  1  0
 22 23  2  0
 16 24  2  0
 24 25  1  0
 25 26  1  0
 26 27  2  0
 27 28  1  0
 28 29  2  0
 29 30  1  0
 30 31  1  0
 29 32  1  0
 32 33  2  0
 25 34  2  0
 34 35  1  0
 35 36  3  0
  8 37  1  0
 37 38  2  0
 38  5  1  0
 34 14  1  0
 23 17  1  0
 33 26  1  0
M  END
>  <Binding energies>  (53) 
[-8.77]

>  <Ligand effiencies>  (53) 
[-0.22487179487179487]

>  <Interactions>  (53) 
["H-A:GLY:454:N:4049, V-A:ASP:366:CG:3212, V-A:ARG:545:CZ:4925, V-A:ILE:369:CD1:3238, V-B:GLU:543:CD:9879, V-A:HIS:456:CE1:4069, V-B:HIS:456:CE1:9040, V-B:GLU:543:CB:9877, V-B:GLY:544:C:9883, V-A:PRO:540:CB:4884, V-A:PRO:540:CA:4882, V-B:GLU:543:C:9873, V-A:GLU:543:CD:4907, H-A:GLU:543:OE2:4909, V-A:GLU:543:CG:4906, V-A:PRO:540:N:4883, V-A:TYR:531:CE2:4792, V-A:TYR:539:C:4866, V-A:TYR:531:CZ:4793, V-A:LEU:363:CD1:3188, V-A:TYR:539:CD1:4872, V-B:LYS:547:CE:9921, V-A:ALA:541:CB:4891, H-A:TYR:539:N:4869, V-A:PRO:540:CD:4886, H-B:TYR:484:OH:9318"]

$$$$
RR7_Rahimova_2017
     RDKit          3D

 47 53  0  0  0  0  0  0  0  0999 V2000
  133.7620  125.8510   66.1520 C   0  0  0  0  0  0  0  0  0  0  0  0
  134.3150  125.7160   64.8470 O   0  0  0  0  0  0  0  0  0  0  0  0
  133.5990  125.0370   63.8800 C   0  0  0  0  0  0  0  0  0  0  0  0
  134.3250  124.1870   63.0480 C   0  0  0  0  0  0  0  0  0  0  0  0
  133.6900  123.4580   62.0490 C   0  0  0  0  0  0  0  0  0  0  0  0
  132.3060  123.5700   61.8490 C   0  0  0  0  0  0  0  0  0  0  0  0
  131.5610  122.7400   60.7580 C   0  0  0  0  0  0  0  0  0  0  0  0
  132.0240  123.2370   59.4820 O   0  0  0  0  0  0  0  0  0  0  0  0
  132.3670  124.6190   59.3320 C   0  0  0  0  0  0  0  0  0  0  0  0
  131.2040  125.3510   58.6430 C   0  0  1  0  0  0  0  0  0  0  0  0
  130.1410  125.4210   59.5900 O   0  0  0  0  0  0  0  0  0  0  0  0
  129.7640  126.7410   59.8570 C   0  0  1  0  0  0  0  0  0  0  0  0
  129.3290  126.8660   61.2350 N   0  0  0  0  0  0  0  0  0  0  0  0
  128.7950  125.8860   62.0530 C   0  0  0  0  0  0  0  0  0  0  0  0
  128.4410  126.2850   63.2500 N   0  0  0  0  0  0  0  0  0  0  0  0
  128.7050  127.6280   63.2370 C   0  0  0  0  0  0  0  0  0  0  0  0
  128.5330  128.6320   64.2100 C   0  0  0  0  0  0  0  0  0  0  0  0
  128.0090  128.2720   65.4660 N   0  0  0  0  0  0  0  0  0  0  0  0
  127.9810  128.9880   66.6150 C   0  0  0  0  0  0  0  0  0  0  0  0
  128.4560  130.1200   66.7400 O   0  0  0  0  0  0  0  0  0  0  0  0
  127.3440  128.2980   67.8020 C   0  0  0  0  0  0  0  0  0  0  0  0
  128.1530  127.6230   68.7290 C   0  0  0  0  0  0  0  0  0  0  0  0
  127.5880  126.9860   69.8300 C   0  0  0  0  0  0  0  0  0  0  0  0
  126.2100  127.0230   70.0180 C   0  0  0  0  0  0  0  0  0  0  0  0
  125.3910  127.6910   69.1120 C   0  0  0  0  0  0  0  0  0  0  0  0
  125.9540  128.3280   68.0090 C   0  0  0  0  0  0  0  0  0  0  0  0
  128.8750  129.9210   63.9080 N   0  0  0  0  0  0  0  0  0  0  0  0
  129.3680  130.1710   62.6670 C   0  0  0  0  0  0  0  0  0  0  0  0
  129.5770  129.2830   61.6590 N   0  0  0  0  0  0  0  0  0  0  0  0
  129.2400  128.0280   61.9860 C   0  0  0  0  0  0  0  0  0  0  0  0
  130.9760  127.5870   59.4860 C   0  0  0  0  0  0  0  0  0  0  0  0
  131.4840  126.8160   58.2790 C   0  0  2  0  0  0  0  0  0  0  0  0
  130.8340  127.2110   57.0840 O   0  0  0  0  0  0  0  0  0  0  0  0
  131.9230  121.2320   60.8140 C   0  0  0  0  0  0  0  0  0  0  0  0
  130.9730  120.2910   61.2420 C   0  0  0  0  0  0  0  0  0  0  0  0
  131.2910  118.9380   61.3100 C   0  0  0  0  0  0  0  0  0  0  0  0
  132.5650  118.5110   60.9510 C   0  0  0  0  0  0  0  0  0  0  0  0
  133.5230  119.4260   60.5240 C   0  0  0  0  0  0  0  0  0  0  0  0
  133.2050  120.7790   60.4570 C   0  0  0  0  0  0  0  0  0  0  0  0
  130.0080  122.7980   60.8050 C   0  0  0  0  0  0  0  0  0  0  0  0
  129.3330  122.7600   62.0350 C   0  0  0  0  0  0  0  0  0  0  0  0
  127.9430  122.8020   62.0880 C   0  0  0  0  0  0  0  0  0  0  0  0
  127.2110  122.8740   60.9060 C   0  0  0  0  0  0  0  0  0  0  0  0
  127.8590  122.8990   59.6750 C   0  0  0  0  0  0  0  0  0  0  0  0
  129.2490  122.8570   59.6250 C   0  0  0  0  0  0  0  0  0  0  0  0
  131.5770  124.4160   62.6980 C   0  0  0  0  0  0  0  0  0  0  0  0
  132.2130  125.1450   63.6980 C   0  0  0  0  0  0  0  0  0  0  0  0
  1  2  1  0
  2  3  1  0
  3  4  2  0
  4  5  1  0
  5  6  2  0
  6  7  1  0
  7  8  1  0
  8  9  1  0
 10  9  1  1
 10 11  1  0
 11 12  1  0
 12 13  1  1
 13 14  1  0
 14 15  2  0
 15 16  1  0
 16 17  2  0
 17 18  1  0
 18 19  1  0
 19 20  2  0
 19 21  1  0
 21 22  2  0
 22 23  1  0
 23 24  2  0
 24 25  1  0
 25 26  2  0
 17 27  1  0
 27 28  2  0
 28 29  1  0
 29 30  2  0
 12 31  1  0
 31 32  1  0
 32 33  1  6
  7 34  1  0
 34 35  2  0
 35 36  1  0
 36 37  2  0
 37 38  1  0
 38 39  2  0
  7 40  1  0
 40 41  2  0
 41 42  1  0
 42 43  2  0
 43 44  1  0
 44 45  2  0
  6 46  1  0
 46 47  2  0
 47  3  1  0
 32 10  1  0
 39 34  1  0
 45 40  1  0
 30 13  1  0
 30 16  1  0
 26 21  1  0
M  END
>  <Binding energies>  (54) 
[-9.67]

>  <Ligand effiencies>  (54) 
[-0.1973469387755102]

>  <Interactions>  (54) 
["H-A:GLY:454:N:4049, H-A:ARG:545:NE:4923, V-A:GLY:453:C:4041, H-A:ARG:545:NH2:4927, V-A:GLY:453:CA:4043, H-A:ARG:545:NH1:4926, V-B:TYR:539:CE2:9847, V-A:ARG:545:CD:4922, V-A:LEU:475:CD2:4258, V-A:ILE:369:CG2:3236, V-A:ASP:366:CG:3212, V-B:TYR:539:CD2:9845, V-A:ARG:545:CG:4921, V-B:ALA:541:CB:9863, V-A:ARG:545:CZ:4925, V-A:ILE:369:CD1:3238, V-B:PRO:540:CB:9856, V-B:GLU:543:CD:9879, V-B:PRO:540:CA:9854, V-A:SER:385:CB:3408, V-A:SER:385:CA:3406, V-A:GLY:454:CA:4048, V-B:PRO:540:C:9852, V-B:ALA:541:CA:9861, V-A:ASP:366:CB:3211, H-B:GLU:543:OE2:9881, V-B:TYR:539:C:9838, H-B:GLU:543:OE1:9880, V-B:HIS:456:CE1:9040, V-B:GLU:543:CB:9877, V-B:GLY:544:C:9883, V-A:GLU:543:CD:4907, V-B:PRO:540:N:9855, H-B:TYR:539:OH:9849, H-A:TYR:531:OH:4794, V-B:ARG:545:CG:9893, V-B:ARG:545:CB:9892, V-B:ARG:545:CA:9890, H-B:TYR:484:OH:9318"]

$$$$
RR8_A_Rahimova_2017
     RDKit          3D

 42 46  0  0  0  0  0  0  0  0999 V2000
  129.6490  128.1280   63.6540 O   0  0  0  0  0  0  0  0  0  0  0  0
  129.9190  126.9610   63.9570 C   0  0  0  0  0  0  0  0  0  0  0  0
  129.2360  125.8660   63.5000 O   0  0  0  0  0  0  0  0  0  0  0  0
  129.9700  124.8770   62.8330 C   0  0  1  0  0  0  0  0  0  0  0  0
  130.1680  123.7500   63.6360 O   0  0  0  0  0  0  0  0  0  0  0  0
  130.0760  122.5420   62.8870 C   0  0  2  0  0  0  0  0  0  0  0  0
  131.3740  121.7400   63.0890 C   0  0  0  0  0  0  0  0  0  0  0  0
  132.1340  121.7880   61.8900 O   0  0  0  0  0  0  0  0  0  0  0  0
  133.1260  120.7740   61.7930 C   0  0  0  0  0  0  0  0  0  0  0  0
  132.6100  119.6290   60.9330 C   0  0  0  0  0  0  0  0  0  0  0  0
  131.4110  118.9940   61.2650 C   0  0  0  0  0  0  0  0  0  0  0  0
  130.9340  117.9500   60.4760 C   0  0  0  0  0  0  0  0  0  0  0  0
  131.6560  117.5450   59.3560 C   0  0  0  0  0  0  0  0  0  0  0  0
  132.8500  118.1770   59.0140 C   0  0  0  0  0  0  0  0  0  0  0  0
  133.3260  119.2220   59.8020 C   0  0  0  0  0  0  0  0  0  0  0  0
  129.8130  123.0210   61.4530 C   0  0  1  0  0  0  0  0  0  0  0  0
  128.8880  122.1960   60.7470 O   0  0  0  0  0  0  0  0  0  0  0  0
  127.5810  122.7340   60.5850 C   0  0  0  0  0  0  0  0  0  0  0  0
  127.2580  122.8770   59.1040 C   0  0  0  0  0  0  0  0  0  0  0  0
  126.0230  123.4010   58.7110 C   0  0  0  0  0  0  0  0  0  0  0  0
  125.7160  123.5260   57.3600 C   0  0  0  0  0  0  0  0  0  0  0  0
  126.6450  123.1230   56.4010 C   0  0  0  0  0  0  0  0  0  0  0  0
  127.8740  122.5930   56.7830 C   0  0  0  0  0  0  0  0  0  0  0  0
  128.1810  122.4660   58.1360 C   0  0  0  0  0  0  0  0  0  0  0  0
  129.1530  124.3730   61.6510 C   0  0  2  0  0  0  0  0  0  0  0  0
  129.2850  125.1730   60.4800 O   0  0  0  0  0  0  0  0  0  0  0  0
  130.3660  126.0990   60.4840 C   0  0  0  0  0  0  0  0  0  0  0  0
  131.5390  125.5280   59.7010 C   0  0  0  0  0  0  0  0  0  0  0  0
  131.8280  126.0060   58.4180 C   0  0  0  0  0  0  0  0  0  0  0  0
  132.9090  125.4880   57.7090 C   0  0  0  0  0  0  0  0  0  0  0  0
  133.7000  124.4960   58.2850 C   0  0  0  0  0  0  0  0  0  0  0  0
  133.4230  124.0190   59.5640 C   0  0  0  0  0  0  0  0  0  0  0  0
  132.3420  124.5370   60.2740 C   0  0  0  0  0  0  0  0  0  0  0  0
  131.0540  126.5970   64.8690 C   0  0  0  0  0  0  0  0  0  0  0  0
  130.9200  126.6190   66.2660 C   0  0  0  0  0  0  0  0  0  0  0  0
  131.9920  126.2770   67.0860 C   0  0  0  0  0  0  0  0  0  0  0  0
  133.2240  125.9050   66.5320 C   0  0  0  0  0  0  0  0  0  0  0  0
  134.3650  125.5380   67.4060 N   0  0  0  0  0  0  0  0  0  0  0  0
  135.4870  125.4730   66.9130 O   0  0  0  0  0  0  0  0  0  0  0  0
  134.1470  125.3140   68.5940 O   0  0  0  0  0  0  0  0  0  0  0  0
  133.3570  125.8850   65.1380 C   0  0  0  0  0  0  0  0  0  0  0  0
  132.2870  126.2270   64.3170 C   0  0  0  0  0  0  0  0  0  0  0  0
  1  2  2  0
  2  3  1  0
  4  3  1  1
  4  5  1  0
  5  6  1  0
  6  7  1  6
  7  8  1  0
  8  9  1  0
  9 10  1  0
 10 11  2  0
 11 12  1  0
 12 13  2  0
 13 14  1  0
 14 15  2  0
  6 16  1  0
 16 17  1  1
 17 18  1  0
 18 19  1  0
 19 20  2  0
 20 21  1  0
 21 22  2  0
 22 23  1  0
 23 24  2  0
 16 25  1  0
 25 26  1  6
 26 27  1  0
 27 28  1  0
 28 29  2  0
 29 30  1  0
 30 31  2  0
 31 32  1  0
 32 33  2  0
  2 34  1  0
 34 35  2  0
 35 36  1  0
 36 37  2  0
 37 38  1  0
 38 39  2  0
 38 40  1  0
 37 41  1  0
 41 42  2  0
 25  4  1  0
 33 28  1  0
 42 34  1  0
 15 10  1  0
 24 19  1  0
M  CHG  2  38   1  40  -1
M  END
>  <Binding energies>  (55) 
[-9.97]

>  <Ligand effiencies>  (55) 
[-0.2373809523809524]

>  <Interactions>  (55) 
["H-A:GLY:454:N:4049, V-A:HIS:383:CE1:3393, V-B:TYR:539:CE2:9847, V-A:ARG:545:CD:4922, V-A:LEU:475:CD2:4258, V-A:ILE:369:CG2:3236, V-B:TYR:539:CB:9842, V-A:ASP:366:CG:3212, V-A:LEU:373:CD2:3280, V-B:TYR:539:CD2:9845, V-A:ARG:545:CG:4921, V-B:ALA:541:CB:9863, V-A:ARG:545:CZ:4925, H-A:TYR:484:OH:4347, V-A:ILE:369:CD1:3238, V-B:PRO:540:CB:9856, V-B:PRO:540:CA:9854, V-A:SER:385:CA:3406, V-B:TYR:539:CG:9843, V-A:HIS:456:CE1:4069, V-B:PRO:540:C:9852, V-B:TYR:539:CZ:9848, V-A:ASP:366:CB:3211, V-A:ILE:369:CB:3235, V-A:ASP:366:C:3207, V-A:ASP:366:CA:3209, V-A:TYR:484:CZ:4346, V-B:TYR:539:C:9838, V-A:GLU:543:CD:4907, V-B:MET:535:CE:9806, V-B:PRO:540:N:9855, V-B:TYR:539:CE1:9846, H-A:HIS:456:ND1:4066, H-A:ILE:455:N:4054, V-A:ILE:455:C:4051, V-A:LEU:373:CG:3278, V-A:LEU:373:CD1:3279, V-B:TYR:539:CA:9840, V-B:TYR:539:CD1:9844"]

$$$$
RR8_B_Rahimova_2017
     RDKit          3D

 42 46  0  0  0  0  0  0  0  0999 V2000
  126.8600  122.8910   63.6290 O   0  0  0  0  0  0  0  0  0  0  0  0
  127.7580  123.2110   62.8440 C   0  0  0  0  0  0  0  0  0  0  0  0
  128.9720  123.7150   63.2230 O   0  0  0  0  0  0  0  0  0  0  0  0
  129.7060  123.0160   64.1970 C   0  0  2  0  0  0  0  0  0  0  0  0
  130.1010  123.8500   65.2500 O   0  0  0  0  0  0  0  0  0  0  0  0
  131.3900  124.4150   65.0130 C   0  0  2  0  0  0  0  0  0  0  0  0
  131.2880  125.9510   65.0330 C   0  0  0  0  0  0  0  0  0  0  0  0
  131.5340  126.4190   66.3540 O   0  0  0  0  0  0  0  0  0  0  0  0
  130.5420  126.0680   67.3070 C   0  0  0  0  0  0  0  0  0  0  0  0
  129.8210  127.3270   67.7650 C   0  0  0  0  0  0  0  0  0  0  0  0
  129.1230  128.1040   66.8360 C   0  0  0  0  0  0  0  0  0  0  0  0
  128.4820  129.2710   67.2440 C   0  0  0  0  0  0  0  0  0  0  0  0
  128.5380  129.6550   68.5830 C   0  0  0  0  0  0  0  0  0  0  0  0
  129.2260  128.8820   69.5150 C   0  0  0  0  0  0  0  0  0  0  0  0
  129.8700  127.7170   69.1070 C   0  0  0  0  0  0  0  0  0  0  0  0
  131.8340  123.8010   63.6810 C   0  0  1  0  0  0  0  0  0  0  0  0
  133.2470  123.5730   63.6990 O   0  0  0  0  0  0  0  0  0  0  0  0
  134.0340  124.2940   62.7480 C   0  0  0  0  0  0  0  0  0  0  0  0
  133.3370  124.4180   61.3960 C   0  0  0  0  0  0  0  0  0  0  0  0
  133.9030  123.8340   60.2590 C   0  0  0  0  0  0  0  0  0  0  0  0
  133.2480  123.9210   59.0340 C   0  0  0  0  0  0  0  0  0  0  0  0
  132.0320  124.5960   58.9480 C   0  0  0  0  0  0  0  0  0  0  0  0
  131.4640  125.1850   60.0760 C   0  0  0  0  0  0  0  0  0  0  0  0
  132.1180  125.0950   61.3030 C   0  0  0  0  0  0  0  0  0  0  0  0
  131.0160  122.5180   63.5880 C   0  0  2  0  0  0  0  0  0  0  0  0
  130.8970  122.1020   62.2300 O   0  0  0  0  0  0  0  0  0  0  0  0
  132.0640  121.5340   61.6570 C   0  0  0  0  0  0  0  0  0  0  0  0
  131.7480  120.1050   61.2500 C   0  0  0  0  0  0  0  0  0  0  0  0
  130.5450  119.5100   61.6410 C   0  0  0  0  0  0  0  0  0  0  0  0
  130.2740  118.1930   61.2790 C   0  0  0  0  0  0  0  0  0  0  0  0
  131.2050  117.4770   60.5300 C   0  0  0  0  0  0  0  0  0  0  0  0
  132.4060  118.0650   60.1360 C   0  0  0  0  0  0  0  0  0  0  0  0
  132.6770  119.3820   60.4970 C   0  0  0  0  0  0  0  0  0  0  0  0
  127.6160  123.1200   61.3520 C   0  0  0  0  0  0  0  0  0  0  0  0
  128.6170  122.5570   60.5470 C   0  0  0  0  0  0  0  0  0  0  0  0
  128.4620  122.4940   59.1670 C   0  0  0  0  0  0  0  0  0  0  0  0
  127.3090  123.0000   58.5540 C   0  0  0  0  0  0  0  0  0  0  0  0
  127.1580  122.9560   57.0790 N   0  0  0  0  0  0  0  0  0  0  0  0
  127.6470  122.0110   56.4650 O   0  0  0  0  0  0  0  0  0  0  0  0
  126.5430  123.8630   56.5230 O   0  0  0  0  0  0  0  0  0  0  0  0
  126.3070  123.5570   59.3590 C   0  0  0  0  0  0  0  0  0  0  0  0
  126.4580  123.6140   60.7410 C   0  0  0  0  0  0  0  0  0  0  0  0
  1  2  2  0
  2  3  1  0
  4  3  1  6
  4  5  1  0
  5  6  1  0
  6  7  1  6
  7  8  1  0
  8  9  1  0
  9 10  1  0
 10 11  2  0
 11 12  1  0
 12 13  2  0
 13 14  1  0
 14 15  2  0
  6 16  1  0
 16 17  1  1
 17 18  1  0
 18 19  1  0
 19 20  2  0
 20 21  1  0
 21 22  2  0
 22 23  1  0
 23 24  2  0
 16 25  1  0
 25 26  1  6
 26 27  1  0
 27 28  1  0
 28 29  2  0
 29 30  1  0
 30 31  2  0
 31 32  1  0
 32 33  2  0
  2 34  1  0
 34 35  2  0
 35 36  1  0
 36 37  2  0
 37 38  1  0
 38 39  2  0
 38 40  1  0
 37 41  1  0
 41 42  2  0
 25  4  1  0
 33 28  1  0
 42 34  1  0
 15 10  1  0
 24 19  1  0
M  CHG  2  38   1  40  -1
M  END
>  <Binding energies>  (56) 
[-10.4]

>  <Ligand effiencies>  (56) 
[-0.24761904761904763]

>  <Interactions>  (56) 
["H-A:GLY:454:N:4049, V-A:HIS:383:CE1:3393, V-B:TYR:539:CE2:9847, V-A:LEU:475:CD2:4258, V-A:ILE:369:CG2:3236, V-B:TYR:539:CB:9842, V-A:ASP:366:CG:3212, V-B:TYR:539:CD2:9845, V-B:ALA:541:CB:9863, H-A:TYR:484:OH:4347, V-A:ILE:369:CD1:3238, V-B:PRO:540:CB:9856, V-B:GLU:543:CD:9879, V-B:PRO:540:CA:9854, V-A:SER:385:CA:3406, H-B:ALA:541:N:9862, V-B:TYR:539:CG:9843, V-A:HIS:456:CE1:4069, V-B:TYR:539:CZ:9848, V-A:ILE:369:CB:3235, V-A:TYR:484:CE2:4345, V-A:TYR:484:CZ:4346, V-B:TYR:539:C:9838, V-B:HIS:456:CE1:9040, V-A:GLU:543:CB:4905, V-A:GLU:543:CD:4907, V-B:MET:535:CE:9806, V-B:PRO:540:N:9855, H-B:TYR:539:N:9841, V-A:GLU:543:CG:4906, V-B:TYR:484:CE2:9316, V-A:PRO:482:CB:4325, H-B:TYR:531:OH:9766, V-A:PRO:482:CG:4326, V-A:ILE:369:CG1:3237"]

$$$$
RR9_Rahimova_2017
     RDKit          3D

 36 40  0  0  0  0  0  0  0  0999 V2000
  132.7040  127.6990   75.1840 C   0  0  0  0  0  0  0  0  0  0  0  0
  131.3160  127.6880   75.8330 C   0  0  0  0  0  0  0  0  0  0  0  0
  130.4950  128.6470   75.1720 O   0  0  0  0  0  0  0  0  0  0  0  0
  130.2230  128.4940   73.8270 C   0  0  0  0  0  0  0  0  0  0  0  0
  130.9350  129.3090   72.9500 C   0  0  0  0  0  0  0  0  0  0  0  0
  130.7250  129.2280   71.5770 C   0  0  0  0  0  0  0  0  0  0  0  0
  129.7940  128.3250   71.0410 C   0  0  0  0  0  0  0  0  0  0  0  0
  129.5600  128.2360   69.5620 C   0  0  0  0  0  0  0  0  0  0  0  0
  130.2570  127.3180   68.7610 C   0  0  0  0  0  0  0  0  0  0  0  0
  130.0240  127.2290   67.3770 C   0  0  0  0  0  0  0  0  0  0  0  0
  130.7280  126.1560   66.5900 C   0  0  0  0  0  0  0  0  0  0  0  0
  130.2370  125.0310   66.4950 O   0  0  0  0  0  0  0  0  0  0  0  0
  131.9070  126.5100   66.0420 N   0  0  0  0  0  0  0  0  0  0  0  0
  132.8350  125.6120   65.3470 C   0  0  0  0  0  0  0  0  0  0  0  0
  132.5680  125.5240   63.8260 C   0  0  0  0  0  0  0  0  0  0  0  0
  132.9030  124.1760   63.1970 C   0  0  0  0  0  0  0  0  0  0  0  0
  132.8540  123.0100   63.9680 C   0  0  0  0  0  0  0  0  0  0  0  0
  133.1280  121.7770   63.3820 C   0  0  0  0  0  0  0  0  0  0  0  0
  133.4550  121.7140   62.0300 C   0  0  0  0  0  0  0  0  0  0  0  0
  133.5100  122.8720   61.2560 C   0  0  0  0  0  0  0  0  0  0  0  0
  133.2350  124.1050   61.8420 C   0  0  0  0  0  0  0  0  0  0  0  0
  129.0800  128.1380   66.8400 C   0  0  0  0  0  0  0  0  0  0  0  0
  128.5180  128.4900   65.5570 C   0  0  0  0  0  0  0  0  0  0  0  0
  128.8620  127.9770   64.1980 C   0  0  0  0  0  0  0  0  0  0  0  0
  130.1690  128.0890   63.7140 C   0  0  0  0  0  0  0  0  0  0  0  0
  130.4840  127.6240   62.4390 C   0  0  0  0  0  0  0  0  0  0  0  0
  129.4940  127.0430   61.6450 C   0  0  0  0  0  0  0  0  0  0  0  0
  129.8330  126.5530   60.2490 C   0  0  0  0  0  0  0  0  0  0  0  0
  128.1880  126.9310   62.1240 C   0  0  0  0  0  0  0  0  0  0  0  0
  127.8750  127.3930   63.3990 C   0  0  0  0  0  0  0  0  0  0  0  0
  127.5960  129.4160   65.6960 N   0  0  0  0  0  0  0  0  0  0  0  0
  127.5410  129.7530   66.9940 N   0  0  0  0  0  0  0  0  0  0  0  0
  128.4310  129.0160   67.7400 C   0  0  0  0  0  0  0  0  0  0  0  0
  128.6370  129.0990   69.0540 N   0  0  0  0  0  0  0  0  0  0  0  0
  129.0800  127.5100   71.9300 C   0  0  0  0  0  0  0  0  0  0  0  0
  129.2890  127.5890   73.3050 C   0  0  0  0  0  0  0  0  0  0  0  0
  1  2  1  0
  2  3  1  0
  3  4  1  0
  4  5  2  0
  5  6  1  0
  6  7  2  0
  7  8  1  0
  8  9  2  0
  9 10  1  0
 10 11  1  0
 11 12  2  0
 11 13  1  0
 13 14  1  0
 14 15  1  0
 15 16  1  0
 16 17  2  0
 17 18  1  0
 18 19  2  0
 19 20  1  0
 20 21  2  0
 10 22  2  0
 22 23  1  0
 23 24  1  0
 24 25  2  0
 25 26  1  0
 26 27  2  0
 27 28  1  0
 27 29  1  0
 29 30  2  0
 23 31  2  0
 31 32  1  0
 32 33  1  0
 33 34  2  0
  7 35  1  0
 35 36  2  0
 36  4  1  0
 34  8  1  0
 21 16  1  0
 33 22  1  0
 30 24  1  0
M  END
>  <Binding energies>  (57) 
[-8.79]

>  <Ligand effiencies>  (57) 
[-0.2313157894736842]

>  <Interactions>  (57) 
["V-A:LEU:475:CD2:4258, V-A:ILE:369:CG2:3236, V-A:ASP:366:CG:3212, V-A:ARG:545:CZ:4925, H-A:TYR:484:OH:4347, V-A:ILE:369:CD1:3238, V-B:GLU:543:CD:9879, V-A:GLY:454:CA:4048, V-A:HIS:456:CE1:4069, V-B:HIS:456:CE1:9040, V-A:GLU:543:CB:4905, V-A:GLU:543:CD:4907, H-A:GLU:543:OE2:4909, V-A:GLU:543:CG:4906, V-A:GLU:543:C:4901, H-A:LYS:547:NZ:4950, H-A:GLU:543:OE1:4908, V-A:GLY:544:CA:4913, V-A:GLY:544:C:4911, V-B:TYR:484:CZ:9317, H-B:TYR:484:OH:9318"]

$$$$
