1a_Grossjean_2025
     RDKit          3D

 26 27  0  0  0  0  0  0  0  0999 V2000
  130.1410  123.9810   73.6410 C   0  0  0  0  0  0  0  0  0  0  0  0
  130.2440  125.5030   73.7690 C   0  0  0  0  0  0  0  0  0  0  0  0
  129.0530  126.0110   74.3580 O   0  0  0  0  0  0  0  0  0  0  0  0
  128.2090  126.8090   73.6540 C   0  0  0  0  0  0  0  0  0  0  0  0
  127.2350  127.3780   74.1570 O   0  0  0  0  0  0  0  0  0  0  0  0
  128.5680  126.9170   72.2000 C   0  0  0  0  0  0  0  0  0  0  0  0
  128.2780  125.8470   71.3430 C   0  0  0  0  0  0  0  0  0  0  0  0
  128.6020  125.9150   69.9920 C   0  0  0  0  0  0  0  0  0  0  0  0
  129.2230  127.0500   69.4680 C   0  0  0  0  0  0  0  0  0  0  0  0
  129.5080  127.0090   68.0890 N   0  0  0  0  0  0  0  0  0  0  0  0
  130.6960  126.9740   67.4490 C   0  0  0  0  0  0  0  0  0  0  0  0
  131.8010  126.9710   67.9920 O   0  0  0  0  0  0  0  0  0  0  0  0
  130.6160  126.9380   65.9220 C   0  0  0  0  0  0  0  0  0  0  0  0
  132.1150  126.2320   65.1740 S   0  0  0  0  0  0  0  0  0  0  0  0
  131.7510  124.5460   64.7360 C   0  0  0  0  0  0  0  0  0  0  0  0
  130.5910  124.0820   65.2630 N   0  0  0  0  0  0  0  0  0  0  0  0
  130.2190  122.8080   64.9970 C   0  0  0  0  0  0  0  0  0  0  0  0
  128.9170  122.3550   65.6310 C   0  0  0  0  0  0  0  0  0  0  0  0
  130.9750  121.9560   64.1950 C   0  0  0  0  0  0  0  0  0  0  0  0
  132.1630  122.4310   63.6290 C   0  0  0  0  0  0  0  0  0  0  0  0
  132.9670  121.4840   62.7410 C   0  0  0  0  0  0  0  0  0  0  0  0
  132.5690  123.7600   63.8900 C   0  0  0  0  0  0  0  0  0  0  0  0
  133.7840  124.2950   63.2690 C   0  0  0  0  0  0  0  0  0  0  0  0
  134.7430  124.7150   62.7780 N   0  0  0  0  0  0  0  0  0  0  0  0
  129.5100  128.1290   70.3180 C   0  0  0  0  0  0  0  0  0  0  0  0
  129.1860  128.0600   71.6690 C   0  0  0  0  0  0  0  0  0  0  0  0
  1  2  1  0
  2  3  1  0
  3  4  1  0
  4  5  2  0
  4  6  1  0
  6  7  2  0
  7  8  1  0
  8  9  2  0
  9 10  1  0
 10 11  1  0
 11 12  2  0
 11 13  1  0
 13 14  1  0
 14 15  1  0
 15 16  2  0
 16 17  1  0
 17 18  1  0
 17 19  2  0
 19 20  1  0
 20 21  1  0
 20 22  2  0
 22 23  1  0
 23 24  3  0
  9 25  1  0
 25 26  2  0
 26  6  1  0
 22 15  1  0
M  END
>  <Binding energies>  (1) 
[-6.81]

>  <Ligand effiencies>  (1) 
[-0.2522222222222222]

>  <Interactions>  (1) 
["H-A:GLY:454:N:4049, V-A:GLY:453:C:4041, H-A:ARG:545:NH2:4927, V-A:LEU:475:CD2:4258, V-B:ALA:541:CB:9863, H-A:TYR:484:OH:4347, V-B:GLU:543:CD:9879, V-B:GLU:543:CG:9878, V-A:GLY:454:CA:4048, V-A:HIS:456:CE1:4069, V-A:TYR:484:CE2:4345, V-A:TYR:484:CZ:4346, V-A:LEU:475:CD1:4257, H-B:GLU:543:OE2:9881, V-B:HIS:456:CE1:9040, V-B:GLU:543:CB:9877, V-B:GLU:543:C:9873, V-B:ALA:541:C:9859, V-A:GLU:543:CD:4907, V-A:HIS:456:CD2:4067, V-B:GLU:543:CA:9875, V-A:HIS:456:CG:4065, H-B:LYS:547:NZ:9922, V-A:LEU:475:CG:4256, V-B:LYS:547:CE:9921"]

$$$$
1aa_Ghoteimi_2023
     RDKit          3D

 40 43  0  0  0  0  0  0  0  0999 V2000
  133.9640  130.7210   57.9050 C   0  0  0  0  0  0  0  0  0  0  0  0
  133.3770  132.1340   57.8500 C   0  0  0  0  0  0  0  0  0  0  0  0
  132.0740  132.0850   57.2820 O   0  0  0  0  0  0  0  0  0  0  0  0
  131.0470  132.7890   57.8220 C   0  0  0  0  0  0  0  0  0  0  0  0
  130.5310  133.7690   57.2760 O   0  0  0  0  0  0  0  0  0  0  0  0
  130.5970  132.2570   59.1530 C   0  0  0  0  0  0  0  0  0  0  0  0
  131.1980  131.1360   59.7460 C   0  0  0  0  0  0  0  0  0  0  0  0
  130.7600  130.6660   60.9820 C   0  0  0  0  0  0  0  0  0  0  0  0
  129.7120  131.3140   61.6510 C   0  0  0  0  0  0  0  0  0  0  0  0
  129.1870  130.9300   62.8990 N   0  0  0  0  0  0  0  0  0  0  0  0
  128.7570  131.6820   63.9380 C   0  0  0  0  0  0  0  0  0  0  0  0
  128.7480  132.9130   63.9590 O   0  0  0  0  0  0  0  0  0  0  0  0
  128.2390  130.9380   65.1790 C   0  0  0  0  0  0  0  0  0  0  0  0
  128.1150  129.5360   64.9080 O   0  0  0  0  0  0  0  0  0  0  0  0
  128.9030  128.6170   65.5860 C   0  0  0  0  0  0  0  0  0  0  0  0
  128.8330  128.5940   66.9460 N   0  0  0  0  0  0  0  0  0  0  0  0
  129.6000  127.7180   67.6470 C   0  0  0  0  0  0  0  0  0  0  0  0
  129.4630  127.7540   69.1420 C   0  0  0  0  0  0  0  0  0  0  0  0
  129.9870  128.8190   69.8900 C   0  0  0  0  0  0  0  0  0  0  0  0
  129.8630  128.8530   71.2760 C   0  0  0  0  0  0  0  0  0  0  0  0
  129.2110  127.8280   71.9570 C   0  0  0  0  0  0  0  0  0  0  0  0
  129.1370  127.9470   73.3320 O   0  0  0  0  0  0  0  0  0  0  0  0
  130.3390  127.9440   74.0950 C   0  0  0  0  0  0  0  0  0  0  0  0
  128.6770  126.7600   71.2240 C   0  0  0  0  0  0  0  0  0  0  0  0
  128.8020  126.7290   69.8380 C   0  0  0  0  0  0  0  0  0  0  0  0
  130.4480  126.8240   66.9840 C   0  0  0  0  0  0  0  0  0  0  0  0
  130.5310  126.8190   65.5850 C   0  0  0  0  0  0  0  0  0  0  0  0
  131.4470  125.8340   64.9380 C   0  0  0  0  0  0  0  0  0  0  0  0
  130.9970  124.5420   64.6460 C   0  0  0  0  0  0  0  0  0  0  0  0
  131.8420  123.6200   64.0340 C   0  0  0  0  0  0  0  0  0  0  0  0
  133.1480  123.9710   63.6960 C   0  0  0  0  0  0  0  0  0  0  0  0
  133.9140  122.9920   63.0920 O   0  0  0  0  0  0  0  0  0  0  0  0
  133.3730  121.6850   62.9360 C   0  0  0  0  0  0  0  0  0  0  0  0
  133.6010  125.2680   63.9790 C   0  0  0  0  0  0  0  0  0  0  0  0
  132.7550  126.1880   64.5920 C   0  0  0  0  0  0  0  0  0  0  0  0
  129.7420  127.7490   64.8680 C   0  0  0  0  0  0  0  0  0  0  0  0
  129.7940  127.8480   63.4090 C   0  0  0  0  0  0  0  0  0  0  0  0
  129.8340  127.9280   62.2550 N   0  0  0  0  0  0  0  0  0  0  0  0
  129.1110  132.4290   61.0620 C   0  0  0  0  0  0  0  0  0  0  0  0
  129.5490  132.8960   59.8270 C   0  0  0  0  0  0  0  0  0  0  0  0
  1  2  1  0
  2  3  1  0
  3  4  1  0
  4  5  2  0
  4  6  1  0
  6  7  2  0
  7  8  1  0
  8  9  2  0
  9 10  1  0
 10 11  1  0
 11 12  2  0
 11 13  1  0
 13 14  1  0
 14 15  1  0
 15 16  2  0
 16 17  1  0
 17 18  1  0
 18 19  2  0
 19 20  1  0
 20 21  2  0
 21 22  1  0
 22 23  1  0
 21 24  1  0
 24 25  2  0
 17 26  2  0
 26 27  1  0
 27 28  1  0
 28 29  2  0
 29 30  1  0
 30 31  2  0
 31 32  1  0
 32 33  1  0
 31 34  1  0
 34 35  2  0
 27 36  2  0
 36 37  1  0
 37 38  3  0
  9 39  1  0
 39 40  2  0
 40  6  1  0
 36 15  1  0
 25 18  1  0
 35 28  1  0
M  END
>  <Binding energies>  (2) 
[-7.38]

>  <Ligand effiencies>  (2) 
[-0.18]

>  <Interactions>  (2) 
["H-A:GLY:454:N:4049, V-A:LEU:475:CD2:4258, V-A:ARG:545:CZ:4925, V-A:GLY:454:CA:4048, V-A:HIS:456:CE1:4069, V-A:ASP:366:CB:3211, V-B:HIS:456:CE1:9040, V-B:GLU:543:CB:9877, V-A:PRO:540:CB:4884, V-A:GLU:543:CB:4905, V-A:PRO:540:CA:4882, V-A:GLU:543:CD:4907, H-A:GLU:543:OE2:4909, V-A:GLU:543:CG:4906, H-A:TYR:531:OH:4794, V-A:GLU:543:C:4901, V-A:PRO:540:N:4883, V-A:TYR:531:CE2:4792, V-A:TYR:539:C:4866, V-A:TYR:531:CZ:4793, V-A:LEU:363:CD1:3188, V-A:LEU:363:CA:3184, V-A:LEU:363:C:3182, H-A:TYR:539:N:4869, V-A:LEU:363:CB:3186"]

$$$$
1b_Grossjean_2025
     RDKit          3D

 25 26  0  0  0  0  0  0  0  0999 V2000
  132.2150  117.5900   58.6640 C   0  0  0  0  0  0  0  0  0  0  0  0
  132.8050  117.1250   59.8710 O   0  0  0  0  0  0  0  0  0  0  0  0
  132.4840  117.6850   61.0650 C   0  0  0  0  0  0  0  0  0  0  0  0
  132.4060  117.0450   62.1180 O   0  0  0  0  0  0  0  0  0  0  0  0
  132.2420  119.1660   60.9810 C   0  0  0  0  0  0  0  0  0  0  0  0
  130.9880  119.7290   61.2600 C   0  0  0  0  0  0  0  0  0  0  0  0
  130.7960  121.1050   61.1720 C   0  0  0  0  0  0  0  0  0  0  0  0
  131.8470  121.9440   60.8040 C   0  0  0  0  0  0  0  0  0  0  0  0
  131.5380  123.3170   60.7460 N   0  0  0  0  0  0  0  0  0  0  0  0
  131.8520  124.2410   59.8110 C   0  0  0  0  0  0  0  0  0  0  0  0
  132.4960  124.0290   58.7840 O   0  0  0  0  0  0  0  0  0  0  0  0
  131.3340  125.6530   60.0870 C   0  0  0  0  0  0  0  0  0  0  0  0
  129.7700  125.6410   61.0140 S   0  0  0  0  0  0  0  0  0  0  0  0
  130.0960  124.8930   62.5950 C   0  0  0  0  0  0  0  0  0  0  0  0
  131.2900  125.2470   63.1310 N   0  0  0  0  0  0  0  0  0  0  0  0
  131.6400  124.7360   64.3350 C   0  0  0  0  0  0  0  0  0  0  0  0
  132.9820  125.1880   64.8790 C   0  0  0  0  0  0  0  0  0  0  0  0
  130.8270  123.8520   65.0410 C   0  0  0  0  0  0  0  0  0  0  0  0
  129.6030  123.4630   64.4860 C   0  0  0  0  0  0  0  0  0  0  0  0
  128.7360  122.4800   65.2710 C   0  0  0  0  0  0  0  0  0  0  0  0
  129.2170  123.9840   63.2300 C   0  0  0  0  0  0  0  0  0  0  0  0
  127.9610  123.5570   62.6090 C   0  0  0  0  0  0  0  0  0  0  0  0
  126.9680  123.2190   62.1220 N   0  0  0  0  0  0  0  0  0  0  0  0
  133.1040  121.3880   60.5230 C   0  0  0  0  0  0  0  0  0  0  0  0
  133.2950  120.0130   60.6120 C   0  0  0  0  0  0  0  0  0  0  0  0
  1  2  1  0
  2  3  1  0
  3  4  2  0
  3  5  1  0
  5  6  2  0
  6  7  1  0
  7  8  2  0
  8  9  1  0
  9 10  1  0
 10 11  2  0
 10 12  1  0
 12 13  1  0
 13 14  1  0
 14 15  2  0
 15 16  1  0
 16 17  1  0
 16 18  2  0
 18 19  1  0
 19 20  1  0
 19 21  2  0
 21 22  1  0
 22 23  3  0
  8 24  1  0
 24 25  2  0
 25  5  1  0
 21 14  1  0
M  END
>  <Binding energies>  (3) 
[-6.7]

>  <Ligand effiencies>  (3) 
[-0.2576923076923077]

>  <Interactions>  (3) 
["V-A:HIS:383:CE1:3393, V-B:TYR:539:CE2:9847, H-A:HIS:383:ND1:3390, V-A:LEU:475:CD2:4258, V-A:ILE:369:CG2:3236, V-B:TYR:539:CB:9842, V-A:ASP:366:CG:3212, V-A:LEU:373:CD2:3280, V-B:TYR:539:CD2:9845, V-B:ALA:541:CB:9863, V-A:ARG:545:CZ:4925, V-B:GLU:543:CD:9879, V-A:SER:385:CB:3408, V-A:SER:385:CA:3406, H-B:ALA:541:N:9862, V-B:GLU:543:CG:9878, V-B:TYR:539:CG:9843, V-A:TYR:484:CZ:4346, V-B:ALA:541:C:9859, H-B:TYR:539:OH:9849, V-A:LEU:373:CG:3278, V-A:LEU:373:CD1:3279"]

$$$$
1c_Grossjean_2025
     RDKit          3D

 23 24  0  0  0  0  0  0  0  0999 V2000
  134.4590  125.6280   66.9300 C   0  0  0  0  0  0  0  0  0  0  0  0
  134.3080  125.6480   65.5150 O   0  0  0  0  0  0  0  0  0  0  0  0
  133.0370  125.6540   64.9740 C   0  0  0  0  0  0  0  0  0  0  0  0
  132.0310  126.2230   65.7540 C   0  0  0  0  0  0  0  0  0  0  0  0
  130.7180  126.2780   65.2950 C   0  0  0  0  0  0  0  0  0  0  0  0
  130.3960  125.7620   64.0310 C   0  0  0  0  0  0  0  0  0  0  0  0
  129.1020  125.7560   63.4740 N   0  0  0  0  0  0  0  0  0  0  0  0
  128.7010  126.1040   62.2330 C   0  0  0  0  0  0  0  0  0  0  0  0
  129.4390  126.4880   61.3250 O   0  0  0  0  0  0  0  0  0  0  0  0
  127.1980  125.9880   61.9720 C   0  0  0  0  0  0  0  0  0  0  0  0
  126.6310  124.2630   62.0290 S   0  0  0  0  0  0  0  0  0  0  0  0
  128.0120  123.2320   62.4780 C   0  0  0  0  0  0  0  0  0  0  0  0
  128.2710  123.2260   63.8100 N   0  0  0  0  0  0  0  0  0  0  0  0
  129.3000  122.4780   64.2710 C   0  0  0  0  0  0  0  0  0  0  0  0
  129.5220  122.5140   65.7720 C   0  0  0  0  0  0  0  0  0  0  0  0
  130.1130  121.7200   63.4320 C   0  0  0  0  0  0  0  0  0  0  0  0
  129.8720  121.7370   62.0550 C   0  0  0  0  0  0  0  0  0  0  0  0
  130.7870  120.9110   61.1530 C   0  0  0  0  0  0  0  0  0  0  0  0
  128.8030  122.5130   61.5500 C   0  0  0  0  0  0  0  0  0  0  0  0
  128.5680  122.5870   60.1050 C   0  0  0  0  0  0  0  0  0  0  0  0
  128.3830  122.6440   58.9650 N   0  0  0  0  0  0  0  0  0  0  0  0
  131.3970  125.1820   63.2510 C   0  0  0  0  0  0  0  0  0  0  0  0
  132.7090  125.1290   63.7140 C   0  0  0  0  0  0  0  0  0  0  0  0
  1  2  1  0
  2  3  1  0
  3  4  2  0
  4  5  1  0
  5  6  2  0
  6  7  1  0
  7  8  1  0
  8  9  2  0
  8 10  1  0
 10 11  1  0
 11 12  1  0
 12 13  2  0
 13 14  1  0
 14 15  1  0
 14 16  2  0
 16 17  1  0
 17 18  1  0
 17 19  2  0
 19 20  1  0
 20 21  3  0
  6 22  1  0
 22 23  2  0
 23  3  1  0
 19 12  1  0
M  END
>  <Binding energies>  (4) 
[-5.87]

>  <Ligand effiencies>  (4) 
[-0.24458333333333335]

>  <Interactions>  (4) 
["H-A:GLY:454:N:4049, H-A:ARG:545:NE:4923, V-A:GLY:453:C:4041, H-A:ARG:545:NH2:4927, V-A:GLY:453:CA:4043, H-A:ARG:545:NH1:4926, V-B:TYR:539:CE2:9847, V-A:ARG:545:CD:4922, V-A:LEU:475:CD2:4258, V-B:TYR:539:CD2:9845, V-A:ARG:545:CG:4921, V-B:ALA:541:CB:9863, V-A:ARG:545:CZ:4925, H-A:TYR:484:OH:4347, V-B:GLU:543:CD:9879, V-B:PRO:540:CA:9854, V-B:GLU:543:CG:9878, V-A:GLY:454:CA:4048, V-A:TYR:484:CE2:4345, V-A:TYR:484:CZ:4346, V-A:LEU:475:CD1:4257, H-B:GLU:543:OE2:9881, V-B:TYR:539:C:9838, H-B:GLU:543:OE1:9880"]

$$$$
1d_Grossjean_2025
     RDKit          3D

 21 22  0  0  0  0  0  0  0  0999 V2000
  134.5290  125.5710   67.2030 C   0  0  0  0  0  0  0  0  0  0  0  0
  133.5800  125.7120   66.0290 C   0  0  0  0  0  0  0  0  0  0  0  0
  132.3750  126.4010   66.1430 C   0  0  0  0  0  0  0  0  0  0  0  0
  131.5430  126.5070   65.0230 C   0  0  0  0  0  0  0  0  0  0  0  0
  130.2340  127.2810   65.1690 C   0  0  0  0  0  0  0  0  0  0  0  0
  131.9410  125.9050   63.8070 C   0  0  0  0  0  0  0  0  0  0  0  0
  131.1090  126.0440   62.6100 C   0  0  0  0  0  0  0  0  0  0  0  0
  130.4500  126.1560   61.6650 N   0  0  0  0  0  0  0  0  0  0  0  0
  133.1700  125.2040   63.7890 C   0  0  0  0  0  0  0  0  0  0  0  0
  133.8220  124.3880   62.3500 S   0  0  0  0  0  0  0  0  0  0  0  0
  134.1050  122.6470   62.7930 C   0  0  0  0  0  0  0  0  0  0  0  0
  133.1480  121.7040   62.0620 C   0  0  0  0  0  0  0  0  0  0  0  0
  131.9600  122.0130   61.9620 O   0  0  0  0  0  0  0  0  0  0  0  0
  133.7130  120.5880   61.5530 N   0  0  0  0  0  0  0  0  0  0  0  0
  133.1250  119.5200   60.8500 C   0  0  0  0  0  0  0  0  0  0  0  0
  132.0760  118.8690   61.5030 C   0  0  0  0  0  0  0  0  0  0  0  0
  131.4220  117.8020   60.8930 C   0  0  0  0  0  0  0  0  0  0  0  0
  131.8130  117.3890   59.6220 C   0  0  0  0  0  0  0  0  0  0  0  0
  132.8510  118.0340   58.9560 C   0  0  0  0  0  0  0  0  0  0  0  0
  133.5080  119.1000   59.5640 C   0  0  0  0  0  0  0  0  0  0  0  0
  133.9790  125.1250   64.8760 N   0  0  0  0  0  0  0  0  0  0  0  0
  1  2  1  0
  2  3  2  0
  3  4  1  0
  4  5  1  0
  4  6  2  0
  6  7  1  0
  7  8  3  0
  6  9  1  0
  9 10  1  0
 10 11  1  0
 11 12  1  0
 12 13  2  0
 12 14  1  0
 14 15  1  0
 15 16  2  0
 16 17  1  0
 17 18  2  0
 18 19  1  0
 19 20  2  0
  9 21  2  0
 21  2  1  0
 20 15  1  0
M  END
>  <Binding energies>  (5) 
[-7.67]

>  <Ligand effiencies>  (5) 
[-0.34863636363636363]

>  <Interactions>  (5) 
["H-A:GLY:454:N:4049, V-A:GLY:453:C:4041, V-A:HIS:383:CE1:3393, V-B:TYR:539:CE2:9847, V-A:ARG:545:CD:4922, V-A:LEU:475:CD2:4258, V-A:ILE:369:CG2:3236, V-B:TYR:539:CB:9842, V-A:LEU:373:CD2:3280, V-B:TYR:539:CD2:9845, V-A:ARG:545:CG:4921, V-A:ARG:545:CZ:4925, H-A:TYR:484:OH:4347, V-A:ILE:369:CD1:3238, V-A:SER:385:CB:3408, V-A:SER:385:CA:3406, V-A:GLY:454:CA:4048, V-B:TYR:539:CG:9843, V-A:VAL:384:C:3396, V-A:GLU:543:CD:4907, V-A:ILE:455:C:4051, V-A:SER:385:C:3404, V-A:LEU:373:CG:3278, V-A:LEU:373:CD1:3279, H-A:SER:385:O:3405"]

$$$$
1e_Grossjean_2025
     RDKit          3D

 22 23  0  0  0  0  0  0  0  0999 V2000
  134.3520  125.8050   67.9580 C   0  0  0  0  0  0  0  0  0  0  0  0
  133.3840  125.8820   66.7920 C   0  0  0  0  0  0  0  0  0  0  0  0
  132.0580  126.2840   66.9680 C   0  0  0  0  0  0  0  0  0  0  0  0
  131.2240  126.3280   65.8500 C   0  0  0  0  0  0  0  0  0  0  0  0
  131.7300  125.9730   64.5970 C   0  0  0  0  0  0  0  0  0  0  0  0
  133.0700  125.5840   64.4900 C   0  0  0  0  0  0  0  0  0  0  0  0
  133.5190  125.2270   63.2060 N   0  0  0  0  0  0  0  0  0  0  0  0
  133.3450  124.0590   62.5500 C   0  0  0  0  0  0  0  0  0  0  0  0
  132.7500  123.0780   62.9990 O   0  0  0  0  0  0  0  0  0  0  0  0
  133.9750  123.9770   61.1580 C   0  0  0  0  0  0  0  0  0  0  0  0
  132.7560  123.5330   59.8840 S   0  0  0  0  0  0  0  0  0  0  0  0
  131.5340  122.4600   60.6140 C   0  0  0  0  0  0  0  0  0  0  0  0
  130.4170  123.1140   61.0210 N   0  0  0  0  0  0  0  0  0  0  0  0
  129.4170  122.4040   61.5940 C   0  0  0  0  0  0  0  0  0  0  0  0
  128.1980  123.2010   62.0160 C   0  0  0  0  0  0  0  0  0  0  0  0
  129.4930  121.0270   61.7950 C   0  0  0  0  0  0  0  0  0  0  0  0
  130.6500  120.3470   61.4020 C   0  0  0  0  0  0  0  0  0  0  0  0
  130.7160  118.8400   61.6490 C   0  0  0  0  0  0  0  0  0  0  0  0
  131.7080  121.0690   60.8040 C   0  0  0  0  0  0  0  0  0  0  0  0
  132.9490  120.3810   60.4400 C   0  0  0  0  0  0  0  0  0  0  0  0
  133.9290  119.8350   60.1540 N   0  0  0  0  0  0  0  0  0  0  0  0
  133.8900  125.5350   65.5810 N   0  0  0  0  0  0  0  0  0  0  0  0
  1  2  1  0
  2  3  2  0
  3  4  1  0
  4  5  2  0
  5  6  1  0
  6  7  1  0
  7  8  1  0
  8  9  2  0
  8 10  1  0
 10 11  1  0
 11 12  1  0
 12 13  2  0
 13 14  1  0
 14 15  1  0
 14 16  2  0
 16 17  1  0
 17 18  1  0
 17 19  2  0
 19 20  1  0
 20 21  3  0
  6 22  2  0
 22  2  1  0
 19 12  1  0
M  END
>  <Binding energies>  (6) 
[-7.03]

>  <Ligand effiencies>  (6) 
[-0.3056521739130435]

>  <Interactions>  (6) 
["H-A:GLY:454:N:4049, H-A:ARG:545:NE:4923, V-B:TYR:539:CE2:9847, V-A:ARG:545:CD:4922, V-A:LEU:475:CD2:4258, V-A:ILE:369:CG2:3236, V-A:ASP:366:CG:3212, V-B:TYR:539:CD2:9845, V-A:ARG:545:CG:4921, V-B:ALA:541:CB:9863, V-A:ARG:545:CZ:4925, H-A:TYR:484:OH:4347, V-A:ILE:369:CD1:3238, V-A:HIS:456:CE1:4069, V-B:ALA:541:CA:9861, H-A:ASP:366:OD2:3214, H-A:ASP:366:OD1:3213, V-A:TYR:484:CZ:4346, V-A:ILE:455:C:4051, V-A:ARG:545:CB:4920"]

$$$$
1f_Grossjean_2025
     RDKit          3D

 21 22  0  0  0  0  0  0  0  0999 V2000
  130.9250  126.8220   67.2950 C   0  0  0  0  0  0  0  0  0  0  0  0
  131.4180  125.8850   66.2080 C   0  0  0  0  0  0  0  0  0  0  0  0
  132.6270  126.1010   65.5530 C   0  0  0  0  0  0  0  0  0  0  0  0
  133.0240  125.2100   64.5500 C   0  0  0  0  0  0  0  0  0  0  0  0
  134.3460  125.4770   63.8330 C   0  0  0  0  0  0  0  0  0  0  0  0
  132.1940  124.1100   64.2330 C   0  0  0  0  0  0  0  0  0  0  0  0
  132.5650  123.1980   63.1480 C   0  0  0  0  0  0  0  0  0  0  0  0
  132.8610  122.4780   62.2920 N   0  0  0  0  0  0  0  0  0  0  0  0
  130.9960  123.9530   64.9700 C   0  0  0  0  0  0  0  0  0  0  0  0
  129.8280  122.6330   64.7130 S   0  0  0  0  0  0  0  0  0  0  0  0
  129.0770  122.8410   63.0620 C   0  0  0  0  0  0  0  0  0  0  0  0
  129.2900  121.6620   62.1010 C   0  0  0  0  0  0  0  0  0  0  0  0
  128.4180  121.3530   61.2880 O   0  0  0  0  0  0  0  0  0  0  0  0
  130.4660  121.0160   62.2570 N   0  0  0  0  0  0  0  0  0  0  0  0
  130.9860  119.9130   61.5530 C   0  0  0  0  0  0  0  0  0  0  0  0
  132.1850  119.9030   60.8160 C   0  0  0  0  0  0  0  0  0  0  0  0
  132.5860  118.7320   60.1660 C   0  0  0  0  0  0  0  0  0  0  0  0
  131.7800  117.5990   60.2710 C   0  0  0  0  0  0  0  0  0  0  0  0
  130.6230  117.5820   60.9800 N   0  0  0  0  0  0  0  0  0  0  0  0
  130.2460  118.7270   61.6060 C   0  0  0  0  0  0  0  0  0  0  0  0
  130.6090  124.8370   65.9240 N   0  0  0  0  0  0  0  0  0  0  0  0
  1  2  1  0
  2  3  2  0
  3  4  1  0
  4  5  1  0
  4  6  2  0
  6  7  1  0
  7  8  3  0
  6  9  1  0
  9 10  1  0
 10 11  1  0
 11 12  1  0
 12 13  2  0
 12 14  1  0
 14 15  1  0
 15 16  2  0
 16 17  1  0
 17 18  2  0
 18 19  1  0
 19 20  2  0
  9 21  2  0
 21  2  1  0
 20 15  1  0
M  END
>  <Binding energies>  (7) 
[-6.12]

>  <Ligand effiencies>  (7) 
[-0.2781818181818182]

>  <Interactions>  (7) 
["V-A:GLY:453:C:4041, V-A:HIS:383:CE1:3393, V-A:GLY:453:CA:4043, V-B:TYR:539:CE2:9847, V-A:LEU:475:CD2:4258, V-A:ASP:366:CG:3212, V-B:TYR:539:CD2:9845, V-B:ALA:541:CB:9863, V-A:ARG:545:CZ:4925, H-A:TYR:484:OH:4347, H-B:ALA:541:N:9862, V-A:HIS:456:CE1:4069, V-B:ALA:541:CA:9861, V-A:TYR:484:CZ:4346, V-A:GLU:543:CD:4907, V-A:PRO:482:CB:4325, V-A:PRO:482:CG:4326"]

$$$$
1g_Grossjean_2025
     RDKit          3D

 22 23  0  0  0  0  0  0  0  0999 V2000
  133.2340  124.6750   64.4910 C   0  0  0  0  0  0  0  0  0  0  0  0
  131.8580  124.2740   63.9940 C   0  0  0  0  0  0  0  0  0  0  0  0
  130.9580  123.5910   64.8090 C   0  0  0  0  0  0  0  0  0  0  0  0
  129.7090  123.2330   64.2910 C   0  0  0  0  0  0  0  0  0  0  0  0
  128.7440  122.4700   65.1990 C   0  0  0  0  0  0  0  0  0  0  0  0
  129.3870  123.5790   62.9590 C   0  0  0  0  0  0  0  0  0  0  0  0
  128.1060  123.1690   62.3790 C   0  0  0  0  0  0  0  0  0  0  0  0
  127.0940  122.8420   61.9230 N   0  0  0  0  0  0  0  0  0  0  0  0
  130.3520  124.2950   62.2130 C   0  0  0  0  0  0  0  0  0  0  0  0
  130.1100  124.8190   60.5300 S   0  0  0  0  0  0  0  0  0  0  0  0
  131.7370  125.2920   59.8720 C   0  0  0  0  0  0  0  0  0  0  0  0
  132.6210  124.0740   59.6000 C   0  0  0  0  0  0  0  0  0  0  0  0
  133.2180  123.9720   58.5270 O   0  0  0  0  0  0  0  0  0  0  0  0
  132.6890  123.1570   60.5810 N   0  0  0  0  0  0  0  0  0  0  0  0
  133.5150  121.9500   60.5580 C   0  0  0  0  0  0  0  0  0  0  0  0
  132.7270  120.6480   60.6630 C   0  0  0  0  0  0  0  0  0  0  0  0
  133.2530  119.4690   60.1260 C   0  0  0  0  0  0  0  0  0  0  0  0
  132.5340  118.2800   60.2220 C   0  0  0  0  0  0  0  0  0  0  0  0
  131.2950  118.2730   60.8600 C   0  0  0  0  0  0  0  0  0  0  0  0
  130.7680  119.4430   61.4010 C   0  0  0  0  0  0  0  0  0  0  0  0
  131.4850  120.6330   61.3040 C   0  0  0  0  0  0  0  0  0  0  0  0
  131.5700  124.6190   62.7160 N   0  0  0  0  0  0  0  0  0  0  0  0
  1  2  1  0
  2  3  2  0
  3  4  1  0
  4  5  1  0
  4  6  2  0
  6  7  1  0
  7  8  3  0
  6  9  1  0
  9 10  1  0
 10 11  1  0
 11 12  1  0
 12 13  2  0
 12 14  1  0
 14 15  1  0
 15 16  1  0
 16 17  2  0
 17 18  1  0
 18 19  2  0
 19 20  1  0
 20 21  2  0
  9 22  2  0
 22  2  1  0
 21 16  1  0
M  END
>  <Binding energies>  (8) 
[-6.65]

>  <Ligand effiencies>  (8) 
[-0.2891304347826087]

>  <Interactions>  (8) 
["V-B:TYR:539:CE2:9847, V-A:LEU:475:CD2:4258, V-A:ILE:369:CG2:3236, V-A:ASP:366:CG:3212, V-B:TYR:539:CD2:9845, V-B:ALA:541:CB:9863, V-A:ILE:369:CD1:3238, V-B:GLU:543:CD:9879, V-A:SER:385:CA:3406, H-B:ALA:541:N:9862, V-B:GLU:543:CG:9878, V-A:GLY:454:CA:4048, V-B:ALA:541:CA:9861, V-A:ILE:369:CB:3235, V-A:TYR:484:CZ:4346, V-B:ALA:541:C:9859, H-B:TYR:539:OH:9849"]

$$$$
1h_Grossjean_2025
     RDKit          3D

 28 29  0  0  0  0  0  0  0  0999 V2000
  129.1960  123.8170   73.5620 C   0  0  0  0  0  0  0  0  0  0  0  0
  128.6940  125.0530   74.0590 O   0  0  0  0  0  0  0  0  0  0  0  0
  129.3160  126.2330   73.6960 C   0  0  0  0  0  0  0  0  0  0  0  0
  129.0850  126.9000   72.4820 C   0  0  0  0  0  0  0  0  0  0  0  0
  129.7600  128.0820   72.1760 C   0  0  0  0  0  0  0  0  0  0  0  0
  129.4830  128.8080   70.8640 C   0  0  0  0  0  0  0  0  0  0  0  0
  129.7790  128.0140   69.6710 N   0  0  0  0  0  0  0  0  0  0  0  0
  129.1360  126.8900   69.3060 C   0  0  0  0  0  0  0  0  0  0  0  0
  128.1920  126.4100   69.9330 O   0  0  0  0  0  0  0  0  0  0  0  0
  129.6390  126.1980   68.0400 C   0  0  0  0  0  0  0  0  0  0  0  0
  131.3560  126.6540   67.6510 S   0  0  0  0  0  0  0  0  0  0  0  0
  131.6500  126.2870   65.9290 C   0  0  0  0  0  0  0  0  0  0  0  0
  130.5910  126.4700   65.0980 N   0  0  0  0  0  0  0  0  0  0  0  0
  130.7460  126.2150   63.7780 C   0  0  0  0  0  0  0  0  0  0  0  0
  129.5210  126.4470   62.9140 C   0  0  0  0  0  0  0  0  0  0  0  0
  131.9490  125.7690   63.2340 C   0  0  0  0  0  0  0  0  0  0  0  0
  133.0460  125.5750   64.0790 C   0  0  0  0  0  0  0  0  0  0  0  0
  134.3550  125.0880   63.4630 C   0  0  0  0  0  0  0  0  0  0  0  0
  132.9060  125.8360   65.4620 C   0  0  0  0  0  0  0  0  0  0  0  0
  134.0380  125.6390   66.3720 C   0  0  0  0  0  0  0  0  0  0  0  0
  134.9320  125.4820   67.0900 N   0  0  0  0  0  0  0  0  0  0  0  0
  130.6480  128.6280   73.1040 C   0  0  0  0  0  0  0  0  0  0  0  0
  130.8940  127.9860   74.3280 C   0  0  0  0  0  0  0  0  0  0  0  0
  131.7610  128.4670   75.2920 O   0  0  0  0  0  0  0  0  0  0  0  0
  133.1290  128.0720   75.2630 C   0  0  0  0  0  0  0  0  0  0  0  0
  130.2300  126.7830   74.6080 C   0  0  0  0  0  0  0  0  0  0  0  0
  130.4550  126.1470   75.8040 O   0  0  0  0  0  0  0  0  0  0  0  0
  131.4620  125.1460   75.7460 C   0  0  0  0  0  0  0  0  0  0  0  0
  1  2  1  0
  2  3  1  0
  3  4  2  0
  4  5  1  0
  5  6  1  0
  6  7  1  0
  7  8  1  0
  8  9  2  0
  8 10  1  0
 10 11  1  0
 11 12  1  0
 12 13  2  0
 13 14  1  0
 14 15  1  0
 14 16  2  0
 16 17  1  0
 17 18  1  0
 17 19  2  0
 19 20  1  0
 20 21  3  0
  5 22  2  0
 22 23  1  0
 23 24  1  0
 24 25  1  0
 23 26  2  0
 26 27  1  0
 27 28  1  0
 26  3  1  0
 19 12  1  0
M  END
>  <Binding energies>  (9) 
[-7.03]

>  <Ligand effiencies>  (9) 
[-0.2424137931034483]

>  <Interactions>  (9) 
["H-A:GLY:454:N:4049, V-A:GLY:453:C:4041, V-A:GLY:453:CA:4043, V-A:ARG:545:CD:4922, V-A:ASP:366:CG:3212, V-A:ARG:545:CG:4921, V-A:ARG:545:CZ:4925, H-A:TYR:484:OH:4347, V-B:GLU:543:CD:9879, V-A:GLY:454:CA:4048, V-A:HIS:456:CE1:4069, V-B:HIS:456:CE1:9040, V-B:GLU:543:CB:9877, H-A:ILE:455:N:4054, H-A:LYS:547:NZ:4950, H-A:GLU:543:OE1:4908, H-B:LYS:547:NZ:9922, V-B:LYS:547:CE:9921, V-A:LYS:547:CE:4949, H-A:HIS:456:NE2:4070, V-A:LYS:547:CD:4948"]

$$$$
1i_Grossjean_2025
     RDKit          3D

 20 21  0  0  0  0  0  0  0  0999 V2000
  134.4340  125.7460   67.0210 C   0  0  0  0  0  0  0  0  0  0  0  0
  133.5240  125.7740   65.8070 C   0  0  0  0  0  0  0  0  0  0  0  0
  132.3070  126.4520   65.8230 C   0  0  0  0  0  0  0  0  0  0  0  0
  131.5140  126.4520   64.6700 C   0  0  0  0  0  0  0  0  0  0  0  0
  130.1920  127.2170   64.7070 C   0  0  0  0  0  0  0  0  0  0  0  0
  131.9620  125.7590   63.5220 C   0  0  0  0  0  0  0  0  0  0  0  0
  131.1710  125.7880   62.2900 C   0  0  0  0  0  0  0  0  0  0  0  0
  130.5450  125.8130   61.3160 N   0  0  0  0  0  0  0  0  0  0  0  0
  133.1990  125.0770   63.6050 C   0  0  0  0  0  0  0  0  0  0  0  0
  133.9130  124.1570   62.2600 S   0  0  0  0  0  0  0  0  0  0  0  0
  134.0250  122.4190   62.7820 C   0  0  0  0  0  0  0  0  0  0  0  0
  133.1540  121.5020   61.9210 C   0  0  0  0  0  0  0  0  0  0  0  0
  131.9690  121.7890   61.7420 O   0  0  0  0  0  0  0  0  0  0  0  0
  133.7770  120.4180   61.4080 N   0  0  0  0  0  0  0  0  0  0  0  0
  133.2240  119.4310   60.6050 C   0  0  0  0  0  0  0  0  0  0  0  0
  132.1210  118.6700   60.9860 C   0  0  0  0  0  0  0  0  0  0  0  0
  131.8900  117.8190   59.9300 C   0  0  0  0  0  0  0  0  0  0  0  0
  132.8080  118.0550   58.9630 O   0  0  0  0  0  0  0  0  0  0  0  0
  133.6490  119.0780   59.4030 N   0  0  0  0  0  0  0  0  0  0  0  0
  133.9710  125.1000   64.7210 N   0  0  0  0  0  0  0  0  0  0  0  0
  1  2  1  0
  2  3  2  0
  3  4  1  0
  4  5  1  0
  4  6  2  0
  6  7  1  0
  7  8  3  0
  6  9  1  0
  9 10  1  0
 10 11  1  0
 11 12  1  0
 12 13  2  0
 12 14  1  0
 14 15  1  0
 15 16  1  0
 16 17  2  0
 17 18  1  0
 18 19  1  0
  9 20  2  0
 20  2  1  0
 19 15  2  0
M  END
>  <Binding energies>  (10) 
[-6.72]

>  <Ligand effiencies>  (10) 
[-0.32]

>  <Interactions>  (10) 
["H-A:GLY:454:N:4049, V-A:HIS:383:CE1:3393, H-A:HIS:383:ND1:3390, V-A:ARG:545:CD:4922, V-A:LEU:475:CD2:4258, V-A:ILE:369:CG2:3236, V-B:TYR:539:CB:9842, V-B:TYR:539:CD2:9845, V-A:ARG:545:CG:4921, V-A:ARG:545:CZ:4925, H-A:TYR:484:OH:4347, V-A:ILE:369:CD1:3238, V-A:SER:385:CB:3408, V-A:SER:385:CA:3406, V-A:GLY:454:CA:4048, V-A:GLU:543:CD:4907, V-A:SER:385:C:3404, H-A:SER:385:O:3405"]

$$$$
1k_Grossjean_2025
     RDKit          3D

 25 25  0  0  0  0  0  0  0  0999 V2000
  129.9360  126.4820   57.2290 C   0  0  0  0  0  0  0  0  0  0  0  0
  131.0290  126.8450   56.4020 O   0  0  0  0  0  0  0  0  0  0  0  0
  132.2460  126.2000   56.7540 C   0  0  0  0  0  0  0  0  0  0  0  0
  132.1900  125.7710   58.2270 C   0  0  0  0  0  0  0  0  0  0  0  0
  132.9030  124.5510   58.3910 O   0  0  0  0  0  0  0  0  0  0  0  0
  132.5990  123.8710   59.6020 C   0  0  0  0  0  0  0  0  0  0  0  0
  131.8140  124.8080   60.5290 C   0  0  0  0  0  0  0  0  0  0  0  0
  130.5520  124.2260   60.8320 O   0  0  0  0  0  0  0  0  0  0  0  0
  130.1930  123.1570   59.9660 C   0  0  0  0  0  0  0  0  0  0  0  0
  130.0070  121.8680   60.7870 C   0  0  0  0  0  0  0  0  0  0  0  0
  129.5700  122.0970   62.1650 N   0  0  0  0  0  0  0  0  0  0  0  0
  128.3700  122.5840   62.5270 C   0  0  0  0  0  0  0  0  0  0  0  0
  127.4950  122.8890   61.7140 O   0  0  0  0  0  0  0  0  0  0  0  0
  128.1500  122.7480   64.0390 C   0  0  0  0  0  0  0  0  0  0  0  0
  129.5860  122.3480   65.0950 S   0  0  0  0  0  0  0  0  0  0  0  0
  130.6890  123.7540   65.1420 C   0  0  0  0  0  0  0  0  0  0  0  0
  130.3640  124.7330   66.0260 N   0  0  0  0  0  0  0  0  0  0  0  0
  131.1520  125.8300   66.1050 C   0  0  0  0  0  0  0  0  0  0  0  0
  130.7190  126.8810   67.1080 C   0  0  0  0  0  0  0  0  0  0  0  0
  132.2920  125.9950   65.3210 C   0  0  0  0  0  0  0  0  0  0  0  0
  132.6420  124.9910   64.4130 C   0  0  0  0  0  0  0  0  0  0  0  0
  133.8950  125.1910   63.5630 C   0  0  0  0  0  0  0  0  0  0  0  0
  131.8300  123.8390   64.3110 C   0  0  0  0  0  0  0  0  0  0  0  0
  132.1700  122.7730   63.3650 C   0  0  0  0  0  0  0  0  0  0  0  0
  132.4400  121.9310   62.6170 N   0  0  0  0  0  0  0  0  0  0  0  0
  1  2  1  0
  2  3  1  0
  3  4  1  0
  4  5  1  0
  5  6  1  0
  6  7  1  0
  7  8  1  0
  8  9  1  0
  9 10  1  0
 10 11  1  0
 11 12  1  0
 12 13  2  0
 12 14  1  0
 14 15  1  0
 15 16  1  0
 16 17  2  0
 17 18  1  0
 18 19  1  0
 18 20  2  0
 20 21  1  0
 21 22  1  0
 21 23  2  0
 23 24  1  0
 24 25  3  0
 23 16  1  0
M  END
>  <Binding energies>  (11) 
[-5.31]

>  <Ligand effiencies>  (11) 
[-0.20423076923076922]

>  <Interactions>  (11) 
["V-A:GLY:453:C:4041, V-A:GLY:453:CA:4043, V-B:TYR:539:CE2:9847, V-A:LEU:475:CD2:4258, V-A:ILE:369:CG2:3236, V-A:ASP:366:CG:3212, V-B:TYR:539:CD2:9845, V-B:ALA:541:CB:9863, V-A:ARG:545:CZ:4925, H-A:TYR:484:OH:4347, V-B:GLU:543:CD:9879, H-B:ALA:541:N:9862, V-B:GLU:543:CG:9878, V-B:ALA:541:CA:9861, V-B:TYR:539:CZ:9848, V-A:ASP:366:CB:3211, V-A:TYR:484:CE2:4345, V-A:TYR:484:CZ:4346, V-B:ALA:541:C:9859, V-A:GLU:543:CD:4907, V-B:MET:535:CE:9806, H-B:TYR:539:OH:9849, H-A:TYR:531:OH:4794, V-A:TYR:531:CE1:4791, V-A:ASN:370:CB:3244, V-A:TYR:531:CZ:4793"]

$$$$
1l_Grossjean_2025
     RDKit          3D

 17 17  0  0  0  0  0  0  0  0999 V2000
  130.9570  128.4460   62.3940 C   0  0  0  0  0  0  0  0  0  0  0  0
  130.8490  129.7530   61.8480 O   0  0  0  0  0  0  0  0  0  0  0  0
  132.0810  130.1560   61.3340 N   0  0  0  0  0  0  0  0  0  0  0  0
  132.3640  131.4710   61.2710 C   0  0  0  0  0  0  0  0  0  0  0  0
  131.7030  132.3410   61.8450 O   0  0  0  0  0  0  0  0  0  0  0  0
  133.6000  131.8330   60.4340 C   0  0  0  0  0  0  0  0  0  0  0  0
  133.3160  131.9080   58.6320 S   0  0  0  0  0  0  0  0  0  0  0  0
  131.8250  130.9980   58.2660 C   0  0  0  0  0  0  0  0  0  0  0  0
  131.8050  129.7060   58.6840 N   0  0  0  0  0  0  0  0  0  0  0  0
  130.7040  128.9560   58.4380 C   0  0  0  0  0  0  0  0  0  0  0  0
  130.7570  127.5250   58.9360 C   0  0  0  0  0  0  0  0  0  0  0  0
  129.5880  129.4570   57.7720 C   0  0  0  0  0  0  0  0  0  0  0  0
  129.5960  130.7870   57.3380 C   0  0  0  0  0  0  0  0  0  0  0  0
  128.3600  131.3150   56.6110 C   0  0  0  0  0  0  0  0  0  0  0  0
  130.7350  131.5860   57.5840 C   0  0  0  0  0  0  0  0  0  0  0  0
  130.7710  132.9830   57.1390 C   0  0  0  0  0  0  0  0  0  0  0  0
  130.7980  134.0840   56.7880 N   0  0  0  0  0  0  0  0  0  0  0  0
  1  2  1  0
  2  3  1  0
  3  4  1  0
  4  5  2  0
  4  6  1  0
  6  7  1  0
  7  8  1  0
  8  9  2  0
  9 10  1  0
 10 11  1  0
 10 12  2  0
 12 13  1  0
 13 14  1  0
 13 15  2  0
 15 16  1  0
 16 17  3  0
 15  8  1  0
M  END
>  <Binding energies>  (12) 
[-5.22]

>  <Ligand effiencies>  (12) 
[-0.29]

>  <Interactions>  (12) 
["H-A:ARG:545:NH2:4927, V-A:ASP:366:CG:3212, H-A:ASP:366:OD2:3214, V-A:PRO:540:CB:4884, V-A:PRO:540:CA:4882, V-A:GLU:543:CD:4907, H-A:TYR:531:OH:4794, V-A:PRO:540:N:4883, V-A:TYR:539:C:4866, V-A:ASN:362:CB:3175, V-A:LEU:363:CA:3184, V-A:ASN:362:C:3171, V-A:TYR:539:CE1:4874, H-A:ALA:541:N:4890, H-A:TYR:539:N:4869"]

$$$$
1m_Grossjean_2025
     RDKit          3D

 20 20  0  0  0  0  0  0  0  0999 V2000
  133.1390  126.2280   66.5710 C   0  0  0  0  0  0  0  0  0  0  0  0
  133.9410  125.5970   65.5820 O   0  0  0  0  0  0  0  0  0  0  0  0
  133.3950  125.1790   64.4210 C   0  0  0  0  0  0  0  0  0  0  0  0
  134.0150  124.6910   63.4720 O   0  0  0  0  0  0  0  0  0  0  0  0
  131.8650  125.3750   64.4130 C   0  0  0  0  0  0  0  0  0  0  0  0
  131.1320  124.1290   64.1400 N   0  0  0  0  0  0  0  0  0  0  0  0
  130.3300  123.4830   65.0080 C   0  0  0  0  0  0  0  0  0  0  0  0
  130.1340  123.8750   66.1610 O   0  0  0  0  0  0  0  0  0  0  0  0
  129.6690  122.2060   64.4740 C   0  0  0  0  0  0  0  0  0  0  0  0
  129.3330  122.2160   62.6790 S   0  0  0  0  0  0  0  0  0  0  0  0
  130.8500  121.8270   61.8330 C   0  0  0  0  0  0  0  0  0  0  0  0
  131.5960  122.9200   61.5270 N   0  0  0  0  0  0  0  0  0  0  0  0
  132.7750  122.7450   60.8870 C   0  0  0  0  0  0  0  0  0  0  0  0
  133.5610  124.0090   60.5950 C   0  0  0  0  0  0  0  0  0  0  0  0
  133.2520  121.4890   60.5180 C   0  0  0  0  0  0  0  0  0  0  0  0
  132.4800  120.3580   60.8050 C   0  0  0  0  0  0  0  0  0  0  0  0
  133.0140  118.9930   60.3770 C   0  0  0  0  0  0  0  0  0  0  0  0
  131.2430  120.5160   61.4720 C   0  0  0  0  0  0  0  0  0  0  0  0
  130.3960  119.3510   61.7380 C   0  0  0  0  0  0  0  0  0  0  0  0
  129.7280  118.4300   61.9490 N   0  0  0  0  0  0  0  0  0  0  0  0
  1  2  1  0
  2  3  1  0
  3  4  2  0
  3  5  1  0
  5  6  1  0
  6  7  1  0
  7  8  2  0
  7  9  1  0
  9 10  1  0
 10 11  1  0
 11 12  2  0
 12 13  1  0
 13 14  1  0
 13 15  2  0
 15 16  1  0
 16 17  1  0
 16 18  2  0
 18 19  1  0
 19 20  3  0
 18 11  1  0
M  END
>  <Binding energies>  (13) 
[-5.59]

>  <Ligand effiencies>  (13) 
[-0.2661904761904762]

>  <Interactions>  (13) 
["H-A:GLY:454:N:4049, H-A:ARG:545:NE:4923, V-B:TYR:539:CE2:9847, V-A:ARG:545:CD:4922, V-A:LEU:475:CD2:4258, V-A:ILE:369:CG2:3236, V-A:ASP:366:CG:3212, V-B:TYR:539:CD2:9845, V-A:ARG:545:CG:4921, V-B:ALA:541:CB:9863, V-A:ARG:545:CZ:4925, H-A:TYR:484:OH:4347, V-A:ILE:369:CD1:3238, V-A:SER:385:CB:3408, V-A:SER:385:CA:3406, V-A:TYR:484:CE2:4345, V-A:TYR:484:CZ:4346, V-A:LEU:475:CD1:4257"]

$$$$
1n_Grossjean_2025
     RDKit          3D

 27 28  0  0  0  0  0  0  0  0999 V2000
  129.8150  133.0850   61.0110 C   0  0  0  0  0  0  0  0  0  0  0  0
  128.7800  132.6150   59.9840 C   0  0  0  0  0  0  0  0  0  0  0  0
  128.9250  133.3700   58.7870 O   0  0  0  0  0  0  0  0  0  0  0  0
  129.8650  133.0440   57.8630 C   0  0  0  0  0  0  0  0  0  0  0  0
  130.2430  133.8160   56.9770 O   0  0  0  0  0  0  0  0  0  0  0  0
  130.4080  131.6540   58.0330 C   0  0  0  0  0  0  0  0  0  0  0  0
  131.7210  131.4190   58.4690 C   0  0  0  0  0  0  0  0  0  0  0  0
  132.1950  130.1180   58.6140 C   0  0  0  0  0  0  0  0  0  0  0  0
  131.3730  129.0290   58.3210 C   0  0  0  0  0  0  0  0  0  0  0  0
  131.9550  127.7580   58.4970 N   0  0  0  0  0  0  0  0  0  0  0  0
  131.9460  126.6830   57.6800 C   0  0  0  0  0  0  0  0  0  0  0  0
  131.4030  126.6300   56.5770 O   0  0  0  0  0  0  0  0  0  0  0  0
  132.6870  125.4460   58.2040 C   0  0  0  0  0  0  0  0  0  0  0  0
  131.9310  124.7220   59.3390 C   0  0  0  0  0  0  0  0  0  0  0  0
  132.8730  123.3910   60.1430 S   0  0  0  0  0  0  0  0  0  0  0  0
  131.7020  122.2180   60.7910 C   0  0  0  0  0  0  0  0  0  0  0  0
  130.5370  122.7820   61.1990 N   0  0  0  0  0  0  0  0  0  0  0  0
  129.5660  121.9810   61.6950 C   0  0  0  0  0  0  0  0  0  0  0  0
  128.2880  122.6800   62.1200 C   0  0  0  0  0  0  0  0  0  0  0  0
  129.7140  120.6010   61.8110 C   0  0  0  0  0  0  0  0  0  0  0  0
  130.9200  120.0120   61.4130 C   0  0  0  0  0  0  0  0  0  0  0  0
  131.0650  118.4990   61.5610 C   0  0  0  0  0  0  0  0  0  0  0  0
  131.9510  120.8290   60.8960 C   0  0  0  0  0  0  0  0  0  0  0  0
  133.2380  120.2410   60.5210 C   0  0  0  0  0  0  0  0  0  0  0  0
  134.2560  119.7740   60.2270 N   0  0  0  0  0  0  0  0  0  0  0  0
  130.0570  129.2560   57.8950 C   0  0  0  0  0  0  0  0  0  0  0  0
  129.5830  130.5580   57.7530 C   0  0  0  0  0  0  0  0  0  0  0  0
  1  2  1  0
  2  3  1  0
  3  4  1  0
  4  5  2  0
  4  6  1  0
  6  7  2  0
  7  8  1  0
  8  9  2  0
  9 10  1  0
 10 11  1  0
 11 12  2  0
 11 13  1  0
 13 14  1  0
 14 15  1  0
 15 16  1  0
 16 17  2  0
 17 18  1  0
 18 19  1  0
 18 20  2  0
 20 21  1  0
 21 22  1  0
 21 23  2  0
 23 24  1  0
 24 25  3  0
  9 26  1  0
 26 27  2  0
 27  6  1  0
 23 16  1  0
M  END
>  <Binding energies>  (14) 
[-7.19]

>  <Ligand effiencies>  (14) 
[-0.2567857142857143]

>  <Interactions>  (14) 
["V-B:TYR:539:CE2:9847, V-A:LEU:475:CD2:4258, V-A:ILE:369:CG2:3236, V-A:ASP:366:CG:3212, V-B:TYR:539:CD2:9845, V-B:ALA:541:CB:9863, V-B:PRO:540:CA:9854, V-A:SER:385:CA:3406, V-B:ALA:541:CA:9861, H-A:ASP:366:OD2:3214, H-A:ASP:366:OD1:3213, V-A:ASP:366:CB:3211, V-A:ASP:366:C:3207, V-A:ASP:366:CA:3209, V-A:PRO:540:CA:4882, H-B:TYR:539:OH:9849, H-A:TYR:531:OH:4794, V-A:PRO:540:N:4883, V-A:TYR:539:C:4866, V-A:TYR:531:CZ:4793, V-A:PRO:540:C:4880, V-A:TYR:539:CD1:4872, V-A:TYR:539:CE1:4874, H-A:TYR:539:N:4869"]

$$$$
1q_Grossjean_2025
     RDKit          3D

 21 21  0  0  0  0  0  0  0  0999 V2000
  134.0400  125.8450   66.5960 C   0  0  0  0  0  0  0  0  0  0  0  0
  133.9990  125.5480   65.2070 O   0  0  0  0  0  0  0  0  0  0  0  0
  132.8340  125.6320   64.5190 C   0  0  0  0  0  0  0  0  0  0  0  0
  132.7300  125.6990   63.2930 O   0  0  0  0  0  0  0  0  0  0  0  0
  131.5770  125.6730   65.4140 C   0  0  0  0  0  0  0  0  0  0  0  0
  130.6040  124.6200   65.0860 N   0  0  0  0  0  0  0  0  0  0  0  0
  130.9000  123.3530   64.7360 C   0  0  0  0  0  0  0  0  0  0  0  0
  132.0550  122.9290   64.6540 O   0  0  0  0  0  0  0  0  0  0  0  0
  129.7010  122.4360   64.4540 C   0  0  0  0  0  0  0  0  0  0  0  0
  128.7540  122.9510   63.3530 C   0  0  0  0  0  0  0  0  0  0  0  0
  128.8270  121.9810   61.8180 S   0  0  0  0  0  0  0  0  0  0  0  0
  130.5360  121.6590   61.4310 C   0  0  0  0  0  0  0  0  0  0  0  0
  131.2840  122.7860   61.3170 N   0  0  0  0  0  0  0  0  0  0  0  0
  132.6000  122.6690   61.0220 C   0  0  0  0  0  0  0  0  0  0  0  0
  133.3660  123.9730   60.8940 C   0  0  0  0  0  0  0  0  0  0  0  0
  133.2230  121.4360   60.8420 C   0  0  0  0  0  0  0  0  0  0  0  0
  132.4680  120.2670   60.9820 C   0  0  0  0  0  0  0  0  0  0  0  0
  133.1780  118.9270   60.7970 C   0  0  0  0  0  0  0  0  0  0  0  0
  131.0930  120.3640   61.2920 C   0  0  0  0  0  0  0  0  0  0  0  0
  130.3000  119.1500   61.4980 C   0  0  0  0  0  0  0  0  0  0  0  0
  129.6770  118.1880   61.6610 N   0  0  0  0  0  0  0  0  0  0  0  0
  1  2  1  0
  2  3  1  0
  3  4  2  0
  3  5  1  0
  5  6  1  0
  6  7  1  0
  7  8  2  0
  7  9  1  0
  9 10  1  0
 10 11  1  0
 11 12  1  0
 12 13  2  0
 13 14  1  0
 14 15  1  0
 14 16  2  0
 16 17  1  0
 17 18  1  0
 17 19  2  0
 19 20  1  0
 20 21  3  0
 19 12  1  0
M  END
>  <Binding energies>  (15) 
[-5.83]

>  <Ligand effiencies>  (15) 
[-0.265]

>  <Interactions>  (15) 
["H-A:GLY:454:N:4049, H-A:ARG:545:NE:4923, H-A:ARG:545:NH2:4927, H-A:ARG:545:NH1:4926, V-B:TYR:539:CE2:9847, V-A:ARG:545:CD:4922, V-A:LEU:475:CD2:4258, V-A:ILE:369:CG2:3236, V-A:ASP:366:CG:3212, V-B:TYR:539:CD2:9845, V-A:ARG:545:CG:4921, V-B:ALA:541:CB:9863, V-A:ARG:545:CZ:4925, H-A:TYR:484:OH:4347, V-A:ILE:369:CD1:3238, V-A:SER:385:CB:3408, V-A:SER:385:CA:3406, H-B:ALA:541:N:9862, V-A:TYR:484:CZ:4346, H-B:GLU:543:OE2:9881"]

$$$$
2a_Grossjean_2025
     RDKit          3D

 29 30  0  0  0  0  0  0  0  0999 V2000
  129.4810  124.2010   73.2390 C   0  0  0  0  0  0  0  0  0  0  0  0
  129.7480  125.7080   73.2960 C   0  0  0  0  0  0  0  0  0  0  0  0
  128.5240  126.3940   73.5290 O   0  0  0  0  0  0  0  0  0  0  0  0
  127.7190  126.7620   72.4990 C   0  0  0  0  0  0  0  0  0  0  0  0
  126.5140  126.9990   72.6260 O   0  0  0  0  0  0  0  0  0  0  0  0
  128.4490  126.8750   71.1910 C   0  0  0  0  0  0  0  0  0  0  0  0
  128.4510  125.8350   70.2500 C   0  0  0  0  0  0  0  0  0  0  0  0
  129.1390  125.9710   69.0480 C   0  0  0  0  0  0  0  0  0  0  0  0
  129.8430  127.1410   68.7630 C   0  0  0  0  0  0  0  0  0  0  0  0
  130.5130  127.1630   67.5260 N   0  0  0  0  0  0  0  0  0  0  0  0
  130.6610  126.1900   66.6020 C   0  0  0  0  0  0  0  0  0  0  0  0
  130.2320  125.0400   66.7000 O   0  0  0  0  0  0  0  0  0  0  0  0
  131.4370  126.5880   65.3420 C   0  0  0  0  0  0  0  0  0  0  0  0
  130.4770  126.3760   63.8060 S   0  0  0  0  0  0  0  0  0  0  0  0
  130.6920  124.7120   63.1840 C   0  0  0  0  0  0  0  0  0  0  0  0
  129.5820  124.1290   62.6640 N   0  0  0  0  0  0  0  0  0  0  0  0
  129.6680  122.8670   62.1870 C   0  0  0  0  0  0  0  0  0  0  0  0
  128.3790  122.2750   61.6470 C   0  0  0  0  0  0  0  0  0  0  0  0
  130.8550  122.1400   62.1980 C   0  0  0  0  0  0  0  0  0  0  0  0
  132.0180  122.7250   62.7220 C   0  0  0  0  0  0  0  0  0  0  0  0
  133.3230  121.9080   62.7260 C   0  0  0  0  0  0  0  0  0  0  0  0
  134.3540  122.6900   62.4090 F   0  0  0  0  0  0  0  0  0  0  0  0
  133.5300  121.3860   63.9360 F   0  0  0  0  0  0  0  0  0  0  0  0
  133.3010  120.8980   61.8520 F   0  0  0  0  0  0  0  0  0  0  0  0
  131.9400  124.0480   63.2290 C   0  0  0  0  0  0  0  0  0  0  0  0
  133.1230  124.7060   63.7920 C   0  0  0  0  0  0  0  0  0  0  0  0
  134.0570  125.2260   64.2360 N   0  0  0  0  0  0  0  0  0  0  0  0
  129.8390  128.1890   69.6950 C   0  0  0  0  0  0  0  0  0  0  0  0
  129.1470  128.0530   70.8960 C   0  0  0  0  0  0  0  0  0  0  0  0
  1  2  1  0
  2  3  1  0
  3  4  1  0
  4  5  2  0
  4  6  1  0
  6  7  2  0
  7  8  1  0
  8  9  2  0
  9 10  1  0
 10 11  1  0
 11 12  2  0
 11 13  1  0
 13 14  1  0
 14 15  1  0
 15 16  2  0
 16 17  1  0
 17 18  1  0
 17 19  2  0
 19 20  1  0
 20 21  1  0
 21 22  1  0
 21 23  1  0
 21 24  1  0
 20 25  2  0
 25 26  1  0
 26 27  3  0
  9 28  1  0
 28 29  2  0
 29  6  1  0
 25 15  1  0
M  END
>  <Binding energies>  (16) 
[-6.6]

>  <Ligand effiencies>  (16) 
[-0.22]

>  <Interactions>  (16) 
["H-A:GLY:454:N:4049, H-A:ARG:545:NH2:4927, H-A:ARG:545:NH1:4926, V-A:LEU:475:CD2:4258, V-B:ALA:541:CB:9863, H-A:TYR:484:OH:4347, V-A:ILE:369:CD1:3238, V-B:GLU:543:CD:9879, V-B:PRO:540:CA:9854, V-A:SER:385:CA:3406, V-A:GLY:454:CA:4048, V-A:HIS:456:CE1:4069, V-B:PRO:540:C:9852, V-B:ALA:541:CA:9861, V-A:TYR:484:CE2:4345, V-B:HIS:456:CE1:9040, V-B:GLU:543:CB:9877, V-A:GLU:543:CB:4905, V-B:GLU:543:C:9873, V-A:GLU:543:CD:4907, V-A:HIS:456:CD2:4067, V-B:GLU:543:CA:9875, H-A:GLU:543:OE1:4908, H-B:LYS:547:NZ:9922, H-B:HIS:456:ND1:9037, V-A:LEU:475:CB:4255"]

$$$$
2b_Grossjean_2025
     RDKit          3D

 28 29  0  0  0  0  0  0  0  0999 V2000
  127.2630  125.2590   57.1380 C   0  0  0  0  0  0  0  0  0  0  0  0
  126.7110  124.0520   56.6320 O   0  0  0  0  0  0  0  0  0  0  0  0
  126.8700  122.8780   57.2960 C   0  0  0  0  0  0  0  0  0  0  0  0
  126.5750  121.7800   56.8150 O   0  0  0  0  0  0  0  0  0  0  0  0
  127.4380  123.0490   58.6750 C   0  0  0  0  0  0  0  0  0  0  0  0
  128.7930  122.8180   58.9540 C   0  0  0  0  0  0  0  0  0  0  0  0
  129.2870  122.9840   60.2450 C   0  0  0  0  0  0  0  0  0  0  0  0
  128.4440  123.3890   61.2790 C   0  0  0  0  0  0  0  0  0  0  0  0
  129.0450  123.5200   62.5450 N   0  0  0  0  0  0  0  0  0  0  0  0
  128.6260  123.0750   63.7490 C   0  0  0  0  0  0  0  0  0  0  0  0
  127.5750  122.4680   63.9580 O   0  0  0  0  0  0  0  0  0  0  0  0
  129.5590  123.3910   64.9230 C   0  0  0  0  0  0  0  0  0  0  0  0
  131.1330  122.4740   64.8550 S   0  0  0  0  0  0  0  0  0  0  0  0
  131.6110  122.2080   63.1530 C   0  0  0  0  0  0  0  0  0  0  0  0
  131.3530  120.9710   62.6550 N   0  0  0  0  0  0  0  0  0  0  0  0
  131.6930  120.6980   61.3750 C   0  0  0  0  0  0  0  0  0  0  0  0
  131.3840  119.2910   60.9000 C   0  0  0  0  0  0  0  0  0  0  0  0
  132.2910  121.6370   60.5400 C   0  0  0  0  0  0  0  0  0  0  0  0
  132.5600  122.9240   61.0310 C   0  0  0  0  0  0  0  0  0  0  0  0
  133.2180  123.9530   60.0920 C   0  0  0  0  0  0  0  0  0  0  0  0
  132.3850  124.9730   59.8780 F   0  0  0  0  0  0  0  0  0  0  0  0
  134.3420  124.4200   60.6390 F   0  0  0  0  0  0  0  0  0  0  0  0
  133.5360  123.4380   58.9030 F   0  0  0  0  0  0  0  0  0  0  0  0
  132.2150  123.2230   62.3740 C   0  0  0  0  0  0  0  0  0  0  0  0
  132.4780  124.5490   62.9410 C   0  0  0  0  0  0  0  0  0  0  0  0
  132.6860  125.5960   63.3880 N   0  0  0  0  0  0  0  0  0  0  0  0
  127.0860  123.6140   61.0110 C   0  0  0  0  0  0  0  0  0  0  0  0
  126.5920  123.4470   59.7200 C   0  0  0  0  0  0  0  0  0  0  0  0
  1  2  1  0
  2  3  1  0
  3  4  2  0
  3  5  1  0
  5  6  2  0
  6  7  1  0
  7  8  2  0
  8  9  1  0
  9 10  1  0
 10 11  2  0
 10 12  1  0
 12 13  1  0
 13 14  1  0
 14 15  2  0
 15 16  1  0
 16 17  1  0
 16 18  2  0
 18 19  1  0
 19 20  1  0
 20 21  1  0
 20 22  1  0
 20 23  1  0
 19 24  2  0
 24 25  1  0
 25 26  3  0
  8 27  1  0
 27 28  2  0
 28  5  1  0
 24 14  1  0
M  END
>  <Binding energies>  (17) 
[-5.87]

>  <Ligand effiencies>  (17) 
[-0.2024137931034483]

>  <Interactions>  (17) 
["H-A:ARG:545:NH2:4927, V-B:TYR:539:CE2:9847, V-A:LEU:475:CD2:4258, V-A:ILE:369:CG2:3236, V-A:ASP:366:CG:3212, V-B:TYR:539:CD2:9845, V-B:ALA:541:CB:9863, H-A:TYR:484:OH:4347, V-A:ILE:369:CD1:3238, V-B:PRO:540:CB:9856, V-B:GLU:543:CD:9879, V-B:PRO:540:CA:9854, H-B:ALA:541:N:9862, V-B:GLU:543:CG:9878, V-B:TYR:539:CG:9843, V-B:TYR:539:CZ:9848, V-A:ASP:366:CB:3211, V-A:ILE:369:CB:3235, V-A:ASP:366:CA:3209, V-B:TYR:539:C:9838, V-B:MET:535:CE:9806, V-B:PRO:540:N:9855, H-B:TYR:539:N:9841, H-B:TYR:531:OH:9766, V-A:ILE:369:CG1:3237"]

$$$$
2c_Grossjean_2025
     RDKit          3D

 26 27  0  0  0  0  0  0  0  0999 V2000
  134.3520  125.8130   67.2420 C   0  0  0  0  0  0  0  0  0  0  0  0
  134.3670  125.8450   65.8190 O   0  0  0  0  0  0  0  0  0  0  0  0
  133.2720  125.3700   65.1230 C   0  0  0  0  0  0  0  0  0  0  0  0
  132.1450  126.1910   65.0990 C   0  0  0  0  0  0  0  0  0  0  0  0
  130.9920  125.7970   64.4250 C   0  0  0  0  0  0  0  0  0  0  0  0
  130.9540  124.5580   63.7680 C   0  0  0  0  0  0  0  0  0  0  0  0
  129.8440  124.0840   63.0470 N   0  0  0  0  0  0  0  0  0  0  0  0
  128.8810  123.2260   63.4490 C   0  0  0  0  0  0  0  0  0  0  0  0
  128.8590  122.6610   64.5440 O   0  0  0  0  0  0  0  0  0  0  0  0
  127.7860  122.9480   62.4080 C   0  0  0  0  0  0  0  0  0  0  0  0
  128.3620  122.2010   60.8430 S   0  0  0  0  0  0  0  0  0  0  0  0
  130.1440  122.3110   60.7520 C   0  0  0  0  0  0  0  0  0  0  0  0
  130.6370  123.4930   60.2970 N   0  0  0  0  0  0  0  0  0  0  0  0
  131.9750  123.6450   60.1930 C   0  0  0  0  0  0  0  0  0  0  0  0
  132.4460  124.9850   59.6620 C   0  0  0  0  0  0  0  0  0  0  0  0
  132.8750  122.6400   60.5410 C   0  0  0  0  0  0  0  0  0  0  0  0
  132.3900  121.4150   61.0200 C   0  0  0  0  0  0  0  0  0  0  0  0
  133.3980  120.3140   61.4030 C   0  0  0  0  0  0  0  0  0  0  0  0
  134.5980  120.5980   60.8960 F   0  0  0  0  0  0  0  0  0  0  0  0
  133.4970  120.2260   62.7300 F   0  0  0  0  0  0  0  0  0  0  0  0
  133.0440  119.1100   60.9460 F   0  0  0  0  0  0  0  0  0  0  0  0
  130.9870  121.2390   61.1300 C   0  0  0  0  0  0  0  0  0  0  0  0
  130.4220  119.9780   61.6220 C   0  0  0  0  0  0  0  0  0  0  0  0
  129.9780  118.9830   62.0110 N   0  0  0  0  0  0  0  0  0  0  0  0
  132.0850  123.7400   63.7750 C   0  0  0  0  0  0  0  0  0  0  0  0
  133.2350  124.1380   64.4500 C   0  0  0  0  0  0  0  0  0  0  0  0
  1  2  1  0
  2  3  1  0
  3  4  2  0
  4  5  1  0
  5  6  2  0
  6  7  1  0
  7  8  1  0
  8  9  2  0
  8 10  1  0
 10 11  1  0
 11 12  1  0
 12 13  2  0
 13 14  1  0
 14 15  1  0
 14 16  2  0
 16 17  1  0
 17 18  1  0
 18 19  1  0
 18 20  1  0
 18 21  1  0
 17 22  2  0
 22 23  1  0
 23 24  3  0
  6 25  1  0
 25 26  2  0
 26  3  1  0
 22 12  1  0
M  END
>  <Binding energies>  (18) 
[-5.49]

>  <Ligand effiencies>  (18) 
[-0.20333333333333334]

>  <Interactions>  (18) 
["H-A:GLY:454:N:4049, H-A:ARG:545:NE:4923, H-A:ARG:545:NH1:4926, V-B:TYR:539:CE2:9847, V-A:ARG:545:CD:4922, V-A:LEU:475:CD2:4258, V-A:ILE:369:CG2:3236, V-A:ASP:366:CG:3212, V-B:TYR:539:CD2:9845, V-A:ARG:545:CG:4921, V-B:ALA:541:CB:9863, V-A:ARG:545:CZ:4925, H-A:TYR:484:OH:4347, V-A:ILE:369:CD1:3238, V-B:GLU:543:CD:9879, V-A:SER:385:CB:3408, V-A:SER:385:CA:3406, H-B:ALA:541:N:9862, V-A:GLY:454:CA:4048, V-B:ALA:541:CA:9861, V-A:ASP:366:CB:3211, V-A:ILE:369:CB:3235, V-A:SER:385:C:3404"]

$$$$
2d_Ghoteimi_2023
     RDKit          3D

 38 42  0  0  0  0  0  0  0  0999 V2000
  133.0370  131.3590   59.4360 C   0  0  0  0  0  0  0  0  0  0  0  0
  131.8960  132.0010   59.9850 O   0  0  0  0  0  0  0  0  0  0  0  0
  131.5070  131.7440   61.2510 C   0  0  0  0  0  0  0  0  0  0  0  0
  130.9660  132.5510   62.0130 O   0  0  0  0  0  0  0  0  0  0  0  0
  131.8140  130.2910   61.6440 C   0  0  0  0  0  0  0  0  0  0  0  0
  130.4720  129.1680   61.1250 S   0  0  0  0  0  0  0  0  0  0  0  0
  130.6190  127.6540   62.0520 C   0  0  0  0  0  0  0  0  0  0  0  0
  130.4490  127.8240   63.3860 N   0  0  0  0  0  0  0  0  0  0  0  0
  130.5410  126.7550   64.2160 C   0  0  0  0  0  0  0  0  0  0  0  0
  130.3590  127.0220   65.6750 C   0  0  0  0  0  0  0  0  0  0  0  0
  129.4800  128.0190   66.1120 C   0  0  0  0  0  0  0  0  0  0  0  0
  129.3060  128.2750   67.4700 C   0  0  0  0  0  0  0  0  0  0  0  0
  129.9970  127.5330   68.4410 C   0  0  0  0  0  0  0  0  0  0  0  0
  129.8470  127.7890   69.8090 N   0  0  0  0  0  0  0  0  0  0  0  0
  130.0280  129.1440   70.3650 C   0  0  0  0  0  0  0  0  0  0  0  0
  130.1940  129.1650   71.8990 C   0  0  0  0  0  0  0  0  0  0  0  0
  129.0950  128.5100   72.5130 O   0  0  0  0  0  0  0  0  0  0  0  0
  129.0020  127.1550   72.1060 C   0  0  0  0  0  0  0  0  0  0  0  0
  128.8080  127.0730   70.5770 C   0  0  0  0  0  0  0  0  0  0  0  0
  130.8870  126.5450   67.9980 C   0  0  0  0  0  0  0  0  0  0  0  0
  131.0630  126.2920   66.6400 C   0  0  0  0  0  0  0  0  0  0  0  0
  130.8050  125.4760   63.7180 C   0  0  0  0  0  0  0  0  0  0  0  0
  130.9520  125.2670   62.3410 C   0  0  0  0  0  0  0  0  0  0  0  0
  131.2040  123.8700   61.8780 C   0  0  0  0  0  0  0  0  0  0  0  0
  130.2160  122.8940   62.0170 C   0  0  0  0  0  0  0  0  0  0  0  0
  130.4360  121.5920   61.5780 C   0  0  0  0  0  0  0  0  0  0  0  0
  131.6570  121.2270   60.9880 C   0  0  0  0  0  0  0  0  0  0  0  0
  131.8960  119.9290   60.5280 N   0  0  0  0  0  0  0  0  0  0  0  0
  131.3690  118.7510   61.2430 C   0  0  0  0  0  0  0  0  0  0  0  0
  131.4210  117.4520   60.4110 C   0  0  0  0  0  0  0  0  0  0  0  0
  132.7450  117.2190   59.9550 O   0  0  0  0  0  0  0  0  0  0  0  0
  133.2140  118.2830   59.1410 C   0  0  0  0  0  0  0  0  0  0  0  0
  133.2110  119.6030   59.9430 C   0  0  0  0  0  0  0  0  0  0  0  0
  132.6370  122.2170   60.8350 C   0  0  0  0  0  0  0  0  0  0  0  0
  132.4160  123.5200   61.2740 C   0  0  0  0  0  0  0  0  0  0  0  0
  130.8520  126.3840   61.4740 C   0  0  0  0  0  0  0  0  0  0  0  0
  130.9790  126.2140   60.0240 C   0  0  0  0  0  0  0  0  0  0  0  0
  131.0800  126.0750   58.8790 N   0  0  0  0  0  0  0  0  0  0  0  0
  1  2  1  0
  2  3  1  0
  3  4  2  0
  3  5  1  0
  5  6  1  0
  6  7  1  0
  7  8  2  0
  8  9  1  0
  9 10  1  0
 10 11  2  0
 11 12  1  0
 12 13  2  0
 13 14  1  0
 14 15  1  0
 15 16  1  0
 16 17  1  0
 17 18  1  0
 18 19  1  0
 13 20  1  0
 20 21  2  0
  9 22  2  0
 22 23  1  0
 23 24  1  0
 24 25  2  0
 25 26  1  0
 26 27  2  0
 27 28  1  0
 28 29  1  0
 29 30  1  0
 30 31  1  0
 31 32  1  0
 32 33  1  0
 27 34  1  0
 34 35  2  0
 23 36  2  0
 36 37  1  0
 37 38  3  0
 36  7  1  0
 21 10  1  0
 35 24  1  0
 19 14  1  0
 33 28  1  0
M  END
>  <Binding energies>  (19) 
[-8.22]

>  <Ligand effiencies>  (19) 
[-0.21631578947368424]

>  <Interactions>  (19) 
["V-A:HIS:383:CE1:3393, H-A:ARG:545:NH2:4927, V-B:TYR:539:CE2:9847, H-A:HIS:383:ND1:3390, V-A:LEU:475:CD2:4258, V-A:ILE:369:CG2:3236, V-B:TYR:539:CB:9842, V-A:ASP:366:CG:3212, V-A:LEU:373:CD2:3280, V-B:TYR:539:CD2:9845, V-B:GLU:543:CD:9879, V-A:SER:385:CA:3406, V-A:VAL:384:C:3396, V-A:HIS:456:CE1:4069, V-B:HIS:456:CE1:9040, V-A:PRO:540:CB:4884, V-A:GLU:543:CB:4905, V-A:PRO:540:CA:4882, V-A:GLU:543:CD:4907, V-A:GLU:543:CG:4906, V-A:GLU:543:C:4901, V-A:LEU:373:CG:3278, V-A:LEU:363:CA:3184, V-A:LEU:373:CD1:3279, H-A:ALA:541:N:4890"]

$$$$
2d_Grossjean_2025
     RDKit          3D

 24 25  0  0  0  0  0  0  0  0999 V2000
  129.0150  122.3430   65.9970 C   0  0  0  0  0  0  0  0  0  0  0  0
  129.6700  122.6310   64.6600 C   0  0  0  0  0  0  0  0  0  0  0  0
  128.9770  122.4810   63.4600 C   0  0  0  0  0  0  0  0  0  0  0  0
  129.6260  122.7650   62.2500 C   0  0  0  0  0  0  0  0  0  0  0  0
  128.8400  122.6040   60.9340 C   0  0  0  0  0  0  0  0  0  0  0  0
  129.4580  121.7310   60.1370 F   0  0  0  0  0  0  0  0  0  0  0  0
  127.6080  122.1590   61.1880 F   0  0  0  0  0  0  0  0  0  0  0  0
  128.7210  123.7490   60.2590 F   0  0  0  0  0  0  0  0  0  0  0  0
  130.9780  123.1900   62.2880 C   0  0  0  0  0  0  0  0  0  0  0  0
  131.6860  123.5420   61.0540 C   0  0  0  0  0  0  0  0  0  0  0  0
  132.2440  123.8220   60.0790 N   0  0  0  0  0  0  0  0  0  0  0  0
  131.6090  123.2890   63.5510 C   0  0  0  0  0  0  0  0  0  0  0  0
  133.3090  123.7760   63.7790 S   0  0  0  0  0  0  0  0  0  0  0  0
  134.3570  122.7870   62.6620 C   0  0  0  0  0  0  0  0  0  0  0  0
  133.8270  121.3660   62.4450 C   0  0  0  0  0  0  0  0  0  0  0  0
  133.9790  120.5290   63.3360 O   0  0  0  0  0  0  0  0  0  0  0  0
  133.2480  121.1350   61.2480 N   0  0  0  0  0  0  0  0  0  0  0  0
  132.6690  119.9510   60.7550 C   0  0  0  0  0  0  0  0  0  0  0  0
  131.4550  119.5750   61.3350 C   0  0  0  0  0  0  0  0  0  0  0  0
  130.8070  118.4150   60.9180 C   0  0  0  0  0  0  0  0  0  0  0  0
  131.3800  117.6240   59.9250 C   0  0  0  0  0  0  0  0  0  0  0  0
  132.5970  117.9810   59.3490 C   0  0  0  0  0  0  0  0  0  0  0  0
  133.2460  119.1410   59.7630 C   0  0  0  0  0  0  0  0  0  0  0  0
  130.9610  123.0310   64.7130 N   0  0  0  0  0  0  0  0  0  0  0  0
  1  2  1  0
  2  3  2  0
  3  4  1  0
  4  5  1  0
  5  6  1  0
  5  7  1  0
  5  8  1  0
  4  9  2  0
  9 10  1  0
 10 11  3  0
  9 12  1  0
 12 13  1  0
 13 14  1  0
 14 15  1  0
 15 16  2  0
 15 17  1  0
 17 18  1  0
 18 19  2  0
 19 20  1  0
 20 21  2  0
 21 22  1  0
 22 23  2  0
 12 24  2  0
 24  2  1  0
 23 18  1  0
M  END
>  <Binding energies>  (20) 
[-6.21]

>  <Ligand effiencies>  (20) 
[-0.2484]

>  <Interactions>  (20) 
["H-A:GLY:454:N:4049, V-A:GLY:453:C:4041, V-A:HIS:383:CE1:3393, V-B:TYR:539:CE2:9847, V-A:LEU:475:CD2:4258, V-A:ILE:369:CG2:3236, V-B:TYR:539:CB:9842, V-A:LEU:373:CD2:3280, V-B:TYR:539:CD2:9845, V-B:ALA:541:CB:9863, H-A:TYR:484:OH:4347, V-A:ILE:369:CD1:3238, V-B:PRO:540:CB:9856, V-B:GLU:543:CD:9879, V-B:PRO:540:CA:9854, V-A:SER:385:CA:3406, V-B:GLU:543:CG:9878, V-A:GLY:454:CA:4048, V-B:TYR:539:CG:9843, V-B:PRO:540:C:9852, V-B:ALA:541:CA:9861, V-A:TYR:484:CE2:4345, V-A:TYR:484:CZ:4346, V-A:LEU:475:CD1:4257, V-B:TYR:539:C:9838, V-B:GLU:543:CB:9877, V-B:PRO:540:N:9855, V-B:GLU:543:CA:9875, V-A:SER:385:C:3404"]

$$$$
2e_Grossjean_2025
     RDKit          3D

 25 26  0  0  0  0  0  0  0  0999 V2000
  129.8210  118.1780   61.6470 C   0  0  0  0  0  0  0  0  0  0  0  0
  131.1130  118.6200   60.9870 C   0  0  0  0  0  0  0  0  0  0  0  0
  131.7070  117.8740   59.9660 C   0  0  0  0  0  0  0  0  0  0  0  0
  132.8900  118.3480   59.3980 C   0  0  0  0  0  0  0  0  0  0  0  0
  133.4470  119.5440   59.8600 C   0  0  0  0  0  0  0  0  0  0  0  0
  132.8050  120.2370   60.8940 C   0  0  0  0  0  0  0  0  0  0  0  0
  133.3840  121.4550   61.2900 N   0  0  0  0  0  0  0  0  0  0  0  0
  133.8850  121.7840   62.5010 C   0  0  0  0  0  0  0  0  0  0  0  0
  133.9810  121.0160   63.4590 O   0  0  0  0  0  0  0  0  0  0  0  0
  134.3160  123.2450   62.6690 C   0  0  0  0  0  0  0  0  0  0  0  0
  133.2700  124.1320   63.8670 S   0  0  0  0  0  0  0  0  0  0  0  0
  131.6220  123.5130   63.6110 C   0  0  0  0  0  0  0  0  0  0  0  0
  130.9810  123.1270   64.7420 N   0  0  0  0  0  0  0  0  0  0  0  0
  129.7400  122.6020   64.6330 C   0  0  0  0  0  0  0  0  0  0  0  0
  129.0810  122.1930   65.9360 C   0  0  0  0  0  0  0  0  0  0  0  0
  129.0980  122.4350   63.4070 C   0  0  0  0  0  0  0  0  0  0  0  0
  129.7520  122.8210   62.2270 C   0  0  0  0  0  0  0  0  0  0  0  0
  129.0380  122.6110   60.8790 C   0  0  0  0  0  0  0  0  0  0  0  0
  128.9770  123.7620   60.2080 F   0  0  0  0  0  0  0  0  0  0  0  0
  129.7020  121.7170   60.1460 F   0  0  0  0  0  0  0  0  0  0  0  0
  127.7880  122.1640   61.0220 F   0  0  0  0  0  0  0  0  0  0  0  0
  131.0510  123.3780   62.3250 C   0  0  0  0  0  0  0  0  0  0  0  0
  131.7980  123.7730   61.1270 C   0  0  0  0  0  0  0  0  0  0  0  0
  132.3880  124.0830   60.1810 N   0  0  0  0  0  0  0  0  0  0  0  0
  131.6430  119.7830   61.4480 N   0  0  0  0  0  0  0  0  0  0  0  0
  1  2  1  0
  2  3  2  0
  3  4  1  0
  4  5  2  0
  5  6  1  0
  6  7  1  0
  7  8  1  0
  8  9  2  0
  8 10  1  0
 10 11  1  0
 11 12  1  0
 12 13  2  0
 13 14  1  0
 14 15  1  0
 14 16  2  0
 16 17  1  0
 17 18  1  0
 18 19  1  0
 18 20  1  0
 18 21  1  0
 17 22  2  0
 22 23  1  0
 23 24  3  0
  6 25  2  0
 25  2  1  0
 22 12  1  0
M  END
>  <Binding energies>  (21) 
[-6.37]

>  <Ligand effiencies>  (21) 
[-0.245]

>  <Interactions>  (21) 
["H-A:GLY:454:N:4049, V-A:GLY:453:C:4041, V-A:HIS:383:CE1:3393, V-B:TYR:539:CE2:9847, V-A:LEU:475:CD2:4258, V-A:ILE:369:CG2:3236, V-B:TYR:539:CB:9842, V-A:LEU:373:CD2:3280, V-B:TYR:539:CD2:9845, V-B:ALA:541:CB:9863, H-A:TYR:484:OH:4347, V-A:ILE:369:CD1:3238, V-B:PRO:540:CB:9856, V-B:GLU:543:CD:9879, V-B:PRO:540:CA:9854, V-A:SER:385:CA:3406, V-B:GLU:543:CG:9878, V-A:GLY:454:CA:4048, V-B:TYR:539:CG:9843, V-B:PRO:540:C:9852, V-B:ALA:541:CA:9861, V-A:TYR:484:CE2:4345, V-A:TYR:484:CZ:4346, V-A:LEU:475:CD1:4257, V-B:TYR:539:C:9838, V-B:GLU:543:CB:9877, V-B:PRO:540:N:9855, V-A:SER:385:C:3404, V-A:PRO:482:CB:4325, V-A:PRO:482:CG:4326"]

$$$$
2f_Grossjean_2025
     RDKit          3D

 24 25  0  0  0  0  0  0  0  0999 V2000
  133.2720  123.9530   60.4450 C   0  0  0  0  0  0  0  0  0  0  0  0
  132.6020  122.6290   60.7580 C   0  0  0  0  0  0  0  0  0  0  0  0
  133.0780  121.4290   60.2350 C   0  0  0  0  0  0  0  0  0  0  0  0
  132.4180  120.2300   60.5470 C   0  0  0  0  0  0  0  0  0  0  0  0
  132.9520  118.9150   59.9500 C   0  0  0  0  0  0  0  0  0  0  0  0
  133.5730  118.2020   60.8920 F   0  0  0  0  0  0  0  0  0  0  0  0
  131.9420  118.1950   59.4590 F   0  0  0  0  0  0  0  0  0  0  0  0
  133.8240  119.1130   58.9590 F   0  0  0  0  0  0  0  0  0  0  0  0
  131.2830  120.2820   61.3980 C   0  0  0  0  0  0  0  0  0  0  0  0
  130.5270  119.0660   61.7070 C   0  0  0  0  0  0  0  0  0  0  0  0
  129.9300  118.1050   61.9510 N   0  0  0  0  0  0  0  0  0  0  0  0
  130.8870  121.5440   61.9030 C   0  0  0  0  0  0  0  0  0  0  0  0
  129.4980  121.7940   62.9890 S   0  0  0  0  0  0  0  0  0  0  0  0
  128.6610  123.3370   62.4920 C   0  0  0  0  0  0  0  0  0  0  0  0
  127.5800  123.1740   61.4130 C   0  0  0  0  0  0  0  0  0  0  0  0
  126.3880  123.1410   61.7180 O   0  0  0  0  0  0  0  0  0  0  0  0
  128.0590  123.0550   60.1550 N   0  0  0  0  0  0  0  0  0  0  0  0
  127.3590  122.9030   58.9430 C   0  0  0  0  0  0  0  0  0  0  0  0
  126.0530  123.3610   58.6910 C   0  0  0  0  0  0  0  0  0  0  0  0
  125.4760  123.1490   57.4380 C   0  0  0  0  0  0  0  0  0  0  0  0
  126.2220  122.4860   56.4630 C   0  0  0  0  0  0  0  0  0  0  0  0
  127.4860  122.0410   56.6780 N   0  0  0  0  0  0  0  0  0  0  0  0
  128.0340  122.2560   57.9010 C   0  0  0  0  0  0  0  0  0  0  0  0
  131.5240  122.6940   61.5720 N   0  0  0  0  0  0  0  0  0  0  0  0
  1  2  1  0
  2  3  2  0
  3  4  1  0
  4  5  1  0
  5  6  1  0
  5  7  1  0
  5  8  1  0
  4  9  2  0
  9 10  1  0
 10 11  3  0
  9 12  1  0
 12 13  1  0
 13 14  1  0
 14 15  1  0
 15 16  2  0
 15 17  1  0
 17 18  1  0
 18 19  2  0
 19 20  1  0
 20 21  2  0
 21 22  1  0
 22 23  2  0
 12 24  2  0
 24  2  1  0
 23 18  1  0
M  END
>  <Binding energies>  (22) 
[-6.79]

>  <Ligand effiencies>  (22) 
[-0.2716]

>  <Interactions>  (22) 
["V-B:TYR:539:CE2:9847, V-A:LEU:475:CD2:4258, V-A:ILE:369:CG2:3236, V-B:TYR:539:CB:9842, V-A:ASP:366:CG:3212, V-A:LEU:373:CD2:3280, V-B:TYR:539:CD2:9845, V-B:ALA:541:CB:9863, V-A:ILE:369:CD1:3238, V-B:PRO:540:CB:9856, V-B:PRO:540:CA:9854, V-A:SER:385:CB:3408, V-A:SER:385:CA:3406, H-B:ALA:541:N:9862, V-B:TYR:539:CG:9843, V-A:VAL:384:C:3396, V-B:TYR:539:CZ:9848, V-B:TYR:539:C:9838, V-B:MET:535:CE:9806, V-B:PRO:540:N:9855, H-B:TYR:539:N:9841, V-A:SER:385:C:3404, V-A:LEU:373:CG:3278, V-B:PRO:540:CD:9858, V-B:TYR:539:CA:9840, H-B:TYR:539:O:9839, V-B:TYR:539:CD1:9844, V-B:LEU:363:CD1:8159"]

$$$$
2g_Grossjean_2025
     RDKit          3D

 25 26  0  0  0  0  0  0  0  0999 V2000
  133.3710  125.4710   64.2690 C   0  0  0  0  0  0  0  0  0  0  0  0
  132.0650  124.8530   63.8090 C   0  0  0  0  0  0  0  0  0  0  0  0
  131.3070  124.0390   64.6480 C   0  0  0  0  0  0  0  0  0  0  0  0
  130.1090  123.4840   64.1730 C   0  0  0  0  0  0  0  0  0  0  0  0
  129.2890  122.5790   65.1130 C   0  0  0  0  0  0  0  0  0  0  0  0
  129.8010  121.3470   65.1310 F   0  0  0  0  0  0  0  0  0  0  0  0
  129.3110  123.0750   66.3510 F   0  0  0  0  0  0  0  0  0  0  0  0
  128.0110  122.4740   64.7430 F   0  0  0  0  0  0  0  0  0  0  0  0
  129.7030  123.7810   62.8470 C   0  0  0  0  0  0  0  0  0  0  0  0
  128.4900  123.1820   62.2830 C   0  0  0  0  0  0  0  0  0  0  0  0
  127.5320  122.7090   61.8380 N   0  0  0  0  0  0  0  0  0  0  0  0
  130.5220  124.6420   62.0770 C   0  0  0  0  0  0  0  0  0  0  0  0
  130.1500  125.1370   60.4080 S   0  0  0  0  0  0  0  0  0  0  0  0
  131.7360  125.4640   59.5670 C   0  0  0  0  0  0  0  0  0  0  0  0
  132.6460  124.2370   59.4140 C   0  0  0  0  0  0  0  0  0  0  0  0
  133.2180  123.9910   58.3500 O   0  0  0  0  0  0  0  0  0  0  0  0
  132.7630  123.4640   60.5080 N   0  0  0  0  0  0  0  0  0  0  0  0
  133.5760  122.2510   60.6090 C   0  0  0  0  0  0  0  0  0  0  0  0
  132.7730  120.9700   60.8090 C   0  0  0  0  0  0  0  0  0  0  0  0
  131.5140  121.0260   61.4130 C   0  0  0  0  0  0  0  0  0  0  0  0
  130.7620  119.8620   61.5620 C   0  0  0  0  0  0  0  0  0  0  0  0
  131.2670  118.6510   61.0980 C   0  0  0  0  0  0  0  0  0  0  0  0
  132.5170  118.5910   60.4830 C   0  0  0  0  0  0  0  0  0  0  0  0
  133.2680  119.7530   60.3330 C   0  0  0  0  0  0  0  0  0  0  0  0
  131.6880  125.1510   62.5450 N   0  0  0  0  0  0  0  0  0  0  0  0
  1  2  1  0
  2  3  2  0
  3  4  1  0
  4  5  1  0
  5  6  1  0
  5  7  1  0
  5  8  1  0
  4  9  2  0
  9 10  1  0
 10 11  3  0
  9 12  1  0
 12 13  1  0
 13 14  1  0
 14 15  1  0
 15 16  2  0
 15 17  1  0
 17 18  1  0
 18 19  1  0
 19 20  2  0
 20 21  1  0
 21 22  2  0
 22 23  1  0
 23 24  2  0
 12 25  2  0
 25  2  1  0
 24 19  1  0
M  END
>  <Binding energies>  (23) 
[-6.3]

>  <Ligand effiencies>  (23) 
[-0.2423076923076923]

>  <Interactions>  (23) 
["V-B:TYR:539:CE2:9847, V-A:LEU:475:CD2:4258, V-A:ILE:369:CG2:3236, V-A:ASP:366:CG:3212, V-B:TYR:539:CD2:9845, V-B:ALA:541:CB:9863, V-A:ARG:545:CZ:4925, V-A:ILE:369:CD1:3238, V-B:GLU:543:CD:9879, V-A:SER:385:CB:3408, V-A:SER:385:CA:3406, H-B:ALA:541:N:9862, V-B:GLU:543:CG:9878, V-B:ALA:541:CA:9861, V-A:ASP:366:CB:3211, V-A:ILE:369:CB:3235, V-A:TYR:484:CE2:4345, V-A:TYR:484:CZ:4346, V-A:LEU:475:CD1:4257, V-B:GLU:543:CB:9877, V-B:ALA:541:C:9859, H-B:TYR:539:OH:9849, V-A:TYR:484:CD2:4343, V-B:GLU:543:CA:9875, V-A:LEU:475:CG:4256"]

$$$$
2h_Grossjean_2025
     RDKit          3D

 31 32  0  0  0  0  0  0  0  0999 V2000
  125.7710  123.7590   62.6340 C   0  0  0  0  0  0  0  0  0  0  0  0
  126.7800  122.9050   62.1080 O   0  0  0  0  0  0  0  0  0  0  0  0
  128.0750  123.0130   62.5830 C   0  0  0  0  0  0  0  0  0  0  0  0
  128.3990  123.3350   63.9110 C   0  0  0  0  0  0  0  0  0  0  0  0
  129.7280  123.4170   64.3180 C   0  0  0  0  0  0  0  0  0  0  0  0
  130.7630  123.1810   63.4110 C   0  0  0  0  0  0  0  0  0  0  0  0
  132.2130  123.2570   63.8850 C   0  0  0  0  0  0  0  0  0  0  0  0
  132.4260  124.2180   64.9680 N   0  0  0  0  0  0  0  0  0  0  0  0
  133.2780  125.2570   64.9190 C   0  0  0  0  0  0  0  0  0  0  0  0
  134.0390  125.4630   63.9720 O   0  0  0  0  0  0  0  0  0  0  0  0
  133.2440  126.1990   66.1310 C   0  0  0  0  0  0  0  0  0  0  0  0
  131.7200  126.1160   67.1290 S   0  0  0  0  0  0  0  0  0  0  0  0
  130.4580  126.9740   66.2130 C   0  0  0  0  0  0  0  0  0  0  0  0
  130.4610  126.6940   64.8860 N   0  0  0  0  0  0  0  0  0  0  0  0
  129.5550  127.3060   64.0930 C   0  0  0  0  0  0  0  0  0  0  0  0
  129.6220  126.9510   62.6190 C   0  0  0  0  0  0  0  0  0  0  0  0
  128.6140  128.2090   64.5830 C   0  0  0  0  0  0  0  0  0  0  0  0
  128.5820  128.4960   65.9560 C   0  0  0  0  0  0  0  0  0  0  0  0
  127.5280  129.4910   66.4810 C   0  0  0  0  0  0  0  0  0  0  0  0
  126.6990  128.8730   67.3230 F   0  0  0  0  0  0  0  0  0  0  0  0
  128.0700  130.5200   67.1350 F   0  0  0  0  0  0  0  0  0  0  0  0
  126.8210  129.9880   65.4650 F   0  0  0  0  0  0  0  0  0  0  0  0
  129.5220  127.8560   66.8030 C   0  0  0  0  0  0  0  0  0  0  0  0
  129.4920  128.0760   68.2520 C   0  0  0  0  0  0  0  0  0  0  0  0
  129.4640  128.2490   69.3950 N   0  0  0  0  0  0  0  0  0  0  0  0
  130.4550  122.8820   62.0750 C   0  0  0  0  0  0  0  0  0  0  0  0
  131.4680  122.6510   61.1750 O   0  0  0  0  0  0  0  0  0  0  0  0
  131.9910  123.8250   60.5670 C   0  0  0  0  0  0  0  0  0  0  0  0
  129.1130  122.7800   61.6710 C   0  0  0  0  0  0  0  0  0  0  0  0
  128.8070  122.4680   60.3670 O   0  0  0  0  0  0  0  0  0  0  0  0
  128.3900  123.5800   59.5870 C   0  0  0  0  0  0  0  0  0  0  0  0
  1  2  1  0
  2  3  1  0
  3  4  2  0
  4  5  1  0
  5  6  2  0
  6  7  1  0
  7  8  1  0
  8  9  1  0
  9 10  2  0
  9 11  1  0
 11 12  1  0
 12 13  1  0
 13 14  2  0
 14 15  1  0
 15 16  1  0
 15 17  2  0
 17 18  1  0
 18 19  1  0
 19 20  1  0
 19 21  1  0
 19 22  1  0
 18 23  2  0
 23 24  1  0
 24 25  3  0
  6 26  1  0
 26 27  1  0
 27 28  1  0
 26 29  2  0
 29 30  1  0
 30 31  1  0
 29  3  1  0
 23 13  1  0
M  END
>  <Binding energies>  (24) 
[-5.22]

>  <Ligand effiencies>  (24) 
[-0.163125]

>  <Interactions>  (24) 
["H-A:GLY:454:N:4049, H-A:ARG:545:NH2:4927, H-A:ARG:545:NH1:4926, V-B:TYR:539:CE2:9847, V-A:ARG:545:CD:4922, V-A:ARG:545:CG:4921, V-B:ALA:541:CB:9863, V-A:ARG:545:CZ:4925, H-A:TYR:484:OH:4347, V-B:GLU:543:CD:9879, H-B:ALA:541:N:9862, V-B:GLU:543:CG:9878, V-A:GLY:454:CA:4048, V-A:TYR:484:CZ:4346, V-A:GLU:543:CB:4905, V-A:GLU:543:CD:4907, V-A:GLU:543:CG:4906, V-B:TYR:484:CE2:9316, V-B:TYR:484:CZ:9317"]

$$$$
2i_Grossjean_2025
     RDKit          3D

 23 24  0  0  0  0  0  0  0  0999 V2000
  133.5350  123.9120   60.6010 C   0  0  0  0  0  0  0  0  0  0  0  0
  132.7490  122.6370   60.8430 C   0  0  0  0  0  0  0  0  0  0  0  0
  133.2130  121.3990   60.4060 C   0  0  0  0  0  0  0  0  0  0  0  0
  132.4500  120.2490   60.6570 C   0  0  0  0  0  0  0  0  0  0  0  0
  132.9770  118.8880   60.1650 C   0  0  0  0  0  0  0  0  0  0  0  0
  132.0700  118.3030   59.3810 F   0  0  0  0  0  0  0  0  0  0  0  0
  134.1040  119.0560   59.4710 F   0  0  0  0  0  0  0  0  0  0  0  0
  133.2450  118.0450   61.1650 F   0  0  0  0  0  0  0  0  0  0  0  0
  131.2230  120.3890   61.3530 C   0  0  0  0  0  0  0  0  0  0  0  0
  130.3860  119.2200   61.6430 C   0  0  0  0  0  0  0  0  0  0  0  0
  129.7250  118.2980   61.8730 N   0  0  0  0  0  0  0  0  0  0  0  0
  130.8270  121.6840   61.7590 C   0  0  0  0  0  0  0  0  0  0  0  0
  129.2990  121.9830   62.6340 S   0  0  0  0  0  0  0  0  0  0  0  0
  128.5270  123.4720   61.9320 C   0  0  0  0  0  0  0  0  0  0  0  0
  127.5190  123.1370   60.8300 C   0  0  0  0  0  0  0  0  0  0  0  0
  126.3530  122.8890   61.1410 O   0  0  0  0  0  0  0  0  0  0  0  0
  128.0090  123.1150   59.5720 N   0  0  0  0  0  0  0  0  0  0  0  0
  127.3050  122.8240   58.4150 C   0  0  0  0  0  0  0  0  0  0  0  0
  126.0140  123.2070   58.0230 C   0  0  0  0  0  0  0  0  0  0  0  0
  125.8410  122.6340   56.7840 C   0  0  0  0  0  0  0  0  0  0  0  0
  126.9630  121.9540   56.4490 O   0  0  0  0  0  0  0  0  0  0  0  0
  127.8840  122.0890   57.4910 N   0  0  0  0  0  0  0  0  0  0  0  0
  131.5810  122.7850   61.5070 N   0  0  0  0  0  0  0  0  0  0  0  0
  1  2  1  0
  2  3  2  0
  3  4  1  0
  4  5  1  0
  5  6  1  0
  5  7  1  0
  5  8  1  0
  4  9  2  0
  9 10  1  0
 10 11  3  0
  9 12  1  0
 12 13  1  0
 13 14  1  0
 14 15  1  0
 15 16  2  0
 15 17  1  0
 17 18  1  0
 18 19  1  0
 19 20  2  0
 20 21  1  0
 21 22  1  0
 12 23  2  0
 23  2  1  0
 22 18  2  0
M  END
>  <Binding energies>  (25) 
[-6.82]

>  <Ligand effiencies>  (25) 
[-0.2841666666666667]

>  <Interactions>  (25) 
["V-B:TYR:539:CE2:9847, V-A:LEU:475:CD2:4258, V-A:ILE:369:CG2:3236, V-B:TYR:539:CB:9842, V-A:ASP:366:CG:3212, V-A:LEU:373:CD2:3280, V-B:TYR:539:CD2:9845, V-B:ALA:541:CB:9863, V-A:ILE:369:CD1:3238, V-B:PRO:540:CB:9856, V-B:PRO:540:CA:9854, V-A:SER:385:CB:3408, V-A:SER:385:CA:3406, H-B:ALA:541:N:9862, V-B:TYR:539:CG:9843, V-A:VAL:384:C:3396, V-B:TYR:539:C:9838, V-B:PRO:540:N:9855, H-B:TYR:539:N:9841, V-B:PRO:540:CD:9858"]

$$$$
2k_Grossjean_2025
     RDKit          3D

 28 28  0  0  0  0  0  0  0  0999 V2000
  130.8180  124.5920   74.8360 C   0  0  0  0  0  0  0  0  0  0  0  0
  129.4990  125.0710   74.6220 O   0  0  0  0  0  0  0  0  0  0  0  0
  129.1290  125.1180   73.2500 C   0  0  0  0  0  0  0  0  0  0  0  0
  127.6760  125.5930   73.1220 C   0  0  0  0  0  0  0  0  0  0  0  0
  127.6560  126.8480   72.4570 O   0  0  0  0  0  0  0  0  0  0  0  0
  128.8250  127.1240   71.6950 C   0  0  0  0  0  0  0  0  0  0  0  0
  128.5030  126.8950   70.2120 C   0  0  0  0  0  0  0  0  0  0  0  0
  129.0980  125.6660   69.8230 O   0  0  0  0  0  0  0  0  0  0  0  0
  129.4920  125.5910   68.4610 C   0  0  0  0  0  0  0  0  0  0  0  0
  130.0100  126.9710   68.0140 C   0  0  0  0  0  0  0  0  0  0  0  0
  131.0440  126.8860   66.9790 N   0  0  0  0  0  0  0  0  0  0  0  0
  131.2090  125.8620   66.1190 C   0  0  0  0  0  0  0  0  0  0  0  0
  130.4710  124.8760   66.0900 O   0  0  0  0  0  0  0  0  0  0  0  0
  132.4070  125.9800   65.1650 C   0  0  0  0  0  0  0  0  0  0  0  0
  133.2110  124.4020   64.7190 S   0  0  0  0  0  0  0  0  0  0  0  0
  132.5480  123.8160   63.1660 C   0  0  0  0  0  0  0  0  0  0  0  0
  133.2220  124.2050   62.0540 N   0  0  0  0  0  0  0  0  0  0  0  0
  132.7740  123.8030   60.8440 C   0  0  0  0  0  0  0  0  0  0  0  0
  133.5740  124.2890   59.6510 C   0  0  0  0  0  0  0  0  0  0  0  0
  131.6530  122.9920   60.6890 C   0  0  0  0  0  0  0  0  0  0  0  0
  130.9450  122.5700   61.8260 C   0  0  0  0  0  0  0  0  0  0  0  0
  129.7100  121.6690   61.6370 C   0  0  0  0  0  0  0  0  0  0  0  0
  129.9550  120.3900   61.9270 F   0  0  0  0  0  0  0  0  0  0  0  0
  128.7200  122.0780   62.4330 F   0  0  0  0  0  0  0  0  0  0  0  0
  129.2960  121.7210   60.3710 F   0  0  0  0  0  0  0  0  0  0  0  0
  131.3990  122.9920   63.1010 C   0  0  0  0  0  0  0  0  0  0  0  0
  130.6960  122.5840   64.3220 C   0  0  0  0  0  0  0  0  0  0  0  0
  130.1410  122.2620   65.2850 N   0  0  0  0  0  0  0  0  0  0  0  0
  1  2  1  0
  2  3  1  0
  3  4  1  0
  4  5  1  0
  5  6  1  0
  6  7  1  0
  7  8  1  0
  8  9  1  0
  9 10  1  0
 10 11  1  0
 11 12  1  0
 12 13  2  0
 12 14  1  0
 14 15  1  0
 15 16  1  0
 16 17  2  0
 17 18  1  0
 18 19  1  0
 18 20  2  0
 20 21  1  0
 21 22  1  0
 22 23  1  0
 22 24  1  0
 22 25  1  0
 21 26  2  0
 26 27  1  0
 27 28  3  0
 26 16  1  0
M  END
>  <Binding energies>  (26) 
[-5.08]

>  <Ligand effiencies>  (26) 
[-0.17517241379310344]

>  <Interactions>  (26) 
["H-A:GLY:454:N:4049, V-B:TYR:539:CE2:9847, V-A:LEU:475:CD2:4258, V-A:ILE:369:CG2:3236, V-A:ASP:366:CG:3212, V-B:TYR:539:CD2:9845, V-B:ALA:541:CB:9863, V-A:ARG:545:CZ:4925, H-A:TYR:484:OH:4347, V-A:ILE:369:CD1:3238, V-B:GLU:543:CD:9879, V-B:PRO:540:CA:9854, V-B:GLU:543:CG:9878, V-A:HIS:456:CE1:4069, V-B:ALA:541:CA:9861, V-A:ASP:366:CB:3211, V-A:ILE:369:CB:3235, V-A:ASP:366:CA:3209, V-A:TYR:484:CE2:4345, V-B:TYR:539:C:9838, V-B:HIS:456:CE1:9040, V-B:GLU:543:CB:9877, V-B:GLY:544:C:9883, V-B:GLU:543:C:9873, V-A:GLU:543:CD:4907, V-A:HIS:456:CD2:4067, V-A:HIS:456:CG:4065, H-A:GLU:543:OE1:4908, H-B:LYS:547:NZ:9922, V-B:LYS:547:CE:9921, V-B:GLY:544:CA:9885"]

$$$$
3aa_Grossjean_2025
     RDKit          3D

 34 36  0  0  0  0  0  0  0  0999 V2000
  130.6180  128.5630   58.2680 C   0  0  0  0  0  0  0  0  0  0  0  0
  129.9040  127.6510   57.2670 C   0  0  0  0  0  0  0  0  0  0  0  0
  130.8640  126.8680   56.5690 O   0  0  0  0  0  0  0  0  0  0  0  0
  131.6520  125.9790   57.2270 C   0  0  0  0  0  0  0  0  0  0  0  0
  132.8290  125.7580   56.9240 O   0  0  0  0  0  0  0  0  0  0  0  0
  130.9460  125.2780   58.3530 C   0  0  0  0  0  0  0  0  0  0  0  0
  131.4000  125.3540   59.6780 C   0  0  0  0  0  0  0  0  0  0  0  0
  130.7180  124.6960   60.6980 C   0  0  0  0  0  0  0  0  0  0  0  0
  129.5690  123.9560   60.4170 C   0  0  0  0  0  0  0  0  0  0  0  0
  128.9530  123.3320   61.5210 N   0  0  0  0  0  0  0  0  0  0  0  0
  128.1020  123.8470   62.4360 C   0  0  0  0  0  0  0  0  0  0  0  0
  127.7160  125.0160   62.4750 O   0  0  0  0  0  0  0  0  0  0  0  0
  127.6080  122.8670   63.5010 C   0  0  0  0  0  0  0  0  0  0  0  0
  128.9080  122.4750   64.7110 S   0  0  0  0  0  0  0  0  0  0  0  0
  130.4660  122.6010   63.8620 C   0  0  0  0  0  0  0  0  0  0  0  0
  130.7180  121.5610   63.0320 N   0  0  0  0  0  0  0  0  0  0  0  0
  131.8760  121.5320   62.3230 C   0  0  0  0  0  0  0  0  0  0  0  0
  132.0740  120.3560   61.4140 C   0  0  0  0  0  0  0  0  0  0  0  0
  131.0910  119.3590   61.3100 C   0  0  0  0  0  0  0  0  0  0  0  0
  131.2680  118.2640   60.4680 C   0  0  0  0  0  0  0  0  0  0  0  0
  132.4330  118.1520   59.7170 C   0  0  0  0  0  0  0  0  0  0  0  0
  133.4210  119.1270   59.8010 C   0  0  0  0  0  0  0  0  0  0  0  0
  133.2410  120.2220   60.6420 C   0  0  0  0  0  0  0  0  0  0  0  0
  132.8110  122.5650   62.4310 C   0  0  0  0  0  0  0  0  0  0  0  0
  132.5810  123.6440   63.2990 C   0  0  0  0  0  0  0  0  0  0  0  0
  133.6410  124.7570   63.3990 C   0  0  0  0  0  0  0  0  0  0  0  0
  133.9100  125.1030   64.6600 F   0  0  0  0  0  0  0  0  0  0  0  0
  134.7840  124.3540   62.8440 F   0  0  0  0  0  0  0  0  0  0  0  0
  133.2140  125.8490   62.7650 F   0  0  0  0  0  0  0  0  0  0  0  0
  131.3790  123.6620   64.0480 C   0  0  0  0  0  0  0  0  0  0  0  0
  131.1110  124.7330   65.0120 C   0  0  0  0  0  0  0  0  0  0  0  0
  130.9000  125.5790   65.7740 N   0  0  0  0  0  0  0  0  0  0  0  0
  129.1160  123.8640   59.0920 C   0  0  0  0  0  0  0  0  0  0  0  0
  129.8000  124.5210   58.0740 C   0  0  0  0  0  0  0  0  0  0  0  0
  1  2  1  0
  2  3  1  0
  3  4  1  0
  4  5  2  0
  4  6  1  0
  6  7  2  0
  7  8  1  0
  8  9  2  0
  9 10  1  0
 10 11  1  0
 11 12  2  0
 11 13  1  0
 13 14  1  0
 14 15  1  0
 15 16  2  0
 16 17  1  0
 17 18  1  0
 18 19  2  0
 19 20  1  0
 20 21  2  0
 21 22  1  0
 22 23  2  0
 17 24  2  0
 24 25  1  0
 25 26  1  0
 26 27  1  0
 26 28  1  0
 26 29  1  0
 25 30  2  0
 30 31  1  0
 31 32  3  0
  9 33  1  0
 33 34  2  0
 34  6  1  0
 30 15  1  0
 23 18  1  0
M  END
>  <Binding energies>  (27) 
[-7.17]

>  <Ligand effiencies>  (27) 
[-0.20485714285714285]

>  <Interactions>  (27) 
["V-A:GLY:453:C:4041, V-A:GLY:453:CA:4043, V-B:TYR:539:CE2:9847, V-A:LEU:475:CD2:4258, V-A:ILE:369:CG2:3236, V-B:TYR:539:CB:9842, V-A:ASP:366:CG:3212, V-B:TYR:539:CD2:9845, V-B:ALA:541:CB:9863, V-A:ARG:545:CZ:4925, H-A:TYR:484:OH:4347, V-A:ILE:369:CD1:3238, V-B:GLU:543:CD:9879, V-A:SER:385:CA:3406, V-B:GLU:543:CG:9878, V-A:GLY:454:CA:4048, V-B:ALA:541:CA:9861, V-B:TYR:539:CZ:9848, V-B:ALA:541:C:9859, V-B:MET:535:CE:9806, H-B:TYR:539:OH:9849, H-A:TYR:531:OH:4794, H-B:TYR:539:O:9839"]

$$$$
3ad_Grossjean_2025
     RDKit          3D

 29 31  0  0  0  0  0  0  0  0999 V2000
  132.8260  122.9320   64.6600 N   0  0  0  0  0  0  0  0  0  0  0  0
  131.9960  122.9680   63.8540 C   0  0  0  0  0  0  0  0  0  0  0  0
  130.9410  123.0140   62.8360 C   0  0  0  0  0  0  0  0  0  0  0  0
  129.5840  122.8210   63.1910 C   0  0  0  0  0  0  0  0  0  0  0  0
  129.1270  122.6010   64.6450 C   0  0  0  0  0  0  0  0  0  0  0  0
  129.6430  121.4970   65.1890 F   0  0  0  0  0  0  0  0  0  0  0  0
  129.5010  123.6350   65.4010 F   0  0  0  0  0  0  0  0  0  0  0  0
  127.7990  122.4870   64.6960 F   0  0  0  0  0  0  0  0  0  0  0  0
  128.6190  122.8280   62.1720 C   0  0  0  0  0  0  0  0  0  0  0  0
  128.9970  123.0180   60.8390 C   0  0  0  0  0  0  0  0  0  0  0  0
  128.0090  123.0180   59.7110 C   0  0  0  0  0  0  0  0  0  0  0  0
  126.7230  123.5540   59.8840 C   0  0  0  0  0  0  0  0  0  0  0  0
  125.8020  123.5590   58.8410 C   0  0  0  0  0  0  0  0  0  0  0  0
  126.1560  123.0260   57.6050 C   0  0  0  0  0  0  0  0  0  0  0  0
  127.4240  122.4910   57.4070 C   0  0  0  0  0  0  0  0  0  0  0  0
  128.3430  122.4890   58.4530 C   0  0  0  0  0  0  0  0  0  0  0  0
  130.3000  123.1950   60.5040 N   0  0  0  0  0  0  0  0  0  0  0  0
  131.2480  123.2140   61.4710 C   0  0  0  0  0  0  0  0  0  0  0  0
  132.8950  123.4710   60.8520 S   0  0  0  0  0  0  0  0  0  0  0  0
  133.9930  122.3320   61.7480 C   0  0  0  0  0  0  0  0  0  0  0  0
  133.3780  120.9390   61.9030 C   0  0  0  0  0  0  0  0  0  0  0  0
  133.7000  120.2470   62.8700 O   0  0  0  0  0  0  0  0  0  0  0  0
  132.5090  120.5790   60.9350 N   0  0  0  0  0  0  0  0  0  0  0  0
  131.7690  119.3910   60.7860 C   0  0  0  0  0  0  0  0  0  0  0  0
  130.6750  119.2470   61.6440 C   0  0  0  0  0  0  0  0  0  0  0  0
  129.8780  118.1080   61.5820 C   0  0  0  0  0  0  0  0  0  0  0  0
  130.1760  117.1060   60.6640 C   0  0  0  0  0  0  0  0  0  0  0  0
  131.2670  117.2320   59.8080 C   0  0  0  0  0  0  0  0  0  0  0  0
  132.0670  118.3710   59.8660 C   0  0  0  0  0  0  0  0  0  0  0  0
  1  2  3  0
  2  3  1  0
  3  4  2  0
  4  5  1  0
  5  6  1  0
  5  7  1  0
  5  8  1  0
  4  9  1  0
  9 10  2  0
 10 11  1  0
 11 12  2  0
 12 13  1  0
 13 14  2  0
 14 15  1  0
 15 16  2  0
 10 17  1  0
 17 18  2  0
 18 19  1  0
 19 20  1  0
 20 21  1  0
 21 22  2  0
 21 23  1  0
 23 24  1  0
 24 25  2  0
 25 26  1  0
 26 27  2  0
 27 28  1  0
 28 29  2  0
 18  3  1  0
 29 24  1  0
 16 11  1  0
M  END
>  <Binding energies>  (28) 
[-7.78]

>  <Ligand effiencies>  (28) 
[-0.25933333333333336]

>  <Interactions>  (28) 
["H-A:GLY:454:N:4049, V-A:HIS:383:CE1:3393, V-B:TYR:539:CE2:9847, V-A:LEU:475:CD2:4258, V-A:ILE:369:CG2:3236, V-B:TYR:539:CB:9842, V-B:TYR:539:CD2:9845, V-B:ALA:541:CB:9863, H-A:TYR:484:OH:4347, V-A:ILE:369:CD1:3238, V-B:PRO:540:CB:9856, V-B:GLU:543:CD:9879, V-B:PRO:540:CA:9854, V-A:SER:385:CA:3406, V-B:GLU:543:CG:9878, V-B:TYR:539:CG:9843, V-B:ALA:541:CA:9861, V-B:TYR:539:CZ:9848, V-A:TYR:484:CE2:4345, V-A:LEU:475:CD1:4257, V-B:TYR:539:C:9838, V-B:ALA:541:C:9859, V-B:MET:535:CE:9806, V-B:PRO:540:N:9855, V-A:SER:385:C:3404, V-A:PRO:482:CB:4325, V-A:PRO:482:CG:4326, V-A:LEU:475:CG:4256, V-B:PRO:540:CD:9858, V-B:TYR:539:CA:9840, V-B:VAL:344:CG1:7971"]

$$$$
3ai_Grossjean_2025
     RDKit          3D

 28 30  0  0  0  0  0  0  0  0999 V2000
  126.0290  125.1190   61.9490 N   0  0  0  0  0  0  0  0  0  0  0  0
  126.8660  124.3370   61.7880 C   0  0  0  0  0  0  0  0  0  0  0  0
  127.9280  123.3470   61.5820 C   0  0  0  0  0  0  0  0  0  0  0  0
  128.4160  123.0680   60.2820 C   0  0  0  0  0  0  0  0  0  0  0  0
  127.9060  123.8030   59.0270 C   0  0  0  0  0  0  0  0  0  0  0  0
  128.4810  123.3690   57.9040 F   0  0  0  0  0  0  0  0  0  0  0  0
  126.5900  123.6270   58.9000 F   0  0  0  0  0  0  0  0  0  0  0  0
  128.1600  125.1090   59.1250 F   0  0  0  0  0  0  0  0  0  0  0  0
  129.3990  122.0780   60.1330 C   0  0  0  0  0  0  0  0  0  0  0  0
  129.8800  121.3850   61.2480 C   0  0  0  0  0  0  0  0  0  0  0  0
  130.9210  120.3110   61.1460 C   0  0  0  0  0  0  0  0  0  0  0  0
  132.2680  120.6380   60.9250 C   0  0  0  0  0  0  0  0  0  0  0  0
  133.2410  119.6470   60.8330 C   0  0  0  0  0  0  0  0  0  0  0  0
  132.8780  118.3100   60.9640 C   0  0  0  0  0  0  0  0  0  0  0  0
  131.5510  117.9590   61.1860 C   0  0  0  0  0  0  0  0  0  0  0  0
  130.5810  118.9530   61.2770 C   0  0  0  0  0  0  0  0  0  0  0  0
  129.4040  121.6500   62.4910 N   0  0  0  0  0  0  0  0  0  0  0  0
  128.4720  122.6180   62.6640 C   0  0  0  0  0  0  0  0  0  0  0  0
  127.9850  122.8390   64.3630 S   0  0  0  0  0  0  0  0  0  0  0  0
  129.3760  122.3040   65.4170 C   0  0  0  0  0  0  0  0  0  0  0  0
  130.7710  122.6230   64.8610 C   0  0  0  0  0  0  0  0  0  0  0  0
  131.4710  121.7350   64.3690 O   0  0  0  0  0  0  0  0  0  0  0  0
  131.1370  123.9200   64.9650 N   0  0  0  0  0  0  0  0  0  0  0  0
  132.3310  124.4930   64.5440 C   0  0  0  0  0  0  0  0  0  0  0  0
  132.7320  124.5260   63.2100 C   0  0  0  0  0  0  0  0  0  0  0  0
  133.9490  125.1660   63.2170 C   0  0  0  0  0  0  0  0  0  0  0  0
  134.2660  125.5030   64.4900 O   0  0  0  0  0  0  0  0  0  0  0  0
  133.2310  125.0720   65.3220 N   0  0  0  0  0  0  0  0  0  0  0  0
  1  2  3  0
  2  3  1  0
  3  4  2  0
  4  5  1  0
  5  6  1  0
  5  7  1  0
  5  8  1  0
  4  9  1  0
  9 10  2  0
 10 11  1  0
 11 12  2  0
 12 13  1  0
 13 14  2  0
 14 15  1  0
 15 16  2  0
 10 17  1  0
 17 18  2  0
 18 19  1  0
 19 20  1  0
 20 21  1  0
 21 22  2  0
 21 23  1  0
 23 24  1  0
 24 25  1  0
 25 26  2  0
 26 27  1  0
 27 28  1  0
 18  3  1  0
 28 24  2  0
 16 11  1  0
M  END
>  <Binding energies>  (29) 
[-7.4]

>  <Ligand effiencies>  (29) 
[-0.25517241379310346]

>  <Interactions>  (29) 
["H-A:GLY:454:N:4049, H-A:ARG:545:NE:4923, H-A:ARG:545:NH2:4927, V-A:GLY:453:CA:4043, H-A:ARG:545:NH1:4926, V-B:TYR:539:CE2:9847, V-A:LEU:475:CD2:4258, V-A:ILE:369:CG2:3236, V-A:ASP:366:CG:3212, V-B:TYR:539:CD2:9845, V-B:ALA:541:CB:9863, V-A:ARG:545:CZ:4925, H-A:TYR:484:OH:4347, V-B:PRO:540:CB:9856, V-B:GLU:543:CD:9879, V-B:PRO:540:CA:9854, V-A:SER:385:CB:3408, V-A:SER:385:CA:3406, H-B:ALA:541:N:9862, V-B:GLU:543:CG:9878, V-B:ALA:541:CA:9861, V-B:TYR:539:CZ:9848, V-A:TYR:484:CE2:4345, V-A:TYR:484:CZ:4346, V-A:LEU:475:CD1:4257, H-B:GLU:543:OE2:9881, V-B:TYR:539:C:9838, V-B:MET:535:CE:9806, H-B:ARG:545:NH2:9899"]

$$$$
3aj_Grossjean_2025
     RDKit          3D

 28 30  0  0  0  0  0  0  0  0999 V2000
  129.4600  126.4720   61.4740 N   0  0  0  0  0  0  0  0  0  0  0  0
  129.7000  125.3410   61.4410 C   0  0  0  0  0  0  0  0  0  0  0  0
  130.0000  123.9070   61.4010 C   0  0  0  0  0  0  0  0  0  0  0  0
  129.1760  122.9750   62.0780 C   0  0  0  0  0  0  0  0  0  0  0  0
  127.9090  123.3920   62.8500 C   0  0  0  0  0  0  0  0  0  0  0  0
  127.5410  122.4920   63.7650 F   0  0  0  0  0  0  0  0  0  0  0  0
  128.1200  124.5470   63.4820 F   0  0  0  0  0  0  0  0  0  0  0  0
  126.8880  123.5420   62.0050 F   0  0  0  0  0  0  0  0  0  0  0  0
  129.5340  121.6180   62.0480 C   0  0  0  0  0  0  0  0  0  0  0  0
  130.6830  121.2040   61.3660 C   0  0  0  0  0  0  0  0  0  0  0  0
  131.1150  119.7710   61.3110 C   0  0  0  0  0  0  0  0  0  0  0  0
  132.4150  119.4300   60.9040 C   0  0  0  0  0  0  0  0  0  0  0  0
  132.8250  118.1000   60.8550 C   0  0  0  0  0  0  0  0  0  0  0  0
  131.9370  117.0900   61.2110 C   0  0  0  0  0  0  0  0  0  0  0  0
  130.6440  117.4020   61.6190 C   0  0  0  0  0  0  0  0  0  0  0  0
  130.2390  118.7330   61.6690 C   0  0  0  0  0  0  0  0  0  0  0  0
  131.4740  122.1020   60.7250 N   0  0  0  0  0  0  0  0  0  0  0  0
  131.1370  123.4140   60.7190 C   0  0  0  0  0  0  0  0  0  0  0  0
  132.2770  124.4360   59.8110 S   0  0  0  0  0  0  0  0  0  0  0  0
  133.8990  124.3370   60.6400 C   0  0  0  0  0  0  0  0  0  0  0  0
  133.8440  124.3180   62.1750 C   0  0  0  0  0  0  0  0  0  0  0  0
  134.3130  123.3710   62.8120 O   0  0  0  0  0  0  0  0  0  0  0  0
  133.2560  125.4000   62.7320 N   0  0  0  0  0  0  0  0  0  0  0  0
  133.0800  125.6420   64.0880 C   0  0  0  0  0  0  0  0  0  0  0  0
  133.9750  125.5490   65.0480 N   0  0  0  0  0  0  0  0  0  0  0  0
  133.4610  125.8570   66.2220 C   0  0  0  0  0  0  0  0  0  0  0  0
  132.1140  126.2100   66.2310 C   0  0  0  0  0  0  0  0  0  0  0  0
  131.4980  126.1290   64.6080 S   0  0  0  0  0  0  0  0  0  0  0  0
  1  2  3  0
  2  3  1  0
  3  4  2  0
  4  5  1  0
  5  6  1  0
  5  7  1  0
  5  8  1  0
  4  9  1  0
  9 10  2  0
 10 11  1  0
 11 12  2  0
 12 13  1  0
 13 14  2  0
 14 15  1  0
 15 16  2  0
 10 17  1  0
 17 18  2  0
 18 19  1  0
 19 20  1  0
 20 21  1  0
 21 22  2  0
 21 23  1  0
 23 24  1  0
 24 25  2  0
 25 26  1  0
 26 27  2  0
 27 28  1  0
 18  3  1  0
 28 24  1  0
 16 11  1  0
M  END
>  <Binding energies>  (30) 
[-7.44]

>  <Ligand effiencies>  (30) 
[-0.25655172413793104]

>  <Interactions>  (30) 
["H-A:GLY:454:N:4049, H-A:ARG:545:NE:4923, V-A:HIS:383:CE1:3393, H-A:ARG:545:NH2:4927, H-A:ARG:545:NH1:4926, V-B:TYR:539:CE2:9847, V-A:ARG:545:CD:4922, V-A:LEU:475:CD2:4258, V-A:ILE:369:CG2:3236, V-A:ASP:366:CG:3212, V-B:TYR:539:CD2:9845, V-A:ARG:545:CG:4921, V-B:ALA:541:CB:9863, V-A:ARG:545:CZ:4925, H-A:TYR:484:OH:4347, V-A:ILE:369:CD1:3238, V-B:GLU:543:CD:9879, V-B:PRO:540:CA:9854, V-A:SER:385:CB:3408, V-A:SER:385:CA:3406, V-B:GLU:543:CG:9878, V-A:VAL:384:C:3396, V-B:ALA:541:CA:9861, H-A:ASP:366:OD2:3214, H-A:ASP:366:OD1:3213, V-A:ASP:366:CB:3211, V-A:ASP:366:CA:3209, V-B:ALA:541:C:9859, V-A:PRO:482:CB:4325, V-A:PRO:482:CG:4326, V-A:THR:477:CG2:4272"]

$$$$
3ak_Grossjean_2025
     RDKit          3D

 33 34  0  0  0  0  0  0  0  0999 V2000
  129.8030  127.5580   57.5280 C   0  0  0  0  0  0  0  0  0  0  0  0
  130.6450  127.2100   56.4400 O   0  0  0  0  0  0  0  0  0  0  0  0
  131.7470  126.3960   56.8170 C   0  0  0  0  0  0  0  0  0  0  0  0
  131.2640  125.3300   57.8090 C   0  0  0  0  0  0  0  0  0  0  0  0
  132.3970  124.6950   58.3930 O   0  0  0  0  0  0  0  0  0  0  0  0
  132.2420  124.2860   59.7490 C   0  0  0  0  0  0  0  0  0  0  0  0
  133.5470  123.7970   60.4020 C   0  0  0  0  0  0  0  0  0  0  0  0
  133.4670  122.3940   60.6110 O   0  0  0  0  0  0  0  0  0  0  0  0
  133.9870  121.9670   61.8630 C   0  0  0  0  0  0  0  0  0  0  0  0
  134.0550  123.1530   62.8420 C   0  0  0  0  0  0  0  0  0  0  0  0
  132.7510  123.5430   63.3820 N   0  0  0  0  0  0  0  0  0  0  0  0
  132.5390  124.4270   64.3750 C   0  0  0  0  0  0  0  0  0  0  0  0
  133.4540  125.0300   64.9370 O   0  0  0  0  0  0  0  0  0  0  0  0
  131.0950  124.6980   64.8300 C   0  0  0  0  0  0  0  0  0  0  0  0
  129.9420  123.2770   64.7820 S   0  0  0  0  0  0  0  0  0  0  0  0
  129.7720  122.7340   63.0890 C   0  0  0  0  0  0  0  0  0  0  0  0
  130.3590  121.5480   62.7920 N   0  0  0  0  0  0  0  0  0  0  0  0
  130.2900  121.0540   61.5300 C   0  0  0  0  0  0  0  0  0  0  0  0
  130.9660  119.7370   61.2900 C   0  0  0  0  0  0  0  0  0  0  0  0
  130.3390  118.5330   61.6470 C   0  0  0  0  0  0  0  0  0  0  0  0
  130.9610  117.3070   61.4240 C   0  0  0  0  0  0  0  0  0  0  0  0
  132.2210  117.2690   60.8370 C   0  0  0  0  0  0  0  0  0  0  0  0
  132.8630  118.4470   60.4710 C   0  0  0  0  0  0  0  0  0  0  0  0
  132.2390  119.6710   60.6950 C   0  0  0  0  0  0  0  0  0  0  0  0
  129.6040  121.7460   60.5260 C   0  0  0  0  0  0  0  0  0  0  0  0
  128.9860  122.9740   60.8070 C   0  0  0  0  0  0  0  0  0  0  0  0
  128.2420  123.7070   59.6740 C   0  0  0  0  0  0  0  0  0  0  0  0
  128.7640  124.9210   59.4950 F   0  0  0  0  0  0  0  0  0  0  0  0
  128.3470  123.0190   58.5370 F   0  0  0  0  0  0  0  0  0  0  0  0
  126.9400  123.8640   59.9270 F   0  0  0  0  0  0  0  0  0  0  0  0
  129.0710  123.4880   62.1230 C   0  0  0  0  0  0  0  0  0  0  0  0
  128.4450  124.7660   62.4740 C   0  0  0  0  0  0  0  0  0  0  0  0
  127.9520  125.7770   62.7520 N   0  0  0  0  0  0  0  0  0  0  0  0
  1  2  1  0
  2  3  1  0
  3  4  1  0
  4  5  1  0
  5  6  1  0
  6  7  1  0
  7  8  1  0
  8  9  1  0
  9 10  1  0
 10 11  1  0
 11 12  1  0
 12 13  2  0
 12 14  1  0
 14 15  1  0
 15 16  1  0
 16 17  2  0
 17 18  1  0
 18 19  1  0
 19 20  2  0
 20 21  1  0
 21 22  2  0
 22 23  1  0
 23 24  2  0
 18 25  2  0
 25 26  1  0
 26 27  1  0
 27 28  1  0
 27 29  1  0
 27 30  1  0
 26 31  2  0
 31 32  1  0
 32 33  3  0
 31 16  1  0
 24 19  1  0
M  END
>  <Binding energies>  (31) 
[-6.61]

>  <Ligand effiencies>  (31) 
[-0.19441176470588237]

>  <Interactions>  (31) 
["H-A:GLY:454:N:4049, V-A:GLY:453:C:4041, V-A:HIS:383:CE1:3393, V-B:TYR:539:CE2:9847, V-A:LEU:475:CD2:4258, V-A:ILE:369:CG2:3236, V-A:ASP:366:CG:3212, V-B:TYR:539:CD2:9845, V-B:ALA:541:CB:9863, H-A:TYR:484:OH:4347, V-A:ILE:369:CD1:3238, V-B:GLU:543:CD:9879, V-B:PRO:540:CA:9854, V-A:SER:385:CB:3408, V-A:SER:385:CA:3406, V-A:GLY:454:CA:4048, V-B:TYR:539:CZ:9848, V-A:ILE:369:CB:3235, V-B:TYR:539:C:9838, H-B:TYR:539:OH:9849, H-A:TYR:531:OH:4794, V-A:TYR:531:CE1:4791, V-A:TYR:531:CZ:4793, V-A:PRO:482:CB:4325, V-A:PRO:482:CG:4326"]

$$$$
3bk_Grossjean_2025
     RDKit          3D

 30 31  0  0  0  0  0  0  0  0999 V2000
  134.3460  125.7170   67.6290 C   0  0  0  0  0  0  0  0  0  0  0  0
  134.1560  125.5080   66.2380 O   0  0  0  0  0  0  0  0  0  0  0  0
  132.8680  125.8930   65.7780 C   0  0  0  0  0  0  0  0  0  0  0  0
  132.7300  125.5520   64.2880 C   0  0  0  0  0  0  0  0  0  0  0  0
  133.7580  124.6460   63.9140 O   0  0  0  0  0  0  0  0  0  0  0  0
  133.2970  123.5350   63.1560 C   0  0  0  0  0  0  0  0  0  0  0  0
  133.6620  123.7440   61.6800 C   0  0  0  0  0  0  0  0  0  0  0  0
  132.4780  123.7210   60.8940 O   0  0  0  0  0  0  0  0  0  0  0  0
  132.6380  124.2820   59.5980 C   0  0  0  0  0  0  0  0  0  0  0  0
  131.3580  125.0340   59.2050 C   0  0  0  0  0  0  0  0  0  0  0  0
  130.2010  124.1440   59.0940 N   0  0  0  0  0  0  0  0  0  0  0  0
  129.2270  124.2420   58.1730 C   0  0  0  0  0  0  0  0  0  0  0  0
  129.2060  125.0980   57.2870 O   0  0  0  0  0  0  0  0  0  0  0  0
  128.1130  123.1950   58.2450 C   0  0  0  0  0  0  0  0  0  0  0  0
  127.2240  123.2540   59.8330 S   0  0  0  0  0  0  0  0  0  0  0  0
  128.3190  122.7050   61.1320 C   0  0  0  0  0  0  0  0  0  0  0  0
  129.2110  121.7420   60.7890 N   0  0  0  0  0  0  0  0  0  0  0  0
  130.0820  121.2610   61.7140 C   0  0  0  0  0  0  0  0  0  0  0  0
  131.0470  120.2140   61.2460 C   0  0  0  0  0  0  0  0  0  0  0  0
  132.3520  120.5610   60.8610 C   0  0  0  0  0  0  0  0  0  0  0  0
  133.2510  119.5930   60.4200 C   0  0  0  0  0  0  0  0  0  0  0  0
  132.8560  118.2610   60.3590 C   0  0  0  0  0  0  0  0  0  0  0  0
  131.5700  117.8900   60.7380 C   0  0  0  0  0  0  0  0  0  0  0  0
  130.6750  118.8600   61.1790 C   0  0  0  0  0  0  0  0  0  0  0  0
  130.0790  121.7510   63.0250 C   0  0  0  0  0  0  0  0  0  0  0  0
  129.1650  122.7430   63.3970 C   0  0  0  0  0  0  0  0  0  0  0  0
  129.1950  123.2490   64.8380 C   0  0  0  0  0  0  0  0  0  0  0  0
  128.2580  123.2400   62.4370 C   0  0  0  0  0  0  0  0  0  0  0  0
  127.2920  124.2810   62.7970 C   0  0  0  0  0  0  0  0  0  0  0  0
  126.5280  125.1030   63.0820 N   0  0  0  0  0  0  0  0  0  0  0  0
  1  2  1  0
  2  3  1  0
  3  4  1  0
  4  5  1  0
  5  6  1  0
  6  7  1  0
  7  8  1  0
  8  9  1  0
  9 10  1  0
 10 11  1  0
 11 12  1  0
 12 13  2  0
 12 14  1  0
 14 15  1  0
 15 16  1  0
 16 17  2  0
 17 18  1  0
 18 19  1  0
 19 20  2  0
 20 21  1  0
 21 22  2  0
 22 23  1  0
 23 24  2  0
 18 25  2  0
 25 26  1  0
 26 27  1  0
 26 28  2  0
 28 29  1  0
 29 30  3  0
 28 16  1  0
 24 19  1  0
M  END
>  <Binding energies>  (32) 
[-7.0]

>  <Ligand effiencies>  (32) 
[-0.22580645161290322]

>  <Interactions>  (32) 
["H-A:GLY:454:N:4049, H-A:ARG:545:NE:4923, V-A:HIS:383:CE1:3393, V-B:TYR:539:CE2:9847, V-A:ARG:545:CD:4922, V-A:LEU:475:CD2:4258, V-A:ILE:369:CG2:3236, V-A:ASP:366:CG:3212, V-B:TYR:539:CD2:9845, V-A:ARG:545:CG:4921, V-B:ALA:541:CB:9863, V-A:ARG:545:CZ:4925, H-A:TYR:484:OH:4347, V-A:ILE:369:CD1:3238, V-B:GLU:543:CD:9879, V-B:PRO:540:CA:9854, V-A:SER:385:CB:3408, V-A:SER:385:CA:3406, V-B:GLU:543:CG:9878, V-A:GLY:454:CA:4048, V-A:VAL:384:C:3396, V-A:HIS:456:CE1:4069, V-B:TYR:539:CZ:9848, V-B:MET:535:CE:9806, H-B:TYR:539:OH:9849, H-B:ARG:545:NH2:9899, V-A:ILE:455:C:4051, V-A:ARG:545:CB:4920"]

$$$$
3cb_Grossjean_2025
     RDKit          3D

 30 32  0  0  0  0  0  0  0  0999 V2000
  129.6230  125.1520   73.2550 C   0  0  0  0  0  0  0  0  0  0  0  0
  129.0370  126.4420   73.1520 O   0  0  0  0  0  0  0  0  0  0  0  0
  128.1040  126.7130   72.2040 C   0  0  0  0  0  0  0  0  0  0  0  0
  126.9250  126.9700   72.4640 O   0  0  0  0  0  0  0  0  0  0  0  0
  128.6490  126.6680   70.8050 C   0  0  0  0  0  0  0  0  0  0  0  0
  128.7350  125.4710   70.0780 C   0  0  0  0  0  0  0  0  0  0  0  0
  129.2420  125.4650   68.7830 C   0  0  0  0  0  0  0  0  0  0  0  0
  129.6790  126.6480   68.1870 C   0  0  0  0  0  0  0  0  0  0  0  0
  130.1710  126.5270   66.8720 N   0  0  0  0  0  0  0  0  0  0  0  0
  131.4230  126.2710   66.4340 C   0  0  0  0  0  0  0  0  0  0  0  0
  132.3980  126.0720   67.1600 O   0  0  0  0  0  0  0  0  0  0  0  0
  131.5650  126.2220   64.9050 C   0  0  0  0  0  0  0  0  0  0  0  0
  132.6630  124.9070   64.2750 S   0  0  0  0  0  0  0  0  0  0  0  0
  131.6390  123.6410   63.5540 C   0  0  0  0  0  0  0  0  0  0  0  0
  130.3140  123.8350   63.7630 N   0  0  0  0  0  0  0  0  0  0  0  0
  129.4400  122.9360   63.2600 C   0  0  0  0  0  0  0  0  0  0  0  0
  127.9740  123.2240   63.5200 C   0  0  0  0  0  0  0  0  0  0  0  0
  129.8470  121.8150   62.5410 C   0  0  0  0  0  0  0  0  0  0  0  0
  131.2120  121.5850   62.3280 C   0  0  0  0  0  0  0  0  0  0  0  0
  131.5990  120.3640   61.5560 C   0  0  0  0  0  0  0  0  0  0  0  0
  130.8190  119.2040   61.6360 C   0  0  0  0  0  0  0  0  0  0  0  0
  131.1640  118.0660   60.9120 C   0  0  0  0  0  0  0  0  0  0  0  0
  132.2940  118.0850   60.0990 C   0  0  0  0  0  0  0  0  0  0  0  0
  133.0770  119.2310   60.0010 C   0  0  0  0  0  0  0  0  0  0  0  0
  132.7270  120.3690   60.7240 C   0  0  0  0  0  0  0  0  0  0  0  0
  132.1440  122.5130   62.8610 C   0  0  0  0  0  0  0  0  0  0  0  0
  133.5860  122.2730   62.7480 C   0  0  0  0  0  0  0  0  0  0  0  0
  134.7240  122.0840   62.6590 N   0  0  0  0  0  0  0  0  0  0  0  0
  129.5930  127.8510   68.9050 C   0  0  0  0  0  0  0  0  0  0  0  0
  129.0840  127.8560   70.2010 C   0  0  0  0  0  0  0  0  0  0  0  0
  1  2  1  0
  2  3  1  0
  3  4  2  0
  3  5  1  0
  5  6  2  0
  6  7  1  0
  7  8  2  0
  8  9  1  0
  9 10  1  0
 10 11  2  0
 10 12  1  0
 12 13  1  0
 13 14  1  0
 14 15  2  0
 15 16  1  0
 16 17  1  0
 16 18  2  0
 18 19  1  0
 19 20  1  0
 20 21  2  0
 21 22  1  0
 22 23  2  0
 23 24  1  0
 24 25  2  0
 19 26  2  0
 26 27  1  0
 27 28  3  0
  8 29  1  0
 29 30  2  0
 30  5  1  0
 26 14  1  0
 25 20  1  0
M  END
>  <Binding energies>  (33) 
[-8.43]

>  <Ligand effiencies>  (33) 
[-0.2719354838709677]

>  <Interactions>  (33) 
["H-A:GLY:454:N:4049, V-B:TYR:539:CE2:9847, V-A:LEU:475:CD2:4258, V-A:ILE:369:CG2:3236, V-B:TYR:539:CD2:9845, V-B:ALA:541:CB:9863, H-A:TYR:484:OH:4347, V-A:ILE:369:CD1:3238, V-B:GLU:543:CD:9879, V-A:SER:385:CA:3406, V-B:GLU:543:CG:9878, V-A:GLY:454:CA:4048, V-A:HIS:456:CE1:4069, V-B:ALA:541:CA:9861, V-A:TYR:484:CE2:4345, H-B:GLU:543:OE2:9881, V-B:HIS:456:CE1:9040, V-B:GLU:543:CB:9877, V-B:GLU:543:C:9873, V-A:HIS:456:CD2:4067, V-B:GLU:543:CA:9875, H-B:HIS:456:ND1:9037"]

$$$$
3ch_Grossjean_2025
     RDKit          3D

 32 34  0  0  0  0  0  0  0  0999 V2000
  134.1140  124.0690   62.2830 C   0  0  0  0  0  0  0  0  0  0  0  0
  134.1850  124.7970   63.5050 O   0  0  0  0  0  0  0  0  0  0  0  0
  133.0230  125.2680   64.0870 C   0  0  0  0  0  0  0  0  0  0  0  0
  131.7640  125.2390   63.4650 C   0  0  0  0  0  0  0  0  0  0  0  0
  130.6250  125.7270   64.1220 C   0  0  0  0  0  0  0  0  0  0  0  0
  129.3250  125.7350   63.5820 N   0  0  0  0  0  0  0  0  0  0  0  0
  128.9100  126.0460   62.3350 C   0  0  0  0  0  0  0  0  0  0  0  0
  129.6400  126.3820   61.4020 O   0  0  0  0  0  0  0  0  0  0  0  0
  127.4070  125.9190   62.0890 C   0  0  0  0  0  0  0  0  0  0  0  0
  126.8870  124.1880   61.9000 S   0  0  0  0  0  0  0  0  0  0  0  0
  128.2200  123.1990   62.5400 C   0  0  0  0  0  0  0  0  0  0  0  0
  128.3490  123.2550   63.8890 N   0  0  0  0  0  0  0  0  0  0  0  0
  129.3390  122.5430   64.4740 C   0  0  0  0  0  0  0  0  0  0  0  0
  129.4290  122.6560   65.9830 C   0  0  0  0  0  0  0  0  0  0  0  0
  130.2300  121.7580   63.7460 C   0  0  0  0  0  0  0  0  0  0  0  0
  130.1080  121.6810   62.3520 C   0  0  0  0  0  0  0  0  0  0  0  0
  131.0930  120.8340   61.6120 C   0  0  0  0  0  0  0  0  0  0  0  0
  130.7870  119.5020   61.3090 C   0  0  0  0  0  0  0  0  0  0  0  0
  131.7030  118.7040   60.6270 C   0  0  0  0  0  0  0  0  0  0  0  0
  132.9330  119.2370   60.2490 C   0  0  0  0  0  0  0  0  0  0  0  0
  133.2550  120.5570   60.5490 C   0  0  0  0  0  0  0  0  0  0  0  0
  132.3370  121.3510   61.2320 C   0  0  0  0  0  0  0  0  0  0  0  0
  129.0630  122.4060   61.7250 C   0  0  0  0  0  0  0  0  0  0  0  0
  128.8300  122.2870   60.2830 C   0  0  0  0  0  0  0  0  0  0  0  0
  128.6470  122.1960   59.1440 N   0  0  0  0  0  0  0  0  0  0  0  0
  130.7580  126.2640   65.4030 C   0  0  0  0  0  0  0  0  0  0  0  0
  132.0050  126.3070   66.0450 C   0  0  0  0  0  0  0  0  0  0  0  0
  132.2030  126.8190   67.3170 O   0  0  0  0  0  0  0  0  0  0  0  0
  131.0990  127.3660   68.0310 C   0  0  0  0  0  0  0  0  0  0  0  0
  133.1300  125.8080   65.3760 C   0  0  0  0  0  0  0  0  0  0  0  0
  134.3540  125.8270   66.0010 O   0  0  0  0  0  0  0  0  0  0  0  0
  134.3530  125.2390   67.2940 C   0  0  0  0  0  0  0  0  0  0  0  0
  1  2  1  0
  2  3  1  0
  3  4  2  0
  4  5  1  0
  5  6  1  0
  6  7  1  0
  7  8  2  0
  7  9  1  0
  9 10  1  0
 10 11  1  0
 11 12  2  0
 12 13  1  0
 13 14  1  0
 13 15  2  0
 15 16  1  0
 16 17  1  0
 17 18  2  0
 18 19  1  0
 19 20  2  0
 20 21  1  0
 21 22  2  0
 16 23  2  0
 23 24  1  0
 24 25  3  0
  5 26  2  0
 26 27  1  0
 27 28  1  0
 28 29  1  0
 27 30  2  0
 30 31  1  0
 31 32  1  0
 30  3  1  0
 23 11  1  0
 22 17  1  0
M  END
>  <Binding energies>  (34) 
[-7.78]

>  <Ligand effiencies>  (34) 
[-0.23575757575757578]

>  <Interactions>  (34) 
["H-A:GLY:454:N:4049, H-A:ARG:545:NE:4923, H-A:ARG:545:NH1:4926, V-B:TYR:539:CE2:9847, V-A:ARG:545:CD:4922, V-A:LEU:475:CD2:4258, V-A:ILE:369:CG2:3236, V-A:ASP:366:CG:3212, V-B:TYR:539:CD2:9845, V-A:ARG:545:CG:4921, V-B:ALA:541:CB:9863, V-A:ARG:545:CZ:4925, H-A:TYR:484:OH:4347, V-A:ILE:369:CD1:3238, V-B:GLU:543:CD:9879, V-B:PRO:540:CA:9854, V-A:SER:385:CA:3406, V-B:GLU:543:CG:9878, V-A:GLY:454:CA:4048, V-A:HIS:456:CE1:4069, V-A:TYR:484:CE2:4345, V-A:TYR:484:CZ:4346, V-A:LEU:475:CD1:4257, H-B:GLU:543:OE2:9881, V-B:TYR:539:C:9838, H-B:GLU:543:OE1:9880, V-A:GLU:543:CB:4905, V-A:GLU:543:CD:4907, V-A:ILE:455:C:4051, V-A:GLY:454:C:4046"]

$$$$
3ci_Grossjean_2025
     RDKit          3D

 25 27  0  0  0  0  0  0  0  0999 V2000
  134.7440  124.2540   62.7670 C   0  0  0  0  0  0  0  0  0  0  0  0
  133.3980  123.6320   62.4440 C   0  0  0  0  0  0  0  0  0  0  0  0
  133.2900  122.3280   61.9680 C   0  0  0  0  0  0  0  0  0  0  0  0
  132.0240  121.7920   61.7000 C   0  0  0  0  0  0  0  0  0  0  0  0
  131.9550  120.3840   61.2050 C   0  0  0  0  0  0  0  0  0  0  0  0
  132.8910  119.9040   60.2790 C   0  0  0  0  0  0  0  0  0  0  0  0
  132.8180  118.5930   59.8140 C   0  0  0  0  0  0  0  0  0  0  0  0
  131.8030  117.7570   60.2690 C   0  0  0  0  0  0  0  0  0  0  0  0
  130.8600  118.2210   61.1830 C   0  0  0  0  0  0  0  0  0  0  0  0
  130.9360  119.5320   61.6460 C   0  0  0  0  0  0  0  0  0  0  0  0
  130.8850  122.6100   61.9150 C   0  0  0  0  0  0  0  0  0  0  0  0
  129.5370  122.1180   61.6110 C   0  0  0  0  0  0  0  0  0  0  0  0
  128.4740  121.7270   61.3710 N   0  0  0  0  0  0  0  0  0  0  0  0
  131.0850  123.9230   62.4060 C   0  0  0  0  0  0  0  0  0  0  0  0
  129.7210  125.0330   62.7340 S   0  0  0  0  0  0  0  0  0  0  0  0
  130.1970  126.2130   64.0390 C   0  0  0  0  0  0  0  0  0  0  0  0
  131.1600  125.6200   65.0730 C   0  0  0  0  0  0  0  0  0  0  0  0
  130.9440  124.4920   65.5210 O   0  0  0  0  0  0  0  0  0  0  0  0
  132.1940  126.4120   65.4340 N   0  0  0  0  0  0  0  0  0  0  0  0
  133.2170  126.1080   66.3230 C   0  0  0  0  0  0  0  0  0  0  0  0
  133.0950  126.2650   67.7030 C   0  0  0  0  0  0  0  0  0  0  0  0
  134.3080  125.8630   68.2170 C   0  0  0  0  0  0  0  0  0  0  0  0
  135.1160  125.4840   67.1970 O   0  0  0  0  0  0  0  0  0  0  0  0
  134.4130  125.6450   66.0020 N   0  0  0  0  0  0  0  0  0  0  0  0
  132.3220  124.4210   62.6580 N   0  0  0  0  0  0  0  0  0  0  0  0
  1  2  1  0
  2  3  2  0
  3  4  1  0
  4  5  1  0
  5  6  2  0
  6  7  1  0
  7  8  2  0
  8  9  1  0
  9 10  2  0
  4 11  2  0
 11 12  1  0
 12 13  3  0
 11 14  1  0
 14 15  1  0
 15 16  1  0
 16 17  1  0
 17 18  2  0
 17 19  1  0
 19 20  1  0
 20 21  1  0
 21 22  2  0
 22 23  1  0
 23 24  1  0
 14 25  2  0
 25  2  1  0
 10  5  1  0
 24 20  2  0
M  END
>  <Binding energies>  (35) 
[-8.55]

>  <Ligand effiencies>  (35) 
[-0.3288461538461539]

>  <Interactions>  (35) 
["H-A:GLY:454:N:4049, H-A:ARG:545:NE:4923, V-A:GLY:453:C:4041, V-A:HIS:383:CE1:3393, V-A:GLY:453:CA:4043, H-A:ARG:545:NH1:4926, V-B:TYR:539:CE2:9847, V-A:ARG:545:CD:4922, V-A:LEU:475:CD2:4258, V-A:ILE:369:CG2:3236, V-A:ASP:366:CG:3212, V-B:TYR:539:CD2:9845, V-A:ARG:545:CG:4921, V-B:ALA:541:CB:9863, V-A:ARG:545:CZ:4925, H-A:TYR:484:OH:4347, V-A:ILE:369:CD1:3238, H-B:ALA:541:N:9862, V-A:GLY:454:CA:4048, V-A:HIS:456:CE1:4069, V-A:TYR:484:CZ:4346, V-A:GLU:543:CD:4907, H-A:GLU:543:OE2:4909, V-A:HIS:456:CD2:4067, H-A:ILE:455:N:4054, V-A:ILE:455:C:4051, V-A:ARG:545:CB:4920, V-A:HIS:456:CG:4065, H-A:GLU:543:OE1:4908"]

$$$$
3ck_Grossjean_2025
     RDKit          3D

 30 31  0  0  0  0  0  0  0  0999 V2000
  126.1140  122.4170   56.5470 C   0  0  0  0  0  0  0  0  0  0  0  0
  127.4710  122.0700   56.7770 O   0  0  0  0  0  0  0  0  0  0  0  0
  127.9640  122.5170   58.0330 C   0  0  0  0  0  0  0  0  0  0  0  0
  128.6630  123.8710   57.8570 C   0  0  0  0  0  0  0  0  0  0  0  0
  129.7730  123.9460   58.7440 O   0  0  0  0  0  0  0  0  0  0  0  0
  130.6660  125.0150   58.4610 C   0  0  0  0  0  0  0  0  0  0  0  0
  131.8230  124.9790   59.4670 C   0  0  0  0  0  0  0  0  0  0  0  0
  131.9320  123.6590   59.9780 O   0  0  0  0  0  0  0  0  0  0  0  0
  133.2290  123.2980   60.4260 C   0  0  0  0  0  0  0  0  0  0  0  0
  133.7130  124.3140   61.4790 C   0  0  0  0  0  0  0  0  0  0  0  0
  132.6350  124.8590   62.3100 N   0  0  0  0  0  0  0  0  0  0  0  0
  132.7260  125.1480   63.6210 C   0  0  0  0  0  0  0  0  0  0  0  0
  133.7610  125.0050   64.2740 O   0  0  0  0  0  0  0  0  0  0  0  0
  131.4400  125.6840   64.2710 C   0  0  0  0  0  0  0  0  0  0  0  0
  130.2860  124.4110   64.8890 S   0  0  0  0  0  0  0  0  0  0  0  0
  129.8190  123.3390   63.5380 C   0  0  0  0  0  0  0  0  0  0  0  0
  128.6420  123.6380   62.9330 N   0  0  0  0  0  0  0  0  0  0  0  0
  128.2240  122.8660   61.9050 C   0  0  0  0  0  0  0  0  0  0  0  0
  126.9000  123.2590   61.2810 C   0  0  0  0  0  0  0  0  0  0  0  0
  128.9540  121.7730   61.4430 C   0  0  0  0  0  0  0  0  0  0  0  0
  130.1690  121.4420   62.0560 C   0  0  0  0  0  0  0  0  0  0  0  0
  130.9060  120.2490   61.5420 C   0  0  0  0  0  0  0  0  0  0  0  0
  130.3330  118.9750   61.6360 C   0  0  0  0  0  0  0  0  0  0  0  0
  131.0190  117.8560   61.1680 C   0  0  0  0  0  0  0  0  0  0  0  0
  132.2840  118.0080   60.6080 C   0  0  0  0  0  0  0  0  0  0  0  0
  132.8710  119.2680   60.5160 C   0  0  0  0  0  0  0  0  0  0  0  0
  132.1830  120.3840   60.9840 C   0  0  0  0  0  0  0  0  0  0  0  0
  130.6250  122.2520   63.1280 C   0  0  0  0  0  0  0  0  0  0  0  0
  131.9110  121.9780   63.7810 C   0  0  0  0  0  0  0  0  0  0  0  0
  132.9250  121.7620   64.2960 N   0  0  0  0  0  0  0  0  0  0  0  0
  1  2  1  0
  2  3  1  0
  3  4  1  0
  4  5  1  0
  5  6  1  0
  6  7  1  0
  7  8  1  0
  8  9  1  0
  9 10  1  0
 10 11  1  0
 11 12  1  0
 12 13  2  0
 12 14  1  0
 14 15  1  0
 15 16  1  0
 16 17  2  0
 17 18  1  0
 18 19  1  0
 18 20  2  0
 20 21  1  0
 21 22  1  0
 22 23  2  0
 23 24  1  0
 24 25  2  0
 25 26  1  0
 26 27  2  0
 21 28  2  0
 28 29  1  0
 29 30  3  0
 28 16  1  0
 27 22  1  0
M  END
>  <Binding energies>  (36) 
[-7.13]

>  <Ligand effiencies>  (36) 
[-0.23]

>  <Interactions>  (36) 
["H-A:GLY:454:N:4049, V-B:TYR:539:CE2:9847, V-A:LEU:475:CD2:4258, V-A:ILE:369:CG2:3236, V-A:ASP:366:CG:3212, V-B:TYR:539:CD2:9845, V-B:ALA:541:CB:9863, H-A:TYR:484:OH:4347, V-A:ILE:369:CD1:3238, V-B:PRO:540:CB:9856, V-B:PRO:540:CA:9854, V-A:SER:385:CB:3408, V-A:SER:385:CA:3406, V-B:TYR:539:CG:9843, V-B:PRO:540:C:9852, H-A:ASP:366:OD2:3214, V-B:TYR:539:CZ:9848, V-B:TYR:539:C:9838, V-B:MET:535:CE:9806, V-B:PRO:540:N:9855, H-B:TYR:539:N:9841, H-B:TYR:539:OH:9849, V-A:PRO:482:CB:4325, V-B:PRO:540:CD:9858"]

$$$$
4aa_Grossjean_2025
     RDKit          3D

 26 28  0  0  0  0  0  0  0  0999 V2000
  130.6820  117.2230   61.1380 C   0  0  0  0  0  0  0  0  0  0  0  0
  131.9110  117.6940   60.3540 C   0  0  0  0  0  0  0  0  0  0  0  0
  131.9310  119.1150   60.3170 O   0  0  0  0  0  0  0  0  0  0  0  0
  133.0470  119.8090   60.6580 C   0  0  0  0  0  0  0  0  0  0  0  0
  134.1710  119.5550   60.2110 O   0  0  0  0  0  0  0  0  0  0  0  0
  132.7820  120.9150   61.6390 C   0  0  0  0  0  0  0  0  0  0  0  0
  131.4570  121.2530   61.9460 C   0  0  0  0  0  0  0  0  0  0  0  0
  131.1780  122.2760   62.8470 C   0  0  0  0  0  0  0  0  0  0  0  0
  132.2150  122.9760   63.4660 C   0  0  0  0  0  0  0  0  0  0  0  0
  131.8200  123.9970   64.3520 N   0  0  0  0  0  0  0  0  0  0  0  0
  132.5380  125.0110   64.8930 C   0  0  0  0  0  0  0  0  0  0  0  0
  133.7440  125.1790   64.7090 O   0  0  0  0  0  0  0  0  0  0  0  0
  131.7840  125.9170   65.7610 C   0  0  0  0  0  0  0  0  0  0  0  0
  132.3240  126.2190   67.4150 S   0  0  0  0  0  0  0  0  0  0  0  0
  130.9590  127.2700   67.7180 C   0  0  0  0  0  0  0  0  0  0  0  0
  130.7780  127.8710   68.8950 N   0  0  0  0  0  0  0  0  0  0  0  0
  129.6770  128.6550   68.9990 C   0  0  0  0  0  0  0  0  0  0  0  0
  129.4870  129.3250   70.3480 C   0  0  0  0  0  0  0  0  0  0  0  0
  128.7660  128.8540   67.9640 C   0  0  0  0  0  0  0  0  0  0  0  0
  128.9600  128.2240   66.7300 C   0  0  0  0  0  0  0  0  0  0  0  0
  127.9380  128.4720   65.6310 C   0  0  0  0  0  0  0  0  0  0  0  0
  130.1000  127.3890   66.5840 C   0  0  0  0  0  0  0  0  0  0  0  0
  130.5920  126.6040   65.4830 C   0  0  0  0  0  0  0  0  0  0  0  0
  129.9410  126.5470   64.2760 N   0  0  0  0  0  0  0  0  0  0  0  0
  133.5440  122.6490   63.1600 C   0  0  0  0  0  0  0  0  0  0  0  0
  133.8210  121.6270   62.2560 C   0  0  0  0  0  0  0  0  0  0  0  0
  1  2  1  0
  2  3  1  0
  3  4  1  0
  4  5  2  0
  4  6  1  0
  6  7  2  0
  7  8  1  0
  8  9  2  0
  9 10  1  0
 10 11  1  0
 11 12  2  0
 11 13  1  0
 13 14  1  0
 14 15  1  0
 15 16  2  0
 16 17  1  0
 17 18  1  0
 17 19  2  0
 19 20  1  0
 20 21  1  0
 20 22  2  0
 22 23  1  0
 23 24  1  0
  9 25  1  0
 25 26  2  0
 26  6  1  0
 23 13  2  0
 22 15  1  0
M  END
>  <Binding energies>  (37) 
[-6.92]

>  <Ligand effiencies>  (37) 
[-0.2386206896551724]

>  <Interactions>  (37) 
["H-A:GLY:454:N:4049, V-A:HIS:383:CE1:3393, V-B:TYR:539:CE2:9847, V-A:LEU:475:CD2:4258, V-A:ILE:369:CG2:3236, V-B:TYR:539:CD2:9845, V-A:ARG:545:CG:4921, H-A:TYR:484:OH:4347, V-A:ILE:369:CD1:3238, V-B:GLU:543:CD:9879, V-A:SER:385:CA:3406, V-A:GLY:454:CA:4048, V-A:HIS:456:CE1:4069, V-A:TYR:484:CZ:4346, H-B:GLU:543:OE2:9881, H-B:GLU:543:OE1:9880, V-B:HIS:456:CE1:9040, V-A:GLU:543:CB:4905, V-A:GLU:543:CD:4907, V-A:GLU:543:CG:4906, V-A:GLU:543:C:4901, V-A:SER:385:C:3404, V-A:PRO:482:CB:4325, V-A:PRO:482:CG:4326"]

$$$$
4ab_Grossjean_2025
     RDKit          3D

 25 27  0  0  0  0  0  0  0  0999 V2000
  128.9920  133.3430   59.0070 C   0  0  0  0  0  0  0  0  0  0  0  0
  129.4960  133.7720   57.7500 O   0  0  0  0  0  0  0  0  0  0  0  0
  130.6440  133.2550   57.2440 C   0  0  0  0  0  0  0  0  0  0  0  0
  131.3920  133.8760   56.4810 O   0  0  0  0  0  0  0  0  0  0  0  0
  130.9130  131.8500   57.6990 C   0  0  0  0  0  0  0  0  0  0  0  0
  129.9410  130.8640   57.4800 C   0  0  0  0  0  0  0  0  0  0  0  0
  130.1590  129.5510   57.8910 C   0  0  0  0  0  0  0  0  0  0  0  0
  131.3520  129.1970   58.5200 C   0  0  0  0  0  0  0  0  0  0  0  0
  131.4630  127.8450   58.9000 N   0  0  0  0  0  0  0  0  0  0  0  0
  131.4930  126.7240   58.1400 C   0  0  0  0  0  0  0  0  0  0  0  0
  131.3800  126.7150   56.9140 O   0  0  0  0  0  0  0  0  0  0  0  0
  131.6490  125.4710   58.8820 C   0  0  0  0  0  0  0  0  0  0  0  0
  133.2290  124.6910   58.9900 S   0  0  0  0  0  0  0  0  0  0  0  0
  132.5650  123.3670   59.9190 C   0  0  0  0  0  0  0  0  0  0  0  0
  133.3210  122.3550   60.3460 N   0  0  0  0  0  0  0  0  0  0  0  0
  132.6820  121.3910   61.0540 C   0  0  0  0  0  0  0  0  0  0  0  0
  133.5600  120.2460   61.5260 C   0  0  0  0  0  0  0  0  0  0  0  0
  131.3200  121.4180   61.3450 C   0  0  0  0  0  0  0  0  0  0  0  0
  130.5290  122.4810   60.8950 C   0  0  0  0  0  0  0  0  0  0  0  0
  129.0470  122.4640   61.2360 C   0  0  0  0  0  0  0  0  0  0  0  0
  131.1630  123.5090   60.1450 C   0  0  0  0  0  0  0  0  0  0  0  0
  130.6660  124.7140   59.5380 C   0  0  0  0  0  0  0  0  0  0  0  0
  129.3440  125.0770   59.6080 N   0  0  0  0  0  0  0  0  0  0  0  0
  132.3290  130.1780   58.7490 C   0  0  0  0  0  0  0  0  0  0  0  0
  132.1080  131.4900   58.3390 C   0  0  0  0  0  0  0  0  0  0  0  0
  1  2  1  0
  2  3  1  0
  3  4  2  0
  3  5  1  0
  5  6  2  0
  6  7  1  0
  7  8  2  0
  8  9  1  0
  9 10  1  0
 10 11  2  0
 10 12  1  0
 12 13  1  0
 13 14  1  0
 14 15  2  0
 15 16  1  0
 16 17  1  0
 16 18  2  0
 18 19  1  0
 19 20  1  0
 19 21  2  0
 21 22  1  0
 22 23  1  0
  8 24  1  0
 24 25  2  0
 25  5  1  0
 22 12  2  0
 21 14  1  0
M  END
>  <Binding energies>  (38) 
[-6.7]

>  <Ligand effiencies>  (38) 
[-0.2392857142857143]

>  <Interactions>  (38) 
["V-B:TYR:539:CE2:9847, V-A:LEU:475:CD2:4258, V-A:ILE:369:CG2:3236, V-A:ASP:366:CG:3212, V-B:TYR:539:CD2:9845, V-A:SER:385:CB:3408, V-A:SER:385:CA:3406, H-A:ASP:366:OD2:3214, V-A:ASP:366:CB:3211, V-A:ILE:369:CB:3235, V-A:ASP:366:CA:3209, V-A:PRO:540:CA:4882, H-B:TYR:539:OH:9849, H-A:TYR:531:OH:4794, V-A:PRO:540:N:4883, V-A:TYR:539:C:4866, V-A:SER:385:C:3404, V-A:TYR:539:CD1:4872, V-A:TYR:539:CE1:4874, H-A:TYR:539:N:4869"]

$$$$
4ac_Grossjean_2025
     RDKit          3D

 23 25  0  0  0  0  0  0  0  0999 V2000
  129.9960  129.0900   71.8500 C   0  0  0  0  0  0  0  0  0  0  0  0
  129.0500  128.3820   71.0550 O   0  0  0  0  0  0  0  0  0  0  0  0
  129.4710  127.7700   69.8910 C   0  0  0  0  0  0  0  0  0  0  0  0
  129.0940  126.4390   69.7170 C   0  0  0  0  0  0  0  0  0  0  0  0
  129.4710  125.7390   68.5730 C   0  0  0  0  0  0  0  0  0  0  0  0
  130.2260  126.3680   67.5820 C   0  0  0  0  0  0  0  0  0  0  0  0
  130.5710  125.5790   66.4700 N   0  0  0  0  0  0  0  0  0  0  0  0
  131.6390  125.6840   65.6420 C   0  0  0  0  0  0  0  0  0  0  0  0
  132.4970  126.5640   65.7330 O   0  0  0  0  0  0  0  0  0  0  0  0
  131.7210  124.6670   64.5900 C   0  0  0  0  0  0  0  0  0  0  0  0
  130.9270  123.1050   64.7950 S   0  0  0  0  0  0  0  0  0  0  0  0
  131.4850  122.5630   63.2290 C   0  0  0  0  0  0  0  0  0  0  0  0
  131.1900  121.3510   62.7550 N   0  0  0  0  0  0  0  0  0  0  0  0
  131.6840  121.0560   61.5290 C   0  0  0  0  0  0  0  0  0  0  0  0
  131.3370  119.6730   61.0080 C   0  0  0  0  0  0  0  0  0  0  0  0
  132.4610  121.9330   60.7730 C   0  0  0  0  0  0  0  0  0  0  0  0
  132.7680  123.2030   61.2740 C   0  0  0  0  0  0  0  0  0  0  0  0
  133.6180  124.1240   60.4120 C   0  0  0  0  0  0  0  0  0  0  0  0
  132.2650  123.5500   62.5560 C   0  0  0  0  0  0  0  0  0  0  0  0
  132.3820  124.7410   63.3540 C   0  0  0  0  0  0  0  0  0  0  0  0
  133.0840  125.8400   62.9280 N   0  0  0  0  0  0  0  0  0  0  0  0
  130.6200  127.7020   67.7560 C   0  0  0  0  0  0  0  0  0  0  0  0
  130.2410  128.3990   68.9010 C   0  0  0  0  0  0  0  0  0  0  0  0
  1  2  1  0
  2  3  1  0
  3  4  2  0
  4  5  1  0
  5  6  2  0
  6  7  1  0
  7  8  1  0
  8  9  2  0
  8 10  1  0
 10 11  1  0
 11 12  1  0
 12 13  2  0
 13 14  1  0
 14 15  1  0
 14 16  2  0
 16 17  1  0
 17 18  1  0
 17 19  2  0
 19 20  1  0
 20 21  1  0
  6 22  1  0
 22 23  2  0
 23  3  1  0
 20 10  2  0
 19 12  1  0
M  END
>  <Binding energies>  (39) 
[-6.19]

>  <Ligand effiencies>  (39) 
[-0.2380769230769231]

>  <Interactions>  (39) 
["H-A:ARG:545:NE:4923, H-A:ARG:545:NH2:4927, V-B:TYR:539:CE2:9847, V-A:LEU:475:CD2:4258, V-A:ILE:369:CG2:3236, V-A:ASP:366:CG:3212, V-B:TYR:539:CD2:9845, V-A:ARG:545:CZ:4925, H-A:TYR:484:OH:4347, V-A:ILE:369:CD1:3238, V-B:GLU:543:CD:9879, V-A:HIS:456:CE1:4069, H-A:ASP:366:OD2:3214, H-A:ASP:366:OD1:3213, V-A:ASP:366:CB:3211, V-A:ILE:369:CB:3235, V-A:TYR:484:CE2:4345, V-A:TYR:484:CZ:4346, H-B:GLU:543:OE2:9881, V-B:HIS:456:CE1:9040, V-B:GLU:543:CB:9877, V-A:GLU:543:CB:4905, V-A:GLU:543:CD:4907, V-A:GLU:543:C:4901"]

$$$$
4ad_Grossjean_2025
     RDKit          3D

 21 23  0  0  0  0  0  0  0  0999 V2000
  131.1350  126.7210   67.5530 C   0  0  0  0  0  0  0  0  0  0  0  0
  131.4880  125.8460   66.3650 C   0  0  0  0  0  0  0  0  0  0  0  0
  132.6730  126.0390   65.6590 C   0  0  0  0  0  0  0  0  0  0  0  0
  132.9770  125.2200   64.5640 C   0  0  0  0  0  0  0  0  0  0  0  0
  134.2810  125.4710   63.8220 C   0  0  0  0  0  0  0  0  0  0  0  0
  132.0440  124.2070   64.2150 C   0  0  0  0  0  0  0  0  0  0  0  0
  132.0350  123.2130   63.1760 C   0  0  0  0  0  0  0  0  0  0  0  0
  133.0610  123.0920   62.2710 N   0  0  0  0  0  0  0  0  0  0  0  0
  130.8950  122.3930   63.1790 C   0  0  0  0  0  0  0  0  0  0  0  0
  130.5540  121.3030   62.2640 C   0  0  0  0  0  0  0  0  0  0  0  0
  129.3880  121.1230   61.9080 O   0  0  0  0  0  0  0  0  0  0  0  0
  131.5990  120.5440   61.8500 N   0  0  0  0  0  0  0  0  0  0  0  0
  131.6060  119.4100   61.0150 C   0  0  0  0  0  0  0  0  0  0  0  0
  132.6910  119.3020   60.1400 C   0  0  0  0  0  0  0  0  0  0  0  0
  132.7950  118.2110   59.2810 C   0  0  0  0  0  0  0  0  0  0  0  0
  131.8160  117.2200   59.3030 C   0  0  0  0  0  0  0  0  0  0  0  0
  130.7380  117.3090   60.1800 C   0  0  0  0  0  0  0  0  0  0  0  0
  130.6310  118.3990   61.0390 C   0  0  0  0  0  0  0  0  0  0  0  0
  129.7970  122.8370   64.4860 S   0  0  0  0  0  0  0  0  0  0  0  0
  130.8670  124.1140   65.0170 C   0  0  0  0  0  0  0  0  0  0  0  0
  130.5750  124.8920   66.0610 N   0  0  0  0  0  0  0  0  0  0  0  0
  1  2  1  0
  2  3  2  0
  3  4  1  0
  4  5  1  0
  4  6  2  0
  6  7  1  0
  7  8  1  0
  7  9  2  0
  9 10  1  0
 10 11  2  0
 10 12  1  0
 12 13  1  0
 13 14  2  0
 14 15  1  0
 15 16  2  0
 16 17  1  0
 17 18  2  0
  9 19  1  0
 19 20  1  0
 20 21  2  0
 21  2  1  0
 20  6  1  0
 18 13  1  0
M  END
>  <Binding energies>  (40) 
[-6.54]

>  <Ligand effiencies>  (40) 
[-0.2725]

>  <Interactions>  (40) 
["V-A:GLY:453:C:4041, V-A:HIS:383:CE1:3393, V-A:GLY:453:CA:4043, V-B:TYR:539:CE2:9847, V-A:LEU:475:CD2:4258, V-B:TYR:539:CB:9842, V-A:ASP:366:CG:3212, V-A:LEU:373:CD2:3280, V-B:TYR:539:CD2:9845, V-B:ALA:541:CB:9863, V-A:ARG:545:CZ:4925, H-A:TYR:484:OH:4347, H-B:ALA:541:N:9862, V-B:TYR:539:CG:9843, V-A:HIS:456:CE1:4069, V-A:TYR:484:CZ:4346, V-A:LEU:373:CG:3278, V-A:HIS:383:CG:3389, H-A:SER:385:O:3405"]

$$$$
4ae_Grossjean_2025
     RDKit          3D

 22 24  0  0  0  0  0  0  0  0999 V2000
  127.6200  126.2520   71.1290 C   0  0  0  0  0  0  0  0  0  0  0  0
  128.6330  126.9680   70.2580 C   0  0  0  0  0  0  0  0  0  0  0  0
  129.1190  128.2350   70.5920 C   0  0  0  0  0  0  0  0  0  0  0  0
  130.0440  128.8370   69.7390 C   0  0  0  0  0  0  0  0  0  0  0  0
  130.4580  128.1660   68.5860 C   0  0  0  0  0  0  0  0  0  0  0  0
  129.9380  126.8950   68.3150 C   0  0  0  0  0  0  0  0  0  0  0  0
  130.3760  126.2800   67.1300 N   0  0  0  0  0  0  0  0  0  0  0  0
  131.6440  126.1210   66.6750 C   0  0  0  0  0  0  0  0  0  0  0  0
  132.6430  126.5260   67.2730 O   0  0  0  0  0  0  0  0  0  0  0  0
  131.7680  125.4250   65.3930 C   0  0  0  0  0  0  0  0  0  0  0  0
  133.0630  125.8460   64.2710 S   0  0  0  0  0  0  0  0  0  0  0  0
  132.4950  124.6790   63.1000 C   0  0  0  0  0  0  0  0  0  0  0  0
  133.1040  124.5030   61.9280 N   0  0  0  0  0  0  0  0  0  0  0  0
  132.5600  123.5710   61.1090 C   0  0  0  0  0  0  0  0  0  0  0  0
  133.2650  123.3910   59.7760 C   0  0  0  0  0  0  0  0  0  0  0  0
  131.4330  122.8170   61.4320 C   0  0  0  0  0  0  0  0  0  0  0  0
  130.7970  123.0040   62.6650 C   0  0  0  0  0  0  0  0  0  0  0  0
  129.5690  122.1610   62.9720 C   0  0  0  0  0  0  0  0  0  0  0  0
  131.3390  123.9750   63.5510 C   0  0  0  0  0  0  0  0  0  0  0  0
  130.9450  124.4180   64.8620 C   0  0  0  0  0  0  0  0  0  0  0  0
  129.8610  123.8930   65.5180 N   0  0  0  0  0  0  0  0  0  0  0  0
  129.0270  126.3030   69.1420 N   0  0  0  0  0  0  0  0  0  0  0  0
  1  2  1  0
  2  3  2  0
  3  4  1  0
  4  5  2  0
  5  6  1  0
  6  7  1  0
  7  8  1  0
  8  9  2  0
  8 10  1  0
 10 11  1  0
 11 12  1  0
 12 13  2  0
 13 14  1  0
 14 15  1  0
 14 16  2  0
 16 17  1  0
 17 18  1  0
 17 19  2  0
 19 20  1  0
 20 21  1  0
  6 22  2  0
 22  2  1  0
 20 10  2  0
 19 12  1  0
M  END
>  <Binding energies>  (41) 
[-6.32]

>  <Ligand effiencies>  (41) 
[-0.2528]

>  <Interactions>  (41) 
["H-A:ARG:545:NE:4923, V-B:TYR:539:CE2:9847, V-A:ILE:369:CG2:3236, V-B:ALA:541:CB:9863, V-A:ARG:545:CZ:4925, H-A:TYR:484:OH:4347, V-A:ILE:369:CD1:3238, V-B:GLU:543:CD:9879, V-B:GLU:543:CG:9878, V-A:HIS:456:CE1:4069, V-A:ILE:369:CB:3235, V-A:TYR:484:CE2:4345, V-A:TYR:484:CZ:4346, H-B:GLU:543:OE2:9881, V-B:HIS:456:CE1:9040, V-B:GLU:543:CB:9877, V-B:GLY:544:C:9883, V-A:GLU:543:CB:4905, V-B:GLU:543:C:9873, V-A:GLU:543:CD:4907, V-A:GLU:543:C:4901"]

$$$$
4af_Grossjean_2025
     RDKit          3D

 21 23  0  0  0  0  0  0  0  0999 V2000
  135.4360  125.8100   67.2580 C   0  0  0  0  0  0  0  0  0  0  0  0
  134.1410  125.8760   66.4680 C   0  0  0  0  0  0  0  0  0  0  0  0
  132.9440  126.2370   67.0820 C   0  0  0  0  0  0  0  0  0  0  0  0
  131.7610  126.2870   66.3340 C   0  0  0  0  0  0  0  0  0  0  0  0
  130.4790  126.6850   67.0490 C   0  0  0  0  0  0  0  0  0  0  0  0
  131.8360  125.9610   64.9530 C   0  0  0  0  0  0  0  0  0  0  0  0
  130.8420  125.9090   63.9140 C   0  0  0  0  0  0  0  0  0  0  0  0
  129.5230  126.2060   64.1480 N   0  0  0  0  0  0  0  0  0  0  0  0
  131.3470  125.5300   62.6600 C   0  0  0  0  0  0  0  0  0  0  0  0
  130.6200  125.3470   61.4020 C   0  0  0  0  0  0  0  0  0  0  0  0
  129.7490  124.4820   61.3020 O   0  0  0  0  0  0  0  0  0  0  0  0
  130.9680  126.1940   60.4030 N   0  0  0  0  0  0  0  0  0  0  0  0
  130.5030  126.2520   59.0760 C   0  0  0  0  0  0  0  0  0  0  0  0
  129.2640  125.7640   58.6230 C   0  0  0  0  0  0  0  0  0  0  0  0
  128.9320  125.8690   57.2720 C   0  0  0  0  0  0  0  0  0  0  0  0
  129.8510  126.4560   56.4000 C   0  0  0  0  0  0  0  0  0  0  0  0
  131.0560  126.9270   56.8100 N   0  0  0  0  0  0  0  0  0  0  0  0
  131.3640  126.8180   58.1270 C   0  0  0  0  0  0  0  0  0  0  0  0
  133.0840  125.2240   62.7390 S   0  0  0  0  0  0  0  0  0  0  0  0
  133.1220  125.6080   64.4450 C   0  0  0  0  0  0  0  0  0  0  0  0
  134.2500  125.5590   65.1550 N   0  0  0  0  0  0  0  0  0  0  0  0
  1  2  1  0
  2  3  2  0
  3  4  1  0
  4  5  1  0
  4  6  2  0
  6  7  1  0
  7  8  1  0
  7  9  2  0
  9 10  1  0
 10 11  2  0
 10 12  1  0
 12 13  1  0
 13 14  2  0
 14 15  1  0
 15 16  2  0
 16 17  1  0
 17 18  2  0
  9 19  1  0
 19 20  1  0
 20 21  2  0
 21  2  1  0
 20  6  1  0
 18 13  1  0
M  END
>  <Binding energies>  (42) 
[-6.23]

>  <Ligand effiencies>  (42) 
[-0.25958333333333333]

>  <Interactions>  (42) 
["H-A:GLY:454:N:4049, H-A:ARG:545:NE:4923, V-A:GLY:453:C:4041, H-A:ARG:545:NH2:4927, V-A:GLY:453:CA:4043, H-A:ARG:545:NH1:4926, V-A:ARG:545:CD:4922, V-A:ASP:366:CG:3212, V-A:ARG:545:CG:4921, V-A:ARG:545:CZ:4925, H-A:TYR:484:OH:4347, V-B:GLU:543:CD:9879, V-A:HIS:456:CE1:4069, H-A:ASP:366:OD2:3214, V-A:ASP:366:CB:3211, H-B:GLU:543:OE2:9881, H-B:GLU:543:OE1:9880, V-B:MET:535:CE:9806, H-A:TYR:531:OH:4794, V-A:ILE:455:C:4051, V-A:ARG:545:CB:4920"]

$$$$
4ag_Grossjean_2025
     RDKit          3D

 22 24  0  0  0  0  0  0  0  0999 V2000
  129.6460  117.1270   60.6090 C   0  0  0  0  0  0  0  0  0  0  0  0
  130.6380  118.2540   60.8310 C   0  0  0  0  0  0  0  0  0  0  0  0
  131.9360  118.1760   60.3280 C   0  0  0  0  0  0  0  0  0  0  0  0
  132.8340  119.2270   60.5440 C   0  0  0  0  0  0  0  0  0  0  0  0
  134.2390  119.0970   59.9750 C   0  0  0  0  0  0  0  0  0  0  0  0
  132.3750  120.3510   61.2820 C   0  0  0  0  0  0  0  0  0  0  0  0
  133.0140  121.5760   61.6790 C   0  0  0  0  0  0  0  0  0  0  0  0
  134.3180  121.8620   61.3570 N   0  0  0  0  0  0  0  0  0  0  0  0
  132.1880  122.4350   62.4180 C   0  0  0  0  0  0  0  0  0  0  0  0
  132.5060  123.7530   62.9660 C   0  0  0  0  0  0  0  0  0  0  0  0
  133.6710  124.1490   63.0530 O   0  0  0  0  0  0  0  0  0  0  0  0
  131.4570  124.4930   63.3830 N   0  0  0  0  0  0  0  0  0  0  0  0
  131.5390  125.8440   63.9370 C   0  0  0  0  0  0  0  0  0  0  0  0
  132.2610  125.9200   65.2770 C   0  0  0  0  0  0  0  0  0  0  0  0
  133.6390  125.6910   65.3390 C   0  0  0  0  0  0  0  0  0  0  0  0
  134.3060  125.7850   66.5580 C   0  0  0  0  0  0  0  0  0  0  0  0
  133.5950  126.1180   67.7090 C   0  0  0  0  0  0  0  0  0  0  0  0
  132.2250  126.3630   67.6530 C   0  0  0  0  0  0  0  0  0  0  0  0
  131.5580  126.2700   66.4340 C   0  0  0  0  0  0  0  0  0  0  0  0
  130.5780  121.7470   62.6340 S   0  0  0  0  0  0  0  0  0  0  0  0
  131.0240  120.3090   61.7420 C   0  0  0  0  0  0  0  0  0  0  0  0
  130.1650  119.3100   61.5370 N   0  0  0  0  0  0  0  0  0  0  0  0
  1  2  1  0
  2  3  2  0
  3  4  1  0
  4  5  1  0
  4  6  2  0
  6  7  1  0
  7  8  1  0
  7  9  2  0
  9 10  1  0
 10 11  2  0
 10 12  1  0
 12 13  1  0
 13 14  1  0
 14 15  2  0
 15 16  1  0
 16 17  2  0
 17 18  1  0
 18 19  2  0
  9 20  1  0
 20 21  1  0
 21 22  2  0
 22  2  1  0
 21  6  1  0
 19 14  1  0
M  END
>  <Binding energies>  (43) 
[-6.57]

>  <Ligand effiencies>  (43) 
[-0.26280000000000003]

>  <Interactions>  (43) 
["H-A:GLY:454:N:4049, V-A:GLY:453:C:4041, V-A:HIS:383:CE1:3393, V-A:GLY:453:CA:4043, V-A:ARG:545:CD:4922, V-A:LEU:475:CD2:4258, V-A:ILE:369:CG2:3236, V-B:TYR:539:CB:9842, V-A:LEU:373:CD2:3280, V-B:TYR:539:CD2:9845, V-A:ARG:545:CG:4921, V-B:ALA:541:CB:9863, V-A:ARG:545:CZ:4925, V-A:ILE:369:CD1:3238, V-A:SER:385:CB:3408, V-A:SER:385:CA:3406, V-A:GLY:454:CA:4048, V-A:VAL:384:C:3396, V-A:HIS:456:CE1:4069, V-A:TYR:484:CZ:4346, V-B:TYR:539:C:9838, V-A:SER:385:C:3404, V-A:PRO:482:CB:4325, V-A:PRO:482:CG:4326, V-B:TYR:539:CA:9840, H-A:SER:385:O:3405, V-B:VAL:344:CG1:7971, V-A:ILE:369:CG1:3237"]

$$$$
4ah_Grossjean_2025
     RDKit          3D

 28 30  0  0  0  0  0  0  0  0999 V2000
  129.2370  123.3290   73.6440 C   0  0  0  0  0  0  0  0  0  0  0  0
  128.2800  124.3820   73.6450 O   0  0  0  0  0  0  0  0  0  0  0  0
  128.5570  125.5520   72.9600 C   0  0  0  0  0  0  0  0  0  0  0  0
  128.0620  125.8470   71.6800 C   0  0  0  0  0  0  0  0  0  0  0  0
  128.3860  127.0490   71.0490 C   0  0  0  0  0  0  0  0  0  0  0  0
  127.8010  127.3730   69.6780 C   0  0  0  0  0  0  0  0  0  0  0  0
  128.6900  127.0320   68.5670 N   0  0  0  0  0  0  0  0  0  0  0  0
  129.9320  127.5260   68.3800 C   0  0  0  0  0  0  0  0  0  0  0  0
  130.4340  128.3640   69.1310 O   0  0  0  0  0  0  0  0  0  0  0  0
  130.6440  127.0390   67.2000 C   0  0  0  0  0  0  0  0  0  0  0  0
  132.2080  126.2410   67.3750 S   0  0  0  0  0  0  0  0  0  0  0  0
  132.3520  126.0460   65.6420 C   0  0  0  0  0  0  0  0  0  0  0  0
  133.4080  125.4540   65.0830 N   0  0  0  0  0  0  0  0  0  0  0  0
  133.3960  125.3660   63.7310 C   0  0  0  0  0  0  0  0  0  0  0  0
  134.6080  124.6910   63.1160 C   0  0  0  0  0  0  0  0  0  0  0  0
  132.3620  125.8490   62.9330 C   0  0  0  0  0  0  0  0  0  0  0  0
  131.2550  126.4730   63.5210 C   0  0  0  0  0  0  0  0  0  0  0  0
  130.1520  126.9850   62.6080 C   0  0  0  0  0  0  0  0  0  0  0  0
  131.2330  126.5860   64.9380 C   0  0  0  0  0  0  0  0  0  0  0  0
  130.2800  127.1570   65.8510 C   0  0  0  0  0  0  0  0  0  0  0  0
  129.1190  127.7510   65.4230 N   0  0  0  0  0  0  0  0  0  0  0  0
  129.1890  127.9790   71.7090 C   0  0  0  0  0  0  0  0  0  0  0  0
  129.7020  127.7090   72.9870 C   0  0  0  0  0  0  0  0  0  0  0  0
  130.5150  128.5780   73.6920 O   0  0  0  0  0  0  0  0  0  0  0  0
  130.6230  129.9320   73.2670 C   0  0  0  0  0  0  0  0  0  0  0  0
  129.3840  126.4880   73.5990 C   0  0  0  0  0  0  0  0  0  0  0  0
  129.8650  126.2170   74.8580 O   0  0  0  0  0  0  0  0  0  0  0  0
  131.2430  125.8680   74.8880 C   0  0  0  0  0  0  0  0  0  0  0  0
  1  2  1  0
  2  3  1  0
  3  4  2  0
  4  5  1  0
  5  6  1  0
  6  7  1  0
  7  8  1  0
  8  9  2  0
  8 10  1  0
 10 11  1  0
 11 12  1  0
 12 13  2  0
 13 14  1  0
 14 15  1  0
 14 16  2  0
 16 17  1  0
 17 18  1  0
 17 19  2  0
 19 20  1  0
 20 21  1  0
  5 22  2  0
 22 23  1  0
 23 24  1  0
 24 25  1  0
 23 26  2  0
 26 27  1  0
 27 28  1  0
 26  3  1  0
 20 10  2  0
 19 12  1  0
M  END
>  <Binding energies>  (44) 
[-6.59]

>  <Ligand effiencies>  (44) 
[-0.21258064516129033]

>  <Interactions>  (44) 
["H-A:GLY:454:N:4049, V-A:GLY:453:C:4041, H-A:ARG:545:NH2:4927, V-A:GLY:453:CA:4043, V-A:ASP:366:CG:3212, V-A:ARG:545:CZ:4925, H-A:TYR:484:OH:4347, V-A:ILE:369:CD1:3238, V-B:GLU:543:CD:9879, V-A:GLY:454:CA:4048, V-A:HIS:456:CE1:4069, V-A:TYR:484:CZ:4346, H-B:GLU:543:OE2:9881, H-B:GLU:543:OE1:9880, V-B:HIS:456:CE1:9040, V-B:GLU:543:CB:9877, V-B:GLU:543:C:9873, V-A:GLU:543:CD:4907, H-A:GLU:543:OE2:4909, V-A:GLU:543:C:4901, V-A:HIS:456:CG:4065, H-A:LYS:547:NZ:4950, H-A:GLU:543:OE1:4908, H-B:LYS:547:NZ:9922, V-A:GLY:544:CA:4913, V-A:GLY:544:C:4911, V-B:LYS:547:CE:9921, V-A:LYS:547:CE:4949"]

$$$$
4ai_Grossjean_2025
     RDKit          3D

 20 22  0  0  0  0  0  0  0  0999 V2000
  126.8530  122.4810   57.0230 C   0  0  0  0  0  0  0  0  0  0  0  0
  127.8830  123.1740   57.8960 C   0  0  0  0  0  0  0  0  0  0  0  0
  128.5090  124.3460   57.4740 C   0  0  0  0  0  0  0  0  0  0  0  0
  129.4510  124.9720   58.2970 C   0  0  0  0  0  0  0  0  0  0  0  0
  130.1050  126.2490   57.7930 C   0  0  0  0  0  0  0  0  0  0  0  0
  129.7350  124.3730   59.5550 C   0  0  0  0  0  0  0  0  0  0  0  0
  130.6250  124.7390   60.6230 C   0  0  0  0  0  0  0  0  0  0  0  0
  131.4250  125.8520   60.5620 N   0  0  0  0  0  0  0  0  0  0  0  0
  130.5900  123.8630   61.7200 C   0  0  0  0  0  0  0  0  0  0  0  0
  131.3640  123.9260   62.9610 C   0  0  0  0  0  0  0  0  0  0  0  0
  131.5250  122.9200   63.6550 O   0  0  0  0  0  0  0  0  0  0  0  0
  131.8850  125.1430   63.2600 N   0  0  0  0  0  0  0  0  0  0  0  0
  132.6620  125.4820   64.3600 C   0  0  0  0  0  0  0  0  0  0  0  0
  132.1300  126.0220   65.5320 C   0  0  0  0  0  0  0  0  0  0  0  0
  133.2110  126.2160   66.3600 C   0  0  0  0  0  0  0  0  0  0  0  0
  134.3360  125.8120   65.7220 O   0  0  0  0  0  0  0  0  0  0  0  0
  133.9750  125.3480   64.4560 N   0  0  0  0  0  0  0  0  0  0  0  0
  129.4600  122.5370   61.4400 S   0  0  0  0  0  0  0  0  0  0  0  0
  129.0270  123.1740   59.8690 C   0  0  0  0  0  0  0  0  0  0  0  0
  128.1290  122.5750   59.0860 N   0  0  0  0  0  0  0  0  0  0  0  0
  1  2  1  0
  2  3  2  0
  3  4  1  0
  4  5  1  0
  4  6  2  0
  6  7  1  0
  7  8  1  0
  7  9  2  0
  9 10  1  0
 10 11  2  0
 10 12  1  0
 12 13  1  0
 13 14  1  0
 14 15  2  0
 15 16  1  0
 16 17  1  0
  9 18  1  0
 18 19  1  0
 19 20  2  0
 20  2  1  0
 19  6  1  0
 17 13  2  0
M  END
>  <Binding energies>  (45) 
[-6.15]

>  <Ligand effiencies>  (45) 
[-0.2673913043478261]

>  <Interactions>  (45) 
["H-A:GLY:454:N:4049, H-A:ARG:545:NE:4923, H-A:ARG:545:NH2:4927, H-A:ARG:545:NH1:4926, V-B:TYR:539:CE2:9847, V-A:ARG:545:CD:4922, V-A:ASP:366:CG:3212, V-B:TYR:539:CD2:9845, V-A:ARG:545:CG:4921, V-A:ARG:545:CZ:4925, H-A:TYR:484:OH:4347, V-B:PRO:540:CA:9854, H-A:ASP:366:OD2:3214, V-B:TYR:539:CZ:9848, V-B:TYR:539:C:9838, V-B:MET:535:CE:9806, V-B:PRO:540:N:9855, V-B:PRO:540:CD:9858"]

$$$$
4aj_Grossjean_2025
     RDKit          3D

 20 22  0  0  0  0  0  0  0  0999 V2000
  135.1090  125.5400   67.2780 C   0  0  0  0  0  0  0  0  0  0  0  0
  133.8590  125.7790   66.4510 C   0  0  0  0  0  0  0  0  0  0  0  0
  132.6910  126.2580   67.0390 C   0  0  0  0  0  0  0  0  0  0  0  0
  131.5490  126.4660   66.2580 C   0  0  0  0  0  0  0  0  0  0  0  0
  130.2980  126.9900   66.9460 C   0  0  0  0  0  0  0  0  0  0  0  0
  131.6320  126.1760   64.8700 C   0  0  0  0  0  0  0  0  0  0  0  0
  130.6740  126.2700   63.8000 C   0  0  0  0  0  0  0  0  0  0  0  0
  129.3900  126.7050   64.0040 N   0  0  0  0  0  0  0  0  0  0  0  0
  131.1790  125.8840   62.5490 C   0  0  0  0  0  0  0  0  0  0  0  0
  130.4850  125.8450   61.2590 C   0  0  0  0  0  0  0  0  0  0  0  0
  129.2650  125.6790   61.2060 O   0  0  0  0  0  0  0  0  0  0  0  0
  131.2730  126.0160   60.1690 N   0  0  0  0  0  0  0  0  0  0  0  0
  130.8670  126.0330   58.8420 C   0  0  0  0  0  0  0  0  0  0  0  0
  129.6430  125.9310   58.3700 N   0  0  0  0  0  0  0  0  0  0  0  0
  129.6250  125.9910   57.0530 C   0  0  0  0  0  0  0  0  0  0  0  0
  130.8580  126.1460   56.4260 C   0  0  0  0  0  0  0  0  0  0  0  0
  132.1020  126.2150   57.6390 S   0  0  0  0  0  0  0  0  0  0  0  0
  132.8640  125.3740   62.6700 S   0  0  0  0  0  0  0  0  0  0  0  0
  132.8870  125.6930   64.3900 C   0  0  0  0  0  0  0  0  0  0  0  0
  133.9770  125.4930   65.1310 N   0  0  0  0  0  0  0  0  0  0  0  0
  1  2  1  0
  2  3  2  0
  3  4  1  0
  4  5  1  0
  4  6  2  0
  6  7  1  0
  7  8  1  0
  7  9  2  0
  9 10  1  0
 10 11  2  0
 10 12  1  0
 12 13  1  0
 13 14  2  0
 14 15  1  0
 15 16  2  0
 16 17  1  0
  9 18  1  0
 18 19  1  0
 19 20  2  0
 20  2  1  0
 19  6  1  0
 17 13  1  0
M  END
>  <Binding energies>  (46) 
[-5.61]

>  <Ligand effiencies>  (46) 
[-0.24391304347826087]

>  <Interactions>  (46) 
["H-A:GLY:454:N:4049, H-A:ARG:545:NE:4923, V-A:GLY:453:C:4041, H-A:ARG:545:NH2:4927, V-A:GLY:453:CA:4043, H-A:ARG:545:NH1:4926, V-A:ARG:545:CD:4922, V-A:ASP:366:CG:3212, V-A:ARG:545:CG:4921, V-A:ARG:545:CZ:4925, H-A:TYR:484:OH:4347, V-B:GLU:543:CD:9879, V-A:GLY:454:CA:4048, V-A:HIS:456:CE1:4069, H-A:ASP:366:OD2:3214, H-A:ASP:366:OD1:3213, V-A:ASP:366:CB:3211, H-B:GLU:543:OE2:9881, H-B:GLU:543:OE1:9880, V-A:GLU:543:CD:4907, V-B:MET:535:CE:9806, V-A:TYR:531:CE1:4791, V-A:ILE:455:C:4051, V-A:GLY:454:C:4046"]

$$$$
4ak_Grossjean_2025
     RDKit          3D

 25 26  0  0  0  0  0  0  0  0999 V2000
  127.0500  126.6580   70.3550 C   0  0  0  0  0  0  0  0  0  0  0  0
  126.7270  126.9730   69.0090 O   0  0  0  0  0  0  0  0  0  0  0  0
  127.1590  128.2680   68.6110 C   0  0  0  0  0  0  0  0  0  0  0  0
  128.3680  128.1390   67.6760 C   0  0  0  0  0  0  0  0  0  0  0  0
  129.5570  128.0630   68.4510 O   0  0  0  0  0  0  0  0  0  0  0  0
  130.5460  127.2020   67.9020 C   0  0  0  0  0  0  0  0  0  0  0  0
  129.9770  125.7830   67.7880 C   0  0  0  0  0  0  0  0  0  0  0  0
  130.6270  125.1010   66.7240 O   0  0  0  0  0  0  0  0  0  0  0  0
  131.6720  125.8480   66.1140 C   0  0  0  0  0  0  0  0  0  0  0  0
  131.4290  125.9170   64.5960 C   0  0  0  0  0  0  0  0  0  0  0  0
  131.3850  124.6060   63.9490 N   0  0  0  0  0  0  0  0  0  0  0  0
  132.4590  123.9120   63.5190 C   0  0  0  0  0  0  0  0  0  0  0  0
  133.6110  124.3260   63.6580 O   0  0  0  0  0  0  0  0  0  0  0  0
  132.1810  122.6260   62.8820 C   0  0  0  0  0  0  0  0  0  0  0  0
  130.5810  121.8960   63.0130 S   0  0  0  0  0  0  0  0  0  0  0  0
  131.0780  120.5250   62.0460 C   0  0  0  0  0  0  0  0  0  0  0  0
  130.2440  119.5240   61.7610 N   0  0  0  0  0  0  0  0  0  0  0  0
  130.7550  118.5210   61.0060 C   0  0  0  0  0  0  0  0  0  0  0  0
  129.7910  117.3920   60.6910 C   0  0  0  0  0  0  0  0  0  0  0  0
  132.0660  118.4980   60.5330 C   0  0  0  0  0  0  0  0  0  0  0  0
  132.9380  119.5510   60.8330 C   0  0  0  0  0  0  0  0  0  0  0  0
  134.3590  119.4780   60.2980 C   0  0  0  0  0  0  0  0  0  0  0  0
  132.4380  120.6200   61.6240 C   0  0  0  0  0  0  0  0  0  0  0  0
  133.0420  121.8310   62.1100 C   0  0  0  0  0  0  0  0  0  0  0  0
  134.3450  122.1620   61.8370 N   0  0  0  0  0  0  0  0  0  0  0  0
  1  2  1  0
  2  3  1  0
  3  4  1  0
  4  5  1  0
  5  6  1  0
  6  7  1  0
  7  8  1  0
  8  9  1  0
  9 10  1  0
 10 11  1  0
 11 12  1  0
 12 13  2  0
 12 14  1  0
 14 15  1  0
 15 16  1  0
 16 17  2  0
 17 18  1  0
 18 19  1  0
 18 20  2  0
 20 21  1  0
 21 22  1  0
 21 23  2  0
 23 24  1  0
 24 25  1  0
 24 14  2  0
 23 16  1  0
M  END
>  <Binding energies>  (47) 
[-4.97]

>  <Ligand effiencies>  (47) 
[-0.1775]

>  <Interactions>  (47) 
["H-A:GLY:454:N:4049, V-A:HIS:383:CE1:3393, V-A:LEU:475:CD2:4258, V-A:ILE:369:CG2:3236, V-B:TYR:539:CB:9842, V-B:TYR:539:CD2:9845, V-B:ALA:541:CB:9863, H-A:TYR:484:OH:4347, V-A:ILE:369:CD1:3238, V-B:GLU:543:CD:9879, V-A:SER:385:CB:3408, V-A:SER:385:CA:3406, V-A:VAL:384:C:3396, V-A:HIS:456:CE1:4069, V-A:TYR:484:CE2:4345, V-A:TYR:484:CZ:4346, H-B:GLU:543:OE2:9881, V-B:TYR:539:C:9838, V-B:HIS:456:CE1:9040, V-B:GLU:543:CB:9877, V-B:GLY:544:C:9883, V-B:GLU:543:C:9873, V-A:SER:385:C:3404, V-A:PRO:482:CB:4325, V-A:PRO:482:CG:4326, H-A:SER:385:O:3405, V-B:VAL:344:CG1:7971"]

$$$$
4al_Grossjean_2025
     RDKit          3D

 16 17  0  0  0  0  0  0  0  0999 V2000
  129.8300  116.8810   60.1420 C   0  0  0  0  0  0  0  0  0  0  0  0
  131.0750  117.0170   60.8100 O   0  0  0  0  0  0  0  0  0  0  0  0
  132.0960  117.7150   60.2470 C   0  0  0  0  0  0  0  0  0  0  0  0
  132.8380  117.2650   59.3700 O   0  0  0  0  0  0  0  0  0  0  0  0
  132.2300  119.0820   60.7940 C   0  0  0  0  0  0  0  0  0  0  0  0
  133.8170  119.8530   60.8610 S   0  0  0  0  0  0  0  0  0  0  0  0
  133.1310  121.2960   61.5720 C   0  0  0  0  0  0  0  0  0  0  0  0
  133.8820  122.3510   61.8900 N   0  0  0  0  0  0  0  0  0  0  0  0
  133.2280  123.4060   62.4350 C   0  0  0  0  0  0  0  0  0  0  0  0
  134.1020  124.5950   62.7890 C   0  0  0  0  0  0  0  0  0  0  0  0
  131.8540  123.4300   62.6660 C   0  0  0  0  0  0  0  0  0  0  0  0
  131.0680  122.3230   62.3310 C   0  0  0  0  0  0  0  0  0  0  0  0
  129.5740  122.3960   62.6020 C   0  0  0  0  0  0  0  0  0  0  0  0
  131.7200  121.1970   61.7570 C   0  0  0  0  0  0  0  0  0  0  0  0
  131.2340  119.9230   61.3050 C   0  0  0  0  0  0  0  0  0  0  0  0
  129.9110  119.5710   61.3710 N   0  0  0  0  0  0  0  0  0  0  0  0
  1  2  1  0
  2  3  1  0
  3  4  2  0
  3  5  1  0
  5  6  1  0
  6  7  1  0
  7  8  2  0
  8  9  1  0
  9 10  1  0
  9 11  2  0
 11 12  1  0
 12 13  1  0
 12 14  2  0
 14 15  1  0
 15 16  1  0
 15  5  2  0
 14  7  1  0
M  END
>  <Binding energies>  (48) 
[-5.12]

>  <Ligand effiencies>  (48) 
[-0.28444444444444444]

>  <Interactions>  (48) 
["V-A:GLY:453:C:4041, V-A:HIS:383:CE1:3393, V-A:GLY:453:CA:4043, H-A:HIS:383:ND1:3390, V-A:LEU:475:CD2:4258, V-A:ILE:369:CG2:3236, V-B:TYR:539:CB:9842, V-A:ASP:366:CG:3212, V-B:TYR:539:CD2:9845, V-B:ALA:541:CB:9863, V-A:ILE:369:CD1:3238, V-A:SER:385:CB:3408, V-A:SER:385:CA:3406, V-B:TYR:539:C:9838, V-A:SER:385:C:3404, V-A:PRO:482:CG:4326, V-B:TYR:539:CA:9840, H-B:TYR:539:O:9839, V-B:VAL:344:CG1:7971"]

$$$$
4bc_Grossjean_2025
     RDKit          3D

 26 28  0  0  0  0  0  0  0  0999 V2000
  125.6740  122.4870   56.8240 C   0  0  0  0  0  0  0  0  0  0  0  0
  127.0900  122.4380   56.6870 O   0  0  0  0  0  0  0  0  0  0  0  0
  127.8830  122.9710   57.6840 C   0  0  0  0  0  0  0  0  0  0  0  0
  127.6830  122.4720   58.9710 C   0  0  0  0  0  0  0  0  0  0  0  0
  128.4350  122.9490   60.0420 C   0  0  0  0  0  0  0  0  0  0  0  0
  129.4060  123.9310   59.8360 C   0  0  0  0  0  0  0  0  0  0  0  0
  130.1050  124.3630   60.9780 N   0  0  0  0  0  0  0  0  0  0  0  0
  130.4150  125.6230   61.3680 C   0  0  0  0  0  0  0  0  0  0  0  0
  130.1400  126.6310   60.7160 O   0  0  0  0  0  0  0  0  0  0  0  0
  131.1260  125.7300   62.6460 C   0  0  0  0  0  0  0  0  0  0  0  0
  132.7990  125.1930   62.7780 S   0  0  0  0  0  0  0  0  0  0  0  0
  132.8550  125.6340   64.4680 C   0  0  0  0  0  0  0  0  0  0  0  0
  133.9580  125.4570   65.1960 N   0  0  0  0  0  0  0  0  0  0  0  0
  133.8800  125.8340   66.4930 C   0  0  0  0  0  0  0  0  0  0  0  0
  135.1470  125.6300   67.3030 C   0  0  0  0  0  0  0  0  0  0  0  0
  132.7370  126.3790   67.0740 C   0  0  0  0  0  0  0  0  0  0  0  0
  131.5730  126.5660   66.3120 C   0  0  0  0  0  0  0  0  0  0  0  0
  130.3390  127.1660   66.9970 C   0  0  0  0  0  0  0  0  0  0  0  0
  129.5210  126.2410   67.5000 F   0  0  0  0  0  0  0  0  0  0  0  0
  130.7210  127.9520   68.0030 F   0  0  0  0  0  0  0  0  0  0  0  0
  129.6390  127.8840   66.1180 F   0  0  0  0  0  0  0  0  0  0  0  0
  131.6220  126.1800   64.9390 C   0  0  0  0  0  0  0  0  0  0  0  0
  130.6530  126.2250   63.8710 C   0  0  0  0  0  0  0  0  0  0  0  0
  129.3820  126.7100   64.0460 N   0  0  0  0  0  0  0  0  0  0  0  0
  129.6030  124.4480   58.5460 C   0  0  0  0  0  0  0  0  0  0  0  0
  128.8500  123.9690   57.4790 C   0  0  0  0  0  0  0  0  0  0  0  0
  1  2  1  0
  2  3  1  0
  3  4  2  0
  4  5  1  0
  5  6  2  0
  6  7  1  0
  7  8  1  0
  8  9  2  0
  8 10  1  0
 10 11  1  0
 11 12  1  0
 12 13  2  0
 13 14  1  0
 14 15  1  0
 14 16  2  0
 16 17  1  0
 17 18  1  0
 18 19  1  0
 18 20  1  0
 18 21  1  0
 17 22  2  0
 22 23  1  0
 23 24  1  0
  6 25  1  0
 25 26  2  0
 26  3  1  0
 23 10  2  0
 22 12  1  0
M  END
>  <Binding energies>  (49) 
[-6.23]

>  <Ligand effiencies>  (49) 
[-0.21482758620689657]

>  <Interactions>  (49) 
["H-A:GLY:454:N:4049, H-A:ARG:545:NE:4923, V-A:GLY:453:C:4041, H-A:ARG:545:NH2:4927, V-A:GLY:453:CA:4043, H-A:ARG:545:NH1:4926, V-B:TYR:539:CE2:9847, V-A:ARG:545:CD:4922, V-A:ASP:366:CG:3212, V-B:TYR:539:CD2:9845, V-A:ARG:545:CG:4921, V-A:ARG:545:CZ:4925, H-A:TYR:484:OH:4347, V-B:PRO:540:CB:9856, V-B:GLU:543:CD:9879, V-B:PRO:540:CA:9854, V-B:GLU:543:CG:9878, V-A:GLY:454:CA:4048, V-A:HIS:456:CE1:4069, V-B:TYR:539:CZ:9848, H-B:GLU:543:OE2:9881, V-B:TYR:539:C:9838, H-B:GLU:543:OE1:9880, V-B:GLU:543:CB:9877, V-A:GLU:543:CB:4905, V-A:GLU:543:CD:4907, V-B:MET:535:CE:9806, V-B:PRO:540:N:9855, H-B:TYR:539:N:9841, V-A:GLU:543:CG:4906, V-A:ILE:455:C:4051, V-A:ARG:545:CB:4920, V-B:PRO:540:CD:9858, V-A:GLY:454:C:4046, V-B:LEU:363:CD1:8159"]

$$$$
4bf_Grossjean_2025
     RDKit          3D

 24 26  0  0  0  0  0  0  0  0999 V2000
  135.2180  125.5560   67.2770 C   0  0  0  0  0  0  0  0  0  0  0  0
  133.9610  125.8160   66.4660 C   0  0  0  0  0  0  0  0  0  0  0  0
  132.8120  126.3230   67.0670 C   0  0  0  0  0  0  0  0  0  0  0  0
  131.6560  126.5560   66.3060 C   0  0  0  0  0  0  0  0  0  0  0  0
  130.4140  127.1120   67.0110 C   0  0  0  0  0  0  0  0  0  0  0  0
  129.6030  127.7840   66.1890 F   0  0  0  0  0  0  0  0  0  0  0  0
  129.7080  126.1120   67.5380 F   0  0  0  0  0  0  0  0  0  0  0  0
  130.7830  127.9510   67.9800 F   0  0  0  0  0  0  0  0  0  0  0  0
  131.7190  126.2520   64.9130 C   0  0  0  0  0  0  0  0  0  0  0  0
  130.7590  126.3540   63.8420 C   0  0  0  0  0  0  0  0  0  0  0  0
  129.4840  126.8240   64.0340 N   0  0  0  0  0  0  0  0  0  0  0  0
  131.2450  125.9370   62.5920 C   0  0  0  0  0  0  0  0  0  0  0  0
  130.5380  125.8780   61.3090 C   0  0  0  0  0  0  0  0  0  0  0  0
  129.6820  125.0170   61.1040 O   0  0  0  0  0  0  0  0  0  0  0  0
  130.8870  126.8300   60.4100 N   0  0  0  0  0  0  0  0  0  0  0  0
  130.4410  127.0210   59.0880 C   0  0  0  0  0  0  0  0  0  0  0  0
  129.2300  127.6310   58.7170 C   0  0  0  0  0  0  0  0  0  0  0  0
  128.8990  127.7450   57.3650 C   0  0  0  0  0  0  0  0  0  0  0  0
  129.7880  127.2400   56.4150 C   0  0  0  0  0  0  0  0  0  0  0  0
  130.9580  126.6410   56.7470 N   0  0  0  0  0  0  0  0  0  0  0  0
  131.2660  126.5380   58.0660 C   0  0  0  0  0  0  0  0  0  0  0  0
  132.9190  125.3970   62.7090 S   0  0  0  0  0  0  0  0  0  0  0  0
  132.9590  125.7370   64.4220 C   0  0  0  0  0  0  0  0  0  0  0  0
  134.0540  125.5190   65.1490 N   0  0  0  0  0  0  0  0  0  0  0  0
  1  2  1  0
  2  3  2  0
  3  4  1  0
  4  5  1  0
  5  6  1  0
  5  7  1  0
  5  8  1  0
  4  9  2  0
  9 10  1  0
 10 11  1  0
 10 12  2  0
 12 13  1  0
 13 14  2  0
 13 15  1  0
 15 16  1  0
 16 17  2  0
 17 18  1  0
 18 19  2  0
 19 20  1  0
 20 21  2  0
 12 22  1  0
 22 23  1  0
 23 24  2  0
 24  2  1  0
 23  9  1  0
 21 16  1  0
M  END
>  <Binding energies>  (50) 
[-5.6]

>  <Ligand effiencies>  (50) 
[-0.2074074074074074]

>  <Interactions>  (50) 
["H-A:GLY:454:N:4049, H-A:ARG:545:NE:4923, V-A:GLY:453:C:4041, H-A:ARG:545:NH2:4927, V-A:GLY:453:CA:4043, H-A:ARG:545:NH1:4926, V-A:ARG:545:CD:4922, V-A:ASP:366:CG:3212, V-A:ARG:545:CG:4921, V-A:ARG:545:CZ:4925, H-A:TYR:484:OH:4347, V-B:GLU:543:CD:9879, V-A:GLY:454:CA:4048, V-A:HIS:456:CE1:4069, H-A:ASP:366:OD2:3214, V-A:ASP:366:CB:3211, H-B:GLU:543:OE2:9881, H-B:GLU:543:OE1:9880, V-B:GLU:543:CB:9877, V-A:GLU:543:CB:4905, V-A:GLU:543:CD:4907, V-B:MET:535:CE:9806, H-B:TYR:539:OH:9849, V-A:GLU:543:CG:4906, H-A:TYR:531:OH:4794, V-A:ILE:455:C:4051, V-A:ARG:545:CB:4920, V-A:GLY:454:C:4046, V-A:MET:535:CE:4834, V-A:ILE:455:CA:4053"]

$$$$
4bh_Grossjean_2025
     RDKit          3D

 31 33  0  0  0  0  0  0  0  0999 V2000
  129.2040  123.9480   73.2220 C   0  0  0  0  0  0  0  0  0  0  0  0
  128.5380  125.1950   73.3830 O   0  0  0  0  0  0  0  0  0  0  0  0
  129.2390  126.3700   73.1800 C   0  0  0  0  0  0  0  0  0  0  0  0
  129.1120  127.1700   72.0340 C   0  0  0  0  0  0  0  0  0  0  0  0
  129.8520  128.3440   71.8950 C   0  0  0  0  0  0  0  0  0  0  0  0
  129.6670  129.2240   70.6640 C   0  0  0  0  0  0  0  0  0  0  0  0
  130.1610  128.6120   69.4290 N   0  0  0  0  0  0  0  0  0  0  0  0
  129.5490  127.6210   68.7490 C   0  0  0  0  0  0  0  0  0  0  0  0
  128.5040  127.0970   69.1390 O   0  0  0  0  0  0  0  0  0  0  0  0
  130.2230  127.1660   67.5320 C   0  0  0  0  0  0  0  0  0  0  0  0
  131.7220  126.2490   67.6450 S   0  0  0  0  0  0  0  0  0  0  0  0
  131.8520  126.1650   65.9040 C   0  0  0  0  0  0  0  0  0  0  0  0
  132.8670  125.5370   65.3120 N   0  0  0  0  0  0  0  0  0  0  0  0
  132.8580  125.5360   63.9590 C   0  0  0  0  0  0  0  0  0  0  0  0
  134.0240  124.8170   63.3060 C   0  0  0  0  0  0  0  0  0  0  0  0
  131.8670  126.1410   63.1910 C   0  0  0  0  0  0  0  0  0  0  0  0
  130.7960  126.8060   63.8090 C   0  0  0  0  0  0  0  0  0  0  0  0
  129.7270  127.4550   62.9220 C   0  0  0  0  0  0  0  0  0  0  0  0
  129.5810  128.7620   63.1500 F   0  0  0  0  0  0  0  0  0  0  0  0
  130.0560  127.3090   61.6390 F   0  0  0  0  0  0  0  0  0  0  0  0
  128.5470  126.8760   63.1420 F   0  0  0  0  0  0  0  0  0  0  0  0
  130.7770  126.8280   65.2350 C   0  0  0  0  0  0  0  0  0  0  0  0
  129.8670  127.4030   66.1950 C   0  0  0  0  0  0  0  0  0  0  0  0
  128.7510  128.1100   65.8300 N   0  0  0  0  0  0  0  0  0  0  0  0
  130.7100  128.7420   72.9220 C   0  0  0  0  0  0  0  0  0  0  0  0
  130.8620  127.9580   74.0760 C   0  0  0  0  0  0  0  0  0  0  0  0
  131.7030  128.2840   75.1250 O   0  0  0  0  0  0  0  0  0  0  0  0
  133.0750  127.9100   75.0620 C   0  0  0  0  0  0  0  0  0  0  0  0
  130.1250  126.7710   74.1900 C   0  0  0  0  0  0  0  0  0  0  0  0
  130.2520  126.0030   75.3240 O   0  0  0  0  0  0  0  0  0  0  0  0
  131.3760  125.1340   75.3090 C   0  0  0  0  0  0  0  0  0  0  0  0
  1  2  1  0
  2  3  1  0
  3  4  2  0
  4  5  1  0
  5  6  1  0
  6  7  1  0
  7  8  1  0
  8  9  2  0
  8 10  1  0
 10 11  1  0
 11 12  1  0
 12 13  2  0
 13 14  1  0
 14 15  1  0
 14 16  2  0
 16 17  1  0
 17 18  1  0
 18 19  1  0
 18 20  1  0
 18 21  1  0
 17 22  2  0
 22 23  1  0
 23 24  1  0
  5 25  2  0
 25 26  1  0
 26 27  1  0
 27 28  1  0
 26 29  2  0
 29 30  1  0
 30 31  1  0
 29  3  1  0
 23 10  2  0
 22 12  1  0
M  END
>  <Binding energies>  (51) 
[-6.28]

>  <Ligand effiencies>  (51) 
[-0.1847058823529412]

>  <Interactions>  (51) 
["V-A:GLY:453:C:4041, V-A:GLY:453:CA:4043, V-A:ASP:366:CG:3212, V-A:ARG:545:CZ:4925, H-A:TYR:484:OH:4347, V-B:GLU:543:CD:9879, V-A:GLY:454:CA:4048, V-A:HIS:456:CE1:4069, V-A:TYR:484:CZ:4346, H-B:GLU:543:OE2:9881, H-B:GLU:543:OE1:9880, V-B:HIS:456:CE1:9040, V-A:GLU:543:CB:4905, V-A:GLU:543:CD:4907, H-A:GLU:543:OE2:4909, V-A:GLU:543:C:4901, V-A:HIS:456:CD2:4067, H-A:LYS:547:NZ:4950, H-A:GLU:543:OE1:4908, H-B:LYS:547:NZ:9922, V-A:GLY:544:C:4911, H-A:GLU:543:O:4902"]

$$$$
4bi_Grossjean_2025
     RDKit          3D

 23 25  0  0  0  0  0  0  0  0999 V2000
  126.8080  122.4410   57.1670 C   0  0  0  0  0  0  0  0  0  0  0  0
  127.9020  123.0940   57.9920 C   0  0  0  0  0  0  0  0  0  0  0  0
  128.6750  124.1280   57.4690 C   0  0  0  0  0  0  0  0  0  0  0  0
  129.6810  124.7270   58.2450 C   0  0  0  0  0  0  0  0  0  0  0  0
  130.4990  125.8660   57.6290 C   0  0  0  0  0  0  0  0  0  0  0  0
  130.4880  126.9770   58.3690 F   0  0  0  0  0  0  0  0  0  0  0  0
  131.7700  125.4880   57.4960 F   0  0  0  0  0  0  0  0  0  0  0  0
  130.0060  126.1800   56.4310 F   0  0  0  0  0  0  0  0  0  0  0  0
  129.8670  124.2270   59.5680 C   0  0  0  0  0  0  0  0  0  0  0  0
  130.7790  124.5780   60.6300 C   0  0  0  0  0  0  0  0  0  0  0  0
  131.7220  125.5650   60.5010 N   0  0  0  0  0  0  0  0  0  0  0  0
  130.6090  123.8270   61.8050 C   0  0  0  0  0  0  0  0  0  0  0  0
  131.3620  123.9100   63.0590 C   0  0  0  0  0  0  0  0  0  0  0  0
  131.4860  122.9210   63.7850 O   0  0  0  0  0  0  0  0  0  0  0  0
  131.9080  125.1210   63.3320 N   0  0  0  0  0  0  0  0  0  0  0  0
  132.6740  125.4740   64.4350 C   0  0  0  0  0  0  0  0  0  0  0  0
  132.1250  125.9700   65.6160 C   0  0  0  0  0  0  0  0  0  0  0  0
  133.2010  126.1930   66.4460 C   0  0  0  0  0  0  0  0  0  0  0  0
  134.3390  125.8490   65.7960 O   0  0  0  0  0  0  0  0  0  0  0  0
  133.9910  125.3950   64.5220 N   0  0  0  0  0  0  0  0  0  0  0  0
  129.3220  122.6380   61.6200 S   0  0  0  0  0  0  0  0  0  0  0  0
  129.0080  123.1640   59.9830 C   0  0  0  0  0  0  0  0  0  0  0  0
  128.0540  122.6000   59.2420 N   0  0  0  0  0  0  0  0  0  0  0  0
  1  2  1  0
  2  3  2  0
  3  4  1  0
  4  5  1  0
  5  6  1  0
  5  7  1  0
  5  8  1  0
  4  9  2  0
  9 10  1  0
 10 11  1  0
 10 12  2  0
 12 13  1  0
 13 14  2  0
 13 15  1  0
 15 16  1  0
 16 17  1  0
 17 18  2  0
 18 19  1  0
 19 20  1  0
 12 21  1  0
 21 22  1  0
 22 23  2  0
 23  2  1  0
 22  9  1  0
 20 16  2  0
M  END
>  <Binding energies>  (52) 
[-5.89]

>  <Ligand effiencies>  (52) 
[-0.22653846153846152]

>  <Interactions>  (52) 
["H-A:GLY:454:N:4049, H-A:ARG:545:NE:4923, H-A:ARG:545:NH2:4927, H-A:ARG:545:NH1:4926, V-B:TYR:539:CE2:9847, V-A:ARG:545:CD:4922, V-A:ASP:366:CG:3212, V-B:TYR:539:CD2:9845, V-A:ARG:545:CG:4921, V-A:ARG:545:CZ:4925, H-A:TYR:484:OH:4347, V-B:PRO:540:CA:9854, H-A:ASP:366:OD2:3214, H-A:ASP:366:OD1:3213, V-B:TYR:539:CZ:9848, V-B:TYR:539:C:9838, V-B:MET:535:CE:9806, V-B:PRO:540:N:9855, V-B:PRO:540:CD:9858"]

$$$$
4bj_Grossjean_2025
     RDKit          3D

 23 25  0  0  0  0  0  0  0  0999 V2000
  126.9490  122.4700   57.1960 C   0  0  0  0  0  0  0  0  0  0  0  0
  128.0060  123.1070   58.0790 C   0  0  0  0  0  0  0  0  0  0  0  0
  128.8600  124.0890   57.5820 C   0  0  0  0  0  0  0  0  0  0  0  0
  129.8370  124.6660   58.4090 C   0  0  0  0  0  0  0  0  0  0  0  0
  130.7550  125.7410   57.8160 C   0  0  0  0  0  0  0  0  0  0  0  0
  130.5350  125.9570   56.5180 F   0  0  0  0  0  0  0  0  0  0  0  0
  130.5650  126.8970   58.4520 F   0  0  0  0  0  0  0  0  0  0  0  0
  132.0280  125.3680   57.9490 F   0  0  0  0  0  0  0  0  0  0  0  0
  129.9060  124.2050   59.7570 C   0  0  0  0  0  0  0  0  0  0  0  0
  130.7580  124.5480   60.8700 C   0  0  0  0  0  0  0  0  0  0  0  0
  131.7550  125.4860   60.7780 N   0  0  0  0  0  0  0  0  0  0  0  0
  130.4710  123.8440   62.0500 C   0  0  0  0  0  0  0  0  0  0  0  0
  131.1370  123.9350   63.3520 C   0  0  0  0  0  0  0  0  0  0  0  0
  131.1930  122.9580   64.1020 O   0  0  0  0  0  0  0  0  0  0  0  0
  131.6820  125.1420   63.6440 N   0  0  0  0  0  0  0  0  0  0  0  0
  132.3730  125.4870   64.7980 C   0  0  0  0  0  0  0  0  0  0  0  0
  133.6640  125.3860   65.0270 N   0  0  0  0  0  0  0  0  0  0  0  0
  133.9780  125.8140   66.2330 C   0  0  0  0  0  0  0  0  0  0  0  0
  132.9240  126.2760   67.0160 C   0  0  0  0  0  0  0  0  0  0  0  0
  131.4450  126.1350   66.1120 S   0  0  0  0  0  0  0  0  0  0  0  0
  129.1430  122.7110   61.8110 S   0  0  0  0  0  0  0  0  0  0  0  0
  128.9700  123.1960   60.1410 C   0  0  0  0  0  0  0  0  0  0  0  0
  128.0450  122.6500   59.3520 N   0  0  0  0  0  0  0  0  0  0  0  0
  1  2  1  0
  2  3  2  0
  3  4  1  0
  4  5  1  0
  5  6  1  0
  5  7  1  0
  5  8  1  0
  4  9  2  0
  9 10  1  0
 10 11  1  0
 10 12  2  0
 12 13  1  0
 13 14  2  0
 13 15  1  0
 15 16  1  0
 16 17  2  0
 17 18  1  0
 18 19  2  0
 19 20  1  0
 12 21  1  0
 21 22  1  0
 22 23  2  0
 23  2  1  0
 22  9  1  0
 20 16  1  0
M  END
>  <Binding energies>  (53) 
[-5.51]

>  <Ligand effiencies>  (53) 
[-0.2119230769230769]

>  <Interactions>  (53) 
["H-A:GLY:454:N:4049, H-A:ARG:545:NH2:4927, V-B:TYR:539:CE2:9847, V-A:ARG:545:CD:4922, V-A:ASP:366:CG:3212, V-B:TYR:539:CD2:9845, V-A:ARG:545:CG:4921, V-A:ARG:545:CZ:4925, H-A:TYR:484:OH:4347, V-B:PRO:540:CA:9854, V-A:HIS:456:CE1:4069, H-A:ASP:366:OD2:3214, H-A:ASP:366:OD1:3213, V-B:TYR:539:CZ:9848, V-A:ASP:366:CB:3211, V-B:TYR:539:C:9838, V-B:MET:535:CE:9806, V-B:PRO:540:N:9855, V-B:PRO:540:CD:9858"]

$$$$
4bk_Grossjean_2025
     RDKit          3D

 28 29  0  0  0  0  0  0  0  0999 V2000
  129.7310  124.2410   73.3290 C   0  0  0  0  0  0  0  0  0  0  0  0
  129.0470  125.2780   74.0150 O   0  0  0  0  0  0  0  0  0  0  0  0
  128.0080  125.8740   73.2490 C   0  0  0  0  0  0  0  0  0  0  0  0
  128.5890  126.4290   71.9420 C   0  0  0  0  0  0  0  0  0  0  0  0
  127.8920  125.8660   70.8390 O   0  0  0  0  0  0  0  0  0  0  0  0
  127.0130  126.7760   70.1900 C   0  0  0  0  0  0  0  0  0  0  0  0
  127.5620  127.1090   68.7970 C   0  0  0  0  0  0  0  0  0  0  0  0
  128.6160  126.2100   68.4790 O   0  0  0  0  0  0  0  0  0  0  0  0
  129.9140  126.7380   68.7210 C   0  0  0  0  0  0  0  0  0  0  0  0
  130.5130  127.2450   67.3970 C   0  0  0  0  0  0  0  0  0  0  0  0
  130.6290  126.2090   66.3700 N   0  0  0  0  0  0  0  0  0  0  0  0
  131.7290  125.9680   65.6260 C   0  0  0  0  0  0  0  0  0  0  0  0
  132.7730  126.6070   65.7660 O   0  0  0  0  0  0  0  0  0  0  0  0
  131.6170  124.8900   64.6430 C   0  0  0  0  0  0  0  0  0  0  0  0
  130.6930  123.4390   65.0230 S   0  0  0  0  0  0  0  0  0  0  0  0
  131.0240  122.7620   63.4460 C   0  0  0  0  0  0  0  0  0  0  0  0
  130.5560  121.5670   63.0900 N   0  0  0  0  0  0  0  0  0  0  0  0
  130.8770  121.1490   61.8430 C   0  0  0  0  0  0  0  0  0  0  0  0
  130.3310  119.7860   61.4580 C   0  0  0  0  0  0  0  0  0  0  0  0
  131.6480  121.8920   60.9530 C   0  0  0  0  0  0  0  0  0  0  0  0
  132.1450  123.1520   61.3220 C   0  0  0  0  0  0  0  0  0  0  0  0
  132.9920  123.9300   60.3100 C   0  0  0  0  0  0  0  0  0  0  0  0
  132.3690  125.0070   59.8260 F   0  0  0  0  0  0  0  0  0  0  0  0
  134.1180  124.3470   60.8890 F   0  0  0  0  0  0  0  0  0  0  0  0
  133.2940  123.1460   59.2760 F   0  0  0  0  0  0  0  0  0  0  0  0
  131.8240  123.6220   62.6300 C   0  0  0  0  0  0  0  0  0  0  0  0
  132.1430  124.8340   63.3430 C   0  0  0  0  0  0  0  0  0  0  0  0
  132.8970  125.8400   62.7960 N   0  0  0  0  0  0  0  0  0  0  0  0
  1  2  1  0
  2  3  1  0
  3  4  1  0
  4  5  1  0
  5  6  1  0
  6  7  1  0
  7  8  1  0
  8  9  1  0
  9 10  1  0
 10 11  1  0
 11 12  1  0
 12 13  2  0
 12 14  1  0
 14 15  1  0
 15 16  1  0
 16 17  2  0
 17 18  1  0
 18 19  1  0
 18 20  2  0
 20 21  1  0
 21 22  1  0
 22 23  1  0
 22 24  1  0
 22 25  1  0
 21 26  2  0
 26 27  1  0
 27 28  1  0
 27 14  2  0
 26 16  1  0
M  END
>  <Binding energies>  (54) 
[-4.73]

>  <Ligand effiencies>  (54) 
[-0.15258064516129033]

>  <Interactions>  (54) 
["H-A:ARG:545:NE:4923, H-A:ARG:545:NH2:4927, V-B:TYR:539:CE2:9847, V-A:LEU:475:CD2:4258, V-A:ILE:369:CG2:3236, V-A:ASP:366:CG:3212, V-B:TYR:539:CD2:9845, V-B:ALA:541:CB:9863, V-A:ARG:545:CZ:4925, H-A:TYR:484:OH:4347, V-A:ILE:369:CD1:3238, V-B:GLU:543:CD:9879, V-B:GLU:543:CG:9878, V-A:HIS:456:CE1:4069, H-A:ASP:366:OD2:3214, H-A:ASP:366:OD1:3213, V-B:TYR:539:CZ:9848, V-A:ASP:366:CB:3211, V-A:ILE:369:CB:3235, V-A:ASP:366:CA:3209, V-A:TYR:484:CE2:4345, V-A:TYR:484:CZ:4346, H-B:GLU:543:OE2:9881, V-B:HIS:456:CE1:9040, V-B:GLU:543:CB:9877, V-B:GLY:544:C:9883, V-B:GLU:543:C:9873, V-A:GLU:543:CD:4907, V-A:HIS:456:CD2:4067, H-B:LYS:547:NZ:9922, V-B:LYS:547:CE:9921, V-A:ILE:369:CG1:3237"]

$$$$
4cd_Grossjean_2025
     RDKit          3D

 29 32  0  0  0  0  0  0  0  0999 V2000
  132.7300  125.8860   62.7910 N   0  0  0  0  0  0  0  0  0  0  0  0
  132.2120  124.7100   63.2720 C   0  0  0  0  0  0  0  0  0  0  0  0
  131.7160  124.5640   64.5770 C   0  0  0  0  0  0  0  0  0  0  0  0
  131.6630  125.5610   65.6510 C   0  0  0  0  0  0  0  0  0  0  0  0
  132.5830  126.3630   65.8090 O   0  0  0  0  0  0  0  0  0  0  0  0
  130.5470  125.5270   66.4200 N   0  0  0  0  0  0  0  0  0  0  0  0
  130.2110  126.3000   67.5470 C   0  0  0  0  0  0  0  0  0  0  0  0
  129.4610  125.6520   68.5320 C   0  0  0  0  0  0  0  0  0  0  0  0
  129.0900  126.3280   69.6910 C   0  0  0  0  0  0  0  0  0  0  0  0
  129.4770  127.6540   69.8700 C   0  0  0  0  0  0  0  0  0  0  0  0
  130.2370  128.3070   68.9030 C   0  0  0  0  0  0  0  0  0  0  0  0
  130.6090  127.6340   67.7410 C   0  0  0  0  0  0  0  0  0  0  0  0
  131.1190  122.9290   64.8520 S   0  0  0  0  0  0  0  0  0  0  0  0
  131.5450  122.4510   63.2260 C   0  0  0  0  0  0  0  0  0  0  0  0
  131.3270  121.2150   62.7850 N   0  0  0  0  0  0  0  0  0  0  0  0
  131.7040  120.9340   61.5100 C   0  0  0  0  0  0  0  0  0  0  0  0
  131.4480  119.5310   61.0420 C   0  0  0  0  0  0  0  0  0  0  0  0
  132.3200  118.9050   60.1370 C   0  0  0  0  0  0  0  0  0  0  0  0
  132.0880  117.6030   59.6990 C   0  0  0  0  0  0  0  0  0  0  0  0
  130.9770  116.9070   60.1630 C   0  0  0  0  0  0  0  0  0  0  0  0
  130.1000  117.5020   61.0620 C   0  0  0  0  0  0  0  0  0  0  0  0
  130.3360  118.8020   61.4990 C   0  0  0  0  0  0  0  0  0  0  0  0
  132.2800  121.9000   60.6800 C   0  0  0  0  0  0  0  0  0  0  0  0
  132.5110  123.2090   61.1340 C   0  0  0  0  0  0  0  0  0  0  0  0
  133.1500  124.2170   60.1720 C   0  0  0  0  0  0  0  0  0  0  0  0
  134.3410  124.6540   60.5860 F   0  0  0  0  0  0  0  0  0  0  0  0
  133.3240  123.6530   58.9770 F   0  0  0  0  0  0  0  0  0  0  0  0
  132.3580  125.2820   60.0440 F   0  0  0  0  0  0  0  0  0  0  0  0
  132.1310  123.5110   62.4730 C   0  0  0  0  0  0  0  0  0  0  0  0
  1  2  1  0
  2  3  2  0
  3  4  1  0
  4  5  2  0
  4  6  1  0
  6  7  1  0
  7  8  2  0
  8  9  1  0
  9 10  2  0
 10 11  1  0
 11 12  2  0
  3 13  1  0
 13 14  1  0
 14 15  2  0
 15 16  1  0
 16 17  1  0
 17 18  2  0
 18 19  1  0
 19 20  2  0
 20 21  1  0
 21 22  2  0
 16 23  2  0
 23 24  1  0
 24 25  1  0
 25 26  1  0
 25 27  1  0
 25 28  1  0
 24 29  2  0
 29  2  1  0
 12  7  1  0
 29 14  1  0
 22 17  1  0
M  END
>  <Binding energies>  (55) 
[-8.06]

>  <Ligand effiencies>  (55) 
[-0.251875]

>  <Interactions>  (55) 
["H-A:ARG:545:NE:4923, V-A:HIS:383:CE1:3393, H-A:ARG:545:NH2:4927, V-B:TYR:539:CE2:9847, V-A:LEU:475:CD2:4258, V-A:ILE:369:CG2:3236, V-B:TYR:539:CB:9842, V-A:ASP:366:CG:3212, V-B:TYR:539:CD2:9845, V-B:ALA:541:CB:9863, V-A:ARG:545:CZ:4925, H-A:TYR:484:OH:4347, V-A:ILE:369:CD1:3238, V-B:GLU:543:CD:9879, V-B:GLU:543:CG:9878, V-A:HIS:456:CE1:4069, H-A:ASP:366:OD2:3214, H-A:ASP:366:OD1:3213, V-B:TYR:539:CZ:9848, V-A:ASP:366:CB:3211, V-A:ILE:369:CB:3235, V-A:ASP:366:CA:3209, V-A:TYR:484:CE2:4345, V-A:TYR:484:CZ:4346, H-B:GLU:543:OE2:9881, V-B:TYR:539:C:9838, V-B:GLU:543:CB:9877, V-A:GLU:543:CB:4905, V-A:GLU:543:CD:4907, V-A:PRO:482:CB:4325, V-A:PRO:482:CG:4326, V-B:VAL:344:CG1:7971, V-A:ILE:369:CG1:3237"]

$$$$
4cg_Grossjean_2025
     RDKit          3D

 30 33  0  0  0  0  0  0  0  0999 V2000
  129.8100  124.7680   64.2820 N   0  0  0  0  0  0  0  0  0  0  0  0
  130.9010  124.0110   63.9440 C   0  0  0  0  0  0  0  0  0  0  0  0
  132.1910  124.2610   64.4340 C   0  0  0  0  0  0  0  0  0  0  0  0
  132.6220  125.2820   65.3880 C   0  0  0  0  0  0  0  0  0  0  0  0
  133.8100  125.5910   65.5060 O   0  0  0  0  0  0  0  0  0  0  0  0
  131.6510  125.8270   66.1500 N   0  0  0  0  0  0  0  0  0  0  0  0
  131.8460  126.8760   67.1490 C   0  0  0  0  0  0  0  0  0  0  0  0
  130.6400  127.0800   68.0590 C   0  0  0  0  0  0  0  0  0  0  0  0
  129.8130  125.9960   68.3680 C   0  0  0  0  0  0  0  0  0  0  0  0
  128.7270  126.1720   69.2230 C   0  0  0  0  0  0  0  0  0  0  0  0
  128.4790  127.4270   69.7740 C   0  0  0  0  0  0  0  0  0  0  0  0
  129.3100  128.5070   69.4820 C   0  0  0  0  0  0  0  0  0  0  0  0
  130.3950  128.3320   68.6280 C   0  0  0  0  0  0  0  0  0  0  0  0
  133.3520  123.0890   63.8150 S   0  0  0  0  0  0  0  0  0  0  0  0
  132.1070  122.2860   62.8870 C   0  0  0  0  0  0  0  0  0  0  0  0
  132.3810  121.2260   62.1310 N   0  0  0  0  0  0  0  0  0  0  0  0
  131.3490  120.6640   61.4490 C   0  0  0  0  0  0  0  0  0  0  0  0
  131.6910  119.4700   60.6040 C   0  0  0  0  0  0  0  0  0  0  0  0
  132.8610  119.4470   59.8270 C   0  0  0  0  0  0  0  0  0  0  0  0
  133.1810  118.3440   59.0420 C   0  0  0  0  0  0  0  0  0  0  0  0
  132.3320  117.2420   59.0200 C   0  0  0  0  0  0  0  0  0  0  0  0
  131.1650  117.2380   59.7770 C   0  0  0  0  0  0  0  0  0  0  0  0
  130.8490  118.3440   60.5610 C   0  0  0  0  0  0  0  0  0  0  0  0
  130.0510  121.1840   61.5140 C   0  0  0  0  0  0  0  0  0  0  0  0
  129.7520  122.3020   62.3070 C   0  0  0  0  0  0  0  0  0  0  0  0
  128.3090  122.8200   62.3330 C   0  0  0  0  0  0  0  0  0  0  0  0
  128.2250  124.1440   62.1920 F   0  0  0  0  0  0  0  0  0  0  0  0
  127.6140  122.2670   61.3390 F   0  0  0  0  0  0  0  0  0  0  0  0
  127.7380  122.5060   63.4950 F   0  0  0  0  0  0  0  0  0  0  0  0
  130.8240  122.8890   63.0390 C   0  0  0  0  0  0  0  0  0  0  0  0
  1  2  1  0
  2  3  2  0
  3  4  1  0
  4  5  2  0
  4  6  1  0
  6  7  1  0
  7  8  1  0
  8  9  2  0
  9 10  1  0
 10 11  2  0
 11 12  1  0
 12 13  2  0
  3 14  1  0
 14 15  1  0
 15 16  2  0
 16 17  1  0
 17 18  1  0
 18 19  2  0
 19 20  1  0
 20 21  2  0
 21 22  1  0
 22 23  2  0
 17 24  2  0
 24 25  1  0
 25 26  1  0
 26 27  1  0
 26 28  1  0
 26 29  1  0
 25 30  2  0
 30  2  1  0
 13  8  1  0
 30 15  1  0
 23 18  1  0
M  END
>  <Binding energies>  (56) 
[-8.16]

>  <Ligand effiencies>  (56) 
[-0.24727272727272728]

>  <Interactions>  (56) 
["H-A:GLY:454:N:4049, H-A:ARG:545:NE:4923, V-A:HIS:383:CE1:3393, H-A:ARG:545:NH2:4927, V-B:TYR:539:CE2:9847, V-A:LEU:475:CD2:4258, V-A:ILE:369:CG2:3236, V-B:TYR:539:CB:9842, V-A:LEU:373:CD2:3280, V-B:TYR:539:CD2:9845, V-A:ARG:545:CG:4921, V-B:ALA:541:CB:9863, H-A:TYR:484:OH:4347, V-B:PRO:540:CB:9856, V-B:GLU:543:CD:9879, V-B:PRO:540:CA:9854, V-B:GLU:543:CG:9878, V-A:GLY:454:CA:4048, V-A:VAL:384:C:3396, V-A:HIS:456:CE1:4069, V-B:PRO:540:C:9852, V-B:ALA:541:CA:9861, V-A:TYR:484:CE2:4345, H-B:GLU:543:OE2:9881, V-B:TYR:539:C:9838, V-B:HIS:456:CE1:9040, V-B:GLU:543:CB:9877, V-A:GLU:543:CB:4905, V-B:ALA:541:C:9859, V-A:GLU:543:CD:4907, V-B:PRO:540:N:9855, V-A:GLU:543:CG:4906, V-A:LEU:373:CG:3278, V-A:HIS:383:CG:3389, V-A:LEU:373:CD1:3279"]

$$$$
4ch_Grossjean_2025
     RDKit          3D

 36 39  0  0  0  0  0  0  0  0999 V2000
  129.4330  123.9090   73.2890 C   0  0  0  0  0  0  0  0  0  0  0  0
  128.9780  125.0320   74.0370 O   0  0  0  0  0  0  0  0  0  0  0  0
  129.5610  126.2680   73.8270 C   0  0  0  0  0  0  0  0  0  0  0  0
  129.2580  127.1030   72.7390 C   0  0  0  0  0  0  0  0  0  0  0  0
  129.8850  128.3410   72.5910 C   0  0  0  0  0  0  0  0  0  0  0  0
  129.5650  129.2210   71.3880 C   0  0  0  0  0  0  0  0  0  0  0  0
  129.8510  128.5990   70.0950 N   0  0  0  0  0  0  0  0  0  0  0  0
  129.1880  128.8390   68.9450 C   0  0  0  0  0  0  0  0  0  0  0  0
  128.2640  129.6520   68.8700 O   0  0  0  0  0  0  0  0  0  0  0  0
  129.6520  128.1000   67.7700 C   0  0  0  0  0  0  0  0  0  0  0  0
  130.7670  126.7510   67.9600 S   0  0  0  0  0  0  0  0  0  0  0  0
  130.7720  126.4550   66.2390 C   0  0  0  0  0  0  0  0  0  0  0  0
  131.4980  125.4780   65.7030 N   0  0  0  0  0  0  0  0  0  0  0  0
  131.4340  125.3200   64.3560 C   0  0  0  0  0  0  0  0  0  0  0  0
  132.2710  124.2120   63.7830 C   0  0  0  0  0  0  0  0  0  0  0  0
  132.1510  122.8980   64.2640 C   0  0  0  0  0  0  0  0  0  0  0  0
  132.9240  121.8660   63.7380 C   0  0  0  0  0  0  0  0  0  0  0  0
  133.8320  122.1350   62.7200 C   0  0  0  0  0  0  0  0  0  0  0  0
  133.9740  123.4280   62.2270 C   0  0  0  0  0  0  0  0  0  0  0  0
  133.2000  124.4570   62.7570 C   0  0  0  0  0  0  0  0  0  0  0  0
  130.6540  126.1560   63.5510 C   0  0  0  0  0  0  0  0  0  0  0  0
  129.8840  127.1920   64.1040 C   0  0  0  0  0  0  0  0  0  0  0  0
  129.0510  128.0710   63.1650 C   0  0  0  0  0  0  0  0  0  0  0  0
  127.7420  128.0220   63.4240 F   0  0  0  0  0  0  0  0  0  0  0  0
  129.4320  129.3420   63.2800 F   0  0  0  0  0  0  0  0  0  0  0  0
  129.2230  127.6740   61.9040 F   0  0  0  0  0  0  0  0  0  0  0  0
  129.9340  127.3570   65.5180 C   0  0  0  0  0  0  0  0  0  0  0  0
  129.2960  128.2810   66.4250 C   0  0  0  0  0  0  0  0  0  0  0  0
  128.4270  129.2560   66.0030 N   0  0  0  0  0  0  0  0  0  0  0  0
  130.8370  128.7470   73.5270 C   0  0  0  0  0  0  0  0  0  0  0  0
  131.1600  127.9310   74.6240 C   0  0  0  0  0  0  0  0  0  0  0  0
  132.0910  128.2700   75.5890 O   0  0  0  0  0  0  0  0  0  0  0  0
  133.4580  127.9220   75.3950 C   0  0  0  0  0  0  0  0  0  0  0  0
  130.5100  126.6970   74.7650 C   0  0  0  0  0  0  0  0  0  0  0  0
  130.8270  125.8830   75.8260 O   0  0  0  0  0  0  0  0  0  0  0  0
  131.8180  124.9080   75.5300 C   0  0  0  0  0  0  0  0  0  0  0  0
  1  2  1  0
  2  3  1  0
  3  4  2  0
  4  5  1  0
  5  6  1  0
  6  7  1  0
  7  8  1  0
  8  9  2  0
  8 10  1  0
 10 11  1  0
 11 12  1  0
 12 13  2  0
 13 14  1  0
 14 15  1  0
 15 16  2  0
 16 17  1  0
 17 18  2  0
 18 19  1  0
 19 20  2  0
 14 21  2  0
 21 22  1  0
 22 23  1  0
 23 24  1  0
 23 25  1  0
 23 26  1  0
 22 27  2  0
 27 28  1  0
 28 29  1  0
  5 30  2  0
 30 31  1  0
 31 32  1  0
 32 33  1  0
 31 34  2  0
 34 35  1  0
 35 36  1  0
 34  3  1  0
 28 10  2  0
 27 12  1  0
 20 15  1  0
M  END
>  <Binding energies>  (57) 
[-6.79]

>  <Ligand effiencies>  (57) 
[-0.1741025641025641]

>  <Interactions>  (57) 
["V-A:LEU:475:CD2:4258, V-A:ASP:366:CG:3212, H-A:TYR:484:OH:4347, V-A:ILE:369:CD1:3238, V-B:GLU:543:CD:9879, V-A:GLY:454:CA:4048, V-A:HIS:456:CE1:4069, V-B:HIS:456:CE1:9040, V-A:GLU:543:CB:4905, V-A:GLU:543:CD:4907, V-A:GLU:543:CG:4906, V-A:GLU:543:C:4901, V-A:HIS:456:CD2:4067, V-A:HIS:456:CB:4064, V-A:HIS:456:CG:4065, H-A:LYS:547:NZ:4950, H-B:LYS:547:NZ:9922, V-A:GLY:544:C:4911, H-A:HIS:456:NE2:4070, H-B:TYR:484:OH:9318, V-A:LYS:547:CD:4948"]

$$$$
4cj_Grossjean_2025
     RDKit          3D

 28 31  0  0  0  0  0  0  0  0999 V2000
  132.8460  125.9880   62.7670 N   0  0  0  0  0  0  0  0  0  0  0  0
  132.3260  124.8290   63.2840 C   0  0  0  0  0  0  0  0  0  0  0  0
  131.8590  124.7170   64.6040 C   0  0  0  0  0  0  0  0  0  0  0  0
  131.8170  125.7440   65.6480 C   0  0  0  0  0  0  0  0  0  0  0  0
  132.8590  126.2310   66.0960 O   0  0  0  0  0  0  0  0  0  0  0  0
  130.5780  126.0930   66.0730 N   0  0  0  0  0  0  0  0  0  0  0  0
  130.2630  127.0340   67.0450 C   0  0  0  0  0  0  0  0  0  0  0  0
  130.7450  127.1240   68.2660 N   0  0  0  0  0  0  0  0  0  0  0  0
  130.2250  128.1450   68.9170 C   0  0  0  0  0  0  0  0  0  0  0  0
  129.2980  128.9130   68.2190 C   0  0  0  0  0  0  0  0  0  0  0  0
  129.1040  128.2530   66.6230 S   0  0  0  0  0  0  0  0  0  0  0  0
  131.2480  123.0970   64.9290 S   0  0  0  0  0  0  0  0  0  0  0  0
  131.6240  122.5810   63.3020 C   0  0  0  0  0  0  0  0  0  0  0  0
  131.3680  121.3420   62.8900 N   0  0  0  0  0  0  0  0  0  0  0  0
  131.6870  121.0350   61.6060 C   0  0  0  0  0  0  0  0  0  0  0  0
  131.3740  119.6320   61.1700 C   0  0  0  0  0  0  0  0  0  0  0  0
  130.2200  118.9780   61.6300 C   0  0  0  0  0  0  0  0  0  0  0  0
  129.9270  117.6750   61.2340 C   0  0  0  0  0  0  0  0  0  0  0  0
  130.7880  117.0060   60.3700 C   0  0  0  0  0  0  0  0  0  0  0  0
  131.9380  117.6300   59.9010 C   0  0  0  0  0  0  0  0  0  0  0  0
  132.2270  118.9330   60.2990 C   0  0  0  0  0  0  0  0  0  0  0  0
  132.2830  121.9670   60.7500 C   0  0  0  0  0  0  0  0  0  0  0  0
  132.5590  123.2760   61.1750 C   0  0  0  0  0  0  0  0  0  0  0  0
  133.2110  124.2470   60.1840 C   0  0  0  0  0  0  0  0  0  0  0  0
  132.4450  125.3030   59.9040 F   0  0  0  0  0  0  0  0  0  0  0  0
  134.3550  124.7070   60.6910 F   0  0  0  0  0  0  0  0  0  0  0  0
  133.4610  123.6200   59.0340 F   0  0  0  0  0  0  0  0  0  0  0  0
  132.2110  123.6140   62.5140 C   0  0  0  0  0  0  0  0  0  0  0  0
  1  2  1  0
  2  3  2  0
  3  4  1  0
  4  5  2  0
  4  6  1  0
  6  7  1  0
  7  8  2  0
  8  9  1  0
  9 10  2  0
 10 11  1  0
  3 12  1  0
 12 13  1  0
 13 14  2  0
 14 15  1  0
 15 16  1  0
 16 17  2  0
 17 18  1  0
 18 19  2  0
 19 20  1  0
 20 21  2  0
 15 22  2  0
 22 23  1  0
 23 24  1  0
 24 25  1  0
 24 26  1  0
 24 27  1  0
 23 28  2  0
 28  2  1  0
 11  7  1  0
 28 13  1  0
 21 16  1  0
M  END
>  <Binding energies>  (58) 
[-7.49]

>  <Ligand effiencies>  (58) 
[-0.24161290322580645]

>  <Interactions>  (58) 
["H-A:ARG:545:NE:4923, V-A:HIS:383:CE1:3393, V-B:TYR:539:CE2:9847, V-A:LEU:475:CD2:4258, V-A:ILE:369:CG2:3236, V-B:TYR:539:CB:9842, V-A:ASP:366:CG:3212, V-B:TYR:539:CD2:9845, V-B:ALA:541:CB:9863, V-A:ARG:545:CZ:4925, H-A:TYR:484:OH:4347, V-A:ILE:369:CD1:3238, V-B:GLU:543:CD:9879, V-A:HIS:456:CE1:4069, H-A:ASP:366:OD2:3214, H-A:ASP:366:OD1:3213, V-B:TYR:539:CZ:9848, V-A:ASP:366:CB:3211, V-A:ILE:369:CB:3235, V-A:ASP:366:CA:3209, V-A:TYR:484:CE2:4345, V-A:TYR:484:CZ:4346, H-B:GLU:543:OE2:9881, V-B:TYR:539:C:9838, V-A:GLU:543:CB:4905, V-A:GLU:543:CD:4907, V-A:GLU:543:CG:4906, V-A:PRO:482:CB:4325, V-A:PRO:482:CG:4326, V-B:VAL:344:CG1:7971, V-A:ILE:369:CG1:3237"]

$$$$
4ck_Grossjean_2025
     RDKit          3D

 33 35  0  0  0  0  0  0  0  0999 V2000
  130.0050  124.2000   73.7150 C   0  0  0  0  0  0  0  0  0  0  0  0
  129.0610  125.1740   74.1320 O   0  0  0  0  0  0  0  0  0  0  0  0
  128.0570  125.4400   73.1630 C   0  0  0  0  0  0  0  0  0  0  0  0
  128.0700  126.9360   72.8260 C   0  0  0  0  0  0  0  0  0  0  0  0
  128.6570  127.1190   71.5460 O   0  0  0  0  0  0  0  0  0  0  0  0
  128.1860  126.2000   70.5690 C   0  0  0  0  0  0  0  0  0  0  0  0
  129.1630  126.1790   69.3860 C   0  0  0  0  0  0  0  0  0  0  0  0
  128.7860  127.1920   68.4640 O   0  0  0  0  0  0  0  0  0  0  0  0
  129.8850  127.7990   67.7960 C   0  0  0  0  0  0  0  0  0  0  0  0
  129.5040  128.0910   66.3370 C   0  0  0  0  0  0  0  0  0  0  0  0
  129.8470  126.9820   65.4460 N   0  0  0  0  0  0  0  0  0  0  0  0
  130.9580  126.2200   65.5240 C   0  0  0  0  0  0  0  0  0  0  0  0
  131.8090  126.3720   66.4030 O   0  0  0  0  0  0  0  0  0  0  0  0
  131.0940  125.1810   64.5030 C   0  0  0  0  0  0  0  0  0  0  0  0
  131.0660  123.4800   64.9620 S   0  0  0  0  0  0  0  0  0  0  0  0
  131.2100  122.9830   63.2930 C   0  0  0  0  0  0  0  0  0  0  0  0
  131.2460  121.6970   62.9520 N   0  0  0  0  0  0  0  0  0  0  0  0
  131.3610  121.4070   61.6300 C   0  0  0  0  0  0  0  0  0  0  0  0
  131.3800  119.9480   61.2770 C   0  0  0  0  0  0  0  0  0  0  0  0
  130.3090  119.1090   61.6240 C   0  0  0  0  0  0  0  0  0  0  0  0
  130.3210  117.7540   61.3020 C   0  0  0  0  0  0  0  0  0  0  0  0
  131.4100  117.2170   60.6240 C   0  0  0  0  0  0  0  0  0  0  0  0
  132.4820  118.0250   60.2630 C   0  0  0  0  0  0  0  0  0  0  0  0
  132.4650  119.3800   60.5860 C   0  0  0  0  0  0  0  0  0  0  0  0
  131.4310  122.4090   60.6560 C   0  0  0  0  0  0  0  0  0  0  0  0
  131.3950  123.7680   61.0060 C   0  0  0  0  0  0  0  0  0  0  0  0
  131.4800  124.8150   59.8880 C   0  0  0  0  0  0  0  0  0  0  0  0
  132.7170  125.2760   59.6950 F   0  0  0  0  0  0  0  0  0  0  0  0
  131.0690  124.2810   58.7380 F   0  0  0  0  0  0  0  0  0  0  0  0
  130.7080  125.8590   60.1900 F   0  0  0  0  0  0  0  0  0  0  0  0
  131.2770  124.0840   62.3900 C   0  0  0  0  0  0  0  0  0  0  0  0
  131.2000  125.3310   63.1120 C   0  0  0  0  0  0  0  0  0  0  0  0
  131.2330  126.5530   62.4900 N   0  0  0  0  0  0  0  0  0  0  0  0
  1  2  1  0
  2  3  1  0
  3  4  1  0
  4  5  1  0
  5  6  1  0
  6  7  1  0
  7  8  1  0
  8  9  1  0
  9 10  1  0
 10 11  1  0
 11 12  1  0
 12 13  2  0
 12 14  1  0
 14 15  1  0
 15 16  1  0
 16 17  2  0
 17 18  1  0
 18 19  1  0
 19 20  2  0
 20 21  1  0
 21 22  2  0
 22 23  1  0
 23 24  2  0
 18 25  2  0
 25 26  1  0
 26 27  1  0
 27 28  1  0
 27 29  1  0
 27 30  1  0
 26 31  2  0
 31 32  1  0
 32 33  1  0
 32 14  2  0
 31 16  1  0
 24 19  1  0
M  END
>  <Binding energies>  (59) 
[-5.95]

>  <Ligand effiencies>  (59) 
[-0.16527777777777777]

>  <Interactions>  (59) 
["V-A:HIS:383:CE1:3393, V-B:TYR:539:CE2:9847, V-A:LEU:475:CD2:4258, V-A:ASP:366:CG:3212, V-B:TYR:539:CD2:9845, V-B:ALA:541:CB:9863, H-A:TYR:484:OH:4347, V-B:GLU:543:CD:9879, V-A:HIS:456:CE1:4069, H-A:ASP:366:OD2:3214, H-A:ASP:366:OD1:3213, V-B:TYR:539:CZ:9848, V-A:ASP:366:CB:3211, V-A:ASP:366:CA:3209, V-A:TYR:484:CZ:4346, H-B:GLU:543:OE2:9881, H-B:GLU:543:OE1:9880, V-B:HIS:456:CE1:9040, V-B:GLU:543:CB:9877, V-A:GLU:543:CB:4905, V-B:GLU:543:C:9873, V-A:GLU:543:CD:4907, V-A:GLU:543:CG:4906, V-A:HIS:456:CD2:4067, V-A:PRO:482:CB:4325, V-A:PRO:482:CG:4326, H-B:LYS:547:NZ:9922, V-B:LYS:547:CE:9921"]

$$$$
4dd_Grossjean_2025
     RDKit          3D

 26 29  0  0  0  0  0  0  0  0999 V2000
  133.6320  124.2230   60.3850 C   0  0  0  0  0  0  0  0  0  0  0  0
  132.8680  123.2420   61.2610 C   0  0  0  0  0  0  0  0  0  0  0  0
  132.6260  121.9570   60.7580 C   0  0  0  0  0  0  0  0  0  0  0  0
  131.9290  121.0080   61.5150 C   0  0  0  0  0  0  0  0  0  0  0  0
  131.6510  119.6270   61.0000 C   0  0  0  0  0  0  0  0  0  0  0  0
  130.5070  118.9230   61.4090 C   0  0  0  0  0  0  0  0  0  0  0  0
  130.2410  117.6420   60.9330 C   0  0  0  0  0  0  0  0  0  0  0  0
  131.1200  117.0430   60.0370 C   0  0  0  0  0  0  0  0  0  0  0  0
  132.2600  117.7170   59.6140 C   0  0  0  0  0  0  0  0  0  0  0  0
  132.5210  118.9990   60.0910 C   0  0  0  0  0  0  0  0  0  0  0  0
  131.4480  121.2910   62.7570 N   0  0  0  0  0  0  0  0  0  0  0  0
  131.6830  122.5100   63.2390 C   0  0  0  0  0  0  0  0  0  0  0  0
  131.1390  123.0010   64.8270 S   0  0  0  0  0  0  0  0  0  0  0  0
  131.8400  124.6080   64.6220 C   0  0  0  0  0  0  0  0  0  0  0  0
  131.7420  125.6020   65.6930 C   0  0  0  0  0  0  0  0  0  0  0  0
  132.6570  126.4020   65.8930 O   0  0  0  0  0  0  0  0  0  0  0  0
  130.5940  125.5680   66.4140 N   0  0  0  0  0  0  0  0  0  0  0  0
  130.2120  126.3370   67.5280 C   0  0  0  0  0  0  0  0  0  0  0  0
  129.4620  125.6710   68.5010 C   0  0  0  0  0  0  0  0  0  0  0  0
  129.0470  126.3420   69.6490 C   0  0  0  0  0  0  0  0  0  0  0  0
  129.3900  127.6790   69.8280 C   0  0  0  0  0  0  0  0  0  0  0  0
  130.1480  128.3510   68.8720 C   0  0  0  0  0  0  0  0  0  0  0  0
  130.5630  127.6830   67.7230 C   0  0  0  0  0  0  0  0  0  0  0  0
  132.4580  124.7340   63.3680 C   0  0  0  0  0  0  0  0  0  0  0  0
  133.0820  125.8770   62.9350 N   0  0  0  0  0  0  0  0  0  0  0  0
  132.3840  123.5460   62.5590 C   0  0  0  0  0  0  0  0  0  0  0  0
  1  2  1  0
  2  3  2  0
  3  4  1  0
  4  5  1  0
  5  6  2  0
  6  7  1  0
  7  8  2  0
  8  9  1  0
  9 10  2  0
  4 11  2  0
 11 12  1  0
 12 13  1  0
 13 14  1  0
 14 15  1  0
 15 16  2  0
 15 17  1  0
 17 18  1  0
 18 19  2  0
 19 20  1  0
 20 21  2  0
 21 22  1  0
 22 23  2  0
 14 24  2  0
 24 25  1  0
 24 26  1  0
 26  2  1  0
 10  5  1  0
 26 12  2  0
 23 18  1  0
M  END
>  <Binding energies>  (60) 
[-8.78]

>  <Ligand effiencies>  (60) 
[-0.30275862068965514]

>  <Interactions>  (60) 
["H-A:ARG:545:NE:4923, V-A:HIS:383:CE1:3393, H-A:ARG:545:NH2:4927, V-B:TYR:539:CE2:9847, V-A:LEU:475:CD2:4258, V-A:ILE:369:CG2:3236, V-B:TYR:539:CB:9842, V-A:ASP:366:CG:3212, V-B:TYR:539:CD2:9845, V-B:ALA:541:CB:9863, V-A:ARG:545:CZ:4925, H-A:TYR:484:OH:4347, V-A:ILE:369:CD1:3238, V-B:GLU:543:CD:9879, V-B:GLU:543:CG:9878, V-A:HIS:456:CE1:4069, H-A:ASP:366:OD2:3214, H-A:ASP:366:OD1:3213, V-A:ASP:366:CB:3211, V-A:ILE:369:CB:3235, V-A:TYR:484:CE2:4345, V-A:TYR:484:CZ:4346, H-B:GLU:543:OE2:9881, V-B:TYR:539:C:9838, V-B:GLU:543:CB:9877, V-A:GLU:543:CB:4905, V-A:GLU:543:CD:4907, V-A:PRO:482:CB:4325, V-A:PRO:482:CG:4326"]

$$$$
4dg_Grossjean_2025
     RDKit          3D

 27 30  0  0  0  0  0  0  0  0999 V2000
  133.3810  124.3430   60.0890 C   0  0  0  0  0  0  0  0  0  0  0  0
  132.8970  123.2950   61.0800 C   0  0  0  0  0  0  0  0  0  0  0  0
  132.5590  122.0290   60.5880 C   0  0  0  0  0  0  0  0  0  0  0  0
  132.1070  121.0200   61.4480 C   0  0  0  0  0  0  0  0  0  0  0  0
  131.7380  119.6510   60.9500 C   0  0  0  0  0  0  0  0  0  0  0  0
  130.5700  119.0120   61.3960 C   0  0  0  0  0  0  0  0  0  0  0  0
  130.2250  117.7410   60.9410 C   0  0  0  0  0  0  0  0  0  0  0  0
  131.0470  117.0890   60.0280 C   0  0  0  0  0  0  0  0  0  0  0  0
  132.2120  117.6970   59.5720 C   0  0  0  0  0  0  0  0  0  0  0  0
  132.5530  118.9660   60.0300 C   0  0  0  0  0  0  0  0  0  0  0  0
  131.9940  121.2170   62.7890 N   0  0  0  0  0  0  0  0  0  0  0  0
  132.3150  122.4220   63.2590 C   0  0  0  0  0  0  0  0  0  0  0  0
  132.2100  122.8110   64.9600 S   0  0  0  0  0  0  0  0  0  0  0  0
  132.7790  124.4540   64.6640 C   0  0  0  0  0  0  0  0  0  0  0  0
  132.8880  125.4040   65.7700 C   0  0  0  0  0  0  0  0  0  0  0  0
  133.9850  125.7880   66.1800 O   0  0  0  0  0  0  0  0  0  0  0  0
  131.7240  125.7940   66.3280 N   0  0  0  0  0  0  0  0  0  0  0  0
  131.5900  126.7510   67.4270 C   0  0  0  0  0  0  0  0  0  0  0  0
  130.1440  127.1190   67.7370 C   0  0  0  0  0  0  0  0  0  0  0  0
  129.4800  126.4930   68.7970 C   0  0  0  0  0  0  0  0  0  0  0  0
  128.1690  126.8500   69.1020 C   0  0  0  0  0  0  0  0  0  0  0  0
  127.5310  127.8370   68.3560 C   0  0  0  0  0  0  0  0  0  0  0  0
  128.1920  128.4770   67.3090 C   0  0  0  0  0  0  0  0  0  0  0  0
  129.5030  128.1210   67.0040 C   0  0  0  0  0  0  0  0  0  0  0  0
  133.0180  124.6720   63.2990 C   0  0  0  0  0  0  0  0  0  0  0  0
  133.4540  125.8660   62.7820 N   0  0  0  0  0  0  0  0  0  0  0  0
  132.7710  123.5200   62.4750 C   0  0  0  0  0  0  0  0  0  0  0  0
  1  2  1  0
  2  3  2  0
  3  4  1  0
  4  5  1  0
  5  6  2  0
  6  7  1  0
  7  8  2  0
  8  9  1  0
  9 10  2  0
  4 11  2  0
 11 12  1  0
 12 13  1  0
 13 14  1  0
 14 15  1  0
 15 16  2  0
 15 17  1  0
 17 18  1  0
 18 19  1  0
 19 20  2  0
 20 21  1  0
 21 22  2  0
 22 23  1  0
 23 24  2  0
 14 25  2  0
 25 26  1  0
 25 27  1  0
 27  2  1  0
 10  5  1  0
 27 12  2  0
 24 19  1  0
M  END
>  <Binding energies>  (61) 
[-8.55]

>  <Ligand effiencies>  (61) 
[-0.28500000000000003]

>  <Interactions>  (61) 
["H-A:GLY:454:N:4049, H-A:ARG:545:NE:4923, V-A:HIS:383:CE1:3393, V-B:TYR:539:CE2:9847, V-A:LEU:475:CD2:4258, V-A:ILE:369:CG2:3236, V-B:TYR:539:CB:9842, V-A:ASP:366:CG:3212, V-B:TYR:539:CD2:9845, V-B:ALA:541:CB:9863, V-A:ARG:545:CZ:4925, H-A:TYR:484:OH:4347, V-A:ILE:369:CD1:3238, V-B:GLU:543:CD:9879, V-A:GLY:454:CA:4048, V-A:HIS:456:CE1:4069, H-A:ASP:366:OD2:3214, H-A:ASP:366:OD1:3213, V-A:ASP:366:CB:3211, V-A:TYR:484:CZ:4346, H-B:GLU:543:OE2:9881, V-B:TYR:539:C:9838, V-B:HIS:456:CE1:9040, V-B:GLU:543:CB:9877, V-A:GLU:543:CB:4905, V-A:GLU:543:CD:4907, V-A:GLU:543:CG:4906, V-A:PRO:482:CB:4325, V-A:PRO:482:CG:4326"]

$$$$
4dj_Grossjean_2025
     RDKit          3D

 25 28  0  0  0  0  0  0  0  0999 V2000
  133.6290  124.0720   60.4380 C   0  0  0  0  0  0  0  0  0  0  0  0
  132.8180  123.1670   61.3540 C   0  0  0  0  0  0  0  0  0  0  0  0
  132.5120  121.8780   60.9040 C   0  0  0  0  0  0  0  0  0  0  0  0
  131.7670  120.9970   61.6980 C   0  0  0  0  0  0  0  0  0  0  0  0
  131.4280  119.6050   61.2440 C   0  0  0  0  0  0  0  0  0  0  0  0
  132.2830  118.9010   60.3810 C   0  0  0  0  0  0  0  0  0  0  0  0
  131.9740  117.6110   59.9560 C   0  0  0  0  0  0  0  0  0  0  0  0
  130.7980  117.0060   60.3880 C   0  0  0  0  0  0  0  0  0  0  0  0
  129.9310  117.6820   61.2390 C   0  0  0  0  0  0  0  0  0  0  0  0
  130.2440  118.9700   61.6620 C   0  0  0  0  0  0  0  0  0  0  0  0
  131.3270  121.3440   62.9380 N   0  0  0  0  0  0  0  0  0  0  0  0
  131.6170  122.5720   63.3670 C   0  0  0  0  0  0  0  0  0  0  0  0
  131.1070  123.1520   64.9370 S   0  0  0  0  0  0  0  0  0  0  0  0
  131.8720  124.7180   64.6590 C   0  0  0  0  0  0  0  0  0  0  0  0
  131.8010  125.7660   65.6780 C   0  0  0  0  0  0  0  0  0  0  0  0
  132.8200  126.3540   66.0500 O   0  0  0  0  0  0  0  0  0  0  0  0
  130.5630  126.0220   66.1680 N   0  0  0  0  0  0  0  0  0  0  0  0
  130.2240  126.9580   67.1340 C   0  0  0  0  0  0  0  0  0  0  0  0
  130.6620  127.0340   68.3730 N   0  0  0  0  0  0  0  0  0  0  0  0
  130.1270  128.0550   69.0140 C   0  0  0  0  0  0  0  0  0  0  0  0
  129.2330  128.8370   68.2890 C   0  0  0  0  0  0  0  0  0  0  0  0
  129.0910  128.1900   66.6820 S   0  0  0  0  0  0  0  0  0  0  0  0
  132.4850  124.7640   63.3980 C   0  0  0  0  0  0  0  0  0  0  0  0
  133.1540  125.8610   62.9150 N   0  0  0  0  0  0  0  0  0  0  0  0
  132.3560  123.5490   62.6410 C   0  0  0  0  0  0  0  0  0  0  0  0
  1  2  1  0
  2  3  2  0
  3  4  1  0
  4  5  1  0
  5  6  2  0
  6  7  1  0
  7  8  2  0
  8  9  1  0
  9 10  2  0
  4 11  2  0
 11 12  1  0
 12 13  1  0
 13 14  1  0
 14 15  1  0
 15 16  2  0
 15 17  1  0
 17 18  1  0
 18 19  2  0
 19 20  1  0
 20 21  2  0
 21 22  1  0
 14 23  2  0
 23 24  1  0
 23 25  1  0
 25  2  1  0
 10  5  1  0
 25 12  2  0
 22 18  1  0
M  END
>  <Binding energies>  (62) 
[-8.21]

>  <Ligand effiencies>  (62) 
[-0.29321428571428576]

>  <Interactions>  (62) 
["H-A:ARG:545:NE:4923, V-A:HIS:383:CE1:3393, H-A:ARG:545:NH2:4927, V-B:TYR:539:CE2:9847, V-A:LEU:475:CD2:4258, V-A:ILE:369:CG2:3236, V-B:TYR:539:CB:9842, V-A:ASP:366:CG:3212, V-B:TYR:539:CD2:9845, V-B:ALA:541:CB:9863, V-A:ARG:545:CZ:4925, H-A:TYR:484:OH:4347, V-A:ILE:369:CD1:3238, V-B:GLU:543:CD:9879, V-A:HIS:456:CE1:4069, H-A:ASP:366:OD2:3214, H-A:ASP:366:OD1:3213, V-A:ILE:369:CB:3235, V-A:TYR:484:CE2:4345, V-A:TYR:484:CZ:4346, H-B:GLU:543:OE2:9881, V-B:TYR:539:C:9838, V-A:GLU:543:CB:4905, V-A:GLU:543:CD:4907, V-A:GLU:543:CG:4906, V-A:PRO:482:CB:4325, V-A:PRO:482:CG:4326, V-B:VAL:344:CG1:7971"]

$$$$
4ea_Grossjean_2025
     RDKit          3D

 31 34  0  0  0  0  0  0  0  0999 V2000
  132.4580  117.6010   58.8810 C   0  0  0  0  0  0  0  0  0  0  0  0
  132.4250  117.6060   60.4120 C   0  0  0  0  0  0  0  0  0  0  0  0
  132.0310  118.8930   60.8710 O   0  0  0  0  0  0  0  0  0  0  0  0
  132.9440  119.8810   61.0570 C   0  0  0  0  0  0  0  0  0  0  0  0
  134.0650  119.8770   60.5410 O   0  0  0  0  0  0  0  0  0  0  0  0
  132.4520  120.9800   61.9540 C   0  0  0  0  0  0  0  0  0  0  0  0
  133.3740  121.6880   62.7360 C   0  0  0  0  0  0  0  0  0  0  0  0
  132.9510  122.7120   63.5780 C   0  0  0  0  0  0  0  0  0  0  0  0
  131.5990  123.0510   63.6560 C   0  0  0  0  0  0  0  0  0  0  0  0
  131.2870  124.1020   64.5400 N   0  0  0  0  0  0  0  0  0  0  0  0
  132.0710  125.0880   65.0430 C   0  0  0  0  0  0  0  0  0  0  0  0
  133.2660  125.2250   64.7830 O   0  0  0  0  0  0  0  0  0  0  0  0
  131.3940  126.0210   65.9490 C   0  0  0  0  0  0  0  0  0  0  0  0
  131.9560  126.2170   67.6110 S   0  0  0  0  0  0  0  0  0  0  0  0
  130.7100  127.3980   67.9440 C   0  0  0  0  0  0  0  0  0  0  0  0
  130.5910  127.9790   69.1390 N   0  0  0  0  0  0  0  0  0  0  0  0
  129.5840  128.8780   69.2660 C   0  0  0  0  0  0  0  0  0  0  0  0
  129.4660  129.5260   70.6330 C   0  0  0  0  0  0  0  0  0  0  0  0
  128.7030  129.2060   68.2380 C   0  0  0  0  0  0  0  0  0  0  0  0
  128.8320  128.5940   66.9870 C   0  0  0  0  0  0  0  0  0  0  0  0
  127.8880  128.9530   65.9040 C   0  0  0  0  0  0  0  0  0  0  0  0
  128.3480  129.6150   64.7610 C   0  0  0  0  0  0  0  0  0  0  0  0
  127.4610  129.9510   63.7420 C   0  0  0  0  0  0  0  0  0  0  0  0
  126.1120  129.6270   63.8670 C   0  0  0  0  0  0  0  0  0  0  0  0
  125.6430  128.9720   65.0030 C   0  0  0  0  0  0  0  0  0  0  0  0
  126.5310  128.6370   66.0210 C   0  0  0  0  0  0  0  0  0  0  0  0
  129.8760  127.6450   66.8120 C   0  0  0  0  0  0  0  0  0  0  0  0
  130.2890  126.8460   65.6870 C   0  0  0  0  0  0  0  0  0  0  0  0
  129.6470  126.8990   64.4760 N   0  0  0  0  0  0  0  0  0  0  0  0
  130.6680  122.3470   62.8760 C   0  0  0  0  0  0  0  0  0  0  0  0
  131.0940  121.3230   62.0350 C   0  0  0  0  0  0  0  0  0  0  0  0
  1  2  1  0
  2  3  1  0
  3  4  1  0
  4  5  2  0
  4  6  1  0
  6  7  2  0
  7  8  1  0
  8  9  2  0
  9 10  1  0
 10 11  1  0
 11 12  2  0
 11 13  1  0
 13 14  1  0
 14 15  1  0
 15 16  2  0
 16 17  1  0
 17 18  1  0
 17 19  2  0
 19 20  1  0
 20 21  1  0
 21 22  2  0
 22 23  1  0
 23 24  2  0
 24 25  1  0
 25 26  2  0
 20 27  2  0
 27 28  1  0
 28 29  1  0
  9 30  1  0
 30 31  2  0
 31  6  1  0
 28 13  2  0
 27 15  1  0
 26 21  1  0
M  END
>  <Binding energies>  (63) 
[-7.36]

>  <Ligand effiencies>  (63) 
[-0.21647058823529414]

>  <Interactions>  (63) 
["H-A:GLY:454:N:4049, V-A:HIS:383:CE1:3393, V-A:LEU:475:CD2:4258, V-B:TYR:539:CB:9842, V-A:LEU:373:CD2:3280, V-B:TYR:539:CD2:9845, H-A:TYR:484:OH:4347, V-B:GLU:543:CD:9879, V-A:SER:385:CB:3408, V-A:SER:385:CA:3406, V-A:GLY:454:CA:4048, V-B:TYR:539:CG:9843, V-A:HIS:456:CE1:4069, V-A:TYR:484:CZ:4346, H-B:GLU:543:OE2:9881, H-B:GLU:543:OE1:9880, V-B:HIS:456:CE1:9040, V-A:GLU:543:CB:4905, V-A:GLU:543:CD:4907, V-A:GLU:543:CG:4906, V-A:GLU:543:C:4901, V-A:LEU:373:CG:3278, V-A:LEU:373:CD1:3279, V-B:ARG:545:CZ:9897"]

$$$$
4eb_Grossjean_2025
     RDKit          3D

 30 33  0  0  0  0  0  0  0  0999 V2000
  129.0830  133.3480   58.7060 C   0  0  0  0  0  0  0  0  0  0  0  0
  129.6900  133.7410   57.4840 O   0  0  0  0  0  0  0  0  0  0  0  0
  130.9260  133.2930   57.1420 C   0  0  0  0  0  0  0  0  0  0  0  0
  131.7490  133.9750   56.5250 O   0  0  0  0  0  0  0  0  0  0  0  0
  131.1920  131.8850   57.5920 C   0  0  0  0  0  0  0  0  0  0  0  0
  130.1670  130.9340   57.5030 C   0  0  0  0  0  0  0  0  0  0  0  0
  130.3820  129.6210   57.9110 C   0  0  0  0  0  0  0  0  0  0  0  0
  131.6230  129.2310   58.4150 C   0  0  0  0  0  0  0  0  0  0  0  0
  131.7250  127.8790   58.7970 N   0  0  0  0  0  0  0  0  0  0  0  0
  131.8310  126.7590   58.0410 C   0  0  0  0  0  0  0  0  0  0  0  0
  131.8560  126.7530   56.8090 O   0  0  0  0  0  0  0  0  0  0  0  0
  131.9180  125.5040   58.7910 C   0  0  0  0  0  0  0  0  0  0  0  0
  133.3740  124.5090   58.7010 S   0  0  0  0  0  0  0  0  0  0  0  0
  132.6900  123.3230   59.7890 C   0  0  0  0  0  0  0  0  0  0  0  0
  133.3610  122.2280   60.1510 N   0  0  0  0  0  0  0  0  0  0  0  0
  132.7190  121.3890   60.9990 C   0  0  0  0  0  0  0  0  0  0  0  0
  133.5000  120.1500   61.3970 C   0  0  0  0  0  0  0  0  0  0  0  0
  131.4350  121.6160   61.4900 C   0  0  0  0  0  0  0  0  0  0  0  0
  130.7350  122.7660   61.1080 C   0  0  0  0  0  0  0  0  0  0  0  0
  129.3710  122.9930   61.6380 C   0  0  0  0  0  0  0  0  0  0  0  0
  129.1730  123.1900   63.0080 C   0  0  0  0  0  0  0  0  0  0  0  0
  127.8910  123.4050   63.5070 C   0  0  0  0  0  0  0  0  0  0  0  0
  126.8050  123.4210   62.6350 C   0  0  0  0  0  0  0  0  0  0  0  0
  126.9910  123.2230   61.2680 C   0  0  0  0  0  0  0  0  0  0  0  0
  128.2740  123.0080   60.7710 C   0  0  0  0  0  0  0  0  0  0  0  0
  131.3740  123.6720   60.2190 C   0  0  0  0  0  0  0  0  0  0  0  0
  130.9590  124.9200   59.6340 C   0  0  0  0  0  0  0  0  0  0  0  0
  129.7310  125.4760   59.8900 N   0  0  0  0  0  0  0  0  0  0  0  0
  132.6560  130.1760   58.5080 C   0  0  0  0  0  0  0  0  0  0  0  0
  132.4390  131.4890   58.0990 C   0  0  0  0  0  0  0  0  0  0  0  0
  1  2  1  0
  2  3  1  0
  3  4  2  0
  3  5  1  0
  5  6  2  0
  6  7  1  0
  7  8  2  0
  8  9  1  0
  9 10  1  0
 10 11  2  0
 10 12  1  0
 12 13  1  0
 13 14  1  0
 14 15  2  0
 15 16  1  0
 16 17  1  0
 16 18  2  0
 18 19  1  0
 19 20  1  0
 20 21  2  0
 21 22  1  0
 22 23  2  0
 23 24  1  0
 24 25  2  0
 19 26  2  0
 26 27  1  0
 27 28  1  0
  8 29  1  0
 29 30  2  0
 30  5  1  0
 27 12  2  0
 26 14  1  0
 25 20  1  0
M  END
>  <Binding energies>  (64) 
[-8.05]

>  <Ligand effiencies>  (64) 
[-0.24393939393939396]

>  <Interactions>  (64) 
["V-B:TYR:539:CE2:9847, V-A:LEU:475:CD2:4258, V-A:ILE:369:CG2:3236, V-A:ASP:366:CG:3212, V-B:TYR:539:CD2:9845, V-B:ALA:541:CB:9863, V-B:PRO:540:CB:9856, V-B:GLU:543:CD:9879, V-B:PRO:540:CA:9854, V-A:SER:385:CB:3408, V-A:SER:385:CA:3406, V-B:GLU:543:CG:9878, V-B:PRO:540:C:9852, H-A:ASP:366:OD2:3214, V-B:TYR:539:CZ:9848, V-A:ASP:366:CB:3211, V-A:ILE:369:CB:3235, V-A:ASP:366:CA:3209, V-A:PRO:540:CA:4882, H-B:TYR:539:OH:9849, H-A:TYR:531:OH:4794, V-A:PRO:540:N:4883, V-A:TYR:539:C:4866, V-A:TYR:531:CZ:4793, V-A:SER:385:C:3404, V-A:TYR:539:CD1:4872, V-A:TYR:539:CE1:4874, H-A:TYR:539:N:4869, V-A:TYR:539:CG:4871"]

$$$$
8b_Ghoteimi_2023
     RDKit          3D

 34 38  0  0  0  0  0  0  0  0999 V2000
  129.8750  127.0460   75.5940 C   0  0  0  0  0  0  0  0  0  0  0  0
  128.7570  126.7150   74.7770 O   0  0  0  0  0  0  0  0  0  0  0  0
  128.8590  126.8550   73.4060 C   0  0  0  0  0  0  0  0  0  0  0  0
  129.4980  128.0030   72.9430 C   0  0  0  0  0  0  0  0  0  0  0  0
  129.6460  128.2300   71.5790 C   0  0  0  0  0  0  0  0  0  0  0  0
  129.1570  127.3100   70.6390 C   0  0  0  0  0  0  0  0  0  0  0  0
  129.3120  127.5490   69.1700 C   0  0  0  0  0  0  0  0  0  0  0  0
  130.1350  126.7440   68.3750 C   0  0  0  0  0  0  0  0  0  0  0  0
  130.2620  126.9880   67.0050 C   0  0  0  0  0  0  0  0  0  0  0  0
  131.1500  126.1230   66.1930 C   0  0  0  0  0  0  0  0  0  0  0  0
  130.6060  125.1530   65.3490 C   0  0  0  0  0  0  0  0  0  0  0  0
  131.4410  124.3480   64.5800 C   0  0  0  0  0  0  0  0  0  0  0  0
  132.8270  124.4960   64.6440 C   0  0  0  0  0  0  0  0  0  0  0  0
  133.5770  123.6550   63.8450 O   0  0  0  0  0  0  0  0  0  0  0  0
  134.0130  124.1140   62.5700 C   0  0  0  0  0  0  0  0  0  0  0  0
  133.3710  125.4690   65.4970 C   0  0  0  0  0  0  0  0  0  0  0  0
  132.5350  126.2750   66.2650 C   0  0  0  0  0  0  0  0  0  0  0  0
  129.5270  128.0680   66.4470 C   0  0  0  0  0  0  0  0  0  0  0  0
  129.4180  128.5870   65.1080 C   0  0  0  0  0  0  0  0  0  0  0  0
  130.0980  128.0380   64.0510 N   0  0  0  0  0  0  0  0  0  0  0  0
  128.5600  129.6920   64.9950 C   0  0  0  0  0  0  0  0  0  0  0  0
  128.2160  130.4590   63.7960 C   0  0  0  0  0  0  0  0  0  0  0  0
  127.0680  130.4370   63.3430 O   0  0  0  0  0  0  0  0  0  0  0  0
  129.2330  131.1690   63.2470 N   0  0  0  0  0  0  0  0  0  0  0  0
  129.1870  131.9790   62.1200 C   0  0  0  0  0  0  0  0  0  0  0  0
  128.0300  132.1690   61.3660 C   0  0  0  0  0  0  0  0  0  0  0  0
  128.4010  133.0220   60.3510 C   0  0  0  0  0  0  0  0  0  0  0  0
  129.7110  133.3320   60.4890 O   0  0  0  0  0  0  0  0  0  0  0  0
  130.1990  132.6660   61.6150 N   0  0  0  0  0  0  0  0  0  0  0  0
  127.8590  130.1170   66.5580 S   0  0  0  0  0  0  0  0  0  0  0  0
  128.7180  128.8160   67.3500 C   0  0  0  0  0  0  0  0  0  0  0  0
  128.5980  128.5860   68.6570 N   0  0  0  0  0  0  0  0  0  0  0  0
  128.5190  126.1560   71.1110 C   0  0  0  0  0  0  0  0  0  0  0  0
  128.3680  125.9270   72.4760 C   0  0  0  0  0  0  0  0  0  0  0  0
  1  2  1  0
  2  3  1  0
  3  4  2  0
  4  5  1  0
  5  6  2  0
  6  7  1  0
  7  8  2  0
  8  9  1  0
  9 10  1  0
 10 11  2  0
 11 12  1  0
 12 13  2  0
 13 14  1  0
 14 15  1  0
 13 16  1  0
 16 17  2  0
  9 18  2  0
 18 19  1  0
 19 20  1  0
 19 21  2  0
 21 22  1  0
 22 23  2  0
 22 24  1  0
 24 25  1  0
 25 26  1  0
 26 27  2  0
 27 28  1  0
 28 29  1  0
 21 30  1  0
 30 31  1  0
 31 32  2  0
  6 33  1  0
 33 34  2  0
 34  3  1  0
 32  7  1  0
 17 10  1  0
 31 18  1  0
 29 25  2  0
M  END
>  <Binding energies>  (65) 
[-7.14]

>  <Ligand effiencies>  (65) 
[-0.19297297297297297]

>  <Interactions>  (65) 
["H-A:GLY:454:N:4049, V-A:ASP:366:CG:3212, V-A:ARG:545:CZ:4925, V-A:ILE:369:CD1:3238, V-B:GLU:543:CD:9879, V-A:GLY:454:CA:4048, V-A:HIS:456:CE1:4069, H-B:GLU:543:OE2:9881, V-B:HIS:456:CE1:9040, V-A:GLU:543:CB:4905, V-B:GLU:543:C:9873, V-A:GLU:543:CD:4907, H-A:GLU:543:OE2:4909, V-A:GLU:543:CG:4906, H-A:GLU:543:OE1:4908, H-B:LYS:547:NZ:9922, V-A:TYR:539:CD1:4872, H-A:ALA:541:N:4890"]

$$$$
9d_Ghoteimi_2023
     RDKit          3D

 38 43  0  0  0  0  0  0  0  0999 V2000
  132.4240  126.8710   57.0480 C   0  0  0  0  0  0  0  0  0  0  0  0
  131.0340  127.1640   57.0250 O   0  0  0  0  0  0  0  0  0  0  0  0
  130.4960  128.0550   57.8970 C   0  0  0  0  0  0  0  0  0  0  0  0
  130.0300  129.1480   57.5660 O   0  0  0  0  0  0  0  0  0  0  0  0
  130.5300  127.5830   59.2990 C   0  0  0  0  0  0  0  0  0  0  0  0
  130.3530  128.7370   60.6200 S   0  0  0  0  0  0  0  0  0  0  0  0
  130.4660  127.4590   61.8060 C   0  0  0  0  0  0  0  0  0  0  0  0
  130.3610  127.7060   63.1100 N   0  0  0  0  0  0  0  0  0  0  0  0
  130.4450  126.6410   63.9500 C   0  0  0  0  0  0  0  0  0  0  0  0
  130.3000  126.9390   65.4080 C   0  0  0  0  0  0  0  0  0  0  0  0
  129.4820  127.9880   65.8390 C   0  0  0  0  0  0  0  0  0  0  0  0
  129.3410  128.2760   67.1940 C   0  0  0  0  0  0  0  0  0  0  0  0
  130.0050  127.5150   68.1690 C   0  0  0  0  0  0  0  0  0  0  0  0
  129.8880  127.8030   69.5340 N   0  0  0  0  0  0  0  0  0  0  0  0
  130.1410  129.1600   70.0570 C   0  0  0  0  0  0  0  0  0  0  0  0
  130.3070  129.2170   71.5900 C   0  0  0  0  0  0  0  0  0  0  0  0
  129.1820  128.6300   72.2220 O   0  0  0  0  0  0  0  0  0  0  0  0
  129.0310  127.2690   71.8550 C   0  0  0  0  0  0  0  0  0  0  0  0
  128.8270  127.1490   70.3290 C   0  0  0  0  0  0  0  0  0  0  0  0
  130.8360  126.4740   67.7300 C   0  0  0  0  0  0  0  0  0  0  0  0
  130.9780  126.1890   66.3750 C   0  0  0  0  0  0  0  0  0  0  0  0
  130.6660  125.3410   63.4860 C   0  0  0  0  0  0  0  0  0  0  0  0
  130.7960  125.0790   62.1170 C   0  0  0  0  0  0  0  0  0  0  0  0
  131.0580  123.6830   61.6790 C   0  0  0  0  0  0  0  0  0  0  0  0
  132.3510  123.2680   61.3530 C   0  0  0  0  0  0  0  0  0  0  0  0
  132.5940  121.9540   60.9620 C   0  0  0  0  0  0  0  0  0  0  0  0
  131.5510  121.0160   60.9010 C   0  0  0  0  0  0  0  0  0  0  0  0
  131.7670  119.6950   60.5030 N   0  0  0  0  0  0  0  0  0  0  0  0
  131.3920  118.5990   61.4170 C   0  0  0  0  0  0  0  0  0  0  0  0
  131.3150  117.2230   60.7200 C   0  0  0  0  0  0  0  0  0  0  0  0
  132.5430  116.9400   60.0660 O   0  0  0  0  0  0  0  0  0  0  0  0
  132.8500  117.9160   59.0810 C   0  0  0  0  0  0  0  0  0  0  0  0
  132.9690  119.3070   59.7400 C   0  0  0  0  0  0  0  0  0  0  0  0
  130.2560  121.4440   61.2290 C   0  0  0  0  0  0  0  0  0  0  0  0
  130.0140  122.7580   61.6190 C   0  0  0  0  0  0  0  0  0  0  0  0
  130.6690  126.1750   61.2180 C   0  0  0  0  0  0  0  0  0  0  0  0
  130.6820  126.2770   59.7820 C   0  0  0  0  0  0  0  0  0  0  0  0
  130.8090  125.1870   58.9590 N   0  0  0  0  0  0  0  0  0  0  0  0
  1  2  1  0
  2  3  1  0
  3  4  2  0
  3  5  1  0
  5  6  1  0
  6  7  1  0
  7  8  2  0
  8  9  1  0
  9 10  1  0
 10 11  2  0
 11 12  1  0
 12 13  2  0
 13 14  1  0
 14 15  1  0
 15 16  1  0
 16 17  1  0
 17 18  1  0
 18 19  1  0
 13 20  1  0
 20 21  2  0
  9 22  2  0
 22 23  1  0
 23 24  1  0
 24 25  2  0
 25 26  1  0
 26 27  2  0
 27 28  1  0
 28 29  1  0
 29 30  1  0
 30 31  1  0
 31 32  1  0
 32 33  1  0
 27 34  1  0
 34 35  2  0
 23 36  2  0
 36 37  1  0
 37 38  1  0
 37  5  2  0
 36  7  1  0
 21 10  1  0
 35 24  1  0
 19 14  1  0
 33 28  1  0
M  END
>  <Binding energies>  (66) 
[-7.26]

>  <Ligand effiencies>  (66) 
[-0.1815]

>  <Interactions>  (66) 
["V-A:HIS:383:CE1:3393, H-A:ARG:545:NH2:4927, V-B:TYR:539:CE2:9847, H-A:HIS:383:ND1:3390, V-A:LEU:475:CD2:4258, V-A:ILE:369:CG2:3236, V-A:LEU:373:CD2:3280, V-B:TYR:539:CD2:9845, V-B:GLU:543:CD:9879, V-A:HIS:456:CE1:4069, V-A:ASP:366:CB:3211, V-A:ASP:366:C:3207, V-B:HIS:456:CE1:9040, V-A:GLU:543:CB:4905, V-A:GLU:543:CD:4907, H-B:TYR:539:OH:9849, V-A:GLU:543:CG:4906, H-A:TYR:531:OH:4794, V-A:GLU:543:C:4901, V-A:TYR:531:CE1:4791, V-A:GLU:543:CA:4903, V-A:TYR:531:CZ:4793, V-A:GLY:544:CA:4913, V-A:GLY:544:C:4911, V-A:LEU:373:CG:3278, V-A:LEU:373:CD1:3279"]

$$$$
RR10_Rahimova_2017
     RDKit          3D

 34 38  0  0  0  0  0  0  0  0999 V2000
  133.9550  130.7400   58.8320 C   0  0  0  0  0  0  0  0  0  0  0  0
  132.9650  131.5630   59.6740 C   0  0  1  0  0  0  0  0  0  0  0  0
  131.4970  131.2750   59.2840 C   0  0  0  0  0  0  0  0  0  0  0  0
  130.5220  132.1380   60.1180 C   0  0  0  0  0  0  0  0  0  0  0  0
  130.6970  131.9090   61.6410 C   0  0  1  0  0  0  0  0  0  0  0  0
  130.2630  130.5580   62.0180 N   0  0  0  0  0  0  0  0  0  0  0  0
  129.4670  130.2560   63.0610 C   0  0  0  0  0  0  0  0  0  0  0  0
  128.9930  131.1110   63.8130 O   0  0  0  0  0  0  0  0  0  0  0  0
  129.1730  128.7610   63.2990 C   0  0  1  0  0  0  0  0  0  0  0  0
  128.7400  128.1020   61.9640 C   0  0  0  0  0  0  0  0  0  0  0  0
  128.5330  126.5830   62.1790 C   0  0  0  0  0  0  0  0  0  0  0  0
  129.7530  125.9080   62.8470 C   0  0  0  0  0  0  0  0  0  0  0  0
  130.1440  126.6360   64.0840 N   0  0  0  0  0  0  0  0  0  0  0  0
  131.3310  125.7880   65.0900 S   0  0  0  0  0  0  0  0  0  0  0  0
  130.6070  125.0790   66.1520 O   0  0  0  0  0  0  0  0  0  0  0  0
  132.3960  126.7410   65.4300 O   0  0  0  0  0  0  0  0  0  0  0  0
  132.0350  124.5330   64.0200 C   0  0  0  0  0  0  0  0  0  0  0  0
  133.3740  124.6390   63.6300 C   0  0  0  0  0  0  0  0  0  0  0  0
  133.9820  123.6950   62.7960 C   0  0  0  0  0  0  0  0  0  0  0  0
  133.1830  122.6320   62.3710 C   0  0  0  0  0  0  0  0  0  0  0  0
  133.4010  121.5390   61.5660 N   0  0  0  0  0  0  0  0  0  0  0  0
  132.2260  120.8200   61.4980 C   0  0  0  0  0  0  0  0  0  0  0  0
  132.0690  119.5570   60.7000 C   0  0  0  0  0  0  0  0  0  0  0  0
  133.0130  119.2140   59.7220 C   0  0  0  0  0  0  0  0  0  0  0  0
  132.8710  118.0420   58.9840 C   0  0  0  0  0  0  0  0  0  0  0  0
  131.7830  117.2060   59.2190 C   0  0  0  0  0  0  0  0  0  0  0  0
  130.8370  117.5320   60.1870 C   0  0  0  0  0  0  0  0  0  0  0  0
  130.9800  118.7050   60.9250 C   0  0  0  0  0  0  0  0  0  0  0  0
  131.2680  121.3730   62.2090 N   0  0  0  0  0  0  0  0  0  0  0  0
  131.8280  122.4960   62.7580 C   0  0  0  0  0  0  0  0  0  0  0  0
  131.2460  123.4570   63.5970 C   0  0  0  0  0  0  0  0  0  0  0  0
  130.4430  128.0720   63.8570 C   0  0  0  0  0  0  0  0  0  0  0  0
  132.1790  132.1850   62.0160 C   0  0  0  0  0  0  0  0  0  0  0  0
  133.1560  131.3190   61.1900 C   0  0  0  0  0  0  0  0  0  0  0  0
  2  1  1  6
  2  3  1  0
  3  4  1  0
  4  5  1  0
  5  6  1  6
  6  7  1  0
  7  8  2  0
  9  7  1  6
  9 10  1  0
 10 11  1  0
 11 12  1  0
 12 13  1  0
 13 14  1  0
 14 15  2  0
 14 16  2  0
 14 17  1  0
 17 18  2  0
 18 19  1  0
 19 20  2  0
 20 21  1  0
 21 22  1  0
 22 23  1  0
 23 24  2  0
 24 25  1  0
 25 26  2  0
 26 27  1  0
 27 28  2  0
 22 29  2  0
 29 30  1  0
 30 31  2  0
 13 32  1  0
  5 33  1  0
 33 34  1  0
 34  2  1  0
 32  9  1  0
 31 17  1  0
 30 20  1  0
 28 23  1  0
M  END
>  <Binding energies>  (67) 
[-9.57]

>  <Ligand effiencies>  (67) 
[-0.26583333333333337]

>  <Interactions>  (67) 
["H-A:ARG:545:NE:4923, V-A:HIS:383:CE1:3393, H-A:ARG:545:NH2:4927, V-B:TYR:539:CE2:9847, V-A:LEU:475:CD2:4258, V-A:ILE:369:CG2:3236, V-B:TYR:539:CB:9842, V-A:ASP:366:CG:3212, V-A:LEU:373:CD2:3280, V-B:TYR:539:CD2:9845, H-A:TYR:484:OH:4347, V-A:ILE:369:CD1:3238, V-A:GLY:454:CA:4048, V-B:TYR:539:CG:9843, H-A:ASP:366:OD2:3214, V-A:ASP:366:CB:3211, V-A:PRO:540:CB:4884, V-A:PRO:540:CA:4882, V-A:GLU:543:CD:4907, H-A:GLU:543:OE2:4909, V-A:GLU:543:CG:4906, V-A:LEU:373:CG:3278, V-A:ASN:362:CB:3175, V-A:HIS:383:CG:3389, V-A:LEU:363:CA:3184, V-A:LEU:373:CD1:3279, V-A:ASN:362:C:3171, V-A:PRO:540:C:4880, V-A:LEU:363:C:3182, H-A:SER:385:O:3405"]

$$$$
RR12_Rahimova_2017
     RDKit          3D

 26 28  0  0  0  0  0  0  0  0999 V2000
  133.3730  124.0840   59.1870 C   0  0  0  0  0  0  0  0  0  0  0  0
  132.4240  123.4630   60.2200 C   0  0  0  0  0  0  0  0  0  0  0  0
  133.0660  122.2900   60.9830 C   0  0  0  0  0  0  0  0  0  0  0  0
  132.1070  121.2030   61.1650 N   0  0  0  0  0  0  0  0  0  0  0  0
  130.9160  121.2390   61.8730 C   0  0  0  0  0  0  0  0  0  0  0  0
  130.4230  122.4520   62.6430 C   0  0  0  0  0  0  0  0  0  0  0  0
  128.9000  122.4250   62.8700 C   0  0  0  0  0  0  0  0  0  0  0  0
  128.3260  123.8090   63.2280 C   0  0  0  0  0  0  0  0  0  0  0  0
  127.4380  124.3620   62.2070 N   0  0  0  0  0  0  0  0  0  0  0  0
  126.1520  124.0070   62.0280 C   0  0  0  0  0  0  0  0  0  0  0  0
  125.5830  123.1590   62.7190 O   0  0  0  0  0  0  0  0  0  0  0  0
  125.4150  124.7340   60.8960 C   0  0  0  0  0  0  0  0  0  0  0  0
  126.3510  125.1240   59.8900 O   0  0  0  0  0  0  0  0  0  0  0  0
  126.6670  124.2370   58.8780 C   0  0  0  0  0  0  0  0  0  0  0  0
  125.5980  123.7650   58.1120 C   0  0  0  0  0  0  0  0  0  0  0  0
  125.8180  122.8700   57.0680 C   0  0  0  0  0  0  0  0  0  0  0  0
  127.1130  122.4450   56.7860 C   0  0  0  0  0  0  0  0  0  0  0  0
  128.1900  122.9040   57.5410 C   0  0  0  0  0  0  0  0  0  0  0  0
  127.9690  123.7980   58.5860 C   0  0  0  0  0  0  0  0  0  0  0  0
  130.2530  120.1090   61.8330 N   0  0  0  0  0  0  0  0  0  0  0  0
  131.0110  119.2860   61.0470 C   0  0  0  0  0  0  0  0  0  0  0  0
  130.7630  117.9600   60.6610 C   0  0  0  0  0  0  0  0  0  0  0  0
  131.6970  117.3300   59.8380 C   0  0  0  0  0  0  0  0  0  0  0  0
  132.8460  117.9920   59.4060 C   0  0  0  0  0  0  0  0  0  0  0  0
  133.1220  119.3110   59.7740 C   0  0  0  0  0  0  0  0  0  0  0  0
  132.1850  119.9430   60.6010 C   0  0  0  0  0  0  0  0  0  0  0  0
  1  2  1  0
  2  3  1  0
  3  4  1  0
  4  5  1  0
  5  6  1  0
  6  7  1  0
  7  8  1  0
  8  9  1  0
  9 10  1  0
 10 11  2  0
 10 12  1  0
 12 13  1  0
 13 14  1  0
 14 15  2  0
 15 16  1  0
 16 17  2  0
 17 18  1  0
 18 19  2  0
  5 20  2  0
 20 21  1  0
 21 22  2  0
 22 23  1  0
 23 24  2  0
 24 25  1  0
 25 26  2  0
 26  4  1  0
 19 14  1  0
 26 21  1  0
M  END
>  <Binding energies>  (68) 
[-7.2]

>  <Ligand effiencies>  (68) 
[-0.26666666666666666]

>  <Interactions>  (68) 
["V-A:HIS:383:CE1:3393, V-B:TYR:539:CE2:9847, V-A:LEU:475:CD2:4258, V-A:ILE:369:CG2:3236, V-B:TYR:539:CB:9842, V-A:ASP:366:CG:3212, V-A:LEU:373:CD2:3280, V-B:TYR:539:CD2:9845, V-B:ALA:541:CB:9863, V-A:ILE:369:CD1:3238, V-B:PRO:540:CB:9856, V-B:GLU:543:CD:9879, V-B:PRO:540:CA:9854, V-A:SER:385:CA:3406, H-B:ALA:541:N:9862, V-B:TYR:539:CG:9843, V-A:VAL:384:C:3396, V-B:ALA:541:CA:9861, V-B:TYR:539:CZ:9848, V-A:ASP:366:CB:3211, V-A:ILE:369:CB:3235, V-A:ASP:366:CA:3209, V-B:TYR:539:C:9838, V-B:MET:535:CE:9806, V-B:PRO:540:N:9855, V-B:TYR:539:CE1:9846, V-B:PRO:540:CD:9858, V-B:ASP:366:CG:8183, V-B:TYR:539:CA:9840, V-B:TYR:539:CD1:9844"]

$$$$
RR13_Rahimova_2017
     RDKit          3D

 48 54  0  0  0  0  0  0  0  0999 V2000
  130.3580  122.3940   64.6280 Cl  0  0  0  0  0  0  0  0  0  0  0  0
  131.8310  122.7390   63.7860 C   0  0  0  0  0  0  0  0  0  0  0  0
  132.4620  121.6860   63.1200 C   0  0  0  0  0  0  0  0  0  0  0  0
  133.6600  121.8940   62.4430 C   0  0  0  0  0  0  0  0  0  0  0  0
  134.2380  123.1610   62.4280 C   0  0  0  0  0  0  0  0  0  0  0  0
  133.6150  124.2170   63.0900 C   0  0  0  0  0  0  0  0  0  0  0  0
  132.4000  124.0290   63.7690 C   0  0  0  0  0  0  0  0  0  0  0  0
  131.7420  125.2110   64.5150 C   0  0  1  0  0  0  0  0  0  0  0  0
  132.5970  125.6520   65.7130 C   0  0  0  0  0  0  0  0  0  0  0  0
  133.9100  125.7110   65.7610 N   0  0  0  0  0  0  0  0  0  0  0  0
  134.2250  126.1370   67.0470 N   0  0  0  0  0  0  0  0  0  0  0  0
  133.0710  126.3160   67.7840 N   0  0  0  0  0  0  0  0  0  0  0  0
  132.0810  125.9870   66.9470 N   0  0  0  0  0  0  0  0  0  0  0  0
  130.6900  126.0910   67.3710 C   0  0  0  0  0  0  0  0  0  0  0  0
  130.3440  127.5530   67.7100 C   0  0  0  0  0  0  0  0  0  0  0  0
  129.8990  127.7180   69.1550 C   0  0  0  0  0  0  0  0  0  0  0  0
  129.0790  126.7530   69.7470 C   0  0  0  0  0  0  0  0  0  0  0  0
  128.6660  126.9090   71.0670 C   0  0  0  0  0  0  0  0  0  0  0  0
  129.0730  128.0280   71.7910 C   0  0  0  0  0  0  0  0  0  0  0  0
  129.8900  128.9930   71.2070 C   0  0  0  0  0  0  0  0  0  0  0  0
  130.3040  128.8390   69.8850 C   0  0  0  0  0  0  0  0  0  0  0  0
  131.3840  126.3440   63.6280 N   0  0  0  0  0  0  0  0  0  0  0  0
  130.4080  127.2300   64.2900 C   0  0  0  0  0  0  0  0  0  0  0  0
  130.1320  128.4830   63.4260 C   0  0  0  0  0  0  0  0  0  0  0  0
  129.5630  128.1000   62.1230 N   0  0  0  0  0  0  0  0  0  0  0  0
  129.2060  129.2750   61.2940 C   0  0  1  0  0  0  0  0  0  0  0  0
  130.3140  130.3400   61.1350 C   0  0  0  0  0  0  0  0  0  0  0  0
  131.5510  129.9070   60.6400 C   0  0  0  0  0  0  0  0  0  0  0  0
  132.6030  130.8020   60.4480 C   0  0  0  0  0  0  0  0  0  0  0  0
  132.4340  132.1490   60.7560 C   0  0  0  0  0  0  0  0  0  0  0  0
  131.2180  132.5960   61.2650 C   0  0  0  0  0  0  0  0  0  0  0  0
  130.1590  131.7070   61.4650 C   0  0  0  0  0  0  0  0  0  0  0  0
  128.7110  132.3480   62.1670 Cl  0  0  0  0  0  0  0  0  0  0  0  0
  128.6430  128.8940   59.9230 C   0  0  0  0  0  0  0  0  0  0  0  0
  128.4420  127.6690   59.4950 N   0  0  0  0  0  0  0  0  0  0  0  0
  127.9080  127.7930   58.2170 N   0  0  0  0  0  0  0  0  0  0  0  0
  127.7760  129.1260   57.8870 N   0  0  0  0  0  0  0  0  0  0  0  0
  128.2160  129.7880   58.9640 N   0  0  0  0  0  0  0  0  0  0  0  0
  128.2420  131.2470   58.9650 C   0  0  0  0  0  0  0  0  0  0  0  0
  128.4490  131.7810   57.5360 C   0  0  0  0  0  0  0  0  0  0  0  0
  129.8830  132.2240   57.2900 C   0  0  0  0  0  0  0  0  0  0  0  0
  130.9440  131.4200   57.7160 C   0  0  0  0  0  0  0  0  0  0  0  0
  132.2560  131.8220   57.4850 C   0  0  0  0  0  0  0  0  0  0  0  0
  132.5040  133.0280   56.8300 C   0  0  0  0  0  0  0  0  0  0  0  0
  131.4490  133.8330   56.4030 C   0  0  0  0  0  0  0  0  0  0  0  0
  130.1370  133.4310   56.6320 C   0  0  0  0  0  0  0  0  0  0  0  0
  130.5440  127.2190   61.4640 C   0  0  0  0  0  0  0  0  0  0  0  0
  130.8090  125.9630   62.3270 C   0  0  0  0  0  0  0  0  0  0  0  0
  1  2  1  0
  2  3  2  0
  3  4  1  0
  4  5  2  0
  5  6  1  0
  6  7  2  0
  7  8  1  0
  8  9  1  0
  9 10  2  0
 10 11  1  0
 11 12  2  0
 12 13  1  0
 13 14  1  0
 14 15  1  0
 15 16  1  0
 16 17  2  0
 17 18  1  0
 18 19  2  0
 19 20  1  0
 20 21  2  0
  8 22  1  6
 22 23  1  0
 23 24  1  0
 24 25  1  0
 26 25  1  6
 26 27  1  0
 27 28  2  0
 28 29  1  0
 29 30  2  0
 30 31  1  0
 31 32  2  0
 32 33  1  0
 26 34  1  0
 34 35  2  0
 35 36  1  0
 36 37  2  0
 37 38  1  0
 38 39  1  0
 39 40  1  0
 40 41  1  0
 41 42  2  0
 42 43  1  0
 43 44  2  0
 44 45  1  0
 45 46  2  0
 25 47  1  0
 47 48  1  0
  7  2  1  0
 13  9  1  0
 21 16  1  0
 48 22  1  0
 32 27  1  0
 38 34  1  0
 46 41  1  0
M  END
>  <Binding energies>  (69) 
[-10.83]

>  <Ligand effiencies>  (69) 
[-0.225625]

>  <Interactions>  (69) 
["H-A:GLY:454:N:4049, H-A:ARG:545:NE:4923, H-A:ARG:545:NH2:4927, V-A:LEU:475:CD2:4258, V-A:ASP:366:CG:3212, V-B:ALA:541:CB:9863, V-A:ARG:545:CZ:4925, H-A:TYR:484:OH:4347, V-A:ILE:369:CD1:3238, V-A:GLY:454:CA:4048, V-A:HIS:456:CE1:4069, V-A:TYR:484:CE2:4345, V-A:TYR:484:CZ:4346, V-A:LEU:475:CD1:4257, V-B:HIS:456:CE1:9040, V-B:GLU:543:CB:9877, V-A:PRO:540:CB:4884, V-A:GLU:543:CB:4905, V-A:PRO:540:CA:4882, V-A:GLU:543:CD:4907, V-A:GLU:543:C:4901, V-A:PRO:540:N:4883, V-A:TYR:531:CE2:4792, V-A:TYR:539:C:4866, V-A:TYR:531:CZ:4793, V-A:LEU:363:CD1:3188, V-A:PRO:540:C:4880, V-A:TYR:539:CD1:4872, V-A:TYR:539:CE1:4874, V-A:ILE:538:CB:4861, V-A:PRO:540:CD:4886, V-A:ILE:538:CA:4859, V-A:ILE:538:C:4857"]

$$$$
RR14_Rahimova_2017
     RDKit          3D

 39 43  0  0  0  0  0  0  0  0999 V2000
  130.4200  117.1900   60.2180 C   0  0  0  0  0  0  0  0  0  0  0  0
  130.1670  118.1950   61.1940 O   0  0  0  0  0  0  0  0  0  0  0  0
  130.9490  119.3340   61.2050 C   0  0  0  0  0  0  0  0  0  0  0  0
  130.3160  120.5200   61.5800 C   0  0  0  0  0  0  0  0  0  0  0  0
  131.0170  121.7220   61.5970 C   0  0  0  0  0  0  0  0  0  0  0  0
  132.3650  121.7490   61.2320 C   0  0  0  0  0  0  0  0  0  0  0  0
  133.1180  123.0730   61.1870 C   0  0  0  0  0  0  0  0  0  0  0  0
  132.9060  123.8170   59.9450 N   0  0  0  0  0  0  0  0  0  0  0  0
  133.7000  123.6090   58.8890 N   0  0  0  0  0  0  0  0  0  0  0  0
  133.2390  124.4850   57.9250 N   0  0  0  0  0  0  0  0  0  0  0  0
  132.1690  125.2220   58.4220 N   0  0  0  0  0  0  0  0  0  0  0  0
  131.9890  124.8040   59.6530 C   0  0  0  0  0  0  0  0  0  0  0  0
  130.9380  125.3380   60.6160 C   0  0  0  0  0  0  0  0  0  0  0  0
  129.5780  125.2740   60.0560 N   0  0  0  0  0  0  0  0  0  0  0  0
  128.5500  125.4480   61.0900 C   0  0  0  0  0  0  0  0  0  0  0  0
  127.1160  125.5220   60.5220 C   0  0  0  0  0  0  0  0  0  0  0  0
  126.5620  124.1590   60.0570 C   0  0  0  0  0  0  0  0  0  0  0  0
  126.8740  123.8530   58.6570 N   0  0  0  0  0  0  0  0  0  0  0  0
  125.6600  123.4380   57.9420 C   0  0  0  0  0  0  0  0  0  0  0  0
  125.9640  123.0580   56.4770 C   0  0  0  0  0  0  0  0  0  0  0  0
  126.9840  122.0660   56.4300 O   0  0  0  0  0  0  0  0  0  0  0  0
  128.1970  122.5120   57.0240 C   0  0  0  0  0  0  0  0  0  0  0  0
  127.9620  122.8740   58.5060 C   0  0  0  0  0  0  0  0  0  0  0  0
  129.4190  126.2830   58.9980 C   0  0  0  0  0  0  0  0  0  0  0  0
  130.2420  127.5590   59.1580 C   0  0  0  0  0  0  0  0  0  0  0  0
  130.0800  128.3640   60.2370 C   0  0  0  0  0  0  0  0  0  0  0  0
  130.8340  129.6240   60.3970 C   0  0  0  0  0  0  0  0  0  0  0  0
  130.7060  130.4720   61.5100 C   0  0  0  0  0  0  0  0  0  0  0  0
  129.7600  130.1450   62.6580 C   0  0  0  0  0  0  0  0  0  0  0  0
  131.4690  131.6420   61.5650 C   0  0  0  0  0  0  0  0  0  0  0  0
  132.3470  131.9680   60.5320 C   0  0  0  0  0  0  0  0  0  0  0  0
  132.4830  131.1300   59.4220 C   0  0  0  0  0  0  0  0  0  0  0  0
  133.4520  131.5140   58.3110 C   0  0  0  0  0  0  0  0  0  0  0  0
  131.7220  129.9530   59.3560 C   0  0  0  0  0  0  0  0  0  0  0  0
  131.8240  129.0780   58.2540 N   0  0  0  0  0  0  0  0  0  0  0  0
  131.1530  127.9140   58.0650 C   0  0  0  0  0  0  0  0  0  0  0  0
  131.3270  127.2530   57.0420 O   0  0  0  0  0  0  0  0  0  0  0  0
  133.0150  120.5640   60.8850 C   0  0  0  0  0  0  0  0  0  0  0  0
  132.3120  119.3620   60.8670 C   0  0  0  0  0  0  0  0  0  0  0  0
  1  2  1  0
  2  3  1  0
  3  4  2  0
  4  5  1  0
  5  6  2  0
  6  7  1  0
  7  8  1  0
  8  9  1  0
  9 10  2  0
 10 11  1  0
 11 12  2  0
 12 13  1  0
 13 14  1  0
 14 15  1  0
 15 16  1  0
 16 17  1  0
 17 18  1  0
 18 19  1  0
 19 20  1  0
 20 21  1  0
 21 22  1  0
 22 23  1  0
 14 24  1  0
 24 25  1  0
 25 26  2  0
 26 27  1  0
 27 28  2  0
 28 29  1  0
 28 30  1  0
 30 31  2  0
 31 32  1  0
 32 33  1  0
 32 34  2  0
 34 35  1  0
 35 36  1  0
 36 37  2  0
  6 38  1  0
 38 39  2  0
 39  3  1  0
 12  8  1  0
 23 18  1  0
 36 25  1  0
 34 27  1  0
M  END
>  <Binding energies>  (70) 
[-10.32]

>  <Ligand effiencies>  (70) 
[-0.258]

>  <Interactions>  (70) 
["V-A:HIS:383:CE1:3393, V-B:TYR:539:CE2:9847, V-A:LEU:475:CD2:4258, V-A:ILE:369:CG2:3236, V-B:TYR:539:CB:9842, V-A:ASP:366:CG:3212, V-B:TYR:539:CD2:9845, V-B:ALA:541:CB:9863, V-A:ILE:369:CD1:3238, V-B:PRO:540:CB:9856, V-B:PRO:540:CA:9854, V-B:TYR:539:CG:9843, V-B:TYR:539:CZ:9848, V-A:ASP:366:CB:3211, V-B:TYR:539:C:9838, V-A:PRO:540:CB:4884, V-A:PRO:540:CA:4882, V-A:GLU:543:CD:4907, V-B:MET:535:CE:9806, V-B:PRO:540:N:9855, H-B:TYR:539:N:9841, V-B:TYR:539:CE1:9846, H-B:TYR:539:OH:9849, H-A:TYR:531:OH:4794, V-A:TYR:531:CZ:4793, V-A:LEU:363:CD1:3188, V-A:PRO:482:CG:4326, V-A:LEU:363:CA:3184, V-B:TYR:539:CA:9840, V-B:TYR:539:CD1:9844, V-B:VAL:344:CG1:7971, V-B:TYR:531:CE2:9764"]

$$$$
RR15_Rahimova_2017
     RDKit          3D

 45 49  0  0  0  0  0  0  0  0999 V2000
  131.9180  127.6230   75.8210 C   0  0  0  0  0  0  0  0  0  0  0  0
  130.7620  128.3080   75.3490 O   0  0  0  0  0  0  0  0  0  0  0  0
  130.4230  128.2310   74.0090 C   0  0  0  0  0  0  0  0  0  0  0  0
  130.7040  129.2430   73.0780 C   0  0  0  0  0  0  0  0  0  0  0  0
  130.3340  129.1040   71.7420 C   0  0  0  0  0  0  0  0  0  0  0  0
  129.6720  127.9540   71.2990 C   0  0  0  0  0  0  0  0  0  0  0  0
  129.2660  127.8070   69.8590 C   0  0  0  0  0  0  0  0  0  0  0  0
  128.0400  127.4670   69.4870 N   0  0  0  0  0  0  0  0  0  0  0  0
  128.0560  127.4250   68.1080 N   0  0  0  0  0  0  0  0  0  0  0  0
  129.3010  127.7900   67.7980 N   0  0  0  0  0  0  0  0  0  0  0  0
  129.8090  127.7250   66.4290 C   0  0  0  0  0  0  0  0  0  0  0  0
  130.6120  126.4440   66.0940 C   0  0  0  0  0  0  0  0  0  0  0  0
  130.4170  125.4380   66.7810 O   0  0  0  0  0  0  0  0  0  0  0  0
  131.4850  126.4470   65.0400 N   0  0  0  0  0  0  0  0  0  0  0  0
  132.9300  126.2160   65.2390 C   0  0  0  0  0  0  0  0  0  0  0  0
  133.5860  125.3990   64.1050 C   0  0  0  0  0  0  0  0  0  0  0  0
  133.2470  123.8900   64.1130 C   0  0  0  0  0  0  0  0  0  0  0  0
  133.4980  123.2220   62.8320 N   0  0  0  0  0  0  0  0  0  0  0  0
  132.7480  121.9680   62.6660 C   0  0  0  0  0  0  0  0  0  0  0  0
  132.9810  121.3510   61.2700 C   0  0  0  0  0  0  0  0  0  0  0  0
  132.6740  122.3010   60.2550 O   0  0  0  0  0  0  0  0  0  0  0  0
  133.4730  123.4750   60.3520 C   0  0  0  0  0  0  0  0  0  0  0  0
  133.2500  124.1520   61.7220 C   0  0  0  0  0  0  0  0  0  0  0  0
  131.0480  126.4860   63.6110 C   0  0  2  0  0  0  0  0  0  0  0  0
  130.3500  127.8180   63.1940 C   0  0  0  0  0  0  0  0  0  0  0  0
  129.3090  128.1870   63.7360 O   0  0  0  0  0  0  0  0  0  0  0  0
  130.9840  128.5350   62.2490 N   0  0  0  0  0  0  0  0  0  0  0  0
  130.5780  129.8540   61.7770 C   0  0  0  0  0  0  0  0  0  0  0  0
  131.7890  130.7970   61.6490 C   0  0  2  0  0  0  0  0  0  0  0  0
  131.6880  131.8540   60.5350 C   0  0  0  0  0  0  0  0  0  0  0  0
  132.5350  131.3040   59.4140 C   0  0  0  0  0  0  0  0  0  0  0  0
  133.6230  130.5800   60.1870 C   0  0  0  0  0  0  0  0  0  0  0  0
  132.8940  129.9750   61.2490 O   0  0  0  0  0  0  0  0  0  0  0  0
  130.3580  125.1820   63.2230 C   0  0  0  0  0  0  0  0  0  0  0  0
  129.9990  124.9990   61.8830 C   0  0  0  0  0  0  0  0  0  0  0  0
  129.3660  123.8290   61.4720 C   0  0  0  0  0  0  0  0  0  0  0  0
  129.0900  122.8300   62.4010 C   0  0  0  0  0  0  0  0  0  0  0  0
  128.4770  121.6940   62.0020 F   0  0  0  0  0  0  0  0  0  0  0  0
  129.4420  122.9940   63.7380 C   0  0  0  0  0  0  0  0  0  0  0  0
  130.0730  124.1650   64.1480 C   0  0  0  0  0  0  0  0  0  0  0  0
  130.0980  127.9980   68.8520 N   0  0  0  0  0  0  0  0  0  0  0  0
  129.3950  126.9450   72.2310 C   0  0  0  0  0  0  0  0  0  0  0  0
  129.7650  127.0690   73.5810 C   0  0  0  0  0  0  0  0  0  0  0  0
  129.5170  126.1000   74.5370 O   0  0  0  0  0  0  0  0  0  0  0  0
  130.0870  124.8040   74.3890 C   0  0  0  0  0  0  0  0  0  0  0  0
  1  2  1  0
  2  3  1  0
  3  4  2  0
  4  5  1  0
  5  6  2  0
  6  7  1  0
  7  8  1  0
  8  9  2  0
  9 10  1  0
 10 11  1  0
 11 12  1  0
 12 13  2  0
 12 14  1  0
 14 15  1  0
 15 16  1  0
 16 17  1  0
 17 18  1  0
 18 19  1  0
 19 20  1  0
 20 21  1  0
 21 22  1  0
 22 23  1  0
 24 14  1  1
 24 25  1  0
 25 26  2  0
 25 27  1  0
 27 28  1  0
 29 28  1  6
 29 30  1  0
 30 31  1  0
 31 32  1  0
 32 33  1  0
 24 34  1  0
 34 35  2  0
 35 36  1  0
 36 37  2  0
 37 38  1  0
 37 39  1  0
 39 40  2  0
 10 41  1  0
  6 42  1  0
 42 43  2  0
 43 44  1  0
 44 45  1  0
 43  3  1  0
 41  7  2  0
 23 18  1  0
 33 29  1  0
 40 34  1  0
M  END
>  <Binding energies>  (71) 
[-8.3]

>  <Ligand effiencies>  (71) 
[-0.18043478260869567]

>  <Interactions>  (71) 
["H-A:GLY:454:N:4049, H-A:ARG:545:NH2:4927, V-B:TYR:539:CE2:9847, V-A:LEU:475:CD2:4258, V-A:ILE:369:CG2:3236, V-A:ASP:366:CG:3212, V-B:ALA:541:CB:9863, V-A:ARG:545:CZ:4925, H-A:TYR:484:OH:4347, V-A:ILE:369:CD1:3238, V-B:PRO:540:CA:9854, V-A:GLY:454:CA:4048, V-A:HIS:456:CE1:4069, V-B:PRO:540:C:9852, V-B:ALA:541:CA:9861, H-A:ASP:366:OD2:3214, V-A:ASP:366:CB:3211, V-A:ILE:369:CB:3235, V-B:HIS:456:CE1:9040, V-A:PRO:540:CB:4884, V-A:PRO:540:CA:4882, V-A:GLU:543:CD:4907, H-A:GLU:543:OE2:4909, V-A:GLU:543:C:4901, H-A:LYS:547:NZ:4950, H-B:LYS:547:NZ:9922, V-A:GLY:544:CA:4913, V-A:GLY:544:C:4911, V-A:LEU:363:CA:3184, V-A:ASN:362:C:3171"]

$$$$
RR17_Rahimova_2017
     RDKit          3D

 38 41  0  0  0  0  0  0  0  0999 V2000
  126.9020  122.4730   56.7470 C   0  0  0  0  0  0  0  0  0  0  0  0
  126.4820  123.3680   57.9170 C   0  0  0  0  0  0  0  0  0  0  0  0
  127.0380  122.8410   59.1190 O   0  0  0  0  0  0  0  0  0  0  0  0
  128.3610  123.1010   59.4250 C   0  0  0  0  0  0  0  0  0  0  0  0
  129.0010  122.1810   60.2540 C   0  0  0  0  0  0  0  0  0  0  0  0
  130.3310  122.3600   60.6180 C   0  0  0  0  0  0  0  0  0  0  0  0
  131.0540  123.4700   60.1580 C   0  0  0  0  0  0  0  0  0  0  0  0
  132.4890  123.6360   60.5660 C   0  0  0  0  0  0  0  0  0  0  0  0
  133.0710  124.7230   60.5100 O   0  0  0  0  0  0  0  0  0  0  0  0
  133.2310  122.3700   61.0510 C   0  0  0  0  0  0  0  0  0  0  0  0
  132.7380  121.8900   62.7460 S   0  0  0  0  0  0  0  0  0  0  0  0
  132.8260  123.4670   63.5470 C   0  0  0  0  0  0  0  0  0  0  0  0
  133.9320  124.0860   63.8870 N   0  0  0  0  0  0  0  0  0  0  0  0
  133.5800  125.2920   64.4800 N   0  0  0  0  0  0  0  0  0  0  0  0
  132.2730  125.3590   64.4720 C   0  0  0  0  0  0  0  0  0  0  0  0
  131.4640  126.5260   65.0180 C   0  0  0  0  0  0  0  0  0  0  0  0
  131.7770  126.8650   66.4040 N   0  0  0  0  0  0  0  0  0  0  0  0
  130.8260  126.8720   67.4400 C   0  0  0  0  0  0  0  0  0  0  0  0
  130.2400  125.6540   67.7820 C   0  0  0  0  0  0  0  0  0  0  0  0
  129.2870  125.5910   68.7950 C   0  0  0  0  0  0  0  0  0  0  0  0
  128.9120  126.7490   69.4820 C   0  0  0  0  0  0  0  0  0  0  0  0
  127.8590  126.6640   70.5870 C   0  0  0  0  0  0  0  0  0  0  0  0
  128.0280  127.6050   71.5190 F   0  0  0  0  0  0  0  0  0  0  0  0
  126.6350  126.8060   70.0760 F   0  0  0  0  0  0  0  0  0  0  0  0
  127.9410  125.4720   71.1770 F   0  0  0  0  0  0  0  0  0  0  0  0
  129.5050  127.9710   69.1450 C   0  0  0  0  0  0  0  0  0  0  0  0
  130.4580  128.0330   68.1340 C   0  0  0  0  0  0  0  0  0  0  0  0
  131.7290  124.2250   63.9030 N   0  0  0  0  0  0  0  0  0  0  0  0
  130.3720  123.9290   63.7040 C   0  0  0  0  0  0  0  0  0  0  0  0
  129.8170  122.8060   64.3180 C   0  0  0  0  0  0  0  0  0  0  0  0
  128.4720  122.5100   64.1170 C   0  0  0  0  0  0  0  0  0  0  0  0
  127.6790  123.3360   63.3030 C   0  0  0  0  0  0  0  0  0  0  0  0
  126.3380  123.1200   63.0480 O   0  0  0  0  0  0  0  0  0  0  0  0
  125.6560  123.9820   62.1430 C   0  0  0  0  0  0  0  0  0  0  0  0
  128.2530  124.4540   62.6950 C   0  0  0  0  0  0  0  0  0  0  0  0
  129.5970  124.7570   62.8920 C   0  0  0  0  0  0  0  0  0  0  0  0
  130.4100  124.3940   59.3230 C   0  0  0  0  0  0  0  0  0  0  0  0
  129.0780  124.2130   58.9590 C   0  0  0  0  0  0  0  0  0  0  0  0
  1  2  1  0
  2  3  1  0
  3  4  1  0
  4  5  2  0
  5  6  1  0
  6  7  2  0
  7  8  1  0
  8  9  2  0
  8 10  1  0
 10 11  1  0
 11 12  1  0
 12 13  2  0
 13 14  1  0
 14 15  2  0
 15 16  1  0
 16 17  1  0
 17 18  1  0
 18 19  2  0
 19 20  1  0
 20 21  2  0
 21 22  1  0
 22 23  1  0
 22 24  1  0
 22 25  1  0
 21 26  1  0
 26 27  2  0
 15 28  1  0
 28 29  1  0
 29 30  2  0
 30 31  1  0
 31 32  2  0
 32 33  1  0
 33 34  1  0
 32 35  1  0
 35 36  2  0
  7 37  1  0
 37 38  2  0
 38  4  1  0
 28 12  1  0
 36 29  1  0
 27 18  1  0
M  END
>  <Binding energies>  (72) 
[-7.77]

>  <Ligand effiencies>  (72) 
[-0.1992307692307692]

>  <Interactions>  (72) 
["H-A:GLY:454:N:4049, H-A:ARG:545:NH2:4927, V-B:TYR:539:CE2:9847, V-A:ILE:369:CG2:3236, V-B:TYR:539:CD2:9845, V-B:ALA:541:CB:9863, V-A:ILE:369:CD1:3238, V-B:PRO:540:CB:9856, V-B:GLU:543:CD:9879, V-B:PRO:540:CA:9854, H-B:ALA:541:N:9862, V-B:GLU:543:CG:9878, V-A:GLY:454:CA:4048, V-A:HIS:456:CE1:4069, V-B:ALA:541:CA:9861, V-B:TYR:539:CZ:9848, V-A:TYR:484:CE2:4345, V-A:TYR:484:CZ:4346, V-B:TYR:539:C:9838, V-B:HIS:456:CE1:9040, V-B:GLU:543:CB:9877, V-B:GLY:544:C:9883, V-A:GLU:543:CB:4905, V-B:GLU:543:C:9873, V-B:ALA:541:C:9859, V-A:GLU:543:CD:4907, V-B:MET:535:CE:9806, V-B:PRO:540:N:9855, V-A:GLU:543:CG:4906, V-B:GLU:543:CA:9875, H-A:GLU:543:OE1:4908, V-B:PRO:540:CD:9858"]

$$$$
RR19_Rahimova_2017
     RDKit          3D

 46 51  0  0  0  0  0  0  0  0999 V2000
  131.3590  128.3490   68.3960 O   0  0  0  0  0  0  0  0  0  0  0  0
  130.4010  127.6810   67.9960 C   0  0  0  0  0  0  0  0  0  0  0  0
  130.4310  126.7690   66.9910 N   0  0  0  0  0  0  0  0  0  0  0  0
  131.4560  126.1660   66.3050 C   0  0  0  0  0  0  0  0  0  0  0  0
  133.0950  126.2350   66.7200 S   0  0  0  0  0  0  0  0  0  0  0  0
  130.9290  125.4960   65.2280 N   0  0  0  0  0  0  0  0  0  0  0  0
  131.4620  124.6370   64.3230 C   0  0  0  0  0  0  0  0  0  0  0  0
  132.5730  124.1050   64.3850 O   0  0  0  0  0  0  0  0  0  0  0  0
  130.5440  124.3570   63.1060 C   0  0  2  0  0  0  0  0  0  0  0  0
  129.0210  124.4870   63.3940 C   0  0  0  0  0  0  0  0  0  0  0  0
  128.1100  124.1780   62.2170 C   0  0  0  0  0  0  0  0  0  0  0  0
  126.7550  123.8380   62.4190 C   0  0  0  0  0  0  0  0  0  0  0  0
  125.9190  123.6370   61.3290 C   0  0  0  0  0  0  0  0  0  0  0  0
  126.4060  123.7860   60.0360 C   0  0  0  0  0  0  0  0  0  0  0  0
  127.7300  124.1490   59.8220 C   0  0  0  0  0  0  0  0  0  0  0  0
  128.5810  124.3580   60.8980 C   0  0  0  0  0  0  0  0  0  0  0  0
  130.8710  123.0500   62.4730 N   0  0  0  0  0  0  0  0  0  0  0  0
  132.0040  122.8840   61.7320 C   0  0  0  0  0  0  0  0  0  0  0  0
  132.8540  123.7360   61.4670 O   0  0  0  0  0  0  0  0  0  0  0  0
  132.0000  121.4600   61.3150 C   0  0  0  0  0  0  0  0  0  0  0  0
  132.9050  120.7320   60.5420 C   0  0  0  0  0  0  0  0  0  0  0  0
  132.6480  119.3760   60.3110 C   0  0  0  0  0  0  0  0  0  0  0  0
  131.5050  118.7710   60.8510 C   0  0  0  0  0  0  0  0  0  0  0  0
  130.6110  119.5190   61.6250 C   0  0  0  0  0  0  0  0  0  0  0  0
  130.8840  120.8700   61.8420 C   0  0  0  0  0  0  0  0  0  0  0  0
  130.1440  121.9010   62.6120 C   0  0  0  0  0  0  0  0  0  0  0  0
  129.1000  121.7460   63.2470 O   0  0  0  0  0  0  0  0  0  0  0  0
  129.0080  127.8690   68.6530 C   0  0  2  0  0  0  0  0  0  0  0  0
  128.2240  129.1060   68.1250 C   0  0  0  0  0  0  0  0  0  0  0  0
  127.4810  128.8550   66.8260 C   0  0  0  0  0  0  0  0  0  0  0  0
  126.0760  128.9880   66.7760 C   0  0  0  0  0  0  0  0  0  0  0  0
  125.4090  128.8590   65.5640 C   0  0  0  0  0  0  0  0  0  0  0  0
  126.1210  128.6250   64.3950 C   0  0  0  0  0  0  0  0  0  0  0  0
  127.5070  128.5310   64.4220 C   0  0  0  0  0  0  0  0  0  0  0  0
  128.1920  128.6570   65.6230 C   0  0  0  0  0  0  0  0  0  0  0  0
  129.0490  127.8440   70.1430 N   0  0  0  0  0  0  0  0  0  0  0  0
  129.8350  128.7010   70.8530 C   0  0  0  0  0  0  0  0  0  0  0  0
  130.5970  129.5600   70.4060 O   0  0  0  0  0  0  0  0  0  0  0  0
  129.5780  128.3800   72.2790 C   0  0  0  0  0  0  0  0  0  0  0  0
  130.1050  128.9290   73.4490 C   0  0  0  0  0  0  0  0  0  0  0  0
  129.6720  128.4240   74.6810 C   0  0  0  0  0  0  0  0  0  0  0  0
  128.7260  127.3910   74.7270 C   0  0  0  0  0  0  0  0  0  0  0  0
  128.2070  126.8560   73.5420 C   0  0  0  0  0  0  0  0  0  0  0  0
  128.6550  127.3720   72.3240 C   0  0  0  0  0  0  0  0  0  0  0  0
  128.2950  127.0200   70.9300 C   0  0  0  0  0  0  0  0  0  0  0  0
  127.4890  126.1660   70.5600 O   0  0  0  0  0  0  0  0  0  0  0  0
  1  2  2  0
  2  3  1  0
  3  4  1  0
  4  5  2  0
  4  6  1  0
  6  7  1  0
  7  8  2  0
  7  9  1  0
  9 10  1  1
 10 11  1  0
 11 12  2  0
 12 13  1  0
 13 14  2  0
 14 15  1  0
 15 16  2  0
  9 17  1  0
 17 18  1  0
 18 19  2  0
 18 20  1  0
 20 21  2  0
 21 22  1  0
 22 23  2  0
 23 24  1  0
 24 25  2  0
 25 26  1  0
 26 27  2  0
  2 28  1  0
 28 29  1  1
 29 30  1  0
 30 31  2  0
 31 32  1  0
 32 33  2  0
 33 34  1  0
 34 35  2  0
 28 36  1  0
 36 37  1  0
 37 38  2  0
 37 39  1  0
 39 40  2  0
 40 41  1  0
 41 42  2  0
 42 43  1  0
 43 44  2  0
 44 45  1  0
 45 46  2  0
 16 11  1  0
 26 17  1  0
 35 30  1  0
 45 36  1  0
 25 20  1  0
 44 39  1  0
M  END
>  <Binding energies>  (73) 
[-11.05]

>  <Ligand effiencies>  (73) 
[-0.23020833333333335]

>  <Interactions>  (73) 
["H-A:GLY:454:N:4049, V-B:TYR:539:CE2:9847, V-A:ARG:545:CD:4922, V-A:LEU:475:CD2:4258, V-A:ILE:369:CG2:3236, V-B:TYR:539:CD2:9845, V-A:ARG:545:CG:4921, V-B:ALA:541:CB:9863, V-A:ARG:545:CZ:4925, H-A:TYR:484:OH:4347, V-B:PRO:540:CB:9856, V-B:GLU:543:CD:9879, V-B:PRO:540:CA:9854, H-B:ALA:541:N:9862, V-A:HIS:456:CE1:4069, H-B:GLU:543:OE2:9881, V-B:HIS:456:CE1:9040, V-A:GLU:543:CB:4905, V-A:GLU:543:CD:4907, V-B:LYS:547:CE:9921, V-B:ARG:545:CZ:9897, H-A:GLY:544:N:4914"]

$$$$
RR1_Rahimova_2017
     RDKit          3D

 41 44  0  0  0  0  0  0  0  0999 V2000
  132.2200  117.4990   58.8390 C   0  0  0  0  0  0  0  0  0  0  0  0
  131.4230  118.0530   59.8790 O   0  0  0  0  0  0  0  0  0  0  0  0
  131.8870  119.1550   60.5710 C   0  0  0  0  0  0  0  0  0  0  0  0
  131.0700  120.0330   61.3010 C   0  0  0  0  0  0  0  0  0  0  0  0
  131.6280  121.1240   61.9620 C   0  0  0  0  0  0  0  0  0  0  0  0
  133.0030  121.3530   61.9110 C   0  0  0  0  0  0  0  0  0  0  0  0
  133.4650  122.5070   62.5730 N   0  0  0  0  0  0  0  0  0  0  0  0
  133.8570  123.6910   62.0550 C   0  0  0  0  0  0  0  0  0  0  0  0
  133.9410  123.9370   60.8510 O   0  0  0  0  0  0  0  0  0  0  0  0
  134.2140  124.7600   63.1000 C   0  0  0  0  0  0  0  0  0  0  0  0
  133.2330  124.7080   64.6400 S   0  0  0  0  0  0  0  0  0  0  0  0
  131.6390  124.9030   63.9170 C   0  0  0  0  0  0  0  0  0  0  0  0
  131.1430  124.1070   63.0030 N   0  0  0  0  0  0  0  0  0  0  0  0
  129.9370  124.6120   62.7610 C   0  0  0  0  0  0  0  0  0  0  0  0
  128.9920  123.9960   61.7700 C   0  0  0  0  0  0  0  0  0  0  0  0
  129.2880  123.9580   60.3980 C   0  0  0  0  0  0  0  0  0  0  0  0
  128.3880  123.3810   59.5000 C   0  0  0  0  0  0  0  0  0  0  0  0
  127.2000  122.8500   59.9990 C   0  0  0  0  0  0  0  0  0  0  0  0
  126.8820  122.8690   61.3180 N   0  0  0  0  0  0  0  0  0  0  0  0
  127.7710  123.4340   62.1750 C   0  0  0  0  0  0  0  0  0  0  0  0
  129.6260  125.6900   63.4560 N   0  0  0  0  0  0  0  0  0  0  0  0
  130.7200  125.8800   64.2000 N   0  0  0  0  0  0  0  0  0  0  0  0
  130.7860  126.9860   65.1550 C   0  0  0  0  0  0  0  0  0  0  0  0
  130.8990  126.5650   66.6310 C   0  0  0  0  0  0  0  0  0  0  0  0
  131.9760  126.1820   67.0990 O   0  0  0  0  0  0  0  0  0  0  0  0
  129.7530  126.6470   67.3340 N   0  0  0  0  0  0  0  0  0  0  0  0
  129.8080  126.4250   68.7030 N   0  0  0  0  0  0  0  0  0  0  0  0
  128.9310  127.0900   69.4860 C   0  0  0  0  0  0  0  0  0  0  0  0
  128.0190  127.8020   69.0530 O   0  0  0  0  0  0  0  0  0  0  0  0
  129.1050  126.8950   70.9780 C   0  0  0  0  0  0  0  0  0  0  0  0
  129.6150  127.9350   71.7630 C   0  0  0  0  0  0  0  0  0  0  0  0
  129.7940  127.7740   73.1330 C   0  0  0  0  0  0  0  0  0  0  0  0
  129.4750  126.5590   73.7610 C   0  0  0  0  0  0  0  0  0  0  0  0
  129.6420  126.3290   75.1150 O   0  0  0  0  0  0  0  0  0  0  0  0
  130.9290  125.9830   75.6140 C   0  0  0  0  0  0  0  0  0  0  0  0
  128.9700  125.5030   72.9910 C   0  0  0  0  0  0  0  0  0  0  0  0
  128.6900  124.3200   73.6550 O   0  0  0  0  0  0  0  0  0  0  0  0
  129.5700  123.2100   73.5160 C   0  0  0  0  0  0  0  0  0  0  0  0
  128.7870  125.6810   71.6080 C   0  0  0  0  0  0  0  0  0  0  0  0
  133.8230  120.4780   61.1820 C   0  0  0  0  0  0  0  0  0  0  0  0
  133.2620  119.3880   60.5240 C   0  0  0  0  0  0  0  0  0  0  0  0
  1  2  1  0
  2  3  1  0
  3  4  2  0
  4  5  1  0
  5  6  2  0
  6  7  1  0
  7  8  1  0
  8  9  2  0
  8 10  1  0
 10 11  1  0
 11 12  1  0
 12 13  2  0
 13 14  1  0
 14 15  1  0
 15 16  2  0
 16 17  1  0
 17 18  2  0
 18 19  1  0
 19 20  2  0
 14 21  2  0
 21 22  1  0
 22 23  1  0
 23 24  1  0
 24 25  2  0
 24 26  1  0
 26 27  1  0
 27 28  1  0
 28 29  2  0
 28 30  1  0
 30 31  2  0
 31 32  1  0
 32 33  2  0
 33 34  1  0
 34 35  1  0
 33 36  1  0
 36 37  1  0
 37 38  1  0
 36 39  2  0
  6 40  1  0
 40 41  2  0
 41  3  1  0
 22 12  1  0
 39 30  1  0
 20 15  1  0
M  END
>  <Binding energies>  (74) 
[-7.71]

>  <Ligand effiencies>  (74) 
[-0.17522727272727273]

>  <Interactions>  (74) 
["H-A:GLY:454:N:4049, V-A:GLY:453:C:4041, V-A:HIS:383:CE1:3393, V-A:GLY:453:CA:4043, V-B:TYR:539:CE2:9847, V-A:LEU:475:CD2:4258, V-A:ILE:369:CG2:3236, V-B:TYR:539:CB:9842, V-A:ASP:366:CG:3212, V-A:LEU:373:CD2:3280, V-B:TYR:539:CD2:9845, H-A:TYR:484:OH:4347, V-A:ILE:369:CD1:3238, V-B:PRO:540:CB:9856, V-B:GLU:543:CD:9879, V-B:PRO:540:CA:9854, V-A:SER:385:CB:3408, V-A:SER:385:CA:3406, H-B:ALA:541:N:9862, V-A:GLY:454:CA:4048, V-B:TYR:539:CG:9843, V-A:HIS:456:CE1:4069, V-B:PRO:540:C:9852, H-B:GLU:543:OE2:9881, V-B:TYR:539:C:9838, V-B:HIS:456:CE1:9040, V-B:GLU:543:C:9873, V-A:GLU:543:CD:4907, V-B:PRO:540:N:9855, V-A:HIS:456:CD2:4067, V-A:SER:385:C:3404, H-B:LYS:547:NZ:9922, V-A:LEU:373:CG:3278, V-A:LEU:373:CD1:3279, H-A:HIS:456:NE2:4070, H-A:SER:385:O:3405"]

$$$$
RR22_Rahimova_2017
     RDKit          3D

 31 36  0  0  0  0  0  0  0  0999 V2000
  125.9690  123.2400   62.5880 O   0  0  0  0  0  0  0  0  0  0  0  0
  127.0920  123.6240   62.2680 C   0  0  0  0  0  0  0  0  0  0  0  0
  128.1980  123.7720   63.0870 N   0  0  0  0  0  0  0  0  0  0  0  0
  129.4590  124.1740   62.5410 C   0  0  1  0  0  0  0  0  0  0  0  0
  129.8340  125.3380   63.2840 O   0  0  0  0  0  0  0  0  0  0  0  0
  131.0300  125.3090   64.0020 C   0  0  0  0  0  0  0  0  0  0  0  0
  131.1870  126.2830   64.9880 C   0  0  0  0  0  0  0  0  0  0  0  0
  132.3730  126.3430   65.7200 C   0  0  0  0  0  0  0  0  0  0  0  0
  133.4010  125.4370   65.4600 C   0  0  0  0  0  0  0  0  0  0  0  0
  133.2440  124.4620   64.4730 C   0  0  0  0  0  0  0  0  0  0  0  0
  132.0520  124.3740   63.7480 C   0  0  0  0  0  0  0  0  0  0  0  0
  131.8000  123.3860   62.6310 C   0  0  1  0  0  0  0  0  0  0  0  0
  132.4120  122.0000   62.6170 C   0  0  0  0  0  0  0  0  0  0  0  0
  131.3240  121.2420   61.8510 C   0  0  0  0  0  0  0  0  0  0  0  0
  131.5640  119.9330   61.2100 C   0  0  0  0  0  0  0  0  0  0  0  0
  130.6330  118.8920   61.3450 C   0  0  0  0  0  0  0  0  0  0  0  0
  130.8630  117.6610   60.7380 C   0  0  0  0  0  0  0  0  0  0  0  0
  132.0230  117.4620   59.9940 C   0  0  0  0  0  0  0  0  0  0  0  0
  132.9570  118.4850   59.8510 C   0  0  0  0  0  0  0  0  0  0  0  0
  132.7270  119.7180   60.4560 C   0  0  0  0  0  0  0  0  0  0  0  0
  130.2140  121.8790   61.8720 N   0  0  0  0  0  0  0  0  0  0  0  0
  130.4070  123.0530   62.6200 N   0  0  0  0  0  0  0  0  0  0  0  0
  129.1920  124.6230   61.1130 C   0  0  0  0  0  0  0  0  0  0  0  0
  130.0610  125.3790   60.4020 C   0  0  0  0  0  0  0  0  0  0  0  0
  129.9380  125.8640   59.0140 C   0  0  0  0  0  0  0  0  0  0  0  0
  128.7330  125.8430   58.2980 C   0  0  0  0  0  0  0  0  0  0  0  0
  128.6920  126.3180   56.9870 C   0  0  0  0  0  0  0  0  0  0  0  0
  129.8700  126.8000   56.4170 C   0  0  0  0  0  0  0  0  0  0  0  0
  131.0520  126.8250   57.0820 N   0  0  0  0  0  0  0  0  0  0  0  0
  131.0710  126.3590   58.3570 C   0  0  0  0  0  0  0  0  0  0  0  0
  127.5830  124.1070   60.5850 S   0  0  0  0  0  0  0  0  0  0  0  0
  1  2  2  0
  2  3  1  0
  4  3  1  1
  4  5  1  0
  5  6  1  0
  6  7  2  0
  7  8  1  0
  8  9  2  0
  9 10  1  0
 10 11  2  0
 11 12  1  0
 12 13  1  1
 13 14  1  0
 14 15  1  0
 15 16  2  0
 16 17  1  0
 17 18  2  0
 18 19  1  0
 19 20  2  0
 14 21  2  0
 21 22  1  0
  4 23  1  0
 23 24  2  0
 24 25  1  0
 25 26  2  0
 26 27  1  0
 27 28  2  0
 28 29  1  0
 29 30  2  0
 23 31  1  0
 31  2  1  0
 22  4  1  0
 30 25  1  0
 11  6  1  0
 22 12  1  0
 20 15  1  0
M  END
>  <Binding energies>  (75) 
[-9.06]

>  <Ligand effiencies>  (75) 
[-0.283125]

>  <Interactions>  (75) 
["V-A:HIS:383:CE1:3393, V-B:TYR:539:CE2:9847, V-A:LEU:475:CD2:4258, V-A:ILE:369:CG2:3236, V-B:TYR:539:CB:9842, V-B:TYR:539:CD2:9845, V-B:ALA:541:CB:9863, V-A:ARG:545:CZ:4925, V-B:GLU:543:CD:9879, V-A:SER:385:CA:3406, H-B:ALA:541:N:9862, V-A:GLY:454:CA:4048, H-B:GLU:543:OE2:9881, H-B:GLU:543:OE1:9880, H-B:ALA:541:O:9860, V-B:MET:535:CE:9806, H-A:TYR:531:OH:4794"]

$$$$
RR24_Rahimova_2017
     RDKit          3D

 43 49  0  0  0  0  0  0  0  0999 V2000
  127.6210  127.6120   74.4060 C   0  0  0  0  0  0  0  0  0  0  0  0
  128.6730  127.3250   73.3260 C   0  0  2  0  0  0  0  0  0  0  0  0
  128.2030  126.2790   72.2720 C   0  0  0  0  0  0  0  0  0  0  0  0
  128.5960  125.1080   72.2890 O   0  0  0  0  0  0  0  0  0  0  0  0
  127.3530  126.8150   71.3470 O   0  0  0  0  0  0  0  0  0  0  0  0
  127.8450  127.2210   70.1270 C   0  0  0  0  0  0  0  0  0  0  0  0
  129.2260  127.2830   69.9330 C   0  0  0  0  0  0  0  0  0  0  0  0
  129.7350  127.6830   68.7010 C   0  0  0  0  0  0  0  0  0  0  0  0
  128.8670  128.0140   67.6560 C   0  0  0  0  0  0  0  0  0  0  0  0
  129.4340  128.4730   66.3070 C   0  0  1  0  0  0  0  0  0  0  0  0
  130.2280  127.3490   65.6020 C   0  0  0  0  0  0  0  0  0  0  0  0
  130.0030  126.9880   64.3250 C   0  0  0  0  0  0  0  0  0  0  0  0
  129.0450  127.5950   63.5510 N   0  0  0  0  0  0  0  0  0  0  0  0
  128.2610  128.6090   64.0490 C   0  0  0  0  0  0  0  0  0  0  0  0
  127.3690  129.1070   63.1550 N   0  0  0  0  0  0  0  0  0  0  0  0
  126.4560  130.0590   63.4910 C   0  0  0  0  0  0  0  0  0  0  0  0
  125.4820  130.2450   62.7590 O   0  0  0  0  0  0  0  0  0  0  0  0
  126.6540  130.6150   64.7450 N   0  0  0  0  0  0  0  0  0  0  0  0
  125.7470  131.7180   65.1230 C   0  0  0  0  0  0  0  0  0  0  0  0
  127.5280  130.1860   65.7310 C   0  0  0  0  0  0  0  0  0  0  0  0
  127.6150  130.7000   66.8500 O   0  0  0  0  0  0  0  0  0  0  0  0
  128.3800  129.0640   65.3240 C   0  0  0  0  0  0  0  0  0  0  0  0
  130.8930  125.9100   63.9280 C   0  0  0  0  0  0  0  0  0  0  0  0
  131.0510  125.1960   62.7390 C   0  0  0  0  0  0  0  0  0  0  0  0
  132.0190  124.1910   62.6710 C   0  0  0  0  0  0  0  0  0  0  0  0
  132.8190  123.9070   63.7820 C   0  0  0  0  0  0  0  0  0  0  0  0
  132.6550  124.6250   64.9700 C   0  0  0  0  0  0  0  0  0  0  0  0
  131.6860  125.6270   65.0320 C   0  0  0  0  0  0  0  0  0  0  0  0
  131.3080  126.5280   66.1410 C   0  0  0  0  0  0  0  0  0  0  0  0
  131.7660  126.6090   67.2800 O   0  0  0  0  0  0  0  0  0  0  0  0
  127.4840  127.9330   67.8490 C   0  0  0  0  0  0  0  0  0  0  0  0
  126.9740  127.5310   69.0800 C   0  0  0  0  0  0  0  0  0  0  0  0
  130.0020  126.9810   73.9140 N   0  0  0  0  0  0  0  0  0  0  0  0
  131.0350  127.8690   73.9100 C   0  0  0  0  0  0  0  0  0  0  0  0
  131.0380  129.0110   73.4460 O   0  0  0  0  0  0  0  0  0  0  0  0
  132.1580  127.1710   74.5830 C   0  0  0  0  0  0  0  0  0  0  0  0
  133.4600  127.5910   74.8600 C   0  0  0  0  0  0  0  0  0  0  0  0
  134.3210  126.7080   75.5220 C   0  0  0  0  0  0  0  0  0  0  0  0
  133.8760  125.4340   75.8950 C   0  0  0  0  0  0  0  0  0  0  0  0
  132.5670  125.0320   75.6090 C   0  0  0  0  0  0  0  0  0  0  0  0
  131.7240  125.9250   74.9470 C   0  0  0  0  0  0  0  0  0  0  0  0
  130.3100  125.7920   74.5160 C   0  0  0  0  0  0  0  0  0  0  0  0
  129.5720  124.8190   74.6740 O   0  0  0  0  0  0  0  0  0  0  0  0
  2  1  1  1
  2  3  1  0
  3  4  2  0
  3  5  1  0
  5  6  1  0
  6  7  2  0
  7  8  1  0
  8  9  2  0
 10  9  1  1
 10 11  1  0
 11 12  2  0
 12 13  1  0
 13 14  1  0
 14 15  1  0
 15 16  1  0
 16 17  2  0
 16 18  1  0
 18 19  1  0
 18 20  1  0
 20 21  2  0
 20 22  1  0
 12 23  1  0
 23 24  2  0
 24 25  1  0
 25 26  2  0
 26 27  1  0
 27 28  2  0
 28 29  1  0
 29 30  2  0
  9 31  1  0
 31 32  2  0
  2 33  1  0
 33 34  1  0
 34 35  2  0
 34 36  1  0
 36 37  2  0
 37 38  1  0
 38 39  2  0
 39 40  1  0
 40 41  2  0
 41 42  1  0
 42 43  2  0
 32  6  1  0
 42 33  1  0
 22 10  1  0
 28 23  1  0
 41 36  1  0
 29 11  1  0
 22 14  2  0
M  END
>  <Binding energies>  (76) 
[-9.05]

>  <Ligand effiencies>  (76) 
[-0.20111111111111113]

>  <Interactions>  (76) 
["H-A:TYR:484:OH:4347, V-B:GLU:543:CD:9879, V-A:GLY:454:CA:4048, V-A:HIS:456:CE1:4069, V-B:HIS:456:CE1:9040, V-B:GLU:543:CB:9877, V-A:GLU:543:CB:4905, V-A:GLU:543:CD:4907, V-A:GLU:543:CG:4906, V-A:HIS:456:CB:4064, V-A:HIS:456:CG:4065, H-A:LYS:547:NZ:4950, H-B:LYS:547:NZ:9922, V-B:LEU:475:CD1:9228, V-B:GLY:454:CA:9019, V-B:LYS:547:CE:9921, V-B:HIS:456:CD2:9038, H-B:TYR:484:OH:9318, V-A:HIS:456:C:4060"]

$$$$
RR25_Rahimova_2017
     RDKit          3D

 39 44  0  0  0  0  0  0  0  0999 V2000
  131.0710  125.6500   66.5480 O   0  0  0  0  0  0  0  0  0  0  0  0
  131.0660  125.8000   65.3260 C   0  0  0  0  0  0  0  0  0  0  0  0
  132.0460  125.1390   64.6290 O   0  0  0  0  0  0  0  0  0  0  0  0
  132.0010  125.0230   63.2520 C   0  0  0  0  0  0  0  0  0  0  0  0
  132.6620  123.9310   62.6910 C   0  0  0  0  0  0  0  0  0  0  0  0
  132.6640  123.7580   61.3090 C   0  0  0  0  0  0  0  0  0  0  0  0
  132.0110  124.6720   60.4690 C   0  0  0  0  0  0  0  0  0  0  0  0
  132.0070  124.4800   58.9980 N   0  0  0  0  0  0  0  0  0  0  0  0
  133.0730  124.2500   58.4320 O   0  0  0  0  0  0  0  0  0  0  0  0
  130.9390  124.5590   58.3980 O   0  0  0  0  0  0  0  0  0  0  0  0
  131.3610  125.7720   61.0520 C   0  0  0  0  0  0  0  0  0  0  0  0
  131.3570  125.9650   62.4370 C   0  0  0  0  0  0  0  0  0  0  0  0
  130.6600  127.1300   63.1150 C   0  0  0  0  0  0  0  0  0  0  0  0
  130.0860  126.6710   64.4860 C   0  0  2  0  0  0  0  0  0  0  0  0
  129.4500  127.8650   65.2550 C   0  0  0  0  0  0  0  0  0  0  0  0
  129.7910  127.9930   66.4350 O   0  0  0  0  0  0  0  0  0  0  0  0
  128.6620  128.7930   64.6350 N   0  0  0  0  0  0  0  0  0  0  0  0
  127.9810  128.5350   63.3490 C   0  0  0  0  0  0  0  0  0  0  0  0
  127.9840  129.8300   62.5100 C   0  0  0  0  0  0  0  0  0  0  0  0
  127.3940  130.9490   63.2500 N   0  0  0  0  0  0  0  0  0  0  0  0
  127.2750  132.1470   62.4090 C   0  0  0  0  0  0  0  0  0  0  0  0
  128.5570  133.0220   62.4210 C   0  0  0  0  0  0  0  0  0  0  0  0
  129.4940  132.8290   61.2760 N   0  0  0  0  0  0  0  0  0  0  0  0
  130.7640  132.4160   61.6180 C   0  0  0  0  0  0  0  0  0  0  0  0
  131.1300  132.2480   62.7880 O   0  0  0  0  0  0  0  0  0  0  0  0
  131.6840  132.1600   60.4400 C   0  0  0  0  0  0  0  0  0  0  0  0
  132.9910  131.7120   60.6720 C   0  0  0  0  0  0  0  0  0  0  0  0
  133.8600  131.4600   59.6120 C   0  0  0  0  0  0  0  0  0  0  0  0
  133.4530  131.6430   58.2920 C   0  0  0  0  0  0  0  0  0  0  0  0
  132.1420  132.0950   58.0090 C   0  0  0  0  0  0  0  0  0  0  0  0
  131.6630  132.3000   56.6930 C   0  0  0  0  0  0  0  0  0  0  0  0
  130.3580  132.7440   56.4850 C   0  0  0  0  0  0  0  0  0  0  0  0
  129.5060  132.9930   57.5590 C   0  0  0  0  0  0  0  0  0  0  0  0
  129.9370  132.8030   58.8790 C   0  0  0  0  0  0  0  0  0  0  0  0
  131.2630  132.3510   59.0990 C   0  0  0  0  0  0  0  0  0  0  0  0
  128.9770  133.0770   60.0210 C   0  0  0  0  0  0  0  0  0  0  0  0
  127.8240  133.4730   59.8270 O   0  0  0  0  0  0  0  0  0  0  0  0
  128.1770  131.2120   64.4590 C   0  0  0  0  0  0  0  0  0  0  0  0
  128.2130  129.9820   65.3970 C   0  0  0  0  0  0  0  0  0  0  0  0
  1  2  2  0
  2  3  1  0
  3  4  1  0
  4  5  2  0
  5  6  1  0
  6  7  2  0
  7  8  1  0
  8  9  2  0
  8 10  1  0
  7 11  1  0
 11 12  2  0
 12 13  1  0
 13 14  1  0
 14 15  1  1
 15 16  2  0
 15 17  1  0
 17 18  1  0
 18 19  1  0
 19 20  1  0
 20 21  1  0
 21 22  1  0
 22 23  1  0
 23 24  1  0
 24 25  2  0
 24 26  1  0
 26 27  2  0
 27 28  1  0
 28 29  2  0
 29 30  1  0
 30 31  2  0
 31 32  1  0
 32 33  2  0
 33 34  1  0
 34 35  2  0
 34 36  1  0
 36 37  2  0
 20 38  1  0
 38 39  1  0
 14  2  1  0
 39 17  1  0
 12  4  1  0
 36 23  1  0
 35 26  1  0
 35 30  1  0
M  CHG  2   8   1  10  -1
M  END
>  <Binding energies>  (77) 
[-9.66]

>  <Ligand effiencies>  (77) 
[-0.24769230769230768]

>  <Interactions>  (77) 
["V-B:TYR:539:CE2:9847, V-A:ASP:366:CG:3212, H-A:TYR:484:OH:4347, V-B:GLU:543:CD:9879, V-B:TYR:539:CZ:9848, V-A:PRO:540:CB:4884, V-A:PRO:540:CA:4882, V-A:GLU:543:CD:4907, H-B:TYR:539:OH:9849, V-A:GLU:543:CG:4906, V-A:PRO:540:N:4883, V-A:TYR:531:CE2:4792, V-A:TYR:539:C:4866, V-A:TYR:531:CZ:4793, V-A:LEU:363:CD1:3188, V-A:LEU:363:CA:3184, V-A:ASN:362:C:3171, V-A:PRO:540:C:4880, V-A:TYR:539:CD1:4872, V-A:TYR:539:CE1:4874, V-A:ALA:541:CB:4891, H-A:ALA:541:N:4890"]

$$$$
RR27_Rahimova_2017
     RDKit          3D

 39 44  0  0  0  0  0  0  0  0999 V2000
  132.7240  122.1980   61.6940 O   0  0  0  0  0  0  0  0  0  0  0  0
  131.8290  122.1130   62.5410 C   0  0  0  0  0  0  0  0  0  0  0  0
  130.6060  121.1990   62.2340 C   0  0  0  0  0  0  0  0  0  0  0  0
  130.9940  119.8880   61.5250 C   0  0  0  0  0  0  0  0  0  0  0  0
  132.1730  119.7740   60.7710 C   0  0  0  0  0  0  0  0  0  0  0  0
  132.4940  118.5730   60.1460 C   0  0  0  0  0  0  0  0  0  0  0  0
  131.6400  117.4810   60.2710 C   0  0  0  0  0  0  0  0  0  0  0  0
  130.4670  117.5790   61.0130 C   0  0  0  0  0  0  0  0  0  0  0  0
  130.1450  118.7800   61.6380 C   0  0  0  0  0  0  0  0  0  0  0  0
  129.4610  121.9830   61.5660 C   0  0  0  0  0  0  0  0  0  0  0  0
  128.3970  122.5120   62.3100 C   0  0  0  0  0  0  0  0  0  0  0  0
  127.3710  123.2060   61.6730 C   0  0  0  0  0  0  0  0  0  0  0  0
  127.4020  123.3680   60.2900 C   0  0  0  0  0  0  0  0  0  0  0  0
  128.4470  122.8390   59.5370 C   0  0  0  0  0  0  0  0  0  0  0  0
  129.4700  122.1450   60.1740 C   0  0  0  0  0  0  0  0  0  0  0  0
  131.9590  122.6720   63.7770 N   0  0  0  0  0  0  0  0  0  0  0  0
  130.8420  122.8210   64.7220 C   0  0  0  0  0  0  0  0  0  0  0  0
  130.1550  124.1660   64.3940 C   0  0  0  0  0  0  0  0  0  0  0  0
  131.1470  125.3720   64.4190 C   0  0  0  0  0  0  0  0  0  0  0  0
  130.5370  126.7190   63.9890 C   0  0  0  0  0  0  0  0  0  0  0  0
  131.0820  127.3080   62.8850 N   0  0  0  0  0  0  0  0  0  0  0  0
  130.5610  128.4870   62.4470 C   0  0  0  0  0  0  0  0  0  0  0  0
  131.0180  129.1700   61.3500 O   0  0  0  0  0  0  0  0  0  0  0  0
  129.4820  129.0530   63.1530 C   0  0  0  0  0  0  0  0  0  0  0  0
  128.7410  130.1860   62.9890 N   0  0  0  0  0  0  0  0  0  0  0  0
  127.8090  130.2190   64.0100 N   0  0  0  0  0  0  0  0  0  0  0  0
  127.9690  129.1230   64.7810 N   0  0  0  0  0  0  0  0  0  0  0  0
  127.1260  128.9130   65.9550 C   0  0  0  0  0  0  0  0  0  0  0  0
  127.9010  128.5020   67.2000 C   0  0  0  0  0  0  0  0  0  0  0  0
  129.2510  128.8410   67.3320 C   0  0  0  0  0  0  0  0  0  0  0  0
  129.9580  128.4740   68.4780 C   0  0  0  0  0  0  0  0  0  0  0  0
  129.3180  127.7720   69.4990 C   0  0  0  0  0  0  0  0  0  0  0  0
  127.9680  127.4390   69.3780 C   0  0  0  0  0  0  0  0  0  0  0  0
  127.1660  126.5940   70.6520 Cl  0  0  0  0  0  0  0  0  0  0  0  0
  127.2630  127.7990   68.2290 C   0  0  0  0  0  0  0  0  0  0  0  0
  129.0120  128.3570   64.2880 C   0  0  0  0  0  0  0  0  0  0  0  0
  129.5090  127.2040   64.7430 N   0  0  0  0  0  0  0  0  0  0  0  0
  132.4860  125.0390   63.6910 C   0  0  0  0  0  0  0  0  0  0  0  0
  133.0390  123.6350   64.0430 C   0  0  0  0  0  0  0  0  0  0  0  0
  1  2  2  0
  2  3  1  0
  3  4  1  0
  4  5  2  0
  5  6  1  0
  6  7  2  0
  7  8  1  0
  8  9  2  0
  3 10  1  0
 10 11  2  0
 11 12  1  0
 12 13  2  0
 13 14  1  0
 14 15  2  0
  2 16  1  0
 16 17  1  0
 17 18  1  0
 18 19  1  0
 19 20  1  0
 20 21  2  0
 21 22  1  0
 22 23  1  0
 22 24  2  0
 24 25  1  0
 25 26  2  0
 26 27  1  0
 27 28  1  0
 28 29  1  0
 29 30  2  0
 30 31  1  0
 31 32  2  0
 32 33  1  0
 33 34  1  0
 33 35  2  0
 27 36  1  0
 36 37  2  0
 19 38  1  0
 38 39  1  0
  9  4  1  0
 15 10  1  0
 39 16  1  0
 37 20  1  0
 36 24  1  0
 35 29  1  0
M  END
>  <Binding energies>  (78) 
[-10.1]

>  <Ligand effiencies>  (78) 
[-0.2525]

>  <Interactions>  (78) 
["V-A:HIS:383:CE1:3393, H-A:ARG:545:NH2:4927, V-B:TYR:539:CE2:9847, V-A:LEU:475:CD2:4258, V-B:TYR:539:CB:9842, V-B:TYR:539:CD2:9845, V-B:ALA:541:CB:9863, V-B:GLU:543:CD:9879, V-B:PRO:540:CA:9854, V-A:GLY:454:CA:4048, V-A:HIS:456:CE1:4069, V-B:PRO:540:C:9852, V-B:ALA:541:CA:9861, H-A:ASP:366:OD2:3214, V-A:TYR:484:CZ:4346, V-B:TYR:539:C:9838, V-B:HIS:456:CE1:9040, V-B:GLU:543:CB:9877, V-B:GLY:544:C:9883, V-A:GLU:543:CB:4905, V-B:GLU:543:C:9873, V-A:GLU:543:CD:4907, V-A:GLU:543:CG:4906, V-A:PRO:482:CB:4325, V-A:PRO:482:CG:4326"]

$$$$
RR28_Rahimova_2017
     RDKit          3D

 46 49  0  0  0  0  0  0  0  0999 V2000
  134.9350  125.4450   67.2680 C   0  0  0  0  0  0  0  0  0  0  0  0
  133.6280  125.9640   66.6780 C   0  0  0  0  0  0  0  0  0  0  0  0
  133.2130  127.0740   67.0060 O   0  0  0  0  0  0  0  0  0  0  0  0
  132.9970  125.1460   65.8120 N   0  0  0  0  0  0  0  0  0  0  0  0
  131.7220  125.3780   65.0970 C   0  0  0  0  0  0  0  0  0  0  0  0
  130.7960  126.2250   66.0160 C   0  0  0  0  0  0  0  0  0  0  0  0
  130.6070  125.8350   67.3510 C   0  0  0  0  0  0  0  0  0  0  0  0
  129.7830  126.5660   68.2000 C   0  0  0  0  0  0  0  0  0  0  0  0
  129.1270  127.7060   67.7340 C   0  0  0  0  0  0  0  0  0  0  0  0
  128.2220  128.4950   68.6800 C   0  0  0  0  0  0  0  0  0  0  0  0
  128.3460  128.0970   69.9490 F   0  0  0  0  0  0  0  0  0  0  0  0
  128.5150  129.7940   68.6260 F   0  0  0  0  0  0  0  0  0  0  0  0
  126.9510  128.3260   68.3140 F   0  0  0  0  0  0  0  0  0  0  0  0
  129.3050  128.1050   66.4070 C   0  0  0  0  0  0  0  0  0  0  0  0
  130.1300  127.3720   65.5580 C   0  0  0  0  0  0  0  0  0  0  0  0
  131.0870  124.0130   64.6470 C   0  0  0  0  0  0  0  0  0  0  0  0
  131.9320  123.2640   63.5850 C   0  0  0  0  0  0  0  0  0  0  0  0
  132.0560  124.1740   62.4350 N   0  0  0  0  0  0  0  0  0  0  0  0
  131.1760  124.0970   61.4000 C   0  0  0  0  0  0  0  0  0  0  0  0
  130.3610  123.1770   61.3000 O   0  0  0  0  0  0  0  0  0  0  0  0
  131.3080  125.1020   60.2290 C   0  0  0  0  0  0  0  0  0  0  0  0
  130.1550  125.0870   59.1890 C   0  0  0  0  0  0  0  0  0  0  0  0
  129.6250  126.4810   58.7770 C   0  0  0  0  0  0  0  0  0  0  0  0
  129.6410  126.7750   57.5780 O   0  0  0  0  0  0  0  0  0  0  0  0
  129.0360  127.2830   59.7090 N   0  0  0  0  0  0  0  0  0  0  0  0
  129.2620  127.1430   61.1520 C   0  0  0  0  0  0  0  0  0  0  0  0
  130.5410  127.9440   61.4780 C   0  0  0  0  0  0  0  0  0  0  0  0
  130.4960  129.4540   61.0570 C   0  0  0  0  0  0  0  0  0  0  0  0
  131.8710  129.9960   61.0440 N   0  0  0  0  0  0  0  0  0  0  0  0
  132.2900  131.1910   60.5830 C   0  0  0  0  0  0  0  0  0  0  0  0
  133.7860  131.4690   60.6870 C   0  0  0  0  0  0  0  0  0  0  0  0
  131.5450  132.0420   60.0970 O   0  0  0  0  0  0  0  0  0  0  0  0
  129.6960  130.2230   62.1580 C   0  0  0  0  0  0  0  0  0  0  0  0
  129.5750  131.6230   62.1730 C   0  0  0  0  0  0  0  0  0  0  0  0
  128.8530  132.2700   63.1720 C   0  0  0  0  0  0  0  0  0  0  0  0
  128.2340  131.5330   64.1840 C   0  0  0  0  0  0  0  0  0  0  0  0
  127.4330  132.2280   65.2860 C   0  0  0  0  0  0  0  0  0  0  0  0
  127.8790  131.8660   66.4900 F   0  0  0  0  0  0  0  0  0  0  0  0
  127.5710  133.5470   65.1590 F   0  0  0  0  0  0  0  0  0  0  0  0
  126.1330  131.9340   65.2240 F   0  0  0  0  0  0  0  0  0  0  0  0
  128.3510  130.1420   64.1880 C   0  0  0  0  0  0  0  0  0  0  0  0
  129.0740  129.4990   63.1880 C   0  0  0  0  0  0  0  0  0  0  0  0
  129.8460  129.5680   59.6230 C   0  0  0  0  0  0  0  0  0  0  0  0
  128.6260  128.6470   59.3530 C   0  0  0  0  0  0  0  0  0  0  0  0
  132.8230  125.3910   62.7340 C   0  0  0  0  0  0  0  0  0  0  0  0
  132.0160  126.1880   63.7920 C   0  0  0  0  0  0  0  0  0  0  0  0
  1  2  1  0
  2  3  2  0
  2  4  1  0
  4  5  1  0
  5  6  1  0
  6  7  2  0
  7  8  1  0
  8  9  2  0
  9 10  1  0
 10 11  1  0
 10 12  1  0
 10 13  1  0
  9 14  1  0
 14 15  2  0
  5 16  1  0
 16 17  1  0
 17 18  1  0
 18 19  1  0
 19 20  2  0
 19 21  1  0
 21 22  1  0
 22 23  1  0
 23 24  2  0
 23 25  1  0
 25 26  1  0
 26 27  1  0
 27 28  1  0
 28 29  1  0
 29 30  1  0
 30 31  1  0
 30 32  2  0
 28 33  1  0
 33 34  2  0
 34 35  1  0
 35 36  2  0
 36 37  1  0
 37 38  1  0
 37 39  1  0
 37 40  1  0
 36 41  1  0
 41 42  2  0
 28 43  1  0
 43 44  1  0
 18 45  1  0
 45 46  1  0
 46  5  1  0
 15  6  1  0
 44 25  1  0
 42 33  1  0
M  END
>  <Binding energies>  (79) 
[-6.67]

>  <Ligand effiencies>  (79) 
[-0.13895833333333332]

>  <Interactions>  (79) 
["H-A:ARG:545:NE:4923, V-A:GLY:453:C:4041, V-A:GLY:453:CA:4043, V-B:TYR:539:CE2:9847, V-A:ARG:545:CD:4922, V-A:ASP:366:CG:3212, V-A:ARG:545:CG:4921, V-A:ARG:545:CZ:4925, H-A:TYR:484:OH:4347, V-B:GLU:543:CD:9879, V-A:GLY:454:CA:4048, V-A:HIS:456:CE1:4069, H-A:ASP:366:OD2:3214, V-A:TYR:484:CE2:4345, V-A:TYR:484:CZ:4346, V-B:HIS:456:CE1:9040, V-A:PRO:540:CB:4884, V-A:GLU:543:CB:4905, V-A:GLU:543:CD:4907, H-A:GLU:543:OE2:4909, V-A:GLU:543:CG:4906, V-B:TYR:484:CE2:9316, V-A:ILE:455:C:4051, V-B:LEU:475:CD1:9228, V-A:ASN:362:CB:3175, V-A:LEU:363:CA:3184, V-A:ASN:362:C:3171, V-A:ALA:541:CB:4891, V-B:TYR:484:CZ:9317, V-A:GLY:454:C:4046, V-A:ASN:362:CA:3173, V-B:LEU:475:CD2:9229, V-B:LEU:475:CG:9227"]

$$$$
RR29_Rahimova_2017
     RDKit          3D

 18 19  0  0  0  0  0  0  0  0999 V2000
  129.8500  122.1440   65.2570 C   0  0  0  0  0  0  0  0  0  0  0  0
  130.3440  123.2540   64.3410 C   0  0  0  0  0  0  0  0  0  0  0  0
  130.5080  122.7970   62.8740 C   0  0  0  0  0  0  0  0  0  0  0  0
  131.9850  122.5250   62.5220 C   0  0  0  0  0  0  0  0  0  0  0  0
  132.1700  121.2050   61.7890 C   0  0  0  0  0  0  0  0  0  0  0  0
  133.4190  120.8860   61.2190 C   0  0  0  0  0  0  0  0  0  0  0  0
  133.6110  119.6740   60.5410 C   0  0  0  0  0  0  0  0  0  0  0  0
  132.5250  118.8130   60.4430 C   0  0  0  0  0  0  0  0  0  0  0  0
  131.3110  119.1180   60.9920 C   0  0  0  0  0  0  0  0  0  0  0  0
  131.0940  120.3070   61.6800 C   0  0  0  0  0  0  0  0  0  0  0  0
  130.4490  118.0890   60.7770 O   0  0  0  0  0  0  0  0  0  0  0  0
  131.1050  117.2240   59.8890 C   0  0  0  0  0  0  0  0  0  0  0  0
  132.4610  117.5830   59.8680 O   0  0  0  0  0  0  0  0  0  0  0  0
  130.5780  124.4080   64.8460 N   0  0  0  0  0  0  0  0  0  0  0  0
  131.1060  125.3900   64.0360 N   0  0  0  0  0  0  0  0  0  0  0  0
  130.7720  126.6890   64.1150 C   0  0  0  0  0  0  0  0  0  0  0  0
  129.9070  127.2020   64.9900 N   0  0  0  0  0  0  0  0  0  0  0  0
  131.3440  127.5250   63.2600 N   0  0  0  0  0  0  0  0  0  0  0  0
  1  2  1  0
  2  3  1  0
  3  4  1  0
  4  5  1  0
  5  6  2  0
  6  7  1  0
  7  8  2  0
  8  9  1  0
  9 10  2  0
  9 11  1  0
 11 12  1  0
 12 13  1  0
  2 14  2  0
 14 15  1  0
 15 16  1  0
 16 17  1  0
 16 18  2  0
 10  5  1  0
 13  8  1  0
M  CHG  1  18   1
M  END
>  <Binding energies>  (80) 
[-6.97]

>  <Ligand effiencies>  (80) 
[-0.3030434782608696]

>  <Interactions>  (80) 
["V-A:HIS:383:CE1:3393, H-A:HIS:383:ND1:3390, V-A:LEU:475:CD2:4258, V-A:ILE:369:CG2:3236, V-B:TYR:539:CB:9842, V-B:TYR:539:CD2:9845, V-B:ALA:541:CB:9863, V-A:ARG:545:CZ:4925, H-A:TYR:484:OH:4347, V-B:GLU:543:CD:9879, V-A:SER:385:CB:3408, V-A:SER:385:CA:3406, H-A:ASP:366:OD2:3214, V-A:TYR:484:CE2:4345, V-A:TYR:484:CZ:4346, V-A:LEU:475:CD1:4257, H-B:GLU:543:OE2:9881, H-B:GLU:543:OE1:9880, V-A:GLU:543:CD:4907, H-A:GLU:543:OE2:4909, H-A:GLU:543:OE1:4908"]

$$$$
RR30_Rahimova_2017
     RDKit          3D

 18 19  0  0  0  0  0  0  0  0999 V2000
  128.7020  125.8480   72.4870 C   0  0  0  0  0  0  0  0  0  0  0  0
  127.2610  126.2050   72.0930 C   0  0  0  0  0  0  0  0  0  0  0  0
  127.1670  126.7260   70.6760 C   0  0  0  0  0  0  0  0  0  0  0  0
  126.0970  126.8650   69.9330 N   0  0  0  0  0  0  0  0  0  0  0  0
  126.5420  127.3720   68.7140 N   0  0  0  0  0  0  0  0  0  0  0  0
  127.8410  127.4870   68.8220 C   0  0  0  0  0  0  0  0  0  0  0  0
  128.9720  128.0890   67.6100 S   0  0  0  0  0  0  0  0  0  0  0  0
  130.4600  127.1500   68.0780 C   0  0  0  0  0  0  0  0  0  0  0  0
  130.9100  126.1910   66.9720 C   0  0  0  0  0  0  0  0  0  0  0  0
  130.3380  125.1060   66.8470 O   0  0  0  0  0  0  0  0  0  0  0  0
  131.9530  126.6050   66.2180 N   0  0  0  0  0  0  0  0  0  0  0  0
  132.5360  125.9130   65.1670 C   0  0  0  0  0  0  0  0  0  0  0  0
  133.7320  125.3730   65.1130 N   0  0  0  0  0  0  0  0  0  0  0  0
  133.9790  124.7570   63.8930 N   0  0  0  0  0  0  0  0  0  0  0  0
  132.9720  124.8410   63.0540 C   0  0  0  0  0  0  0  0  0  0  0  0
  133.0010  124.2510   61.6630 C   0  0  0  0  0  0  0  0  0  0  0  0
  131.6090  125.7030   63.7150 S   0  0  0  0  0  0  0  0  0  0  0  0
  128.3050  127.1010   70.0390 O   0  0  0  0  0  0  0  0  0  0  0  0
  1  2  1  0
  2  3  1  0
  3  4  2  0
  4  5  1  0
  5  6  2  0
  6  7  1  0
  7  8  1  0
  8  9  1  0
  9 10  2  0
  9 11  1  0
 11 12  1  0
 12 13  2  0
 13 14  1  0
 14 15  2  0
 15 16  1  0
 15 17  1  0
  6 18  1  0
 18  3  1  0
 17 12  1  0
M  END
>  <Binding energies>  (81) 
[-6.39]

>  <Ligand effiencies>  (81) 
[-0.3363157894736842]

>  <Interactions>  (81) 
["H-A:GLY:454:N:4049, H-A:ARG:545:NH2:4927, V-A:ASP:366:CG:3212, V-A:ARG:545:CZ:4925, H-A:TYR:484:OH:4347, V-B:GLU:543:CD:9879, V-A:HIS:456:CE1:4069, V-B:HIS:456:CE1:9040, V-B:GLU:543:CB:9877, V-B:GLY:544:C:9883, V-B:GLU:543:C:9873, V-A:GLU:543:CD:4907, H-A:GLU:543:OE2:4909, H-A:GLU:543:OE1:4908, V-B:GLY:544:CA:9885, H-B:ARG:545:N:9891"]

$$$$
RR31_Rahimova_2017
     RDKit          3D

 18 19  0  0  0  0  0  0  0  0999 V2000
  132.3970  117.6140   59.3330 C   0  0  0  0  0  0  0  0  0  0  0  0
  132.4780  118.8510   60.2180 C   0  0  0  0  0  0  0  0  0  0  0  0
  133.5850  119.6930   60.1120 C   0  0  0  0  0  0  0  0  0  0  0  0
  133.6870  120.8340   60.9050 C   0  0  0  0  0  0  0  0  0  0  0  0
  132.6790  121.1730   61.8230 C   0  0  0  0  0  0  0  0  0  0  0  0
  132.7710  122.3070   62.6320 N   0  0  0  0  0  0  0  0  0  0  0  0
  132.1310  122.3750   63.9600 C   0  0  0  0  0  0  0  0  0  0  0  0
  131.9860  123.8100   64.5180 C   0  0  0  0  0  0  0  0  0  0  0  0
  133.2850  124.4870   64.5650 N   0  0  0  0  0  0  0  0  0  0  0  0
  133.1860  125.8390   65.1240 C   0  0  0  0  0  0  0  0  0  0  0  0
  131.7480  126.2180   65.5310 C   0  0  0  0  0  0  0  0  0  0  0  0
  130.9950  126.9430   64.4040 C   0  0  0  0  0  0  0  0  0  0  0  0
  129.5030  127.0330   64.7440 N   0  0  0  0  0  0  0  0  0  0  0  0
  133.7920  124.5560   63.1950 C   0  0  0  0  0  0  0  0  0  0  0  0
  133.9910  123.1390   62.6110 C   0  0  0  0  0  0  0  0  0  0  0  0
  131.5750  120.3130   61.9250 C   0  0  0  0  0  0  0  0  0  0  0  0
  131.4620  119.1630   61.1350 C   0  0  0  0  0  0  0  0  0  0  0  0
  130.2390  118.2680   61.2970 C   0  0  0  0  0  0  0  0  0  0  0  0
  1  2  1  0
  2  3  2  0
  3  4  1  0
  4  5  2  0
  5  6  1  0
  6  7  1  0
  7  8  1  0
  8  9  1  0
  9 10  1  0
 10 11  1  0
 11 12  1  0
 12 13  1  0
  9 14  1  0
 14 15  1  0
  5 16  1  0
 16 17  2  0
 17 18  1  0
 17  2  1  0
 15  6  1  0
M  CHG  1  13   1
M  END
>  <Binding energies>  (82) 
[-7.78]

>  <Ligand effiencies>  (82) 
[-0.3704761904761905]

>  <Interactions>  (82) 
["H-A:GLY:454:N:4049, V-A:HIS:383:CE1:3393, V-B:TYR:539:CE2:9847, V-A:LEU:475:CD2:4258, V-A:ILE:369:CG2:3236, V-B:TYR:539:CB:9842, V-A:ASP:366:CG:3212, V-A:LEU:373:CD2:3280, V-B:TYR:539:CD2:9845, V-B:ALA:541:CB:9863, V-A:ARG:545:CZ:4925, H-A:TYR:484:OH:4347, V-A:ILE:369:CD1:3238, V-B:GLU:543:CD:9879, V-A:SER:385:CA:3406, V-A:GLY:454:CA:4048, H-B:GLU:543:OE2:9881, V-B:TYR:539:C:9838, H-B:GLU:543:OE1:9880, V-A:GLU:543:CD:4907, V-A:PRO:482:CB:4325, V-A:PRO:482:CG:4326, H-A:GLU:543:OE1:4908, V-A:LEU:373:CD1:3279"]

$$$$
RR32_Rahimova_2017
     RDKit          3D

 18 20  0  0  0  0  0  0  0  0999 V2000
  133.9480  121.6910   61.3330 C   0  0  0  0  0  0  0  0  0  0  0  0
  132.5290  121.1300   61.3540 C   0  0  0  0  0  0  0  0  0  0  0  0
  131.4690  122.0220   61.5160 C   0  0  0  0  0  0  0  0  0  0  0  0
  130.1610  121.5470   61.5360 C   0  0  0  0  0  0  0  0  0  0  0  0
  129.1120  122.4350   61.6980 N   0  0  0  0  0  0  0  0  0  0  0  0
  128.0670  122.4430   60.6590 C   0  0  0  0  0  0  0  0  0  0  0  0
  127.0410  123.5870   60.8330 C   0  0  0  0  0  0  0  0  0  0  0  0
  126.3960  123.4930   62.1420 N   0  0  0  0  0  0  0  0  0  0  0  0
  125.4060  124.5540   62.2940 C   0  0  0  0  0  0  0  0  0  0  0  0
  127.4320  123.6180   63.1650 C   0  0  0  0  0  0  0  0  0  0  0  0
  128.4660  122.4760   63.0240 C   0  0  0  0  0  0  0  0  0  0  0  0
  129.8590  120.2290   61.4050 N   0  0  0  0  0  0  0  0  0  0  0  0
  130.8720  119.3340   61.2480 C   0  0  0  0  0  0  0  0  0  0  0  0
  130.5280  117.9660   61.1160 C   0  0  0  0  0  0  0  0  0  0  0  0
  131.5200  117.0070   60.9520 C   0  0  0  0  0  0  0  0  0  0  0  0
  132.8590  117.3780   60.9160 C   0  0  0  0  0  0  0  0  0  0  0  0
  133.2310  118.7130   61.0430 C   0  0  0  0  0  0  0  0  0  0  0  0
  132.2480  119.7310   61.2130 C   0  0  0  0  0  0  0  0  0  0  0  0
  1  2  1  0
  2  3  2  0
  3  4  1  0
  4  5  1  0
  5  6  1  0
  6  7  1  0
  7  8  1  0
  8  9  1  0
  8 10  1  0
 10 11  1  0
  4 12  2  0
 12 13  1  0
 13 14  2  0
 14 15  1  0
 15 16  2  0
 16 17  1  0
 17 18  2  0
 18  2  1  0
 11  5  1  0
 18 13  1  0
M  END
>  <Binding energies>  (83) 
[-6.22]

>  <Ligand effiencies>  (83) 
[-0.34555555555555556]

>  <Interactions>  (83) 
["V-A:HIS:383:CE1:3393, V-B:TYR:539:CE2:9847, V-A:LEU:475:CD2:4258, V-A:ILE:369:CG2:3236, V-B:TYR:539:CD2:9845, V-B:ALA:541:CB:9863, V-A:ILE:369:CD1:3238, V-B:GLU:543:CD:9879, V-B:PRO:540:CA:9854, V-A:SER:385:CB:3408, V-A:SER:385:CA:3406, H-B:ALA:541:N:9862, V-B:GLU:543:CG:9878, V-A:VAL:384:C:3396, V-B:PRO:540:C:9852, V-B:ALA:541:CA:9861, V-B:TYR:539:C:9838, V-B:PRO:540:N:9855, V-A:PRO:482:CB:4325, V-A:PRO:482:CG:4326, V-A:THR:477:CG2:4272"]

$$$$
RR5_Rahimova_2017
     RDKit          3D

 45 50  0  0  0  0  0  0  0  0999 V2000
  129.8920  123.1650   64.3680 O   0  0  0  0  0  0  0  0  0  0  0  0
  130.3200  124.2360   63.9400 C   0  0  0  0  0  0  0  0  0  0  0  0
  130.7560  125.3340   64.9290 C   0  0  0  0  0  0  0  0  0  0  0  0
  131.8400  126.3150   64.3570 C   0  0  2  0  0  0  0  0  0  0  0  0
  131.3550  127.2370   63.3090 N   0  0  0  0  0  0  0  0  0  0  0  0
  130.2160  128.0100   63.4900 C   0  0  0  0  0  0  0  0  0  0  0  0
  129.5200  128.0680   64.5070 O   0  0  0  0  0  0  0  0  0  0  0  0
  129.9790  128.6880   62.3540 O   0  0  0  0  0  0  0  0  0  0  0  0
  131.0080  128.9110   61.3940 C   0  0  0  0  0  0  0  0  0  0  0  0
  131.5030  130.3730   61.4510 C   0  0  0  0  0  0  0  0  0  0  0  0
  132.1100  130.8620   60.1480 C   0  0  0  0  0  0  0  0  0  0  0  0
  133.1890  130.3490   59.4220 C   0  0  0  0  0  0  0  0  0  0  0  0
  133.5680  130.9510   58.2210 C   0  0  0  0  0  0  0  0  0  0  0  0
  132.8730  132.0640   57.7450 C   0  0  0  0  0  0  0  0  0  0  0  0
  131.7970  132.5810   58.4700 C   0  0  0  0  0  0  0  0  0  0  0  0
  131.4210  131.9770   59.6710 C   0  0  0  0  0  0  0  0  0  0  0  0
  130.3520  132.3080   60.6270 C   0  0  0  0  0  0  0  0  0  0  0  0
  129.4000  133.3290   60.6240 C   0  0  0  0  0  0  0  0  0  0  0  0
  128.4970  133.4350   61.6840 C   0  0  0  0  0  0  0  0  0  0  0  0
  128.5460  132.5210   62.7390 C   0  0  0  0  0  0  0  0  0  0  0  0
  129.4960  131.5000   62.7360 C   0  0  0  0  0  0  0  0  0  0  0  0
  130.4000  131.3890   61.6760 C   0  0  0  0  0  0  0  0  0  0  0  0
  133.0700  125.5320   63.8340 C   0  0  0  0  0  0  0  0  0  0  0  0
  133.9630  125.0990   64.5340 O   0  0  0  0  0  0  0  0  0  0  0  0
  132.9810  125.3900   62.4790 O   0  0  0  0  0  0  0  0  0  0  0  0
  130.4760  124.5360   62.6310 N   0  0  0  0  0  0  0  0  0  0  0  0
  130.1970  123.7930   61.3660 C   0  0  0  0  0  0  0  0  0  0  0  0
  130.8500  124.7240   60.2890 C   0  0  0  0  0  0  0  0  0  0  0  0
  132.0190  124.3480   59.6070 C   0  0  0  0  0  0  0  0  0  0  0  0
  132.5900  125.1820   58.6500 C   0  0  0  0  0  0  0  0  0  0  0  0
  132.0080  126.4130   58.3670 C   0  0  0  0  0  0  0  0  0  0  0  0
  130.8500  126.8110   59.0260 C   0  0  0  0  0  0  0  0  0  0  0  0
  130.2740  125.9710   59.9740 C   0  0  0  0  0  0  0  0  0  0  0  0
  130.9100  122.4040   61.4730 C   0  0  0  0  0  0  0  0  0  0  0  0
  130.2440  121.2060   61.1690 C   0  0  0  0  0  0  0  0  0  0  0  0
  130.8920  119.9800   61.2900 C   0  0  0  0  0  0  0  0  0  0  0  0
  132.2150  119.9350   61.7190 C   0  0  0  0  0  0  0  0  0  0  0  0
  132.8980  121.1080   62.0230 C   0  0  0  0  0  0  0  0  0  0  0  0
  132.2510  122.3330   61.8930 C   0  0  0  0  0  0  0  0  0  0  0  0
  128.6380  123.7190   61.2410 C   0  0  0  0  0  0  0  0  0  0  0  0
  128.0160  123.6390   59.9820 C   0  0  0  0  0  0  0  0  0  0  0  0
  126.6300  123.5810   59.8630 C   0  0  0  0  0  0  0  0  0  0  0  0
  125.8390  123.5940   61.0070 C   0  0  0  0  0  0  0  0  0  0  0  0
  126.4250  123.6580   62.2650 C   0  0  0  0  0  0  0  0  0  0  0  0
  127.8110  123.7160   62.3790 C   0  0  0  0  0  0  0  0  0  0  0  0
  1  2  2  0
  2  3  1  0
  4  3  1  6
  4  5  1  0
  5  6  1  0
  6  7  2  0
  6  8  1  0
  8  9  1  0
  9 10  1  0
 10 11  1  0
 11 12  2  0
 12 13  1  0
 13 14  2  0
 14 15  1  0
 15 16  2  0
 16 17  1  0
 17 18  2  0
 18 19  1  0
 19 20  2  0
 20 21  1  0
 21 22  2  0
  4 23  1  0
 23 24  2  0
 23 25  1  0
  2 26  1  0
 26 27  1  0
 27 28  1  0
 28 29  2  0
 29 30  1  0
 30 31  2  0
 31 32  1  0
 32 33  2  0
 27 34  1  0
 34 35  2  0
 35 36  1  0
 36 37  2  0
 37 38  1  0
 38 39  2  0
 27 40  1  0
 40 41  2  0
 41 42  1  0
 42 43  2  0
 43 44  1  0
 44 45  2  0
 22 10  1  0
 33 28  1  0
 39 34  1  0
 45 40  1  0
 16 11  1  0
 22 17  1  0
M  END
>  <Binding energies>  (84) 
[-10.38]

>  <Ligand effiencies>  (84) 
[-0.21625000000000003]

>  <Interactions>  (84) 
["H-A:GLY:454:N:4049, H-A:ARG:545:NH2:4927, V-B:TYR:539:CE2:9847, V-A:LEU:475:CD2:4258, V-A:ASP:366:CG:3212, V-B:TYR:539:CD2:9845, V-A:ARG:545:CZ:4925, V-B:PRO:540:CB:9856, V-B:PRO:540:CA:9854, H-A:ASP:366:OD2:3214, H-A:ASP:366:OD1:3213, V-A:ASP:366:CB:3211, V-A:ASP:366:CA:3209, V-A:PRO:540:CB:4884, V-A:PRO:540:CA:4882, V-A:GLU:543:CD:4907, V-A:PRO:540:N:4883, V-A:TYR:531:CE2:4792, V-A:TYR:539:C:4866, V-A:TYR:531:CZ:4793, V-A:LEU:363:CD1:3188, V-A:LEU:363:CA:3184, V-A:PRO:540:C:4880, V-A:ALA:541:CB:4891"]

$$$$
