1a_Ghoteimi_2023
     RDKit          3D

 67 70  0  0  0  0  0  0  0  0999 V2000
  132.7260  131.8430   57.4230 C   0  0  0  0  0  0  0  0  0  0  0  0
  131.8010  132.7950   56.6580 C   0  0  0  0  0  0  0  0  0  0  0  0
  130.5030  132.7600   57.2400 O   0  0  0  0  0  0  0  0  0  0  0  0
  129.4090  132.4620   56.4940 C   0  0  0  0  0  0  0  0  0  0  0  0
  128.8320  133.2830   55.7730 O   0  0  0  0  0  0  0  0  0  0  0  0
  128.9700  131.0320   56.6290 C   0  0  0  0  0  0  0  0  0  0  0  0
  129.8840  129.9960   56.8730 C   0  0  0  0  0  0  0  0  0  0  0  0
  129.4480  128.6790   56.9900 C   0  0  0  0  0  0  0  0  0  0  0  0
  128.0840  128.3740   56.8700 C   0  0  0  0  0  0  0  0  0  0  0  0
  127.5350  127.0810   56.9660 N   0  0  0  0  0  0  0  0  0  0  0  0
  128.0660  125.9520   57.4820 C   0  0  0  0  0  0  0  0  0  0  0  0
  129.1790  125.8550   57.9990 O   0  0  0  0  0  0  0  0  0  0  0  0
  127.1760  124.7110   57.4030 C   0  0  0  0  0  0  0  0  0  0  0  0
  126.8720  123.9960   59.0450 S   0  0  0  0  0  0  0  0  0  0  0  0
  127.6020  125.1170   60.2170 C   0  0  0  0  0  0  0  0  0  0  0  0
  126.9520  126.3000   60.3230 N   0  0  0  0  0  0  0  0  0  0  0  0
  127.4060  127.2450   61.1890 C   0  0  0  0  0  0  0  0  0  0  0  0
  126.6200  128.5220   61.2640 C   0  0  0  0  0  0  0  0  0  0  0  0
  126.1470  129.1570   60.1040 C   0  0  0  0  0  0  0  0  0  0  0  0
  125.4170  130.3400   60.1780 C   0  0  0  0  0  0  0  0  0  0  0  0
  125.1390  130.9260   61.4100 C   0  0  0  0  0  0  0  0  0  0  0  0
  124.4070  132.0980   61.3880 O   0  0  0  0  0  0  0  0  0  0  0  0
  124.1700  132.7910   62.6080 C   0  0  0  0  0  0  0  0  0  0  0  0
  125.6070  130.3070   62.5770 C   0  0  0  0  0  0  0  0  0  0  0  0
  126.3370  129.1240   62.5000 C   0  0  0  0  0  0  0  0  0  0  0  0
  128.5420  127.0060   61.9720 C   0  0  0  0  0  0  0  0  0  0  0  0
  129.2450  125.7990   61.8610 C   0  0  0  0  0  0  0  0  0  0  0  0
  130.4670  125.6260   62.7040 C   0  0  0  0  0  0  0  0  0  0  0  0
  130.4000  125.7480   64.0960 C   0  0  0  0  0  0  0  0  0  0  0  0
  131.5400  125.5710   64.8760 C   0  0  0  0  0  0  0  0  0  0  0  0
  132.7640  125.2620   64.2830 C   0  0  0  0  0  0  0  0  0  0  0  0
  133.8380  125.1040   65.1360 O   0  0  0  0  0  0  0  0  0  0  0  0
  133.6710  125.3770   66.5230 C   0  0  0  0  0  0  0  0  0  0  0  0
  132.8330  125.1310   62.8880 C   0  0  0  0  0  0  0  0  0  0  0  0
  131.6920  125.3090   62.1100 C   0  0  0  0  0  0  0  0  0  0  0  0
  128.7640  124.8180   60.9600 C   0  0  0  0  0  0  0  0  0  0  0  0
  129.4480  123.5300   60.8120 C   0  0  0  0  0  0  0  0  0  0  0  0
  129.9890  122.5130   60.6960 N   0  0  0  0  0  0  0  0  0  0  0  0
  127.1730  129.4020   56.6240 C   0  0  0  0  0  0  0  0  0  0  0  0
  127.6110  130.7190   56.5060 C   0  0  0  0  0  0  0  0  0  0  0  0
  132.5865  131.9866   58.5046 H   0  0  0  0  0  0  0  0  0  0  0  0
  132.4837  130.8036   57.1568 H   0  0  0  0  0  0  0  0  0  0  0  0
  133.7720  132.0553   57.1568 H   0  0  0  0  0  0  0  0  0  0  0  0
  132.2006  133.8184   56.7129 H   0  0  0  0  0  0  0  0  0  0  0  0
  131.7407  132.4825   55.6050 H   0  0  0  0  0  0  0  0  0  0  0  0
  130.9550  130.2264   56.9728 H   0  0  0  0  0  0  0  0  0  0  0  0
  130.1752  127.8752   57.1771 H   0  0  0  0  0  0  0  0  0  0  0  0
  126.5890  127.0100   56.6220 H   0  0  0  0  0  0  0  0  0  0  0  0
  126.2125  124.9915   56.9525 H   0  0  0  0  0  0  0  0  0  0  0  0
  127.6928  123.9570   56.7912 H   0  0  0  0  0  0  0  0  0  0  0  0
  126.3570  128.7119   59.1202 H   0  0  0  0  0  0  0  0  0  0  0  0
  125.0564  130.8163   59.2544 H   0  0  0  0  0  0  0  0  0  0  0  0
  124.3967  132.1282   63.4562 H   0  0  0  0  0  0  0  0  0  0  0  0
  124.8149  133.6809   62.6555 H   0  0  0  0  0  0  0  0  0  0  0  0
  123.1152  133.0996   62.6555 H   0  0  0  0  0  0  0  0  0  0  0  0
  125.3966  130.7578   63.5581 H   0  0  0  0  0  0  0  0  0  0  0  0
  126.6989  128.6521   63.4254 H   0  0  0  0  0  0  0  0  0  0  0  0
  128.8859  127.7733   62.6812 H   0  0  0  0  0  0  0  0  0  0  0  0
  129.4401  125.9854   64.5778 H   0  0  0  0  0  0  0  0  0  0  0  0
  131.4746  125.6758   65.9690 H   0  0  0  0  0  0  0  0  0  0  0  0
  134.1553  124.5853   67.1134 H   0  0  0  0  0  0  0  0  0  0  0  0
  134.1305  126.3470   66.7637 H   0  0  0  0  0  0  0  0  0  0  0  0
  132.5982  125.4097   66.7637 H   0  0  0  0  0  0  0  0  0  0  0  0
  133.7917  124.8868   62.4071 H   0  0  0  0  0  0  0  0  0  0  0  0
  131.7552  125.1991   61.0173 H   0  0  0  0  0  0  0  0  0  0  0  0
  126.1023  129.1709   56.5226 H   0  0  0  0  0  0  0  0  0  0  0  0
  126.8824  131.5205   56.3144 H   0  0  0  0  0  0  0  0  0  0  0  0
  1  2  1  0
  2  3  1  0
  3  4  1  0
  4  5  2  0
  4  6  1  0
  6  7  2  0
  7  8  1  0
  8  9  2  0
  9 10  1  0
 10 11  1  0
 11 12  2  0
 11 13  1  0
 13 14  1  0
 14 15  1  0
 15 16  2  0
 16 17  1  0
 17 18  1  0
 18 19  2  0
 19 20  1  0
 20 21  2  0
 21 22  1  0
 22 23  1  0
 21 24  1  0
 24 25  2  0
 17 26  2  0
 26 27  1  0
 27 28  1  0
 28 29  2  0
 29 30  1  0
 30 31  2  0
 31 32  1  0
 32 33  1  0
 31 34  1  0
 34 35  2  0
 27 36  2  0
 36 37  1  0
 37 38  3  0
  9 39  1  0
 39 40  2  0
 40  6  1  0
 36 15  1  0
 25 18  1  0
 35 28  1  0
  1 41  1  0
  1 42  1  0
  1 43  1  0
  2 44  1  0
  2 45  1  0
  7 46  1  0
  8 47  1  0
 10 48  1  0
 13 49  1  0
 13 50  1  0
 19 51  1  0
 20 52  1  0
 23 53  1  0
 23 54  1  0
 23 55  1  0
 24 56  1  0
 25 57  1  0
 26 58  1  0
 29 59  1  0
 30 60  1  0
 33 61  1  0
 33 62  1  0
 33 63  1  0
 34 64  1  0
 35 65  1  0
 39 66  1  0
 40 67  1  0
M  END
>  <Binding energies>  (1) 
[-7.89]

>  <Ligand effiencies>  (1) 
[-0.1924390243902439]

>  <Interactions>  (1) 
["V-A:HIS:456:CE1:4066, H-A:TYR:484:OH:4345, V-B:ASP:366:CG:8184, V-B:GLU:543:CD:9880, V-A:ARG:545:CZ:4924, V-A:TYR:484:CZ:4344, V-B:ARG:545:CZ:9898, H-B:TYR:531:OH:9767, V-A:ARG:545:CD:4921, V-A:ARG:545:CG:4920, H-A:ARG:545:NE:4922, V-B:LEU:475:CD2:9230, V-A:PRO:540:CA:4881, V-B:ILE:369:CD1:8210, V-A:PRO:540:CB:4883, V-A:PRO:540:N:4882, V-A:LEU:363:CD1:3186, V-A:ILE:538:CA:4858, V-A:ILE:538:CB:4860, V-A:MET:535:CE:4833, V-A:ILE:538:CG2:4861, V-A:PRO:540:CD:4885, V-B:MET:535:CE:9807, V-A:TYR:539:CZ:4875, H-A:GLY:454:N:4047, H-A:TYR:539:N:4868, V-B:GLY:454:CA:9020"]

$$$$
1a_Grossjean_2025
     RDKit          3D

 45 46  0  0  0  0  0  0  0  0999 V2000
  132.5960  132.4950   56.6270 C   0  0  0  0  0  0  0  0  0  0  0  0
  131.2620  132.2770   55.9080 C   0  0  0  0  0  0  0  0  0  0  0  0
  130.2170  132.8950   56.6500 O   0  0  0  0  0  0  0  0  0  0  0  0
  129.6750  132.2860   57.7370 C   0  0  0  0  0  0  0  0  0  0  0  0
  129.2150  132.9040   58.7020 O   0  0  0  0  0  0  0  0  0  0  0  0
  129.7070  130.7870   57.6560 C   0  0  0  0  0  0  0  0  0  0  0  0
  128.6730  130.1170   56.9890 C   0  0  0  0  0  0  0  0  0  0  0  0
  128.6720  128.7280   56.9000 C   0  0  0  0  0  0  0  0  0  0  0  0
  129.7000  127.9810   57.4760 C   0  0  0  0  0  0  0  0  0  0  0  0
  129.5960  126.5840   57.3280 N   0  0  0  0  0  0  0  0  0  0  0  0
  130.1270  125.7680   56.3930 C   0  0  0  0  0  0  0  0  0  0  0  0
  130.8380  126.1240   55.4540 O   0  0  0  0  0  0  0  0  0  0  0  0
  129.7920  124.2830   56.5520 C   0  0  0  0  0  0  0  0  0  0  0  0
  128.0030  123.9950   56.6860 S   0  0  0  0  0  0  0  0  0  0  0  0
  127.5840  124.0290   58.4150 C   0  0  0  0  0  0  0  0  0  0  0  0
  128.6210  124.3650   59.2230 N   0  0  0  0  0  0  0  0  0  0  0  0
  128.4140  124.4170   60.5600 C   0  0  0  0  0  0  0  0  0  0  0  0
  129.6230  124.7870   61.4000 C   0  0  0  0  0  0  0  0  0  0  0  0
  127.1770  124.1480   61.1400 C   0  0  0  0  0  0  0  0  0  0  0  0
  126.0960  123.8210   60.3150 C   0  0  0  0  0  0  0  0  0  0  0  0
  124.7450  123.5460   60.9720 C   0  0  0  0  0  0  0  0  0  0  0  0
  126.2870  123.7640   58.9150 C   0  0  0  0  0  0  0  0  0  0  0  0
  125.1580  123.4720   58.0270 C   0  0  0  0  0  0  0  0  0  0  0  0
  124.2650  123.2400   57.3290 N   0  0  0  0  0  0  0  0  0  0  0  0
  130.7440  128.6440   58.1390 C   0  0  0  0  0  0  0  0  0  0  0  0
  130.7430  130.0330   58.2270 C   0  0  0  0  0  0  0  0  0  0  0  0
  132.4348  132.4687   57.7148 H   0  0  0  0  0  0  0  0  0  0  0  0
  133.3007  131.7001   56.3414 H   0  0  0  0  0  0  0  0  0  0  0  0
  133.0110  133.4729   56.3414 H   0  0  0  0  0  0  0  0  0  0  0  0
  131.3103  132.7212   54.9028 H   0  0  0  0  0  0  0  0  0  0  0  0
  131.0632  131.1985   55.8229 H   0  0  0  0  0  0  0  0  0  0  0  0
  127.8552  130.6935   56.5319 H   0  0  0  0  0  0  0  0  0  0  0  0
  127.8547  128.2154   56.3716 H   0  0  0  0  0  0  0  0  0  0  0  0
  129.0630  126.1340   58.0580 H   0  0  0  0  0  0  0  0  0  0  0  0
  130.1742  123.7377   55.6765 H   0  0  0  0  0  0  0  0  0  0  0  0
  130.2623  123.9278   57.4808 H   0  0  0  0  0  0  0  0  0  0  0  0
  129.3663  124.7084   62.4667 H   0  0  0  0  0  0  0  0  0  0  0  0
  130.4523  124.1015   61.1710 H   0  0  0  0  0  0  0  0  0  0  0  0
  129.9266  125.8192   61.1710 H   0  0  0  0  0  0  0  0  0  0  0  0
  127.0517  124.1921   62.2320 H   0  0  0  0  0  0  0  0  0  0  0  0
  124.8578  123.5690   62.0660 H   0  0  0  0  0  0  0  0  0  0  0  0
  124.0229  124.3156   60.6616 H   0  0  0  0  0  0  0  0  0  0  0  0
  124.3812  122.5554   60.6616 H   0  0  0  0  0  0  0  0  0  0  0  0
  131.5639  128.0654   58.5896 H   0  0  0  0  0  0  0  0  0  0  0  0
  131.5638  130.5453   58.7502 H   0  0  0  0  0  0  0  0  0  0  0  0
  1  2  1  0
  2  3  1  0
  3  4  1  0
  4  5  2  0
  4  6  1  0
  6  7  2  0
  7  8  1  0
  8  9  2  0
  9 10  1  0
 10 11  1  0
 11 12  2  0
 11 13  1  0
 13 14  1  0
 14 15  1  0
 15 16  2  0
 16 17  1  0
 17 18  1  0
 17 19  2  0
 19 20  1  0
 20 21  1  0
 20 22  2  0
 22 23  1  0
 23 24  3  0
  9 25  1  0
 25 26  2  0
 26  6  1  0
 22 15  1  0
  1 27  1  0
  1 28  1  0
  1 29  1  0
  2 30  1  0
  2 31  1  0
  7 32  1  0
  8 33  1  0
 10 34  1  0
 13 35  1  0
 13 36  1  0
 18 37  1  0
 18 38  1  0
 18 39  1  0
 19 40  1  0
 21 41  1  0
 21 42  1  0
 21 43  1  0
 25 44  1  0
 26 45  1  0
M  END
>  <Binding energies>  (1) 
[-7.28]

>  <Ligand effiencies>  (1) 
[-0.26962962962962966]

>  <Interactions>  (1) 
["V-B:TYR:539:CE1:9847, V-B:PRO:540:CB:9857, V-B:PRO:540:CA:9855, V-B:ASN:362:CB:8147, V-A:ASP:366:CG:3210, V-B:PRO:540:N:9856, V-A:TYR:539:C:4865, V-A:PRO:540:CB:4883, V-A:PRO:540:N:4882, V-A:LEU:363:CD1:3186, V-A:ILE:538:CA:4858, V-B:TYR:539:CE2:9848, V-A:ILE:538:CB:4860, V-A:MET:535:CE:4833, V-B:TYR:539:CZ:9849, V-A:ILE:538:CG2:4861, V-A:PRO:540:CD:4885, V-B:MET:535:CE:9807, H-A:TYR:531:OH:4793, H-A:TYR:539:N:4868"]

$$$$
1aa_Ghoteimi_2023
     RDKit          3D

 67 70  0  0  0  0  0  0  0  0999 V2000
  133.0040  116.7460   60.3520 C   0  0  0  0  0  0  0  0  0  0  0  0
  132.2250  118.0450   60.5780 C   0  0  0  0  0  0  0  0  0  0  0  0
  133.0690  119.1560   60.3040 O   0  0  0  0  0  0  0  0  0  0  0  0
  133.0750  120.2480   61.1110 C   0  0  0  0  0  0  0  0  0  0  0  0
  134.0070  120.5260   61.8730 O   0  0  0  0  0  0  0  0  0  0  0  0
  131.8360  121.0860   60.9860 C   0  0  0  0  0  0  0  0  0  0  0  0
  130.5750  120.6090   61.3750 C   0  0  0  0  0  0  0  0  0  0  0  0
  129.4420  121.4100   61.2480 C   0  0  0  0  0  0  0  0  0  0  0  0
  129.5520  122.7080   60.7300 C   0  0  0  0  0  0  0  0  0  0  0  0
  128.4810  123.6040   60.5550 N   0  0  0  0  0  0  0  0  0  0  0  0
  127.3510  123.7720   61.2800 C   0  0  0  0  0  0  0  0  0  0  0  0
  127.0590  123.1250   62.2860 O   0  0  0  0  0  0  0  0  0  0  0  0
  126.3660  124.8530   60.8090 C   0  0  0  0  0  0  0  0  0  0  0  0
  126.9470  125.6380   59.7590 O   0  0  0  0  0  0  0  0  0  0  0  0
  128.0770  126.4060   60.0010 C   0  0  0  0  0  0  0  0  0  0  0  0
  128.9510  125.9770   60.9530 N   0  0  0  0  0  0  0  0  0  0  0  0
  130.0630  126.7090   61.2280 C   0  0  0  0  0  0  0  0  0  0  0  0
  130.9770  126.1680   62.2900 C   0  0  0  0  0  0  0  0  0  0  0  0
  132.2670  125.7200   61.9710 C   0  0  0  0  0  0  0  0  0  0  0  0
  133.1160  125.2160   62.9530 C   0  0  0  0  0  0  0  0  0  0  0  0
  132.7030  125.1460   64.2820 C   0  0  0  0  0  0  0  0  0  0  0  0
  133.6110  124.6310   65.1860 O   0  0  0  0  0  0  0  0  0  0  0  0
  133.9060  125.3660   66.3690 C   0  0  0  0  0  0  0  0  0  0  0  0
  131.4180  125.5940   64.6160 C   0  0  0  0  0  0  0  0  0  0  0  0
  130.5720  126.0980   63.6330 C   0  0  0  0  0  0  0  0  0  0  0  0
  130.3300  127.8920   60.5270 C   0  0  0  0  0  0  0  0  0  0  0  0
  129.4530  128.3490   59.5350 C   0  0  0  0  0  0  0  0  0  0  0  0
  129.7990  129.6110   58.8160 C   0  0  0  0  0  0  0  0  0  0  0  0
  130.8450  129.6270   57.8880 C   0  0  0  0  0  0  0  0  0  0  0  0
  131.1690  130.7980   57.2070 C   0  0  0  0  0  0  0  0  0  0  0  0
  130.4520  131.9720   57.4340 C   0  0  0  0  0  0  0  0  0  0  0  0
  130.8430  133.0840   56.7140 O   0  0  0  0  0  0  0  0  0  0  0  0
  132.2000  133.2020   56.3020 C   0  0  0  0  0  0  0  0  0  0  0  0
  129.3960  131.9580   58.3590 C   0  0  0  0  0  0  0  0  0  0  0  0
  129.0750  130.7870   59.0400 C   0  0  0  0  0  0  0  0  0  0  0  0
  128.2900  127.5880   59.2720 C   0  0  0  0  0  0  0  0  0  0  0  0
  127.2940  128.0090   58.2840 C   0  0  0  0  0  0  0  0  0  0  0  0
  126.5060  128.3400   57.5040 N   0  0  0  0  0  0  0  0  0  0  0  0
  130.8050  123.1850   60.3400 C   0  0  0  0  0  0  0  0  0  0  0  0
  131.9350  122.3840   60.4660 C   0  0  0  0  0  0  0  0  0  0  0  0
  133.2692  116.3037   61.3236 H   0  0  0  0  0  0  0  0  0  0  0  0
  132.3809  116.0387   59.7850 H   0  0  0  0  0  0  0  0  0  0  0  0
  133.9214  116.9625   59.7850 H   0  0  0  0  0  0  0  0  0  0  0  0
  131.3537  118.0718   59.9071 H   0  0  0  0  0  0  0  0  0  0  0  0
  131.8840  118.0917   61.6228 H   0  0  0  0  0  0  0  0  0  0  0  0
  130.4800  119.5924   61.7843 H   0  0  0  0  0  0  0  0  0  0  0  0
  128.4591  121.0230   61.5549 H   0  0  0  0  0  0  0  0  0  0  0  0
  128.5860  124.2200   59.7600 H   0  0  0  0  0  0  0  0  0  0  0  0
  125.4502  124.3708   60.4363 H   0  0  0  0  0  0  0  0  0  0  0  0
  126.1289  125.5124   61.6569 H   0  0  0  0  0  0  0  0  0  0  0  0
  132.6138  125.7675   60.9282 H   0  0  0  0  0  0  0  0  0  0  0  0
  134.1228  124.8696   62.6768 H   0  0  0  0  0  0  0  0  0  0  0  0
  133.6610  124.7555   67.2506 H   0  0  0  0  0  0  0  0  0  0  0  0
  134.9760  125.6207   66.3852 H   0  0  0  0  0  0  0  0  0  0  0  0
  133.3090  126.2897   66.3852 H   0  0  0  0  0  0  0  0  0  0  0  0
  131.0764  125.5470   65.6605 H   0  0  0  0  0  0  0  0  0  0  0  0
  129.5675  126.4481   63.9129 H   0  0  0  0  0  0  0  0  0  0  0  0
  131.2381  128.4682   60.7580 H   0  0  0  0  0  0  0  0  0  0  0  0
  131.4165  128.7073   57.6943 H   0  0  0  0  0  0  0  0  0  0  0  0
  131.9978  130.7966   56.4838 H   0  0  0  0  0  0  0  0  0  0  0  0
  132.8488  133.2584   57.1885 H   0  0  0  0  0  0  0  0  0  0  0  0
  132.4779  132.3246   55.6995 H   0  0  0  0  0  0  0  0  0  0  0  0
  132.3223  134.1142   55.6995 H   0  0  0  0  0  0  0  0  0  0  0  0
  128.8198  132.8761   58.5464 H   0  0  0  0  0  0  0  0  0  0  0  0
  128.2443  130.7864   59.7610 H   0  0  0  0  0  0  0  0  0  0  0  0
  130.8991  124.2015   59.9302 H   0  0  0  0  0  0  0  0  0  0  0  0
  132.9158  122.7728   60.1546 H   0  0  0  0  0  0  0  0  0  0  0  0
  1  2  1  0
  2  3  1  0
  3  4  1  0
  4  5  2  0
  4  6  1  0
  6  7  2  0
  7  8  1  0
  8  9  2  0
  9 10  1  0
 10 11  1  0
 11 12  2  0
 11 13  1  0
 13 14  1  0
 14 15  1  0
 15 16  2  0
 16 17  1  0
 17 18  1  0
 18 19  2  0
 19 20  1  0
 20 21  2  0
 21 22  1  0
 22 23  1  0
 21 24  1  0
 24 25  2  0
 17 26  2  0
 26 27  1  0
 27 28  1  0
 28 29  2  0
 29 30  1  0
 30 31  2  0
 31 32  1  0
 32 33  1  0
 31 34  1  0
 34 35  2  0
 27 36  2  0
 36 37  1  0
 37 38  3  0
  9 39  1  0
 39 40  2  0
 40  6  1  0
 36 15  1  0
 25 18  1  0
 35 28  1  0
  1 41  1  0
  1 42  1  0
  1 43  1  0
  2 44  1  0
  2 45  1  0
  7 46  1  0
  8 47  1  0
 10 48  1  0
 13 49  1  0
 13 50  1  0
 19 51  1  0
 20 52  1  0
 23 53  1  0
 23 54  1  0
 23 55  1  0
 24 56  1  0
 25 57  1  0
 26 58  1  0
 29 59  1  0
 30 60  1  0
 33 61  1  0
 33 62  1  0
 33 63  1  0
 34 64  1  0
 35 65  1  0
 39 66  1  0
 40 67  1  0
M  END
>  <Binding energies>  (1) 
[-8.0]

>  <Ligand effiencies>  (1) 
[-0.1951219512195122]

>  <Interactions>  (1) 
["V-A:HIS:456:CE1:4066, V-A:LEU:475:CD2:4256, H-A:TYR:484:OH:4345, V-A:GLY:454:CA:4046, V-B:TYR:539:CD1:9845, V-B:TYR:539:C:9839, V-B:TYR:539:CE1:9847, V-B:GLU:543:CD:9880, V-A:ARG:545:CZ:4924, V-B:PRO:540:CA:9855, V-B:ALA:541:CB:9864, V-A:TYR:484:CZ:4344, V-A:ASP:366:CG:3210, H-B:TYR:531:OH:9767, V-A:ARG:545:CD:4921, V-A:ARG:545:CG:4920, V-A:PRO:540:CB:4883, V-A:PRO:540:N:4882, V-A:LEU:363:CD1:3186, V-A:ILE:538:CA:4858, V-A:ILE:538:C:4856, V-A:ILE:538:CB:4860, V-A:PRO:540:CG:4884, V-A:ILE:538:CG2:4861, V-A:PRO:540:CD:4885, V-A:ILE:369:CG2:3234, V-A:LEU:373:CD1:3277, V-A:SER:385:CA:3404, V-A:SER:385:CB:3406, H-B:ALA:541:N:9863, H-A:GLY:454:N:4047, H-A:TYR:539:N:4868"]

$$$$
1b_Ghoteimi_2023
     RDKit          3D

 54 57  0  0  0  0  0  0  0  0999 V2000
  129.0300  133.1300   55.3230 C   0  0  0  0  0  0  0  0  0  0  0  0
  129.5940  132.8030   56.5880 O   0  0  0  0  0  0  0  0  0  0  0  0
  129.6070  131.4840   56.9990 C   0  0  0  0  0  0  0  0  0  0  0  0
  130.6820  131.0870   57.7920 C   0  0  0  0  0  0  0  0  0  0  0  0
  130.7800  129.7770   58.2510 C   0  0  0  0  0  0  0  0  0  0  0  0
  129.8010  128.8230   57.9340 C   0  0  0  0  0  0  0  0  0  0  0  0
  129.9110  127.4080   58.4310 C   0  0  0  0  0  0  0  0  0  0  0  0
  130.5960  127.0640   59.6010 C   0  0  0  0  0  0  0  0  0  0  0  0
  130.6650  125.7300   60.0230 C   0  0  0  0  0  0  0  0  0  0  0  0
  131.4170  125.4340   61.2790 C   0  0  0  0  0  0  0  0  0  0  0  0
  130.8530  125.7270   62.5240 C   0  0  0  0  0  0  0  0  0  0  0  0
  131.5530  125.4620   63.6970 C   0  0  0  0  0  0  0  0  0  0  0  0
  132.8310  124.9030   63.6500 C   0  0  0  0  0  0  0  0  0  0  0  0
  133.4500  124.6750   64.8640 O   0  0  0  0  0  0  0  0  0  0  0  0
  133.1140  125.4940   65.9790 C   0  0  0  0  0  0  0  0  0  0  0  0
  133.4040  124.6160   62.4030 C   0  0  0  0  0  0  0  0  0  0  0  0
  132.7010  124.8830   61.2310 C   0  0  0  0  0  0  0  0  0  0  0  0
  130.0160  124.7410   59.2420 C   0  0  0  0  0  0  0  0  0  0  0  0
  129.9780  123.3460   59.6900 C   0  0  0  0  0  0  0  0  0  0  0  0
  129.9480  122.2440   60.0450 N   0  0  0  0  0  0  0  0  0  0  0  0
  129.3610  125.1540   58.0610 C   0  0  0  0  0  0  0  0  0  0  0  0
  128.5020  124.0530   56.9560 S   0  0  0  0  0  0  0  0  0  0  0  0
  126.7160  124.4010   57.0920 C   0  0  0  0  0  0  0  0  0  0  0  0
  126.0400  123.8440   58.3530 C   0  0  0  0  0  0  0  0  0  0  0  0
  125.0270  123.1450   58.2680 O   0  0  0  0  0  0  0  0  0  0  0  0
  126.6420  124.1880   59.5130 N   0  0  0  0  0  0  0  0  0  0  0  0
  126.2550  123.8290   60.7990 C   0  0  0  0  0  0  0  0  0  0  0  0
  124.9440  123.9450   61.2600 C   0  0  0  0  0  0  0  0  0  0  0  0
  124.9800  123.4940   62.5600 C   0  0  0  0  0  0  0  0  0  0  0  0
  126.2470  123.1230   62.8650 O   0  0  0  0  0  0  0  0  0  0  0  0
  127.0450  123.3400   61.7410 N   0  0  0  0  0  0  0  0  0  0  0  0
  129.2970  126.4540   57.6840 N   0  0  0  0  0  0  0  0  0  0  0  0
  128.7240  129.2330   57.1330 C   0  0  0  0  0  0  0  0  0  0  0  0
  128.6230  130.5410   56.6710 C   0  0  0  0  0  0  0  0  0  0  0  0
  128.0872  133.6766   55.4722 H   0  0  0  0  0  0  0  0  0  0  0  0
  129.7339  133.7601   54.7595 H   0  0  0  0  0  0  0  0  0  0  0  0
  128.8330  132.2061   54.7595 H   0  0  0  0  0  0  0  0  0  0  0  0
  131.4611  131.8167   58.0578 H   0  0  0  0  0  0  0  0  0  0  0  0
  131.6391  129.4845   58.8726 H   0  0  0  0  0  0  0  0  0  0  0  0
  131.0856  127.8491   60.1959 H   0  0  0  0  0  0  0  0  0  0  0  0
  129.8478  126.1706   62.5768 H   0  0  0  0  0  0  0  0  0  0  0  0
  131.0952  125.6951   64.6697 H   0  0  0  0  0  0  0  0  0  0  0  0
  133.3358  124.9535   66.9110 H   0  0  0  0  0  0  0  0  0  0  0  0
  133.7043  126.4216   65.9437 H   0  0  0  0  0  0  0  0  0  0  0  0
  132.0424  125.7398   65.9437 H   0  0  0  0  0  0  0  0  0  0  0  0
  134.4119  124.1786   62.3503 H   0  0  0  0  0  0  0  0  0  0  0  0
  133.1607  124.6580   60.2573 H   0  0  0  0  0  0  0  0  0  0  0  0
  126.5797  125.4925   57.0857 H   0  0  0  0  0  0  0  0  0  0  0  0
  126.2388  123.8960   56.2392 H   0  0  0  0  0  0  0  0  0  0  0  0
  127.4730  124.7570   59.4530 H   0  0  0  0  0  0  0  0  0  0  0  0
  124.0701  124.3166   60.7048 H   0  0  0  0  0  0  0  0  0  0  0  0
  124.1184  123.4430   63.2419 H   0  0  0  0  0  0  0  0  0  0  0  0
  127.9439  128.5052   56.8651 H   0  0  0  0  0  0  0  0  0  0  0  0
  127.7676  130.8367   56.0458 H   0  0  0  0  0  0  0  0  0  0  0  0
  1  2  1  0
  2  3  1  0
  3  4  2  0
  4  5  1  0
  5  6  2  0
  6  7  1  0
  7  8  2  0
  8  9  1  0
  9 10  1  0
 10 11  2  0
 11 12  1  0
 12 13  2  0
 13 14  1  0
 14 15  1  0
 13 16  1  0
 16 17  2  0
  9 18  2  0
 18 19  1  0
 19 20  3  0
 18 21  1  0
 21 22  1  0
 22 23  1  0
 23 24  1  0
 24 25  2  0
 24 26  1  0
 26 27  1  0
 27 28  1  0
 28 29  2  0
 29 30  1  0
 30 31  1  0
 21 32  2  0
  6 33  1  0
 33 34  2  0
 34  3  1  0
 32  7  1  0
 17 10  1  0
 31 27  2  0
  1 35  1  0
  1 36  1  0
  1 37  1  0
  4 38  1  0
  5 39  1  0
  8 40  1  0
 11 41  1  0
 12 42  1  0
 15 43  1  0
 15 44  1  0
 15 45  1  0
 16 46  1  0
 17 47  1  0
 23 48  1  0
 23 49  1  0
 26 50  1  0
 28 51  1  0
 29 52  1  0
 33 53  1  0
 34 54  1  0
M  END
>  <Binding energies>  (1) 
[-7.88]

>  <Ligand effiencies>  (1) 
[-0.22514285714285714]

>  <Interactions>  (1) 
["V-A:HIS:456:CE1:4066, H-A:TYR:484:OH:4345, V-B:TYR:539:CD1:9845, V-B:ASP:366:CG:8184, V-B:TYR:539:CE1:9847, V-B:PRO:540:CB:9857, V-A:ARG:545:CZ:4924, V-B:PRO:540:CA:9855, V-B:ARG:545:CZ:9898, V-B:ASN:362:CB:8147, V-A:ASP:366:CG:3210, V-A:ARG:545:CD:4921, V-A:ARG:545:CG:4920, V-A:ILE:538:CA:4858, V-A:ILE:538:C:4856, V-A:TYR:539:CG:4870, V-A:ILE:538:CB:4860, V-A:MET:535:CE:4833, V-B:MET:535:CE:9807, V-A:TYR:539:CD2:4872, V-A:TYR:539:CE2:4874, V-A:TYR:539:CZ:4875, H-B:ALA:541:N:9863, H-A:GLY:454:N:4047, H-A:TYR:539:N:4868, V-B:ALA:541:C:9860"]

$$$$
1b_Grossjean_2025
     RDKit          3D

 42 43  0  0  0  0  0  0  0  0999 V2000
  125.5130  122.5230   56.6110 C   0  0  0  0  0  0  0  0  0  0  0  0
  126.9220  122.3580   56.5200 O   0  0  0  0  0  0  0  0  0  0  0  0
  127.7500  122.9090   57.4430 C   0  0  0  0  0  0  0  0  0  0  0  0
  128.3980  122.2460   58.2590 O   0  0  0  0  0  0  0  0  0  0  0  0
  127.8080  124.4080   57.3690 C   0  0  0  0  0  0  0  0  0  0  0  0
  126.8020  125.2180   57.9200 C   0  0  0  0  0  0  0  0  0  0  0  0
  126.8850  126.6040   57.8330 C   0  0  0  0  0  0  0  0  0  0  0  0
  127.9690  127.2110   57.1980 C   0  0  0  0  0  0  0  0  0  0  0  0
  127.9480  128.6180   57.1690 N   0  0  0  0  0  0  0  0  0  0  0  0
  127.2330  129.4620   56.3920 C   0  0  0  0  0  0  0  0  0  0  0  0
  126.4240  129.1270   55.5280 O   0  0  0  0  0  0  0  0  0  0  0  0
  127.4720  130.9500   56.6500 C   0  0  0  0  0  0  0  0  0  0  0  0
  129.2390  131.3770   56.6140 S   0  0  0  0  0  0  0  0  0  0  0  0
  129.8620  131.1990   58.2720 C   0  0  0  0  0  0  0  0  0  0  0  0
  128.9460  130.7210   59.1510 N   0  0  0  0  0  0  0  0  0  0  0  0
  129.3140  130.5450   60.4420 C   0  0  0  0  0  0  0  0  0  0  0  0
  128.2420  129.9930   61.3640 C   0  0  0  0  0  0  0  0  0  0  0  0
  130.5930  130.8450   60.9070 C   0  0  0  0  0  0  0  0  0  0  0  0
  131.5370  131.3590   60.0130 C   0  0  0  0  0  0  0  0  0  0  0  0
  132.9280  131.6950   60.5490 C   0  0  0  0  0  0  0  0  0  0  0  0
  131.1760  131.5510   58.6600 C   0  0  0  0  0  0  0  0  0  0  0  0
  132.1350  132.1290   57.7150 C   0  0  0  0  0  0  0  0  0  0  0  0
  132.8940  132.5860   56.9720 N   0  0  0  0  0  0  0  0  0  0  0  0
  128.9790  126.4080   56.6460 C   0  0  0  0  0  0  0  0  0  0  0  0
  128.8950  125.0220   56.7330 C   0  0  0  0  0  0  0  0  0  0  0  0
  125.2155  122.5578   57.6694 H   0  0  0  0  0  0  0  0  0  0  0  0
  125.2211  123.4615   56.1170 H   0  0  0  0  0  0  0  0  0  0  0  0
  125.0121  121.6774   56.1170 H   0  0  0  0  0  0  0  0  0  0  0  0
  125.9419  124.7532   58.4242 H   0  0  0  0  0  0  0  0  0  0  0  0
  126.0894  127.2265   58.2684 H   0  0  0  0  0  0  0  0  0  0  0  0
  128.5780  129.0510   57.8280 H   0  0  0  0  0  0  0  0  0  0  0  0
  126.9509  131.5321   55.8757 H   0  0  0  0  0  0  0  0  0  0  0  0
  127.0877  131.1851   57.6535 H   0  0  0  0  0  0  0  0  0  0  0  0
  128.5431  130.1480   62.4106 H   0  0  0  0  0  0  0  0  0  0  0  0
  127.2918  130.5140   61.1748 H   0  0  0  0  0  0  0  0  0  0  0  0
  128.1142  128.9170   61.1748 H   0  0  0  0  0  0  0  0  0  0  0  0
  130.8560  130.6798   61.9622 H   0  0  0  0  0  0  0  0  0  0  0  0
  132.9082  131.6902   61.6488 H   0  0  0  0  0  0  0  0  0  0  0  0
  133.6495  130.9453   60.1920 H   0  0  0  0  0  0  0  0  0  0  0  0
  133.2277  132.6914   60.1920 H   0  0  0  0  0  0  0  0  0  0  0  0
  129.8387  126.8754   56.1436 H   0  0  0  0  0  0  0  0  0  0  0  0
  129.6914  124.4008   56.2973 H   0  0  0  0  0  0  0  0  0  0  0  0
  1  2  1  0
  2  3  1  0
  3  4  2  0
  3  5  1  0
  5  6  2  0
  6  7  1  0
  7  8  2  0
  8  9  1  0
  9 10  1  0
 10 11  2  0
 10 12  1  0
 12 13  1  0
 13 14  1  0
 14 15  2  0
 15 16  1  0
 16 17  1  0
 16 18  2  0
 18 19  1  0
 19 20  1  0
 19 21  2  0
 21 22  1  0
 22 23  3  0
  8 24  1  0
 24 25  2  0
 25  5  1  0
 21 14  1  0
  1 26  1  0
  1 27  1  0
  1 28  1  0
  6 29  1  0
  7 30  1  0
  9 31  1  0
 12 32  1  0
 12 33  1  0
 17 34  1  0
 17 35  1  0
 17 36  1  0
 18 37  1  0
 20 38  1  0
 20 39  1  0
 20 40  1  0
 24 41  1  0
 25 42  1  0
M  END
>  <Binding energies>  (1) 
[-6.86]

>  <Ligand effiencies>  (1) 
[-0.26384615384615384]

>  <Interactions>  (1) 
["V-B:TYR:539:C:9839, V-B:PRO:540:CB:9857, V-B:PRO:540:N:9856, H-B:TYR:531:OH:9767, V-A:TYR:539:CE1:4873, V-A:PRO:540:CA:4881, V-A:PRO:540:CB:4883, V-A:PRO:540:N:4882, V-B:ILE:538:CB:9834, H-B:TYR:539:N:9842, V-A:MET:535:CE:4833, V-B:PRO:540:CD:9859, V-B:ILE:538:CG2:9835, V-A:PRO:540:CD:4885, V-B:ILE:538:CA:9832, V-B:MET:535:CE:9807, V-A:TYR:539:CE2:4874, V-A:TYR:539:CZ:4875"]

$$$$
1c_Ghoteimi_2023
     RDKit          3D

 54 57  0  0  0  0  0  0  0  0999 V2000
  134.3780  124.1450   59.6440 C   0  0  0  0  0  0  0  0  0  0  0  0
  133.5720  124.2090   58.4730 O   0  0  0  0  0  0  0  0  0  0  0  0
  132.4660  125.0370   58.4580 C   0  0  0  0  0  0  0  0  0  0  0  0
  131.8570  125.2900   59.6850 C   0  0  0  0  0  0  0  0  0  0  0  0
  130.7360  126.1110   59.7640 C   0  0  0  0  0  0  0  0  0  0  0  0
  130.1880  126.7040   58.6160 C   0  0  0  0  0  0  0  0  0  0  0  0
  128.9760  127.5860   58.6950 C   0  0  0  0  0  0  0  0  0  0  0  0
  128.3430  127.8940   59.9040 C   0  0  0  0  0  0  0  0  0  0  0  0
  127.2300  128.7430   59.9320 C   0  0  0  0  0  0  0  0  0  0  0  0
  126.6460  129.0820   61.2630 C   0  0  0  0  0  0  0  0  0  0  0  0
  125.3560  129.6120   61.3610 C   0  0  0  0  0  0  0  0  0  0  0  0
  124.8220  129.9470   62.6000 C   0  0  0  0  0  0  0  0  0  0  0  0
  125.5670  129.7650   63.7650 C   0  0  0  0  0  0  0  0  0  0  0  0
  124.9560  130.1260   64.9510 O   0  0  0  0  0  0  0  0  0  0  0  0
  125.3590  129.4910   66.1610 C   0  0  0  0  0  0  0  0  0  0  0  0
  126.8650  129.2400   63.6710 C   0  0  0  0  0  0  0  0  0  0  0  0
  127.3980  128.9050   62.4300 C   0  0  0  0  0  0  0  0  0  0  0  0
  126.7450  129.2570   58.7060 C   0  0  0  0  0  0  0  0  0  0  0  0
  125.5640  130.1260   58.6640 C   0  0  0  0  0  0  0  0  0  0  0  0
  124.6310  130.8110   58.6320 N   0  0  0  0  0  0  0  0  0  0  0  0
  127.4410  128.9210   57.5270 C   0  0  0  0  0  0  0  0  0  0  0  0
  127.0470  129.6280   55.9420 S   0  0  0  0  0  0  0  0  0  0  0  0
  127.2570  131.4240   56.1680 C   0  0  0  0  0  0  0  0  0  0  0  0
  128.7340  131.8310   56.2290 C   0  0  0  0  0  0  0  0  0  0  0  0
  129.1070  132.8540   55.6540 O   0  0  0  0  0  0  0  0  0  0  0  0
  129.5230  131.0230   56.9710 N   0  0  0  0  0  0  0  0  0  0  0  0
  130.8480  131.2460   57.3120 C   0  0  0  0  0  0  0  0  0  0  0  0
  131.4110  131.1120   58.4940 N   0  0  0  0  0  0  0  0  0  0  0  0
  132.7030  131.3700   58.4450 C   0  0  0  0  0  0  0  0  0  0  0  0
  133.2150  131.7200   57.1990 C   0  0  0  0  0  0  0  0  0  0  0  0
  131.9240  131.7110   56.0350 S   0  0  0  0  0  0  0  0  0  0  0  0
  128.5300  128.1150   57.5260 N   0  0  0  0  0  0  0  0  0  0  0  0
  130.8130  126.4470   57.3860 C   0  0  0  0  0  0  0  0  0  0  0  0
  131.9330  125.6260   57.3030 C   0  0  0  0  0  0  0  0  0  0  0  0
  133.7349  124.1961   60.5350 H   0  0  0  0  0  0  0  0  0  0  0  0
  134.9400  123.1994   59.6511 H   0  0  0  0  0  0  0  0  0  0  0  0
  135.0821  124.9901   59.6511 H   0  0  0  0  0  0  0  0  0  0  0  0
  132.2659  124.8367   60.6000 H   0  0  0  0  0  0  0  0  0  0  0  0
  130.2714  126.2984   60.7433 H   0  0  0  0  0  0  0  0  0  0  0  0
  128.7237  127.4646   60.8425 H   0  0  0  0  0  0  0  0  0  0  0  0
  124.7586  129.7652   60.4501 H   0  0  0  0  0  0  0  0  0  0  0  0
  123.8039  130.3589   62.6621 H   0  0  0  0  0  0  0  0  0  0  0  0
  124.9907  130.0713   67.0199 H   0  0  0  0  0  0  0  0  0  0  0  0
  124.9404  128.4745   66.1987 H   0  0  0  0  0  0  0  0  0  0  0  0
  126.4570  129.4370   66.1987 H   0  0  0  0  0  0  0  0  0  0  0  0
  127.4636  129.0927   64.5820 H   0  0  0  0  0  0  0  0  0  0  0  0
  128.4179  128.4981   62.3658 H   0  0  0  0  0  0  0  0  0  0  0  0
  126.7804  131.9453   55.3248 H   0  0  0  0  0  0  0  0  0  0  0  0
  126.7905  131.7009   57.1249 H   0  0  0  0  0  0  0  0  0  0  0  0
  129.0950  130.2090   57.3850 H   0  0  0  0  0  0  0  0  0  0  0  0
  133.3409  131.3119   59.3393 H   0  0  0  0  0  0  0  0  0  0  0  0
  134.2664  131.9630   56.9854 H   0  0  0  0  0  0  0  0  0  0  0  0
  130.4096  126.9034   56.4701 H   0  0  0  0  0  0  0  0  0  0  0  0
  132.4027  125.4381   56.3262 H   0  0  0  0  0  0  0  0  0  0  0  0
  1  2  1  0
  2  3  1  0
  3  4  2  0
  4  5  1  0
  5  6  2  0
  6  7  1  0
  7  8  2  0
  8  9  1  0
  9 10  1  0
 10 11  2  0
 11 12  1  0
 12 13  2  0
 13 14  1  0
 14 15  1  0
 13 16  1  0
 16 17  2  0
  9 18  2  0
 18 19  1  0
 19 20  3  0
 18 21  1  0
 21 22  1  0
 22 23  1  0
 23 24  1  0
 24 25  2  0
 24 26  1  0
 26 27  1  0
 27 28  2  0
 28 29  1  0
 29 30  2  0
 30 31  1  0
 21 32  2  0
  6 33  1  0
 33 34  2  0
 34  3  1  0
 32  7  1  0
 17 10  1  0
 31 27  1  0
  1 35  1  0
  1 36  1  0
  1 37  1  0
  4 38  1  0
  5 39  1  0
  8 40  1  0
 11 41  1  0
 12 42  1  0
 15 43  1  0
 15 44  1  0
 15 45  1  0
 16 46  1  0
 17 47  1  0
 23 48  1  0
 23 49  1  0
 26 50  1  0
 29 51  1  0
 30 52  1  0
 33 53  1  0
 34 54  1  0
M  END
>  <Binding energies>  (1) 
[-8.0]

>  <Ligand effiencies>  (1) 
[-0.22857142857142856]

>  <Interactions>  (1) 
["V-B:HIS:456:CE1:9040, V-B:ASP:366:CG:8184, V-B:TYR:539:CE1:9847, V-B:ARG:545:CZ:9898, V-A:ASP:366:CG:3210, V-B:ASP:366:CB:8183, H-B:TYR:531:OH:9767, V-A:ILE:369:CD1:3236, V-A:TYR:539:CE1:4873, H-B:ARG:545:NE:9896, V-A:PRO:540:CA:4881, V-B:ARG:545:CD:9895, V-B:ARG:545:CG:9894, V-A:PRO:540:CB:4883, V-A:LEU:363:CD1:3186, V-A:ILE:538:CB:4860, V-A:MET:535:CE:4833, V-A:ILE:538:CG2:4861, V-A:TYR:531:CE2:4791, V-A:TYR:531:CZ:4792, H-B:TYR:484:OH:9319, V-A:ILE:369:CG2:3234, H-B:GLY:454:N:9021, V-A:ILE:369:CB:3233, V-A:TYR:539:CE2:4874, V-A:TYR:539:CZ:4875, V-A:ASP:366:CB:3209, V-A:ASP:366:CA:3207, H-B:TYR:539:OH:9850, H-A:TYR:539:OH:4876, H-A:TYR:539:N:4868, V-A:LEU:363:CA:3182, V-A:ILE:369:CG1:3235"]

$$$$
1c_Grossjean_2025
     RDKit          3D

 40 41  0  0  0  0  0  0  0  0999 V2000
  124.6310  122.8780   56.9660 C   0  0  0  0  0  0  0  0  0  0  0  0
  125.8040  122.1880   56.5480 O   0  0  0  0  0  0  0  0  0  0  0  0
  127.0410  122.7520   56.7920 C   0  0  0  0  0  0  0  0  0  0  0  0
  127.3100  123.1140   58.1120 C   0  0  0  0  0  0  0  0  0  0  0  0
  128.5290  123.6880   58.4590 C   0  0  0  0  0  0  0  0  0  0  0  0
  129.5070  123.9030   57.4760 C   0  0  0  0  0  0  0  0  0  0  0  0
  130.7680  124.4850   57.7140 N   0  0  0  0  0  0  0  0  0  0  0  0
  131.4890  125.3160   56.9320 C   0  0  0  0  0  0  0  0  0  0  0  0
  131.1430  125.7400   55.8290 O   0  0  0  0  0  0  0  0  0  0  0  0
  132.8410  125.7460   57.5050 C   0  0  0  0  0  0  0  0  0  0  0  0
  133.5110  124.5130   58.6590 S   0  0  0  0  0  0  0  0  0  0  0  0
  132.5620  124.5770   60.1640 C   0  0  0  0  0  0  0  0  0  0  0  0
  131.7370  125.6530   60.2370 N   0  0  0  0  0  0  0  0  0  0  0  0
  130.9650  125.8090   61.3370 C   0  0  0  0  0  0  0  0  0  0  0  0
  130.0620  127.0280   61.3410 C   0  0  0  0  0  0  0  0  0  0  0  0
  130.9890  124.9150   62.4050 C   0  0  0  0  0  0  0  0  0  0  0  0
  131.8530  123.8170   62.3530 C   0  0  0  0  0  0  0  0  0  0  0  0
  131.8740  122.8600   63.5430 C   0  0  0  0  0  0  0  0  0  0  0  0
  132.6710  123.6340   61.2130 C   0  0  0  0  0  0  0  0  0  0  0  0
  133.6210  122.5200   61.1640 C   0  0  0  0  0  0  0  0  0  0  0  0
  134.3710  121.6400   61.1250 N   0  0  0  0  0  0  0  0  0  0  0  0
  129.2380  123.5530   56.1520 C   0  0  0  0  0  0  0  0  0  0  0  0
  128.0170  122.9790   55.8100 C   0  0  0  0  0  0  0  0  0  0  0  0
  124.5914  122.9013   58.0650 H   0  0  0  0  0  0  0  0  0  0  0  0
  124.6530  123.9071   56.5780 H   0  0  0  0  0  0  0  0  0  0  0  0
  123.7423  122.3588   56.5780 H   0  0  0  0  0  0  0  0  0  0  0  0
  126.5492  122.9436   58.8880 H   0  0  0  0  0  0  0  0  0  0  0  0
  128.7259  123.9730   59.5030 H   0  0  0  0  0  0  0  0  0  0  0  0
  131.1540  124.2820   58.6230 H   0  0  0  0  0  0  0  0  0  0  0  0
  133.5518  125.8807   56.6764 H   0  0  0  0  0  0  0  0  0  0  0  0
  132.6936  126.6855   58.0578 H   0  0  0  0  0  0  0  0  0  0  0  0
  129.8454  127.3204   62.3791 H   0  0  0  0  0  0  0  0  0  0  0  0
  130.5646  127.8583   60.8234 H   0  0  0  0  0  0  0  0  0  0  0  0
  129.1212  126.7891   60.8234 H   0  0  0  0  0  0  0  0  0  0  0  0
  130.3372  125.0708   63.2773 H   0  0  0  0  0  0  0  0  0  0  0  0
  131.8613  123.4381   64.4787 H   0  0  0  0  0  0  0  0  0  0  0  0
  130.9900  122.2066   63.5037 H   0  0  0  0  0  0  0  0  0  0  0  0
  132.7858  122.2460   63.5037 H   0  0  0  0  0  0  0  0  0  0  0  0
  129.9952  123.7318   55.3744 H   0  0  0  0  0  0  0  0  0  0  0  0
  127.8162  122.7020   54.7646 H   0  0  0  0  0  0  0  0  0  0  0  0
  1  2  1  0
  2  3  1  0
  3  4  2  0
  4  5  1  0
  5  6  2  0
  6  7  1  0
  7  8  1  0
  8  9  2  0
  8 10  1  0
 10 11  1  0
 11 12  1  0
 12 13  2  0
 13 14  1  0
 14 15  1  0
 14 16  2  0
 16 17  1  0
 17 18  1  0
 17 19  2  0
 19 20  1  0
 20 21  3  0
  6 22  1  0
 22 23  2  0
 23  3  1  0
 19 12  1  0
  1 24  1  0
  1 25  1  0
  1 26  1  0
  4 27  1  0
  5 28  1  0
  7 29  1  0
 10 30  1  0
 10 31  1  0
 15 32  1  0
 15 33  1  0
 15 34  1  0
 16 35  1  0
 18 36  1  0
 18 37  1  0
 18 38  1  0
 22 39  1  0
 23 40  1  0
M  END
>  <Binding energies>  (1) 
[-6.52]

>  <Ligand effiencies>  (1) 
[-0.27166666666666667]

>  <Interactions>  (1) 
["V-A:LEU:475:CD2:4256, V-B:TYR:539:CD1:9845, V-B:TYR:539:C:9839, V-B:TYR:539:CE1:9847, V-B:PRO:540:CB:9857, V-B:PRO:540:CA:9855, V-A:ASP:366:CG:3210, V-B:PRO:540:N:9856, V-A:ILE:369:CD1:3236, V-B:TYR:539:CE2:9848, V-B:ILE:538:CB:9834, H-B:TYR:539:N:9842, V-B:PRO:540:CD:9859, V-B:TYR:539:CZ:9849, V-B:ILE:538:CA:9832, V-B:MET:535:CE:9807, V-A:ILE:369:CG2:3234, H-A:TYR:531:OH:4793, V-A:ASP:366:C:3205, H-A:ASN:370:ND2:3245, V-A:ASP:366:CB:3209, V-A:ASP:366:CA:3207, H-B:TYR:539:OH:9850, V-B:PRO:540:CG:9858, V-B:LEU:363:CD1:8160"]

$$$$
1d_Ghoteimi_2023
     RDKit          3D

 50 52  0  0  0  0  0  0  0  0999 V2000
  124.3030  124.0200   57.7540 C   0  0  0  0  0  0  0  0  0  0  0  0
  125.0010  122.7920   57.6070 O   0  0  0  0  0  0  0  0  0  0  0  0
  126.3290  122.7830   57.3720 C   0  0  0  0  0  0  0  0  0  0  0  0
  126.9290  122.0310   56.6020 O   0  0  0  0  0  0  0  0  0  0  0  0
  127.0700  123.8390   58.1900 C   0  0  0  0  0  0  0  0  0  0  0  0
  128.5730  124.2870   57.2720 S   0  0  0  0  0  0  0  0  0  0  0  0
  129.5130  125.3800   58.3140 C   0  0  0  0  0  0  0  0  0  0  0  0
  129.5470  126.6600   57.8730 N   0  0  0  0  0  0  0  0  0  0  0  0
  130.2330  127.6000   58.5720 C   0  0  0  0  0  0  0  0  0  0  0  0
  130.2160  128.9960   58.0180 C   0  0  0  0  0  0  0  0  0  0  0  0
  129.0450  129.5510   57.4790 C   0  0  0  0  0  0  0  0  0  0  0  0
  129.0320  130.8420   56.9600 C   0  0  0  0  0  0  0  0  0  0  0  0
  130.1890  131.6180   56.9610 C   0  0  0  0  0  0  0  0  0  0  0  0
  130.0840  132.8860   56.4230 O   0  0  0  0  0  0  0  0  0  0  0  0
  129.1250  133.1280   55.3990 C   0  0  0  0  0  0  0  0  0  0  0  0
  131.3670  131.0780   57.4950 C   0  0  0  0  0  0  0  0  0  0  0  0
  131.3750  129.7860   58.0140 C   0  0  0  0  0  0  0  0  0  0  0  0
  130.9010  127.2620   59.7540 C   0  0  0  0  0  0  0  0  0  0  0  0
  130.8960  125.9430   60.2260 C   0  0  0  0  0  0  0  0  0  0  0  0
  131.6360  125.6510   61.4910 C   0  0  0  0  0  0  0  0  0  0  0  0
  131.0870  126.0100   62.7260 C   0  0  0  0  0  0  0  0  0  0  0  0
  131.7700  125.7400   63.9090 C   0  0  0  0  0  0  0  0  0  0  0  0
  133.0100  125.1030   63.8820 C   0  0  0  0  0  0  0  0  0  0  0  0
  133.6190  124.8830   65.1030 O   0  0  0  0  0  0  0  0  0  0  0  0
  133.1800  125.6170   66.2410 C   0  0  0  0  0  0  0  0  0  0  0  0
  133.5590  124.7300   62.6460 C   0  0  0  0  0  0  0  0  0  0  0  0
  132.8730  124.9990   61.4650 C   0  0  0  0  0  0  0  0  0  0  0  0
  130.1990  124.9620   59.4770 C   0  0  0  0  0  0  0  0  0  0  0  0
  130.2470  123.5500   59.8670 C   0  0  0  0  0  0  0  0  0  0  0  0
  130.2850  122.4350   60.1750 N   0  0  0  0  0  0  0  0  0  0  0  0
  124.1758  124.2437   58.8235 H   0  0  0  0  0  0  0  0  0  0  0  0
  124.8771  124.8275   57.2762 H   0  0  0  0  0  0  0  0  0  0  0  0
  123.3154  123.9399   57.2762 H   0  0  0  0  0  0  0  0  0  0  0  0
  126.4330  124.7259   58.3231 H   0  0  0  0  0  0  0  0  0  0  0  0
  127.3266  123.4477   59.1855 H   0  0  0  0  0  0  0  0  0  0  0  0
  128.1208  128.9546   57.4666 H   0  0  0  0  0  0  0  0  0  0  0  0
  128.1000  131.2535   56.5453 H   0  0  0  0  0  0  0  0  0  0  0  0
  128.1547  133.3728   55.8558 H   0  0  0  0  0  0  0  0  0  0  0  0
  129.4594  133.9699   54.7750 H   0  0  0  0  0  0  0  0  0  0  0  0
  129.0199  132.2282   54.7750 H   0  0  0  0  0  0  0  0  0  0  0  0
  132.2892  131.6775   57.5041 H   0  0  0  0  0  0  0  0  0  0  0  0
  132.3081  129.3770   58.4288 H   0  0  0  0  0  0  0  0  0  0  0  0
  131.4357  128.0401   60.3186 H   0  0  0  0  0  0  0  0  0  0  0  0
  130.1078  126.5097   62.7632 H   0  0  0  0  0  0  0  0  0  0  0  0
  131.3276  126.0317   64.8729 H   0  0  0  0  0  0  0  0  0  0  0  0
  133.4925  125.0945   67.1572 H   0  0  0  0  0  0  0  0  0  0  0  0
  133.6250  126.6228   66.2226 H   0  0  0  0  0  0  0  0  0  0  0  0
  132.0834  125.7008   66.2226 H   0  0  0  0  0  0  0  0  0  0  0  0
  134.5347  124.2233   62.6100 H   0  0  0  0  0  0  0  0  0  0  0  0
  133.3083  124.6956   60.5014 H   0  0  0  0  0  0  0  0  0  0  0  0
  1  2  1  0
  2  3  1  0
  3  4  2  0
  3  5  1  0
  5  6  1  0
  6  7  1  0
  7  8  2  0
  8  9  1  0
  9 10  1  0
 10 11  2  0
 11 12  1  0
 12 13  2  0
 13 14  1  0
 14 15  1  0
 13 16  1  0
 16 17  2  0
  9 18  2  0
 18 19  1  0
 19 20  1  0
 20 21  2  0
 21 22  1  0
 22 23  2  0
 23 24  1  0
 24 25  1  0
 23 26  1  0
 26 27  2  0
 19 28  2  0
 28 29  1  0
 29 30  3  0
 28  7  1  0
 17 10  1  0
 27 20  1  0
  1 31  1  0
  1 32  1  0
  1 33  1  0
  5 34  1  0
  5 35  1  0
 11 36  1  0
 12 37  1  0
 15 38  1  0
 15 39  1  0
 15 40  1  0
 16 41  1  0
 17 42  1  0
 18 43  1  0
 21 44  1  0
 22 45  1  0
 25 46  1  0
 25 47  1  0
 25 48  1  0
 26 49  1  0
 27 50  1  0
M  END
>  <Binding energies>  (1) 
[-7.29]

>  <Ligand effiencies>  (1) 
[-0.243]

>  <Interactions>  (1) 
["V-A:HIS:456:CE1:4066, H-A:TYR:484:OH:4345, V-B:TYR:539:CD1:9845, V-B:TYR:539:C:9839, V-B:TYR:539:CE1:9847, V-B:PRO:540:CB:9857, V-A:ARG:545:CZ:4924, V-B:PRO:540:CA:9855, V-A:ASP:366:CG:3210, V-B:PRO:540:N:9856, V-A:ARG:545:CD:4921, V-A:ARG:545:CG:4920, H-A:ARG:545:NE:4922, V-A:ILE:538:CA:4858, V-A:ILE:538:C:4856, V-A:TYR:539:CG:4870, V-A:ILE:538:CB:4860, H-B:TYR:539:N:9842, V-A:MET:535:CE:4833, V-B:PRO:540:CD:9859, V-A:ILE:538:CG2:4861, V-A:TYR:539:CD2:4872, V-A:TYR:539:CE2:4874, V-A:TYR:539:CZ:4875, V-B:TYR:531:CE2:9765, V-B:LEU:363:CD1:8160, H-A:GLY:454:N:4047, H-A:TYR:539:N:4868, V-B:LEU:363:CA:8156"]

$$$$
1d_Grossjean_2025
     RDKit          3D

 36 37  0  0  0  0  0  0  0  0999 V2000
  124.9860  123.7990   62.2650 C   0  0  0  0  0  0  0  0  0  0  0  0
  125.6270  123.5290   60.9180 C   0  0  0  0  0  0  0  0  0  0  0  0
  124.8750  123.5010   59.7450 C   0  0  0  0  0  0  0  0  0  0  0  0
  125.5220  123.2570   58.5290 C   0  0  0  0  0  0  0  0  0  0  0  0
  124.6800  123.2470   57.2550 C   0  0  0  0  0  0  0  0  0  0  0  0
  126.9190  123.0360   58.5200 C   0  0  0  0  0  0  0  0  0  0  0  0
  127.6240  122.8260   57.2540 C   0  0  0  0  0  0  0  0  0  0  0  0
  128.1780  122.6610   56.2520 N   0  0  0  0  0  0  0  0  0  0  0  0
  127.5970  123.0580   59.7620 C   0  0  0  0  0  0  0  0  0  0  0  0
  129.3490  122.8010   59.9370 S   0  0  0  0  0  0  0  0  0  0  0  0
  129.6270  122.0520   61.5710 C   0  0  0  0  0  0  0  0  0  0  0  0
  130.7480  121.0130   61.5450 C   0  0  0  0  0  0  0  0  0  0  0  0
  131.7970  121.2450   62.1470 O   0  0  0  0  0  0  0  0  0  0  0  0
  130.4720  119.8810   60.8620 N   0  0  0  0  0  0  0  0  0  0  0  0
  131.2740  118.7490   60.6300 C   0  0  0  0  0  0  0  0  0  0  0  0
  130.5860  117.5600   60.3710 C   0  0  0  0  0  0  0  0  0  0  0  0
  131.2840  116.3820   60.1220 C   0  0  0  0  0  0  0  0  0  0  0  0
  132.6770  116.3920   60.1250 C   0  0  0  0  0  0  0  0  0  0  0  0
  133.3760  117.5710   60.3720 C   0  0  0  0  0  0  0  0  0  0  0  0
  132.6800  118.7510   60.6220 C   0  0  0  0  0  0  0  0  0  0  0  0
  126.9640  123.3180   60.9340 N   0  0  0  0  0  0  0  0  0  0  0  0
  125.6802  123.5066   63.0666 H   0  0  0  0  0  0  0  0  0  0  0  0
  124.7550  124.8709   62.3529 H   0  0  0  0  0  0  0  0  0  0  0  0
  124.0577  123.2154   62.3529 H   0  0  0  0  0  0  0  0  0  0  0  0
  123.7882  123.6684   59.7749 H   0  0  0  0  0  0  0  0  0  0  0  0
  123.6127  123.2343   57.5210 H   0  0  0  0  0  0  0  0  0  0  0  0
  124.8997  124.1478   56.6632 H   0  0  0  0  0  0  0  0  0  0  0  0
  124.9211  122.3517   56.6632 H   0  0  0  0  0  0  0  0  0  0  0  0
  129.8956  122.8456   62.2837 H   0  0  0  0  0  0  0  0  0  0  0  0
  128.6999  121.5420   61.8717 H   0  0  0  0  0  0  0  0  0  0  0  0
  129.5460  119.8180   60.4620 H   0  0  0  0  0  0  0  0  0  0  0  0
  129.4860  117.5554   60.3640 H   0  0  0  0  0  0  0  0  0  0  0  0
  130.7384  115.4476   59.9238 H   0  0  0  0  0  0  0  0  0  0  0  0
  133.2295  115.4609   59.9307 H   0  0  0  0  0  0  0  0  0  0  0  0
  134.4760  117.5701   60.3696 H   0  0  0  0  0  0  0  0  0  0  0  0
  133.2300  119.6843   60.8131 H   0  0  0  0  0  0  0  0  0  0  0  0
  1  2  1  0
  2  3  2  0
  3  4  1  0
  4  5  1  0
  4  6  2  0
  6  7  1  0
  7  8  3  0
  6  9  1  0
  9 10  1  0
 10 11  1  0
 11 12  1  0
 12 13  2  0
 12 14  1  0
 14 15  1  0
 15 16  2  0
 16 17  1  0
 17 18  2  0
 18 19  1  0
 19 20  2  0
  9 21  2  0
 21  2  1  0
 20 15  1  0
  1 22  1  0
  1 23  1  0
  1 24  1  0
  3 25  1  0
  5 26  1  0
  5 27  1  0
  5 28  1  0
 11 29  1  0
 11 30  1  0
 14 31  1  0
 16 32  1  0
 17 33  1  0
 18 34  1  0
 19 35  1  0
 20 36  1  0
M  END
>  <Binding energies>  (1) 
[-8.44]

>  <Ligand effiencies>  (1) 
[-0.3836363636363636]

>  <Interactions>  (1) 
["V-A:LEU:475:CD2:4256, V-B:TYR:539:CD1:9845, V-B:TYR:539:C:9839, V-B:PRO:540:C:9853, H-B:TYR:539:O:9840, V-B:TYR:539:CE1:9847, V-B:PRO:540:CB:9857, V-B:PRO:540:CA:9855, V-B:ALA:541:CB:9864, V-B:ARG:545:CZ:9898, V-B:ASN:362:CB:8147, V-B:PRO:540:N:9856, V-B:TYR:539:CG:9844, H-B:TYR:539:N:9842, V-B:PRO:540:CD:9859, V-A:LEU:373:CD1:3277, V-A:PRO:482:CG:4324, V-A:SER:385:CA:3404, V-A:SER:385:CB:3406, V-A:PRO:482:CB:4323, V-A:VAL:384:C:3394, H-B:ALA:541:N:9863, V-B:TYR:531:CE2:9765, V-B:LEU:363:CD1:8160, V-B:TYR:539:CB:9843, V-B:VAL:344:CG1:7972"]

$$$$
1e_Grossjean_2025
     RDKit          3D

 38 39  0  0  0  0  0  0  0  0999 V2000
  134.3030  125.3430   66.7150 C   0  0  0  0  0  0  0  0  0  0  0  0
  133.2570  125.3710   65.6170 C   0  0  0  0  0  0  0  0  0  0  0  0
  131.9060  125.5940   65.8990 C   0  0  0  0  0  0  0  0  0  0  0  0
  131.0000  125.6030   64.8390 C   0  0  0  0  0  0  0  0  0  0  0  0
  131.4580  125.3900   63.5360 C   0  0  0  0  0  0  0  0  0  0  0  0
  132.8250  125.1780   63.3230 C   0  0  0  0  0  0  0  0  0  0  0  0
  133.2250  124.9580   61.9930 N   0  0  0  0  0  0  0  0  0  0  0  0
  133.3540  123.7840   61.3370 C   0  0  0  0  0  0  0  0  0  0  0  0
  133.1420  122.6740   61.8270 O   0  0  0  0  0  0  0  0  0  0  0  0
  133.8290  123.8810   59.8860 C   0  0  0  0  0  0  0  0  0  0  0  0
  132.7870  125.0010   58.9020 S   0  0  0  0  0  0  0  0  0  0  0  0
  131.1500  124.3060   58.7900 C   0  0  0  0  0  0  0  0  0  0  0  0
  130.8100  123.5500   59.8650 N   0  0  0  0  0  0  0  0  0  0  0  0
  129.5890  122.9660   59.8920 C   0  0  0  0  0  0  0  0  0  0  0  0
  129.2770  122.1450   61.1280 C   0  0  0  0  0  0  0  0  0  0  0  0
  128.6700  123.1000   58.8540 C   0  0  0  0  0  0  0  0  0  0  0  0
  129.0190  123.8550   57.7310 C   0  0  0  0  0  0  0  0  0  0  0  0
  127.9990  123.9710   56.5980 C   0  0  0  0  0  0  0  0  0  0  0  0
  130.2900  124.4720   57.6780 C   0  0  0  0  0  0  0  0  0  0  0  0
  130.6930  125.2170   56.4840 C   0  0  0  0  0  0  0  0  0  0  0  0
  131.0090  125.8060   55.5390 N   0  0  0  0  0  0  0  0  0  0  0  0
  133.7170  125.1630   64.3570 N   0  0  0  0  0  0  0  0  0  0  0  0
  133.8054  125.3563   67.6959 H   0  0  0  0  0  0  0  0  0  0  0  0
  134.9071  124.4284   66.6227 H   0  0  0  0  0  0  0  0  0  0  0  0
  134.9552  126.2240   66.6227 H   0  0  0  0  0  0  0  0  0  0  0  0
  131.5659  125.7584   66.9321 H   0  0  0  0  0  0  0  0  0  0  0  0
  129.9303  125.7769   65.0275 H   0  0  0  0  0  0  0  0  0  0  0  0
  130.7546  125.3890   62.6903 H   0  0  0  0  0  0  0  0  0  0  0  0
  133.4980  125.7900   61.4910 H   0  0  0  0  0  0  0  0  0  0  0  0
  134.8629  124.2564   59.8750 H   0  0  0  0  0  0  0  0  0  0  0  0
  133.7655  122.8776   59.4397 H   0  0  0  0  0  0  0  0  0  0  0  0
  129.5019  122.7367   62.0276 H   0  0  0  0  0  0  0  0  0  0  0  0
  128.2118  121.8704   61.1265 H   0  0  0  0  0  0  0  0  0  0  0  0
  129.8910  121.2323   61.1265 H   0  0  0  0  0  0  0  0  0  0  0  0
  127.6832  122.6182   58.9173 H   0  0  0  0  0  0  0  0  0  0  0  0
  126.9908  124.0857   57.0226 H   0  0  0  0  0  0  0  0  0  0  0  0
  128.2377  124.8478   55.9781 H   0  0  0  0  0  0  0  0  0  0  0  0
  128.0347  123.0630   55.9781 H   0  0  0  0  0  0  0  0  0  0  0  0
  1  2  1  0
  2  3  2  0
  3  4  1  0
  4  5  2  0
  5  6  1  0
  6  7  1  0
  7  8  1  0
  8  9  2  0
  8 10  1  0
 10 11  1  0
 11 12  1  0
 12 13  2  0
 13 14  1  0
 14 15  1  0
 14 16  2  0
 16 17  1  0
 17 18  1  0
 17 19  2  0
 19 20  1  0
 20 21  3  0
  6 22  2  0
 22  2  1  0
 19 12  1  0
  1 23  1  0
  1 24  1  0
  1 25  1  0
  3 26  1  0
  4 27  1  0
  5 28  1  0
  7 29  1  0
 10 30  1  0
 10 31  1  0
 15 32  1  0
 15 33  1  0
 15 34  1  0
 16 35  1  0
 18 36  1  0
 18 37  1  0
 18 38  1  0
M  END
>  <Binding energies>  (1) 
[-7.59]

>  <Ligand effiencies>  (1) 
[-0.33]

>  <Interactions>  (1) 
["V-A:HIS:456:CE1:4066, H-A:TYR:484:OH:4345, V-A:GLY:454:CA:4046, V-B:TYR:539:CD1:9845, V-B:TYR:539:CE1:9847, V-B:GLU:543:CD:9880, V-A:ARG:545:CZ:4924, V-B:ALA:541:CB:9864, H-A:ASP:366:OD2:3212, H-A:ASP:366:OD1:3211, V-A:ARG:545:CD:4921, H-A:ARG:545:NH2:4926, V-A:ILE:369:CD1:3236, V-A:ARG:545:CG:4920, H-A:ARG:545:NE:4922, V-B:TYR:539:CZ:9849, V-B:MET:535:CE:9807, V-A:ILE:369:CG2:3234, V-A:ILE:369:CB:3233, H-A:TYR:531:OH:4793, H-A:ASN:370:ND2:3245, H-B:TYR:539:OH:9850, H-A:GLY:454:N:4047, V-A:ILE:455:C:4049, V-A:ARG:545:CB:4919"]

$$$$
1f_Grossjean_2025
     RDKit          3D

 35 36  0  0  0  0  0  0  0  0999 V2000
  125.1070  123.8180   62.6360 C   0  0  0  0  0  0  0  0  0  0  0  0
  125.5980  123.5880   61.2190 C   0  0  0  0  0  0  0  0  0  0  0  0
  124.7520  123.7300   60.1220 C   0  0  0  0  0  0  0  0  0  0  0  0
  125.2570  123.4920   58.8390 C   0  0  0  0  0  0  0  0  0  0  0  0
  124.3050  123.6360   57.6530 C   0  0  0  0  0  0  0  0  0  0  0  0
  126.6140  123.1230   58.6880 C   0  0  0  0  0  0  0  0  0  0  0  0
  127.1470  122.8160   57.3580 C   0  0  0  0  0  0  0  0  0  0  0  0
  127.5660  122.5740   56.3070 N   0  0  0  0  0  0  0  0  0  0  0  0
  127.4070  123.0310   59.8550 C   0  0  0  0  0  0  0  0  0  0  0  0
  129.1310  122.5810   59.8610 S   0  0  0  0  0  0  0  0  0  0  0  0
  129.5750  122.0210   61.5410 C   0  0  0  0  0  0  0  0  0  0  0  0
  130.7470  121.0300   61.6030 C   0  0  0  0  0  0  0  0  0  0  0  0
  131.7710  121.3120   62.2260 O   0  0  0  0  0  0  0  0  0  0  0  0
  130.5510  119.8850   60.9140 N   0  0  0  0  0  0  0  0  0  0  0  0
  131.3980  118.7710   60.7630 C   0  0  0  0  0  0  0  0  0  0  0  0
  131.0660  117.4400   61.0760 C   0  0  0  0  0  0  0  0  0  0  0  0
  132.0060  116.4260   60.8730 C   0  0  0  0  0  0  0  0  0  0  0  0
  133.2560  116.7680   60.3570 C   0  0  0  0  0  0  0  0  0  0  0  0
  133.6000  118.0420   60.0420 N   0  0  0  0  0  0  0  0  0  0  0  0
  132.6760  119.0160   60.2460 C   0  0  0  0  0  0  0  0  0  0  0  0
  126.9000  123.2390   61.0960 N   0  0  0  0  0  0  0  0  0  0  0  0
  125.8655  123.4627   63.3491 H   0  0  0  0  0  0  0  0  0  0  0  0
  124.9308  124.8924   62.7931 H   0  0  0  0  0  0  0  0  0  0  0  0
  124.1688  123.2657   62.7931 H   0  0  0  0  0  0  0  0  0  0  0  0
  123.7016  124.0251   60.2621 H   0  0  0  0  0  0  0  0  0  0  0  0
  123.2804  123.7910   58.0220 H   0  0  0  0  0  0  0  0  0  0  0  0
  124.6089  124.4984   57.0415 H   0  0  0  0  0  0  0  0  0  0  0  0
  124.3402  122.7223   57.0415 H   0  0  0  0  0  0  0  0  0  0  0  0
  129.8438  122.9060   62.1364 H   0  0  0  0  0  0  0  0  0  0  0  0
  128.6966  121.4852   61.9301 H   0  0  0  0  0  0  0  0  0  0  0  0
  129.6760  119.8110   60.4160 H   0  0  0  0  0  0  0  0  0  0  0  0
  130.0712  117.1987   61.4786 H   0  0  0  0  0  0  0  0  0  0  0  0
  131.7653  115.3803   61.1150 H   0  0  0  0  0  0  0  0  0  0  0  0
  133.9956  115.9694   60.1985 H   0  0  0  0  0  0  0  0  0  0  0  0
  132.9456  120.0517   59.9918 H   0  0  0  0  0  0  0  0  0  0  0  0
  1  2  1  0
  2  3  2  0
  3  4  1  0
  4  5  1  0
  4  6  2  0
  6  7  1  0
  7  8  3  0
  6  9  1  0
  9 10  1  0
 10 11  1  0
 11 12  1  0
 12 13  2  0
 12 14  1  0
 14 15  1  0
 15 16  2  0
 16 17  1  0
 17 18  2  0
 18 19  1  0
 19 20  2  0
  9 21  2  0
 21  2  1  0
 20 15  1  0
  1 22  1  0
  1 23  1  0
  1 24  1  0
  3 25  1  0
  5 26  1  0
  5 27  1  0
  5 28  1  0
 11 29  1  0
 11 30  1  0
 14 31  1  0
 16 32  1  0
 17 33  1  0
 18 34  1  0
 20 35  1  0
M  END
>  <Binding energies>  (1) 
[-8.2]

>  <Ligand effiencies>  (1) 
[-0.3727272727272727]

>  <Interactions>  (1) 
["V-A:LEU:475:CD2:4256, V-B:TYR:539:CD1:9845, V-B:TYR:539:C:9839, V-B:ASP:366:CG:8184, V-B:PRO:540:C:9853, H-B:TYR:539:O:9840, V-B:TYR:539:CE1:9847, V-B:GLU:543:CD:9880, V-B:PRO:540:CB:9857, V-B:PRO:540:CA:9855, V-B:ALA:541:CB:9864, V-B:ARG:545:CZ:9898, V-B:ASN:362:CB:8147, V-B:PRO:540:N:9856, H-B:TYR:539:N:9842, V-A:LEU:373:CD1:3277, V-A:PRO:482:CG:4324, V-A:SER:385:CA:3404, V-A:SER:385:CB:3406, V-A:PRO:482:CB:4323, V-A:VAL:384:C:3394, H-B:ALA:541:N:9863, V-B:TYR:531:CE2:9765, V-B:LEU:363:CD1:8160, V-B:LEU:363:CA:8156"]

$$$$
1g_Grossjean_2025
     RDKit          3D

 39 40  0  0  0  0  0  0  0  0999 V2000
  128.7500  122.0790   60.4880 C   0  0  0  0  0  0  0  0  0  0  0  0
  129.2470  122.9780   59.3720 C   0  0  0  0  0  0  0  0  0  0  0  0
  130.1620  124.0020   59.6130 C   0  0  0  0  0  0  0  0  0  0  0  0
  130.5730  124.8100   58.5470 C   0  0  0  0  0  0  0  0  0  0  0  0
  131.5650  125.9360   58.8380 C   0  0  0  0  0  0  0  0  0  0  0  0
  130.0590  124.5640   57.2540 C   0  0  0  0  0  0  0  0  0  0  0  0
  130.4340  125.4300   56.1340 C   0  0  0  0  0  0  0  0  0  0  0  0
  130.7320  126.1170   55.2510 N   0  0  0  0  0  0  0  0  0  0  0  0
  129.1540  123.4880   57.0980 C   0  0  0  0  0  0  0  0  0  0  0  0
  128.4190  123.0320   55.5430 S   0  0  0  0  0  0  0  0  0  0  0  0
  126.7300  123.7040   55.5270 C   0  0  0  0  0  0  0  0  0  0  0  0
  125.8880  123.1630   56.6830 C   0  0  0  0  0  0  0  0  0  0  0  0
  126.0490  122.0060   57.0750 O   0  0  0  0  0  0  0  0  0  0  0  0
  124.9900  124.0110   57.2140 N   0  0  0  0  0  0  0  0  0  0  0  0
  124.1260  123.7250   58.3580 C   0  0  0  0  0  0  0  0  0  0  0  0
  124.8180  123.8380   59.7130 C   0  0  0  0  0  0  0  0  0  0  0  0
  124.1240  123.5090   60.8820 C   0  0  0  0  0  0  0  0  0  0  0  0
  124.7570  123.6110   62.1180 C   0  0  0  0  0  0  0  0  0  0  0  0
  126.0820  124.0380   62.1810 C   0  0  0  0  0  0  0  0  0  0  0  0
  126.7800  124.3630   61.0210 C   0  0  0  0  0  0  0  0  0  0  0  0
  126.1480  124.2620   59.7840 C   0  0  0  0  0  0  0  0  0  0  0  0
  128.7440  122.7230   58.1410 N   0  0  0  0  0  0  0  0  0  0  0  0
  128.9990  122.5295   61.4601 H   0  0  0  0  0  0  0  0  0  0  0  0
  127.6592  121.9623   60.4066 H   0  0  0  0  0  0  0  0  0  0  0  0
  129.2313  121.0932   60.4066 H   0  0  0  0  0  0  0  0  0  0  0  0
  130.5550  124.1722   60.6262 H   0  0  0  0  0  0  0  0  0  0  0  0
  131.6724  126.0580   59.9259 H   0  0  0  0  0  0  0  0  0  0  0  0
  132.5421  125.6864   58.3987 H   0  0  0  0  0  0  0  0  0  0  0  0
  131.1943  126.8739   58.3987 H   0  0  0  0  0  0  0  0  0  0  0  0
  126.7828  124.7997   55.6084 H   0  0  0  0  0  0  0  0  0  0  0  0
  126.2512  123.3979   54.5852 H   0  0  0  0  0  0  0  0  0  0  0  0
  124.9400  124.9500   56.8440 H   0  0  0  0  0  0  0  0  0  0  0  0
  123.2855  124.4345   58.3405 H   0  0  0  0  0  0  0  0  0  0  0  0
  123.8048  122.6779   58.2554 H   0  0  0  0  0  0  0  0  0  0  0  0
  123.0791  123.1700   60.8249 H   0  0  0  0  0  0  0  0  0  0  0  0
  124.2140  123.3558   63.0400 H   0  0  0  0  0  0  0  0  0  0  0  0
  126.5817  124.1191   63.1576 H   0  0  0  0  0  0  0  0  0  0  0  0
  127.8260  124.6981   61.0812 H   0  0  0  0  0  0  0  0  0  0  0  0
  126.6949  124.5156   58.8639 H   0  0  0  0  0  0  0  0  0  0  0  0
  1  2  1  0
  2  3  2  0
  3  4  1  0
  4  5  1  0
  4  6  2  0
  6  7  1  0
  7  8  3  0
  6  9  1  0
  9 10  1  0
 10 11  1  0
 11 12  1  0
 12 13  2  0
 12 14  1  0
 14 15  1  0
 15 16  1  0
 16 17  2  0
 17 18  1  0
 18 19  2  0
 19 20  1  0
 20 21  2  0
  9 22  2  0
 22  2  1  0
 21 16  1  0
  1 23  1  0
  1 24  1  0
  1 25  1  0
  3 26  1  0
  5 27  1  0
  5 28  1  0
  5 29  1  0
 11 30  1  0
 11 31  1  0
 14 32  1  0
 15 33  1  0
 15 34  1  0
 17 35  1  0
 18 36  1  0
 19 37  1  0
 20 38  1  0
 21 39  1  0
M  END
>  <Binding energies>  (1) 
[-7.9]

>  <Ligand effiencies>  (1) 
[-0.34347826086956523]

>  <Interactions>  (1) 
["V-B:TYR:539:CD1:9845, V-B:TYR:539:C:9839, V-B:ASP:366:CG:8184, V-B:PRO:540:C:9853, V-B:TYR:539:CE1:9847, V-B:GLU:543:CD:9880, V-B:PRO:540:CB:9857, V-B:PRO:540:CA:9855, H-B:ASP:366:OD2:8186, V-B:ARG:545:CZ:9898, V-B:ASN:362:CB:8147, V-A:ASP:366:CG:3210, V-B:PRO:540:N:9856, H-B:TYR:531:OH:9767, V-B:TYR:539:CE2:9848, V-B:ILE:538:CB:9834, H-B:TYR:539:N:9842, V-B:TYR:539:CZ:9849, V-B:ILE:538:CG2:9835, V-B:MET:535:CE:9807, H-A:TYR:531:OH:4793, V-B:TYR:531:CZ:9766, V-A:ASP:366:CB:3209, V-B:TYR:531:CE2:9765, V-B:LEU:363:CD1:8160, V-B:ASN:362:C:8143, V-B:LEU:363:CA:8156"]

$$$$
1h_Grossjean_2025
     RDKit          3D

 51 52  0  0  0  0  0  0  0  0999 V2000
  126.0880  124.1000   56.7800 C   0  0  0  0  0  0  0  0  0  0  0  0
  126.8660  124.8310   57.7220 O   0  0  0  0  0  0  0  0  0  0  0  0
  127.6580  125.8760   57.2820 C   0  0  0  0  0  0  0  0  0  0  0  0
  127.2810  127.2270   57.3480 C   0  0  0  0  0  0  0  0  0  0  0  0
  128.1260  128.2290   56.8720 C   0  0  0  0  0  0  0  0  0  0  0  0
  127.7140  129.6950   56.9710 C   0  0  0  0  0  0  0  0  0  0  0  0
  127.8550  130.2630   58.3120 N   0  0  0  0  0  0  0  0  0  0  0  0
  126.8760  130.8710   59.0050 C   0  0  0  0  0  0  0  0  0  0  0  0
  125.7230  130.9970   58.5910 O   0  0  0  0  0  0  0  0  0  0  0  0
  127.2570  131.4300   60.3760 C   0  0  0  0  0  0  0  0  0  0  0  0
  128.3220  132.8970   60.2410 S   0  0  0  0  0  0  0  0  0  0  0  0
  130.0150  132.3440   60.1210 C   0  0  0  0  0  0  0  0  0  0  0  0
  130.6260  132.0540   61.3000 N   0  0  0  0  0  0  0  0  0  0  0  0
  131.9090  131.6240   61.2810 C   0  0  0  0  0  0  0  0  0  0  0  0
  132.5200  131.3170   62.6350 C   0  0  0  0  0  0  0  0  0  0  0  0
  132.6330  131.4690   60.1010 C   0  0  0  0  0  0  0  0  0  0  0  0
  132.0160  131.7660   58.8810 C   0  0  0  0  0  0  0  0  0  0  0  0
  132.8270  131.5870   57.5990 C   0  0  0  0  0  0  0  0  0  0  0  0
  130.6760  132.2160   58.8770 C   0  0  0  0  0  0  0  0  0  0  0  0
  130.0050  132.5370   57.6150 C   0  0  0  0  0  0  0  0  0  0  0  0
  129.4760  132.7910   56.6170 N   0  0  0  0  0  0  0  0  0  0  0  0
  129.3770  127.8880   56.3560 C   0  0  0  0  0  0  0  0  0  0  0  0
  129.7830  126.5460   56.2820 C   0  0  0  0  0  0  0  0  0  0  0  0
  131.0050  126.1350   55.7820 O   0  0  0  0  0  0  0  0  0  0  0  0
  132.0360  125.7490   56.6850 C   0  0  0  0  0  0  0  0  0  0  0  0
  128.9090  125.5480   56.7390 C   0  0  0  0  0  0  0  0  0  0  0  0
  129.2940  124.2310   56.6780 O   0  0  0  0  0  0  0  0  0  0  0  0
  129.4380  123.6120   57.9490 C   0  0  0  0  0  0  0  0  0  0  0  0
  125.3876  123.4419   57.3150 H   0  0  0  0  0  0  0  0  0  0  0  0
  125.5227  124.8012   56.1486 H   0  0  0  0  0  0  0  0  0  0  0  0
  126.7527  123.4921   56.1486 H   0  0  0  0  0  0  0  0  0  0  0  0
  126.3068  127.4984   57.7807 H   0  0  0  0  0  0  0  0  0  0  0  0
  128.3412  130.2780   56.2806 H   0  0  0  0  0  0  0  0  0  0  0  0
  126.6452  129.7434   56.7154 H   0  0  0  0  0  0  0  0  0  0  0  0
  128.7770  130.2150   58.7200 H   0  0  0  0  0  0  0  0  0  0  0  0
  126.3386  131.7062   60.9147 H   0  0  0  0  0  0  0  0  0  0  0  0
  127.8166  130.6524   60.9165 H   0  0  0  0  0  0  0  0  0  0  0  0
  131.8405  131.6584   63.4298 H   0  0  0  0  0  0  0  0  0  0  0  0
  132.6781  130.2324   62.7285 H   0  0  0  0  0  0  0  0  0  0  0  0
  133.4845  131.8375   62.7285 H   0  0  0  0  0  0  0  0  0  0  0  0
  133.6752  131.1180   60.1281 H   0  0  0  0  0  0  0  0  0  0  0  0
  133.8716  131.3564   57.8551 H   0  0  0  0  0  0  0  0  0  0  0  0
  132.4031  130.7608   57.0093 H   0  0  0  0  0  0  0  0  0  0  0  0
  132.7903  132.5149   57.0093 H   0  0  0  0  0  0  0  0  0  0  0  0
  130.0533  128.6804   56.0029 H   0  0  0  0  0  0  0  0  0  0  0  0
  131.6855  125.8802   57.7194 H   0  0  0  0  0  0  0  0  0  0  0  0
  132.2946  124.6932   56.5166 H   0  0  0  0  0  0  0  0  0  0  0  0
  132.9244  126.3754   56.5166 H   0  0  0  0  0  0  0  0  0  0  0  0
  129.2650  124.3558   58.7408 H   0  0  0  0  0  0  0  0  0  0  0  0
  128.7055  122.7970   58.0450 H   0  0  0  0  0  0  0  0  0  0  0  0
  130.4550  123.2040   58.0450 H   0  0  0  0  0  0  0  0  0  0  0  0
  1  2  1  0
  2  3  1  0
  3  4  2  0
  4  5  1  0
  5  6  1  0
  6  7  1  0
  7  8  1  0
  8  9  2  0
  8 10  1  0
 10 11  1  0
 11 12  1  0
 12 13  2  0
 13 14  1  0
 14 15  1  0
 14 16  2  0
 16 17  1  0
 17 18  1  0
 17 19  2  0
 19 20  1  0
 20 21  3  0
  5 22  2  0
 22 23  1  0
 23 24  1  0
 24 25  1  0
 23 26  2  0
 26 27  1  0
 27 28  1  0
 26  3  1  0
 19 12  1  0
  1 29  1  0
  1 30  1  0
  1 31  1  0
  4 32  1  0
  6 33  1  0
  6 34  1  0
  7 35  1  0
 10 36  1  0
 10 37  1  0
 15 38  1  0
 15 39  1  0
 15 40  1  0
 16 41  1  0
 18 42  1  0
 18 43  1  0
 18 44  1  0
 22 45  1  0
 25 46  1  0
 25 47  1  0
 25 48  1  0
 28 49  1  0
 28 50  1  0
 28 51  1  0
M  END
>  <Binding energies>  (1) 
[-6.58]

>  <Ligand effiencies>  (1) 
[-0.22689655172413795]

>  <Interactions>  (1) 
["V-B:TYR:539:CD1:9845, V-B:TYR:539:CE1:9847, V-A:ARG:545:CZ:4924, H-B:TYR:531:OH:9767, V-A:GLU:543:CD:4906, V-A:TYR:539:CE1:4873, V-A:TYR:539:C:4865, V-A:PRO:540:CA:4881, V-A:PRO:540:CB:4883, V-A:PRO:540:N:4882, V-A:LEU:363:CD1:3186, V-A:MET:535:CE:4833, V-B:TYR:539:CZ:9849, V-A:TYR:531:CZ:4792, V-B:MET:535:CE:9807, H-A:TYR:531:OH:4793, V-A:TYR:539:CZ:4875, V-A:ASP:366:CB:3209, V-A:TYR:531:CE1:4790, V-A:PRO:540:C:4879, H-A:TYR:539:OH:4876, H-A:TYR:539:N:4868, V-A:ASN:362:CB:3173, H-A:ALA:541:N:4889, V-A:ALA:541:C:4886"]

$$$$
1i_Grossjean_2025
     RDKit          3D

 32 33  0  0  0  0  0  0  0  0999 V2000
  124.9780  123.8560   62.2560 C   0  0  0  0  0  0  0  0  0  0  0  0
  125.6490  123.5140   60.9390 C   0  0  0  0  0  0  0  0  0  0  0  0
  124.9500  123.5450   59.7350 C   0  0  0  0  0  0  0  0  0  0  0  0
  125.6240  123.2290   58.5500 C   0  0  0  0  0  0  0  0  0  0  0  0
  124.8410  123.2870   57.2390 C   0  0  0  0  0  0  0  0  0  0  0  0
  126.9940  122.8820   58.6050 C   0  0  0  0  0  0  0  0  0  0  0  0
  127.7310  122.5970   57.3710 C   0  0  0  0  0  0  0  0  0  0  0  0
  128.3110  122.3740   56.3950 N   0  0  0  0  0  0  0  0  0  0  0  0
  127.6160  122.8530   59.8750 C   0  0  0  0  0  0  0  0  0  0  0  0
  129.3280  122.4370   60.1280 S   0  0  0  0  0  0  0  0  0  0  0  0
  129.5240  121.9520   61.8700 C   0  0  0  0  0  0  0  0  0  0  0  0
  130.7900  122.5440   62.4930 C   0  0  0  0  0  0  0  0  0  0  0  0
  131.8890  122.0910   62.1710 O   0  0  0  0  0  0  0  0  0  0  0  0
  130.5900  123.5510   63.3710 N   0  0  0  0  0  0  0  0  0  0  0  0
  131.5560  124.2550   64.0770 C   0  0  0  0  0  0  0  0  0  0  0  0
  131.2470  125.2400   65.0130 C   0  0  0  0  0  0  0  0  0  0  0  0
  132.4620  125.6860   65.4780 C   0  0  0  0  0  0  0  0  0  0  0  0
  133.4520  125.0060   64.8530 O   0  0  0  0  0  0  0  0  0  0  0  0
  132.8650  124.1030   63.9650 N   0  0  0  0  0  0  0  0  0  0  0  0
  126.9590  123.1790   61.0160 N   0  0  0  0  0  0  0  0  0  0  0  0
  125.6179  123.5298   63.0891 H   0  0  0  0  0  0  0  0  0  0  0  0
  124.8226  124.9433   62.3169 H   0  0  0  0  0  0  0  0  0  0  0  0
  124.0069  123.3429   62.3169 H   0  0  0  0  0  0  0  0  0  0  0  0
  123.8836  123.8140   59.7157 H   0  0  0  0  0  0  0  0  0  0  0  0
  123.7658  123.3666   57.4573 H   0  0  0  0  0  0  0  0  0  0  0  0
  125.1631  124.1637   56.6580 H   0  0  0  0  0  0  0  0  0  0  0  0
  125.0304  122.3724   56.6580 H   0  0  0  0  0  0  0  0  0  0  0  0
  128.6505  122.3060   62.4372 H   0  0  0  0  0  0  0  0  0  0  0  0
  129.6077  120.8559   61.9092 H   0  0  0  0  0  0  0  0  0  0  0  0
  129.6340  123.8090   63.5710 H   0  0  0  0  0  0  0  0  0  0  0  0
  130.2474  125.5860   65.3147 H   0  0  0  0  0  0  0  0  0  0  0  0
  132.6064  126.4697   66.2363 H   0  0  0  0  0  0  0  0  0  0  0  0
  1  2  1  0
  2  3  2  0
  3  4  1  0
  4  5  1  0
  4  6  2  0
  6  7  1  0
  7  8  3  0
  6  9  1  0
  9 10  1  0
 10 11  1  0
 11 12  1  0
 12 13  2  0
 12 14  1  0
 14 15  1  0
 15 16  1  0
 16 17  2  0
 17 18  1  0
 18 19  1  0
  9 20  2  0
 20  2  1  0
 19 15  2  0
  1 21  1  0
  1 22  1  0
  1 23  1  0
  3 24  1  0
  5 25  1  0
  5 26  1  0
  5 27  1  0
 11 28  1  0
 11 29  1  0
 14 30  1  0
 16 31  1  0
 17 32  1  0
M  END
>  <Binding energies>  (1) 
[-7.95]

>  <Ligand effiencies>  (1) 
[-0.37857142857142856]

>  <Interactions>  (1) 
["V-A:LEU:475:CD2:4256, H-A:TYR:484:OH:4345, V-B:TYR:539:CD1:9845, V-B:TYR:539:C:9839, V-B:PRO:540:C:9853, V-B:GLU:543:CD:9880, V-B:PRO:540:CB:9857, V-A:ARG:545:CZ:4924, V-B:PRO:540:CA:9855, V-B:ALA:541:CB:9864, V-B:ARG:545:CZ:9898, V-B:ASN:362:CB:8147, H-B:GLU:543:OE1:9881, V-B:PRO:540:N:9856, V-A:ARG:545:CD:4921, V-A:ARG:545:CG:4920, H-A:ARG:545:NE:4922, H-B:TYR:539:N:9842, V-B:PRO:540:CD:9859, V-B:TYR:539:CA:9841, H-B:ALA:541:N:9863, V-B:LEU:363:CD1:8160, H-A:GLY:454:N:4047"]

$$$$
1j_Grossjean_2025
     RDKit          3D

 32 33  0  0  0  0  0  0  0  0999 V2000
  132.6460  131.3580   62.4480 C   0  0  0  0  0  0  0  0  0  0  0  0
  132.0000  131.6720   61.1110 C   0  0  0  0  0  0  0  0  0  0  0  0
  132.7020  131.5420   59.9140 C   0  0  0  0  0  0  0  0  0  0  0  0
  132.0510  131.8330   58.7110 C   0  0  0  0  0  0  0  0  0  0  0  0
  132.8350  131.6660   57.4100 C   0  0  0  0  0  0  0  0  0  0  0  0
  130.7040  132.2580   58.7390 C   0  0  0  0  0  0  0  0  0  0  0  0
  129.9870  132.5170   57.4880 C   0  0  0  0  0  0  0  0  0  0  0  0
  129.4230  132.7200   56.4980 N   0  0  0  0  0  0  0  0  0  0  0  0
  130.0780  132.3870   60.0020 C   0  0  0  0  0  0  0  0  0  0  0  0
  128.3920  132.9110   60.2240 S   0  0  0  0  0  0  0  0  0  0  0  0
  128.1760  133.3500   61.9740 C   0  0  0  0  0  0  0  0  0  0  0  0
  127.2430  132.3780   62.6990 C   0  0  0  0  0  0  0  0  0  0  0  0
  126.1150  132.1740   62.2490 O   0  0  0  0  0  0  0  0  0  0  0  0
  127.7520  131.8010   63.8090 N   0  0  0  0  0  0  0  0  0  0  0  0
  127.1100  130.8950   64.6410 C   0  0  0  0  0  0  0  0  0  0  0  0
  127.6260  130.2050   65.6350 N   0  0  0  0  0  0  0  0  0  0  0  0
  126.7230  129.4380   66.2120 C   0  0  0  0  0  0  0  0  0  0  0  0
  125.4360  129.4980   65.6850 C   0  0  0  0  0  0  0  0  0  0  0  0
  125.4200  130.6240   64.3610 S   0  0  0  0  0  0  0  0  0  0  0  0
  130.7110  132.0820   61.1620 N   0  0  0  0  0  0  0  0  0  0  0  0
  131.9804  131.6815   63.2618 H   0  0  0  0  0  0  0  0  0  0  0  0
  132.8203  130.2747   62.5256 H   0  0  0  0  0  0  0  0  0  0  0  0
  133.6055  131.8902   62.5256 H   0  0  0  0  0  0  0  0  0  0  0  0
  133.7524  131.2154   59.9155 H   0  0  0  0  0  0  0  0  0  0  0  0
  133.8867  131.4420   57.6418 H   0  0  0  0  0  0  0  0  0  0  0  0
  132.4042  130.8395   56.8258 H   0  0  0  0  0  0  0  0  0  0  0  0
  132.7784  132.5963   56.8258 H   0  0  0  0  0  0  0  0  0  0  0  0
  129.1587  133.3338   62.4679 H   0  0  0  0  0  0  0  0  0  0  0  0
  127.7238  134.3518   62.0192 H   0  0  0  0  0  0  0  0  0  0  0  0
  128.6840  132.0690   64.0900 H   0  0  0  0  0  0  0  0  0  0  0  0
  126.9724  128.7867   67.0626 H   0  0  0  0  0  0  0  0  0  0  0  0
  124.5695  128.9256   66.0477 H   0  0  0  0  0  0  0  0  0  0  0  0
  1  2  1  0
  2  3  2  0
  3  4  1  0
  4  5  1  0
  4  6  2  0
  6  7  1  0
  7  8  3  0
  6  9  1  0
  9 10  1  0
 10 11  1  0
 11 12  1  0
 12 13  2  0
 12 14  1  0
 14 15  1  0
 15 16  2  0
 16 17  1  0
 17 18  2  0
 18 19  1  0
  9 20  2  0
 20  2  1  0
 19 15  1  0
  1 21  1  0
  1 22  1  0
  1 23  1  0
  3 24  1  0
  5 25  1  0
  5 26  1  0
  5 27  1  0
 11 28  1  0
 11 29  1  0
 14 30  1  0
 17 31  1  0
 18 32  1  0
M  END
>  <Binding energies>  (1) 
[-7.03]

>  <Ligand effiencies>  (1) 
[-0.33476190476190476]

>  <Interactions>  (1) 
["V-B:HIS:456:CE1:9040, V-A:ARG:545:CZ:4924, V-B:ARG:545:CZ:9898, H-A:GLU:543:OE1:4907, V-A:GLU:543:CD:4906, V-A:TYR:539:C:4865, V-A:ALA:541:CB:4890, V-A:PRO:540:CA:4881, V-B:ARG:545:CD:9895, V-A:PRO:540:CB:4883, V-A:PRO:540:N:4882, V-A:LEU:363:CD1:3186, V-A:TYR:531:CE2:4791, H-B:TYR:484:OH:9319, V-A:PRO:540:C:4879, H-A:TYR:539:N:4868, V-A:ASN:362:CB:3173, H-A:ALA:541:N:4889"]

$$$$
1k_Grossjean_2025
     RDKit          3D

 50 50  0  0  0  0  0  0  0  0999 V2000
  131.4470  132.2500   56.6400 C   0  0  0  0  0  0  0  0  0  0  0  0
  130.2390  132.9790   56.4990 O   0  0  0  0  0  0  0  0  0  0  0  0
  129.3830  132.8830   57.6300 C   0  0  0  0  0  0  0  0  0  0  0  0
  129.3060  131.4210   58.0910 C   0  0  0  0  0  0  0  0  0  0  0  0
  127.9960  130.9200   57.8570 O   0  0  0  0  0  0  0  0  0  0  0  0
  127.6570  130.8300   56.4790 C   0  0  0  0  0  0  0  0  0  0  0  0
  126.4350  129.9190   56.3140 C   0  0  0  0  0  0  0  0  0  0  0  0
  126.8650  128.5730   56.1510 O   0  0  0  0  0  0  0  0  0  0  0  0
  128.2720  128.4060   56.2650 C   0  0  0  0  0  0  0  0  0  0  0  0
  128.5840  127.4270   57.4130 C   0  0  0  0  0  0  0  0  0  0  0  0
  128.6620  126.0270   56.9970 N   0  0  0  0  0  0  0  0  0  0  0  0
  129.6520  125.4910   56.2610 C   0  0  0  0  0  0  0  0  0  0  0  0
  130.6180  126.1410   55.8580 O   0  0  0  0  0  0  0  0  0  0  0  0
  129.5030  123.9950   55.9400 C   0  0  0  0  0  0  0  0  0  0  0  0
  127.8960  123.2470   56.3820 S   0  0  0  0  0  0  0  0  0  0  0  0
  127.7330  123.2170   58.1610 C   0  0  0  0  0  0  0  0  0  0  0  0
  128.8370  122.8310   58.8520 N   0  0  0  0  0  0  0  0  0  0  0  0
  128.7780  122.7770   60.2020 C   0  0  0  0  0  0  0  0  0  0  0  0
  130.0480  122.3290   60.9000 C   0  0  0  0  0  0  0  0  0  0  0  0
  127.6300  123.1090   60.9180 C   0  0  0  0  0  0  0  0  0  0  0  0
  126.4880  123.5150   60.2200 C   0  0  0  0  0  0  0  0  0  0  0  0
  125.2410  123.8740   61.0230 C   0  0  0  0  0  0  0  0  0  0  0  0
  126.5280  123.5740   58.8090 C   0  0  0  0  0  0  0  0  0  0  0  0
  125.3450  123.9930   58.0510 C   0  0  0  0  0  0  0  0  0  0  0  0
  124.4100  124.3230   57.4530 N   0  0  0  0  0  0  0  0  0  0  0  0
  131.6711  132.1148   57.7084 H   0  0  0  0  0  0  0  0  0  0  0  0
  131.3395  131.2659   56.1605 H   0  0  0  0  0  0  0  0  0  0  0  0
  132.2676  132.8038   56.1605 H   0  0  0  0  0  0  0  0  0  0  0  0
  129.7820  133.5041   58.4455 H   0  0  0  0  0  0  0  0  0  0  0  0
  128.3768  133.2355   57.3592 H   0  0  0  0  0  0  0  0  0  0  0  0
  130.0348  130.8198   57.5277 H   0  0  0  0  0  0  0  0  0  0  0  0
  129.5353  131.3621   59.1652 H   0  0  0  0  0  0  0  0  0  0  0  0
  127.4221  131.8327   56.0925 H   0  0  0  0  0  0  0  0  0  0  0  0
  128.5058  130.4116   55.9182 H   0  0  0  0  0  0  0  0  0  0  0  0
  125.7980  129.9947   57.2076 H   0  0  0  0  0  0  0  0  0  0  0  0
  125.8626  130.2307   55.4279 H   0  0  0  0  0  0  0  0  0  0  0  0
  128.6707  128.0037   55.3220 H   0  0  0  0  0  0  0  0  0  0  0  0
  128.7398  129.3788   56.4767 H   0  0  0  0  0  0  0  0  0  0  0  0
  129.5501  127.7104   57.8562 H   0  0  0  0  0  0  0  0  0  0  0  0
  127.7517  127.5002   58.1284 H   0  0  0  0  0  0  0  0  0  0  0  0
  127.9010  125.4310   57.2900 H   0  0  0  0  0  0  0  0  0  0  0  0
  129.6501  123.8652   54.8576 H   0  0  0  0  0  0  0  0  0  0  0  0
  130.2538  123.4794   56.5568 H   0  0  0  0  0  0  0  0  0  0  0  0
  129.9049  122.3795   61.9895 H   0  0  0  0  0  0  0  0  0  0  0  0
  130.2812  121.2943   60.6083 H   0  0  0  0  0  0  0  0  0  0  0  0
  130.8788  122.9883   60.6083 H   0  0  0  0  0  0  0  0  0  0  0  0
  127.6218  123.0526   62.0165 H   0  0  0  0  0  0  0  0  0  0  0  0
  125.4658  123.8093   62.0978 H   0  0  0  0  0  0  0  0  0  0  0  0
  124.9276  124.8988   60.7750 H   0  0  0  0  0  0  0  0  0  0  0  0
  124.4307  123.1727   60.7750 H   0  0  0  0  0  0  0  0  0  0  0  0
  1  2  1  0
  2  3  1  0
  3  4  1  0
  4  5  1  0
  5  6  1  0
  6  7  1  0
  7  8  1  0
  8  9  1  0
  9 10  1  0
 10 11  1  0
 11 12  1  0
 12 13  2  0
 12 14  1  0
 14 15  1  0
 15 16  1  0
 16 17  2  0
 17 18  1  0
 18 19  1  0
 18 20  2  0
 20 21  1  0
 21 22  1  0
 21 23  2  0
 23 24  1  0
 24 25  3  0
 23 16  1  0
  1 26  1  0
  1 27  1  0
  1 28  1  0
  3 29  1  0
  3 30  1  0
  4 31  1  0
  4 32  1  0
  6 33  1  0
  6 34  1  0
  7 35  1  0
  7 36  1  0
  9 37  1  0
  9 38  1  0
 10 39  1  0
 10 40  1  0
 11 41  1  0
 14 42  1  0
 14 43  1  0
 19 44  1  0
 19 45  1  0
 19 46  1  0
 20 47  1  0
 22 48  1  0
 22 49  1  0
 22 50  1  0
M  END
>  <Binding energies>  (1) 
[-5.94]

>  <Ligand effiencies>  (1) 
[-0.22846153846153847]

>  <Interactions>  (1) 
["V-B:TYR:539:CD1:9845, V-B:TYR:539:C:9839, V-B:PRO:540:C:9853, V-B:TYR:539:CE1:9847, V-B:PRO:540:CB:9857, V-B:PRO:540:CA:9855, V-B:PRO:540:N:9856, H-B:TYR:531:OH:9767, V-A:TYR:539:CE1:4873, V-A:TYR:539:C:4865, V-A:TYR:539:CD1:4871, V-A:PRO:540:N:4882, V-A:TYR:539:CA:4867, V-B:TYR:539:CE2:9848, V-A:TYR:539:CG:4870, V-A:ILE:538:CB:4860, V-A:MET:535:CE:4833, V-B:TYR:539:CZ:9849, V-B:MET:535:CE:9807, H-A:TYR:531:OH:4793, V-A:TYR:539:CZ:4875, H-A:TYR:539:N:4868"]

$$$$
1l_Grossjean_2025
     RDKit          3D

 30 30  0  0  0  0  0  0  0  0999 V2000
  131.0690  117.3200   60.0110 C   0  0  0  0  0  0  0  0  0  0  0  0
  131.0780  118.0910   61.2050 O   0  0  0  0  0  0  0  0  0  0  0  0
  130.2550  119.2070   61.0560 N   0  0  0  0  0  0  0  0  0  0  0  0
  130.7570  120.4280   61.3220 C   0  0  0  0  0  0  0  0  0  0  0  0
  131.9600  120.6560   61.4710 O   0  0  0  0  0  0  0  0  0  0  0  0
  129.7170  121.5530   61.4150 C   0  0  0  0  0  0  0  0  0  0  0  0
  129.3320  122.3820   59.8350 S   0  0  0  0  0  0  0  0  0  0  0  0
  127.6290  122.9120   59.8850 C   0  0  0  0  0  0  0  0  0  0  0  0
  127.1300  123.1790   61.1200 N   0  0  0  0  0  0  0  0  0  0  0  0
  125.8430  123.5850   61.2320 C   0  0  0  0  0  0  0  0  0  0  0  0
  125.3600  123.8630   62.6430 C   0  0  0  0  0  0  0  0  0  0  0  0
  125.0070  123.7420   60.1300 C   0  0  0  0  0  0  0  0  0  0  0  0
  125.5090  123.4720   58.8520 C   0  0  0  0  0  0  0  0  0  0  0  0
  124.5740  123.6530   57.6570 C   0  0  0  0  0  0  0  0  0  0  0  0
  126.8480  123.0470   58.7130 C   0  0  0  0  0  0  0  0  0  0  0  0
  127.4010  122.7560   57.3860 C   0  0  0  0  0  0  0  0  0  0  0  0
  127.8360  122.5280   56.3390 N   0  0  0  0  0  0  0  0  0  0  0  0
  131.0565  116.2499   60.2656 H   0  0  0  0  0  0  0  0  0  0  0  0
  130.1737  117.5672   59.4217 H   0  0  0  0  0  0  0  0  0  0  0  0
  131.9698  117.5462   59.4217 H   0  0  0  0  0  0  0  0  0  0  0  0
  129.2760  118.9720   61.1350 H   0  0  0  0  0  0  0  0  0  0  0  0
  128.7848  121.1238   61.8109 H   0  0  0  0  0  0  0  0  0  0  0  0
  130.1553  122.3231   62.0668 H   0  0  0  0  0  0  0  0  0  0  0  0
  126.0793  123.4490   63.3650 H   0  0  0  0  0  0  0  0  0  0  0  0
  125.2733  124.9492   62.7935 H   0  0  0  0  0  0  0  0  0  0  0  0
  124.3772  123.3924   62.7935 H   0  0  0  0  0  0  0  0  0  0  0  0
  123.9665  124.0736   60.2620 H   0  0  0  0  0  0  0  0  0  0  0  0
  123.5534  123.8506   58.0166 H   0  0  0  0  0  0  0  0  0  0  0  0
  124.9185  124.5011   57.0471 H   0  0  0  0  0  0  0  0  0  0  0  0
  124.5771  122.7376   57.0471 H   0  0  0  0  0  0  0  0  0  0  0  0
  1  2  1  0
  2  3  1  0
  3  4  1  0
  4  5  2  0
  4  6  1  0
  6  7  1  0
  7  8  1  0
  8  9  2  0
  9 10  1  0
 10 11  1  0
 10 12  2  0
 12 13  1  0
 13 14  1  0
 13 15  2  0
 15 16  1  0
 16 17  3  0
 15  8  1  0
  1 18  1  0
  1 19  1  0
  1 20  1  0
  3 21  1  0
  6 22  1  0
  6 23  1  0
 11 24  1  0
 11 25  1  0
 11 26  1  0
 12 27  1  0
 14 28  1  0
 14 29  1  0
 14 30  1  0
M  END
>  <Binding energies>  (1) 
[-6.66]

>  <Ligand effiencies>  (1) 
[-0.37]

>  <Interactions>  (1) 
["V-A:LEU:475:CD2:4256, V-B:TYR:539:CD1:9845, V-B:TYR:539:C:9839, V-B:ASP:366:CG:8184, V-B:PRO:540:C:9853, H-B:TYR:539:O:9840, V-B:TYR:539:CE1:9847, V-B:GLU:543:CD:9880, V-B:PRO:540:CB:9857, V-B:PRO:540:CA:9855, V-B:ALA:541:CB:9864, V-B:ARG:545:CZ:9898, V-B:ASN:362:CB:8147, V-B:PRO:540:N:9856, V-B:TYR:539:CG:9844, H-B:TYR:539:N:9842, V-A:PRO:482:CG:4324, V-A:PRO:482:CB:4323, H-B:ALA:541:N:9863, V-B:LEU:363:CD1:8160, V-B:TYR:539:CB:9843"]

$$$$
1m_Grossjean_2025
     RDKit          3D

 35 35  0  0  0  0  0  0  0  0999 V2000
  124.8900  122.6590   56.7780 C   0  0  0  0  0  0  0  0  0  0  0  0
  126.2260  122.3450   56.4090 O   0  0  0  0  0  0  0  0  0  0  0  0
  127.2270  122.4420   57.3080 C   0  0  0  0  0  0  0  0  0  0  0  0
  128.3860  122.0530   57.1360 O   0  0  0  0  0  0  0  0  0  0  0  0
  126.7540  123.1210   58.6100 C   0  0  0  0  0  0  0  0  0  0  0  0
  127.7640  123.0730   59.6780 N   0  0  0  0  0  0  0  0  0  0  0  0
  127.5140  123.1230   61.0000 C   0  0  0  0  0  0  0  0  0  0  0  0
  126.3770  123.2340   61.4640 O   0  0  0  0  0  0  0  0  0  0  0  0
  128.7460  123.0410   61.9100 C   0  0  0  0  0  0  0  0  0  0  0  0
  130.1340  122.0700   61.2290 S   0  0  0  0  0  0  0  0  0  0  0  0
  131.0930  123.1410   60.1800 C   0  0  0  0  0  0  0  0  0  0  0  0
  130.3400  123.8890   59.3340 N   0  0  0  0  0  0  0  0  0  0  0  0
  130.9630  124.7460   58.4930 C   0  0  0  0  0  0  0  0  0  0  0  0
  130.0550  125.5620   57.5920 C   0  0  0  0  0  0  0  0  0  0  0  0
  132.3480  124.8850   58.4500 C   0  0  0  0  0  0  0  0  0  0  0  0
  133.1360  124.1000   59.2980 C   0  0  0  0  0  0  0  0  0  0  0  0
  134.6530  124.2570   59.2230 C   0  0  0  0  0  0  0  0  0  0  0  0
  132.5080  123.1960   60.1860 C   0  0  0  0  0  0  0  0  0  0  0  0
  133.3160  122.3290   61.0480 C   0  0  0  0  0  0  0  0  0  0  0  0
  133.9530  121.6450   61.7280 N   0  0  0  0  0  0  0  0  0  0  0  0
  124.8074  122.6784   57.8747 H   0  0  0  0  0  0  0  0  0  0  0  0
  124.6197  123.6451   56.3724 H   0  0  0  0  0  0  0  0  0  0  0  0
  124.2087  121.8965   56.3724 H   0  0  0  0  0  0  0  0  0  0  0  0
  126.5221  124.1741   58.3928 H   0  0  0  0  0  0  0  0  0  0  0  0
  125.8693  122.5731   58.9664 H   0  0  0  0  0  0  0  0  0  0  0  0
  128.7260  123.0080   59.3750 H   0  0  0  0  0  0  0  0  0  0  0  0
  129.1029  124.0646   62.0966 H   0  0  0  0  0  0  0  0  0  0  0  0
  128.4229  122.5220   62.8244 H   0  0  0  0  0  0  0  0  0  0  0  0
  129.3775  126.1708   58.2087 H   0  0  0  0  0  0  0  0  0  0  0  0
  130.6649  126.2214   56.9570 H   0  0  0  0  0  0  0  0  0  0  0  0
  129.4643  124.8853   56.9570 H   0  0  0  0  0  0  0  0  0  0  0  0
  132.8155  125.6019   57.7590 H   0  0  0  0  0  0  0  0  0  0  0  0
  135.0679  124.2999   60.2408 H   0  0  0  0  0  0  0  0  0  0  0  0
  135.0844  123.3987   58.6871 H   0  0  0  0  0  0  0  0  0  0  0  0
  134.8995  125.1855   58.6871 H   0  0  0  0  0  0  0  0  0  0  0  0
  1  2  1  0
  2  3  1  0
  3  4  2  0
  3  5  1  0
  5  6  1  0
  6  7  1  0
  7  8  2  0
  7  9  1  0
  9 10  1  0
 10 11  1  0
 11 12  2  0
 12 13  1  0
 13 14  1  0
 13 15  2  0
 15 16  1  0
 16 17  1  0
 16 18  2  0
 18 19  1  0
 19 20  3  0
 18 11  1  0
  1 21  1  0
  1 22  1  0
  1 23  1  0
  5 24  1  0
  5 25  1  0
  6 26  1  0
  9 27  1  0
  9 28  1  0
 14 29  1  0
 14 30  1  0
 14 31  1  0
 15 32  1  0
 17 33  1  0
 17 34  1  0
 17 35  1  0
M  END
>  <Binding energies>  (1) 
[-5.86]

>  <Ligand effiencies>  (1) 
[-0.27904761904761904]

>  <Interactions>  (1) 
["V-B:TYR:539:CD1:9845, V-B:TYR:539:C:9839, V-B:PRO:540:C:9853, H-B:TYR:539:O:9840, V-B:TYR:539:CE1:9847, V-B:PRO:540:CB:9857, V-B:PRO:540:CA:9855, V-B:ALA:541:CB:9864, V-A:ASP:366:CG:3210, V-B:PRO:540:N:9856, V-A:ILE:369:CD1:3236, V-B:ILE:538:CB:9834, H-B:TYR:539:N:9842, V-B:PRO:540:CD:9859, V-B:TYR:539:CZ:9849, V-B:TYR:539:CA:9841, V-B:ILE:538:CG2:9835, V-A:ILE:369:CG2:3234, V-A:ILE:369:CB:3233, H-B:ALA:541:N:9863, V-A:ASP:366:C:3205, V-A:ASP:366:CB:3209, V-A:ASP:366:CA:3207, V-B:PRO:540:CG:9858, V-B:LEU:363:CD1:8160, V-A:ILE:369:CG1:3235"]

$$$$
1n_Grossjean_2025
     RDKit          3D

 48 49  0  0  0  0  0  0  0  0999 V2000
  124.3450  122.7900   57.2460 C   0  0  0  0  0  0  0  0  0  0  0  0
  125.2970  123.0520   56.0750 C   0  0  0  0  0  0  0  0  0  0  0  0
  126.5070  122.3340   56.2800 O   0  0  0  0  0  0  0  0  0  0  0  0
  127.4400  122.7710   57.1650 C   0  0  0  0  0  0  0  0  0  0  0  0
  128.2560  122.0270   57.7170 O   0  0  0  0  0  0  0  0  0  0  0  0
  127.3900  124.2550   57.3950 C   0  0  0  0  0  0  0  0  0  0  0  0
  126.5570  124.8270   58.3700 C   0  0  0  0  0  0  0  0  0  0  0  0
  126.5320  126.2060   58.5560 C   0  0  0  0  0  0  0  0  0  0  0  0
  127.3280  127.0410   57.7700 C   0  0  0  0  0  0  0  0  0  0  0  0
  127.2200  128.4190   58.0390 N   0  0  0  0  0  0  0  0  0  0  0  0
  126.8330  129.4290   57.2300 C   0  0  0  0  0  0  0  0  0  0  0  0
  126.4820  129.3090   56.0570 O   0  0  0  0  0  0  0  0  0  0  0  0
  126.8420  130.8270   57.8640 C   0  0  0  0  0  0  0  0  0  0  0  0
  127.5500  130.8650   59.2350 C   0  0  0  0  0  0  0  0  0  0  0  0
  128.3940  132.4330   59.6040 S   0  0  0  0  0  0  0  0  0  0  0  0
  130.1460  132.1250   59.5630 C   0  0  0  0  0  0  0  0  0  0  0  0
  130.6830  131.8800   60.7840 N   0  0  0  0  0  0  0  0  0  0  0  0
  132.0080  131.6160   60.8720 C   0  0  0  0  0  0  0  0  0  0  0  0
  132.5350  131.3420   62.2670 C   0  0  0  0  0  0  0  0  0  0  0  0
  132.8450  131.5920   59.7580 C   0  0  0  0  0  0  0  0  0  0  0  0
  132.3050  131.8640   58.4960 C   0  0  0  0  0  0  0  0  0  0  0  0
  133.2440  131.8450   57.2920 C   0  0  0  0  0  0  0  0  0  0  0  0
  130.9240  132.1470   58.3820 C   0  0  0  0  0  0  0  0  0  0  0  0
  130.3480  132.4850   57.0790 C   0  0  0  0  0  0  0  0  0  0  0  0
  129.8950  132.7530   56.0480 N   0  0  0  0  0  0  0  0  0  0  0  0
  128.1700  126.4760   56.8020 C   0  0  0  0  0  0  0  0  0  0  0  0
  128.1970  125.0960   56.6190 C   0  0  0  0  0  0  0  0  0  0  0  0
  124.8815  122.9377   58.1949 H   0  0  0  0  0  0  0  0  0  0  0  0
  123.4966  123.4880   57.1920 H   0  0  0  0  0  0  0  0  0  0  0  0
  123.9732  121.7561   57.1920 H   0  0  0  0  0  0  0  0  0  0  0  0
  124.8267  122.7187   55.1381 H   0  0  0  0  0  0  0  0  0  0  0  0
  125.5147  124.1284   56.0124 H   0  0  0  0  0  0  0  0  0  0  0  0
  125.9197  124.1805   58.9912 H   0  0  0  0  0  0  0  0  0  0  0  0
  125.8803  126.6411   59.3280 H   0  0  0  0  0  0  0  0  0  0  0  0
  127.4310  128.6710   58.9940 H   0  0  0  0  0  0  0  0  0  0  0  0
  127.3610  131.5172   57.1826 H   0  0  0  0  0  0  0  0  0  0  0  0
  125.7944  131.1200   58.0274 H   0  0  0  0  0  0  0  0  0  0  0  0
  126.7960  130.6885   60.0162 H   0  0  0  0  0  0  0  0  0  0  0  0
  128.3293  130.0891   59.2065 H   0  0  0  0  0  0  0  0  0  0  0  0
  131.8158  131.7159   63.0106 H   0  0  0  0  0  0  0  0  0  0  0  0
  132.6714  130.2588   62.4012 H   0  0  0  0  0  0  0  0  0  0  0  0
  133.5001  131.8525   62.4012 H   0  0  0  0  0  0  0  0  0  0  0  0
  133.9150  131.3625   59.8692 H   0  0  0  0  0  0  0  0  0  0  0  0
  134.2870  131.8239   57.6408 H   0  0  0  0  0  0  0  0  0  0  0  0
  133.0425  130.9507   56.6840 H   0  0  0  0  0  0  0  0  0  0  0  0
  133.0789  132.7467   56.6840 H   0  0  0  0  0  0  0  0  0  0  0  0
  128.8106  127.1241   56.1859 H   0  0  0  0  0  0  0  0  0  0  0  0
  128.8598  124.6615   55.8562 H   0  0  0  0  0  0  0  0  0  0  0  0
  1  2  1  0
  2  3  1  0
  3  4  1  0
  4  5  2  0
  4  6  1  0
  6  7  2  0
  7  8  1  0
  8  9  2  0
  9 10  1  0
 10 11  1  0
 11 12  2  0
 11 13  1  0
 13 14  1  0
 14 15  1  0
 15 16  1  0
 16 17  2  0
 17 18  1  0
 18 19  1  0
 18 20  2  0
 20 21  1  0
 21 22  1  0
 21 23  2  0
 23 24  1  0
 24 25  3  0
  9 26  1  0
 26 27  2  0
 27  6  1  0
 23 16  1  0
  1 28  1  0
  1 29  1  0
  1 30  1  0
  2 31  1  0
  2 32  1  0
  7 33  1  0
  8 34  1  0
 10 35  1  0
 13 36  1  0
 13 37  1  0
 14 38  1  0
 14 39  1  0
 19 40  1  0
 19 41  1  0
 19 42  1  0
 20 43  1  0
 22 44  1  0
 22 45  1  0
 22 46  1  0
 26 47  1  0
 27 48  1  0
M  END
>  <Binding energies>  (1) 
[-8.68]

>  <Ligand effiencies>  (1) 
[-0.31]

>  <Interactions>  (1) 
["V-B:TYR:539:C:9839, V-B:ASP:366:CG:8184, V-B:PRO:540:CB:9857, V-A:ARG:545:CZ:4924, V-B:PRO:540:CA:9855, V-A:ASP:366:CG:3210, V-B:PRO:540:N:9856, H-B:TYR:531:OH:9767, V-A:GLU:543:CD:4906, V-A:TYR:539:CE1:4873, V-A:TYR:539:C:4865, V-A:PRO:540:CA:4881, V-A:PRO:540:CB:4883, V-A:PRO:540:N:4882, V-A:LEU:363:CD1:3186, V-B:ILE:538:CB:9834, H-B:TYR:539:N:9842, V-B:PRO:540:CD:9859, V-B:ILE:538:CG2:9835, V-A:TYR:531:CE2:4791, V-B:MET:535:CE:9807, V-A:TYR:539:CZ:4875, V-B:TYR:531:CE2:9765, V-B:PRO:540:CG:9858, V-B:LEU:363:CD1:8160, V-A:PRO:540:C:4879, H-A:TYR:539:N:4868, V-A:LEU:363:CA:3182, V-A:ASN:362:CB:3173, H-A:ALA:541:N:4889"]

$$$$
1o_Grossjean_2025
     RDKit          3D

 45 46  0  0  0  0  0  0  0  0999 V2000
  125.0820  122.7400   56.2870 C   0  0  0  0  0  0  0  0  0  0  0  0
  126.4450  122.3550   56.1830 O   0  0  0  0  0  0  0  0  0  0  0  0
  127.3600  122.7690   57.0980 C   0  0  0  0  0  0  0  0  0  0  0  0
  128.1150  122.0000   57.7010 O   0  0  0  0  0  0  0  0  0  0  0  0
  127.3660  124.2570   57.3000 C   0  0  0  0  0  0  0  0  0  0  0  0
  128.2530  125.0970   56.6120 C   0  0  0  0  0  0  0  0  0  0  0  0
  128.2310  126.4740   56.8210 C   0  0  0  0  0  0  0  0  0  0  0  0
  127.3290  127.0380   57.7240 C   0  0  0  0  0  0  0  0  0  0  0  0
  127.3860  128.4390   57.8520 N   0  0  0  0  0  0  0  0  0  0  0  0
  127.0160  129.4040   56.9810 C   0  0  0  0  0  0  0  0  0  0  0  0
  126.4950  129.2070   55.8820 O   0  0  0  0  0  0  0  0  0  0  0  0
  127.2530  130.8460   57.4510 C   0  0  0  0  0  0  0  0  0  0  0  0
  127.5030  130.9600   58.9680 C   0  0  0  0  0  0  0  0  0  0  0  0
  128.4030  132.4620   59.4570 S   0  0  0  0  0  0  0  0  0  0  0  0
  130.1510  132.1300   59.3580 C   0  0  0  0  0  0  0  0  0  0  0  0
  130.7180  131.8600   60.5610 N   0  0  0  0  0  0  0  0  0  0  0  0
  132.0430  131.5840   60.6090 C   0  0  0  0  0  0  0  0  0  0  0  0
  132.6030  131.2780   61.9850 C   0  0  0  0  0  0  0  0  0  0  0  0
  132.8500  131.5770   59.4740 C   0  0  0  0  0  0  0  0  0  0  0  0
  132.2810  131.8780   58.2320 C   0  0  0  0  0  0  0  0  0  0  0  0
  133.1910  131.8780   57.0050 C   0  0  0  0  0  0  0  0  0  0  0  0
  130.9010  132.1740   58.1580 C   0  0  0  0  0  0  0  0  0  0  0  0
  130.3000  132.5510   56.8760 C   0  0  0  0  0  0  0  0  0  0  0  0
  129.8260  132.8460   55.8620 N   0  0  0  0  0  0  0  0  0  0  0  0
  126.4340  126.2040   58.4130 C   0  0  0  0  0  0  0  0  0  0  0  0
  126.4580  124.8280   58.2010 C   0  0  0  0  0  0  0  0  0  0  0  0
  124.8032  122.8188   57.3482 H   0  0  0  0  0  0  0  0  0  0  0  0
  124.9377  123.7141   55.7967 H   0  0  0  0  0  0  0  0  0  0  0  0
  124.4494  121.9854   55.7967 H   0  0  0  0  0  0  0  0  0  0  0  0
  128.9725  124.6649   55.9010 H   0  0  0  0  0  0  0  0  0  0  0  0
  128.9295  127.1213   56.2704 H   0  0  0  0  0  0  0  0  0  0  0  0
  127.7380  128.7580   58.7420 H   0  0  0  0  0  0  0  0  0  0  0  0
  128.1304  131.2460   56.9216 H   0  0  0  0  0  0  0  0  0  0  0  0
  126.3388  131.4156   57.2279 H   0  0  0  0  0  0  0  0  0  0  0  0
  126.5296  130.9576   59.4803 H   0  0  0  0  0  0  0  0  0  0  0  0
  128.1329  130.1042   59.2524 H   0  0  0  0  0  0  0  0  0  0  0  0
  131.9128  131.6552   62.7540 H   0  0  0  0  0  0  0  0  0  0  0  0
  132.7205  130.1903   62.0995 H   0  0  0  0  0  0  0  0  0  0  0  0
  133.5819  131.7666   62.0995 H   0  0  0  0  0  0  0  0  0  0  0  0
  133.9208  131.3379   59.5531 H   0  0  0  0  0  0  0  0  0  0  0  0
  133.4094  130.8409   56.7105 H   0  0  0  0  0  0  0  0  0  0  0  0
  132.6880  132.3965   56.1755 H   0  0  0  0  0  0  0  0  0  0  0  0
  134.1308  132.3965   57.2455 H   0  0  0  0  0  0  0  0  0  0  0  0
  125.7129  126.6382   59.1212 H   0  0  0  0  0  0  0  0  0  0  0  0
  125.7555  124.1816   58.7476 H   0  0  0  0  0  0  0  0  0  0  0  0
  1  2  1  0
  2  3  1  0
  3  4  2  0
  3  5  1  0
  5  6  2  0
  6  7  1  0
  7  8  2  0
  8  9  1  0
  9 10  1  0
 10 11  2  0
 10 12  1  0
 12 13  1  0
 13 14  1  0
 14 15  1  0
 15 16  2  0
 16 17  1  0
 17 18  1  0
 17 19  2  0
 19 20  1  0
 20 21  1  0
 20 22  2  0
 22 23  1  0
 23 24  3  0
  8 25  1  0
 25 26  2  0
 26  5  1  0
 22 15  1  0
  1 27  1  0
  1 28  1  0
  1 29  1  0
  6 30  1  0
  7 31  1  0
  9 32  1  0
 12 33  1  0
 12 34  1  0
 13 35  1  0
 13 36  1  0
 18 37  1  0
 18 38  1  0
 18 39  1  0
 19 40  1  0
 21 41  1  0
 21 42  1  0
 21 43  1  0
 25 44  1  0
 26 45  1  0
M  END
>  <Binding energies>  (1) 
[-8.53]

>  <Ligand effiencies>  (1) 
[-0.3159259259259259]

>  <Interactions>  (1) 
["V-B:TYR:539:C:9839, V-B:ASP:366:CG:8184, V-A:ARG:545:CZ:4924, V-A:ASP:366:CG:3210, V-B:PRO:540:N:9856, H-B:TYR:531:OH:9767, V-A:TYR:539:CE1:4873, V-A:TYR:539:C:4865, V-A:PRO:540:CA:4881, V-A:PRO:540:CB:4883, V-A:PRO:540:N:4882, V-A:LEU:363:CD1:3186, V-B:ILE:538:CB:9834, H-B:TYR:539:N:9842, V-A:MET:535:CE:4833, V-B:PRO:540:CD:9859, V-B:ILE:538:CG2:9835, V-A:TYR:531:CE2:4791, V-B:MET:535:CE:9807, V-A:TYR:539:CZ:4875, V-B:LEU:363:CD1:8160, H-A:TYR:539:N:4868, V-A:LEU:363:CA:3182, V-A:ASN:362:CB:3173, H-A:ALA:541:N:4889"]

$$$$
1p_Grossjean_2025
     RDKit          3D

 35 36  0  0  0  0  0  0  0  0999 V2000
  132.4820  131.3830   62.6020 C   0  0  0  0  0  0  0  0  0  0  0  0
  131.9720  131.6570   61.2000 C   0  0  0  0  0  0  0  0  0  0  0  0
  132.7860  131.4840   60.0820 C   0  0  0  0  0  0  0  0  0  0  0  0
  132.2670  131.7640   58.8130 C   0  0  0  0  0  0  0  0  0  0  0  0
  133.1810  131.5820   57.6040 C   0  0  0  0  0  0  0  0  0  0  0  0
  130.9300  132.2070   58.6960 C   0  0  0  0  0  0  0  0  0  0  0  0
  130.3780  132.5520   57.3850 C   0  0  0  0  0  0  0  0  0  0  0  0
  129.9430  132.8250   56.3480 N   0  0  0  0  0  0  0  0  0  0  0  0
  130.1690  132.3320   59.8840 C   0  0  0  0  0  0  0  0  0  0  0  0
  128.4730  132.8650   59.9140 S   0  0  0  0  0  0  0  0  0  0  0  0
  128.1490  133.4930   61.5880 C   0  0  0  0  0  0  0  0  0  0  0  0
  128.4290  132.4660   62.7020 C   0  0  0  0  0  0  0  0  0  0  0  0
  127.1810  132.0850   63.5120 C   0  0  0  0  0  0  0  0  0  0  0  0
  126.2370  132.8750   63.5800 O   0  0  0  0  0  0  0  0  0  0  0  0
  127.2120  130.8660   64.0960 N   0  0  0  0  0  0  0  0  0  0  0  0
  126.2230  130.2820   64.8760 C   0  0  0  0  0  0  0  0  0  0  0  0
  126.4980  129.5300   66.0190 C   0  0  0  0  0  0  0  0  0  0  0  0
  125.2680  129.1380   66.4940 C   0  0  0  0  0  0  0  0  0  0  0  0
  124.3020  129.6260   65.6810 O   0  0  0  0  0  0  0  0  0  0  0  0
  124.9200  130.3490   64.6580 N   0  0  0  0  0  0  0  0  0  0  0  0
  130.6890  132.0780   61.1110 N   0  0  0  0  0  0  0  0  0  0  0  0
  131.7609  131.7704   63.3367 H   0  0  0  0  0  0  0  0  0  0  0  0
  132.6024  130.2987   62.7430 H   0  0  0  0  0  0  0  0  0  0  0  0
  133.4526  131.8811   62.7430 H   0  0  0  0  0  0  0  0  0  0  0  0
  133.8220  131.1322   60.1956 H   0  0  0  0  0  0  0  0  0  0  0  0
  134.2061  131.3779   57.9468 H   0  0  0  0  0  0  0  0  0  0  0  0
  132.8224  130.7376   56.9970 H   0  0  0  0  0  0  0  0  0  0  0  0
  133.1732  132.4993   56.9970 H   0  0  0  0  0  0  0  0  0  0  0  0
  128.7877  134.3723   61.7583 H   0  0  0  0  0  0  0  0  0  0  0  0
  127.0772  133.7355   61.6375 H   0  0  0  0  0  0  0  0  0  0  0  0
  128.8363  131.5543   62.2406 H   0  0  0  0  0  0  0  0  0  0  0  0
  129.1385  132.9326   63.4012 H   0  0  0  0  0  0  0  0  0  0  0  0
  128.0460  130.3120   63.9660 H   0  0  0  0  0  0  0  0  0  0  0  0
  127.4848  129.3004   66.4474 H   0  0  0  0  0  0  0  0  0  0  0  0
  125.0967  128.5255   67.3915 H   0  0  0  0  0  0  0  0  0  0  0  0
  1  2  1  0
  2  3  2  0
  3  4  1  0
  4  5  1  0
  4  6  2  0
  6  7  1  0
  7  8  3  0
  6  9  1  0
  9 10  1  0
 10 11  1  0
 11 12  1  0
 12 13  1  0
 13 14  2  0
 13 15  1  0
 15 16  1  0
 16 17  1  0
 17 18  2  0
 18 19  1  0
 19 20  1  0
  9 21  2  0
 21  2  1  0
 20 16  2  0
  1 22  1  0
  1 23  1  0
  1 24  1  0
  3 25  1  0
  5 26  1  0
  5 27  1  0
  5 28  1  0
 11 29  1  0
 11 30  1  0
 12 31  1  0
 12 32  1  0
 15 33  1  0
 17 34  1  0
 18 35  1  0
M  END
>  <Binding energies>  (1) 
[-8.44]

>  <Ligand effiencies>  (1) 
[-0.3836363636363636]

>  <Interactions>  (1) 
["V-B:HIS:456:CE1:9040, V-A:ARG:545:CZ:4924, V-B:ARG:545:CZ:9898, V-A:ASP:366:CG:3210, H-A:GLU:543:OE2:4908, H-A:GLU:543:OE1:4907, V-A:GLU:543:CD:4906, V-A:TYR:539:C:4865, H-B:ARG:545:NE:9896, V-A:ALA:541:CB:4890, V-A:PRO:540:CA:4881, V-B:ARG:545:CD:9895, V-A:TYR:539:CD1:4871, V-B:ARG:545:CG:9894, V-A:PRO:540:CB:4883, V-A:PRO:540:N:4882, V-A:LEU:363:CD1:3186, V-A:TYR:531:CE2:4791, H-B:TYR:484:OH:9319, H-B:GLY:454:N:9021, V-A:PRO:540:C:4879, H-A:TYR:539:N:4868, V-A:LEU:363:CA:3182, V-A:ASN:362:CB:3173, H-A:ALA:541:N:4889, V-A:ALA:541:C:4886"]

$$$$
1q_Grossjean_2025
     RDKit          3D

 38 38  0  0  0  0  0  0  0  0999 V2000
  128.9030  126.7110   57.0120 C   0  0  0  0  0  0  0  0  0  0  0  0
  129.6720  125.5870   56.6090 O   0  0  0  0  0  0  0  0  0  0  0  0
  130.8360  125.7560   55.9350 C   0  0  0  0  0  0  0  0  0  0  0  0
  130.9390  126.1350   54.7670 O   0  0  0  0  0  0  0  0  0  0  0  0
  132.0940  125.3960   56.7540 C   0  0  0  0  0  0  0  0  0  0  0  0
  131.7880  125.0180   58.1420 N   0  0  0  0  0  0  0  0  0  0  0  0
  132.5670  124.2710   58.9470 C   0  0  0  0  0  0  0  0  0  0  0  0
  133.6550  123.8120   58.5950 O   0  0  0  0  0  0  0  0  0  0  0  0
  132.0290  124.0260   60.3640 C   0  0  0  0  0  0  0  0  0  0  0  0
  130.4910  124.0530   60.4720 C   0  0  0  0  0  0  0  0  0  0  0  0
  129.7030  122.4770   60.0250 S   0  0  0  0  0  0  0  0  0  0  0  0
  128.3930  122.8080   58.8640 C   0  0  0  0  0  0  0  0  0  0  0  0
  128.7550  122.6070   57.5710 N   0  0  0  0  0  0  0  0  0  0  0  0
  127.8430  122.8280   56.5970 C   0  0  0  0  0  0  0  0  0  0  0  0
  128.3260  122.5980   55.1770 C   0  0  0  0  0  0  0  0  0  0  0  0
  126.5410  123.2450   56.8660 C   0  0  0  0  0  0  0  0  0  0  0  0
  126.1490  123.4310   58.1950 C   0  0  0  0  0  0  0  0  0  0  0  0
  124.7100  123.8710   58.4650 C   0  0  0  0  0  0  0  0  0  0  0  0
  127.0830  123.2030   59.2310 C   0  0  0  0  0  0  0  0  0  0  0  0
  126.6740  123.3380   60.6300 C   0  0  0  0  0  0  0  0  0  0  0  0
  126.3460  123.4460   61.7350 N   0  0  0  0  0  0  0  0  0  0  0  0
  128.8706  126.7583   58.1105 H   0  0  0  0  0  0  0  0  0  0  0  0
  129.3626  127.6298   56.6188 H   0  0  0  0  0  0  0  0  0  0  0  0
  127.8801  126.6155   56.6188 H   0  0  0  0  0  0  0  0  0  0  0  0
  132.6010  124.5514   56.2645 H   0  0  0  0  0  0  0  0  0  0  0  0
  132.7305  126.2924   56.7901 H   0  0  0  0  0  0  0  0  0  0  0  0
  130.8980  125.3350   58.5000 H   0  0  0  0  0  0  0  0  0  0  0  0
  132.3808  123.0395   60.7003 H   0  0  0  0  0  0  0  0  0  0  0  0
  132.4034  124.8494   60.9900 H   0  0  0  0  0  0  0  0  0  0  0  0
  130.2194  124.2957   61.5099 H   0  0  0  0  0  0  0  0  0  0  0  0
  130.1304  124.8082   59.7580 H   0  0  0  0  0  0  0  0  0  0  0  0
  129.3189  122.1252   55.1995 H   0  0  0  0  0  0  0  0  0  0  0  0
  127.6185  121.9401   54.6511 H   0  0  0  0  0  0  0  0  0  0  0  0
  128.3907  123.5619   54.6511 H   0  0  0  0  0  0  0  0  0  0  0  0
  125.8319  123.4252   56.0446 H   0  0  0  0  0  0  0  0  0  0  0  0
  124.5400  123.9230   59.5505 H   0  0  0  0  0  0  0  0  0  0  0  0
  124.5399  124.8622   58.0194 H   0  0  0  0  0  0  0  0  0  0  0  0
  124.0147  123.1444   58.0194 H   0  0  0  0  0  0  0  0  0  0  0  0
  1  2  1  0
  2  3  1  0
  3  4  2  0
  3  5  1  0
  5  6  1  0
  6  7  1  0
  7  8  2  0
  7  9  1  0
  9 10  1  0
 10 11  1  0
 11 12  1  0
 12 13  2  0
 13 14  1  0
 14 15  1  0
 14 16  2  0
 16 17  1  0
 17 18  1  0
 17 19  2  0
 19 20  1  0
 20 21  3  0
 19 12  1  0
  1 22  1  0
  1 23  1  0
  1 24  1  0
  5 25  1  0
  5 26  1  0
  6 27  1  0
  9 28  1  0
  9 29  1  0
 10 30  1  0
 10 31  1  0
 15 32  1  0
 15 33  1  0
 15 34  1  0
 16 35  1  0
 18 36  1  0
 18 37  1  0
 18 38  1  0
M  END
>  <Binding energies>  (1) 
[-6.59]

>  <Ligand effiencies>  (1) 
[-0.29954545454545456]

>  <Interactions>  (1) 
["V-B:TYR:539:CD1:9845, V-B:TYR:539:C:9839, V-B:PRO:540:C:9853, V-B:TYR:539:CE1:9847, V-B:PRO:540:CB:9857, V-B:PRO:540:CA:9855, V-B:PRO:540:N:9856, V-B:TYR:539:CE2:9848, V-B:TYR:539:CD2:9846, V-B:TYR:539:CZ:9849, V-B:ILE:538:CA:9832, V-B:MET:535:CE:9807, H-A:TYR:531:OH:4793, H-B:ALA:541:N:9863, H-A:ASN:370:ND2:3245, V-A:ASP:366:CB:3209, H-B:TYR:539:OH:9850, V-A:TYR:531:CE1:4790, V-B:ILE:538:C:9830"]

$$$$
2a_Ghoteimi_2023
     RDKit          3D

 85 90  0  0  0  0  0  0  0  0999 V2000
  131.9410  126.0650   57.4300 C   0  0  0  0  0  0  0  0  0  0  0  0
  130.8520  126.9000   58.1090 C   0  0  0  0  0  0  0  0  0  0  0  0
  129.6590  126.1330   58.2030 O   0  0  0  0  0  0  0  0  0  0  0  0
  128.5160  126.5350   57.5910 C   0  0  0  0  0  0  0  0  0  0  0  0
  128.2290  126.2430   56.4260 O   0  0  0  0  0  0  0  0  0  0  0  0
  127.6300  127.3650   58.4760 C   0  0  0  0  0  0  0  0  0  0  0  0
  126.9940  128.5260   58.0110 C   0  0  0  0  0  0  0  0  0  0  0  0
  126.1790  129.2720   58.8570 C   0  0  0  0  0  0  0  0  0  0  0  0
  125.9770  128.8730   60.1790 C   0  0  0  0  0  0  0  0  0  0  0  0
  125.1370  129.7040   60.9460 N   0  0  0  0  0  0  0  0  0  0  0  0
  124.9600  131.0420   60.8920 C   0  0  0  0  0  0  0  0  0  0  0  0
  125.5750  131.8090   60.1500 O   0  0  0  0  0  0  0  0  0  0  0  0
  123.9300  131.6040   61.8800 C   0  0  0  0  0  0  0  0  0  0  0  0
  123.7100  130.6060   63.3890 S   0  0  0  0  0  0  0  0  0  0  0  0
  125.3490  130.1520   63.9070 C   0  0  0  0  0  0  0  0  0  0  0  0
  126.2970  130.3480   62.9610 N   0  0  0  0  0  0  0  0  0  0  0  0
  127.5870  130.0300   63.2330 C   0  0  0  0  0  0  0  0  0  0  0  0
  128.5770  130.2640   62.1380 C   0  0  0  0  0  0  0  0  0  0  0  0
  128.7090  131.5210   61.5360 C   0  0  0  0  0  0  0  0  0  0  0  0
  129.6240  131.7310   60.5080 C   0  0  0  0  0  0  0  0  0  0  0  0
  130.4480  130.6930   60.0490 C   0  0  0  0  0  0  0  0  0  0  0  0
  131.3420  130.9110   58.9950 N   0  0  0  0  0  0  0  0  0  0  0  0
  132.7190  131.3860   59.2390 C   0  0  0  0  0  0  0  0  0  0  0  0
  133.6580  131.2230   58.0250 C   0  0  0  0  0  0  0  0  0  0  0  0
  133.0970  131.8560   56.8870 O   0  0  0  0  0  0  0  0  0  0  0  0
  131.8440  131.2870   56.5430 C   0  0  0  0  0  0  0  0  0  0  0  0
  130.8480  131.4500   57.7110 C   0  0  0  0  0  0  0  0  0  0  0  0
  130.3030  129.4310   60.6480 C   0  0  0  0  0  0  0  0  0  0  0  0
  129.3900  129.2230   61.6770 C   0  0  0  0  0  0  0  0  0  0  0  0
  127.9570  129.5170   64.4790 C   0  0  0  0  0  0  0  0  0  0  0  0
  126.9930  129.3060   65.4750 C   0  0  0  0  0  0  0  0  0  0  0  0
  127.4570  128.7480   66.7820 C   0  0  0  0  0  0  0  0  0  0  0  0
  128.6830  129.1480   67.3210 C   0  0  0  0  0  0  0  0  0  0  0  0
  129.1330  128.6200   68.5270 C   0  0  0  0  0  0  0  0  0  0  0  0
  128.3690  127.6780   69.2330 C   0  0  0  0  0  0  0  0  0  0  0  0
  128.8100  127.1220   70.4370 N   0  0  0  0  0  0  0  0  0  0  0  0
  127.8270  126.8120   71.4940 C   0  0  0  0  0  0  0  0  0  0  0  0
  128.3790  125.8640   72.5800 C   0  0  0  0  0  0  0  0  0  0  0  0
  129.5670  126.4030   73.1390 O   0  0  0  0  0  0  0  0  0  0  0  0
  130.5760  126.5780   72.1570 C   0  0  0  0  0  0  0  0  0  0  0  0
  130.0820  127.5410   71.0580 C   0  0  0  0  0  0  0  0  0  0  0  0
  127.1450  127.2740   68.6790 C   0  0  0  0  0  0  0  0  0  0  0  0
  126.6960  127.8010   67.4720 C   0  0  0  0  0  0  0  0  0  0  0  0
  125.6460  129.6360   65.1880 C   0  0  0  0  0  0  0  0  0  0  0  0
  124.6030  129.4910   66.2080 C   0  0  0  0  0  0  0  0  0  0  0  0
  123.7800  129.3730   67.0140 N   0  0  0  0  0  0  0  0  0  0  0  0
  126.6150  127.7180   60.6530 C   0  0  0  0  0  0  0  0  0  0  0  0
  127.4300  126.9720   59.8060 C   0  0  0  0  0  0  0  0  0  0  0  0
  132.5668  125.5852   58.1969 H   0  0  0  0  0  0  0  0  0  0  0  0
  131.4728  125.2922   56.8026 H   0  0  0  0  0  0  0  0  0  0  0  0
  132.5658  126.7177   56.8026 H   0  0  0  0  0  0  0  0  0  0  0  0
  131.1846  127.1865   59.1176 H   0  0  0  0  0  0  0  0  0  0  0  0
  130.6604  127.8064   57.5159 H   0  0  0  0  0  0  0  0  0  0  0  0
  127.1407  128.8490   56.9698 H   0  0  0  0  0  0  0  0  0  0  0  0
  125.6904  130.1829   58.4810 H   0  0  0  0  0  0  0  0  0  0  0  0
  124.6120  129.2150   61.6560 H   0  0  0  0  0  0  0  0  0  0  0  0
  124.2542  132.6118   62.1785 H   0  0  0  0  0  0  0  0  0  0  0  0
  122.9615  131.6014   61.3585 H   0  0  0  0  0  0  0  0  0  0  0  0
  128.0803  132.3553   61.8804 H   0  0  0  0  0  0  0  0  0  0  0  0
  129.7020  132.7273   60.0482 H   0  0  0  0  0  0  0  0  0  0  0  0
  132.6762  132.4528   59.5036 H   0  0  0  0  0  0  0  0  0  0  0  0
  133.1325  130.7677   60.0494 H   0  0  0  0  0  0  0  0  0  0  0  0
  134.6313  131.6816   58.2537 H   0  0  0  0  0  0  0  0  0  0  0  0
  133.7898  130.1517   57.8129 H   0  0  0  0  0  0  0  0  0  0  0  0
  131.4461  131.7950   55.6522 H   0  0  0  0  0  0  0  0  0  0  0  0
  131.9807  130.2158   56.3336 H   0  0  0  0  0  0  0  0  0  0  0  0
  130.6395  132.5221   57.8421 H   0  0  0  0  0  0  0  0  0  0  0  0
  129.9478  130.8755   57.4472 H   0  0  0  0  0  0  0  0  0  0  0  0
  130.9222  128.5922   60.2974 H   0  0  0  0  0  0  0  0  0  0  0  0
  129.3062  128.2261   62.1345 H   0  0  0  0  0  0  0  0  0  0  0  0
  129.0116  129.2771   64.6798 H   0  0  0  0  0  0  0  0  0  0  0  0
  129.2979  129.8872   66.7867 H   0  0  0  0  0  0  0  0  0  0  0  0
  130.1020  128.9457   68.9331 H   0  0  0  0  0  0  0  0  0  0  0  0
  127.5217  127.7534   71.9742 H   0  0  0  0  0  0  0  0  0  0  0  0
  126.9808  126.2997   71.0128 H   0  0  0  0  0  0  0  0  0  0  0  0
  127.6266  125.7417   73.3730 H   0  0  0  0  0  0  0  0  0  0  0  0
  128.6052  124.8882   72.1254 H   0  0  0  0  0  0  0  0  0  0  0  0
  131.4762  126.9968   72.6305 H   0  0  0  0  0  0  0  0  0  0  0  0
  130.8114  125.6037   71.7039 H   0  0  0  0  0  0  0  0  0  0  0  0
  129.9403  128.5361   71.5048 H   0  0  0  0  0  0  0  0  0  0  0  0
  130.8439  127.5450   70.2646 H   0  0  0  0  0  0  0  0  0  0  0  0
  126.5310  126.5294   69.2068 H   0  0  0  0  0  0  0  0  0  0  0  0
  125.7329  127.4689   67.0572 H   0  0  0  0  0  0  0  0  0  0  0  0
  126.4713  127.4006   61.6964 H   0  0  0  0  0  0  0  0  0  0  0  0
  127.9223  126.0642   60.1850 H   0  0  0  0  0  0  0  0  0  0  0  0
  1  2  1  0
  2  3  1  0
  3  4  1  0
  4  5  2  0
  4  6  1  0
  6  7  2  0
  7  8  1  0
  8  9  2  0
  9 10  1  0
 10 11  1  0
 11 12  2  0
 11 13  1  0
 13 14  1  0
 14 15  1  0
 15 16  2  0
 16 17  1  0
 17 18  1  0
 18 19  2  0
 19 20  1  0
 20 21  2  0
 21 22  1  0
 22 23  1  0
 23 24  1  0
 24 25  1  0
 25 26  1  0
 26 27  1  0
 21 28  1  0
 28 29  2  0
 17 30  2  0
 30 31  1  0
 31 32  1  0
 32 33  2  0
 33 34  1  0
 34 35  2  0
 35 36  1  0
 36 37  1  0
 37 38  1  0
 38 39  1  0
 39 40  1  0
 40 41  1  0
 35 42  1  0
 42 43  2  0
 31 44  2  0
 44 45  1  0
 45 46  3  0
  9 47  1  0
 47 48  2  0
 48  6  1  0
 44 15  1  0
 29 18  1  0
 43 32  1  0
 27 22  1  0
 41 36  1  0
  1 49  1  0
  1 50  1  0
  1 51  1  0
  2 52  1  0
  2 53  1  0
  7 54  1  0
  8 55  1  0
 10 56  1  0
 13 57  1  0
 13 58  1  0
 19 59  1  0
 20 60  1  0
 23 61  1  0
 23 62  1  0
 24 63  1  0
 24 64  1  0
 26 65  1  0
 26 66  1  0
 27 67  1  0
 27 68  1  0
 28 69  1  0
 29 70  1  0
 30 71  1  0
 33 72  1  0
 34 73  1  0
 37 74  1  0
 37 75  1  0
 38 76  1  0
 38 77  1  0
 40 78  1  0
 40 79  1  0
 41 80  1  0
 41 81  1  0
 42 82  1  0
 43 83  1  0
 47 84  1  0
 48 85  1  0
M  END
>  <Binding energies>  (1) 
[-6.7]

>  <Ligand effiencies>  (1) 
[-0.13673469387755102]

>  <Interactions>  (1) 
["V-B:LYS:547:CE:9922, H-B:LYS:547:NZ:9923, V-B:HIS:456:CE1:9040, V-A:HIS:456:CD2:4065, V-A:HIS:456:CE1:4066, V-A:HIS:456:CG:4063, V-A:GLY:544:C:4910, V-B:GLU:543:CG:9879, V-B:ASP:366:CG:8184, V-B:GLU:543:CD:9880, H-B:ASP:366:OD1:8185, H-B:ASP:366:OD2:8186, V-B:ARG:545:CZ:9898, V-A:ASP:366:CG:3210, H-B:TYR:531:OH:9767, V-A:GLU:543:CD:4906, H-B:ARG:545:NE:9896, V-A:PRO:540:CA:4881, V-B:ARG:545:CD:9895, V-B:ILE:369:CD1:8210, V-B:ARG:545:CG:9894, V-A:PRO:540:CB:4883, V-A:LEU:363:CD1:3186, V-A:TYR:531:CE2:4791, V-A:TYR:531:CZ:4792, H-B:TYR:484:OH:9319, H-B:GLY:454:N:9021, H-A:TYR:531:OH:4793, V-A:GLU:543:CB:4904, V-A:ASP:366:CB:3209, V-B:GLY:544:CA:9886, V-B:GLU:543:C:9874, V-A:GLU:543:C:4900, V-B:GLY:544:C:9884, V-A:LEU:363:CA:3182, V-A:LEU:363:CB:3184, V-A:GLU:543:CG:4905, H-B:ILE:455:N:9026"]

$$$$
2a_Grossjean_2025
     RDKit          3D

 45 46  0  0  0  0  0  0  0  0999 V2000
  125.3260  123.4960   55.8880 C   0  0  0  0  0  0  0  0  0  0  0  0
  125.7230  122.4400   56.9250 C   0  0  0  0  0  0  0  0  0  0  0  0
  127.1400  122.3230   56.9570 O   0  0  0  0  0  0  0  0  0  0  0  0
  127.8750  122.9710   57.8970 C   0  0  0  0  0  0  0  0  0  0  0  0
  128.5730  122.3920   58.7350 O   0  0  0  0  0  0  0  0  0  0  0  0
  127.7710  124.4670   57.8000 C   0  0  0  0  0  0  0  0  0  0  0  0
  126.8890  125.2030   58.6040 C   0  0  0  0  0  0  0  0  0  0  0  0
  126.8160  126.5880   58.4880 C   0  0  0  0  0  0  0  0  0  0  0  0
  127.6140  127.2640   57.5650 C   0  0  0  0  0  0  0  0  0  0  0  0
  127.4470  128.6610   57.5240 N   0  0  0  0  0  0  0  0  0  0  0  0
  126.9290  129.4450   56.5550 C   0  0  0  0  0  0  0  0  0  0  0  0
  126.5120  129.0530   55.4640 O   0  0  0  0  0  0  0  0  0  0  0  0
  126.8760  130.9430   56.8750 C   0  0  0  0  0  0  0  0  0  0  0  0
  127.3620  131.3320   58.5890 S   0  0  0  0  0  0  0  0  0  0  0  0
  129.1460  131.3750   58.7150 C   0  0  0  0  0  0  0  0  0  0  0  0
  129.6690  130.8490   59.8530 N   0  0  0  0  0  0  0  0  0  0  0  0
  131.0100  130.8590   60.0210 C   0  0  0  0  0  0  0  0  0  0  0  0
  131.5160  130.2780   61.3290 C   0  0  0  0  0  0  0  0  0  0  0  0
  131.8830  131.3810   59.0710 C   0  0  0  0  0  0  0  0  0  0  0  0
  131.3660  131.9220   57.8840 C   0  0  0  0  0  0  0  0  0  0  0  0
  132.3450  132.4950   56.8410 C   0  0  0  0  0  0  0  0  0  0  0  0
  133.5050  132.7990   57.4220 F   0  0  0  0  0  0  0  0  0  0  0  0
  132.5630  131.5960   55.8800 F   0  0  0  0  0  0  0  0  0  0  0  0
  131.8850  133.6040   56.2570 F   0  0  0  0  0  0  0  0  0  0  0  0
  129.9600  131.9210   57.6960 C   0  0  0  0  0  0  0  0  0  0  0  0
  129.3660  132.4770   56.4750 C   0  0  0  0  0  0  0  0  0  0  0  0
  128.8970  132.9160   55.5120 N   0  0  0  0  0  0  0  0  0  0  0  0
  128.5050  126.5360   56.7640 C   0  0  0  0  0  0  0  0  0  0  0  0
  128.5800  125.1510   56.8840 C   0  0  0  0  0  0  0  0  0  0  0  0
  124.9840  124.4056   56.4034 H   0  0  0  0  0  0  0  0  0  0  0  0
  126.1952  123.7363   55.2581 H   0  0  0  0  0  0  0  0  0  0  0  0
  124.5138  123.1042   55.2581 H   0  0  0  0  0  0  0  0  0  0  0  0
  125.3567  122.7430   57.9170 H   0  0  0  0  0  0  0  0  0  0  0  0
  125.2790  121.4710   56.6531 H   0  0  0  0  0  0  0  0  0  0  0  0
  126.2499  124.6818   59.3319 H   0  0  0  0  0  0  0  0  0  0  0  0
  126.1239  127.1538   59.1290 H   0  0  0  0  0  0  0  0  0  0  0  0
  127.7190  129.1320   58.3730 H   0  0  0  0  0  0  0  0  0  0  0  0
  127.5569  131.4705   56.1908 H   0  0  0  0  0  0  0  0  0  0  0  0
  125.8318  131.2659   56.7512 H   0  0  0  0  0  0  0  0  0  0  0  0
  131.0513  130.8115   62.1713 H   0  0  0  0  0  0  0  0  0  0  0  0
  131.2544  129.2109   61.3818 H   0  0  0  0  0  0  0  0  0  0  0  0
  132.6089  130.3906   61.3818 H   0  0  0  0  0  0  0  0  0  0  0  0
  132.9684  131.3696   59.2491 H   0  0  0  0  0  0  0  0  0  0  0  0
  129.1459  127.0599   56.0396 H   0  0  0  0  0  0  0  0  0  0  0  0
  129.2825  124.5876   56.2523 H   0  0  0  0  0  0  0  0  0  0  0  0
  1  2  1  0
  2  3  1  0
  3  4  1  0
  4  5  2  0
  4  6  1  0
  6  7  2  0
  7  8  1  0
  8  9  2  0
  9 10  1  0
 10 11  1  0
 11 12  2  0
 11 13  1  0
 13 14  1  0
 14 15  1  0
 15 16  2  0
 16 17  1  0
 17 18  1  0
 17 19  2  0
 19 20  1  0
 20 21  1  0
 21 22  1  0
 21 23  1  0
 21 24  1  0
 20 25  2  0
 25 26  1  0
 26 27  3  0
  9 28  1  0
 28 29  2  0
 29  6  1  0
 25 15  1  0
  1 30  1  0
  1 31  1  0
  1 32  1  0
  2 33  1  0
  2 34  1  0
  7 35  1  0
  8 36  1  0
 10 37  1  0
 13 38  1  0
 13 39  1  0
 18 40  1  0
 18 41  1  0
 18 42  1  0
 19 43  1  0
 28 44  1  0
 29 45  1  0
M  END
>  <Binding energies>  (1) 
[-7.37]

>  <Ligand effiencies>  (1) 
[-0.24566666666666667]

>  <Interactions>  (1) 
["V-B:TYR:539:C:9839, V-B:ASP:366:CG:8184, V-B:PRO:540:CB:9857, V-B:PRO:540:CA:9855, V-B:PRO:540:N:9856, H-B:TYR:531:OH:9767, V-A:TYR:539:CE1:4873, V-A:TYR:539:C:4865, V-A:PRO:540:CA:4881, V-A:PRO:540:CB:4883, V-A:PRO:540:N:4882, V-A:LEU:363:CD1:3186, V-A:TYR:539:CA:4867, V-A:ILE:538:CA:4858, V-A:ILE:538:C:4856, V-A:ILE:538:CB:4860, V-B:ILE:538:CB:9834, H-B:TYR:539:N:9842, V-A:MET:535:CE:4833, V-B:PRO:540:CD:9859, V-A:PRO:540:CG:4884, V-A:ILE:538:CG2:4861, V-B:ILE:538:CG2:9835, V-A:TYR:531:CE2:4791, V-A:PRO:540:CD:4885, V-A:TYR:531:CZ:4792, V-B:MET:535:CE:9807, V-B:TYR:531:CZ:9766, V-A:TYR:539:CE2:4874, V-A:TYR:539:CZ:4875, V-B:TYR:531:CE2:9765, V-B:LEU:363:CD1:8160, H-A:TYR:539:OH:4876, H-A:TYR:539:N:4868, V-A:LEU:363:CA:3182, V-A:LEU:363:CB:3184, V-A:LEU:363:CG:3185, V-A:ILE:538:CG1:4862"]

$$$$
2aa_Ghoteimi_2023
     RDKit          3D

 85 90  0  0  0  0  0  0  0  0999 V2000
  133.9330  130.9000   57.4170 C   0  0  0  0  0  0  0  0  0  0  0  0
  132.4570  130.7910   57.8130 C   0  0  0  0  0  0  0  0  0  0  0  0
  132.0690  131.9670   58.5130 O   0  0  0  0  0  0  0  0  0  0  0  0
  130.8620  132.5490   58.2920 C   0  0  0  0  0  0  0  0  0  0  0  0
  130.5380  133.0560   57.2120 O   0  0  0  0  0  0  0  0  0  0  0  0
  129.9540  132.5030   59.4870 C   0  0  0  0  0  0  0  0  0  0  0  0
  128.5890  132.8130   59.3930 C   0  0  0  0  0  0  0  0  0  0  0  0
  127.7720  132.7580   60.5180 C   0  0  0  0  0  0  0  0  0  0  0  0
  128.3020  132.4000   61.7590 C   0  0  0  0  0  0  0  0  0  0  0  0
  127.3860  132.3730   62.8290 N   0  0  0  0  0  0  0  0  0  0  0  0
  126.1620  132.9340   62.9350 C   0  0  0  0  0  0  0  0  0  0  0  0
  125.5990  133.5780   62.0470 O   0  0  0  0  0  0  0  0  0  0  0  0
  125.4630  132.6930   64.2790 C   0  0  0  0  0  0  0  0  0  0  0  0
  125.0830  131.3170   64.3850 O   0  0  0  0  0  0  0  0  0  0  0  0
  126.0540  130.3240   64.3890 C   0  0  0  0  0  0  0  0  0  0  0  0
  126.4800  129.8510   65.5940 N   0  0  0  0  0  0  0  0  0  0  0  0
  127.4250  128.8790   65.6350 C   0  0  0  0  0  0  0  0  0  0  0  0
  127.8470  128.4120   66.9920 C   0  0  0  0  0  0  0  0  0  0  0  0
  129.1170  128.7200   67.4900 C   0  0  0  0  0  0  0  0  0  0  0  0
  129.5130  128.2940   68.7550 C   0  0  0  0  0  0  0  0  0  0  0  0
  128.6470  127.5550   69.5760 C   0  0  0  0  0  0  0  0  0  0  0  0
  129.0330  127.1080   70.8450 N   0  0  0  0  0  0  0  0  0  0  0  0
  130.2800  127.5800   71.4810 C   0  0  0  0  0  0  0  0  0  0  0  0
  130.7210  126.7320   72.6920 C   0  0  0  0  0  0  0  0  0  0  0  0
  129.6680  126.6510   73.6390 O   0  0  0  0  0  0  0  0  0  0  0  0
  128.5130  126.0430   73.0800 C   0  0  0  0  0  0  0  0  0  0  0  0
  128.0060  126.8710   71.8810 C   0  0  0  0  0  0  0  0  0  0  0  0
  127.3820  127.2310   69.0630 C   0  0  0  0  0  0  0  0  0  0  0  0
  126.9890  127.6550   67.7970 C   0  0  0  0  0  0  0  0  0  0  0  0
  127.9820  128.3640   64.4600 C   0  0  0  0  0  0  0  0  0  0  0  0
  127.5700  128.8400   63.2100 C   0  0  0  0  0  0  0  0  0  0  0  0
  128.2210  128.2700   61.9910 C   0  0  0  0  0  0  0  0  0  0  0  0
  127.7590  127.0720   61.4400 C   0  0  0  0  0  0  0  0  0  0  0  0
  128.3730  126.5250   60.3170 C   0  0  0  0  0  0  0  0  0  0  0  0
  129.4780  127.1520   59.7210 C   0  0  0  0  0  0  0  0  0  0  0  0
  130.1080  126.6230   58.5910 N   0  0  0  0  0  0  0  0  0  0  0  0
  131.5430  126.8490   58.3340 C   0  0  0  0  0  0  0  0  0  0  0  0
  132.1300  125.9120   57.2570 C   0  0  0  0  0  0  0  0  0  0  0  0
  131.3780  126.0200   56.0580 O   0  0  0  0  0  0  0  0  0  0  0  0
  130.0190  125.6630   56.2590 C   0  0  0  0  0  0  0  0  0  0  0  0
  129.3770  126.5930   57.3080 C   0  0  0  0  0  0  0  0  0  0  0  0
  129.9300  128.3570   60.2770 C   0  0  0  0  0  0  0  0  0  0  0  0
  129.3160  128.9050   61.3990 C   0  0  0  0  0  0  0  0  0  0  0  0
  126.5680  129.8380   63.1740 C   0  0  0  0  0  0  0  0  0  0  0  0
  126.0410  130.3600   61.9120 C   0  0  0  0  0  0  0  0  0  0  0  0
  125.6240  130.7710   60.9130 N   0  0  0  0  0  0  0  0  0  0  0  0
  129.6630  132.0820   61.8610 C   0  0  0  0  0  0  0  0  0  0  0  0
  130.4780  132.1350   60.7330 C   0  0  0  0  0  0  0  0  0  0  0  0
  134.5536  130.9458   58.3241 H   0  0  0  0  0  0  0  0  0  0  0  0
  134.2187  130.0205   56.8213 H   0  0  0  0  0  0  0  0  0  0  0  0
  134.0864  131.8119   56.8213 H   0  0  0  0  0  0  0  0  0  0  0  0
  131.8411  130.6821   56.9081 H   0  0  0  0  0  0  0  0  0  0  0  0
  132.3134  129.9132   58.4602 H   0  0  0  0  0  0  0  0  0  0  0  0
  128.1610  133.1020   58.4218 H   0  0  0  0  0  0  0  0  0  0  0  0
  126.7022  132.9980   60.4290 H   0  0  0  0  0  0  0  0  0  0  0  0
  127.6870  131.8140   63.6150 H   0  0  0  0  0  0  0  0  0  0  0  0
  126.1504  132.9468   65.0994 H   0  0  0  0  0  0  0  0  0  0  0  0
  124.5648  133.3249   64.3410 H   0  0  0  0  0  0  0  0  0  0  0  0
  129.8132  129.3074   66.8733 H   0  0  0  0  0  0  0  0  0  0  0  0
  130.5219  128.5408   69.1172 H   0  0  0  0  0  0  0  0  0  0  0  0
  131.0832  127.5558   70.7298 H   0  0  0  0  0  0  0  0  0  0  0  0
  130.0841  128.5956   71.8554 H   0  0  0  0  0  0  0  0  0  0  0  0
  130.9827  125.7194   72.3512 H   0  0  0  0  0  0  0  0  0  0  0  0
  131.5946  127.2051   73.1642 H   0  0  0  0  0  0  0  0  0  0  0  0
  128.7646  125.0274   72.7405 H   0  0  0  0  0  0  0  0  0  0  0  0
  127.7241  125.9970   73.8452 H   0  0  0  0  0  0  0  0  0  0  0  0
  127.1645  126.3338   71.4191 H   0  0  0  0  0  0  0  0  0  0  0  0
  127.7115  127.8559   72.2725 H   0  0  0  0  0  0  0  0  0  0  0  0
  126.6890  126.6317   69.6717 H   0  0  0  0  0  0  0  0  0  0  0  0
  125.9886  127.3909   67.4237 H   0  0  0  0  0  0  0  0  0  0  0  0
  128.7500  127.5786   64.5188 H   0  0  0  0  0  0  0  0  0  0  0  0
  126.9021  126.5563   61.8980 H   0  0  0  0  0  0  0  0  0  0  0  0
  127.9865  125.5876   59.8905 H   0  0  0  0  0  0  0  0  0  0  0  0
  131.6778  127.8890   58.0019 H   0  0  0  0  0  0  0  0  0  0  0  0
  132.0771  126.6385   59.2723 H   0  0  0  0  0  0  0  0  0  0  0  0
  133.1745  126.1942   57.0586 H   0  0  0  0  0  0  0  0  0  0  0  0
  132.0864  124.8740   57.6185 H   0  0  0  0  0  0  0  0  0  0  0  0
  129.4739  125.7559   55.3081 H   0  0  0  0  0  0  0  0  0  0  0  0
  129.9687  124.6248   56.6191 H   0  0  0  0  0  0  0  0  0  0  0  0
  129.3491  127.6136   56.8986 H   0  0  0  0  0  0  0  0  0  0  0  0
  128.3706  126.2011   57.5168 H   0  0  0  0  0  0  0  0  0  0  0  0
  130.7838  128.8777   59.8189 H   0  0  0  0  0  0  0  0  0  0  0  0
  129.6958  129.8460   61.8236 H   0  0  0  0  0  0  0  0  0  0  0  0
  130.0879  131.7903   62.8328 H   0  0  0  0  0  0  0  0  0  0  0  0
  131.5456  131.8850   60.8214 H   0  0  0  0  0  0  0  0  0  0  0  0
  1  2  1  0
  2  3  1  0
  3  4  1  0
  4  5  2  0
  4  6  1  0
  6  7  2  0
  7  8  1  0
  8  9  2  0
  9 10  1  0
 10 11  1  0
 11 12  2  0
 11 13  1  0
 13 14  1  0
 14 15  1  0
 15 16  2  0
 16 17  1  0
 17 18  1  0
 18 19  2  0
 19 20  1  0
 20 21  2  0
 21 22  1  0
 22 23  1  0
 23 24  1  0
 24 25  1  0
 25 26  1  0
 26 27  1  0
 21 28  1  0
 28 29  2  0
 17 30  2  0
 30 31  1  0
 31 32  1  0
 32 33  2  0
 33 34  1  0
 34 35  2  0
 35 36  1  0
 36 37  1  0
 37 38  1  0
 38 39  1  0
 39 40  1  0
 40 41  1  0
 35 42  1  0
 42 43  2  0
 31 44  2  0
 44 45  1  0
 45 46  3  0
  9 47  1  0
 47 48  2  0
 48  6  1  0
 44 15  1  0
 29 18  1  0
 43 32  1  0
 27 22  1  0
 41 36  1  0
  1 49  1  0
  1 50  1  0
  1 51  1  0
  2 52  1  0
  2 53  1  0
  7 54  1  0
  8 55  1  0
 10 56  1  0
 13 57  1  0
 13 58  1  0
 19 59  1  0
 20 60  1  0
 23 61  1  0
 23 62  1  0
 24 63  1  0
 24 64  1  0
 26 65  1  0
 26 66  1  0
 27 67  1  0
 27 68  1  0
 28 69  1  0
 29 70  1  0
 30 71  1  0
 33 72  1  0
 34 73  1  0
 37 74  1  0
 37 75  1  0
 38 76  1  0
 38 77  1  0
 40 78  1  0
 40 79  1  0
 41 80  1  0
 41 81  1  0
 42 82  1  0
 43 83  1  0
 47 84  1  0
 48 85  1  0
M  END
>  <Binding energies>  (1) 
[-7.36]

>  <Ligand effiencies>  (1) 
[-0.15020408163265306]

>  <Interactions>  (1) 
["V-B:LYS:547:CE:9922, H-B:LYS:547:NZ:9923, V-B:HIS:456:CE1:9040, V-A:HIS:456:CD2:4065, H-A:LYS:547:NZ:4949, V-A:HIS:456:CE1:4066, V-A:HIS:456:CG:4063, V-A:GLY:544:C:4910, V-B:GLU:543:CG:9879, V-B:GLU:543:CD:9880, V-A:ASP:366:CG:3210, H-A:GLU:543:OE1:4907, V-A:GLU:543:CD:4906, V-A:TYR:539:CE1:4873, V-B:LEU:475:CD2:9230, V-A:TYR:539:C:4865, V-A:ALA:541:CB:4890, V-A:PRO:540:CA:4881, V-A:TYR:539:CD1:4871, V-B:ARG:545:CG:9894, V-A:PRO:540:CB:4883, V-A:PRO:540:N:4882, V-A:LEU:363:CD1:3186, V-A:TYR:539:CG:4870, V-A:TYR:531:CE2:4791, V-A:PRO:540:CD:4885, V-A:TYR:531:CZ:4792, H-B:TYR:484:OH:9319, V-B:MET:535:CE:9807, H-B:GLY:454:N:9021, H-A:TYR:531:OH:4793, V-A:GLU:543:CB:4904, V-A:ASP:366:CB:3209, H-B:TYR:539:OH:9850, V-A:PRO:540:C:4879, V-B:GLY:544:CA:9886, V-B:GLU:543:C:9874, V-A:GLU:543:C:4900, V-A:GLY:544:CA:4912, V-B:GLY:544:C:9884, H-A:TYR:539:N:4868, V-B:GLY:454:CA:9020, V-A:LEU:363:CA:3182, V-A:LEU:363:CB:3184, V-A:GLU:543:CG:4905"]

$$$$
2b_Ghoteimi_2023
     RDKit          3D

 72 77  0  0  0  0  0  0  0  0999 V2000
  134.5660  125.5700   66.2610 N   0  0  0  0  0  0  0  0  0  0  0  0
  133.6930  125.4130   65.5170 C   0  0  0  0  0  0  0  0  0  0  0  0
  132.5840  125.2170   64.5790 C   0  0  0  0  0  0  0  0  0  0  0  0
  131.2540  125.5240   64.9620 C   0  0  0  0  0  0  0  0  0  0  0  0
  130.8790  126.0560   66.3050 C   0  0  0  0  0  0  0  0  0  0  0  0
  131.7290  126.9380   66.9760 C   0  0  0  0  0  0  0  0  0  0  0  0
  131.3840  127.4360   68.2290 C   0  0  0  0  0  0  0  0  0  0  0  0
  130.1870  127.0520   68.8540 C   0  0  0  0  0  0  0  0  0  0  0  0
  129.8130  127.5480   70.1040 N   0  0  0  0  0  0  0  0  0  0  0  0
  128.5460  127.0920   70.7090 C   0  0  0  0  0  0  0  0  0  0  0  0
  128.0730  127.9800   71.8790 C   0  0  0  0  0  0  0  0  0  0  0  0
  129.0960  128.0870   72.8570 O   0  0  0  0  0  0  0  0  0  0  0  0
  130.2780  128.6610   72.3190 C   0  0  0  0  0  0  0  0  0  0  0  0
  130.8100  127.7840   71.1680 C   0  0  0  0  0  0  0  0  0  0  0  0
  129.3420  126.1640   68.1740 C   0  0  0  0  0  0  0  0  0  0  0  0
  129.6850  125.6680   66.9190 C   0  0  0  0  0  0  0  0  0  0  0  0
  130.2290  125.3250   64.0290 C   0  0  0  0  0  0  0  0  0  0  0  0
  130.5220  124.8640   62.7420 C   0  0  0  0  0  0  0  0  0  0  0  0
  129.4680  124.6640   61.7010 C   0  0  0  0  0  0  0  0  0  0  0  0
  129.3790  123.4570   60.9980 C   0  0  0  0  0  0  0  0  0  0  0  0
  128.3900  123.2570   60.0390 C   0  0  0  0  0  0  0  0  0  0  0  0
  127.4590  124.2630   59.7360 C   0  0  0  0  0  0  0  0  0  0  0  0
  126.4410  124.0660   58.7960 N   0  0  0  0  0  0  0  0  0  0  0  0
  126.7190  123.3110   57.5570 C   0  0  0  0  0  0  0  0  0  0  0  0
  125.6490  123.5060   56.4610 C   0  0  0  0  0  0  0  0  0  0  0  0
  124.3650  123.1870   56.9740 O   0  0  0  0  0  0  0  0  0  0  0  0
  124.0200  124.0230   58.0660 C   0  0  0  0  0  0  0  0  0  0  0  0
  125.0420  123.8480   59.2100 C   0  0  0  0  0  0  0  0  0  0  0  0
  127.5470  125.4690   60.4470 C   0  0  0  0  0  0  0  0  0  0  0  0
  128.5350  125.6660   61.4080 C   0  0  0  0  0  0  0  0  0  0  0  0
  131.7970  124.5730   62.3770 N   0  0  0  0  0  0  0  0  0  0  0  0
  132.8010  124.7260   63.2720 C   0  0  0  0  0  0  0  0  0  0  0  0
  134.4020  124.2930   62.6270 S   0  0  0  0  0  0  0  0  0  0  0  0
  134.1640  122.9510   61.4230 C   0  0  0  0  0  0  0  0  0  0  0  0
  133.2070  123.3500   60.2990 C   0  0  0  0  0  0  0  0  0  0  0  0
  132.2080  122.6600   60.0830 O   0  0  0  0  0  0  0  0  0  0  0  0
  133.5490  124.4590   59.6090 N   0  0  0  0  0  0  0  0  0  0  0  0
  132.8590  125.0430   58.5570 C   0  0  0  0  0  0  0  0  0  0  0  0
  131.6490  125.7170   58.7220 C   0  0  0  0  0  0  0  0  0  0  0  0
  131.3000  126.1390   57.4610 C   0  0  0  0  0  0  0  0  0  0  0  0
  132.2500  125.7410   56.5820 O   0  0  0  0  0  0  0  0  0  0  0  0
  133.2350  125.0480   57.2890 N   0  0  0  0  0  0  0  0  0  0  0  0
  132.6784  127.2414   66.5106 H   0  0  0  0  0  0  0  0  0  0  0  0
  132.0589  128.1406   68.7369 H   0  0  0  0  0  0  0  0  0  0  0  0
  127.7674  127.0946   69.9320 H   0  0  0  0  0  0  0  0  0  0  0  0
  128.7232  126.0853   71.1154 H   0  0  0  0  0  0  0  0  0  0  0  0
  127.8277  128.9825   71.4984 H   0  0  0  0  0  0  0  0  0  0  0  0
  127.1831  127.5250   72.3383 H   0  0  0  0  0  0  0  0  0  0  0  0
  130.0533  129.6677   71.9367 H   0  0  0  0  0  0  0  0  0  0  0  0
  131.0414  128.7249   73.1084 H   0  0  0  0  0  0  0  0  0  0  0  0
  131.6834  128.2836   70.7234 H   0  0  0  0  0  0  0  0  0  0  0  0
  131.0666  126.8041   71.5970 H   0  0  0  0  0  0  0  0  0  0  0  0
  128.3942  125.8545   68.6386 H   0  0  0  0  0  0  0  0  0  0  0  0
  129.0111  124.9654   66.4069 H   0  0  0  0  0  0  0  0  0  0  0  0
  129.1861  125.5328   64.3106 H   0  0  0  0  0  0  0  0  0  0  0  0
  130.1016  122.6542   61.2065 H   0  0  0  0  0  0  0  0  0  0  0  0
  128.3371  122.2942   59.5096 H   0  0  0  0  0  0  0  0  0  0  0  0
  127.6894  123.6419   57.1584 H   0  0  0  0  0  0  0  0  0  0  0  0
  126.7179  122.2436   57.8226 H   0  0  0  0  0  0  0  0  0  0  0  0
  125.6574  124.5537   56.1260 H   0  0  0  0  0  0  0  0  0  0  0  0
  125.8746  122.8416   55.6138 H   0  0  0  0  0  0  0  0  0  0  0  0
  124.0197  125.0721   57.7354 H   0  0  0  0  0  0  0  0  0  0  0  0
  123.0198  123.7458   58.4304 H   0  0  0  0  0  0  0  0  0  0  0  0
  124.7993  124.5682   60.0053 H   0  0  0  0  0  0  0  0  0  0  0  0
  124.9671  122.8046   59.5502 H   0  0  0  0  0  0  0  0  0  0  0  0
  126.8237  126.2720   60.2420 H   0  0  0  0  0  0  0  0  0  0  0  0
  128.5834  126.6244   61.9458 H   0  0  0  0  0  0  0  0  0  0  0  0
  135.1385  122.6915   60.9838 H   0  0  0  0  0  0  0  0  0  0  0  0
  133.7246  122.0936   61.9538 H   0  0  0  0  0  0  0  0  0  0  0  0
  134.3870  124.9430   59.8970 H   0  0  0  0  0  0  0  0  0  0  0  0
  131.0942  125.8764   59.6583 H   0  0  0  0  0  0  0  0  0  0  0  0
  130.3940  126.7088   57.2068 H   0  0  0  0  0  0  0  0  0  0  0  0
  1  2  3  0
  2  3  1  0
  3  4  2  0
  4  5  1  0
  5  6  2  0
  6  7  1  0
  7  8  2  0
  8  9  1  0
  9 10  1  0
 10 11  1  0
 11 12  1  0
 12 13  1  0
 13 14  1  0
  8 15  1  0
 15 16  2  0
  4 17  1  0
 17 18  2  0
 18 19  1  0
 19 20  2  0
 20 21  1  0
 21 22  2  0
 22 23  1  0
 23 24  1  0
 24 25  1  0
 25 26  1  0
 26 27  1  0
 27 28  1  0
 22 29  1  0
 29 30  2  0
 18 31  1  0
 31 32  2  0
 32 33  1  0
 33 34  1  0
 34 35  1  0
 35 36  2  0
 35 37  1  0
 37 38  1  0
 38 39  1  0
 39 40  2  0
 40 41  1  0
 41 42  1  0
 32  3  1  0
 42 38  2  0
 16  5  1  0
 30 19  1  0
 14  9  1  0
 28 23  1  0
  6 43  1  0
  7 44  1  0
 10 45  1  0
 10 46  1  0
 11 47  1  0
 11 48  1  0
 13 49  1  0
 13 50  1  0
 14 51  1  0
 14 52  1  0
 15 53  1  0
 16 54  1  0
 17 55  1  0
 20 56  1  0
 21 57  1  0
 24 58  1  0
 24 59  1  0
 25 60  1  0
 25 61  1  0
 27 62  1  0
 27 63  1  0
 28 64  1  0
 28 65  1  0
 29 66  1  0
 30 67  1  0
 34 68  1  0
 34 69  1  0
 37 70  1  0
 39 71  1  0
 40 72  1  0
M  END
>  <Binding energies>  (1) 
[-7.57]

>  <Ligand effiencies>  (1) 
[-0.176046511627907]

>  <Interactions>  (1) 
["V-B:HIS:456:CE1:9040, V-A:HIS:456:CD2:4065, V-A:LYS:547:CE:4948, H-A:LYS:547:NZ:4949, V-B:HIS:456:CD2:9039, V-B:HIS:456:CG:9037, V-A:HIS:456:CE1:4066, V-A:GLY:544:C:4910, V-B:GLU:543:CG:9879, H-A:TYR:484:OH:4345, V-A:GLY:454:CA:4046, V-B:ASP:366:CG:8184, V-B:GLU:543:CB:9878, V-B:TYR:539:CE1:9847, V-B:GLU:543:CD:9880, V-B:PRO:540:CB:9857, V-A:ARG:545:CZ:4924, V-B:PRO:540:CA:9855, H-A:ASP:366:OD1:3211, V-A:ASP:366:CG:3210, V-B:ASP:366:CB:8183, V-B:PRO:540:N:9856, V-A:GLU:543:CD:4906, V-A:ARG:545:CD:4921, V-A:ILE:369:CD1:3236, V-A:ARG:545:CG:4920, H-A:ARG:545:NE:4922, V-B:ILE:538:CG2:9835, V-A:ILE:369:CG2:3234, H-A:TYR:531:OH:4793, V-A:ASP:366:CB:3209, V-A:ASP:366:CA:3207, V-B:TYR:531:CE2:9765, H-B:TYR:539:OH:9850, V-B:LEU:363:CD1:8160, V-B:GLU:543:C:9874, V-A:GLU:543:C:4900, V-A:GLY:544:CA:4912, H-A:GLY:454:N:4047, V-A:GLU:543:CG:4905, H-A:ILE:455:N:4052, V-B:LEU:363:CA:8156"]

$$$$
2b_Grossjean_2025
     RDKit          3D

 42 43  0  0  0  0  0  0  0  0999 V2000
  131.7480  132.5030   56.2810 C   0  0  0  0  0  0  0  0  0  0  0  0
  130.5560  132.9680   56.8970 O   0  0  0  0  0  0  0  0  0  0  0  0
  130.0060  132.3050   57.9460 C   0  0  0  0  0  0  0  0  0  0  0  0
  129.5810  132.8680   58.9600 O   0  0  0  0  0  0  0  0  0  0  0  0
  129.9680  130.8160   57.7530 C   0  0  0  0  0  0  0  0  0  0  0  0
  130.9510  129.9730   58.2920 C   0  0  0  0  0  0  0  0  0  0  0  0
  130.8880  128.5970   58.0930 C   0  0  0  0  0  0  0  0  0  0  0  0
  129.8440  128.0350   57.3590 C   0  0  0  0  0  0  0  0  0  0  0  0
  129.8800  126.6350   57.2140 N   0  0  0  0  0  0  0  0  0  0  0  0
  130.3170  125.8870   56.1790 C   0  0  0  0  0  0  0  0  0  0  0  0
  130.7590  126.3280   55.1170 O   0  0  0  0  0  0  0  0  0  0  0  0
  130.2200  124.3720   56.3810 C   0  0  0  0  0  0  0  0  0  0  0  0
  129.9690  123.8960   58.1230 S   0  0  0  0  0  0  0  0  0  0  0  0
  128.2220  123.8610   58.5020 C   0  0  0  0  0  0  0  0  0  0  0  0
  127.8720  124.3600   59.7140 N   0  0  0  0  0  0  0  0  0  0  0  0
  126.5670  124.3600   60.0690 C   0  0  0  0  0  0  0  0  0  0  0  0
  126.2610  124.9220   61.4440 C   0  0  0  0  0  0  0  0  0  0  0  0
  125.5630  123.8760   59.2360 C   0  0  0  0  0  0  0  0  0  0  0  0
  125.9000  123.3630   57.9750 C   0  0  0  0  0  0  0  0  0  0  0  0
  124.7760  122.8360   57.0630 C   0  0  0  0  0  0  0  0  0  0  0  0
  125.1040  121.6360   56.5820 F   0  0  0  0  0  0  0  0  0  0  0  0
  123.6390  122.7300   57.7520 F   0  0  0  0  0  0  0  0  0  0  0  0
  124.5390  123.6350   56.0200 F   0  0  0  0  0  0  0  0  0  0  0  0
  127.2660  123.3500   57.5920 C   0  0  0  0  0  0  0  0  0  0  0  0
  127.6770  122.8200   56.2880 C   0  0  0  0  0  0  0  0  0  0  0  0
  128.0010  122.4020   55.2590 N   0  0  0  0  0  0  0  0  0  0  0  0
  128.8610  128.8720   56.8100 C   0  0  0  0  0  0  0  0  0  0  0  0
  128.9260  130.2480   57.0090 C   0  0  0  0  0  0  0  0  0  0  0  0
  132.4749  132.2194   57.0564 H   0  0  0  0  0  0  0  0  0  0  0  0
  131.5198  131.6279   55.6547 H   0  0  0  0  0  0  0  0  0  0  0  0
  132.1726  133.3014   55.6547 H   0  0  0  0  0  0  0  0  0  0  0  0
  131.7779  130.4027   58.8764 H   0  0  0  0  0  0  0  0  0  0  0  0
  131.6677  127.9478   58.5180 H   0  0  0  0  0  0  0  0  0  0  0  0
  129.4740  126.1290   57.9870 H   0  0  0  0  0  0  0  0  0  0  0  0
  129.3733  123.9937   55.7894 H   0  0  0  0  0  0  0  0  0  0  0  0
  131.1768  123.9365   56.0571 H   0  0  0  0  0  0  0  0  0  0  0  0
  126.6366  124.2321   62.2140 H   0  0  0  0  0  0  0  0  0  0  0  0
  126.7510  125.9003   61.5576 H   0  0  0  0  0  0  0  0  0  0  0  0
  125.1734  125.0413   61.5576 H   0  0  0  0  0  0  0  0  0  0  0  0
  124.5132  123.8956   59.5640 H   0  0  0  0  0  0  0  0  0  0  0  0
  128.0380  128.4403   56.2216 H   0  0  0  0  0  0  0  0  0  0  0  0
  128.1500  130.8970   56.5770 H   0  0  0  0  0  0  0  0  0  0  0  0
  1  2  1  0
  2  3  1  0
  3  4  2  0
  3  5  1  0
  5  6  2  0
  6  7  1  0
  7  8  2  0
  8  9  1  0
  9 10  1  0
 10 11  2  0
 10 12  1  0
 12 13  1  0
 13 14  1  0
 14 15  2  0
 15 16  1  0
 16 17  1  0
 16 18  2  0
 18 19  1  0
 19 20  1  0
 20 21  1  0
 20 22  1  0
 20 23  1  0
 19 24  2  0
 24 25  1  0
 25 26  3  0
  8 27  1  0
 27 28  2  0
 28  5  1  0
 24 14  1  0
  1 29  1  0
  1 30  1  0
  1 31  1  0
  6 32  1  0
  7 33  1  0
  9 34  1  0
 12 35  1  0
 12 36  1  0
 17 37  1  0
 17 38  1  0
 17 39  1  0
 18 40  1  0
 27 41  1  0
 28 42  1  0
M  END
>  <Binding energies>  (1) 
[-7.3]

>  <Ligand effiencies>  (1) 
[-0.2517241379310345]

>  <Interactions>  (1) 
["V-B:TYR:539:C:9839, V-B:TYR:539:CE1:9847, V-B:PRO:540:CB:9857, V-B:PRO:540:CA:9855, V-A:ASP:366:CG:3210, V-B:PRO:540:N:9856, V-A:TYR:539:C:4865, V-A:PRO:540:CA:4881, V-A:PRO:540:N:4882, V-A:ILE:538:CA:4858, V-B:TYR:539:CE2:9848, V-A:ILE:538:CB:4860, V-B:ILE:538:CB:9834, H-B:TYR:539:N:9842, V-A:MET:535:CE:4833, V-B:PRO:540:CD:9859, V-B:TYR:539:CZ:9849, V-A:ILE:538:CG2:4861, V-B:ILE:538:CG2:9835, V-A:PRO:540:CD:4885, V-B:ILE:538:CA:9832, V-B:MET:535:CE:9807, H-A:TYR:531:OH:4793, V-B:TYR:531:CZ:9766, V-B:TYR:531:CE2:9765, H-B:TYR:539:OH:9850, V-B:ILE:538:C:9830, V-B:PRO:540:CG:9858, V-B:LEU:363:CD1:8160, H-A:TYR:539:N:4868, V-B:LEU:363:CA:8156, V-B:LEU:363:CB:8158, V-B:LEU:363:CG:8159, V-B:ILE:538:CG1:9836"]

$$$$
2c_Ghoteimi_2023
     RDKit          3D

 72 77  0  0  0  0  0  0  0  0999 V2000
  134.6580  125.5180   66.1080 N   0  0  0  0  0  0  0  0  0  0  0  0
  133.7930  125.3450   65.3600 C   0  0  0  0  0  0  0  0  0  0  0  0
  132.6930  125.1290   64.4140 C   0  0  0  0  0  0  0  0  0  0  0  0
  131.3560  125.4190   64.7840 C   0  0  0  0  0  0  0  0  0  0  0  0
  130.9600  125.9490   66.1230 C   0  0  0  0  0  0  0  0  0  0  0  0
  131.7690  126.8810   66.7770 C   0  0  0  0  0  0  0  0  0  0  0  0
  131.4040  127.3840   68.0230 C   0  0  0  0  0  0  0  0  0  0  0  0
  130.2270  126.9570   68.6580 C   0  0  0  0  0  0  0  0  0  0  0  0
  129.8320  127.4630   69.8980 N   0  0  0  0  0  0  0  0  0  0  0  0
  128.5420  127.0350   70.4760 C   0  0  0  0  0  0  0  0  0  0  0  0
  128.0580  127.9420   71.6270 C   0  0  0  0  0  0  0  0  0  0  0  0
  129.0580  128.0310   72.6300 O   0  0  0  0  0  0  0  0  0  0  0  0
  130.2650  128.5770   72.1210 C   0  0  0  0  0  0  0  0  0  0  0  0
  130.8070  127.6870   70.9830 C   0  0  0  0  0  0  0  0  0  0  0  0
  129.4240  126.0180   67.9950 C   0  0  0  0  0  0  0  0  0  0  0  0
  129.7880  125.5180   66.7480 C   0  0  0  0  0  0  0  0  0  0  0  0
  130.3420  125.1980   63.8440 C   0  0  0  0  0  0  0  0  0  0  0  0
  130.6520  124.7280   62.5640 C   0  0  0  0  0  0  0  0  0  0  0  0
  129.6080  124.4930   61.5200 C   0  0  0  0  0  0  0  0  0  0  0  0
  128.3540  123.9790   61.8670 C   0  0  0  0  0  0  0  0  0  0  0  0
  127.3750  123.7630   60.8990 C   0  0  0  0  0  0  0  0  0  0  0  0
  127.6190  124.0440   59.5460 C   0  0  0  0  0  0  0  0  0  0  0  0
  126.6390  123.8560   58.5660 N   0  0  0  0  0  0  0  0  0  0  0  0
  126.8980  122.9460   57.4310 C   0  0  0  0  0  0  0  0  0  0  0  0
  125.9170  123.1300   56.2540 C   0  0  0  0  0  0  0  0  0  0  0  0
  124.5810  123.0000   56.7100 O   0  0  0  0  0  0  0  0  0  0  0  0
  124.2680  123.9780   57.6890 C   0  0  0  0  0  0  0  0  0  0  0  0
  125.2020  123.8250   58.9080 C   0  0  0  0  0  0  0  0  0  0  0  0
  128.8730  124.5710   59.2050 C   0  0  0  0  0  0  0  0  0  0  0  0
  129.8500  124.7880   60.1730 C   0  0  0  0  0  0  0  0  0  0  0  0
  131.9330  124.4530   62.2120 N   0  0  0  0  0  0  0  0  0  0  0  0
  132.9290  124.6280   63.1140 C   0  0  0  0  0  0  0  0  0  0  0  0
  134.5390  124.2090   62.4870 S   0  0  0  0  0  0  0  0  0  0  0  0
  134.3590  123.8520   60.7130 C   0  0  0  0  0  0  0  0  0  0  0  0
  133.4010  122.6870   60.4570 C   0  0  0  0  0  0  0  0  0  0  0  0
  132.3540  122.8900   59.8390 O   0  0  0  0  0  0  0  0  0  0  0  0
  133.7920  121.4920   60.9490 N   0  0  0  0  0  0  0  0  0  0  0  0
  133.1140  120.2870   60.8370 C   0  0  0  0  0  0  0  0  0  0  0  0
  133.6120  119.1040   60.5490 N   0  0  0  0  0  0  0  0  0  0  0  0
  132.6780  118.1750   60.5320 C   0  0  0  0  0  0  0  0  0  0  0  0
  131.3820  118.6010   60.8110 C   0  0  0  0  0  0  0  0  0  0  0  0
  131.4020  120.3130   61.1100 S   0  0  0  0  0  0  0  0  0  0  0  0
  132.7022  127.2204   66.3038 H   0  0  0  0  0  0  0  0  0  0  0  0
  132.0474  128.1269   68.5171 H   0  0  0  0  0  0  0  0  0  0  0  0
  127.7824  127.0452   69.6804 H   0  0  0  0  0  0  0  0  0  0  0  0
  128.6904  126.0286   70.8945 H   0  0  0  0  0  0  0  0  0  0  0  0
  127.8463  128.9473   71.2339 H   0  0  0  0  0  0  0  0  0  0  0  0
  127.1452  127.5121   72.0652 H   0  0  0  0  0  0  0  0  0  0  0  0
  130.0724  129.5880   71.7328 H   0  0  0  0  0  0  0  0  0  0  0  0
  131.0097  128.6238   72.9292 H   0  0  0  0  0  0  0  0  0  0  0  0
  131.6981  128.1708   70.5565 H   0  0  0  0  0  0  0  0  0  0  0  0
  131.0364  126.7044   71.4209 H   0  0  0  0  0  0  0  0  0  0  0  0
  128.4929  125.6715   68.4672 H   0  0  0  0  0  0  0  0  0  0  0  0
  129.1463  124.7762   66.2501 H   0  0  0  0  0  0  0  0  0  0  0  0
  129.2942  125.3955   64.1143 H   0  0  0  0  0  0  0  0  0  0  0  0
  128.1376  123.7419   62.9191 H   0  0  0  0  0  0  0  0  0  0  0  0
  126.3946  123.3656   61.2006 H   0  0  0  0  0  0  0  0  0  0  0  0
  127.9188  123.1293   57.0645 H   0  0  0  0  0  0  0  0  0  0  0  0
  126.7648  121.9198   57.8040 H   0  0  0  0  0  0  0  0  0  0  0  0
  126.0567  124.1295   55.8165 H   0  0  0  0  0  0  0  0  0  0  0  0
  126.1156  122.3588   55.4951 H   0  0  0  0  0  0  0  0  0  0  0  0
  124.3965  124.9809   57.2557 H   0  0  0  0  0  0  0  0  0  0  0  0
  123.2260  123.8418   58.0141 H   0  0  0  0  0  0  0  0  0  0  0  0
  124.9946  124.6469   59.6091 H   0  0  0  0  0  0  0  0  0  0  0  0
  124.9982  122.8366   59.3456 H   0  0  0  0  0  0  0  0  0  0  0  0
  129.0885  124.8172   58.1548 H   0  0  0  0  0  0  0  0  0  0  0  0
  130.8265  125.1973   59.8750 H   0  0  0  0  0  0  0  0  0  0  0  0
  133.9706  124.7487   60.2079 H   0  0  0  0  0  0  0  0  0  0  0  0
  135.3477  123.5712   60.3210 H   0  0  0  0  0  0  0  0  0  0  0  0
  134.6790  121.4530   61.4300 H   0  0  0  0  0  0  0  0  0  0  0  0
  132.9088  117.1226   60.3100 H   0  0  0  0  0  0  0  0  0  0  0  0
  130.4899  117.9580   60.8378 H   0  0  0  0  0  0  0  0  0  0  0  0
  1  2  3  0
  2  3  1  0
  3  4  2  0
  4  5  1  0
  5  6  2  0
  6  7  1  0
  7  8  2  0
  8  9  1  0
  9 10  1  0
 10 11  1  0
 11 12  1  0
 12 13  1  0
 13 14  1  0
  8 15  1  0
 15 16  2  0
  4 17  1  0
 17 18  2  0
 18 19  1  0
 19 20  2  0
 20 21  1  0
 21 22  2  0
 22 23  1  0
 23 24  1  0
 24 25  1  0
 25 26  1  0
 26 27  1  0
 27 28  1  0
 22 29  1  0
 29 30  2  0
 18 31  1  0
 31 32  2  0
 32 33  1  0
 33 34  1  0
 34 35  1  0
 35 36  2  0
 35 37  1  0
 37 38  1  0
 38 39  2  0
 39 40  1  0
 40 41  2  0
 41 42  1  0
 32  3  1  0
 42 38  1  0
 16  5  1  0
 30 19  1  0
 14  9  1  0
 28 23  1  0
  6 43  1  0
  7 44  1  0
 10 45  1  0
 10 46  1  0
 11 47  1  0
 11 48  1  0
 13 49  1  0
 13 50  1  0
 14 51  1  0
 14 52  1  0
 15 53  1  0
 16 54  1  0
 17 55  1  0
 20 56  1  0
 21 57  1  0
 24 58  1  0
 24 59  1  0
 25 60  1  0
 25 61  1  0
 27 62  1  0
 27 63  1  0
 28 64  1  0
 28 65  1  0
 29 66  1  0
 30 67  1  0
 34 68  1  0
 34 69  1  0
 37 70  1  0
 40 71  1  0
 41 72  1  0
M  END
>  <Binding energies>  (1) 
[-7.51]

>  <Ligand effiencies>  (1) 
[-0.17465116279069767]

>  <Interactions>  (1) 
["V-B:HIS:456:CE1:9040, V-A:HIS:456:CD2:4065, V-A:LYS:547:CE:4948, V-B:HIS:456:CD2:9039, V-B:HIS:456:CG:9037, V-A:HIS:456:CE1:4066, V-A:GLY:544:C:4910, V-B:GLU:543:CG:9879, V-A:LEU:475:CD2:4256, H-A:TYR:484:OH:4345, V-A:GLY:454:CA:4046, V-B:TYR:539:CD1:9845, V-B:TYR:539:C:9839, V-B:GLU:543:CB:9878, V-B:TYR:539:CE1:9847, V-B:GLU:543:CD:9880, V-B:PRO:540:CB:9857, V-A:ARG:545:CZ:4924, V-B:PRO:540:CA:9855, V-B:PRO:540:N:9856, V-A:GLU:543:CD:4906, V-A:ARG:545:CD:4921, V-A:GLY:453:CA:4041, V-A:ILE:369:CD1:3236, V-A:ARG:545:CG:4920, H-A:ARG:545:NE:4922, V-A:GLY:453:C:4039, V-B:ILE:538:CB:9834, V-B:ILE:538:CG2:9835, V-A:ILE:369:CG2:3234, V-A:ILE:369:CB:3233, V-A:LEU:373:CD1:3277, V-A:SER:385:CA:3404, V-A:SER:385:CB:3406, V-B:TYR:531:CE2:9765, V-B:LEU:363:CD1:8160, V-B:GLU:543:C:9874, V-A:GLU:543:C:4900, V-A:GLY:544:CA:4912, V-B:GLY:544:C:9884, H-A:GLY:454:N:4047, V-A:GLU:543:CG:4905, V-B:GLU:543:CA:9876, V-A:ILE:369:CG1:3235, H-A:SER:385:O:3403, H-A:ILE:455:N:4052, V-B:LEU:363:CA:8156"]

$$$$
2c_Grossjean_2025
     RDKit          3D

 40 41  0  0  0  0  0  0  0  0999 V2000
  132.6780  125.4030   65.5650 C   0  0  0  0  0  0  0  0  0  0  0  0
  133.3100  124.6270   64.5520 O   0  0  0  0  0  0  0  0  0  0  0  0
  132.9720  124.8420   63.2290 C   0  0  0  0  0  0  0  0  0  0  0  0
  131.8640  125.6550   62.9940 C   0  0  0  0  0  0  0  0  0  0  0  0
  131.4450  125.9290   61.6950 C   0  0  0  0  0  0  0  0  0  0  0  0
  132.1340  125.3740   60.6060 C   0  0  0  0  0  0  0  0  0  0  0  0
  131.7970  125.6070   59.2610 N   0  0  0  0  0  0  0  0  0  0  0  0
  132.3380  125.0620   58.1500 C   0  0  0  0  0  0  0  0  0  0  0  0
  133.2900  124.2790   58.1460 O   0  0  0  0  0  0  0  0  0  0  0  0
  131.7010  125.5190   56.8290 C   0  0  0  0  0  0  0  0  0  0  0  0
  130.2330  124.5710   56.2950 S   0  0  0  0  0  0  0  0  0  0  0  0
  128.8920  124.8540   57.4440 C   0  0  0  0  0  0  0  0  0  0  0  0
  129.1270  125.7870   58.4030 N   0  0  0  0  0  0  0  0  0  0  0  0
  128.1620  126.0470   59.3110 C   0  0  0  0  0  0  0  0  0  0  0  0
  128.5070  127.0880   60.3590 C   0  0  0  0  0  0  0  0  0  0  0  0
  126.9270  125.4030   59.3000 C   0  0  0  0  0  0  0  0  0  0  0  0
  126.6590  124.4420   58.3150 C   0  0  0  0  0  0  0  0  0  0  0  0
  125.2870  123.7400   58.3150 C   0  0  0  0  0  0  0  0  0  0  0  0
  124.8380  123.6160   59.5640 F   0  0  0  0  0  0  0  0  0  0  0  0
  124.4090  124.4500   57.6060 F   0  0  0  0  0  0  0  0  0  0  0  0
  125.3360  122.5150   57.7830 F   0  0  0  0  0  0  0  0  0  0  0  0
  127.6650  124.1550   57.3580 C   0  0  0  0  0  0  0  0  0  0  0  0
  127.4410  123.1580   56.3060 C   0  0  0  0  0  0  0  0  0  0  0  0
  127.2630  122.3710   55.4760 N   0  0  0  0  0  0  0  0  0  0  0  0
  133.2530  124.5720   60.8360 C   0  0  0  0  0  0  0  0  0  0  0  0
  133.6690  124.3020   62.1360 C   0  0  0  0  0  0  0  0  0  0  0  0
  132.9812  125.0308   66.5547 H   0  0  0  0  0  0  0  0  0  0  0  0
  132.9787  126.4560   65.4614 H   0  0  0  0  0  0  0  0  0  0  0  0
  131.5859  125.3217   65.4614 H   0  0  0  0  0  0  0  0  0  0  0  0
  131.3147  126.0848   63.8446 H   0  0  0  0  0  0  0  0  0  0  0  0
  130.5750  126.5797   61.5226 H   0  0  0  0  0  0  0  0  0  0  0  0
  131.1010  126.3240   59.1180 H   0  0  0  0  0  0  0  0  0  0  0  0
  131.4019  126.5714   56.9431 H   0  0  0  0  0  0  0  0  0  0  0  0
  132.4641  125.3568   56.0535 H   0  0  0  0  0  0  0  0  0  0  0  0
  128.3650  126.6595   61.3621 H   0  0  0  0  0  0  0  0  0  0  0  0
  129.5556  127.3972   60.2374 H   0  0  0  0  0  0  0  0  0  0  0  0
  127.8505  127.9622   60.2374 H   0  0  0  0  0  0  0  0  0  0  0  0
  126.1680  125.6465   60.0581 H   0  0  0  0  0  0  0  0  0  0  0  0
  133.8088  124.1512   59.9851 H   0  0  0  0  0  0  0  0  0  0  0  0
  134.5475  123.6629   62.3083 H   0  0  0  0  0  0  0  0  0  0  0  0
  1  2  1  0
  2  3  1  0
  3  4  2  0
  4  5  1  0
  5  6  2  0
  6  7  1  0
  7  8  1  0
  8  9  2  0
  8 10  1  0
 10 11  1  0
 11 12  1  0
 12 13  2  0
 13 14  1  0
 14 15  1  0
 14 16  2  0
 16 17  1  0
 17 18  1  0
 18 19  1  0
 18 20  1  0
 18 21  1  0
 17 22  2  0
 22 23  1  0
 23 24  3  0
  6 25  1  0
 25 26  2  0
 26  3  1  0
 22 12  1  0
  1 27  1  0
  1 28  1  0
  1 29  1  0
  4 30  1  0
  5 31  1  0
  7 32  1  0
 10 33  1  0
 10 34  1  0
 15 35  1  0
 15 36  1  0
 15 37  1  0
 16 38  1  0
 25 39  1  0
 26 40  1  0
M  END
>  <Binding energies>  (1) 
[-6.3]

>  <Ligand effiencies>  (1) 
[-0.23333333333333334]

>  <Interactions>  (1) 
["V-A:HIS:456:CE1:4066, H-A:TYR:484:OH:4345, V-B:TYR:539:C:9839, V-B:ASP:366:CG:8184, V-B:TYR:539:CE1:9847, V-B:PRO:540:CB:9857, V-A:ARG:545:CZ:4924, V-B:PRO:540:CA:9855, H-A:ASP:366:OD2:3212, V-A:ASP:366:CG:3210, V-B:ASP:366:CB:8183, V-B:PRO:540:N:9856, V-A:ARG:545:CD:4921, V-A:ARG:545:CG:4920, H-B:TYR:539:N:9842, V-B:PRO:540:CD:9859, V-B:TYR:539:CZ:9849, V-B:MET:535:CE:9807, V-B:TYR:531:CZ:9766, V-A:ASP:366:CB:3209, V-B:TYR:531:CE2:9765, H-B:TYR:539:OH:9850, V-B:PRO:540:CG:9858, V-B:LEU:363:CD1:8160, H-A:GLY:454:N:4047"]

$$$$
2d_Ghoteimi_2023
     RDKit          3D

 68 72  0  0  0  0  0  0  0  0999 V2000
  133.2360  119.8580   60.7110 C   0  0  0  0  0  0  0  0  0  0  0  0
  132.7260  121.0790   61.2250 O   0  0  0  0  0  0  0  0  0  0  0  0
  133.4050  122.2320   61.0550 C   0  0  0  0  0  0  0  0  0  0  0  0
  133.2920  122.9950   60.0910 O   0  0  0  0  0  0  0  0  0  0  0  0
  134.3560  122.4980   62.2320 C   0  0  0  0  0  0  0  0  0  0  0  0
  134.4070  124.2740   62.6510 S   0  0  0  0  0  0  0  0  0  0  0  0
  132.8190  124.7400   63.3110 C   0  0  0  0  0  0  0  0  0  0  0  0
  131.8000  124.5520   62.4370 N   0  0  0  0  0  0  0  0  0  0  0  0
  130.5340  124.8720   62.8050 C   0  0  0  0  0  0  0  0  0  0  0  0
  129.4660  124.6540   61.7820 C   0  0  0  0  0  0  0  0  0  0  0  0
  129.2920  123.3990   61.1890 C   0  0  0  0  0  0  0  0  0  0  0  0
  128.2990  123.1890   60.2360 C   0  0  0  0  0  0  0  0  0  0  0  0
  127.4360  124.2250   59.8500 C   0  0  0  0  0  0  0  0  0  0  0  0
  126.4440  124.0360   58.8800 N   0  0  0  0  0  0  0  0  0  0  0  0
  126.7240  123.3210   57.6190 C   0  0  0  0  0  0  0  0  0  0  0  0
  125.6460  123.5330   56.5360 C   0  0  0  0  0  0  0  0  0  0  0  0
  124.3710  123.1780   57.0460 O   0  0  0  0  0  0  0  0  0  0  0  0
  124.0190  123.9690   58.1690 C   0  0  0  0  0  0  0  0  0  0  0  0
  125.0520  123.7750   59.2990 C   0  0  0  0  0  0  0  0  0  0  0  0
  127.6220  125.4850   60.4360 C   0  0  0  0  0  0  0  0  0  0  0  0
  128.6160  125.6950   61.3870 C   0  0  0  0  0  0  0  0  0  0  0  0
  130.2600  125.3880   64.0740 C   0  0  0  0  0  0  0  0  0  0  0  0
  131.2900  125.5600   65.0070 C   0  0  0  0  0  0  0  0  0  0  0  0
  130.9190  126.0900   66.3540 C   0  0  0  0  0  0  0  0  0  0  0  0
  129.7560  125.6490   66.9870 C   0  0  0  0  0  0  0  0  0  0  0  0
  129.4080  126.1270   68.2460 C   0  0  0  0  0  0  0  0  0  0  0  0
  130.2140  127.0660   68.9090 C   0  0  0  0  0  0  0  0  0  0  0  0
  129.8910  127.5510   70.1800 N   0  0  0  0  0  0  0  0  0  0  0  0
  130.9010  127.6270   71.2540 C   0  0  0  0  0  0  0  0  0  0  0  0
  130.4650  128.5060   72.4460 C   0  0  0  0  0  0  0  0  0  0  0  0
  129.2190  128.0530   72.9530 O   0  0  0  0  0  0  0  0  0  0  0  0
  128.2000  128.1110   71.9670 C   0  0  0  0  0  0  0  0  0  0  0  0
  128.5770  127.2200   70.7640 C   0  0  0  0  0  0  0  0  0  0  0  0
  131.3900  127.4900   68.2740 C   0  0  0  0  0  0  0  0  0  0  0  0
  131.7380  127.0110   67.0150 C   0  0  0  0  0  0  0  0  0  0  0  0
  132.6120  125.2230   64.6240 C   0  0  0  0  0  0  0  0  0  0  0  0
  133.7200  125.3680   65.5720 C   0  0  0  0  0  0  0  0  0  0  0  0
  134.5930  125.4830   66.3240 N   0  0  0  0  0  0  0  0  0  0  0  0
  133.5125  119.1961   61.5450 H   0  0  0  0  0  0  0  0  0  0  0  0
  132.4666  119.3697   60.0949 H   0  0  0  0  0  0  0  0  0  0  0  0
  134.1241  120.0620   60.0949 H   0  0  0  0  0  0  0  0  0  0  0  0
  134.0085  121.9323   63.1090 H   0  0  0  0  0  0  0  0  0  0  0  0
  135.3679  122.1795   61.9411 H   0  0  0  0  0  0  0  0  0  0  0  0
  129.9491  122.5662   61.4798 H   0  0  0  0  0  0  0  0  0  0  0  0
  128.1895  122.1947   59.7785 H   0  0  0  0  0  0  0  0  0  0  0  0
  127.6876  123.6759   57.2246 H   0  0  0  0  0  0  0  0  0  0  0  0
  126.7382  122.2465   57.8539 H   0  0  0  0  0  0  0  0  0  0  0  0
  125.6361  124.5906   56.2337 H   0  0  0  0  0  0  0  0  0  0  0  0
  125.8770  122.8993   55.6670 H   0  0  0  0  0  0  0  0  0  0  0  0
  123.9962  125.0287   57.8749 H   0  0  0  0  0  0  0  0  0  0  0  0
  123.0273  123.6596   58.5307 H   0  0  0  0  0  0  0  0  0  0  0  0
  124.8016  124.4623   60.1206 H   0  0  0  0  0  0  0  0  0  0  0  0
  125.0002  122.7197   59.6052 H   0  0  0  0  0  0  0  0  0  0  0  0
  126.9717  126.3211   60.1393 H   0  0  0  0  0  0  0  0  0  0  0  0
  128.7359  126.6925   61.8349 H   0  0  0  0  0  0  0  0  0  0  0  0
  129.2286  125.6609   64.3420 H   0  0  0  0  0  0  0  0  0  0  0  0
  129.1077  124.9157   66.4850 H   0  0  0  0  0  0  0  0  0  0  0  0
  128.4886  125.7643   68.7288 H   0  0  0  0  0  0  0  0  0  0  0  0
  131.0938  126.6091   71.6238 H   0  0  0  0  0  0  0  0  0  0  0  0
  131.8001  128.0900   70.8214 H   0  0  0  0  0  0  0  0  0  0  0  0
  131.2245  128.4465   73.2395 H   0  0  0  0  0  0  0  0  0  0  0  0
  130.3600  129.5473   72.1074 H   0  0  0  0  0  0  0  0  0  0  0  0
  127.2533  127.7562   72.4004 H   0  0  0  0  0  0  0  0  0  0  0  0
  128.0877  129.1504   71.6249 H   0  0  0  0  0  0  0  0  0  0  0  0
  128.5979  126.1724   71.0988 H   0  0  0  0  0  0  0  0  0  0  0  0
  127.8215  127.3913   69.9830 H   0  0  0  0  0  0  0  0  0  0  0  0
  132.0477  128.2126   68.7791 H   0  0  0  0  0  0  0  0  0  0  0  0
  132.6647  127.3595   66.5356 H   0  0  0  0  0  0  0  0  0  0  0  0
  1  2  1  0
  2  3  1  0
  3  4  2  0
  3  5  1  0
  5  6  1  0
  6  7  1  0
  7  8  2  0
  8  9  1  0
  9 10  1  0
 10 11  2  0
 11 12  1  0
 12 13  2  0
 13 14  1  0
 14 15  1  0
 15 16  1  0
 16 17  1  0
 17 18  1  0
 18 19  1  0
 13 20  1  0
 20 21  2  0
  9 22  2  0
 22 23  1  0
 23 24  1  0
 24 25  2  0
 25 26  1  0
 26 27  2  0
 27 28  1  0
 28 29  1  0
 29 30  1  0
 30 31  1  0
 31 32  1  0
 32 33  1  0
 27 34  1  0
 34 35  2  0
 23 36  2  0
 36 37  1  0
 37 38  3  0
 36  7  1  0
 21 10  1  0
 35 24  1  0
 19 14  1  0
 33 28  1  0
  1 39  1  0
  1 40  1  0
  1 41  1  0
  5 42  1  0
  5 43  1  0
 11 44  1  0
 12 45  1  0
 15 46  1  0
 15 47  1  0
 16 48  1  0
 16 49  1  0
 18 50  1  0
 18 51  1  0
 19 52  1  0
 19 53  1  0
 20 54  1  0
 21 55  1  0
 22 56  1  0
 25 57  1  0
 26 58  1  0
 29 59  1  0
 29 60  1  0
 30 61  1  0
 30 62  1  0
 32 63  1  0
 32 64  1  0
 33 65  1  0
 33 66  1  0
 34 67  1  0
 35 68  1  0
M  END
>  <Binding energies>  (1) 
[-6.05]

>  <Ligand effiencies>  (1) 
[-0.15921052631578947]

>  <Interactions>  (1) 
["V-B:HIS:456:CE1:9040, V-A:HIS:456:CD2:4065, V-A:LYS:547:CE:4948, H-A:LYS:547:NZ:4949, V-B:HIS:456:CD2:9039, V-B:HIS:456:CG:9037, V-A:HIS:456:CE1:4066, V-A:HIS:456:CG:4063, V-A:GLY:544:C:4910, V-B:GLU:543:CG:9879, V-A:LEU:475:CD2:4256, H-A:TYR:484:OH:4345, V-A:GLY:454:CA:4046, V-B:TYR:539:CD1:9845, V-B:ASP:366:CG:8184, V-B:GLU:543:CB:9878, V-B:TYR:539:CE1:9847, V-B:GLU:543:CD:9880, V-B:PRO:540:CB:9857, V-A:ARG:545:CZ:4924, V-B:PRO:540:CA:9855, V-B:ASP:366:CB:8183, V-B:PRO:540:N:9856, V-A:GLU:543:CD:4906, V-A:ARG:545:CD:4921, V-A:GLY:453:CA:4041, V-A:ILE:369:CD1:3236, V-A:ARG:545:CG:4920, H-A:ARG:545:NE:4922, V-A:GLY:453:C:4039, V-A:ILE:369:CG2:3234, V-A:LEU:373:CD1:3277, V-A:SER:385:CA:3404, V-B:TYR:531:CE2:9765, V-B:LEU:363:CD1:8160, V-B:GLU:543:C:9874, V-A:GLU:543:C:4900, V-A:GLY:544:CA:4912, H-A:GLY:454:N:4047, V-A:GLU:543:CG:4905, H-A:ILE:455:N:4052, V-B:LEU:363:CA:8156"]

$$$$
2d_Grossjean_2025
     RDKit          3D

 36 37  0  0  0  0  0  0  0  0999 V2000
  130.8150  128.2830   58.1820 C   0  0  0  0  0  0  0  0  0  0  0  0
  129.4340  128.9060   58.2680 C   0  0  0  0  0  0  0  0  0  0  0  0
  128.6140  129.0200   57.1480 C   0  0  0  0  0  0  0  0  0  0  0  0
  127.3430  129.5990   57.2810 C   0  0  0  0  0  0  0  0  0  0  0  0
  126.4450  129.7070   56.0330 C   0  0  0  0  0  0  0  0  0  0  0  0
  126.8140  128.8020   55.1260 F   0  0  0  0  0  0  0  0  0  0  0  0
  125.1720  129.4910   56.3660 F   0  0  0  0  0  0  0  0  0  0  0  0
  126.5090  130.9060   55.4520 F   0  0  0  0  0  0  0  0  0  0  0  0
  126.9380  130.0610   58.5590 C   0  0  0  0  0  0  0  0  0  0  0  0
  125.6030  130.6320   58.7590 C   0  0  0  0  0  0  0  0  0  0  0  0
  124.5480  131.0810   58.9160 N   0  0  0  0  0  0  0  0  0  0  0  0
  127.8480  129.9270   59.6340 C   0  0  0  0  0  0  0  0  0  0  0  0
  127.5150  130.4800   61.2960 S   0  0  0  0  0  0  0  0  0  0  0  0
  128.4690  132.0020   61.6090 C   0  0  0  0  0  0  0  0  0  0  0  0
  129.7860  132.0540   60.8290 C   0  0  0  0  0  0  0  0  0  0  0  0
  130.8470  132.1210   61.4510 O   0  0  0  0  0  0  0  0  0  0  0  0
  129.6700  132.0530   59.4850 N   0  0  0  0  0  0  0  0  0  0  0  0
  130.6800  132.0890   58.5050 C   0  0  0  0  0  0  0  0  0  0  0  0
  130.2810  132.4950   57.2290 C   0  0  0  0  0  0  0  0  0  0  0  0
  131.2080  132.5560   56.1910 C   0  0  0  0  0  0  0  0  0  0  0  0
  132.5340  132.2030   56.4290 C   0  0  0  0  0  0  0  0  0  0  0  0
  132.9400  131.7850   57.6930 C   0  0  0  0  0  0  0  0  0  0  0  0
  132.0170  131.7230   58.7330 C   0  0  0  0  0  0  0  0  0  0  0  0
  129.0640  129.3450   59.4930 N   0  0  0  0  0  0  0  0  0  0  0  0
  131.2023  128.1083   59.1966 H   0  0  0  0  0  0  0  0  0  0  0  0
  130.7526  127.3259   57.6435 H   0  0  0  0  0  0  0  0  0  0  0  0
  131.4912  128.9632   57.6435 H   0  0  0  0  0  0  0  0  0  0  0  0
  128.9598  128.6593   56.1680 H   0  0  0  0  0  0  0  0  0  0  0  0
  127.8548  132.8668   61.3177 H   0  0  0  0  0  0  0  0  0  0  0  0
  128.7200  132.0185   62.6798 H   0  0  0  0  0  0  0  0  0  0  0  0
  128.7300  132.0860   59.1170 H   0  0  0  0  0  0  0  0  0  0  0  0
  129.2315  132.7673   57.0435 H   0  0  0  0  0  0  0  0  0  0  0  0
  130.8942  132.8814   55.1882 H   0  0  0  0  0  0  0  0  0  0  0  0
  133.2671  132.2550   55.6106 H   0  0  0  0  0  0  0  0  0  0  0  0
  133.9887  131.5041   57.8698 H   0  0  0  0  0  0  0  0  0  0  0  0
  132.3339  131.3880   59.7317 H   0  0  0  0  0  0  0  0  0  0  0  0
  1  2  1  0
  2  3  2  0
  3  4  1  0
  4  5  1  0
  5  6  1  0
  5  7  1  0
  5  8  1  0
  4  9  2  0
  9 10  1  0
 10 11  3  0
  9 12  1  0
 12 13  1  0
 13 14  1  0
 14 15  1  0
 15 16  2  0
 15 17  1  0
 17 18  1  0
 18 19  2  0
 19 20  1  0
 20 21  2  0
 21 22  1  0
 22 23  2  0
 12 24  2  0
 24  2  1  0
 23 18  1  0
  1 25  1  0
  1 26  1  0
  1 27  1  0
  3 28  1  0
 14 29  1  0
 14 30  1  0
 17 31  1  0
 19 32  1  0
 20 33  1  0
 21 34  1  0
 22 35  1  0
 23 36  1  0
M  END
>  <Binding energies>  (1) 
[-6.23]

>  <Ligand effiencies>  (1) 
[-0.2492]

>  <Interactions>  (1) 
["V-A:ASP:366:CG:3210, V-B:ASP:366:CB:8183, V-A:TYR:539:CE1:4873, V-A:TYR:539:C:4865, V-A:PRO:540:CA:4881, V-A:PRO:540:CB:4883, V-A:PRO:540:N:4882, V-A:LEU:363:CD1:3186, V-A:ILE:538:CA:4858, V-A:ILE:538:CB:4860, V-A:MET:535:CE:4833, V-A:ILE:538:CG2:4861, V-A:TYR:531:CE2:4791, V-B:MET:535:CE:9807, V-B:TYR:531:CZ:9766, V-A:TYR:539:CE2:4874, V-B:TYR:531:CE1:9764, V-A:TYR:539:CZ:4875, V-B:ASN:370:CG:8217, H-A:TYR:539:OH:4876, V-B:ASN:370:CB:8216, H-A:ALA:541:N:4889"]

$$$$
2e_Grossjean_2025
     RDKit          3D

 38 39  0  0  0  0  0  0  0  0999 V2000
  124.0800  123.6720   57.7660 C   0  0  0  0  0  0  0  0  0  0  0  0
  125.4970  123.2840   57.3880 C   0  0  0  0  0  0  0  0  0  0  0  0
  125.8840  123.1390   56.0540 C   0  0  0  0  0  0  0  0  0  0  0  0
  127.2080  122.7910   55.7810 C   0  0  0  0  0  0  0  0  0  0  0  0
  128.1030  122.5990   56.8370 C   0  0  0  0  0  0  0  0  0  0  0  0
  127.6460  122.7520   58.1510 C   0  0  0  0  0  0  0  0  0  0  0  0
  128.5970  122.5900   59.1720 N   0  0  0  0  0  0  0  0  0  0  0  0
  128.4030  122.6400   60.5090 C   0  0  0  0  0  0  0  0  0  0  0  0
  127.3070  122.7680   61.0590 O   0  0  0  0  0  0  0  0  0  0  0  0
  129.6680  122.5730   61.3700 C   0  0  0  0  0  0  0  0  0  0  0  0
  130.6520  124.1010   61.2590 S   0  0  0  0  0  0  0  0  0  0  0  0
  130.0880  124.9240   59.7870 C   0  0  0  0  0  0  0  0  0  0  0  0
  128.8370  125.4410   59.8720 N   0  0  0  0  0  0  0  0  0  0  0  0
  128.3130  126.0450   58.7810 C   0  0  0  0  0  0  0  0  0  0  0  0
  126.9120  126.6000   58.9460 C   0  0  0  0  0  0  0  0  0  0  0  0
  129.0030  126.1510   57.5750 C   0  0  0  0  0  0  0  0  0  0  0  0
  130.2950  125.6140   57.4680 C   0  0  0  0  0  0  0  0  0  0  0  0
  131.0360  125.7210   56.1220 C   0  0  0  0  0  0  0  0  0  0  0  0
  130.9900  124.5530   55.4800 F   0  0  0  0  0  0  0  0  0  0  0  0
  130.4660  126.6560   55.3610 F   0  0  0  0  0  0  0  0  0  0  0  0
  132.3220  126.0490   56.2670 F   0  0  0  0  0  0  0  0  0  0  0  0
  130.8600  124.9830   58.6040 C   0  0  0  0  0  0  0  0  0  0  0  0
  132.1930  124.3750   58.5470 C   0  0  0  0  0  0  0  0  0  0  0  0
  133.2460  123.8950   58.5020 N   0  0  0  0  0  0  0  0  0  0  0  0
  126.3540  123.1000   58.4250 N   0  0  0  0  0  0  0  0  0  0  0  0
  123.9868  123.6975   58.8617 H   0  0  0  0  0  0  0  0  0  0  0  0
  123.8501  124.6662   57.3552 H   0  0  0  0  0  0  0  0  0  0  0  0
  123.3757  122.9336   57.3552 H   0  0  0  0  0  0  0  0  0  0  0  0
  125.1629  123.2952   55.2381 H   0  0  0  0  0  0  0  0  0  0  0  0
  127.5448  122.6686   54.7410 H   0  0  0  0  0  0  0  0  0  0  0  0
  129.1513  122.3315   56.6384 H   0  0  0  0  0  0  0  0  0  0  0  0
  129.5310  122.3740   58.8550 H   0  0  0  0  0  0  0  0  0  0  0  0
  129.3757  122.4145   62.4185 H   0  0  0  0  0  0  0  0  0  0  0  0
  130.2873  121.7430   60.9991 H   0  0  0  0  0  0  0  0  0  0  0  0
  126.6781  126.6927   60.0168 H   0  0  0  0  0  0  0  0  0  0  0  0
  126.8514  127.5900   58.4704 H   0  0  0  0  0  0  0  0  0  0  0  0
  126.1899  125.9200   58.4704 H   0  0  0  0  0  0  0  0  0  0  0  0
  128.5382  126.6520   56.7131 H   0  0  0  0  0  0  0  0  0  0  0  0
  1  2  1  0
  2  3  2  0
  3  4  1  0
  4  5  2  0
  5  6  1  0
  6  7  1  0
  7  8  1  0
  8  9  2  0
  8 10  1  0
 10 11  1  0
 11 12  1  0
 12 13  2  0
 13 14  1  0
 14 15  1  0
 14 16  2  0
 16 17  1  0
 17 18  1  0
 18 19  1  0
 18 20  1  0
 18 21  1  0
 17 22  2  0
 22 23  1  0
 23 24  3  0
  6 25  2  0
 25  2  1  0
 22 12  1  0
  1 26  1  0
  1 27  1  0
  1 28  1  0
  3 29  1  0
  4 30  1  0
  5 31  1  0
  7 32  1  0
 10 33  1  0
 10 34  1  0
 15 35  1  0
 15 36  1  0
 15 37  1  0
 16 38  1  0
M  END
>  <Binding energies>  (1) 
[-6.48]

>  <Ligand effiencies>  (1) 
[-0.24923076923076926]

>  <Interactions>  (1) 
["V-B:TYR:539:CD1:9845, V-B:TYR:539:C:9839, V-B:ASP:366:CG:8184, H-B:TYR:539:O:9840, V-B:TYR:539:CE1:9847, V-B:PRO:540:CB:9857, V-B:PRO:540:CA:9855, V-B:ALA:541:CB:9864, V-B:PRO:540:N:9856, V-B:TYR:539:CE2:9848, V-B:TYR:539:CG:9844, V-B:ILE:538:CB:9834, V-A:MET:535:CE:4833, V-B:TYR:539:CD2:9846, V-B:PRO:540:CD:9859, V-B:TYR:539:CZ:9849, V-B:ILE:538:CG2:9835, V-A:TYR:531:CZ:4792, V-B:ILE:538:CA:9832, V-B:MET:535:CE:9807, H-B:ALA:541:N:9863, V-A:ASP:366:CB:3209, V-B:TYR:531:CE2:9765, H-B:TYR:539:OH:9850, V-A:ASN:370:CG:3243, V-A:TYR:531:CE1:4790, V-B:ILE:538:C:9830, V-B:LEU:363:CD1:8160, V-B:LEU:363:CA:8156, V-B:LEU:363:CB:8158"]

$$$$
2f_Grossjean_2025
     RDKit          3D

 35 36  0  0  0  0  0  0  0  0999 V2000
  132.6090  131.3430   62.6070 C   0  0  0  0  0  0  0  0  0  0  0  0
  131.9910  131.6280   61.2520 C   0  0  0  0  0  0  0  0  0  0  0  0
  132.7240  131.5050   60.0740 C   0  0  0  0  0  0  0  0  0  0  0  0
  132.1090  131.7880   58.8450 C   0  0  0  0  0  0  0  0  0  0  0  0
  132.9400  131.6570   57.5540 C   0  0  0  0  0  0  0  0  0  0  0  0
  133.2310  132.8670   57.0720 F   0  0  0  0  0  0  0  0  0  0  0  0
  134.0770  131.0100   57.8100 F   0  0  0  0  0  0  0  0  0  0  0  0
  132.3020  130.9860   56.5930 F   0  0  0  0  0  0  0  0  0  0  0  0
  130.7470  132.1870   58.8440 C   0  0  0  0  0  0  0  0  0  0  0  0
  130.0770  132.5480   57.5920 C   0  0  0  0  0  0  0  0  0  0  0  0
  129.5480  132.8320   56.6030 N   0  0  0  0  0  0  0  0  0  0  0  0
  130.0740  132.2600   60.0870 C   0  0  0  0  0  0  0  0  0  0  0  0
  128.3660  132.7300   60.2720 S   0  0  0  0  0  0  0  0  0  0  0  0
  128.1580  133.4680   61.9280 C   0  0  0  0  0  0  0  0  0  0  0  0
  127.0750  132.8170   62.8000 C   0  0  0  0  0  0  0  0  0  0  0  0
  125.9250  133.2590   62.8090 O   0  0  0  0  0  0  0  0  0  0  0  0
  127.5030  131.7690   63.5370 N   0  0  0  0  0  0  0  0  0  0  0  0
  126.7850  130.9460   64.4250 C   0  0  0  0  0  0  0  0  0  0  0  0
  127.3250  130.2840   65.5430 C   0  0  0  0  0  0  0  0  0  0  0  0
  126.4980  129.4990   66.3480 C   0  0  0  0  0  0  0  0  0  0  0  0
  125.1460  129.3970   66.0170 C   0  0  0  0  0  0  0  0  0  0  0  0
  124.5990  130.0320   64.9500 N   0  0  0  0  0  0  0  0  0  0  0  0
  125.4160  130.7920   64.1770 C   0  0  0  0  0  0  0  0  0  0  0  0
  130.6920  132.0040   61.2660 N   0  0  0  0  0  0  0  0  0  0  0  0
  131.9169  131.6622   63.4001 H   0  0  0  0  0  0  0  0  0  0  0  0
  132.8031  130.2644   62.7019 H   0  0  0  0  0  0  0  0  0  0  0  0
  133.5554  131.8956   62.7019 H   0  0  0  0  0  0  0  0  0  0  0  0
  133.7769  131.1884   60.1069 H   0  0  0  0  0  0  0  0  0  0  0  0
  129.1175  133.3876   62.4598 H   0  0  0  0  0  0  0  0  0  0  0  0
  127.8345  134.5062   61.7622 H   0  0  0  0  0  0  0  0  0  0  0  0
  128.4880  131.5530   63.4750 H   0  0  0  0  0  0  0  0  0  0  0  0
  128.3941  130.3847   65.7815 H   0  0  0  0  0  0  0  0  0  0  0  0
  126.9031  128.9721   67.2245 H   0  0  0  0  0  0  0  0  0  0  0  0
  124.4954  128.7745   66.6488 H   0  0  0  0  0  0  0  0  0  0  0  0
  124.9802  131.3132   63.3119 H   0  0  0  0  0  0  0  0  0  0  0  0
  1  2  1  0
  2  3  2  0
  3  4  1  0
  4  5  1  0
  5  6  1  0
  5  7  1  0
  5  8  1  0
  4  9  2  0
  9 10  1  0
 10 11  3  0
  9 12  1  0
 12 13  1  0
 13 14  1  0
 14 15  1  0
 15 16  2  0
 15 17  1  0
 17 18  1  0
 18 19  2  0
 19 20  1  0
 20 21  2  0
 21 22  1  0
 22 23  2  0
 12 24  2  0
 24  2  1  0
 23 18  1  0
  1 25  1  0
  1 26  1  0
  1 27  1  0
  3 28  1  0
 14 29  1  0
 14 30  1  0
 17 31  1  0
 19 32  1  0
 20 33  1  0
 21 34  1  0
 23 35  1  0
M  END
>  <Binding energies>  (1) 
[-8.18]

>  <Ligand effiencies>  (1) 
[-0.3272]

>  <Interactions>  (1) 
["V-B:HIS:456:CE1:9040, V-A:ARG:545:CZ:4924, V-B:ARG:545:CZ:9898, V-A:ASP:366:CG:3210, H-A:GLU:543:OE1:4907, V-A:GLU:543:CD:4906, V-B:LEU:475:CD2:9230, V-A:TYR:539:C:4865, H-B:ARG:545:NE:9896, V-A:ALA:541:CB:4890, V-A:PRO:540:CA:4881, V-B:ARG:545:CD:9895, V-B:ARG:545:CG:9894, V-A:PRO:540:CB:4883, V-A:PRO:540:N:4882, V-A:LEU:363:CD1:3186, V-A:PRO:540:CG:4884, V-A:TYR:531:CE2:4791, V-A:PRO:540:CD:4885, V-A:TYR:531:CZ:4792, H-B:TYR:484:OH:9319, H-B:GLY:454:N:9021, V-B:TYR:484:CZ:9318, V-A:GLU:543:CB:4904, V-A:ASP:366:CB:3209, V-A:PRO:540:C:4879, H-A:TYR:539:N:4868, V-A:LEU:363:CA:3182, V-A:LEU:363:CB:3184, V-A:LEU:363:C:3180, V-A:ASN:362:CB:3173, H-A:ALA:541:N:4889, V-A:ALA:541:C:4886, V-A:LEU:363:CG:3185"]

$$$$
2g_Grossjean_2025
     RDKit          3D

 39 40  0  0  0  0  0  0  0  0999 V2000
  132.2980  131.3320   62.6630 C   0  0  0  0  0  0  0  0  0  0  0  0
  131.8200  131.6280   61.2540 C   0  0  0  0  0  0  0  0  0  0  0  0
  132.6490  131.4480   60.1500 C   0  0  0  0  0  0  0  0  0  0  0  0
  132.1620  131.7440   58.8670 C   0  0  0  0  0  0  0  0  0  0  0  0
  133.0970  131.5470   57.6570 C   0  0  0  0  0  0  0  0  0  0  0  0
  133.3090  132.7120   57.0420 F   0  0  0  0  0  0  0  0  0  0  0  0
  134.2680  131.0550   58.0660 F   0  0  0  0  0  0  0  0  0  0  0  0
  132.5990  130.7030   56.7510 F   0  0  0  0  0  0  0  0  0  0  0  0
  130.8290  132.2100   58.7370 C   0  0  0  0  0  0  0  0  0  0  0  0
  130.2910  132.5870   57.4280 C   0  0  0  0  0  0  0  0  0  0  0  0
  129.8670  132.8840   56.3930 N   0  0  0  0  0  0  0  0  0  0  0  0
  130.0500  132.3330   59.9140 C   0  0  0  0  0  0  0  0  0  0  0  0
  128.3560  132.8790   59.9300 S   0  0  0  0  0  0  0  0  0  0  0  0
  127.3540  131.5340   60.6490 C   0  0  0  0  0  0  0  0  0  0  0  0
  126.8890  131.7790   62.0910 C   0  0  0  0  0  0  0  0  0  0  0  0
  125.6950  131.9000   62.3690 O   0  0  0  0  0  0  0  0  0  0  0  0
  127.8700  131.8580   63.0090 N   0  0  0  0  0  0  0  0  0  0  0  0
  127.6760  132.0780   64.4430 C   0  0  0  0  0  0  0  0  0  0  0  0
  126.9600  130.9390   65.1620 C   0  0  0  0  0  0  0  0  0  0  0  0
  125.6440  130.6170   64.8170 C   0  0  0  0  0  0  0  0  0  0  0  0
  125.0010  129.5530   65.4460 C   0  0  0  0  0  0  0  0  0  0  0  0
  125.6790  128.8090   66.4080 C   0  0  0  0  0  0  0  0  0  0  0  0
  126.9960  129.1170   66.7470 C   0  0  0  0  0  0  0  0  0  0  0  0
  127.6390  130.1800   66.1190 C   0  0  0  0  0  0  0  0  0  0  0  0
  130.5450  132.0650   61.1480 N   0  0  0  0  0  0  0  0  0  0  0  0
  131.5946  131.7676   63.3879 H   0  0  0  0  0  0  0  0  0  0  0  0
  132.3501  130.2433   62.8114 H   0  0  0  0  0  0  0  0  0  0  0  0
  133.2959  131.7705   62.8114 H   0  0  0  0  0  0  0  0  0  0  0  0
  133.6762  131.0772   60.2819 H   0  0  0  0  0  0  0  0  0  0  0  0
  126.4619  131.3980   60.0201 H   0  0  0  0  0  0  0  0  0  0  0  0
  128.0028  130.6462   60.6791 H   0  0  0  0  0  0  0  0  0  0  0  0
  128.8240  131.7240   62.7060 H   0  0  0  0  0  0  0  0  0  0  0  0
  128.6640  132.2116   64.9077 H   0  0  0  0  0  0  0  0  0  0  0  0
  127.0336  132.9655   64.5413 H   0  0  0  0  0  0  0  0  0  0  0  0
  125.1168  131.2030   64.0498 H   0  0  0  0  0  0  0  0  0  0  0  0
  123.9626  129.3019   65.1838 H   0  0  0  0  0  0  0  0  0  0  0  0
  125.1706  127.9699   66.9055 H   0  0  0  0  0  0  0  0  0  0  0  0
  127.5244  128.5228   67.5071 H   0  0  0  0  0  0  0  0  0  0  0  0
  128.6808  130.4224   66.3758 H   0  0  0  0  0  0  0  0  0  0  0  0
  1  2  1  0
  2  3  2  0
  3  4  1  0
  4  5  1  0
  5  6  1  0
  5  7  1  0
  5  8  1  0
  4  9  2  0
  9 10  1  0
 10 11  3  0
  9 12  1  0
 12 13  1  0
 13 14  1  0
 14 15  1  0
 15 16  2  0
 15 17  1  0
 17 18  1  0
 18 19  1  0
 19 20  2  0
 20 21  1  0
 21 22  2  0
 22 23  1  0
 23 24  2  0
 12 25  2  0
 25  2  1  0
 24 19  1  0
  1 26  1  0
  1 27  1  0
  1 28  1  0
  3 29  1  0
 14 30  1  0
 14 31  1  0
 17 32  1  0
 18 33  1  0
 18 34  1  0
 20 35  1  0
 21 36  1  0
 22 37  1  0
 23 38  1  0
 24 39  1  0
M  END
>  <Binding energies>  (1) 
[-7.0]

>  <Ligand effiencies>  (1) 
[-0.2692307692307692]

>  <Interactions>  (1) 
["V-B:HIS:456:CE1:9040, V-A:ARG:545:CZ:4924, V-B:ARG:545:CZ:9898, V-A:ASP:366:CG:3210, H-A:GLU:543:OE1:4907, V-A:GLU:543:CD:4906, V-A:TYR:539:CE1:4873, V-A:TYR:539:C:4865, V-A:ALA:541:CB:4890, V-A:PRO:540:CA:4881, V-B:ARG:545:CD:9895, V-B:ARG:545:CG:9894, V-A:PRO:540:CB:4883, V-A:PRO:540:N:4882, V-A:LEU:363:CD1:3186, V-A:PRO:540:CG:4884, V-A:TYR:531:CE2:4791, V-A:PRO:540:CD:4885, V-A:TYR:531:CZ:4792, V-B:TYR:484:CZ:9318, V-A:GLU:543:CB:4904, V-B:TYR:484:CE2:9317, V-A:ASP:366:CB:3209, V-A:PRO:540:C:4879, H-A:TYR:539:N:4868, V-A:LEU:363:CA:3182, V-A:LEU:363:CB:3184, V-A:LEU:363:C:3180, V-A:GLU:543:CG:4905, V-A:ASN:362:CB:3173, H-A:ALA:541:N:4889, V-A:ASN:362:C:3169, V-A:ALA:541:C:4886, V-A:LEU:363:CG:3185"]

$$$$
2h_Grossjean_2025
     RDKit          3D

 51 52  0  0  0  0  0  0  0  0999 V2000
  128.3810  132.4410   55.4530 C   0  0  0  0  0  0  0  0  0  0  0  0
  129.3120  133.2400   56.1760 O   0  0  0  0  0  0  0  0  0  0  0  0
  129.8820  132.7380   57.3320 C   0  0  0  0  0  0  0  0  0  0  0  0
  129.1650  132.4850   58.5130 C   0  0  0  0  0  0  0  0  0  0  0  0
  129.8070  131.9710   59.6370 C   0  0  0  0  0  0  0  0  0  0  0  0
  131.1760  131.6990   59.6090 C   0  0  0  0  0  0  0  0  0  0  0  0
  131.8540  131.1160   60.8470 C   0  0  0  0  0  0  0  0  0  0  0  0
  131.4560  129.7390   61.1420 N   0  0  0  0  0  0  0  0  0  0  0  0
  130.2480  129.3680   61.6020 C   0  0  0  0  0  0  0  0  0  0  0  0
  129.3640  130.1730   61.9050 O   0  0  0  0  0  0  0  0  0  0  0  0
  130.0210  127.8550   61.7230 C   0  0  0  0  0  0  0  0  0  0  0  0
  131.1760  126.8230   60.7590 S   0  0  0  0  0  0  0  0  0  0  0  0
  130.7200  127.0010   59.0490 C   0  0  0  0  0  0  0  0  0  0  0  0
  129.8440  128.0110   58.8200 N   0  0  0  0  0  0  0  0  0  0  0  0
  129.4160  128.2230   57.5560 C   0  0  0  0  0  0  0  0  0  0  0  0
  128.4320  129.3640   57.3760 C   0  0  0  0  0  0  0  0  0  0  0  0
  129.8410  127.4510   56.4770 C   0  0  0  0  0  0  0  0  0  0  0  0
  130.7630  126.4150   56.6910 C   0  0  0  0  0  0  0  0  0  0  0  0
  131.2290  125.5770   55.4850 C   0  0  0  0  0  0  0  0  0  0  0  0
  132.5470  125.3840   55.5470 F   0  0  0  0  0  0  0  0  0  0  0  0
  130.6500  124.3740   55.4370 F   0  0  0  0  0  0  0  0  0  0  0  0
  130.9370  126.2090   54.3480 F   0  0  0  0  0  0  0  0  0  0  0  0
  131.2280  126.1840   58.0110 C   0  0  0  0  0  0  0  0  0  0  0  0
  132.2350  125.1530   58.2780 C   0  0  0  0  0  0  0  0  0  0  0  0
  133.0320  124.3410   58.4860 N   0  0  0  0  0  0  0  0  0  0  0  0
  131.9090  131.9690   58.4440 C   0  0  0  0  0  0  0  0  0  0  0  0
  133.2590  131.7070   58.4090 O   0  0  0  0  0  0  0  0  0  0  0  0
  133.6440  130.7450   57.4350 C   0  0  0  0  0  0  0  0  0  0  0  0
  131.2560  132.4700   57.3040 C   0  0  0  0  0  0  0  0  0  0  0  0
  131.9690  132.7180   56.1550 O   0  0  0  0  0  0  0  0  0  0  0  0
  131.7880  131.7440   55.1370 C   0  0  0  0  0  0  0  0  0  0  0  0
  127.7417  131.8924   56.1603 H   0  0  0  0  0  0  0  0  0  0  0  0
  127.7561  133.0883   54.8201 H   0  0  0  0  0  0  0  0  0  0  0  0
  128.9260  131.7252   54.8201 H   0  0  0  0  0  0  0  0  0  0  0  0
  128.0859  132.6949   58.5505 H   0  0  0  0  0  0  0  0  0  0  0  0
  129.2309  131.7779   60.5539 H   0  0  0  0  0  0  0  0  0  0  0  0
  132.9424  131.1367   60.6891 H   0  0  0  0  0  0  0  0  0  0  0  0
  131.5425  131.7313   61.7040 H   0  0  0  0  0  0  0  0  0  0  0  0
  132.1160  129.0200   60.8840 H   0  0  0  0  0  0  0  0  0  0  0  0
  130.1199  127.5787   62.7831 H   0  0  0  0  0  0  0  0  0  0  0  0
  129.0190  127.6605   61.3128 H   0  0  0  0  0  0  0  0  0  0  0  0
  128.1139  129.7329   58.3623 H   0  0  0  0  0  0  0  0  0  0  0  0
  128.9145  130.1797   56.8176 H   0  0  0  0  0  0  0  0  0  0  0  0
  127.5542  129.0066   56.8176 H   0  0  0  0  0  0  0  0  0  0  0  0
  129.4571  127.6518   55.4659 H   0  0  0  0  0  0  0  0  0  0  0  0
  134.0072  129.8375   57.9395 H   0  0  0  0  0  0  0  0  0  0  0  0
  132.7775  130.4930   56.8060 H   0  0  0  0  0  0  0  0  0  0  0  0
  134.4452  131.1604   56.8060 H   0  0  0  0  0  0  0  0  0  0  0  0
  131.6055  130.7619   55.5975 H   0  0  0  0  0  0  0  0  0  0  0  0
  130.9261  132.0220   54.5126 H   0  0  0  0  0  0  0  0  0  0  0  0
  132.6922  131.6939   54.5126 H   0  0  0  0  0  0  0  0  0  0  0  0
  1  2  1  0
  2  3  1  0
  3  4  2  0
  4  5  1  0
  5  6  2  0
  6  7  1  0
  7  8  1  0
  8  9  1  0
  9 10  2  0
  9 11  1  0
 11 12  1  0
 12 13  1  0
 13 14  2  0
 14 15  1  0
 15 16  1  0
 15 17  2  0
 17 18  1  0
 18 19  1  0
 19 20  1  0
 19 21  1  0
 19 22  1  0
 18 23  2  0
 23 24  1  0
 24 25  3  0
  6 26  1  0
 26 27  1  0
 27 28  1  0
 26 29  2  0
 29 30  1  0
 30 31  1  0
 29  3  1  0
 23 13  1  0
  1 32  1  0
  1 33  1  0
  1 34  1  0
  4 35  1  0
  5 36  1  0
  7 37  1  0
  7 38  1  0
  8 39  1  0
 11 40  1  0
 11 41  1  0
 16 42  1  0
 16 43  1  0
 16 44  1  0
 17 45  1  0
 28 46  1  0
 28 47  1  0
 28 48  1  0
 31 49  1  0
 31 50  1  0
 31 51  1  0
M  END
>  <Binding energies>  (1) 
[-6.36]

>  <Ligand effiencies>  (1) 
[-0.19875]

>  <Interactions>  (1) 
["V-B:TYR:539:CE1:9847, H-A:ASP:366:OD2:3212, H-A:ASP:366:OD1:3211, V-A:ASP:366:CG:3210, V-A:GLU:543:CD:4906, H-A:ARG:545:NH2:4926, V-A:TYR:539:CE1:4873, V-A:TYR:539:C:4865, V-A:PRO:540:CA:4881, V-A:TYR:539:CD1:4871, V-A:PRO:540:CB:4883, V-A:PRO:540:N:4882, V-A:LEU:363:CD1:3186, V-A:TYR:539:CA:4867, V-A:ILE:538:CA:4858, V-B:TYR:539:CE2:9848, V-A:ILE:538:CB:4860, V-A:MET:535:CG:4831, V-A:MET:535:CE:4833, V-B:TYR:539:CZ:9849, V-A:ILE:538:CG2:4861, V-A:TYR:531:CE2:4791, V-A:PRO:540:CD:4885, V-A:TYR:531:CZ:4792, V-B:MET:535:CE:9807, V-A:TYR:539:CD2:4872, V-A:TYR:539:CE2:4874, V-A:TYR:539:CZ:4875, V-A:ASP:366:CB:3209, H-B:TYR:539:OH:9850, V-A:ASN:370:CG:3243, V-A:ASN:370:CB:3242, V-A:TYR:531:CE1:4790, H-A:TYR:539:N:4868, V-A:LEU:363:CA:3182"]

$$$$
2i_Grossjean_2025
     RDKit          3D

 32 33  0  0  0  0  0  0  0  0999 V2000
  132.5970  131.3650   62.6150 C   0  0  0  0  0  0  0  0  0  0  0  0
  131.9680  131.6780   61.2700 C   0  0  0  0  0  0  0  0  0  0  0  0
  132.6810  131.5410   60.0820 C   0  0  0  0  0  0  0  0  0  0  0  0
  132.0540  131.8400   58.8630 C   0  0  0  0  0  0  0  0  0  0  0  0
  132.8580  131.6830   57.5580 C   0  0  0  0  0  0  0  0  0  0  0  0
  133.1340  132.8840   57.0460 F   0  0  0  0  0  0  0  0  0  0  0  0
  134.0020  131.0420   57.7990 F   0  0  0  0  0  0  0  0  0  0  0  0
  132.1990  130.9920   56.6250 F   0  0  0  0  0  0  0  0  0  0  0  0
  130.7050  132.2760   58.8850 C   0  0  0  0  0  0  0  0  0  0  0  0
  130.0010  132.6010   57.6400 C   0  0  0  0  0  0  0  0  0  0  0  0
  129.4440  132.8580   56.6580 N   0  0  0  0  0  0  0  0  0  0  0  0
  130.0570  132.3900   60.1360 C   0  0  0  0  0  0  0  0  0  0  0  0
  128.3640  132.9360   60.2870 S   0  0  0  0  0  0  0  0  0  0  0  0
  127.3360  131.4880   60.6770 C   0  0  0  0  0  0  0  0  0  0  0  0
  126.9580  131.4270   62.1580 C   0  0  0  0  0  0  0  0  0  0  0  0
  127.3200  132.3360   62.9070 O   0  0  0  0  0  0  0  0  0  0  0  0
  126.2590  130.3370   62.5430 N   0  0  0  0  0  0  0  0  0  0  0  0
  125.8190  130.0460   63.8230 C   0  0  0  0  0  0  0  0  0  0  0  0
  126.5250  129.5580   64.9320 C   0  0  0  0  0  0  0  0  0  0  0  0
  125.5850  129.4640   65.9320 C   0  0  0  0  0  0  0  0  0  0  0  0
  124.3870  129.8780   65.4540 O   0  0  0  0  0  0  0  0  0  0  0  0
  124.5530  130.2480   64.1180 N   0  0  0  0  0  0  0  0  0  0  0  0
  130.6820  132.0930   61.3050 N   0  0  0  0  0  0  0  0  0  0  0  0
  131.9260  131.6989   63.4202 H   0  0  0  0  0  0  0  0  0  0  0  0
  132.7603  130.2805   62.6999 H   0  0  0  0  0  0  0  0  0  0  0  0
  133.5606  131.8887   62.6999 H   0  0  0  0  0  0  0  0  0  0  0  0
  133.7271  131.2012   60.0990 H   0  0  0  0  0  0  0  0  0  0  0  0
  126.4145  131.5367   60.0783 H   0  0  0  0  0  0  0  0  0  0  0  0
  127.9207  130.5866   60.4413 H   0  0  0  0  0  0  0  0  0  0  0  0
  126.0560  129.6390   61.8420 H   0  0  0  0  0  0  0  0  0  0  0  0
  127.5942  129.3060   64.9896 H   0  0  0  0  0  0  0  0  0  0  0  0
  125.7756  129.1095   66.9557 H   0  0  0  0  0  0  0  0  0  0  0  0
  1  2  1  0
  2  3  2  0
  3  4  1  0
  4  5  1  0
  5  6  1  0
  5  7  1  0
  5  8  1  0
  4  9  2  0
  9 10  1  0
 10 11  3  0
  9 12  1  0
 12 13  1  0
 13 14  1  0
 14 15  1  0
 15 16  2  0
 15 17  1  0
 17 18  1  0
 18 19  1  0
 19 20  2  0
 20 21  1  0
 21 22  1  0
 12 23  2  0
 23  2  1  0
 22 18  2  0
  1 24  1  0
  1 25  1  0
  1 26  1  0
  3 27  1  0
 14 28  1  0
 14 29  1  0
 17 30  1  0
 19 31  1  0
 20 32  1  0
M  END
>  <Binding energies>  (1) 
[-7.47]

>  <Ligand effiencies>  (1) 
[-0.31124999999999997]

>  <Interactions>  (1) 
["V-B:HIS:456:CE1:9040, H-B:ASP:366:OD1:8185, V-A:ARG:545:CZ:4924, V-B:ARG:545:CZ:9898, V-A:ASP:366:CG:3210, V-A:GLU:543:CD:4906, V-A:TYR:539:CE1:4873, V-A:TYR:539:C:4865, H-B:ARG:545:NE:9896, V-A:PRO:540:CA:4881, V-B:ARG:545:CD:9895, V-B:ARG:545:CG:9894, V-A:PRO:540:CB:4883, V-A:PRO:540:N:4882, V-A:LEU:363:CD1:3186, V-A:ILE:538:CB:4860, V-A:PRO:540:CG:4884, V-A:TYR:531:CE2:4791, V-A:PRO:540:CD:4885, V-A:TYR:531:CZ:4792, H-B:TYR:484:OH:9319, H-B:GLY:454:N:9021, V-A:ASP:366:CB:3209, V-A:PRO:540:C:4879, H-A:TYR:539:N:4868, V-A:LEU:363:CA:3182, V-A:LEU:363:CB:3184, V-A:LEU:363:C:3180, V-A:ASN:362:CB:3173, H-A:ALA:541:N:4889, V-A:ALA:541:C:4886"]

$$$$
2j_Grossjean_2025
     RDKit          3D

 32 33  0  0  0  0  0  0  0  0999 V2000
  129.4460  122.1090   61.2730 C   0  0  0  0  0  0  0  0  0  0  0  0
  129.7280  122.8910   60.0040 C   0  0  0  0  0  0  0  0  0  0  0  0
  128.7990  122.9610   58.9690 C   0  0  0  0  0  0  0  0  0  0  0  0
  129.1040  123.6990   57.8150 C   0  0  0  0  0  0  0  0  0  0  0  0
  128.0640  123.7670   56.6810 C   0  0  0  0  0  0  0  0  0  0  0  0
  127.0080  123.0110   56.9840 F   0  0  0  0  0  0  0  0  0  0  0  0
  127.6590  125.0260   56.5070 F   0  0  0  0  0  0  0  0  0  0  0  0
  128.5460  123.3360   55.5130 F   0  0  0  0  0  0  0  0  0  0  0  0
  130.3600  124.3520   57.7430 C   0  0  0  0  0  0  0  0  0  0  0  0
  130.7320  125.1370   56.5620 C   0  0  0  0  0  0  0  0  0  0  0  0
  131.0250  125.7570   55.6300 N   0  0  0  0  0  0  0  0  0  0  0  0
  131.2440  124.2270   58.8410 C   0  0  0  0  0  0  0  0  0  0  0  0
  132.8510  125.0080   58.8600 S   0  0  0  0  0  0  0  0  0  0  0  0
  133.9770  123.9830   59.8680 C   0  0  0  0  0  0  0  0  0  0  0  0
  133.5680  123.8330   61.3410 C   0  0  0  0  0  0  0  0  0  0  0  0
  133.5300  122.7210   61.8730 O   0  0  0  0  0  0  0  0  0  0  0  0
  133.2560  124.9910   61.9630 N   0  0  0  0  0  0  0  0  0  0  0  0
  132.8590  125.1420   63.2850 C   0  0  0  0  0  0  0  0  0  0  0  0
  133.6230  125.2640   64.3490 N   0  0  0  0  0  0  0  0  0  0  0  0
  132.9080  125.3920   65.4490 C   0  0  0  0  0  0  0  0  0  0  0  0
  131.5250  125.3740   65.2900 C   0  0  0  0  0  0  0  0  0  0  0  0
  131.1540  125.1790   63.6020 S   0  0  0  0  0  0  0  0  0  0  0  0
  130.9290  123.5100   59.9500 N   0  0  0  0  0  0  0  0  0  0  0  0
  129.6721  122.7361   62.1480 H   0  0  0  0  0  0  0  0  0  0  0  0
  128.3858  121.8166   61.2956 H   0  0  0  0  0  0  0  0  0  0  0  0
  130.0756  121.2073   61.2956 H   0  0  0  0  0  0  0  0  0  0  0  0
  127.8332  122.4416   59.0553 H   0  0  0  0  0  0  0  0  0  0  0  0
  134.0182  122.9790   59.4205 H   0  0  0  0  0  0  0  0  0  0  0  0
  134.9484  124.4991   59.8678 H   0  0  0  0  0  0  0  0  0  0  0  0
  133.3130  125.8420   61.4220 H   0  0  0  0  0  0  0  0  0  0  0  0
  133.3777  125.5066   66.4371 H   0  0  0  0  0  0  0  0  0  0  0  0
  130.7869  125.4678   66.1002 H   0  0  0  0  0  0  0  0  0  0  0  0
  1  2  1  0
  2  3  2  0
  3  4  1  0
  4  5  1  0
  5  6  1  0
  5  7  1  0
  5  8  1  0
  4  9  2  0
  9 10  1  0
 10 11  3  0
  9 12  1  0
 12 13  1  0
 13 14  1  0
 14 15  1  0
 15 16  2  0
 15 17  1  0
 17 18  1  0
 18 19  2  0
 19 20  1  0
 20 21  2  0
 21 22  1  0
 12 23  2  0
 23  2  1  0
 22 18  1  0
  1 24  1  0
  1 25  1  0
  1 26  1  0
  3 27  1  0
 14 28  1  0
 14 29  1  0
 17 30  1  0
 20 31  1  0
 21 32  1  0
M  END
>  <Binding energies>  (1) 
[-6.59]

>  <Ligand effiencies>  (1) 
[-0.27458333333333335]

>  <Interactions>  (1) 
["H-A:TYR:484:OH:4345, V-B:TYR:539:CD1:9845, V-B:TYR:539:C:9839, V-B:TYR:539:CE1:9847, V-A:ARG:545:CZ:4924, V-B:ALA:541:CB:9864, H-A:ASP:366:OD2:3212, H-A:ASP:366:OD1:3211, V-A:ASP:366:CG:3210, V-B:PRO:540:N:9856, V-A:ARG:545:CD:4921, H-A:ARG:545:NH2:4926, V-A:ILE:369:CD1:3236, V-A:ARG:545:CG:4920, H-A:ARG:545:NE:4922, V-B:TYR:539:CE2:9848, V-B:TYR:539:CZ:9849, V-B:MET:535:CE:9807, V-A:ILE:369:CG2:3234, V-A:ILE:369:CB:3233, H-A:TYR:531:OH:4793, H-A:ASN:370:ND2:3245, H-B:TYR:539:OH:9850, H-A:GLY:454:N:4047, H-A:ARG:545:NH1:4925"]

$$$$
2k_Grossjean_2025
     RDKit          3D

 50 50  0  0  0  0  0  0  0  0999 V2000
  132.8080  119.0310   60.7040 C   0  0  0  0  0  0  0  0  0  0  0  0
  133.2290  120.3430   60.3660 O   0  0  0  0  0  0  0  0  0  0  0  0
  133.6040  121.1260   61.4920 C   0  0  0  0  0  0  0  0  0  0  0  0
  133.9350  122.5550   61.0430 C   0  0  0  0  0  0  0  0  0  0  0  0
  132.7280  123.2950   60.9280 O   0  0  0  0  0  0  0  0  0  0  0  0
  132.8030  124.6190   61.4440 C   0  0  0  0  0  0  0  0  0  0  0  0
  133.8890  124.6560   62.5280 C   0  0  0  0  0  0  0  0  0  0  0  0
  133.2520  124.4980   63.7860 O   0  0  0  0  0  0  0  0  0  0  0  0
  132.1860  125.4010   64.0410 C   0  0  0  0  0  0  0  0  0  0  0  0
  131.0090  124.6230   64.6590 C   0  0  0  0  0  0  0  0  0  0  0  0
  130.3120  123.7760   63.6880 N   0  0  0  0  0  0  0  0  0  0  0  0
  130.7530  122.5920   63.2210 C   0  0  0  0  0  0  0  0  0  0  0  0
  131.8050  122.0670   63.5920 O   0  0  0  0  0  0  0  0  0  0  0  0
  129.8680  121.9220   62.1600 C   0  0  0  0  0  0  0  0  0  0  0  0
  129.6140  122.8860   60.6300 S   0  0  0  0  0  0  0  0  0  0  0  0
  127.8640  123.1380   60.3690 C   0  0  0  0  0  0  0  0  0  0  0  0
  127.1190  123.3060   61.4920 N   0  0  0  0  0  0  0  0  0  0  0  0
  125.7870  123.4970   61.3700 C   0  0  0  0  0  0  0  0  0  0  0  0
  125.0250  123.6650   62.6700 C   0  0  0  0  0  0  0  0  0  0  0  0
  125.1440  123.5400   60.1360 C   0  0  0  0  0  0  0  0  0  0  0  0
  125.8950  123.3770   58.9620 C   0  0  0  0  0  0  0  0  0  0  0  0
  125.1680  123.4330   57.6040 C   0  0  0  0  0  0  0  0  0  0  0  0
  125.6560  124.3750   56.7950 F   0  0  0  0  0  0  0  0  0  0  0  0
  125.2870  122.2630   56.9740 F   0  0  0  0  0  0  0  0  0  0  0  0
  123.8740  123.6940   57.7890 F   0  0  0  0  0  0  0  0  0  0  0  0
  127.2930  123.1680   59.0750 C   0  0  0  0  0  0  0  0  0  0  0  0
  128.1250  122.9870   57.8810 C   0  0  0  0  0  0  0  0  0  0  0  0
  128.7820  122.8460   56.9380 N   0  0  0  0  0  0  0  0  0  0  0  0
  132.7747  118.9272   61.7986 H   0  0  0  0  0  0  0  0  0  0  0  0
  131.8063  118.8487   60.2877 H   0  0  0  0  0  0  0  0  0  0  0  0
  133.5166  118.2999   60.2877 H   0  0  0  0  0  0  0  0  0  0  0  0
  132.7726  121.1525   62.2118 H   0  0  0  0  0  0  0  0  0  0  0  0
  134.4903  120.6795   61.9665 H   0  0  0  0  0  0  0  0  0  0  0  0
  134.5909  123.0324   61.7859 H   0  0  0  0  0  0  0  0  0  0  0  0
  134.4492  122.5294   60.0709 H   0  0  0  0  0  0  0  0  0  0  0  0
  133.0612  125.3187   60.6355 H   0  0  0  0  0  0  0  0  0  0  0  0
  131.8329  124.9137   61.8708 H   0  0  0  0  0  0  0  0  0  0  0  0
  134.6067  123.8381   62.3667 H   0  0  0  0  0  0  0  0  0  0  0  0
  134.4359  125.6097   62.4914 H   0  0  0  0  0  0  0  0  0  0  0  0
  132.5217  126.1801   64.7412 H   0  0  0  0  0  0  0  0  0  0  0  0
  131.8665  125.8749   63.1011 H   0  0  0  0  0  0  0  0  0  0  0  0
  131.3960  123.9849   65.4671 H   0  0  0  0  0  0  0  0  0  0  0  0
  130.2846  125.3621   65.0317 H   0  0  0  0  0  0  0  0  0  0  0  0
  129.4310  124.1280   63.3420 H   0  0  0  0  0  0  0  0  0  0  0  0
  130.3343  120.9646   61.8845 H   0  0  0  0  0  0  0  0  0  0  0  0
  128.8741  121.8137   62.6186 H   0  0  0  0  0  0  0  0  0  0  0  0
  125.7091  123.5142   63.5181 H   0  0  0  0  0  0  0  0  0  0  0  0
  124.5999  124.6784   62.7175 H   0  0  0  0  0  0  0  0  0  0  0  0
  124.2132  122.9243   62.7175 H   0  0  0  0  0  0  0  0  0  0  0  0
  124.0571  123.7003   60.0818 H   0  0  0  0  0  0  0  0  0  0  0  0
  1  2  1  0
  2  3  1  0
  3  4  1  0
  4  5  1  0
  5  6  1  0
  6  7  1  0
  7  8  1  0
  8  9  1  0
  9 10  1  0
 10 11  1  0
 11 12  1  0
 12 13  2  0
 12 14  1  0
 14 15  1  0
 15 16  1  0
 16 17  2  0
 17 18  1  0
 18 19  1  0
 18 20  2  0
 20 21  1  0
 21 22  1  0
 22 23  1  0
 22 24  1  0
 22 25  1  0
 21 26  2  0
 26 27  1  0
 27 28  3  0
 26 16  1  0
  1 29  1  0
  1 30  1  0
  1 31  1  0
  3 32  1  0
  3 33  1  0
  4 34  1  0
  4 35  1  0
  6 36  1  0
  6 37  1  0
  7 38  1  0
  7 39  1  0
  9 40  1  0
  9 41  1  0
 10 42  1  0
 10 43  1  0
 11 44  1  0
 14 45  1  0
 14 46  1  0
 19 47  1  0
 19 48  1  0
 19 49  1  0
 20 50  1  0
M  END
>  <Binding energies>  (1) 
[-6.07]

>  <Ligand effiencies>  (1) 
[-0.2093103448275862]

>  <Interactions>  (1) 
["V-A:LEU:475:CD2:4256, H-A:TYR:484:OH:4345, V-B:TYR:539:CD1:9845, V-B:TYR:539:C:9839, V-B:PRO:540:C:9853, V-B:TYR:539:CE1:9847, V-B:GLU:543:CD:9880, V-B:PRO:540:CB:9857, V-A:ARG:545:CZ:4924, V-B:PRO:540:CA:9855, V-B:ALA:541:CB:9864, V-B:ARG:545:CZ:9898, V-B:ASN:362:CB:8147, H-B:GLU:543:OE1:9881, V-B:PRO:540:N:9856, V-A:GLY:453:CA:4041, V-A:ILE:369:CD1:3236, V-A:GLY:453:C:4039, V-B:ILE:538:CB:9834, V-B:PRO:540:CD:9859, V-B:ILE:538:CG2:9835, V-A:ILE:369:CG2:3234, V-A:LEU:373:CD1:3277, V-A:SER:385:CA:3404, V-A:SER:385:CB:3406, V-B:TYR:531:CZ:9766, H-B:ALA:541:N:9863, V-B:TYR:531:CE2:9765, V-B:PRO:540:CG:9858, V-B:LEU:363:CD1:8160, H-A:GLY:454:N:4047, V-B:ALA:541:C:9860, V-B:LEU:363:CA:8156, V-B:LEU:363:CB:8158"]

$$$$
3aa_Grossjean_2025
     RDKit          3D

 52 54  0  0  0  0  0  0  0  0999 V2000
  124.5450  122.9990   57.3720 C   0  0  0  0  0  0  0  0  0  0  0  0
  125.5470  122.8810   56.2190 C   0  0  0  0  0  0  0  0  0  0  0  0
  126.7540  122.3000   56.6980 O   0  0  0  0  0  0  0  0  0  0  0  0
  127.8330  123.0710   56.9900 C   0  0  0  0  0  0  0  0  0  0  0  0
  128.9800  122.8050   56.6200 O   0  0  0  0  0  0  0  0  0  0  0  0
  127.4940  124.2740   57.8240 C   0  0  0  0  0  0  0  0  0  0  0  0
  127.2160  124.1730   59.1950 C   0  0  0  0  0  0  0  0  0  0  0  0
  126.9100  125.3090   59.9400 C   0  0  0  0  0  0  0  0  0  0  0  0
  126.8830  126.5660   59.3340 C   0  0  0  0  0  0  0  0  0  0  0  0
  126.5670  127.6500   60.1780 N   0  0  0  0  0  0  0  0  0  0  0  0
  127.3840  128.4400   60.9070 C   0  0  0  0  0  0  0  0  0  0  0  0
  128.6090  128.3280   60.9800 O   0  0  0  0  0  0  0  0  0  0  0  0
  126.6930  129.5470   61.7040 C   0  0  0  0  0  0  0  0  0  0  0  0
  127.1260  131.1990   61.0800 S   0  0  0  0  0  0  0  0  0  0  0  0
  127.6090  131.0040   59.3790 C   0  0  0  0  0  0  0  0  0  0  0  0
  128.9130  131.2860   59.1490 N   0  0  0  0  0  0  0  0  0  0  0  0
  129.4130  131.1800   57.8900 C   0  0  0  0  0  0  0  0  0  0  0  0
  130.8680  131.4940   57.7190 C   0  0  0  0  0  0  0  0  0  0  0  0
  131.8060  131.0850   58.6810 C   0  0  0  0  0  0  0  0  0  0  0  0
  133.1600  131.3730   58.5290 C   0  0  0  0  0  0  0  0  0  0  0  0
  133.5950  132.0750   57.4100 C   0  0  0  0  0  0  0  0  0  0  0  0
  132.6860  132.4890   56.4420 C   0  0  0  0  0  0  0  0  0  0  0  0
  131.3340  132.1980   56.5950 C   0  0  0  0  0  0  0  0  0  0  0  0
  128.6010  130.7740   56.8270 C   0  0  0  0  0  0  0  0  0  0  0  0
  127.2420  130.4940   57.0380 C   0  0  0  0  0  0  0  0  0  0  0  0
  126.3770  130.0610   55.8380 C   0  0  0  0  0  0  0  0  0  0  0  0
  125.0690  130.2000   56.0650 F   0  0  0  0  0  0  0  0  0  0  0  0
  126.6750  130.7980   54.7670 F   0  0  0  0  0  0  0  0  0  0  0  0
  126.6020  128.7780   55.5560 F   0  0  0  0  0  0  0  0  0  0  0  0
  126.7210  130.6230   58.3480 C   0  0  0  0  0  0  0  0  0  0  0  0
  125.2980  130.3990   58.6170 C   0  0  0  0  0  0  0  0  0  0  0  0
  124.1730  130.2220   58.8290 N   0  0  0  0  0  0  0  0  0  0  0  0
  127.1470  126.6730   57.9600 C   0  0  0  0  0  0  0  0  0  0  0  0
  127.4500  125.5360   57.2180 C   0  0  0  0  0  0  0  0  0  0  0  0
  125.0803  122.9360   58.3309 H   0  0  0  0  0  0  0  0  0  0  0  0
  124.0227  123.9649   57.3065 H   0  0  0  0  0  0  0  0  0  0  0  0
  123.8126  122.1809   57.3065 H   0  0  0  0  0  0  0  0  0  0  0  0
  125.1227  122.2453   55.4279 H   0  0  0  0  0  0  0  0  0  0  0  0
  125.7574  123.8810   55.8120 H   0  0  0  0  0  0  0  0  0  0  0  0
  127.2399  123.1888   59.6856 H   0  0  0  0  0  0  0  0  0  0  0  0
  126.6881  125.2151   61.0133 H   0  0  0  0  0  0  0  0  0  0  0  0
  125.5760  127.8210   60.2790 H   0  0  0  0  0  0  0  0  0  0  0  0
  125.6038  129.4125   61.6296 H   0  0  0  0  0  0  0  0  0  0  0  0
  127.0295  129.4771   62.7489 H   0  0  0  0  0  0  0  0  0  0  0  0
  131.4662  130.5291   59.5673 H   0  0  0  0  0  0  0  0  0  0  0  0
  133.8828  131.0464   59.2912 H   0  0  0  0  0  0  0  0  0  0  0  0
  134.6641  132.3042   57.2898 H   0  0  0  0  0  0  0  0  0  0  0  0
  133.0347  133.0444   55.5588 H   0  0  0  0  0  0  0  0  0  0  0  0
  130.6192  132.5237   55.8250 H   0  0  0  0  0  0  0  0  0  0  0  0
  129.0298  130.6734   55.8190 H   0  0  0  0  0  0  0  0  0  0  0  0
  127.1143  127.6569   57.4692 H   0  0  0  0  0  0  0  0  0  0  0  0
  127.6577  125.6292   56.1418 H   0  0  0  0  0  0  0  0  0  0  0  0
  1  2  1  0
  2  3  1  0
  3  4  1  0
  4  5  2  0
  4  6  1  0
  6  7  2  0
  7  8  1  0
  8  9  2  0
  9 10  1  0
 10 11  1  0
 11 12  2  0
 11 13  1  0
 13 14  1  0
 14 15  1  0
 15 16  2  0
 16 17  1  0
 17 18  1  0
 18 19  2  0
 19 20  1  0
 20 21  2  0
 21 22  1  0
 22 23  2  0
 17 24  2  0
 24 25  1  0
 25 26  1  0
 26 27  1  0
 26 28  1  0
 26 29  1  0
 25 30  2  0
 30 31  1  0
 31 32  3  0
  9 33  1  0
 33 34  2  0
 34  6  1  0
 30 15  1  0
 23 18  1  0
  1 35  1  0
  1 36  1  0
  1 37  1  0
  2 38  1  0
  2 39  1  0
  7 40  1  0
  8 41  1  0
 10 42  1  0
 13 43  1  0
 13 44  1  0
 19 45  1  0
 20 46  1  0
 21 47  1  0
 22 48  1  0
 23 49  1  0
 24 50  1  0
 33 51  1  0
 34 52  1  0
M  END
>  <Binding energies>  (1) 
[-7.68]

>  <Ligand effiencies>  (1) 
[-0.21942857142857142]

>  <Interactions>  (1) 
["V-B:ASP:366:CG:8184, V-B:PRO:540:CB:9857, H-B:ASP:366:OD1:8185, V-B:PRO:540:CA:9855, H-B:ASP:366:OD2:8186, V-A:ASP:366:CG:3210, V-B:ASP:366:CB:8183, V-B:PRO:540:N:9856, V-A:TYR:539:CE1:4873, V-A:PRO:540:CA:4881, V-A:PRO:540:CB:4883, V-A:LEU:363:CD1:3186, V-A:ILE:538:CB:4860, V-B:ILE:538:CB:9834, H-B:TYR:539:N:9842, V-A:MET:535:CE:4833, V-B:PRO:540:CD:9859, V-A:PRO:540:CG:4884, V-A:ILE:538:CG2:4861, V-B:ILE:538:CG2:9835, V-A:TYR:531:CE2:4791, V-A:PRO:540:CD:4885, V-B:ILE:538:CA:9832, V-B:MET:535:CE:9807, V-B:TYR:531:CZ:9766, V-A:TYR:539:CE2:4874, V-B:TYR:531:CE1:9764, V-A:TYR:539:CZ:4875, V-B:ASN:370:CG:8217, V-B:PRO:540:CG:9858, V-B:LEU:363:CD1:8160, H-A:TYR:539:OH:4876, V-A:LEU:363:CA:3182, V-A:LEU:363:CB:3184, V-B:ASN:370:CB:8216, V-A:LEU:363:CG:3185"]

$$$$
3ab_Grossjean_2025
     RDKit          3D

 49 51  0  0  0  0  0  0  0  0999 V2000
  131.1380  125.1280   65.2670 C   0  0  0  0  0  0  0  0  0  0  0  0
  131.9560  125.9400   64.4360 O   0  0  0  0  0  0  0  0  0  0  0  0
  132.8490  125.3840   63.5780 C   0  0  0  0  0  0  0  0  0  0  0  0
  133.9720  125.0000   63.9190 O   0  0  0  0  0  0  0  0  0  0  0  0
  132.3350  125.2790   62.1710 C   0  0  0  0  0  0  0  0  0  0  0  0
  132.9420  124.4460   61.2180 C   0  0  0  0  0  0  0  0  0  0  0  0
  132.4430  124.3680   59.9210 C   0  0  0  0  0  0  0  0  0  0  0  0
  131.3210  125.1270   59.5520 C   0  0  0  0  0  0  0  0  0  0  0  0
  130.7290  125.1220   58.2740 N   0  0  0  0  0  0  0  0  0  0  0  0
  131.3040  125.1450   57.0530 C   0  0  0  0  0  0  0  0  0  0  0  0
  132.5140  125.1920   56.8330 O   0  0  0  0  0  0  0  0  0  0  0  0
  130.3330  125.1130   55.8710 C   0  0  0  0  0  0  0  0  0  0  0  0
  129.4650  123.5210   55.7410 S   0  0  0  0  0  0  0  0  0  0  0  0
  128.3850  123.3850   57.1490 C   0  0  0  0  0  0  0  0  0  0  0  0
  129.0330  123.0970   58.3030 N   0  0  0  0  0  0  0  0  0  0  0  0
  128.3310  122.9700   59.4590 C   0  0  0  0  0  0  0  0  0  0  0  0
  129.1230  122.6530   60.6930 C   0  0  0  0  0  0  0  0  0  0  0  0
  128.9400  123.3900   61.8740 C   0  0  0  0  0  0  0  0  0  0  0  0
  129.6720  123.1000   63.0220 C   0  0  0  0  0  0  0  0  0  0  0  0
  130.6020  122.0660   63.0050 C   0  0  0  0  0  0  0  0  0  0  0  0
  130.8070  121.3230   61.8470 C   0  0  0  0  0  0  0  0  0  0  0  0
  130.0730  121.6170   60.7010 C   0  0  0  0  0  0  0  0  0  0  0  0
  126.9390  123.1110   59.4710 C   0  0  0  0  0  0  0  0  0  0  0  0
  126.2430  123.3900   58.2860 C   0  0  0  0  0  0  0  0  0  0  0  0
  124.7100  123.5330   58.3410 C   0  0  0  0  0  0  0  0  0  0  0  0
  124.2770  124.6750   57.8040 F   0  0  0  0  0  0  0  0  0  0  0  0
  124.1300  122.5340   57.6740 F   0  0  0  0  0  0  0  0  0  0  0  0
  124.2960  123.5030   59.6090 F   0  0  0  0  0  0  0  0  0  0  0  0
  126.9800  123.5250   57.0830 C   0  0  0  0  0  0  0  0  0  0  0  0
  126.2970  123.7590   55.8080 C   0  0  0  0  0  0  0  0  0  0  0  0
  125.7550  123.9450   54.8020 N   0  0  0  0  0  0  0  0  0  0  0  0
  130.7120  125.9520   60.4990 C   0  0  0  0  0  0  0  0  0  0  0  0
  131.2140  126.0300   61.7940 C   0  0  0  0  0  0  0  0  0  0  0  0
  131.3574  125.3458   66.3227 H   0  0  0  0  0  0  0  0  0  0  0  0
  130.0789  125.3422   65.0608 H   0  0  0  0  0  0  0  0  0  0  0  0
  131.3444  124.0674   65.0608 H   0  0  0  0  0  0  0  0  0  0  0  0
  133.8216  123.8484   61.4993 H   0  0  0  0  0  0  0  0  0  0  0  0
  132.9283  123.7109   59.1843 H   0  0  0  0  0  0  0  0  0  0  0  0
  129.7200  125.1370   58.2900 H   0  0  0  0  0  0  0  0  0  0  0  0
  129.5892  125.9128   56.0014 H   0  0  0  0  0  0  0  0  0  0  0  0
  130.9165  125.2566   54.9496 H   0  0  0  0  0  0  0  0  0  0  0  0
  128.2065  124.2096   61.8924 H   0  0  0  0  0  0  0  0  0  0  0  0
  129.5154  123.6865   63.9393 H   0  0  0  0  0  0  0  0  0  0  0  0
  131.1788  121.8344   63.9126 H   0  0  0  0  0  0  0  0  0  0  0  0
  131.5451  120.5075   61.8368 H   0  0  0  0  0  0  0  0  0  0  0  0
  130.2393  121.0287   59.7865 H   0  0  0  0  0  0  0  0  0  0  0  0
  126.3870  123.0023   60.4162 H   0  0  0  0  0  0  0  0  0  0  0  0
  129.8287  126.5448   60.2192 H   0  0  0  0  0  0  0  0  0  0  0  0
  130.7263  126.6874   62.5288 H   0  0  0  0  0  0  0  0  0  0  0  0
  1  2  1  0
  2  3  1  0
  3  4  2  0
  3  5  1  0
  5  6  2  0
  6  7  1  0
  7  8  2  0
  8  9  1  0
  9 10  1  0
 10 11  2  0
 10 12  1  0
 12 13  1  0
 13 14  1  0
 14 15  2  0
 15 16  1  0
 16 17  1  0
 17 18  2  0
 18 19  1  0
 19 20  2  0
 20 21  1  0
 21 22  2  0
 16 23  2  0
 23 24  1  0
 24 25  1  0
 25 26  1  0
 25 27  1  0
 25 28  1  0
 24 29  2  0
 29 30  1  0
 30 31  3  0
  8 32  1  0
 32 33  2  0
 33  5  1  0
 29 14  1  0
 22 17  1  0
  1 34  1  0
  1 35  1  0
  1 36  1  0
  6 37  1  0
  7 38  1  0
  9 39  1  0
 12 40  1  0
 12 41  1  0
 18 42  1  0
 19 43  1  0
 20 44  1  0
 21 45  1  0
 22 46  1  0
 23 47  1  0
 32 48  1  0
 33 49  1  0
M  END
>  <Binding energies>  (1) 
[-7.43]

>  <Ligand effiencies>  (1) 
[-0.21852941176470586]

>  <Interactions>  (1) 
["V-A:LEU:475:CD2:4256, V-B:TYR:539:CD1:9845, V-B:TYR:539:C:9839, V-B:ASP:366:CG:8184, V-B:TYR:539:CE1:9847, V-B:GLU:543:CD:9880, V-B:PRO:540:CB:9857, V-A:ARG:545:CZ:4924, V-B:PRO:540:CA:9855, V-B:ALA:541:CB:9864, V-B:ASP:366:CB:8183, V-B:PRO:540:N:9856, H-B:TYR:531:OH:9767, H-A:ARG:545:NH2:4926, H-A:ARG:545:NE:4922, V-B:PRO:540:CD:9859, V-B:TYR:539:CZ:9849, V-B:ILE:538:CG2:9835, V-B:MET:535:CE:9807, H-A:TYR:531:OH:4793, V-B:TYR:531:CZ:9766, V-B:TYR:531:CE2:9765, H-B:TYR:539:OH:9850, V-B:PRO:540:CG:9858, V-B:LEU:363:CD1:8160, H-A:GLY:454:N:4047, H-A:ARG:545:NH1:4925, V-B:LEU:363:CA:8156, V-B:LEU:363:CB:8158, V-B:LEU:363:CG:8159"]

$$$$
3ac_Grossjean_2025
     RDKit          3D

 47 49  0  0  0  0  0  0  0  0999 V2000
  132.7980  125.0420   64.5190 C   0  0  0  0  0  0  0  0  0  0  0  0
  133.6240  124.9230   63.3650 O   0  0  0  0  0  0  0  0  0  0  0  0
  133.0350  124.8680   62.1160 C   0  0  0  0  0  0  0  0  0  0  0  0
  131.9770  125.7470   61.8880 C   0  0  0  0  0  0  0  0  0  0  0  0
  131.3250  125.7670   60.6590 C   0  0  0  0  0  0  0  0  0  0  0  0
  131.7180  124.8980   59.6390 C   0  0  0  0  0  0  0  0  0  0  0  0
  131.0130  125.0060   58.4260 N   0  0  0  0  0  0  0  0  0  0  0  0
  131.4890  125.2320   57.1820 C   0  0  0  0  0  0  0  0  0  0  0  0
  132.6790  125.3440   56.8850 O   0  0  0  0  0  0  0  0  0  0  0  0
  130.4320  125.3470   56.0830 C   0  0  0  0  0  0  0  0  0  0  0  0
  129.5090  123.7970   55.8500 S   0  0  0  0  0  0  0  0  0  0  0  0
  128.4090  123.5720   57.2340 C   0  0  0  0  0  0  0  0  0  0  0  0
  129.0540  123.2550   58.3830 N   0  0  0  0  0  0  0  0  0  0  0  0
  128.3460  123.0590   59.5250 C   0  0  0  0  0  0  0  0  0  0  0  0
  129.1350  122.7040   60.7500 C   0  0  0  0  0  0  0  0  0  0  0  0
  129.9250  121.5430   60.7840 C   0  0  0  0  0  0  0  0  0  0  0  0
  130.6650  121.2110   61.9150 C   0  0  0  0  0  0  0  0  0  0  0  0
  130.6230  122.0370   63.0340 C   0  0  0  0  0  0  0  0  0  0  0  0
  129.8450  123.1890   63.0290 C   0  0  0  0  0  0  0  0  0  0  0  0
  129.1070  123.5180   61.8950 C   0  0  0  0  0  0  0  0  0  0  0  0
  126.9520  123.1640   59.5300 C   0  0  0  0  0  0  0  0  0  0  0  0
  126.2580  123.4690   58.3510 C   0  0  0  0  0  0  0  0  0  0  0  0
  124.7200  123.5700   58.4000 C   0  0  0  0  0  0  0  0  0  0  0  0
  124.2580  124.7050   57.8730 F   0  0  0  0  0  0  0  0  0  0  0  0
  124.1700  122.5630   57.7190 F   0  0  0  0  0  0  0  0  0  0  0  0
  124.3040  123.5130   59.6660 F   0  0  0  0  0  0  0  0  0  0  0  0
  127.0000  123.6670   57.1590 C   0  0  0  0  0  0  0  0  0  0  0  0
  126.3150  123.9120   55.8890 C   0  0  0  0  0  0  0  0  0  0  0  0
  125.7720  124.1040   54.8840 N   0  0  0  0  0  0  0  0  0  0  0  0
  132.7870  124.0160   59.8590 C   0  0  0  0  0  0  0  0  0  0  0  0
  133.4370  123.9990   61.0900 C   0  0  0  0  0  0  0  0  0  0  0  0
  133.4171  124.9528   65.4238 H   0  0  0  0  0  0  0  0  0  0  0  0
  132.2975  126.0215   64.5123 H   0  0  0  0  0  0  0  0  0  0  0  0
  132.0414  124.2436   64.5123 H   0  0  0  0  0  0  0  0  0  0  0  0
  131.6548  126.4309   62.6870 H   0  0  0  0  0  0  0  0  0  0  0  0
  130.4963  126.4704   60.4901 H   0  0  0  0  0  0  0  0  0  0  0  0
  130.0200  124.8420   58.5040 H   0  0  0  0  0  0  0  0  0  0  0  0
  129.7236  126.1433   56.3551 H   0  0  0  0  0  0  0  0  0  0  0  0
  130.9499  125.5759   55.1399 H   0  0  0  0  0  0  0  0  0  0  0  0
  129.9593  120.8857   59.9026 H   0  0  0  0  0  0  0  0  0  0  0  0
  131.2805  120.2994   61.9243 H   0  0  0  0  0  0  0  0  0  0  0  0
  131.2089  121.7768   63.9279 H   0  0  0  0  0  0  0  0  0  0  0  0
  129.8125  123.8377   63.9168 H   0  0  0  0  0  0  0  0  0  0  0  0
  128.4920  124.4300   61.8955 H   0  0  0  0  0  0  0  0  0  0  0  0
  126.3958  123.0061   60.4658 H   0  0  0  0  0  0  0  0  0  0  0  0
  133.1121  123.3367   59.0572 H   0  0  0  0  0  0  0  0  0  0  0  0
  134.2700  123.3008   61.2593 H   0  0  0  0  0  0  0  0  0  0  0  0
  1  2  1  0
  2  3  1  0
  3  4  2  0
  4  5  1  0
  5  6  2  0
  6  7  1  0
  7  8  1  0
  8  9  2  0
  8 10  1  0
 10 11  1  0
 11 12  1  0
 12 13  2  0
 13 14  1  0
 14 15  1  0
 15 16  2  0
 16 17  1  0
 17 18  2  0
 18 19  1  0
 19 20  2  0
 14 21  2  0
 21 22  1  0
 22 23  1  0
 23 24  1  0
 23 25  1  0
 23 26  1  0
 22 27  2  0
 27 28  1  0
 28 29  3  0
  6 30  1  0
 30 31  2  0
 31  3  1  0
 27 12  1  0
 20 15  1  0
  1 32  1  0
  1 33  1  0
  1 34  1  0
  4 35  1  0
  5 36  1  0
  7 37  1  0
 10 38  1  0
 10 39  1  0
 16 40  1  0
 17 41  1  0
 18 42  1  0
 19 43  1  0
 20 44  1  0
 21 45  1  0
 30 46  1  0
 31 47  1  0
M  END
>  <Binding energies>  (1) 
[-7.34]

>  <Ligand effiencies>  (1) 
[-0.229375]

>  <Interactions>  (1) 
["V-A:LEU:475:CD2:4256, V-B:TYR:539:CD1:9845, V-B:TYR:539:C:9839, V-B:ASP:366:CG:8184, V-B:TYR:539:CE1:9847, V-B:PRO:540:CB:9857, V-A:ARG:545:CZ:4924, V-B:PRO:540:CA:9855, V-B:ALA:541:CB:9864, V-A:ASP:366:CG:3210, V-B:ASP:366:CB:8183, V-B:PRO:540:N:9856, H-B:TYR:531:OH:9767, H-A:ARG:545:NH2:4926, V-A:ILE:369:CD1:3236, V-B:PRO:540:CD:9859, V-B:TYR:539:CZ:9849, V-B:ILE:538:CG2:9835, V-B:MET:535:CE:9807, H-A:TYR:531:OH:4793, V-B:TYR:531:CZ:9766, V-B:TYR:531:CE2:9765, H-B:TYR:539:OH:9850, V-B:PRO:540:CG:9858, V-B:LEU:363:CD1:8160, H-A:GLY:454:N:4047, V-B:LEU:363:CA:8156, V-B:LEU:363:CB:8158"]

$$$$
3ad_Grossjean_2025
     RDKit          3D

 43 45  0  0  0  0  0  0  0  0999 V2000
  130.7750  125.8840   62.1520 N   0  0  0  0  0  0  0  0  0  0  0  0
  130.9650  124.7610   61.9440 C   0  0  0  0  0  0  0  0  0  0  0  0
  131.2100  123.3400   61.6800 C   0  0  0  0  0  0  0  0  0  0  0  0
  132.5310  122.8430   61.5610 C   0  0  0  0  0  0  0  0  0  0  0  0
  133.7750  123.7340   61.7420 C   0  0  0  0  0  0  0  0  0  0  0  0
  133.5610  124.7620   62.5650 F   0  0  0  0  0  0  0  0  0  0  0  0
  134.7790  123.0150   62.2490 F   0  0  0  0  0  0  0  0  0  0  0  0
  134.1540  124.2360   60.5660 F   0  0  0  0  0  0  0  0  0  0  0  0
  132.7100  121.4840   61.2620 C   0  0  0  0  0  0  0  0  0  0  0  0
  131.6040  120.6460   61.0830 C   0  0  0  0  0  0  0  0  0  0  0  0
  131.7390  119.1910   60.7470 C   0  0  0  0  0  0  0  0  0  0  0  0
  130.6020  118.3890   60.5620 C   0  0  0  0  0  0  0  0  0  0  0  0
  130.7190  117.0380   60.2490 C   0  0  0  0  0  0  0  0  0  0  0  0
  131.9820  116.4680   60.1160 C   0  0  0  0  0  0  0  0  0  0  0  0
  133.1240  117.2410   60.2920 C   0  0  0  0  0  0  0  0  0  0  0  0
  133.0020  118.5930   60.6040 C   0  0  0  0  0  0  0  0  0  0  0  0
  130.3410  121.1290   61.1920 N   0  0  0  0  0  0  0  0  0  0  0  0
  130.1420  122.4320   61.5000 C   0  0  0  0  0  0  0  0  0  0  0  0
  128.4260  122.8850   61.6140 S   0  0  0  0  0  0  0  0  0  0  0  0
  127.7000  122.6690   59.9620 C   0  0  0  0  0  0  0  0  0  0  0  0
  128.6910  123.0080   58.8460 C   0  0  0  0  0  0  0  0  0  0  0  0
  128.6770  122.3420   57.8110 O   0  0  0  0  0  0  0  0  0  0  0  0
  129.5210  124.0420   59.1030 N   0  0  0  0  0  0  0  0  0  0  0  0
  130.5250  124.6120   58.2990 C   0  0  0  0  0  0  0  0  0  0  0  0
  130.1290  124.9900   57.0120 C   0  0  0  0  0  0  0  0  0  0  0  0
  131.0460  125.5600   56.1330 C   0  0  0  0  0  0  0  0  0  0  0  0
  132.3640  125.7500   56.5380 C   0  0  0  0  0  0  0  0  0  0  0  0
  132.7740  125.3720   57.8140 C   0  0  0  0  0  0  0  0  0  0  0  0
  131.8600  124.8000   58.6960 C   0  0  0  0  0  0  0  0  0  0  0  0
  133.7266  121.0746   61.1677 H   0  0  0  0  0  0  0  0  0  0  0  0
  129.6021  118.8356   60.6661 H   0  0  0  0  0  0  0  0  0  0  0  0
  129.8177  116.4235   60.1074 H   0  0  0  0  0  0  0  0  0  0  0  0
  132.0770  115.4000   59.8703 H   0  0  0  0  0  0  0  0  0  0  0  0
  134.1201  116.7867   60.1853 H   0  0  0  0  0  0  0  0  0  0  0  0
  133.9082  119.2015   60.7404 H   0  0  0  0  0  0  0  0  0  0  0  0
  127.3833  121.6217   59.8484 H   0  0  0  0  0  0  0  0  0  0  0  0
  126.8461  123.3571   59.8758 H   0  0  0  0  0  0  0  0  0  0  0  0
  129.4450  124.4540   60.0210 H   0  0  0  0  0  0  0  0  0  0  0  0
  129.0877  124.8362   56.6926 H   0  0  0  0  0  0  0  0  0  0  0  0
  130.7302  125.8589   55.1226 H   0  0  0  0  0  0  0  0  0  0  0  0
  133.0879  126.2026   55.8443 H   0  0  0  0  0  0  0  0  0  0  0  0
  133.8180  125.5249   58.1250 H   0  0  0  0  0  0  0  0  0  0  0  0
  132.1829  124.4957   59.7025 H   0  0  0  0  0  0  0  0  0  0  0  0
  1  2  3  0
  2  3  1  0
  3  4  2  0
  4  5  1  0
  5  6  1  0
  5  7  1  0
  5  8  1  0
  4  9  1  0
  9 10  2  0
 10 11  1  0
 11 12  2  0
 12 13  1  0
 13 14  2  0
 14 15  1  0
 15 16  2  0
 10 17  1  0
 17 18  2  0
 18 19  1  0
 19 20  1  0
 20 21  1  0
 21 22  2  0
 21 23  1  0
 23 24  1  0
 24 25  2  0
 25 26  1  0
 26 27  2  0
 27 28  1  0
 28 29  2  0
 18  3  1  0
 29 24  1  0
 16 11  1  0
  9 30  1  0
 12 31  1  0
 13 32  1  0
 14 33  1  0
 15 34  1  0
 16 35  1  0
 20 36  1  0
 20 37  1  0
 23 38  1  0
 25 39  1  0
 26 40  1  0
 27 41  1  0
 28 42  1  0
 29 43  1  0
M  END
>  <Binding energies>  (1) 
[-7.34]

>  <Ligand effiencies>  (1) 
[-0.24466666666666667]

>  <Interactions>  (1) 
["V-A:LEU:475:CD2:4256, V-A:GLY:454:CA:4046, V-B:TYR:539:CD1:9845, V-B:TYR:539:C:9839, V-B:PRO:540:C:9853, V-B:TYR:539:CE1:9847, V-A:ARG:545:CZ:4924, V-B:PRO:540:CA:9855, V-B:ALA:541:CB:9864, V-A:ASP:366:CG:3210, V-B:PRO:540:N:9856, V-A:GLY:453:CA:4041, H-A:ARG:545:NH2:4926, V-A:ILE:369:CD1:3236, V-A:GLY:453:C:4039, V-B:TYR:539:CG:9844, H-B:TYR:539:N:9842, V-B:TYR:539:CZ:9849, V-A:TYR:531:CZ:4792, V-B:MET:535:CE:9807, V-A:ILE:369:CG2:3234, V-A:LEU:373:CD1:3277, V-A:PRO:482:CG:4324, V-A:SER:385:CA:3404, V-A:SER:385:CB:3406, V-A:PRO:482:CB:4323, H-B:ALA:541:N:9863, V-A:ASP:366:CB:3209, V-A:ASP:366:CA:3207, V-A:TYR:531:CE1:4790, V-B:TYR:539:CB:9843, V-B:VAL:344:CG1:7972"]

$$$$
3af_Grossjean_2025
     RDKit          3D

 42 44  0  0  0  0  0  0  0  0999 V2000
  134.0480  123.7000   59.4630 N   0  0  0  0  0  0  0  0  0  0  0  0
  132.9200  123.6550   59.7170 C   0  0  0  0  0  0  0  0  0  0  0  0
  131.4920  123.5980   60.0400 C   0  0  0  0  0  0  0  0  0  0  0  0
  130.9430  122.4650   60.6880 C   0  0  0  0  0  0  0  0  0  0  0  0
  131.8000  121.2640   61.1330 C   0  0  0  0  0  0  0  0  0  0  0  0
  132.6730  120.8760   60.2010 F   0  0  0  0  0  0  0  0  0  0  0  0
  132.4930  121.5810   62.2270 F   0  0  0  0  0  0  0  0  0  0  0  0
  131.0180  120.2180   61.4040 F   0  0  0  0  0  0  0  0  0  0  0  0
  129.5600  122.4330   60.9260 C   0  0  0  0  0  0  0  0  0  0  0  0
  128.7490  123.5000   60.5270 C   0  0  0  0  0  0  0  0  0  0  0  0
  127.2650  123.5100   60.7400 C   0  0  0  0  0  0  0  0  0  0  0  0
  126.3830  123.5160   59.6470 C   0  0  0  0  0  0  0  0  0  0  0  0
  125.0040  123.5220   59.8380 C   0  0  0  0  0  0  0  0  0  0  0  0
  124.4870  123.5220   61.1290 C   0  0  0  0  0  0  0  0  0  0  0  0
  125.3380  123.5130   62.2290 C   0  0  0  0  0  0  0  0  0  0  0  0
  126.7170  123.5060   62.0340 C   0  0  0  0  0  0  0  0  0  0  0  0
  129.2790  124.5830   59.9030 N   0  0  0  0  0  0  0  0  0  0  0  0
  130.6140  124.6470   59.6820 C   0  0  0  0  0  0  0  0  0  0  0  0
  131.1240  126.1470   58.8670 S   0  0  0  0  0  0  0  0  0  0  0  0
  131.4520  125.7560   57.1220 C   0  0  0  0  0  0  0  0  0  0  0  0
  130.3600  124.8700   56.5230 C   0  0  0  0  0  0  0  0  0  0  0  0
  130.6040  124.2240   55.5040 O   0  0  0  0  0  0  0  0  0  0  0  0
  129.1800  124.8810   57.1810 N   0  0  0  0  0  0  0  0  0  0  0  0
  127.9840  124.1940   56.8930 C   0  0  0  0  0  0  0  0  0  0  0  0
  126.7420  124.7910   56.6120 C   0  0  0  0  0  0  0  0  0  0  0  0
  125.6330  123.9860   56.3450 C   0  0  0  0  0  0  0  0  0  0  0  0
  125.7930  122.6000   56.3650 C   0  0  0  0  0  0  0  0  0  0  0  0
  126.9800  122.0000   56.6310 N   0  0  0  0  0  0  0  0  0  0  0  0
  128.0480  122.7970   56.8890 C   0  0  0  0  0  0  0  0  0  0  0  0
  129.1116  121.5637   61.4292 H   0  0  0  0  0  0  0  0  0  0  0  0
  126.7880  123.5160   58.6243 H   0  0  0  0  0  0  0  0  0  0  0  0
  124.3263  123.5267   58.9716 H   0  0  0  0  0  0  0  0  0  0  0  0
  123.3976  123.5292   61.2812 H   0  0  0  0  0  0  0  0  0  0  0  0
  124.9239  123.5114   63.2481 H   0  0  0  0  0  0  0  0  0  0  0  0
  127.3873  123.4972   62.9061 H   0  0  0  0  0  0  0  0  0  0  0  0
  131.5023  126.6945   56.5504 H   0  0  0  0  0  0  0  0  0  0  0  0
  132.4043  125.2081   57.0679 H   0  0  0  0  0  0  0  0  0  0  0  0
  129.1380  125.4580   58.0080 H   0  0  0  0  0  0  0  0  0  0  0  0
  126.6448  125.8867   56.6026 H   0  0  0  0  0  0  0  0  0  0  0  0
  124.6535  124.4350   56.1235 H   0  0  0  0  0  0  0  0  0  0  0  0
  124.9184  121.9664   56.1559 H   0  0  0  0  0  0  0  0  0  0  0  0
  129.0146  122.3190   57.1063 H   0  0  0  0  0  0  0  0  0  0  0  0
  1  2  3  0
  2  3  1  0
  3  4  2  0
  4  5  1  0
  5  6  1  0
  5  7  1  0
  5  8  1  0
  4  9  1  0
  9 10  2  0
 10 11  1  0
 11 12  2  0
 12 13  1  0
 13 14  2  0
 14 15  1  0
 15 16  2  0
 10 17  1  0
 17 18  2  0
 18 19  1  0
 19 20  1  0
 20 21  1  0
 21 22  2  0
 21 23  1  0
 23 24  1  0
 24 25  2  0
 25 26  1  0
 26 27  2  0
 27 28  1  0
 28 29  2  0
 18  3  1  0
 29 24  1  0
 16 11  1  0
  9 30  1  0
 12 31  1  0
 13 32  1  0
 14 33  1  0
 15 34  1  0
 16 35  1  0
 20 36  1  0
 20 37  1  0
 23 38  1  0
 25 39  1  0
 26 40  1  0
 27 41  1  0
 29 42  1  0
M  END
>  <Binding energies>  (1) 
[-7.31]

>  <Ligand effiencies>  (1) 
[-0.24366666666666664]

>  <Interactions>  (1) 
["V-A:LEU:475:CD2:4256, V-B:TYR:539:CD1:9845, V-B:TYR:539:C:9839, V-B:PRO:540:C:9853, V-B:TYR:539:CE1:9847, V-B:GLU:543:CD:9880, V-B:PRO:540:CB:9857, V-B:PRO:540:CA:9855, V-B:ALA:541:CB:9864, V-B:ASN:362:CB:8147, V-B:PRO:540:N:9856, V-B:TYR:539:CG:9844, V-B:ILE:538:CB:9834, H-B:TYR:539:N:9842, V-B:PRO:540:CD:9859, V-B:TYR:539:CZ:9849, V-B:ILE:538:CG2:9835, V-B:ILE:538:CA:9832, V-B:MET:535:CE:9807, V-A:ILE:369:CG2:3234, V-B:TYR:531:CZ:9766, H-A:ASN:370:ND2:3245, V-B:TYR:531:CE2:9765, H-B:TYR:539:OH:9850, V-B:ASN:362:C:8143"]

$$$$
3ag_Grossjean_2025
     RDKit          3D

 46 48  0  0  0  0  0  0  0  0999 V2000
  127.6100  127.4470   57.0460 N   0  0  0  0  0  0  0  0  0  0  0  0
  128.4070  126.8470   57.6330 C   0  0  0  0  0  0  0  0  0  0  0  0
  129.4170  126.0860   58.3730 C   0  0  0  0  0  0  0  0  0  0  0  0
  130.4720  125.4300   57.6920 C   0  0  0  0  0  0  0  0  0  0  0  0
  130.6580  125.5190   56.1650 C   0  0  0  0  0  0  0  0  0  0  0  0
  130.2200  126.6720   55.6560 F   0  0  0  0  0  0  0  0  0  0  0  0
  131.9510  125.4100   55.8590 F   0  0  0  0  0  0  0  0  0  0  0  0
  129.9860  124.5370   55.5620 F   0  0  0  0  0  0  0  0  0  0  0  0
  131.3830  124.6700   58.4400 C   0  0  0  0  0  0  0  0  0  0  0  0
  131.2390  124.5570   59.8270 C   0  0  0  0  0  0  0  0  0  0  0  0
  132.1810  123.7570   60.6750 C   0  0  0  0  0  0  0  0  0  0  0  0
  132.0650  122.3610   60.7530 C   0  0  0  0  0  0  0  0  0  0  0  0
  132.9370  121.6110   61.5380 C   0  0  0  0  0  0  0  0  0  0  0  0
  133.9400  122.2510   62.2590 C   0  0  0  0  0  0  0  0  0  0  0  0
  134.0760  123.6340   62.2000 C   0  0  0  0  0  0  0  0  0  0  0  0
  133.2020  124.3800   61.4150 C   0  0  0  0  0  0  0  0  0  0  0  0
  130.2350  125.1980   60.4790 N   0  0  0  0  0  0  0  0  0  0  0  0
  129.3540  125.9540   59.7780 C   0  0  0  0  0  0  0  0  0  0  0  0
  128.1100  126.7200   60.7940 S   0  0  0  0  0  0  0  0  0  0  0  0
  127.4210  125.4290   61.8730 C   0  0  0  0  0  0  0  0  0  0  0  0
  126.9050  124.2270   61.0790 C   0  0  0  0  0  0  0  0  0  0  0  0
  127.2080  123.0840   61.4280 O   0  0  0  0  0  0  0  0  0  0  0  0
  126.1240  124.5010   60.0200 N   0  0  0  0  0  0  0  0  0  0  0  0
  125.4970  123.5090   59.1480 C   0  0  0  0  0  0  0  0  0  0  0  0
  126.2930  123.2000   57.8840 C   0  0  0  0  0  0  0  0  0  0  0  0
  125.7200  123.4250   56.6300 C   0  0  0  0  0  0  0  0  0  0  0  0
  126.4540  123.1720   55.4740 C   0  0  0  0  0  0  0  0  0  0  0  0
  127.7620  122.7040   55.5760 C   0  0  0  0  0  0  0  0  0  0  0  0
  128.3450  122.4910   56.8240 C   0  0  0  0  0  0  0  0  0  0  0  0
  127.6120  122.7450   57.9800 C   0  0  0  0  0  0  0  0  0  0  0  0
  132.2155  124.1599   57.9332 H   0  0  0  0  0  0  0  0  0  0  0  0
  131.2729  121.8510   60.1852 H   0  0  0  0  0  0  0  0  0  0  0  0
  132.8332  120.5170   61.5878 H   0  0  0  0  0  0  0  0  0  0  0  0
  134.6296  121.6598   62.8794 H   0  0  0  0  0  0  0  0  0  0  0  0
  134.8709  124.1358   62.7713 H   0  0  0  0  0  0  0  0  0  0  0  0
  133.3114  125.4737   61.3726 H   0  0  0  0  0  0  0  0  0  0  0  0
  128.2068  125.0871   62.5627 H   0  0  0  0  0  0  0  0  0  0  0  0
  126.5706  125.8635   62.4189 H   0  0  0  0  0  0  0  0  0  0  0  0
  125.9200  125.4680   59.8110 H   0  0  0  0  0  0  0  0  0  0  0  0
  125.3764  122.5755   59.7173 H   0  0  0  0  0  0  0  0  0  0  0  0
  124.5364  123.9346   58.8222 H   0  0  0  0  0  0  0  0  0  0  0  0
  124.6893  123.8019   56.5558 H   0  0  0  0  0  0  0  0  0  0  0  0
  126.0030  123.3409   54.4850 H   0  0  0  0  0  0  0  0  0  0  0  0
  128.3404  122.5005   54.6628 H   0  0  0  0  0  0  0  0  0  0  0  0
  129.3795  122.1239   56.8952 H   0  0  0  0  0  0  0  0  0  0  0  0
  128.0698  122.5880   58.9678 H   0  0  0  0  0  0  0  0  0  0  0  0
  1  2  3  0
  2  3  1  0
  3  4  2  0
  4  5  1  0
  5  6  1  0
  5  7  1  0
  5  8  1  0
  4  9  1  0
  9 10  2  0
 10 11  1  0
 11 12  2  0
 12 13  1  0
 13 14  2  0
 14 15  1  0
 15 16  2  0
 10 17  1  0
 17 18  2  0
 18 19  1  0
 19 20  1  0
 20 21  1  0
 21 22  2  0
 21 23  1  0
 23 24  1  0
 24 25  1  0
 25 26  2  0
 26 27  1  0
 27 28  2  0
 28 29  1  0
 29 30  2  0
 18  3  1  0
 30 25  1  0
 16 11  1  0
  9 31  1  0
 12 32  1  0
 13 33  1  0
 14 34  1  0
 15 35  1  0
 16 36  1  0
 20 37  1  0
 20 38  1  0
 23 39  1  0
 24 40  1  0
 24 41  1  0
 26 42  1  0
 27 43  1  0
 28 44  1  0
 29 45  1  0
 30 46  1  0
M  END
>  <Binding energies>  (1) 
[-7.31]

>  <Ligand effiencies>  (1) 
[-0.2358064516129032]

>  <Interactions>  (1) 
["V-A:LEU:475:CD2:4256, V-A:GLY:454:CA:4046, V-B:TYR:539:CD1:9845, V-B:TYR:539:C:9839, V-B:TYR:539:CE1:9847, V-B:GLU:543:CD:9880, V-B:PRO:540:CB:9857, V-B:PRO:540:CA:9855, H-B:ASP:366:OD2:8186, V-B:PRO:540:N:9856, H-B:TYR:531:OH:9767, V-A:GLY:453:CA:4041, V-A:ILE:369:CD1:3236, V-A:GLY:453:C:4039, V-B:TYR:539:CE2:9848, V-B:TYR:539:CG:9844, V-B:ILE:538:CB:9834, V-B:TYR:539:CD2:9846, V-B:TYR:539:CZ:9849, V-B:TYR:539:CA:9841, V-B:ILE:538:CG2:9835, V-A:TYR:531:CZ:4792, V-B:ILE:538:CA:9832, V-B:MET:535:CE:9807, H-B:ALA:541:N:9863, V-A:ASN:370:CG:3243, V-A:ASN:370:CB:3242, V-A:TYR:531:CE1:4790, V-B:ILE:538:C:9830"]

$$$$
3ai_Grossjean_2025
     RDKit          3D

 39 41  0  0  0  0  0  0  0  0999 V2000
  133.9630  123.9720   58.7870 N   0  0  0  0  0  0  0  0  0  0  0  0
  132.8580  123.8990   59.1220 C   0  0  0  0  0  0  0  0  0  0  0  0
  131.4580  123.8070   59.5490 C   0  0  0  0  0  0  0  0  0  0  0  0
  131.0390  122.7890   60.4400 C   0  0  0  0  0  0  0  0  0  0  0  0
  132.0130  121.7600   61.0440 C   0  0  0  0  0  0  0  0  0  0  0  0
  132.7110  122.2490   62.0720 F   0  0  0  0  0  0  0  0  0  0  0  0
  131.3370  120.6980   61.4860 F   0  0  0  0  0  0  0  0  0  0  0  0
  132.8900  121.3610   60.1220 F   0  0  0  0  0  0  0  0  0  0  0  0
  129.6790  122.7140   60.7800 C   0  0  0  0  0  0  0  0  0  0  0  0
  128.7650  123.6260   60.2440 C   0  0  0  0  0  0  0  0  0  0  0  0
  127.3010  123.5860   60.5640 C   0  0  0  0  0  0  0  0  0  0  0  0
  126.8590  123.5480   61.8970 C   0  0  0  0  0  0  0  0  0  0  0  0
  125.5020  123.5150   62.2020 C   0  0  0  0  0  0  0  0  0  0  0  0
  124.5630  123.5210   61.1750 C   0  0  0  0  0  0  0  0  0  0  0  0
  124.9740  123.5610   59.8460 C   0  0  0  0  0  0  0  0  0  0  0  0
  126.3330  123.5940   59.5450 C   0  0  0  0  0  0  0  0  0  0  0  0
  129.1700  124.5950   59.3840 N   0  0  0  0  0  0  0  0  0  0  0  0
  130.4810  124.7030   59.0590 C   0  0  0  0  0  0  0  0  0  0  0  0
  130.8260  126.0440   57.9390 S   0  0  0  0  0  0  0  0  0  0  0  0
  130.9100  125.3550   56.2510 C   0  0  0  0  0  0  0  0  0  0  0  0
  129.8100  124.3400   55.9090 C   0  0  0  0  0  0  0  0  0  0  0  0
  129.9770  123.5060   55.0150 O   0  0  0  0  0  0  0  0  0  0  0  0
  128.6870  124.4520   56.6540 N   0  0  0  0  0  0  0  0  0  0  0  0
  127.5410  123.6730   56.5710 C   0  0  0  0  0  0  0  0  0  0  0  0
  126.2930  124.1860   56.2210 C   0  0  0  0  0  0  0  0  0  0  0  0
  125.4390  123.1090   56.2560 C   0  0  0  0  0  0  0  0  0  0  0  0
  126.1350  122.0020   56.6090 O   0  0  0  0  0  0  0  0  0  0  0  0
  127.4670  122.3720   56.8050 N   0  0  0  0  0  0  0  0  0  0  0  0
  129.3306  121.9332   61.4721 H   0  0  0  0  0  0  0  0  0  0  0  0
  127.5974  123.5443   62.7123 H   0  0  0  0  0  0  0  0  0  0  0  0
  125.1726  123.4843   63.2511 H   0  0  0  0  0  0  0  0  0  0  0  0
  123.4898  123.4940   61.4150 H   0  0  0  0  0  0  0  0  0  0  0  0
  124.2286  123.5665   59.0371 H   0  0  0  0  0  0  0  0  0  0  0  0
  126.6541  123.6268   58.4934 H   0  0  0  0  0  0  0  0  0  0  0  0
  130.8380  126.1894   55.5379 H   0  0  0  0  0  0  0  0  0  0  0  0
  131.8626  124.8085   56.1891 H   0  0  0  0  0  0  0  0  0  0  0  0
  128.6680  125.1770   57.3560 H   0  0  0  0  0  0  0  0  0  0  0  0
  126.0449  125.2280   55.9707 H   0  0  0  0  0  0  0  0  0  0  0  0
  124.3623  123.1413   56.0329 H   0  0  0  0  0  0  0  0  0  0  0  0
  1  2  3  0
  2  3  1  0
  3  4  2  0
  4  5  1  0
  5  6  1  0
  5  7  1  0
  5  8  1  0
  4  9  1  0
  9 10  2  0
 10 11  1  0
 11 12  2  0
 12 13  1  0
 13 14  2  0
 14 15  1  0
 15 16  2  0
 10 17  1  0
 17 18  2  0
 18 19  1  0
 19 20  1  0
 20 21  1  0
 21 22  2  0
 21 23  1  0
 23 24  1  0
 24 25  1  0
 25 26  2  0
 26 27  1  0
 27 28  1  0
 18  3  1  0
 28 24  2  0
 16 11  1  0
  9 29  1  0
 12 30  1  0
 13 31  1  0
 14 32  1  0
 15 33  1  0
 16 34  1  0
 20 35  1  0
 20 36  1  0
 23 37  1  0
 25 38  1  0
 26 39  1  0
M  END
>  <Binding energies>  (1) 
[-7.79]

>  <Ligand effiencies>  (1) 
[-0.26862068965517244]

>  <Interactions>  (1) 
["V-A:LEU:475:CD2:4256, V-B:TYR:539:CD1:9845, V-B:PRO:540:C:9853, V-B:TYR:539:CE1:9847, V-B:GLU:543:CD:9880, V-B:PRO:540:CB:9857, V-B:PRO:540:CA:9855, V-B:ASN:362:CB:8147, V-B:PRO:540:N:9856, V-B:TYR:539:CE2:9848, V-B:ILE:538:CB:9834, H-B:TYR:539:N:9842, V-B:TYR:539:CZ:9849, V-B:ILE:538:CG2:9835, V-B:MET:535:CE:9807, V-A:ILE:369:CG2:3234, V-B:TYR:531:CZ:9766, H-A:ASN:370:ND2:3245, V-B:TYR:531:CE2:9765, H-B:TYR:539:OH:9850, V-B:LEU:363:CD1:8160"]

$$$$
3aj_Grossjean_2025
     RDKit          3D

 39 41  0  0  0  0  0  0  0  0999 V2000
  133.6870  123.9100   58.8430 N   0  0  0  0  0  0  0  0  0  0  0  0
  132.5960  123.8530   59.2240 C   0  0  0  0  0  0  0  0  0  0  0  0
  131.2140  123.7810   59.7090 C   0  0  0  0  0  0  0  0  0  0  0  0
  130.8720  122.9410   60.7970 C   0  0  0  0  0  0  0  0  0  0  0  0
  131.9150  122.0990   61.5570 C   0  0  0  0  0  0  0  0  0  0  0  0
  131.4510  121.6260   62.7170 F   0  0  0  0  0  0  0  0  0  0  0  0
  132.2850  121.0540   60.8160 F   0  0  0  0  0  0  0  0  0  0  0  0
  132.9890  122.8390   61.8300 F   0  0  0  0  0  0  0  0  0  0  0  0
  129.5270  122.8710   61.1920 C   0  0  0  0  0  0  0  0  0  0  0  0
  128.5520  123.6140   60.5180 C   0  0  0  0  0  0  0  0  0  0  0  0
  127.1020  123.5690   60.8920 C   0  0  0  0  0  0  0  0  0  0  0  0
  126.7100  123.5530   62.2400 C   0  0  0  0  0  0  0  0  0  0  0  0
  125.3640  123.5150   62.5950 C   0  0  0  0  0  0  0  0  0  0  0  0
  124.3890  123.4910   61.6020 C   0  0  0  0  0  0  0  0  0  0  0  0
  124.7520  123.5070   60.2600 C   0  0  0  0  0  0  0  0  0  0  0  0
  126.0980  123.5470   59.9100 C   0  0  0  0  0  0  0  0  0  0  0  0
  128.8840  124.4120   59.4710 N   0  0  0  0  0  0  0  0  0  0  0  0
  130.1790  124.5150   59.0860 C   0  0  0  0  0  0  0  0  0  0  0  0
  130.4250  125.6220   57.7140 S   0  0  0  0  0  0  0  0  0  0  0  0
  130.4410  124.6240   56.1860 C   0  0  0  0  0  0  0  0  0  0  0  0
  129.1660  123.8070   55.9310 C   0  0  0  0  0  0  0  0  0  0  0  0
  129.1190  122.9790   55.0190 O   0  0  0  0  0  0  0  0  0  0  0  0
  128.1450  124.0770   56.7750 N   0  0  0  0  0  0  0  0  0  0  0  0
  126.8890  123.4830   56.7730 C   0  0  0  0  0  0  0  0  0  0  0  0
  126.5930  122.2200   56.5540 N   0  0  0  0  0  0  0  0  0  0  0  0
  125.2950  122.0040   56.6340 C   0  0  0  0  0  0  0  0  0  0  0  0
  124.5040  123.1120   56.9260 C   0  0  0  0  0  0  0  0  0  0  0  0
  125.5270  124.5060   57.0990 S   0  0  0  0  0  0  0  0  0  0  0  0
  129.2379  122.2282   62.0365 H   0  0  0  0  0  0  0  0  0  0  0  0
  127.4777  123.5707   63.0276 H   0  0  0  0  0  0  0  0  0  0  0  0
  125.0726  123.5040   63.6556 H   0  0  0  0  0  0  0  0  0  0  0  0
  123.3253  123.4592   61.8805 H   0  0  0  0  0  0  0  0  0  0  0  0
  123.9783  123.4881   59.4783 H   0  0  0  0  0  0  0  0  0  0  0  0
  126.3805  123.5616   58.8470 H   0  0  0  0  0  0  0  0  0  0  0  0
  130.5855  125.3056   55.3348 H   0  0  0  0  0  0  0  0  0  0  0  0
  131.2553  123.8940   56.3042 H   0  0  0  0  0  0  0  0  0  0  0  0
  128.3010  124.7720   57.4890 H   0  0  0  0  0  0  0  0  0  0  0  0
  124.8614  121.0050   56.4789 H   0  0  0  0  0  0  0  0  0  0  0  0
  123.4090  123.1059   57.0303 H   0  0  0  0  0  0  0  0  0  0  0  0
  1  2  3  0
  2  3  1  0
  3  4  2  0
  4  5  1  0
  5  6  1  0
  5  7  1  0
  5  8  1  0
  4  9  1  0
  9 10  2  0
 10 11  1  0
 11 12  2  0
 12 13  1  0
 13 14  2  0
 14 15  1  0
 15 16  2  0
 10 17  1  0
 17 18  2  0
 18 19  1  0
 19 20  1  0
 20 21  1  0
 21 22  2  0
 21 23  1  0
 23 24  1  0
 24 25  2  0
 25 26  1  0
 26 27  2  0
 27 28  1  0
 18  3  1  0
 28 24  1  0
 16 11  1  0
  9 29  1  0
 12 30  1  0
 13 31  1  0
 14 32  1  0
 15 33  1  0
 16 34  1  0
 20 35  1  0
 20 36  1  0
 23 37  1  0
 26 38  1  0
 27 39  1  0
M  END
>  <Binding energies>  (1) 
[-7.02]

>  <Ligand effiencies>  (1) 
[-0.24206896551724136]

>  <Interactions>  (1) 
["V-A:LEU:475:CD2:4256, V-B:TYR:539:CD1:9845, V-B:TYR:539:C:9839, V-B:TYR:539:CE1:9847, V-B:GLU:543:CD:9880, V-B:PRO:540:CB:9857, V-B:PRO:540:CA:9855, V-B:ALA:541:CB:9864, V-B:ARG:545:CZ:9898, V-B:ASN:362:CB:8147, V-B:PRO:540:N:9856, V-B:TYR:539:CE2:9848, V-B:ILE:538:CB:9834, H-B:TYR:539:N:9842, V-B:PRO:540:CD:9859, V-B:TYR:539:CZ:9849, V-B:ILE:538:CG2:9835, V-B:ILE:538:CA:9832, V-B:MET:535:CE:9807, V-B:TYR:531:CZ:9766, V-B:TYR:531:CE2:9765, H-B:TYR:539:OH:9850, V-B:ILE:538:C:9830, V-B:PRO:540:CG:9858, V-B:ALA:541:CA:9862, V-B:LEU:363:CD1:8160, V-B:ASN:362:C:8143, V-B:ALA:541:C:9860"]

$$$$
3ak_Grossjean_2025
     RDKit          3D

 57 58  0  0  0  0  0  0  0  0999 V2000
  132.2210  132.5470   56.6410 C   0  0  0  0  0  0  0  0  0  0  0  0
  130.9810  133.1740   56.3530 O   0  0  0  0  0  0  0  0  0  0  0  0
  129.8870  132.2700   56.3120 C   0  0  0  0  0  0  0  0  0  0  0  0
  129.0750  132.4080   57.6050 C   0  0  0  0  0  0  0  0  0  0  0  0
  127.8390  131.7180   57.4530 O   0  0  0  0  0  0  0  0  0  0  0  0
  127.9420  130.3560   57.0440 C   0  0  0  0  0  0  0  0  0  0  0  0
  126.8110  129.9050   56.1020 C   0  0  0  0  0  0  0  0  0  0  0  0
  126.9220  128.5060   55.8770 O   0  0  0  0  0  0  0  0  0  0  0  0
  128.2530  128.0140   55.9500 C   0  0  0  0  0  0  0  0  0  0  0  0
  128.2950  126.7160   56.7770 C   0  0  0  0  0  0  0  0  0  0  0  0
  129.6400  126.3520   57.2270 N   0  0  0  0  0  0  0  0  0  0  0  0
  130.6970  126.0970   56.4320 C   0  0  0  0  0  0  0  0  0  0  0  0
  130.6390  126.1650   55.2040 O   0  0  0  0  0  0  0  0  0  0  0  0
  132.0350  125.7040   57.0820 C   0  0  0  0  0  0  0  0  0  0  0  0
  132.0400  125.5360   58.9050 S   0  0  0  0  0  0  0  0  0  0  0  0
  130.9380  124.2070   59.3610 C   0  0  0  0  0  0  0  0  0  0  0  0
  129.7670  124.1560   58.6790 N   0  0  0  0  0  0  0  0  0  0  0  0
  128.8600  123.1860   58.9590 C   0  0  0  0  0  0  0  0  0  0  0  0
  127.5940  123.2040   58.1550 C   0  0  0  0  0  0  0  0  0  0  0  0
  127.6120  122.9180   56.7820 C   0  0  0  0  0  0  0  0  0  0  0  0
  126.4380  122.9290   56.0310 C   0  0  0  0  0  0  0  0  0  0  0  0
  125.2280  123.2270   56.6480 C   0  0  0  0  0  0  0  0  0  0  0  0
  125.1820  123.5110   58.0080 C   0  0  0  0  0  0  0  0  0  0  0  0
  126.3570  123.4980   58.7560 C   0  0  0  0  0  0  0  0  0  0  0  0
  129.1230  122.2200   59.9360 C   0  0  0  0  0  0  0  0  0  0  0  0
  130.3260  122.2480   60.6550 C   0  0  0  0  0  0  0  0  0  0  0  0
  130.5790  121.1690   61.7260 C   0  0  0  0  0  0  0  0  0  0  0  0
  131.7520  120.5750   61.5080 F   0  0  0  0  0  0  0  0  0  0  0  0
  130.5920  121.7220   62.9390 F   0  0  0  0  0  0  0  0  0  0  0  0
  129.6430  120.2160   61.7320 F   0  0  0  0  0  0  0  0  0  0  0  0
  131.2630  123.2690   60.3650 C   0  0  0  0  0  0  0  0  0  0  0  0
  132.5380  123.3490   61.0860 C   0  0  0  0  0  0  0  0  0  0  0  0
  133.5440  123.4130   61.6550 N   0  0  0  0  0  0  0  0  0  0  0  0
  132.3536  132.4800   57.7309 H   0  0  0  0  0  0  0  0  0  0  0  0
  132.2300  131.5360   56.2077 H   0  0  0  0  0  0  0  0  0  0  0  0
  133.0406  133.1390   56.2077 H   0  0  0  0  0  0  0  0  0  0  0  0
  129.2474  132.5044   55.4483 H   0  0  0  0  0  0  0  0  0  0  0  0
  130.2604  131.2397   56.2165 H   0  0  0  0  0  0  0  0  0  0  0  0
  129.6394  131.9730   58.4430 H   0  0  0  0  0  0  0  0  0  0  0  0
  128.8836  133.4714   57.8115 H   0  0  0  0  0  0  0  0  0  0  0  0
  128.9017  130.2214   56.5236 H   0  0  0  0  0  0  0  0  0  0  0  0
  127.8674  129.7411   57.9530 H   0  0  0  0  0  0  0  0  0  0  0  0
  125.8373  130.1277   56.5628 H   0  0  0  0  0  0  0  0  0  0  0  0
  126.8904  130.4413   55.1449 H   0  0  0  0  0  0  0  0  0  0  0  0
  128.6211  127.8095   54.9338 H   0  0  0  0  0  0  0  0  0  0  0  0
  128.8890  128.7694   56.4347 H   0  0  0  0  0  0  0  0  0  0  0  0
  127.6554  126.8467   57.6623 H   0  0  0  0  0  0  0  0  0  0  0  0
  127.9426  125.9048   56.1230 H   0  0  0  0  0  0  0  0  0  0  0  0
  129.7730  126.2950   58.2260 H   0  0  0  0  0  0  0  0  0  0  0  0
  132.3419  124.7371   56.6565 H   0  0  0  0  0  0  0  0  0  0  0  0
  132.7197  126.5371   56.8648 H   0  0  0  0  0  0  0  0  0  0  0  0
  128.5672  122.6814   56.2905 H   0  0  0  0  0  0  0  0  0  0  0  0
  126.4685  122.7029   54.9549 H   0  0  0  0  0  0  0  0  0  0  0  0
  124.3010  123.2381   56.0559 H   0  0  0  0  0  0  0  0  0  0  0  0
  124.2220  123.7450   58.4913 H   0  0  0  0  0  0  0  0  0  0  0  0
  126.3168  123.7209   59.8324 H   0  0  0  0  0  0  0  0  0  0  0  0
  128.3815  121.4339   60.1412 H   0  0  0  0  0  0  0  0  0  0  0  0
  1  2  1  0
  2  3  1  0
  3  4  1  0
  4  5  1  0
  5  6  1  0
  6  7  1  0
  7  8  1  0
  8  9  1  0
  9 10  1  0
 10 11  1  0
 11 12  1  0
 12 13  2  0
 12 14  1  0
 14 15  1  0
 15 16  1  0
 16 17  2  0
 17 18  1  0
 18 19  1  0
 19 20  2  0
 20 21  1  0
 21 22  2  0
 22 23  1  0
 23 24  2  0
 18 25  2  0
 25 26  1  0
 26 27  1  0
 27 28  1  0
 27 29  1  0
 27 30  1  0
 26 31  2  0
 31 32  1  0
 32 33  3  0
 31 16  1  0
 24 19  1  0
  1 34  1  0
  1 35  1  0
  1 36  1  0
  3 37  1  0
  3 38  1  0
  4 39  1  0
  4 40  1  0
  6 41  1  0
  6 42  1  0
  7 43  1  0
  7 44  1  0
  9 45  1  0
  9 46  1  0
 10 47  1  0
 10 48  1  0
 11 49  1  0
 14 50  1  0
 14 51  1  0
 20 52  1  0
 21 53  1  0
 22 54  1  0
 23 55  1  0
 24 56  1  0
 25 57  1  0
M  END
>  <Binding energies>  (1) 
[-7.32]

>  <Ligand effiencies>  (1) 
[-0.21529411764705883]

>  <Interactions>  (1) 
["V-A:LEU:475:CD2:4256, V-B:TYR:539:CD1:9845, V-B:TYR:539:C:9839, V-B:PRO:540:C:9853, V-B:TYR:539:CE1:9847, V-B:PRO:540:CB:9857, V-B:PRO:540:CA:9855, V-B:ALA:541:CB:9864, V-B:PRO:540:N:9856, H-B:TYR:531:OH:9767, V-A:TYR:539:CE1:4873, V-A:TYR:539:C:4865, V-A:TYR:539:CD1:4871, V-A:PRO:540:CB:4883, V-A:PRO:540:N:4882, V-A:LEU:363:CD1:3186, V-A:ILE:538:CA:4858, V-A:TYR:539:CG:4870, V-A:ILE:538:CB:4860, V-B:ILE:538:CB:9834, V-A:MET:535:CE:4833, V-A:ILE:538:CG2:4861, V-B:ILE:538:CG2:9835, V-A:PRO:540:CD:4885, V-B:ILE:538:CA:9832, V-B:MET:535:CE:9807, H-A:TYR:531:OH:4793, V-A:TYR:539:CZ:4875, V-A:ASP:366:CB:3209, V-B:TYR:531:CE2:9765, V-B:ALA:541:CA:9862, V-B:LEU:363:CD1:8160, H-A:TYR:539:OH:4876, H-A:TYR:539:N:4868"]

$$$$
3bc_Grossjean_2025
     RDKit          3D

 47 49  0  0  0  0  0  0  0  0999 V2000
  127.1990  129.0420   74.6440 C   0  0  0  0  0  0  0  0  0  0  0  0
  128.4790  128.4900   74.3540 O   0  0  0  0  0  0  0  0  0  0  0  0
  128.7580  128.0800   73.0630 C   0  0  0  0  0  0  0  0  0  0  0  0
  127.6700  127.6740   72.2910 C   0  0  0  0  0  0  0  0  0  0  0  0
  127.8520  127.2440   70.9790 C   0  0  0  0  0  0  0  0  0  0  0  0
  129.1320  127.2070   70.4230 C   0  0  0  0  0  0  0  0  0  0  0  0
  129.2170  126.7700   69.0880 N   0  0  0  0  0  0  0  0  0  0  0  0
  130.0390  127.1920   68.1040 C   0  0  0  0  0  0  0  0  0  0  0  0
  130.9170  128.0460   68.2410 O   0  0  0  0  0  0  0  0  0  0  0  0
  129.8380  126.4890   66.7540 C   0  0  0  0  0  0  0  0  0  0  0  0
  130.6910  124.8860   66.5800 S   0  0  0  0  0  0  0  0  0  0  0  0
  131.2680  124.7560   64.9020 C   0  0  0  0  0  0  0  0  0  0  0  0
  130.2760  124.5640   63.9980 N   0  0  0  0  0  0  0  0  0  0  0  0
  130.5770  124.4500   62.6780 C   0  0  0  0  0  0  0  0  0  0  0  0
  129.4250  124.2170   61.7450 C   0  0  0  0  0  0  0  0  0  0  0  0
  128.5010  125.2390   61.4790 C   0  0  0  0  0  0  0  0  0  0  0  0
  127.4290  125.0300   60.6140 C   0  0  0  0  0  0  0  0  0  0  0  0
  127.2670  123.7910   60.0040 C   0  0  0  0  0  0  0  0  0  0  0  0
  128.1670  122.7600   60.2530 C   0  0  0  0  0  0  0  0  0  0  0  0
  129.2370  122.9730   61.1190 C   0  0  0  0  0  0  0  0  0  0  0  0
  131.9010  124.5270   62.2330 C   0  0  0  0  0  0  0  0  0  0  0  0
  132.9340  124.7490   63.1500 C   0  0  0  0  0  0  0  0  0  0  0  0
  134.3620  124.8440   62.6180 C   0  0  0  0  0  0  0  0  0  0  0  0
  132.6240  124.8790   64.5220 C   0  0  0  0  0  0  0  0  0  0  0  0
  133.6820  125.1600   65.4930 C   0  0  0  0  0  0  0  0  0  0  0  0
  134.5210  125.3810   66.2590 N   0  0  0  0  0  0  0  0  0  0  0  0
  130.2310  127.6260   71.1890 C   0  0  0  0  0  0  0  0  0  0  0  0
  130.0440  128.0560   72.5010 C   0  0  0  0  0  0  0  0  0  0  0  0
  127.0633  129.1005   75.7340 H   0  0  0  0  0  0  0  0  0  0  0  0
  127.1280  130.0507   74.2110 H   0  0  0  0  0  0  0  0  0  0  0  0
  126.4167  128.4013   74.2110 H   0  0  0  0  0  0  0  0  0  0  0  0
  126.6583  127.6936   72.7225 H   0  0  0  0  0  0  0  0  0  0  0  0
  126.9844  126.9325   70.3788 H   0  0  0  0  0  0  0  0  0  0  0  0
  128.6110  125.9940   68.8640 H   0  0  0  0  0  0  0  0  0  0  0  0
  128.7601  126.3179   66.6163 H   0  0  0  0  0  0  0  0  0  0  0  0
  130.2773  127.1531   65.9951 H   0  0  0  0  0  0  0  0  0  0  0  0
  128.6249  126.2201   61.9608 H   0  0  0  0  0  0  0  0  0  0  0  0
  126.7139  125.8416   60.4145 H   0  0  0  0  0  0  0  0  0  0  0  0
  126.4216  123.6251   59.3201 H   0  0  0  0  0  0  0  0  0  0  0  0
  128.0344  121.7814   59.7685 H   0  0  0  0  0  0  0  0  0  0  0  0
  129.9456  122.1550   61.3159 H   0  0  0  0  0  0  0  0  0  0  0  0
  132.1297  124.4131   61.1631 H   0  0  0  0  0  0  0  0  0  0  0  0
  135.0655  124.8908   63.4623 H   0  0  0  0  0  0  0  0  0  0  0  0
  134.5843  123.9587   62.0042 H   0  0  0  0  0  0  0  0  0  0  0  0
  134.4650  125.7510   62.0042 H   0  0  0  0  0  0  0  0  0  0  0  0
  131.2409  127.6149   70.7531 H   0  0  0  0  0  0  0  0  0  0  0  0
  130.9087  128.3784   73.0996 H   0  0  0  0  0  0  0  0  0  0  0  0
  1  2  1  0
  2  3  1  0
  3  4  2  0
  4  5  1  0
  5  6  2  0
  6  7  1  0
  7  8  1  0
  8  9  2  0
  8 10  1  0
 10 11  1  0
 11 12  1  0
 12 13  2  0
 13 14  1  0
 14 15  1  0
 15 16  2  0
 16 17  1  0
 17 18  2  0
 18 19  1  0
 19 20  2  0
 14 21  2  0
 21 22  1  0
 22 23  1  0
 22 24  2  0
 24 25  1  0
 25 26  3  0
  6 27  1  0
 27 28  2  0
 28  3  1  0
 24 12  1  0
 20 15  1  0
  1 29  1  0
  1 30  1  0
  1 31  1  0
  4 32  1  0
  5 33  1  0
  7 34  1  0
 10 35  1  0
 10 36  1  0
 16 37  1  0
 17 38  1  0
 18 39  1  0
 19 40  1  0
 20 41  1  0
 21 42  1  0
 23 43  1  0
 23 44  1  0
 23 45  1  0
 27 46  1  0
 28 47  1  0
M  END
>  <Binding energies>  (1) 
[-8.12]

>  <Ligand effiencies>  (1) 
[-0.27999999999999997]

>  <Interactions>  (1) 
["H-B:LYS:547:NZ:9923, V-B:HIS:456:CE1:9040, V-A:LYS:547:CE:4948, H-A:LYS:547:NZ:4949, V-B:HIS:456:CD2:9039, V-B:HIS:456:CG:9037, V-A:HIS:456:CE1:4066, V-B:HIS:456:CB:9036, V-A:GLY:544:C:4910, V-B:GLU:543:CG:9879, H-A:TYR:484:OH:4345, V-A:GLY:454:CA:4046, V-B:TYR:539:C:9839, V-B:GLU:543:CB:9878, V-B:GLU:543:CD:9880, V-A:ARG:545:CZ:4924, V-B:PRO:540:CA:9855, V-A:GLU:543:CD:4906, V-A:ARG:545:CD:4921, V-A:GLY:453:CA:4041, V-A:ILE:369:CD1:3236, V-A:ARG:545:CG:4920, H-A:ARG:545:NE:4922, V-A:GLY:453:C:4039, V-B:GLY:544:CA:9886, V-B:GLU:543:C:9874, H-A:HIS:456:NE2:4067, V-A:GLY:544:CA:4912, H-B:GLU:543:O:9875, V-B:GLY:544:C:9884, H-A:GLY:454:N:4047, V-A:GLU:543:CG:4905, H-A:ILE:455:N:4052"]

$$$$
3bd_Grossjean_2025
     RDKit          3D

 43 45  0  0  0  0  0  0  0  0999 V2000
  128.0900  122.9940   61.3730 C   0  0  0  0  0  0  0  0  0  0  0  0
  129.5580  122.5770   61.4330 C   0  0  0  0  0  0  0  0  0  0  0  0
  129.8810  121.2490   61.1330 C   0  0  0  0  0  0  0  0  0  0  0  0
  131.2150  120.8260   61.1810 C   0  0  0  0  0  0  0  0  0  0  0  0
  131.6300  119.4190   60.8670 C   0  0  0  0  0  0  0  0  0  0  0  0
  132.9830  119.0970   60.6710 C   0  0  0  0  0  0  0  0  0  0  0  0
  133.3750  117.7930   60.3780 C   0  0  0  0  0  0  0  0  0  0  0  0
  132.4160  116.7900   60.2760 C   0  0  0  0  0  0  0  0  0  0  0  0
  131.0690  117.0830   60.4630 C   0  0  0  0  0  0  0  0  0  0  0  0
  130.6810  118.3880   60.7550 C   0  0  0  0  0  0  0  0  0  0  0  0
  132.2090  121.6940   61.5020 N   0  0  0  0  0  0  0  0  0  0  0  0
  131.9140  122.9860   61.7960 C   0  0  0  0  0  0  0  0  0  0  0  0
  133.3070  124.0220   62.2130 S   0  0  0  0  0  0  0  0  0  0  0  0
  134.3520  124.1830   60.7340 C   0  0  0  0  0  0  0  0  0  0  0  0
  133.5340  124.1090   59.4440 C   0  0  0  0  0  0  0  0  0  0  0  0
  133.9970  123.5040   58.4760 O   0  0  0  0  0  0  0  0  0  0  0  0
  132.3420  124.7440   59.4690 N   0  0  0  0  0  0  0  0  0  0  0  0
  131.3640  124.8310   58.4600 C   0  0  0  0  0  0  0  0  0  0  0  0
  131.7240  125.5490   57.3160 C   0  0  0  0  0  0  0  0  0  0  0  0
  130.8190  125.6960   56.2680 C   0  0  0  0  0  0  0  0  0  0  0  0
  129.5490  125.1350   56.3680 C   0  0  0  0  0  0  0  0  0  0  0  0
  129.1740  124.4300   57.5090 C   0  0  0  0  0  0  0  0  0  0  0  0
  130.0770  124.2790   58.5580 C   0  0  0  0  0  0  0  0  0  0  0  0
  130.5900  123.4770   61.7750 C   0  0  0  0  0  0  0  0  0  0  0  0
  130.2850  124.8750   62.0930 C   0  0  0  0  0  0  0  0  0  0  0  0
  130.0430  125.9780   62.3430 N   0  0  0  0  0  0  0  0  0  0  0  0
  127.6984  123.1052   62.3949 H   0  0  0  0  0  0  0  0  0  0  0  0
  128.0026  123.9525   60.8404 H   0  0  0  0  0  0  0  0  0  0  0  0
  127.5117  122.2246   60.8404 H   0  0  0  0  0  0  0  0  0  0  0  0
  129.0876  120.5378   60.8597 H   0  0  0  0  0  0  0  0  0  0  0  0
  133.7447  119.8867   60.7501 H   0  0  0  0  0  0  0  0  0  0  0  0
  134.4388  117.5569   60.2278 H   0  0  0  0  0  0  0  0  0  0  0  0
  132.7247  115.7595   60.0462 H   0  0  0  0  0  0  0  0  0  0  0  0
  130.3139  116.2874   60.3806 H   0  0  0  0  0  0  0  0  0  0  0  0
  129.6147  118.6158   60.9004 H   0  0  0  0  0  0  0  0  0  0  0  0
  134.8716  125.1519   60.7700 H   0  0  0  0  0  0  0  0  0  0  0  0
  135.0677  123.3477   60.7310 H   0  0  0  0  0  0  0  0  0  0  0  0
  132.1350  125.2760   60.3010 H   0  0  0  0  0  0  0  0  0  0  0  0
  132.7250  125.9992   57.2434 H   0  0  0  0  0  0  0  0  0  0  0  0
  131.1066  126.2534   55.3644 H   0  0  0  0  0  0  0  0  0  0  0  0
  128.8355  125.2495   55.5387 H   0  0  0  0  0  0  0  0  0  0  0  0
  128.1669  123.9935   57.5813 H   0  0  0  0  0  0  0  0  0  0  0  0
  129.7821  123.7275   59.4629 H   0  0  0  0  0  0  0  0  0  0  0  0
  1  2  1  0
  2  3  2  0
  3  4  1  0
  4  5  1  0
  5  6  2  0
  6  7  1  0
  7  8  2  0
  8  9  1  0
  9 10  2  0
  4 11  2  0
 11 12  1  0
 12 13  1  0
 13 14  1  0
 14 15  1  0
 15 16  2  0
 15 17  1  0
 17 18  1  0
 18 19  2  0
 19 20  1  0
 20 21  2  0
 21 22  1  0
 22 23  2  0
 12 24  2  0
 24 25  1  0
 25 26  3  0
 24  2  1  0
 10  5  1  0
 23 18  1  0
  1 27  1  0
  1 28  1  0
  1 29  1  0
  3 30  1  0
  6 31  1  0
  7 32  1  0
  8 33  1  0
  9 34  1  0
 10 35  1  0
 14 36  1  0
 14 37  1  0
 17 38  1  0
 19 39  1  0
 20 40  1  0
 21 41  1  0
 22 42  1  0
 23 43  1  0
M  END
>  <Binding energies>  (1) 
[-7.85]

>  <Ligand effiencies>  (1) 
[-0.29074074074074074]

>  <Interactions>  (1) 
["V-A:LEU:475:CD2:4256, V-B:TYR:539:CD1:9845, V-B:TYR:539:CE1:9847, V-B:PRO:540:CA:9855, V-B:ALA:541:CB:9864, H-A:ASP:366:OD1:3211, V-A:ASP:366:CG:3210, V-A:ILE:369:CD1:3236, V-B:TYR:539:CZ:9849, V-B:MET:535:CE:9807, V-A:ILE:369:CG2:3234, V-A:ILE:369:CB:3233, V-A:LEU:373:CD1:3277, V-A:PRO:482:CG:4324, V-A:SER:385:CA:3404, V-A:SER:385:CB:3406, V-A:PRO:482:CB:4323, V-A:VAL:384:C:3394, V-A:ASP:366:CB:3209, H-B:TYR:539:OH:9850, V-B:TYR:539:CB:9843, H-A:GLY:454:N:4047"]

$$$$
3be_Grossjean_2025
     RDKit          3D

 45 47  0  0  0  0  0  0  0  0999 V2000
  134.4690  124.2630   58.7250 C   0  0  0  0  0  0  0  0  0  0  0  0
  133.1050  124.6430   58.1840 C   0  0  0  0  0  0  0  0  0  0  0  0
  132.9650  125.4290   57.0370 C   0  0  0  0  0  0  0  0  0  0  0  0
  131.6790  125.7430   56.5990 C   0  0  0  0  0  0  0  0  0  0  0  0
  130.5730  125.2680   57.3100 C   0  0  0  0  0  0  0  0  0  0  0  0
  130.7830  124.4830   58.4490 C   0  0  0  0  0  0  0  0  0  0  0  0
  129.6300  124.0440   59.1260 N   0  0  0  0  0  0  0  0  0  0  0  0
  128.7440  123.0930   58.7590 C   0  0  0  0  0  0  0  0  0  0  0  0
  128.8120  122.4370   57.7180 O   0  0  0  0  0  0  0  0  0  0  0  0
  127.5970  122.8650   59.7560 C   0  0  0  0  0  0  0  0  0  0  0  0
  128.1130  122.6210   61.4900 S   0  0  0  0  0  0  0  0  0  0  0  0
  129.8560  122.2660   61.5030 C   0  0  0  0  0  0  0  0  0  0  0  0
  130.1520  120.9860   61.1650 N   0  0  0  0  0  0  0  0  0  0  0  0
  131.4480  120.5770   61.1300 C   0  0  0  0  0  0  0  0  0  0  0  0
  131.6890  119.1430   60.7610 C   0  0  0  0  0  0  0  0  0  0  0  0
  132.9950  118.6570   60.5870 C   0  0  0  0  0  0  0  0  0  0  0  0
  133.2250  117.3290   60.2410 C   0  0  0  0  0  0  0  0  0  0  0  0
  132.1490  116.4650   60.0630 C   0  0  0  0  0  0  0  0  0  0  0  0
  130.8460  116.9220   60.2270 C   0  0  0  0  0  0  0  0  0  0  0  0
  130.6200  118.2520   60.5720 C   0  0  0  0  0  0  0  0  0  0  0  0
  132.4880  121.4600   61.4440 C   0  0  0  0  0  0  0  0  0  0  0  0
  132.2010  122.7890   61.7710 C   0  0  0  0  0  0  0  0  0  0  0  0
  133.3690  123.7210   62.0890 C   0  0  0  0  0  0  0  0  0  0  0  0
  130.8570  123.2200   61.7940 C   0  0  0  0  0  0  0  0  0  0  0  0
  130.5380  124.6210   62.0810 C   0  0  0  0  0  0  0  0  0  0  0  0
  130.2880  125.7280   62.3070 N   0  0  0  0  0  0  0  0  0  0  0  0
  132.0400  124.1750   58.8840 N   0  0  0  0  0  0  0  0  0  0  0  0
  134.4424  124.2704   59.8247 H   0  0  0  0  0  0  0  0  0  0  0  0
  134.7362  123.2562   58.3715 H   0  0  0  0  0  0  0  0  0  0  0  0
  135.2183  124.9866   58.3715 H   0  0  0  0  0  0  0  0  0  0  0  0
  133.8491  125.7917   56.4922 H   0  0  0  0  0  0  0  0  0  0  0  0
  131.5357  126.3604   55.7000 H   0  0  0  0  0  0  0  0  0  0  0  0
  129.5519  125.5080   56.9786 H   0  0  0  0  0  0  0  0  0  0  0  0
  129.4380  124.5330   59.9890 H   0  0  0  0  0  0  0  0  0  0  0  0
  126.9337  123.7417   59.7183 H   0  0  0  0  0  0  0  0  0  0  0  0
  127.1061  121.9298   59.4486 H   0  0  0  0  0  0  0  0  0  0  0  0
  133.8489  119.3363   60.7263 H   0  0  0  0  0  0  0  0  0  0  0  0
  134.2540  116.9635   60.1086 H   0  0  0  0  0  0  0  0  0  0  0  0
  132.3301  115.4146   59.7910 H   0  0  0  0  0  0  0  0  0  0  0  0
  129.9978  116.2362   60.0849 H   0  0  0  0  0  0  0  0  0  0  0  0
  129.5878  118.6105   60.6985 H   0  0  0  0  0  0  0  0  0  0  0  0
  133.5303  121.1086   61.4335 H   0  0  0  0  0  0  0  0  0  0  0  0
  133.4806  123.8100   63.1797 H   0  0  0  0  0  0  0  0  0  0  0  0
  134.2939  123.3100   61.6581 H   0  0  0  0  0  0  0  0  0  0  0  0
  133.1735  124.7140   61.6581 H   0  0  0  0  0  0  0  0  0  0  0  0
  1  2  1  0
  2  3  2  0
  3  4  1  0
  4  5  2  0
  5  6  1  0
  6  7  1  0
  7  8  1  0
  8  9  2  0
  8 10  1  0
 10 11  1  0
 11 12  1  0
 12 13  2  0
 13 14  1  0
 14 15  1  0
 15 16  2  0
 16 17  1  0
 17 18  2  0
 18 19  1  0
 19 20  2  0
 14 21  2  0
 21 22  1  0
 22 23  1  0
 22 24  2  0
 24 25  1  0
 25 26  3  0
  6 27  2  0
 27  2  1  0
 24 12  1  0
 20 15  1  0
  1 28  1  0
  1 29  1  0
  1 30  1  0
  3 31  1  0
  4 32  1  0
  5 33  1  0
  7 34  1  0
 10 35  1  0
 10 36  1  0
 16 37  1  0
 17 38  1  0
 18 39  1  0
 19 40  1  0
 20 41  1  0
 21 42  1  0
 23 43  1  0
 23 44  1  0
 23 45  1  0
M  END
>  <Binding energies>  (1) 
[-7.8]

>  <Ligand effiencies>  (1) 
[-0.2785714285714286]

>  <Interactions>  (1) 
["V-A:LEU:475:CD2:4256, V-B:TYR:539:CD1:9845, V-B:TYR:539:C:9839, V-B:TYR:539:CE1:9847, V-B:PRO:540:CA:9855, V-B:ALA:541:CB:9864, V-A:ASP:366:CG:3210, V-B:PRO:540:N:9856, V-A:ILE:369:CD1:3236, V-B:TYR:539:CG:9844, V-B:TYR:539:CZ:9849, V-A:TYR:531:CZ:4792, V-A:ILE:369:CG2:3234, V-A:ILE:369:CB:3233, V-A:LEU:373:CD1:3277, V-A:PRO:482:CG:4324, V-A:SER:385:CA:3404, V-A:SER:385:CB:3406, V-A:PRO:482:CB:4323, V-A:VAL:384:C:3394, H-B:ALA:541:N:9863, V-A:ASP:366:C:3205, V-A:ASP:366:CB:3209, V-A:ASP:366:CA:3207, H-B:TYR:539:OH:9850, V-A:TYR:531:CE1:4790, V-B:TYR:539:CB:9843, V-A:ILE:369:CG1:3235, V-B:VAL:344:CG1:7972"]

$$$$
3bf_Grossjean_2025
     RDKit          3D

 42 44  0  0  0  0  0  0  0  0999 V2000
  133.7090  123.8090   61.4960 C   0  0  0  0  0  0  0  0  0  0  0  0
  132.5160  122.8640   61.3740 C   0  0  0  0  0  0  0  0  0  0  0  0
  132.7680  121.5130   61.1120 C   0  0  0  0  0  0  0  0  0  0  0  0
  131.7040  120.6100   61.0070 C   0  0  0  0  0  0  0  0  0  0  0  0
  131.9090  119.1470   60.7510 C   0  0  0  0  0  0  0  0  0  0  0  0
  133.1950  118.6330   60.5230 C   0  0  0  0  0  0  0  0  0  0  0  0
  133.3930  117.2760   60.2840 C   0  0  0  0  0  0  0  0  0  0  0  0
  132.3030  116.4120   60.2680 C   0  0  0  0  0  0  0  0  0  0  0  0
  131.0180  116.8970   60.4900 C   0  0  0  0  0  0  0  0  0  0  0  0
  130.8240  118.2550   60.7270 C   0  0  0  0  0  0  0  0  0  0  0  0
  130.4190  121.0270   61.1560 N   0  0  0  0  0  0  0  0  0  0  0  0
  130.1570  122.3380   61.3840 C   0  0  0  0  0  0  0  0  0  0  0  0
  128.4210  122.7000   61.5450 S   0  0  0  0  0  0  0  0  0  0  0  0
  127.7020  122.7780   59.8690 C   0  0  0  0  0  0  0  0  0  0  0  0
  128.6990  123.1000   58.7460 C   0  0  0  0  0  0  0  0  0  0  0  0
  128.7420  122.4090   57.7270 O   0  0  0  0  0  0  0  0  0  0  0  0
  129.4670  124.1890   58.9700 N   0  0  0  0  0  0  0  0  0  0  0  0
  130.4740  124.7410   58.1570 C   0  0  0  0  0  0  0  0  0  0  0  0
  131.7970  124.5830   58.5830 C   0  0  0  0  0  0  0  0  0  0  0  0
  132.8430  125.0980   57.8130 C   0  0  0  0  0  0  0  0  0  0  0  0
  132.5320  125.7570   56.6230 C   0  0  0  0  0  0  0  0  0  0  0  0
  131.2590  125.9150   56.1800 N   0  0  0  0  0  0  0  0  0  0  0  0
  130.2530  125.4100   56.9400 C   0  0  0  0  0  0  0  0  0  0  0  0
  131.1810  123.3000   61.5210 C   0  0  0  0  0  0  0  0  0  0  0  0
  130.8970  124.7010   61.8450 C   0  0  0  0  0  0  0  0  0  0  0  0
  130.6730  125.8080   62.0990 N   0  0  0  0  0  0  0  0  0  0  0  0
  133.9305  123.9845   62.5591 H   0  0  0  0  0  0  0  0  0  0  0  0
  134.5857  123.3576   61.0084 H   0  0  0  0  0  0  0  0  0  0  0  0
  133.4703  124.7657   61.0084 H   0  0  0  0  0  0  0  0  0  0  0  0
  133.8026  121.1605   60.9885 H   0  0  0  0  0  0  0  0  0  0  0  0
  134.0597  119.3129   60.5333 H   0  0  0  0  0  0  0  0  0  0  0  0
  134.4074  116.8885   60.1085 H   0  0  0  0  0  0  0  0  0  0  0  0
  132.4578  115.3395   60.0788 H   0  0  0  0  0  0  0  0  0  0  0  0
  130.1588  116.2102   60.4783 H   0  0  0  0  0  0  0  0  0  0  0  0
  129.8061  118.6352   60.8980 H   0  0  0  0  0  0  0  0  0  0  0  0
  127.2445  121.8022   59.6489 H   0  0  0  0  0  0  0  0  0  0  0  0
  126.9797  123.6075   59.8841 H   0  0  0  0  0  0  0  0  0  0  0  0
  129.2720  124.7130   59.8110 H   0  0  0  0  0  0  0  0  0  0  0  0
  132.0136  124.0541   59.5229 H   0  0  0  0  0  0  0  0  0  0  0  0
  133.8881  124.9865   58.1376 H   0  0  0  0  0  0  0  0  0  0  0  0
  133.3543  126.1662   56.0177 H   0  0  0  0  0  0  0  0  0  0  0  0
  129.2180  125.5298   56.5874 H   0  0  0  0  0  0  0  0  0  0  0  0
  1  2  1  0
  2  3  2  0
  3  4  1  0
  4  5  1  0
  5  6  2  0
  6  7  1  0
  7  8  2  0
  8  9  1  0
  9 10  2  0
  4 11  2  0
 11 12  1  0
 12 13  1  0
 13 14  1  0
 14 15  1  0
 15 16  2  0
 15 17  1  0
 17 18  1  0
 18 19  2  0
 19 20  1  0
 20 21  2  0
 21 22  1  0
 22 23  2  0
 12 24  2  0
 24 25  1  0
 25 26  3  0
 24  2  1  0
 10  5  1  0
 23 18  1  0
  1 27  1  0
  1 28  1  0
  1 29  1  0
  3 30  1  0
  6 31  1  0
  7 32  1  0
  8 33  1  0
  9 34  1  0
 10 35  1  0
 14 36  1  0
 14 37  1  0
 17 38  1  0
 19 39  1  0
 20 40  1  0
 21 41  1  0
 23 42  1  0
M  END
>  <Binding energies>  (1) 
[-7.76]

>  <Ligand effiencies>  (1) 
[-0.2874074074074074]

>  <Interactions>  (1) 
["V-A:LEU:475:CD2:4256, V-B:TYR:539:CD1:9845, V-B:TYR:539:C:9839, V-B:PRO:540:C:9853, V-B:TYR:539:CE1:9847, V-B:PRO:540:CA:9855, V-B:ALA:541:CB:9864, V-A:ASP:366:CG:3210, V-B:PRO:540:N:9856, V-A:ILE:369:CD1:3236, H-B:TYR:539:N:9842, V-B:TYR:539:CZ:9849, V-A:TYR:531:CZ:4792, V-A:ILE:369:CG2:3234, H-A:TYR:531:OH:4793, V-A:LEU:373:CD1:3277, V-A:PRO:482:CG:4324, V-A:SER:385:CA:3404, V-A:SER:385:CB:3406, V-A:PRO:482:CB:4323, V-A:VAL:384:C:3394, H-B:ALA:541:N:9863, V-A:ASP:366:C:3205, V-A:ASP:366:CB:3209, V-A:ASP:366:CA:3207, H-B:TYR:539:OH:9850, V-A:TYR:531:CE1:4790, V-B:TYR:539:CB:9843, V-B:VAL:344:CG1:7972"]

$$$$
3bg_Grossjean_2025
     RDKit          3D

 46 48  0  0  0  0  0  0  0  0999 V2000
  128.1770  122.7670   61.8300 C   0  0  0  0  0  0  0  0  0  0  0  0
  129.6400  122.3640   61.6570 C   0  0  0  0  0  0  0  0  0  0  0  0
  129.9250  121.0320   61.3410 C   0  0  0  0  0  0  0  0  0  0  0  0
  131.2530  120.6210   61.1660 C   0  0  0  0  0  0  0  0  0  0  0  0
  131.6280  119.2080   60.8140 C   0  0  0  0  0  0  0  0  0  0  0  0
  132.9740  118.8300   60.6680 C   0  0  0  0  0  0  0  0  0  0  0  0
  133.3250  117.5190   60.3610 C   0  0  0  0  0  0  0  0  0  0  0  0
  132.3330  116.5600   60.1900 C   0  0  0  0  0  0  0  0  0  0  0  0
  130.9930  116.9070   60.3160 C   0  0  0  0  0  0  0  0  0  0  0  0
  130.6460  118.2200   60.6220 C   0  0  0  0  0  0  0  0  0  0  0  0
  132.2730  121.5130   61.2830 N   0  0  0  0  0  0  0  0  0  0  0  0
  132.0130  122.8100   61.5860 C   0  0  0  0  0  0  0  0  0  0  0  0
  133.4370  123.8840   61.6760 S   0  0  0  0  0  0  0  0  0  0  0  0
  134.2610  123.8790   60.0500 C   0  0  0  0  0  0  0  0  0  0  0  0
  133.3200  124.3420   58.9330 C   0  0  0  0  0  0  0  0  0  0  0  0
  133.6750  124.2550   57.7580 O   0  0  0  0  0  0  0  0  0  0  0  0
  132.1380  124.8520   59.3200 N   0  0  0  0  0  0  0  0  0  0  0  0
  131.1720  125.5150   58.4440 C   0  0  0  0  0  0  0  0  0  0  0  0
  130.1450  124.5350   57.8880 C   0  0  0  0  0  0  0  0  0  0  0  0
  129.9970  124.3850   56.5050 C   0  0  0  0  0  0  0  0  0  0  0  0
  129.0540  123.4970   55.9980 C   0  0  0  0  0  0  0  0  0  0  0  0
  128.2670  122.7520   56.8750 C   0  0  0  0  0  0  0  0  0  0  0  0
  128.4220  122.8810   58.2530 C   0  0  0  0  0  0  0  0  0  0  0  0
  129.3670  123.7700   58.7600 C   0  0  0  0  0  0  0  0  0  0  0  0
  130.7010  123.2840   61.7920 C   0  0  0  0  0  0  0  0  0  0  0  0
  130.4320  124.6880   62.1140 C   0  0  0  0  0  0  0  0  0  0  0  0
  130.2190  125.7960   62.3690 N   0  0  0  0  0  0  0  0  0  0  0  0
  127.9390  122.8326   62.9019 H   0  0  0  0  0  0  0  0  0  0  0  0
  128.0077  123.7452   61.3563 H   0  0  0  0  0  0  0  0  0  0  0  0
  127.5306  122.0135   61.3563 H   0  0  0  0  0  0  0  0  0  0  0  0
  129.1059  120.3062   61.2297 H   0  0  0  0  0  0  0  0  0  0  0  0
  133.7640  119.5842   60.7988 H   0  0  0  0  0  0  0  0  0  0  0  0
  134.3842  117.2422   60.2539 H   0  0  0  0  0  0  0  0  0  0  0  0
  132.6099  115.5219   59.9539 H   0  0  0  0  0  0  0  0  0  0  0  0
  130.2101  116.1474   60.1745 H   0  0  0  0  0  0  0  0  0  0  0  0
  129.5837  118.4897   60.7153 H   0  0  0  0  0  0  0  0  0  0  0  0
  135.1278  124.5551   60.0882 H   0  0  0  0  0  0  0  0  0  0  0  0
  134.5729  122.8477   59.8283 H   0  0  0  0  0  0  0  0  0  0  0  0
  131.9350  124.8890   60.3080 H   0  0  0  0  0  0  0  0  0  0  0  0
  130.6472  126.2933   59.0174 H   0  0  0  0  0  0  0  0  0  0  0  0
  131.7220  125.9507   57.5968 H   0  0  0  0  0  0  0  0  0  0  0  0
  130.6267  124.9696   55.8181 H   0  0  0  0  0  0  0  0  0  0  0  0
  128.9299  123.3832   54.9110 H   0  0  0  0  0  0  0  0  0  0  0  0
  127.5160  122.0552   56.4745 H   0  0  0  0  0  0  0  0  0  0  0  0
  127.8014  122.2840   58.9375 H   0  0  0  0  0  0  0  0  0  0  0  0
  129.5006  123.8696   59.8473 H   0  0  0  0  0  0  0  0  0  0  0  0
  1  2  1  0
  2  3  2  0
  3  4  1  0
  4  5  1  0
  5  6  2  0
  6  7  1  0
  7  8  2  0
  8  9  1  0
  9 10  2  0
  4 11  2  0
 11 12  1  0
 12 13  1  0
 13 14  1  0
 14 15  1  0
 15 16  2  0
 15 17  1  0
 17 18  1  0
 18 19  1  0
 19 20  2  0
 20 21  1  0
 21 22  2  0
 22 23  1  0
 23 24  2  0
 12 25  2  0
 25 26  1  0
 26 27  3  0
 25  2  1  0
 10  5  1  0
 24 19  1  0
  1 28  1  0
  1 29  1  0
  1 30  1  0
  3 31  1  0
  6 32  1  0
  7 33  1  0
  8 34  1  0
  9 35  1  0
 10 36  1  0
 14 37  1  0
 14 38  1  0
 17 39  1  0
 18 40  1  0
 18 41  1  0
 20 42  1  0
 21 43  1  0
 22 44  1  0
 23 45  1  0
 24 46  1  0
M  END
>  <Binding energies>  (1) 
[-8.2]

>  <Ligand effiencies>  (1) 
[-0.2928571428571428]

>  <Interactions>  (1) 
["V-A:LEU:475:CD2:4256, V-B:TYR:539:CD1:9845, V-B:TYR:539:C:9839, V-B:PRO:540:C:9853, V-B:TYR:539:CE1:9847, V-B:PRO:540:CA:9855, V-B:ALA:541:CB:9864, H-A:ASP:366:OD1:3211, V-A:ASP:366:CG:3210, V-A:ILE:369:CD1:3236, V-B:TYR:539:CE2:9848, V-B:TYR:539:CG:9844, V-B:TYR:539:CD2:9846, V-B:TYR:539:CZ:9849, V-B:MET:535:CE:9807, V-A:ILE:369:CG2:3234, V-A:ILE:369:CB:3233, V-A:LEU:373:CD1:3277, V-A:PRO:482:CG:4324, V-A:SER:385:CA:3404, V-A:SER:385:CB:3406, V-A:PRO:482:CB:4323, V-A:VAL:384:C:3394, V-A:ASP:366:CB:3209, V-A:ASP:366:CA:3207, H-B:TYR:539:OH:9850, V-B:ALA:541:CA:9862, V-B:TYR:539:CB:9843, V-A:ILE:369:CG1:3235, V-B:VAL:344:CG1:7972"]

$$$$
3bk_Grossjean_2025
     RDKit          3D

 57 58  0  0  0  0  0  0  0  0999 V2000
  125.0140  122.7880   56.7490 C   0  0  0  0  0  0  0  0  0  0  0  0
  126.1600  122.0360   56.3830 O   0  0  0  0  0  0  0  0  0  0  0  0
  127.3700  122.7780   56.4560 C   0  0  0  0  0  0  0  0  0  0  0  0
  127.8380  122.8590   57.9150 C   0  0  0  0  0  0  0  0  0  0  0  0
  128.5500  124.0720   58.1150 O   0  0  0  0  0  0  0  0  0  0  0  0
  128.8160  124.7870   56.9150 C   0  0  0  0  0  0  0  0  0  0  0  0
  130.2840  124.5850   56.5190 C   0  0  0  0  0  0  0  0  0  0  0  0
  130.9370  125.8470   56.4690 O   0  0  0  0  0  0  0  0  0  0  0  0
  131.6460  126.1750   57.6570 C   0  0  0  0  0  0  0  0  0  0  0  0
  131.2590  125.1920   58.7710 C   0  0  0  0  0  0  0  0  0  0  0  0
  132.3410  124.9880   59.7350 N   0  0  0  0  0  0  0  0  0  0  0  0
  133.4880  124.3310   59.4940 C   0  0  0  0  0  0  0  0  0  0  0  0
  133.7730  123.8300   58.4050 O   0  0  0  0  0  0  0  0  0  0  0  0
  134.4820  124.2440   60.6540 C   0  0  0  0  0  0  0  0  0  0  0  0
  133.6840  123.6930   62.1950 S   0  0  0  0  0  0  0  0  0  0  0  0
  132.2300  122.7420   61.7880 C   0  0  0  0  0  0  0  0  0  0  0  0
  132.4440  121.4460   61.4480 N   0  0  0  0  0  0  0  0  0  0  0  0
  131.3950  120.6470   61.1190 C   0  0  0  0  0  0  0  0  0  0  0  0
  131.7180  119.2240   60.7770 C   0  0  0  0  0  0  0  0  0  0  0  0
  133.0490  118.8080   60.6180 C   0  0  0  0  0  0  0  0  0  0  0  0
  133.3540  117.4880   60.2940 C   0  0  0  0  0  0  0  0  0  0  0  0
  132.3290  116.5630   60.1250 C   0  0  0  0  0  0  0  0  0  0  0  0
  131.0020  116.9490   60.2800 C   0  0  0  0  0  0  0  0  0  0  0  0
  130.7010  118.2690   60.6050 C   0  0  0  0  0  0  0  0  0  0  0  0
  130.0850  121.1400   61.1320 C   0  0  0  0  0  0  0  0  0  0  0  0
  129.8460  122.4750   61.4790 C   0  0  0  0  0  0  0  0  0  0  0  0
  128.4020  122.9730   61.4800 C   0  0  0  0  0  0  0  0  0  0  0  0
  130.9350  123.3050   61.8170 C   0  0  0  0  0  0  0  0  0  0  0  0
  130.7150  124.7060   62.1870 C   0  0  0  0  0  0  0  0  0  0  0  0
  130.5400  125.8120   62.4790 N   0  0  0  0  0  0  0  0  0  0  0  0
  124.9415  122.8356   57.8456 H   0  0  0  0  0  0  0  0  0  0  0  0
  125.0987  123.8067   56.3426 H   0  0  0  0  0  0  0  0  0  0  0  0
  124.1132  122.3048   56.3426 H   0  0  0  0  0  0  0  0  0  0  0  0
  128.1419  122.2796   55.8512 H   0  0  0  0  0  0  0  0  0  0  0  0
  127.1988  123.7940   56.0707 H   0  0  0  0  0  0  0  0  0  0  0  0
  126.9643  122.8318   58.5828 H   0  0  0  0  0  0  0  0  0  0  0  0
  128.4954  122.0057   58.1381 H   0  0  0  0  0  0  0  0  0  0  0  0
  128.1640  124.4126   56.1120 H   0  0  0  0  0  0  0  0  0  0  0  0
  128.6212  125.8580   57.0734 H   0  0  0  0  0  0  0  0  0  0  0  0
  130.7801  123.9442   57.2629 H   0  0  0  0  0  0  0  0  0  0  0  0
  130.3355  124.1049   55.5306 H   0  0  0  0  0  0  0  0  0  0  0  0
  132.7277  126.1086   57.4687 H   0  0  0  0  0  0  0  0  0  0  0  0
  131.3901  127.1992   57.9661 H   0  0  0  0  0  0  0  0  0  0  0  0
  130.3817  125.5885   59.3031 H   0  0  0  0  0  0  0  0  0  0  0  0
  131.0405  124.2216   58.3013 H   0  0  0  0  0  0  0  0  0  0  0  0
  132.2140  125.4200   60.6390 H   0  0  0  0  0  0  0  0  0  0  0  0
  135.2751  123.5292   60.3894 H   0  0  0  0  0  0  0  0  0  0  0  0
  134.8939  125.2495   60.8250 H   0  0  0  0  0  0  0  0  0  0  0  0
  133.8635  119.5352   60.7512 H   0  0  0  0  0  0  0  0  0  0  0  0
  134.4024  117.1780   60.1721 H   0  0  0  0  0  0  0  0  0  0  0  0
  132.5693  115.5209   59.8674 H   0  0  0  0  0  0  0  0  0  0  0  0
  130.1938  116.2148   60.1464 H   0  0  0  0  0  0  0  0  0  0  0  0
  129.6501  118.5694   60.7292 H   0  0  0  0  0  0  0  0  0  0  0  0
  129.2451  120.4798   60.8701 H   0  0  0  0  0  0  0  0  0  0  0  0
  128.0560  123.0923   62.5173 H   0  0  0  0  0  0  0  0  0  0  0  0
  128.3479  123.9417   60.9617 H   0  0  0  0  0  0  0  0  0  0  0  0
  127.7622  122.2436   60.9617 H   0  0  0  0  0  0  0  0  0  0  0  0
  1  2  1  0
  2  3  1  0
  3  4  1  0
  4  5  1  0
  5  6  1  0
  6  7  1  0
  7  8  1  0
  8  9  1  0
  9 10  1  0
 10 11  1  0
 11 12  1  0
 12 13  2  0
 12 14  1  0
 14 15  1  0
 15 16  1  0
 16 17  2  0
 17 18  1  0
 18 19  1  0
 19 20  2  0
 20 21  1  0
 21 22  2  0
 22 23  1  0
 23 24  2  0
 18 25  2  0
 25 26  1  0
 26 27  1  0
 26 28  2  0
 28 29  1  0
 29 30  3  0
 28 16  1  0
 24 19  1  0
  1 31  1  0
  1 32  1  0
  1 33  1  0
  3 34  1  0
  3 35  1  0
  4 36  1  0
  4 37  1  0
  6 38  1  0
  6 39  1  0
  7 40  1  0
  7 41  1  0
  9 42  1  0
  9 43  1  0
 10 44  1  0
 10 45  1  0
 11 46  1  0
 14 47  1  0
 14 48  1  0
 20 49  1  0
 21 50  1  0
 22 51  1  0
 23 52  1  0
 24 53  1  0
 25 54  1  0
 27 55  1  0
 27 56  1  0
 27 57  1  0
M  END
>  <Binding energies>  (1) 
[-7.75]

>  <Ligand effiencies>  (1) 
[-0.25]

>  <Interactions>  (1) 
["V-A:LEU:475:CD2:4256, V-B:TYR:539:CD1:9845, V-B:TYR:539:C:9839, V-B:TYR:539:CE1:9847, V-B:PRO:540:CB:9857, V-B:PRO:540:CA:9855, V-B:ALA:541:CB:9864, H-A:ASP:366:OD1:3211, V-A:ASP:366:CG:3210, V-B:PRO:540:N:9856, V-A:ILE:369:CD1:3236, V-B:TYR:539:CG:9844, V-B:ILE:538:CB:9834, H-B:TYR:539:N:9842, V-B:PRO:540:CD:9859, V-B:TYR:539:CZ:9849, V-B:ILE:538:CG2:9835, V-B:ILE:538:CA:9832, V-B:MET:535:CE:9807, V-A:ILE:369:CG2:3234, V-A:ILE:369:CB:3233, H-A:TYR:531:OH:4793, V-A:LEU:373:CD1:3277, V-A:PRO:482:CG:4324, V-A:SER:385:CA:3404, V-A:SER:385:CB:3406, V-A:PRO:482:CB:4323, V-A:VAL:384:C:3394, V-A:ASP:366:CB:3209, V-A:ASP:366:CA:3207, H-B:TYR:539:OH:9850, V-B:LEU:363:CD1:8160, V-B:TYR:539:CB:9843, H-A:GLY:454:N:4047, V-B:VAL:344:CG1:7972"]

$$$$
3ca_Grossjean_2025
     RDKit          3D

 52 54  0  0  0  0  0  0  0  0999 V2000
  123.8380  124.0710   57.7930 C   0  0  0  0  0  0  0  0  0  0  0  0
  124.7140  123.3490   56.7660 C   0  0  0  0  0  0  0  0  0  0  0  0
  125.5180  122.3790   57.4270 O   0  0  0  0  0  0  0  0  0  0  0  0
  126.8730  122.4440   57.3860 C   0  0  0  0  0  0  0  0  0  0  0  0
  127.5460  122.0220   56.4400 O   0  0  0  0  0  0  0  0  0  0  0  0
  127.4740  123.0890   58.6020 C   0  0  0  0  0  0  0  0  0  0  0  0
  128.6900  122.6070   59.1010 C   0  0  0  0  0  0  0  0  0  0  0  0
  129.2720  123.1840   60.2270 C   0  0  0  0  0  0  0  0  0  0  0  0
  128.6470  124.2460   60.8810 C   0  0  0  0  0  0  0  0  0  0  0  0
  129.3210  124.7550   62.0080 N   0  0  0  0  0  0  0  0  0  0  0  0
  130.1460  125.8190   62.1100 C   0  0  0  0  0  0  0  0  0  0  0  0
  130.4500  126.5770   61.1890 O   0  0  0  0  0  0  0  0  0  0  0  0
  130.7090  126.0780   63.5120 C   0  0  0  0  0  0  0  0  0  0  0  0
  132.1730  125.0620   63.8970 S   0  0  0  0  0  0  0  0  0  0  0  0
  132.5300  123.9680   62.5280 C   0  0  0  0  0  0  0  0  0  0  0  0
  133.2810  124.5010   61.5310 N   0  0  0  0  0  0  0  0  0  0  0  0
  133.6070  123.7250   60.4740 C   0  0  0  0  0  0  0  0  0  0  0  0
  134.4630  124.3860   59.4110 C   0  0  0  0  0  0  0  0  0  0  0  0
  133.1890  122.4020   60.3580 C   0  0  0  0  0  0  0  0  0  0  0  0
  132.3970  121.8350   61.3650 C   0  0  0  0  0  0  0  0  0  0  0  0
  131.9610  120.4160   61.1920 C   0  0  0  0  0  0  0  0  0  0  0  0
  132.8800  119.4440   60.7770 C   0  0  0  0  0  0  0  0  0  0  0  0
  132.4810  118.1220   60.6030 C   0  0  0  0  0  0  0  0  0  0  0  0
  131.1550  117.7660   60.8410 C   0  0  0  0  0  0  0  0  0  0  0  0
  130.2270  118.7220   61.2470 C   0  0  0  0  0  0  0  0  0  0  0  0
  130.6310  120.0440   61.4190 C   0  0  0  0  0  0  0  0  0  0  0  0
  132.0630  122.6330   62.4890 C   0  0  0  0  0  0  0  0  0  0  0  0
  131.2800  122.0780   63.5980 C   0  0  0  0  0  0  0  0  0  0  0  0
  130.6620  121.6390   64.4730 N   0  0  0  0  0  0  0  0  0  0  0  0
  127.4310  124.7400   60.3840 C   0  0  0  0  0  0  0  0  0  0  0  0
  126.8520  124.1640   59.2560 C   0  0  0  0  0  0  0  0  0  0  0  0
  124.1651  123.8014   58.8081 H   0  0  0  0  0  0  0  0  0  0  0  0
  123.9310  125.1583   57.6545 H   0  0  0  0  0  0  0  0  0  0  0  0
  122.7885  123.7721   57.6545 H   0  0  0  0  0  0  0  0  0  0  0  0
  124.0735  122.8502   56.0238 H   0  0  0  0  0  0  0  0  0  0  0  0
  125.3623  124.0789   56.2592 H   0  0  0  0  0  0  0  0  0  0  0  0
  129.1900  121.7653   58.5994 H   0  0  0  0  0  0  0  0  0  0  0  0
  130.2314  122.7996   60.6034 H   0  0  0  0  0  0  0  0  0  0  0  0
  129.1100  124.2730   62.8680 H   0  0  0  0  0  0  0  0  0  0  0  0
  130.9906  127.1388   63.5852 H   0  0  0  0  0  0  0  0  0  0  0  0
  129.9246  125.8079   64.2343 H   0  0  0  0  0  0  0  0  0  0  0  0
  135.2454  124.9901   59.8936 H   0  0  0  0  0  0  0  0  0  0  0  0
  134.9312  123.6128   58.7842 H   0  0  0  0  0  0  0  0  0  0  0  0
  133.8333  125.0345   58.7842 H   0  0  0  0  0  0  0  0  0  0  0  0
  133.4790  121.8053   59.4806 H   0  0  0  0  0  0  0  0  0  0  0  0
  133.9257  119.7277   60.5870 H   0  0  0  0  0  0  0  0  0  0  0  0
  133.2082  117.3627   60.2795 H   0  0  0  0  0  0  0  0  0  0  0  0
  130.8384  116.7211   60.7071 H   0  0  0  0  0  0  0  0  0  0  0  0
  129.1812  118.4348   61.4308 H   0  0  0  0  0  0  0  0  0  0  0  0
  129.8990  120.8015   61.7357 H   0  0  0  0  0  0  0  0  0  0  0  0
  126.9345  125.5834   60.8862 H   0  0  0  0  0  0  0  0  0  0  0  0
  125.8977  124.5554   58.8737 H   0  0  0  0  0  0  0  0  0  0  0  0
  1  2  1  0
  2  3  1  0
  3  4  1  0
  4  5  2  0
  4  6  1  0
  6  7  2  0
  7  8  1  0
  8  9  2  0
  9 10  1  0
 10 11  1  0
 11 12  2  0
 11 13  1  0
 13 14  1  0
 14 15  1  0
 15 16  2  0
 16 17  1  0
 17 18  1  0
 17 19  2  0
 19 20  1  0
 20 21  1  0
 21 22  2  0
 22 23  1  0
 23 24  2  0
 24 25  1  0
 25 26  2  0
 20 27  2  0
 27 28  1  0
 28 29  3  0
  9 30  1  0
 30 31  2  0
 31  6  1  0
 27 15  1  0
 26 21  1  0
  1 32  1  0
  1 33  1  0
  1 34  1  0
  2 35  1  0
  2 36  1  0
  7 37  1  0
  8 38  1  0
 10 39  1  0
 13 40  1  0
 13 41  1  0
 18 42  1  0
 18 43  1  0
 18 44  1  0
 19 45  1  0
 22 46  1  0
 23 47  1  0
 24 48  1  0
 25 49  1  0
 26 50  1  0
 30 51  1  0
 31 52  1  0
M  END
>  <Binding energies>  (1) 
[-9.16]

>  <Ligand effiencies>  (1) 
[-0.28625]

>  <Interactions>  (1) 
["V-A:LEU:475:CD2:4256, H-A:TYR:484:OH:4345, V-B:TYR:539:CD1:9845, V-B:TYR:539:C:9839, V-B:ASP:366:CG:8184, V-B:TYR:539:CE1:9847, V-B:PRO:540:CB:9857, V-B:PRO:540:CA:9855, V-B:ALA:541:CB:9864, V-A:ASP:366:CG:3210, H-B:GLU:543:OE1:9881, V-B:ASP:366:CB:8183, V-B:PRO:540:N:9856, H-A:ARG:545:NH2:4926, V-A:ILE:369:CD1:3236, H-B:TYR:539:N:9842, V-B:PRO:540:CD:9859, V-B:TYR:539:CA:9841, V-A:ILE:369:CG2:3234, V-A:ILE:369:CB:3233, V-A:LEU:373:CD1:3277, V-A:PRO:482:CG:4324, V-A:SER:385:CA:3404, V-A:SER:385:CB:3406, V-A:PRO:482:CB:4323, V-A:ASP:366:CB:3209, V-A:ASP:366:CA:3207, V-B:TYR:531:CE2:9765, V-B:LEU:363:CD1:8160, V-A:ILE:369:CG1:3235, V-B:LEU:363:CA:8156, V-B:LEU:363:CB:8158"]

$$$$
3cb_Grossjean_2025
     RDKit          3D

 49 51  0  0  0  0  0  0  0  0999 V2000
  125.1720  122.9080   57.0460 C   0  0  0  0  0  0  0  0  0  0  0  0
  126.2530  122.0130   57.2630 O   0  0  0  0  0  0  0  0  0  0  0  0
  127.5400  122.4210   57.1160 C   0  0  0  0  0  0  0  0  0  0  0  0
  128.1580  122.3510   56.0500 O   0  0  0  0  0  0  0  0  0  0  0  0
  128.1380  122.9660   58.3820 C   0  0  0  0  0  0  0  0  0  0  0  0
  129.3430  123.6840   58.3860 C   0  0  0  0  0  0  0  0  0  0  0  0
  129.8690  124.1770   59.5760 C   0  0  0  0  0  0  0  0  0  0  0  0
  129.2080  123.9610   60.7860 C   0  0  0  0  0  0  0  0  0  0  0  0
  129.8270  124.5070   61.9280 N   0  0  0  0  0  0  0  0  0  0  0  0
  130.2890  125.7570   62.1510 C   0  0  0  0  0  0  0  0  0  0  0  0
  130.2230  126.6870   61.3470 O   0  0  0  0  0  0  0  0  0  0  0  0
  130.9140  125.9660   63.5390 C   0  0  0  0  0  0  0  0  0  0  0  0
  132.5590  125.2070   63.7640 S   0  0  0  0  0  0  0  0  0  0  0  0
  132.8090  124.0450   62.4380 C   0  0  0  0  0  0  0  0  0  0  0  0
  133.5580  124.5390   61.4220 N   0  0  0  0  0  0  0  0  0  0  0  0
  133.8130  123.7440   60.3590 C   0  0  0  0  0  0  0  0  0  0  0  0
  134.6670  124.3580   59.2660 C   0  0  0  0  0  0  0  0  0  0  0  0
  133.3330  122.4410   60.2650 C   0  0  0  0  0  0  0  0  0  0  0  0
  132.5440  121.9150   61.2960 C   0  0  0  0  0  0  0  0  0  0  0  0
  132.0480  120.5130   61.1450 C   0  0  0  0  0  0  0  0  0  0  0  0
  132.9310  119.4890   60.7760 C   0  0  0  0  0  0  0  0  0  0  0  0
  132.4800  118.1780   60.6440 C   0  0  0  0  0  0  0  0  0  0  0  0
  131.1410  117.8830   60.8840 C   0  0  0  0  0  0  0  0  0  0  0  0
  130.2510  118.8860   61.2580 C   0  0  0  0  0  0  0  0  0  0  0  0
  130.7050  120.1960   61.3920 C   0  0  0  0  0  0  0  0  0  0  0  0
  132.2560  122.7410   62.4120 C   0  0  0  0  0  0  0  0  0  0  0  0
  131.3590  122.2760   63.4750 C   0  0  0  0  0  0  0  0  0  0  0  0
  130.6520  121.9080   64.3140 N   0  0  0  0  0  0  0  0  0  0  0  0
  128.0000  123.2470   60.7900 C   0  0  0  0  0  0  0  0  0  0  0  0
  127.4740  122.7550   59.5980 C   0  0  0  0  0  0  0  0  0  0  0  0
  124.7708  123.2401   58.0149 H   0  0  0  0  0  0  0  0  0  0  0  0
  125.5267  123.7804   56.4775 H   0  0  0  0  0  0  0  0  0  0  0  0
  124.3811  122.3968   56.4775 H   0  0  0  0  0  0  0  0  0  0  0  0
  129.8767  123.8588   57.4402 H   0  0  0  0  0  0  0  0  0  0  0  0
  130.8131  124.7414   59.5630 H   0  0  0  0  0  0  0  0  0  0  0  0
  129.9100  123.8600   62.7000 H   0  0  0  0  0  0  0  0  0  0  0  0
  131.0107  127.0482   63.7107 H   0  0  0  0  0  0  0  0  0  0  0  0
  130.2445  125.4692   64.2566 H   0  0  0  0  0  0  0  0  0  0  0  0
  135.4802  124.9426   59.7209 H   0  0  0  0  0  0  0  0  0  0  0  0
  135.0944  123.5591   58.6422 H   0  0  0  0  0  0  0  0  0  0  0  0
  134.0458  125.0175   58.6422 H   0  0  0  0  0  0  0  0  0  0  0  0
  133.5723  121.8266   59.3845 H   0  0  0  0  0  0  0  0  0  0  0  0
  133.9895  119.7229   60.5890 H   0  0  0  0  0  0  0  0  0  0  0  0
  133.1782  117.3799   60.3516 H   0  0  0  0  0  0  0  0  0  0  0  0
  130.7830  116.8484   60.7772 H   0  0  0  0  0  0  0  0  0  0  0  0
  129.1944  118.6452   61.4468 H   0  0  0  0  0  0  0  0  0  0  0  0
  130.0041  120.9881   61.6941 H   0  0  0  0  0  0  0  0  0  0  0  0
  127.4672  123.0755   61.7369 H   0  0  0  0  0  0  0  0  0  0  0  0
  126.5274  122.1949   59.6111 H   0  0  0  0  0  0  0  0  0  0  0  0
  1  2  1  0
  2  3  1  0
  3  4  2  0
  3  5  1  0
  5  6  2  0
  6  7  1  0
  7  8  2  0
  8  9  1  0
  9 10  1  0
 10 11  2  0
 10 12  1  0
 12 13  1  0
 13 14  1  0
 14 15  2  0
 15 16  1  0
 16 17  1  0
 16 18  2  0
 18 19  1  0
 19 20  1  0
 20 21  2  0
 21 22  1  0
 22 23  2  0
 23 24  1  0
 24 25  2  0
 19 26  2  0
 26 27  1  0
 27 28  3  0
  8 29  1  0
 29 30  2  0
 30  5  1  0
 26 14  1  0
 25 20  1  0
  1 31  1  0
  1 32  1  0
  1 33  1  0
  6 34  1  0
  7 35  1  0
  9 36  1  0
 12 37  1  0
 12 38  1  0
 17 39  1  0
 17 40  1  0
 17 41  1  0
 18 42  1  0
 21 43  1  0
 22 44  1  0
 23 45  1  0
 24 46  1  0
 25 47  1  0
 29 48  1  0
 30 49  1  0
M  END
>  <Binding energies>  (1) 
[-8.57]

>  <Ligand effiencies>  (1) 
[-0.27645161290322584]

>  <Interactions>  (1) 
["V-A:LEU:475:CD2:4256, H-A:TYR:484:OH:4345, V-B:TYR:539:CD1:9845, V-B:TYR:539:C:9839, V-B:PRO:540:C:9853, V-B:TYR:539:CE1:9847, V-B:PRO:540:CB:9857, V-B:PRO:540:CA:9855, V-B:ALA:541:CB:9864, V-A:ASP:366:CG:3210, H-B:GLU:543:OE1:9881, V-B:PRO:540:N:9856, H-A:ARG:545:NH2:4926, V-A:ILE:369:CD1:3236, V-B:TYR:539:CG:9844, H-B:TYR:539:N:9842, V-B:PRO:540:CD:9859, V-B:TYR:539:CZ:9849, V-B:TYR:539:CA:9841, V-A:ILE:369:CG2:3234, V-A:ILE:369:CB:3233, V-A:LEU:373:CD1:3277, V-A:PRO:482:CG:4324, V-A:SER:385:CA:3404, V-A:SER:385:CB:3406, V-A:PRO:482:CB:4323, V-A:ASP:366:C:3205, V-A:ASP:366:CB:3209, V-A:ASP:366:CA:3207, V-B:LEU:363:CD1:8160, V-A:ILE:369:CG1:3235"]

$$$$
3ce_Grossjean_2025
     RDKit          3D

 45 47  0  0  0  0  0  0  0  0999 V2000
  134.3250  125.3590   66.5530 C   0  0  0  0  0  0  0  0  0  0  0  0
  133.1610  125.3800   65.5810 C   0  0  0  0  0  0  0  0  0  0  0  0
  131.8700  125.7210   65.9940 C   0  0  0  0  0  0  0  0  0  0  0  0
  130.8500  125.7290   65.0440 C   0  0  0  0  0  0  0  0  0  0  0  0
  131.1390  125.3990   63.7180 C   0  0  0  0  0  0  0  0  0  0  0  0
  132.4510  125.0570   63.3730 C   0  0  0  0  0  0  0  0  0  0  0  0
  132.6870  124.7530   62.0220 N   0  0  0  0  0  0  0  0  0  0  0  0
  133.8010  124.2270   61.4660 C   0  0  0  0  0  0  0  0  0  0  0  0
  134.8200  123.9150   62.0850 O   0  0  0  0  0  0  0  0  0  0  0  0
  133.7480  124.0110   59.9540 C   0  0  0  0  0  0  0  0  0  0  0  0
  132.4340  124.9930   59.1730 S   0  0  0  0  0  0  0  0  0  0  0  0
  130.9510  124.0260   59.3280 C   0  0  0  0  0  0  0  0  0  0  0  0
  130.9310  123.2190   60.4170 N   0  0  0  0  0  0  0  0  0  0  0  0
  129.8360  122.4530   60.6340 C   0  0  0  0  0  0  0  0  0  0  0  0
  129.8750  121.5850   61.8770 C   0  0  0  0  0  0  0  0  0  0  0  0
  128.7390  122.4530   59.7770 C   0  0  0  0  0  0  0  0  0  0  0  0
  128.7520  123.2600   58.6320 C   0  0  0  0  0  0  0  0  0  0  0  0
  127.5640  123.2060   57.7290 C   0  0  0  0  0  0  0  0  0  0  0  0
  127.7190  122.8550   56.3830 C   0  0  0  0  0  0  0  0  0  0  0  0
  126.6160  122.8090   55.5340 C   0  0  0  0  0  0  0  0  0  0  0  0
  125.3520  123.1210   56.0270 C   0  0  0  0  0  0  0  0  0  0  0  0
  125.1820  123.4820   57.3610 C   0  0  0  0  0  0  0  0  0  0  0  0
  126.2860  123.5270   58.2080 C   0  0  0  0  0  0  0  0  0  0  0  0
  129.8870  124.0770   58.3960 C   0  0  0  0  0  0  0  0  0  0  0  0
  129.9510  124.9550   57.2230 C   0  0  0  0  0  0  0  0  0  0  0  0
  130.0000  125.6470   56.2970 N   0  0  0  0  0  0  0  0  0  0  0  0
  133.4570  125.0540   64.2970 N   0  0  0  0  0  0  0  0  0  0  0  0
  133.9418  125.3659   67.5841 H   0  0  0  0  0  0  0  0  0  0  0  0
  134.9225  124.4499   66.3900 H   0  0  0  0  0  0  0  0  0  0  0  0
  134.9549  126.2459   66.3900 H   0  0  0  0  0  0  0  0  0  0  0  0
  131.6638  125.9770   67.0437 H   0  0  0  0  0  0  0  0  0  0  0  0
  129.8233  125.9937   65.3370 H   0  0  0  0  0  0  0  0  0  0  0  0
  130.3461  125.4079   62.9556 H   0  0  0  0  0  0  0  0  0  0  0  0
  131.8880  124.8650   61.4150 H   0  0  0  0  0  0  0  0  0  0  0  0
  134.7155  124.3025   59.5193 H   0  0  0  0  0  0  0  0  0  0  0  0
  133.5336  122.9480   59.7695 H   0  0  0  0  0  0  0  0  0  0  0  0
  129.8463  122.2243   62.7717 H   0  0  0  0  0  0  0  0  0  0  0  0
  129.0063  120.9102   61.8804 H   0  0  0  0  0  0  0  0  0  0  0  0
  130.8007  120.9909   61.8804 H   0  0  0  0  0  0  0  0  0  0  0  0
  127.8656  121.8219   59.9980 H   0  0  0  0  0  0  0  0  0  0  0  0
  128.7189  122.6138   55.9931 H   0  0  0  0  0  0  0  0  0  0  0  0
  126.7430  122.5273   54.4783 H   0  0  0  0  0  0  0  0  0  0  0  0
  124.4804  123.0820   55.3571 H   0  0  0  0  0  0  0  0  0  0  0  0
  124.1810  123.7303   57.7435 H   0  0  0  0  0  0  0  0  0  0  0  0
  126.1546  123.8166   59.2610 H   0  0  0  0  0  0  0  0  0  0  0  0
  1  2  1  0
  2  3  2  0
  3  4  1  0
  4  5  2  0
  5  6  1  0
  6  7  1  0
  7  8  1  0
  8  9  2  0
  8 10  1  0
 10 11  1  0
 11 12  1  0
 12 13  2  0
 13 14  1  0
 14 15  1  0
 14 16  2  0
 16 17  1  0
 17 18  1  0
 18 19  2  0
 19 20  1  0
 20 21  2  0
 21 22  1  0
 22 23  2  0
 17 24  2  0
 24 25  1  0
 25 26  3  0
  6 27  2  0
 27  2  1  0
 24 12  1  0
 23 18  1  0
  1 28  1  0
  1 29  1  0
  1 30  1  0
  3 31  1  0
  4 32  1  0
  5 33  1  0
  7 34  1  0
 10 35  1  0
 10 36  1  0
 15 37  1  0
 15 38  1  0
 15 39  1  0
 16 40  1  0
 19 41  1  0
 20 42  1  0
 21 43  1  0
 22 44  1  0
 23 45  1  0
M  END
>  <Binding energies>  (1) 
[-8.73]

>  <Ligand effiencies>  (1) 
[-0.3117857142857143]

>  <Interactions>  (1) 
["V-A:HIS:456:CE1:4066, H-A:TYR:484:OH:4345, V-A:GLY:454:CA:4046, V-B:TYR:539:CD1:9845, V-B:TYR:539:C:9839, V-B:TYR:539:CE1:9847, V-B:GLU:543:CD:9880, V-B:PRO:540:CB:9857, V-A:ARG:545:CZ:4924, V-B:PRO:540:CA:9855, V-B:ALA:541:CB:9864, H-A:ASP:366:OD1:3211, V-A:ASP:366:CG:3210, V-B:PRO:540:N:9856, V-A:ARG:545:CD:4921, H-A:ARG:545:NH2:4926, V-A:ILE:369:CD1:3236, V-A:ARG:545:CG:4920, H-A:ARG:545:NE:4922, V-A:GLY:453:C:4039, V-B:ILE:538:CB:9834, V-B:TYR:539:CZ:9849, V-B:ILE:538:CG2:9835, V-B:ILE:538:CA:9832, V-B:MET:535:CE:9807, V-A:ILE:369:CG2:3234, V-A:ILE:369:CB:3233, V-B:TYR:531:CE2:9765, V-B:ILE:538:C:9830, V-B:LEU:363:CD1:8160, H-A:GLY:454:N:4047, V-A:ARG:545:CB:4919"]

$$$$
3ch_Grossjean_2025
     RDKit          3D

 55 57  0  0  0  0  0  0  0  0999 V2000
  128.6810  123.0250   56.0800 C   0  0  0  0  0  0  0  0  0  0  0  0
  128.6840  122.2910   57.3000 O   0  0  0  0  0  0  0  0  0  0  0  0
  128.1470  122.8610   58.4400 C   0  0  0  0  0  0  0  0  0  0  0  0
  128.9140  123.3410   59.5140 C   0  0  0  0  0  0  0  0  0  0  0  0
  128.2990  123.9160   60.6360 C   0  0  0  0  0  0  0  0  0  0  0  0
  128.9820  124.4290   61.7550 N   0  0  0  0  0  0  0  0  0  0  0  0
  129.8180  125.4860   61.8460 C   0  0  0  0  0  0  0  0  0  0  0  0
  130.1320  126.2300   60.9170 O   0  0  0  0  0  0  0  0  0  0  0  0
  130.3650  125.7750   63.2430 C   0  0  0  0  0  0  0  0  0  0  0  0
  132.1440  125.4250   63.3690 S   0  0  0  0  0  0  0  0  0  0  0  0
  132.4970  124.2050   62.1230 C   0  0  0  0  0  0  0  0  0  0  0  0
  133.2330  124.6750   61.0860 N   0  0  0  0  0  0  0  0  0  0  0  0
  133.5490  123.8270   60.0810 C   0  0  0  0  0  0  0  0  0  0  0  0
  134.3700  124.4190   58.9510 C   0  0  0  0  0  0  0  0  0  0  0  0
  133.1470  122.4940   60.0680 C   0  0  0  0  0  0  0  0  0  0  0  0
  132.3910  121.9870   61.1350 C   0  0  0  0  0  0  0  0  0  0  0  0
  131.9730  120.5530   61.0740 C   0  0  0  0  0  0  0  0  0  0  0  0
  130.6510  120.1930   61.3610 C   0  0  0  0  0  0  0  0  0  0  0  0
  130.2560  118.8590   61.3140 C   0  0  0  0  0  0  0  0  0  0  0  0
  131.1860  117.8760   60.9830 C   0  0  0  0  0  0  0  0  0  0  0  0
  132.5060  118.2170   60.7020 C   0  0  0  0  0  0  0  0  0  0  0  0
  132.8970  119.5530   60.7510 C   0  0  0  0  0  0  0  0  0  0  0  0
  132.0680  122.8590   62.2060 C   0  0  0  0  0  0  0  0  0  0  0  0
  131.3620  122.3600   63.3900 C   0  0  0  0  0  0  0  0  0  0  0  0
  130.8030  121.9660   64.3240 N   0  0  0  0  0  0  0  0  0  0  0  0
  126.9060  123.9890   60.6850 C   0  0  0  0  0  0  0  0  0  0  0  0
  126.1180  123.5130   59.6250 C   0  0  0  0  0  0  0  0  0  0  0  0
  124.7340  123.5630   59.6080 O   0  0  0  0  0  0  0  0  0  0  0  0
  124.0180  123.5490   60.8380 C   0  0  0  0  0  0  0  0  0  0  0  0
  126.7510  122.9500   58.5100 C   0  0  0  0  0  0  0  0  0  0  0  0
  125.9910  122.4960   57.4570 O   0  0  0  0  0  0  0  0  0  0  0  0
  125.3220  123.5250   56.7410 C   0  0  0  0  0  0  0  0  0  0  0  0
  128.6766  124.1027   56.3005 H   0  0  0  0  0  0  0  0  0  0  0  0
  129.5802  122.7734   55.4985 H   0  0  0  0  0  0  0  0  0  0  0  0
  127.7839  122.7660   55.4985 H   0  0  0  0  0  0  0  0  0  0  0  0
  130.0107  123.2651   59.4749 H   0  0  0  0  0  0  0  0  0  0  0  0
  128.7760  123.9490   62.6200 H   0  0  0  0  0  0  0  0  0  0  0  0
  130.1952  126.8362   63.4775 H   0  0  0  0  0  0  0  0  0  0  0  0
  129.8405  125.1193   63.9536 H   0  0  0  0  0  0  0  0  0  0  0  0
  135.1950  125.0139   59.3698 H   0  0  0  0  0  0  0  0  0  0  0  0
  134.7804  123.6077   58.3319 H   0  0  0  0  0  0  0  0  0  0  0  0
  133.7298  125.0647   58.3319 H   0  0  0  0  0  0  0  0  0  0  0  0
  133.4209  121.8420   59.2254 H   0  0  0  0  0  0  0  0  0  0  0  0
  129.9188  120.9701   61.6256 H   0  0  0  0  0  0  0  0  0  0  0  0
  129.2150  118.5825   61.5371 H   0  0  0  0  0  0  0  0  0  0  0  0
  130.8747  116.8217   60.9434 H   0  0  0  0  0  0  0  0  0  0  0  0
  133.2360  117.4360   60.4428 H   0  0  0  0  0  0  0  0  0  0  0  0
  133.9407  119.8242   60.5340 H   0  0  0  0  0  0  0  0  0  0  0  0
  126.4177  124.4265   61.5683 H   0  0  0  0  0  0  0  0  0  0  0  0
  124.7296  123.5629   61.6767 H   0  0  0  0  0  0  0  0  0  0  0  0
  123.3679  124.4346   60.8940 H   0  0  0  0  0  0  0  0  0  0  0  0
  123.4031  122.6387   60.8940 H   0  0  0  0  0  0  0  0  0  0  0  0
  124.8645  124.2287   57.4520 H   0  0  0  0  0  0  0  0  0  0  0  0
  126.0448  124.0610   56.1083 H   0  0  0  0  0  0  0  0  0  0  0  0
  124.5388  123.0819   56.1083 H   0  0  0  0  0  0  0  0  0  0  0  0
  1  2  1  0
  2  3  1  0
  3  4  2  0
  4  5  1  0
  5  6  1  0
  6  7  1  0
  7  8  2  0
  7  9  1  0
  9 10  1  0
 10 11  1  0
 11 12  2  0
 12 13  1  0
 13 14  1  0
 13 15  2  0
 15 16  1  0
 16 17  1  0
 17 18  2  0
 18 19  1  0
 19 20  2  0
 20 21  1  0
 21 22  2  0
 16 23  2  0
 23 24  1  0
 24 25  3  0
  5 26  2  0
 26 27  1  0
 27 28  1  0
 28 29  1  0
 27 30  2  0
 30 31  1  0
 31 32  1  0
 30  3  1  0
 23 11  1  0
 22 17  1  0
  1 33  1  0
  1 34  1  0
  1 35  1  0
  4 36  1  0
  6 37  1  0
  9 38  1  0
  9 39  1  0
 14 40  1  0
 14 41  1  0
 14 42  1  0
 15 43  1  0
 18 44  1  0
 19 45  1  0
 20 46  1  0
 21 47  1  0
 22 48  1  0
 26 49  1  0
 29 50  1  0
 29 51  1  0
 29 52  1  0
 32 53  1  0
 32 54  1  0
 32 55  1  0
M  END
>  <Binding energies>  (1) 
[-8.02]

>  <Ligand effiencies>  (1) 
[-0.243030303030303]

>  <Interactions>  (1) 
["V-A:LEU:475:CD2:4256, H-A:TYR:484:OH:4345, V-B:TYR:539:CD1:9845, V-B:TYR:539:C:9839, V-B:ASP:366:CG:8184, V-B:TYR:539:CE1:9847, V-B:GLU:543:CD:9880, V-B:PRO:540:CB:9857, V-B:PRO:540:CA:9855, V-B:ALA:541:CB:9864, V-B:ASN:362:CB:8147, V-A:ASP:366:CG:3210, H-B:GLU:543:OE1:9881, V-B:PRO:540:N:9856, H-A:ARG:545:NH2:4926, V-A:ILE:369:CD1:3236, V-B:TYR:539:CE2:9848, V-B:TYR:539:CG:9844, H-B:TYR:539:N:9842, V-B:TYR:539:CD2:9846, V-B:TYR:539:CZ:9849, V-B:MET:535:CE:9807, V-A:ILE:369:CG2:3234, V-A:ILE:369:CB:3233, V-A:LEU:373:CD1:3277, V-A:PRO:482:CG:4324, V-A:SER:385:CA:3404, V-A:SER:385:CB:3406, V-A:PRO:482:CB:4323, V-A:ASP:366:C:3205, V-A:ASP:366:CB:3209, V-A:ASP:366:CA:3207, V-B:TYR:531:CE2:9765, V-B:ASN:362:C:8143, V-B:LEU:363:CA:8156"]

$$$$
3ci_Grossjean_2025
     RDKit          3D

 39 41  0  0  0  0  0  0  0  0999 V2000
  130.1140  121.9630   61.6990 C   0  0  0  0  0  0  0  0  0  0  0  0
  130.0560  122.7410   60.3980 C   0  0  0  0  0  0  0  0  0  0  0  0
  128.9150  122.7490   59.6020 C   0  0  0  0  0  0  0  0  0  0  0  0
  128.9030  123.4970   58.4160 C   0  0  0  0  0  0  0  0  0  0  0  0
  127.6510  123.4890   57.6010 C   0  0  0  0  0  0  0  0  0  0  0  0
  127.6780  123.1160   56.2500 C   0  0  0  0  0  0  0  0  0  0  0  0
  126.5090  123.1180   55.4930 C   0  0  0  0  0  0  0  0  0  0  0  0
  125.3080  123.5000   56.0820 C   0  0  0  0  0  0  0  0  0  0  0  0
  125.2660  123.8820   57.4210 C   0  0  0  0  0  0  0  0  0  0  0  0
  126.4350  123.8780   58.1750 C   0  0  0  0  0  0  0  0  0  0  0  0
  130.0730  124.2170   58.0610 C   0  0  0  0  0  0  0  0  0  0  0  0
  130.1340  124.9820   56.8110 C   0  0  0  0  0  0  0  0  0  0  0  0
  130.1810  125.5860   55.8250 N   0  0  0  0  0  0  0  0  0  0  0  0
  131.1880  124.1580   58.9320 C   0  0  0  0  0  0  0  0  0  0  0  0
  132.7050  125.0430   58.5940 S   0  0  0  0  0  0  0  0  0  0  0  0
  134.0910  124.2220   59.4480 C   0  0  0  0  0  0  0  0  0  0  0  0
  133.8090  123.9360   60.9280 C   0  0  0  0  0  0  0  0  0  0  0  0
  133.9470  122.7880   61.3560 O   0  0  0  0  0  0  0  0  0  0  0  0
  133.4060  124.9950   61.6640 N   0  0  0  0  0  0  0  0  0  0  0  0
  133.1160  125.0140   63.0210 C   0  0  0  0  0  0  0  0  0  0  0  0
  131.8150  124.9800   63.5210 C   0  0  0  0  0  0  0  0  0  0  0  0
  131.9560  125.0170   64.8900 C   0  0  0  0  0  0  0  0  0  0  0  0
  133.2750  125.0710   65.1970 O   0  0  0  0  0  0  0  0  0  0  0  0
  134.0000  125.0700   64.0040 N   0  0  0  0  0  0  0  0  0  0  0  0
  131.1750  123.4250   60.0740 N   0  0  0  0  0  0  0  0  0  0  0  0
  130.0619  122.6619   62.5468 H   0  0  0  0  0  0  0  0  0  0  0  0
  129.2654  121.2647   61.7468 H   0  0  0  0  0  0  0  0  0  0  0  0
  131.0567  121.3982   61.7468 H   0  0  0  0  0  0  0  0  0  0  0  0
  128.0276  122.1720   59.9012 H   0  0  0  0  0  0  0  0  0  0  0  0
  128.6295  122.8196   55.7844 H   0  0  0  0  0  0  0  0  0  0  0  0
  126.5352  122.8190   54.4347 H   0  0  0  0  0  0  0  0  0  0  0  0
  124.3838  123.5004   55.4855 H   0  0  0  0  0  0  0  0  0  0  0  0
  124.3133  124.1852   57.8797 H   0  0  0  0  0  0  0  0  0  0  0  0
  126.4036  124.1831   59.2314 H   0  0  0  0  0  0  0  0  0  0  0  0
  134.2970  123.2676   58.9413 H   0  0  0  0  0  0  0  0  0  0  0  0
  134.9503  124.9075   59.4071 H   0  0  0  0  0  0  0  0  0  0  0  0
  133.3270  125.8830   61.1910 H   0  0  0  0  0  0  0  0  0  0  0  0
  130.8784  124.9336   62.9460 H   0  0  0  0  0  0  0  0  0  0  0  0
  131.1310  125.0047   65.6175 H   0  0  0  0  0  0  0  0  0  0  0  0
  1  2  1  0
  2  3  2  0
  3  4  1  0
  4  5  1  0
  5  6  2  0
  6  7  1  0
  7  8  2  0
  8  9  1  0
  9 10  2  0
  4 11  2  0
 11 12  1  0
 12 13  3  0
 11 14  1  0
 14 15  1  0
 15 16  1  0
 16 17  1  0
 17 18  2  0
 17 19  1  0
 19 20  1  0
 20 21  1  0
 21 22  2  0
 22 23  1  0
 23 24  1  0
 14 25  2  0
 25  2  1  0
 10  5  1  0
 24 20  2  0
  1 26  1  0
  1 27  1  0
  1 28  1  0
  3 29  1  0
  6 30  1  0
  7 31  1  0
  8 32  1  0
  9 33  1  0
 10 34  1  0
 16 35  1  0
 16 36  1  0
 19 37  1  0
 21 38  1  0
 22 39  1  0
M  END
>  <Binding energies>  (1) 
[-8.78]

>  <Ligand effiencies>  (1) 
[-0.3376923076923077]

>  <Interactions>  (1) 
["H-A:TYR:484:OH:4345, V-B:TYR:539:CD1:9845, V-B:TYR:539:C:9839, V-B:TYR:539:CE1:9847, V-A:ARG:545:CZ:4924, V-B:ALA:541:CB:9864, H-A:ASP:366:OD2:3212, H-A:ASP:366:OD1:3211, V-A:ASP:366:CG:3210, H-A:ARG:545:NH2:4926, V-A:ILE:369:CD1:3236, H-A:ARG:545:NE:4922, V-B:ILE:538:CB:9834, V-B:TYR:539:CZ:9849, V-B:ILE:538:CG2:9835, V-B:ILE:538:CA:9832, V-B:MET:535:CE:9807, V-A:ILE:369:CG2:3234, V-A:ILE:369:CB:3233, V-B:TYR:531:CZ:9766, V-A:ASP:366:CB:3209, V-A:ASP:366:CA:3207, V-B:TYR:531:CE2:9765, H-B:TYR:539:OH:9850, V-B:LEU:363:CD1:8160, H-A:GLY:454:N:4047, H-A:ARG:545:NH1:4925"]

$$$$
3cj_Grossjean_2025
     RDKit          3D

 39 41  0  0  0  0  0  0  0  0999 V2000
  131.8470  125.3340   56.9620 C   0  0  0  0  0  0  0  0  0  0  0  0
  130.7820  124.7700   57.8820 C   0  0  0  0  0  0  0  0  0  0  0  0
  129.4810  124.5460   57.4380 C   0  0  0  0  0  0  0  0  0  0  0  0
  128.5340  124.0010   58.3160 C   0  0  0  0  0  0  0  0  0  0  0  0
  127.1710  123.7170   57.7800 C   0  0  0  0  0  0  0  0  0  0  0  0
  126.9870  122.7610   56.7740 C   0  0  0  0  0  0  0  0  0  0  0  0
  125.7160  122.5070   56.2650 C   0  0  0  0  0  0  0  0  0  0  0  0
  124.6230  123.2140   56.7580 C   0  0  0  0  0  0  0  0  0  0  0  0
  124.7910  124.1750   57.7510 C   0  0  0  0  0  0  0  0  0  0  0  0
  126.0630  124.4280   58.2590 C   0  0  0  0  0  0  0  0  0  0  0  0
  128.9300  123.7250   59.6480 C   0  0  0  0  0  0  0  0  0  0  0  0
  127.9780  123.1820   60.6220 C   0  0  0  0  0  0  0  0  0  0  0  0
  127.2260  122.7510   61.3900 N   0  0  0  0  0  0  0  0  0  0  0  0
  130.2720  123.9800   60.0110 C   0  0  0  0  0  0  0  0  0  0  0  0
  130.9340  123.5550   61.6080 S   0  0  0  0  0  0  0  0  0  0  0  0
  130.2730  121.8950   61.9610 C   0  0  0  0  0  0  0  0  0  0  0  0
  131.1670  120.7910   61.3890 C   0  0  0  0  0  0  0  0  0  0  0  0
  132.3870  120.9620   61.3410 O   0  0  0  0  0  0  0  0  0  0  0  0
  130.5250  119.6670   61.0040 N   0  0  0  0  0  0  0  0  0  0  0  0
  131.1090  118.4830   60.5840 C   0  0  0  0  0  0  0  0  0  0  0  0
  130.5180  117.4350   60.0520 N   0  0  0  0  0  0  0  0  0  0  0  0
  131.3890  116.4950   59.7420 C   0  0  0  0  0  0  0  0  0  0  0  0
  132.7230  116.7730   60.0240 C   0  0  0  0  0  0  0  0  0  0  0  0
  132.8320  118.3560   60.7360 S   0  0  0  0  0  0  0  0  0  0  0  0
  131.1830  124.4830   59.1400 N   0  0  0  0  0  0  0  0  0  0  0  0
  132.6607  125.7649   57.5638 H   0  0  0  0  0  0  0  0  0  0  0  0
  132.2468  124.5294   56.3273 H   0  0  0  0  0  0  0  0  0  0  0  0
  131.4062  126.1169   56.3273 H   0  0  0  0  0  0  0  0  0  0  0  0
  129.1984  124.7953   56.4046 H   0  0  0  0  0  0  0  0  0  0  0  0
  127.8527  122.2065   56.3828 H   0  0  0  0  0  0  0  0  0  0  0  0
  125.5765  121.7517   55.4776 H   0  0  0  0  0  0  0  0  0  0  0  0
  123.6179  123.0116   56.3595 H   0  0  0  0  0  0  0  0  0  0  0  0
  123.9229  124.7322   58.1329 H   0  0  0  0  0  0  0  0  0  0  0  0
  126.1983  125.1902   59.0405 H   0  0  0  0  0  0  0  0  0  0  0  0
  130.2009  121.7653   63.0509 H   0  0  0  0  0  0  0  0  0  0  0  0
  129.2843  121.8135   61.4858 H   0  0  0  0  0  0  0  0  0  0  0  0
  129.5210  119.6470   61.1120 H   0  0  0  0  0  0  0  0  0  0  0  0
  131.0783  115.5436   59.2857 H   0  0  0  0  0  0  0  0  0  0  0  0
  133.5712  116.1005   59.8283 H   0  0  0  0  0  0  0  0  0  0  0  0
  1  2  1  0
  2  3  2  0
  3  4  1  0
  4  5  1  0
  5  6  2  0
  6  7  1  0
  7  8  2  0
  8  9  1  0
  9 10  2  0
  4 11  2  0
 11 12  1  0
 12 13  3  0
 11 14  1  0
 14 15  1  0
 15 16  1  0
 16 17  1  0
 17 18  2  0
 17 19  1  0
 19 20  1  0
 20 21  2  0
 21 22  1  0
 22 23  2  0
 23 24  1  0
 14 25  2  0
 25  2  1  0
 10  5  1  0
 24 20  1  0
  1 26  1  0
  1 27  1  0
  1 28  1  0
  3 29  1  0
  6 30  1  0
  7 31  1  0
  8 32  1  0
  9 33  1  0
 10 34  1  0
 16 35  1  0
 16 36  1  0
 19 37  1  0
 22 38  1  0
 23 39  1  0
M  END
>  <Binding energies>  (1) 
[-8.54]

>  <Ligand effiencies>  (1) 
[-0.3284615384615384]

>  <Interactions>  (1) 
["V-A:LEU:475:CD2:4256, V-B:TYR:539:CD1:9845, V-B:TYR:539:C:9839, H-B:TYR:539:O:9840, V-B:TYR:539:CE1:9847, V-B:PRO:540:CA:9855, V-B:ALA:541:CB:9864, V-B:PRO:540:N:9856, V-B:TYR:539:CG:9844, V-B:ILE:538:CB:9834, V-B:PRO:540:CD:9859, V-B:TYR:539:CZ:9849, V-B:ILE:538:CG2:9835, V-B:ILE:538:CA:9832, V-A:LEU:373:CD1:3277, V-A:PRO:482:CG:4324, V-A:SER:385:CA:3404, V-A:SER:385:CB:3406, H-B:ALA:541:N:9863, V-B:TYR:531:CE2:9765, V-B:LEU:363:CD1:8160, V-B:TYR:539:CB:9843, V-B:VAL:344:CG1:7972"]

$$$$
3ck_Grossjean_2025
     RDKit          3D

 57 58  0  0  0  0  0  0  0  0999 V2000
  129.8500  126.5910   56.5610 C   0  0  0  0  0  0  0  0  0  0  0  0
  130.8900  126.4520   55.6060 O   0  0  0  0  0  0  0  0  0  0  0  0
  131.7770  125.3790   55.8880 C   0  0  0  0  0  0  0  0  0  0  0  0
  132.1490  125.3980   57.3760 C   0  0  0  0  0  0  0  0  0  0  0  0
  133.5340  125.1090   57.5190 O   0  0  0  0  0  0  0  0  0  0  0  0
  133.8350  124.2460   58.6080 C   0  0  0  0  0  0  0  0  0  0  0  0
  132.6160  124.1700   59.5370 C   0  0  0  0  0  0  0  0  0  0  0  0
  132.7090  122.9750   60.2980 O   0  0  0  0  0  0  0  0  0  0  0  0
  133.9450  122.7900   60.9700 C   0  0  0  0  0  0  0  0  0  0  0  0
  134.0170  123.7330   62.1860 C   0  0  0  0  0  0  0  0  0  0  0  0
  132.7070  124.2040   62.6450 N   0  0  0  0  0  0  0  0  0  0  0  0
  132.4640  124.8360   63.8080 C   0  0  0  0  0  0  0  0  0  0  0  0
  133.3460  125.1170   64.6210 O   0  0  0  0  0  0  0  0  0  0  0  0
  130.9930  125.2010   64.0680 C   0  0  0  0  0  0  0  0  0  0  0  0
  130.0490  125.7390   62.6000 S   0  0  0  0  0  0  0  0  0  0  0  0
  129.6410  124.3090   61.6100 C   0  0  0  0  0  0  0  0  0  0  0  0
  130.1770  123.1350   62.0280 N   0  0  0  0  0  0  0  0  0  0  0  0
  129.9140  122.0120   61.3230 C   0  0  0  0  0  0  0  0  0  0  0  0
  130.5490  120.7400   61.8490 C   0  0  0  0  0  0  0  0  0  0  0  0
  129.1140  122.0120   60.1830 C   0  0  0  0  0  0  0  0  0  0  0  0
  128.5550  123.2140   59.7300 C   0  0  0  0  0  0  0  0  0  0  0  0
  127.7230  123.1710   58.4900 C   0  0  0  0  0  0  0  0  0  0  0  0
  128.3250  122.9450   57.2460 C   0  0  0  0  0  0  0  0  0  0  0  0
  127.5570  122.9130   56.0840 C   0  0  0  0  0  0  0  0  0  0  0  0
  126.1820  123.1130   56.1630 C   0  0  0  0  0  0  0  0  0  0  0  0
  125.5690  123.3470   57.3910 C   0  0  0  0  0  0  0  0  0  0  0  0
  126.3390  123.3780   58.5500 C   0  0  0  0  0  0  0  0  0  0  0  0
  128.8130  124.3980   60.4670 C   0  0  0  0  0  0  0  0  0  0  0  0
  128.2200  125.6780   60.0630 C   0  0  0  0  0  0  0  0  0  0  0  0
  127.7520  126.6880   59.7440 N   0  0  0  0  0  0  0  0  0  0  0  0
  130.2732  126.5344   57.5748 H   0  0  0  0  0  0  0  0  0  0  0  0
  129.3542  127.5634   56.4243 H   0  0  0  0  0  0  0  0  0  0  0  0
  129.1163  125.7829   56.4243 H   0  0  0  0  0  0  0  0  0  0  0  0
  131.2865  124.4248   55.6452 H   0  0  0  0  0  0  0  0  0  0  0  0
  132.6882  125.4887   55.2817 H   0  0  0  0  0  0  0  0  0  0  0  0
  131.9362  126.3925   57.7951 H   0  0  0  0  0  0  0  0  0  0  0  0
  131.5579  124.6414   57.9128 H   0  0  0  0  0  0  0  0  0  0  0  0
  134.0721  123.2414   58.2278 H   0  0  0  0  0  0  0  0  0  0  0  0
  134.7012  124.6359   59.1627 H   0  0  0  0  0  0  0  0  0  0  0  0
  132.6067  125.0399   60.2102 H   0  0  0  0  0  0  0  0  0  0  0  0
  131.6884  124.1715   58.9458 H   0  0  0  0  0  0  0  0  0  0  0  0
  134.0244  121.7469   61.3102 H   0  0  0  0  0  0  0  0  0  0  0  0
  134.7729  123.0164   60.2820 H   0  0  0  0  0  0  0  0  0  0  0  0
  134.5024  123.1955   63.0140 H   0  0  0  0  0  0  0  0  0  0  0  0
  134.5854  124.6206   61.8712 H   0  0  0  0  0  0  0  0  0  0  0  0
  131.9300  124.0250   62.0260 H   0  0  0  0  0  0  0  0  0  0  0  0
  130.4927  124.3159   64.4877 H   0  0  0  0  0  0  0  0  0  0  0  0
  131.0105  126.0636   64.7504 H   0  0  0  0  0  0  0  0  0  0  0  0
  130.5419  120.7543   62.9489 H   0  0  0  0  0  0  0  0  0  0  0  0
  129.9794  119.8702   61.4899 H   0  0  0  0  0  0  0  0  0  0  0  0
  131.5865  120.6725   61.4899 H   0  0  0  0  0  0  0  0  0  0  0  0
  128.9222  121.0739   59.6416 H   0  0  0  0  0  0  0  0  0  0  0  0
  129.4126  122.7916   57.1858 H   0  0  0  0  0  0  0  0  0  0  0  0
  128.0346  122.7308   55.1100 H   0  0  0  0  0  0  0  0  0  0  0  0
  125.5739  123.0860   55.2468 H   0  0  0  0  0  0  0  0  0  0  0  0
  124.4820  123.5065   57.4449 H   0  0  0  0  0  0  0  0  0  0  0  0
  125.8569  123.5665   59.5206 H   0  0  0  0  0  0  0  0  0  0  0  0
  1  2  1  0
  2  3  1  0
  3  4  1  0
  4  5  1  0
  5  6  1  0
  6  7  1  0
  7  8  1  0
  8  9  1  0
  9 10  1  0
 10 11  1  0
 11 12  1  0
 12 13  2  0
 12 14  1  0
 14 15  1  0
 15 16  1  0
 16 17  2  0
 17 18  1  0
 18 19  1  0
 18 20  2  0
 20 21  1  0
 21 22  1  0
 22 23  2  0
 23 24  1  0
 24 25  2  0
 25 26  1  0
 26 27  2  0
 21 28  2  0
 28 29  1  0
 29 30  3  0
 28 16  1  0
 27 22  1  0
  1 31  1  0
  1 32  1  0
  1 33  1  0
  3 34  1  0
  3 35  1  0
  4 36  1  0
  4 37  1  0
  6 38  1  0
  6 39  1  0
  7 40  1  0
  7 41  1  0
  9 42  1  0
  9 43  1  0
 10 44  1  0
 10 45  1  0
 11 46  1  0
 14 47  1  0
 14 48  1  0
 19 49  1  0
 19 50  1  0
 19 51  1  0
 20 52  1  0
 23 53  1  0
 24 54  1  0
 25 55  1  0
 26 56  1  0
 27 57  1  0
M  END
>  <Binding energies>  (1) 
[-6.73]

>  <Ligand effiencies>  (1) 
[-0.2170967741935484]

>  <Interactions>  (1) 
["V-A:LEU:475:CD2:4256, H-A:TYR:484:OH:4345, V-A:GLY:454:CA:4046, V-B:TYR:539:CD1:9845, V-B:TYR:539:C:9839, V-B:TYR:539:CE1:9847, V-B:GLU:543:CD:9880, V-B:PRO:540:CB:9857, V-A:ARG:545:CZ:4924, V-B:PRO:540:CA:9855, V-B:ALA:541:CB:9864, V-A:ASP:366:CG:3210, V-B:PRO:540:N:9856, V-A:ILE:369:CD1:3236, H-A:ARG:545:NE:4922, V-A:GLY:453:C:4039, V-B:TYR:539:CG:9844, V-B:ILE:538:CB:9834, V-B:TYR:539:CZ:9849, V-B:ILE:538:CG2:9835, V-A:TYR:531:CZ:4792, V-B:ILE:538:CA:9832, V-B:MET:535:CE:9807, V-A:ILE:369:CG2:3234, V-A:ILE:369:CB:3233, H-A:TYR:531:OH:4793, V-A:ASP:366:CB:3209, V-A:ASP:366:CA:3207, H-B:TYR:539:OH:9850, V-A:ASN:370:CG:3243, V-A:ASN:370:CB:3242, V-A:TYR:531:CE1:4790, H-A:GLY:454:N:4047"]

$$$$
4aa_Grossjean_2025
     RDKit          3D

 45 47  0  0  0  0  0  0  0  0999 V2000
  127.9570  127.6220   68.1160 C   0  0  0  0  0  0  0  0  0  0  0  0
  127.4230  128.6600   67.1240 C   0  0  0  0  0  0  0  0  0  0  0  0
  126.0020  128.6560   67.1560 O   0  0  0  0  0  0  0  0  0  0  0  0
  125.2800  129.4950   66.3680 C   0  0  0  0  0  0  0  0  0  0  0  0
  124.1190  129.8350   66.6200 O   0  0  0  0  0  0  0  0  0  0  0  0
  126.0320  129.9640   65.1570 C   0  0  0  0  0  0  0  0  0  0  0  0
  125.8270  129.3170   63.9310 C   0  0  0  0  0  0  0  0  0  0  0  0
  126.5120  129.7250   62.7900 C   0  0  0  0  0  0  0  0  0  0  0  0
  127.4100  130.7930   62.8490 C   0  0  0  0  0  0  0  0  0  0  0  0
  128.0540  131.1160   61.6400 N   0  0  0  0  0  0  0  0  0  0  0  0
  129.2520  131.7110   61.4200 C   0  0  0  0  0  0  0  0  0  0  0  0
  129.9920  132.1270   62.3120 O   0  0  0  0  0  0  0  0  0  0  0  0
  129.6250  131.8630   60.0120 C   0  0  0  0  0  0  0  0  0  0  0  0
  128.3920  132.2050   58.7960 S   0  0  0  0  0  0  0  0  0  0  0  0
  129.5820  132.1820   57.5150 C   0  0  0  0  0  0  0  0  0  0  0  0
  129.2510  132.3930   56.2400 N   0  0  0  0  0  0  0  0  0  0  0  0
  130.2680  132.3440   55.3460 C   0  0  0  0  0  0  0  0  0  0  0  0
  129.8700  132.5820   53.9010 C   0  0  0  0  0  0  0  0  0  0  0  0
  131.5940  132.0950   55.6930 C   0  0  0  0  0  0  0  0  0  0  0  0
  131.9380  131.8750   57.0310 C   0  0  0  0  0  0  0  0  0  0  0  0
  133.3990  131.6080   57.3610 C   0  0  0  0  0  0  0  0  0  0  0  0
  130.8980  131.9150   57.9980 C   0  0  0  0  0  0  0  0  0  0  0  0
  130.8930  131.7330   59.4260 C   0  0  0  0  0  0  0  0  0  0  0  0
  132.0380  131.4600   60.1320 N   0  0  0  0  0  0  0  0  0  0  0  0
  127.6260  131.4430   64.0720 C   0  0  0  0  0  0  0  0  0  0  0  0
  126.9420  131.0310   65.2130 C   0  0  0  0  0  0  0  0  0  0  0  0
  127.7776  127.9707   69.1437 H   0  0  0  0  0  0  0  0  0  0  0  0
  127.4398  126.6641   67.9583 H   0  0  0  0  0  0  0  0  0  0  0  0
  129.0371  127.4858   67.9583 H   0  0  0  0  0  0  0  0  0  0  0  0
  127.7936  129.6578   67.4018 H   0  0  0  0  0  0  0  0  0  0  0  0
  127.7685  128.4109   66.1098 H   0  0  0  0  0  0  0  0  0  0  0  0
  125.1178  128.4784   63.8697 H   0  0  0  0  0  0  0  0  0  0  0  0
  126.3450  129.2031   61.8362 H   0  0  0  0  0  0  0  0  0  0  0  0
  127.5260  130.8740   60.8130 H   0  0  0  0  0  0  0  0  0  0  0  0
  128.9263  133.1463   53.8688 H   0  0  0  0  0  0  0  0  0  0  0  0
  130.6585  133.1569   53.3934 H   0  0  0  0  0  0  0  0  0  0  0  0
  129.7366  131.6153   53.3934 H   0  0  0  0  0  0  0  0  0  0  0  0
  132.3709  132.0714   54.9146 H   0  0  0  0  0  0  0  0  0  0  0  0
  133.5298  131.5841   58.4529 H   0  0  0  0  0  0  0  0  0  0  0  0
  133.7003  130.6399   56.9343 H   0  0  0  0  0  0  0  0  0  0  0  0
  134.0232  132.4069   56.9343 H   0  0  0  0  0  0  0  0  0  0  0  0
  132.1340  131.7060   61.1060 H   0  0  0  0  0  0  0  0  0  0  0  0
  132.8280  131.0030   59.6970 H   0  0  0  0  0  0  0  0  0  0  0  0
  128.3372  132.2801   64.1306 H   0  0  0  0  0  0  0  0  0  0  0  0
  127.1168  131.5474   66.1684 H   0  0  0  0  0  0  0  0  0  0  0  0
  1  2  1  0
  2  3  1  0
  3  4  1  0
  4  5  2  0
  4  6  1  0
  6  7  2  0
  7  8  1  0
  8  9  2  0
  9 10  1  0
 10 11  1  0
 11 12  2  0
 11 13  1  0
 13 14  1  0
 14 15  1  0
 15 16  2  0
 16 17  1  0
 17 18  1  0
 17 19  2  0
 19 20  1  0
 20 21  1  0
 20 22  2  0
 22 23  1  0
 23 24  1  0
  9 25  1  0
 25 26  2  0
 26  6  1  0
 23 13  2  0
 22 15  1  0
  1 27  1  0
  1 28  1  0
  1 29  1  0
  2 30  1  0
  2 31  1  0
  7 32  1  0
  8 33  1  0
 10 34  1  0
 18 35  1  0
 18 36  1  0
 18 37  1  0
 19 38  1  0
 21 39  1  0
 21 40  1  0
 21 41  1  0
 24 42  1  0
 24 43  1  0
 25 44  1  0
 26 45  1  0
M  END
>  <Binding energies>  (1) 
[-6.85]

>  <Ligand effiencies>  (1) 
[-0.23620689655172414]

>  <Interactions>  (1) 
["V-B:HIS:456:CE1:9040, V-B:GLU:543:CG:9879, V-B:GLU:543:CD:9880, H-A:ASP:366:OD2:3212, V-B:ARG:545:CZ:9898, V-A:GLU:543:CD:4906, V-A:TYR:539:CE1:4873, H-B:ARG:545:NE:9896, V-A:PRO:540:CA:4881, V-B:ARG:545:CD:9895, V-A:TYR:539:CD1:4871, V-B:ARG:545:CG:9894, V-A:PRO:540:CB:4883, V-A:PRO:540:N:4882, V-A:LEU:363:CD1:3186, V-A:ILE:538:CA:4858, V-A:ILE:538:CB:4860, V-A:MET:535:CG:4831, V-A:MET:535:CE:4833, V-A:ILE:538:CG2:4861, V-A:TYR:531:CE2:4791, H-B:TYR:484:OH:9319, H-B:GLY:454:N:9021, V-B:TYR:484:CZ:9318, V-B:TYR:484:CE2:9317, V-A:TYR:539:CZ:4875, V-A:MET:535:CB:4830, V-A:VAL:537:C:4848, H-A:TYR:539:N:4868, V-A:LEU:363:CA:3182, V-A:LEU:363:CB:3184, H-A:ALA:541:N:4889, H-B:ILE:455:N:9026"]

$$$$
4ab_Grossjean_2025
     RDKit          3D

 42 44  0  0  0  0  0  0  0  0999 V2000
  132.5810  132.5850   56.5000 C   0  0  0  0  0  0  0  0  0  0  0  0
  131.4000  133.3630   56.6360 O   0  0  0  0  0  0  0  0  0  0  0  0
  130.2020  132.7760   56.8850 C   0  0  0  0  0  0  0  0  0  0  0  0
  129.1230  133.2430   56.5050 O   0  0  0  0  0  0  0  0  0  0  0  0
  130.3170  131.5040   57.6750 C   0  0  0  0  0  0  0  0  0  0  0  0
  130.1780  130.2750   57.0150 C   0  0  0  0  0  0  0  0  0  0  0  0
  130.2780  129.0780   57.7200 C   0  0  0  0  0  0  0  0  0  0  0  0
  130.5260  129.0850   59.0930 C   0  0  0  0  0  0  0  0  0  0  0  0
  130.6000  127.8190   59.7050 N   0  0  0  0  0  0  0  0  0  0  0  0
  130.6160  127.4830   61.0180 C   0  0  0  0  0  0  0  0  0  0  0  0
  130.6060  128.2980   61.9420 O   0  0  0  0  0  0  0  0  0  0  0  0
  130.6710  126.0470   61.2940 C   0  0  0  0  0  0  0  0  0  0  0  0
  130.9060  124.8950   59.9770 S   0  0  0  0  0  0  0  0  0  0  0  0
  130.8090  123.5410   61.0800 C   0  0  0  0  0  0  0  0  0  0  0  0
  130.9210  122.2800   60.6610 N   0  0  0  0  0  0  0  0  0  0  0  0
  130.8240  121.3240   61.6170 C   0  0  0  0  0  0  0  0  0  0  0  0
  130.9490  119.8960   61.1190 C   0  0  0  0  0  0  0  0  0  0  0  0
  130.6240  121.5970   62.9690 C   0  0  0  0  0  0  0  0  0  0  0  0
  130.5070  122.9220   63.4050 C   0  0  0  0  0  0  0  0  0  0  0  0
  130.2870  123.1690   64.8900 C   0  0  0  0  0  0  0  0  0  0  0  0
  130.5980  123.9530   62.4300 C   0  0  0  0  0  0  0  0  0  0  0  0
  130.5170  125.3850   62.5230 C   0  0  0  0  0  0  0  0  0  0  0  0
  130.3120  126.0310   63.7160 N   0  0  0  0  0  0  0  0  0  0  0  0
  130.6610  130.3100   59.7630 C   0  0  0  0  0  0  0  0  0  0  0  0
  130.5590  131.5060   59.0570 C   0  0  0  0  0  0  0  0  0  0  0  0
  132.9687  132.3296   57.4972 H   0  0  0  0  0  0  0  0  0  0  0  0
  132.3503  131.6615   55.9487 H   0  0  0  0  0  0  0  0  0  0  0  0
  133.3384  133.1615   55.9487 H   0  0  0  0  0  0  0  0  0  0  0  0
  129.9884  130.2559   55.9316 H   0  0  0  0  0  0  0  0  0  0  0  0
  130.1607  128.1208   57.1908 H   0  0  0  0  0  0  0  0  0  0  0  0
  130.6650  127.0500   59.0550 H   0  0  0  0  0  0  0  0  0  0  0  0
  131.0089  119.2119   61.9783 H   0  0  0  0  0  0  0  0  0  0  0  0
  130.0696  119.6422   60.5088 H   0  0  0  0  0  0  0  0  0  0  0  0
  131.8591  119.7988   60.5088 H   0  0  0  0  0  0  0  0  0  0  0  0
  130.5581  120.7716   63.6931 H   0  0  0  0  0  0  0  0  0  0  0  0
  130.9073  122.4726   65.4734 H   0  0  0  0  0  0  0  0  0  0  0  0
  130.5680  124.2039   65.1352 H   0  0  0  0  0  0  0  0  0  0  0  0
  129.2267  123.0091   65.1352 H   0  0  0  0  0  0  0  0  0  0  0  0
  129.9000  125.5640   64.5110 H   0  0  0  0  0  0  0  0  0  0  0  0
  130.5630  127.0030   63.8370 H   0  0  0  0  0  0  0  0  0  0  0  0
  130.8476  130.3259   60.8469 H   0  0  0  0  0  0  0  0  0  0  0  0
  130.6694  132.4627   59.5886 H   0  0  0  0  0  0  0  0  0  0  0  0
  1  2  1  0
  2  3  1  0
  3  4  2  0
  3  5  1  0
  5  6  2  0
  6  7  1  0
  7  8  2  0
  8  9  1  0
  9 10  1  0
 10 11  2  0
 10 12  1  0
 12 13  1  0
 13 14  1  0
 14 15  2  0
 15 16  1  0
 16 17  1  0
 16 18  2  0
 18 19  1  0
 19 20  1  0
 19 21  2  0
 21 22  1  0
 22 23  1  0
  8 24  1  0
 24 25  2  0
 25  5  1  0
 22 12  2  0
 21 14  1  0
  1 26  1  0
  1 27  1  0
  1 28  1  0
  6 29  1  0
  7 30  1  0
  9 31  1  0
 17 32  1  0
 17 33  1  0
 17 34  1  0
 18 35  1  0
 20 36  1  0
 20 37  1  0
 20 38  1  0
 23 39  1  0
 23 40  1  0
 24 41  1  0
 25 42  1  0
M  END
>  <Binding energies>  (1) 
[-6.28]

>  <Ligand effiencies>  (1) 
[-0.22428571428571428]

>  <Interactions>  (1) 
["V-A:LEU:475:CD2:4256, V-B:TYR:539:CD1:9845, V-A:TYR:484:CE2:4343, V-B:GLU:543:CB:9878, V-B:TYR:539:CE1:9847, V-B:GLU:543:CD:9880, V-B:ALA:541:CB:9864, V-A:TYR:484:CZ:4344, H-A:ASP:366:OD2:3212, H-B:GLU:543:OE2:9882, V-A:ASP:366:CG:3210, H-B:GLU:543:OE1:9881, H-A:GLU:543:OE2:4908, H-A:GLU:543:OE1:4907, H-A:ARG:545:NH2:4926, V-A:TYR:539:C:4865, V-A:PRO:540:CA:4881, V-A:PRO:540:CB:4883, V-A:PRO:540:N:4882, V-A:LEU:363:CD1:3186, V-A:TYR:539:CA:4867, V-A:ILE:538:CA:4858, V-A:ILE:538:CB:4860, V-A:MET:535:CE:4833, V-A:ILE:538:CG2:4861, V-A:PRO:540:CD:4885, H-A:TYR:539:N:4868"]

$$$$
4ac_Grossjean_2025
     RDKit          3D

 40 42  0  0  0  0  0  0  0  0999 V2000
  134.2860  125.3740   66.8940 C   0  0  0  0  0  0  0  0  0  0  0  0
  134.3800  125.4040   65.4730 O   0  0  0  0  0  0  0  0  0  0  0  0
  133.2500  125.1570   64.7170 C   0  0  0  0  0  0  0  0  0  0  0  0
  133.4580  124.8320   63.3770 C   0  0  0  0  0  0  0  0  0  0  0  0
  132.3800  124.5660   62.5370 C   0  0  0  0  0  0  0  0  0  0  0  0
  131.0760  124.6130   63.0320 C   0  0  0  0  0  0  0  0  0  0  0  0
  130.0500  124.3420   62.1070 N   0  0  0  0  0  0  0  0  0  0  0  0
  129.6950  123.1640   61.5410 C   0  0  0  0  0  0  0  0  0  0  0  0
  130.2810  122.0980   61.7430 O   0  0  0  0  0  0  0  0  0  0  0  0
  128.5450  123.2240   60.6360 C   0  0  0  0  0  0  0  0  0  0  0  0
  128.7740  123.1010   58.8910 S   0  0  0  0  0  0  0  0  0  0  0  0
  127.0560  123.2570   58.6050 C   0  0  0  0  0  0  0  0  0  0  0  0
  126.5400  123.2380   57.3760 N   0  0  0  0  0  0  0  0  0  0  0  0
  125.1940  123.3680   57.2930 C   0  0  0  0  0  0  0  0  0  0  0  0
  124.6260  123.3430   55.8860 C   0  0  0  0  0  0  0  0  0  0  0  0
  124.3600  123.5180   58.4010 C   0  0  0  0  0  0  0  0  0  0  0  0
  124.9050  123.5380   59.6890 C   0  0  0  0  0  0  0  0  0  0  0  0
  123.9550  123.7040   60.8650 C   0  0  0  0  0  0  0  0  0  0  0  0
  126.3140  123.4020   59.8150 C   0  0  0  0  0  0  0  0  0  0  0  0
  127.1870  123.3780   60.9580 C   0  0  0  0  0  0  0  0  0  0  0  0
  126.7160  123.4980   62.2410 N   0  0  0  0  0  0  0  0  0  0  0  0
  130.8580  124.9520   64.3750 C   0  0  0  0  0  0  0  0  0  0  0  0
  131.9390  125.2180   65.2120 C   0  0  0  0  0  0  0  0  0  0  0  0
  135.2474  125.6808   67.3316 H   0  0  0  0  0  0  0  0  0  0  0  0
  133.4959  126.0646   67.2239 H   0  0  0  0  0  0  0  0  0  0  0  0
  134.0421  124.3534   67.2239 H   0  0  0  0  0  0  0  0  0  0  0  0
  134.4828  124.7854   62.9801 H   0  0  0  0  0  0  0  0  0  0  0  0
  132.5567  124.3180   61.4800 H   0  0  0  0  0  0  0  0  0  0  0  0
  129.5320  125.1560   61.8060 H   0  0  0  0  0  0  0  0  0  0  0  0
  123.5281  123.2947   55.9346 H   0  0  0  0  0  0  0  0  0  0  0  0
  124.9296  124.2554   55.3518 H   0  0  0  0  0  0  0  0  0  0  0  0
  125.0086  122.4608   55.3518 H   0  0  0  0  0  0  0  0  0  0  0  0
  123.2737  123.6206   58.2618 H   0  0  0  0  0  0  0  0  0  0  0  0
  124.5159  123.6060   61.8061 H   0  0  0  0  0  0  0  0  0  0  0  0
  123.4856  124.6978   60.8197 H   0  0  0  0  0  0  0  0  0  0  0  0
  123.1764  122.9283   60.8197 H   0  0  0  0  0  0  0  0  0  0  0  0
  125.9070  122.9860   62.5630 H   0  0  0  0  0  0  0  0  0  0  0  0
  127.1680  124.1050   62.9110 H   0  0  0  0  0  0  0  0  0  0  0  0
  129.8321  125.0079   64.7680 H   0  0  0  0  0  0  0  0  0  0  0  0
  131.7637  125.4772   66.2666 H   0  0  0  0  0  0  0  0  0  0  0  0
  1  2  1  0
  2  3  1  0
  3  4  2  0
  4  5  1  0
  5  6  2  0
  6  7  1  0
  7  8  1  0
  8  9  2  0
  8 10  1  0
 10 11  1  0
 11 12  1  0
 12 13  2  0
 13 14  1  0
 14 15  1  0
 14 16  2  0
 16 17  1  0
 17 18  1  0
 17 19  2  0
 19 20  1  0
 20 21  1  0
  6 22  1  0
 22 23  2  0
 23  3  1  0
 20 10  2  0
 19 12  1  0
  1 24  1  0
  1 25  1  0
  1 26  1  0
  4 27  1  0
  5 28  1  0
  7 29  1  0
 15 30  1  0
 15 31  1  0
 15 32  1  0
 16 33  1  0
 18 34  1  0
 18 35  1  0
 18 36  1  0
 21 37  1  0
 21 38  1  0
 22 39  1  0
 23 40  1  0
M  END
>  <Binding energies>  (1) 
[-6.89]

>  <Ligand effiencies>  (1) 
[-0.265]

>  <Interactions>  (1) 
["V-A:HIS:456:CE1:4066, H-A:TYR:484:OH:4345, V-A:GLY:454:CA:4046, V-B:TYR:539:CD1:9845, V-B:TYR:539:C:9839, V-B:ASP:366:CG:8184, V-B:TYR:539:CE1:9847, V-B:GLU:543:CD:9880, V-B:PRO:540:CB:9857, V-A:ARG:545:CZ:4924, V-B:PRO:540:CA:9855, V-B:ALA:541:CB:9864, H-B:GLU:543:OE2:9882, V-B:ASN:362:CB:8147, H-B:GLU:543:OE1:9881, V-B:PRO:540:N:9856, V-A:ARG:545:CD:4921, V-A:GLY:453:CA:4041, V-A:ARG:545:CG:4920, H-A:ARG:545:NE:4922, V-B:ILE:538:CB:9834, V-B:ILE:538:CG2:9835, V-B:TYR:531:CZ:9766, V-B:TYR:531:CE2:9765, V-B:ALA:541:CA:9862, V-B:LEU:363:CD1:8160, V-B:ASN:362:C:8143, H-A:GLY:454:N:4047, H-B:ALA:541:O:9861, V-B:LEU:363:CA:8156, V-A:ILE:455:C:4049, V-A:ARG:545:CB:4919"]

$$$$
4ad_Grossjean_2025
     RDKit          3D

 36 38  0  0  0  0  0  0  0  0999 V2000
  125.9430  117.1150   71.6170 C   0  0  0  0  0  0  0  0  0  0  0  0
  126.8130  118.0100   72.4800 C   0  0  0  0  0  0  0  0  0  0  0  0
  127.2410  117.5970   73.7400 C   0  0  0  0  0  0  0  0  0  0  0  0
  128.0410  118.4410   74.5190 C   0  0  0  0  0  0  0  0  0  0  0  0
  128.4810  117.9470   75.8890 C   0  0  0  0  0  0  0  0  0  0  0  0
  128.3890  119.7090   73.9800 C   0  0  0  0  0  0  0  0  0  0  0  0
  129.1760  120.7980   74.4920 C   0  0  0  0  0  0  0  0  0  0  0  0
  129.7760  120.7490   75.7260 N   0  0  0  0  0  0  0  0  0  0  0  0
  129.2690  121.8950   73.6210 C   0  0  0  0  0  0  0  0  0  0  0  0
  129.9680  123.1650   73.8260 C   0  0  0  0  0  0  0  0  0  0  0  0
  129.4460  124.2300   73.4930 O   0  0  0  0  0  0  0  0  0  0  0  0
  131.1910  123.0680   74.4040 N   0  0  0  0  0  0  0  0  0  0  0  0
  132.1260  124.0800   74.6960 C   0  0  0  0  0  0  0  0  0  0  0  0
  131.7690  125.3730   74.3050 C   0  0  0  0  0  0  0  0  0  0  0  0
  132.6220  126.4440   74.5580 C   0  0  0  0  0  0  0  0  0  0  0  0
  133.8310  126.2230   75.2120 C   0  0  0  0  0  0  0  0  0  0  0  0
  134.1920  124.9410   75.6190 C   0  0  0  0  0  0  0  0  0  0  0  0
  133.3420  123.8680   75.3660 C   0  0  0  0  0  0  0  0  0  0  0  0
  128.3770  121.5980   72.1280 S   0  0  0  0  0  0  0  0  0  0  0  0
  127.8860  120.0130   72.6790 C   0  0  0  0  0  0  0  0  0  0  0  0
  127.1240  119.2100   71.9340 N   0  0  0  0  0  0  0  0  0  0  0  0
  125.3217  116.4758   72.2615 H   0  0  0  0  0  0  0  0  0  0  0  0
  125.2943  117.7362   70.9819 H   0  0  0  0  0  0  0  0  0  0  0  0
  126.5823  116.4842   70.9819 H   0  0  0  0  0  0  0  0  0  0  0  0
  126.9502  116.6075   74.1226 H   0  0  0  0  0  0  0  0  0  0  0  0
  127.9659  118.5253   76.6701 H   0  0  0  0  0  0  0  0  0  0  0  0
  128.2269  116.8819   75.9937 H   0  0  0  0  0  0  0  0  0  0  0  0
  129.5683  118.0766   75.9937 H   0  0  0  0  0  0  0  0  0  0  0  0
  130.7660  120.9050   75.8450 H   0  0  0  0  0  0  0  0  0  0  0  0
  129.2410  120.5590   76.5630 H   0  0  0  0  0  0  0  0  0  0  0  0
  131.4770  122.1420   74.6860 H   0  0  0  0  0  0  0  0  0  0  0  0
  130.8098  125.5456   73.7950 H   0  0  0  0  0  0  0  0  0  0  0  0
  132.3420  127.4599   74.2426 H   0  0  0  0  0  0  0  0  0  0  0  0
  134.5069  127.0682   75.4089 H   0  0  0  0  0  0  0  0  0  0  0  0
  135.1470  124.7766   76.1394 H   0  0  0  0  0  0  0  0  0  0  0  0
  133.6225  122.8551   75.6905 H   0  0  0  0  0  0  0  0  0  0  0  0
  1  2  1  0
  2  3  2  0
  3  4  1  0
  4  5  1  0
  4  6  2  0
  6  7  1  0
  7  8  1  0
  7  9  2  0
  9 10  1  0
 10 11  2  0
 10 12  1  0
 12 13  1  0
 13 14  2  0
 14 15  1  0
 15 16  2  0
 16 17  1  0
 17 18  2  0
  9 19  1  0
 19 20  1  0
 20 21  2  0
 21  2  1  0
 20  6  1  0
 18 13  1  0
  1 22  1  0
  1 23  1  0
  1 24  1  0
  3 25  1  0
  5 26  1  0
  5 27  1  0
  5 28  1  0
  8 29  1  0
  8 30  1  0
 12 31  1  0
 14 32  1  0
 15 33  1  0
 16 34  1  0
 17 35  1  0
 18 36  1  0
M  END
>  <Binding energies>  (1) 
[-6.83]

>  <Ligand effiencies>  (1) 
[-0.28458333333333335]

>  <Interactions>  (1) 
["V-B:LYS:547:CE:9922, V-A:VAL:458:CG2:4084, H-B:LYS:547:NZ:9923, V-A:HIS:456:CD2:4065, V-A:LYS:547:CE:4948, V-A:LYS:547:CD:4947, V-A:LYS:471:CD:4216, V-A:HIS:456:CB:4062, V-A:ASP:473:CG:4237, V-A:HIS:456:CG:4063, V-A:HIS:456:C:4058, V-B:GLY:544:CA:9886, V-B:GLU:543:C:9874, V-A:TYR:484:CD2:4341, H-A:ASP:473:OD2:4239, V-A:TYR:484:CB:4338, V-A:TYR:484:CG:4339, V-B:GLU:543:CA:9876, H-A:TYR:484:N:4337, V-A:SER:483:CB:4330, V-B:VAL:542:CG1:9871"]

$$$$
4ae_Grossjean_2025
     RDKit          3D

 38 40  0  0  0  0  0  0  0  0999 V2000
  131.1470  126.0270   66.7510 C   0  0  0  0  0  0  0  0  0  0  0  0
  131.5760  125.4900   65.4000 C   0  0  0  0  0  0  0  0  0  0  0  0
  132.9240  125.3150   65.0760 C   0  0  0  0  0  0  0  0  0  0  0  0
  133.2440  124.8230   63.8100 C   0  0  0  0  0  0  0  0  0  0  0  0
  132.2210  124.5240   62.9080 C   0  0  0  0  0  0  0  0  0  0  0  0
  130.8910  124.7150   63.2990 C   0  0  0  0  0  0  0  0  0  0  0  0
  129.9080  124.4150   62.3410 N   0  0  0  0  0  0  0  0  0  0  0  0
  129.8390  123.3530   61.4990 C   0  0  0  0  0  0  0  0  0  0  0  0
  130.6850  122.4580   61.4540 O   0  0  0  0  0  0  0  0  0  0  0  0
  128.6720  123.3290   60.6150 C   0  0  0  0  0  0  0  0  0  0  0  0
  128.8790  123.1550   58.8710 S   0  0  0  0  0  0  0  0  0  0  0  0
  127.1530  123.2570   58.6080 C   0  0  0  0  0  0  0  0  0  0  0  0
  126.6210  123.1890   57.3870 N   0  0  0  0  0  0  0  0  0  0  0  0
  125.2720  123.2870   57.3200 C   0  0  0  0  0  0  0  0  0  0  0  0
  124.6870  123.2150   55.9210 C   0  0  0  0  0  0  0  0  0  0  0  0
  124.4490  123.4470   58.4350 C   0  0  0  0  0  0  0  0  0  0  0  0
  125.0120  123.5160   59.7150 C   0  0  0  0  0  0  0  0  0  0  0  0
  124.0740  123.6950   60.8990 C   0  0  0  0  0  0  0  0  0  0  0  0
  126.4250  123.4190   59.8240 C   0  0  0  0  0  0  0  0  0  0  0  0
  127.3150  123.4550   60.9550 C   0  0  0  0  0  0  0  0  0  0  0  0
  126.8610  123.6020   62.2410 N   0  0  0  0  0  0  0  0  0  0  0  0
  130.5710  125.2020   64.5340 N   0  0  0  0  0  0  0  0  0  0  0  0
  131.6202  125.4347   67.5481 H   0  0  0  0  0  0  0  0  0  0  0  0
  131.4565  127.0786   66.8427 H   0  0  0  0  0  0  0  0  0  0  0  0
  130.0530  125.9574   66.8427 H   0  0  0  0  0  0  0  0  0  0  0  0
  133.7139  125.5592   65.8015 H   0  0  0  0  0  0  0  0  0  0  0  0
  134.2955  124.6717   63.5245 H   0  0  0  0  0  0  0  0  0  0  0  0
  132.4574  124.1434   61.9034 H   0  0  0  0  0  0  0  0  0  0  0  0
  129.1880  125.1150   62.2410 H   0  0  0  0  0  0  0  0  0  0  0  0
  123.5971  123.0809   55.9858 H   0  0  0  0  0  0  0  0  0  0  0  0
  124.9103  124.1474   55.3818 H   0  0  0  0  0  0  0  0  0  0  0  0
  125.1297  122.3646   55.3818 H   0  0  0  0  0  0  0  0  0  0  0  0
  123.3587  123.5189   58.3086 H   0  0  0  0  0  0  0  0  0  0  0  0
  124.6408  123.5868   61.8355 H   0  0  0  0  0  0  0  0  0  0  0  0
  123.6198  124.6960   60.8589 H   0  0  0  0  0  0  0  0  0  0  0  0
  123.2831  122.9316   60.8589 H   0  0  0  0  0  0  0  0  0  0  0  0
  127.2900  124.2480   62.8880 H   0  0  0  0  0  0  0  0  0  0  0  0
  126.0760  123.0660   62.5850 H   0  0  0  0  0  0  0  0  0  0  0  0
  1  2  1  0
  2  3  2  0
  3  4  1  0
  4  5  2  0
  5  6  1  0
  6  7  1  0
  7  8  1  0
  8  9  2  0
  8 10  1  0
 10 11  1  0
 11 12  1  0
 12 13  2  0
 13 14  1  0
 14 15  1  0
 14 16  2  0
 16 17  1  0
 17 18  1  0
 17 19  2  0
 19 20  1  0
 20 21  1  0
  6 22  2  0
 22  2  1  0
 20 10  2  0
 19 12  1  0
  1 23  1  0
  1 24  1  0
  1 25  1  0
  3 26  1  0
  4 27  1  0
  5 28  1  0
  7 29  1  0
 15 30  1  0
 15 31  1  0
 15 32  1  0
 16 33  1  0
 18 34  1  0
 18 35  1  0
 18 36  1  0
 21 37  1  0
 21 38  1  0
M  END
>  <Binding energies>  (1) 
[-6.66]

>  <Ligand effiencies>  (1) 
[-0.2664]

>  <Interactions>  (1) 
["V-A:HIS:456:CE1:4066, V-A:GLY:454:CA:4046, V-B:TYR:539:CD1:9845, V-B:TYR:539:C:9839, V-B:ASP:366:CG:8184, V-B:TYR:539:CE1:9847, V-B:GLU:543:CD:9880, V-B:PRO:540:CB:9857, V-A:ARG:545:CZ:4924, V-B:PRO:540:CA:9855, V-B:ALA:541:CB:9864, H-B:GLU:543:OE2:9882, V-B:ASN:362:CB:8147, H-B:GLU:543:OE1:9881, V-B:PRO:540:N:9856, V-A:ARG:545:CD:4921, V-B:ILE:538:CB:9834, V-B:PRO:540:CD:9859, V-B:ILE:538:CG2:9835, V-B:TYR:531:CZ:9766, V-B:TYR:531:CE2:9765, V-B:LEU:363:CD1:8160, V-B:ASN:362:C:8143, H-B:ALA:541:O:9861, V-B:LEU:363:CA:8156"]

$$$$
4af_Grossjean_2025
     RDKit          3D

 35 37  0  0  0  0  0  0  0  0999 V2000
  124.9410  123.1280   56.0410 C   0  0  0  0  0  0  0  0  0  0  0  0
  125.5700  123.3020   57.4110 C   0  0  0  0  0  0  0  0  0  0  0  0
  124.7810  123.4320   58.5520 C   0  0  0  0  0  0  0  0  0  0  0  0
  125.3830  123.5940   59.8050 C   0  0  0  0  0  0  0  0  0  0  0  0
  124.4790  123.7330   61.0200 C   0  0  0  0  0  0  0  0  0  0  0  0
  126.8030  123.6210   59.8600 C   0  0  0  0  0  0  0  0  0  0  0  0
  127.7280  123.7700   60.9520 C   0  0  0  0  0  0  0  0  0  0  0  0
  127.3100  123.9240   62.2500 N   0  0  0  0  0  0  0  0  0  0  0  0
  129.0770  123.7420   60.5640 C   0  0  0  0  0  0  0  0  0  0  0  0
  130.2690  123.8940   61.4010 C   0  0  0  0  0  0  0  0  0  0  0  0
  131.3510  123.4300   61.0390 O   0  0  0  0  0  0  0  0  0  0  0  0
  130.0830  124.5780   62.5560 N   0  0  0  0  0  0  0  0  0  0  0  0
  130.9980  124.8550   63.5900 C   0  0  0  0  0  0  0  0  0  0  0  0
  130.6570  125.2560   64.8940 C   0  0  0  0  0  0  0  0  0  0  0  0
  131.6670  125.5170   65.8220 C   0  0  0  0  0  0  0  0  0  0  0  0
  132.9960  125.3740   65.4220 C   0  0  0  0  0  0  0  0  0  0  0  0
  133.3510  124.9960   64.1690 N   0  0  0  0  0  0  0  0  0  0  0  0
  132.3590  124.7460   63.2780 C   0  0  0  0  0  0  0  0  0  0  0  0
  129.2330  123.5300   58.8180 S   0  0  0  0  0  0  0  0  0  0  0  0
  127.4960  123.4770   58.6220 C   0  0  0  0  0  0  0  0  0  0  0  0
  126.9260  123.3220   57.4260 N   0  0  0  0  0  0  0  0  0  0  0  0
  123.8866  122.8363   56.1560 H   0  0  0  0  0  0  0  0  0  0  0  0
  125.0008  124.0764   55.4870 H   0  0  0  0  0  0  0  0  0  0  0  0
  125.4797  122.3451   55.4870 H   0  0  0  0  0  0  0  0  0  0  0  0
  123.6845  123.4073   58.4679 H   0  0  0  0  0  0  0  0  0  0  0  0
  125.0800  123.6406   61.9367 H   0  0  0  0  0  0  0  0  0  0  0  0
  123.9881  124.7172   61.0011 H   0  0  0  0  0  0  0  0  0  0  0  0
  123.7151  122.9418   61.0011 H   0  0  0  0  0  0  0  0  0  0  0  0
  126.9010  124.7860   62.5810 H   0  0  0  0  0  0  0  0  0  0  0  0
  127.3950  123.1720   62.9210 H   0  0  0  0  0  0  0  0  0  0  0  0
  129.1590  124.9540   62.7060 H   0  0  0  0  0  0  0  0  0  0  0  0
  129.6006  125.3634   65.1813 H   0  0  0  0  0  0  0  0  0  0  0  0
  131.4200  125.8290   66.8475 H   0  0  0  0  0  0  0  0  0  0  0  0
  133.7906  125.5768   66.1551 H   0  0  0  0  0  0  0  0  0  0  0  0
  132.6379  124.4421   62.2583 H   0  0  0  0  0  0  0  0  0  0  0  0
  1  2  1  0
  2  3  2  0
  3  4  1  0
  4  5  1  0
  4  6  2  0
  6  7  1  0
  7  8  1  0
  7  9  2  0
  9 10  1  0
 10 11  2  0
 10 12  1  0
 12 13  1  0
 13 14  2  0
 14 15  1  0
 15 16  2  0
 16 17  1  0
 17 18  2  0
  9 19  1  0
 19 20  1  0
 20 21  2  0
 21  2  1  0
 20  6  1  0
 18 13  1  0
  1 22  1  0
  1 23  1  0
  1 24  1  0
  3 25  1  0
  5 26  1  0
  5 27  1  0
  5 28  1  0
  8 29  1  0
  8 30  1  0
 12 31  1  0
 14 32  1  0
 15 33  1  0
 16 34  1  0
 18 35  1  0
M  END
>  <Binding energies>  (1) 
[-7.16]

>  <Ligand effiencies>  (1) 
[-0.29833333333333334]

>  <Interactions>  (1) 
["V-A:HIS:456:CE1:4066, H-A:TYR:484:OH:4345, V-B:TYR:539:CD1:9845, V-B:ASP:366:CG:8184, V-B:TYR:539:CE1:9847, V-B:GLU:543:CD:9880, V-B:PRO:540:CB:9857, V-A:ARG:545:CZ:4924, V-B:PRO:540:CA:9855, H-B:GLU:543:OE2:9882, V-B:ASN:362:CB:8147, H-B:GLU:543:OE1:9881, V-B:PRO:540:N:9856, V-A:ARG:545:CD:4921, H-A:ARG:545:NH2:4926, V-A:ARG:545:CG:4920, H-A:ARG:545:NE:4922, V-B:ILE:538:CB:9834, V-B:ILE:538:CG2:9835, V-B:TYR:531:CE2:9765, V-B:LEU:363:CD1:8160, V-B:ASN:362:C:8143, H-A:GLY:454:N:4047, H-B:ALA:541:O:9861"]

$$$$
4ag_Grossjean_2025
     RDKit          3D

 39 41  0  0  0  0  0  0  0  0999 V2000
  127.6390  122.7500   54.2080 C   0  0  0  0  0  0  0  0  0  0  0  0
  127.2170  122.9830   55.6470 C   0  0  0  0  0  0  0  0  0  0  0  0
  125.9480  123.4730   55.9520 C   0  0  0  0  0  0  0  0  0  0  0  0
  125.5780  123.6790   57.2850 C   0  0  0  0  0  0  0  0  0  0  0  0
  124.1820  124.2140   57.5670 C   0  0  0  0  0  0  0  0  0  0  0  0
  126.5330  123.3750   58.2920 C   0  0  0  0  0  0  0  0  0  0  0  0
  126.4900  123.4640   59.7270 C   0  0  0  0  0  0  0  0  0  0  0  0
  125.3810  123.9110   60.4020 N   0  0  0  0  0  0  0  0  0  0  0  0
  127.6750  123.0590   60.3580 C   0  0  0  0  0  0  0  0  0  0  0  0
  127.9720  123.0110   61.7890 C   0  0  0  0  0  0  0  0  0  0  0  0
  127.0810  123.1250   62.6340 O   0  0  0  0  0  0  0  0  0  0  0  0
  129.2710  122.8560   62.1220 N   0  0  0  0  0  0  0  0  0  0  0  0
  129.7910  122.7570   63.4850 C   0  0  0  0  0  0  0  0  0  0  0  0
  130.9780  123.6710   63.7630 C   0  0  0  0  0  0  0  0  0  0  0  0
  130.9550  124.5240   64.8700 C   0  0  0  0  0  0  0  0  0  0  0  0
  132.0490  125.3420   65.1410 C   0  0  0  0  0  0  0  0  0  0  0  0
  133.1670  125.2970   64.3100 C   0  0  0  0  0  0  0  0  0  0  0  0
  133.2030  124.4380   63.2140 C   0  0  0  0  0  0  0  0  0  0  0  0
  132.1100  123.6190   62.9440 C   0  0  0  0  0  0  0  0  0  0  0  0
  128.8820  122.5410   59.1810 S   0  0  0  0  0  0  0  0  0  0  0  0
  127.7960  122.8790   57.8510 C   0  0  0  0  0  0  0  0  0  0  0  0
  128.1510  122.6800   56.5810 N   0  0  0  0  0  0  0  0  0  0  0  0
  128.6018  122.2184   54.1897 H   0  0  0  0  0  0  0  0  0  0  0  0
  126.8764  122.1451   53.6956 H   0  0  0  0  0  0  0  0  0  0  0  0
  127.7446  123.7176   53.6956 H   0  0  0  0  0  0  0  0  0  0  0  0
  125.2369  123.6979   55.1434 H   0  0  0  0  0  0  0  0  0  0  0  0
  124.0251  124.2741   58.6541 H   0  0  0  0  0  0  0  0  0  0  0  0
  124.0772  125.2160   57.1254 H   0  0  0  0  0  0  0  0  0  0  0  0
  123.4344  123.5387   57.1254 H   0  0  0  0  0  0  0  0  0  0  0  0
  124.6050  124.3450   59.9230 H   0  0  0  0  0  0  0  0  0  0  0  0
  125.3040  123.8170   61.4050 H   0  0  0  0  0  0  0  0  0  0  0  0
  129.9390  122.7130   61.3790 H   0  0  0  0  0  0  0  0  0  0  0  0
  128.9824  123.0179   64.1836 H   0  0  0  0  0  0  0  0  0  0  0  0
  130.1468  121.7244   63.6158 H   0  0  0  0  0  0  0  0  0  0  0  0
  130.0731  124.5492   65.5269 H   0  0  0  0  0  0  0  0  0  0  0  0
  132.0308  126.0204   66.0067 H   0  0  0  0  0  0  0  0  0  0  0  0
  134.0294  125.9462   64.5217 H   0  0  0  0  0  0  0  0  0  0  0  0
  134.0906  124.4069   62.5650 H   0  0  0  0  0  0  0  0  0  0  0  0
  132.1370  122.9309   62.0862 H   0  0  0  0  0  0  0  0  0  0  0  0
  1  2  1  0
  2  3  2  0
  3  4  1  0
  4  5  1  0
  4  6  2  0
  6  7  1  0
  7  8  1  0
  7  9  2  0
  9 10  1  0
 10 11  2  0
 10 12  1  0
 12 13  1  0
 13 14  1  0
 14 15  2  0
 15 16  1  0
 16 17  2  0
 17 18  1  0
 18 19  2  0
  9 20  1  0
 20 21  1  0
 21 22  2  0
 22  2  1  0
 21  6  1  0
 19 14  1  0
  1 23  1  0
  1 24  1  0
  1 25  1  0
  3 26  1  0
  5 27  1  0
  5 28  1  0
  5 29  1  0
  8 30  1  0
  8 31  1  0
 12 32  1  0
 13 33  1  0
 13 34  1  0
 15 35  1  0
 16 36  1  0
 17 37  1  0
 18 38  1  0
 19 39  1  0
M  END
>  <Binding energies>  (1) 
[-7.34]

>  <Ligand effiencies>  (1) 
[-0.29359999999999997]

>  <Interactions>  (1) 
["V-A:GLY:454:CA:4046, V-B:TYR:539:CD1:9845, V-B:TYR:539:C:9839, V-B:ASP:366:CG:8184, V-B:TYR:539:CE1:9847, V-B:GLU:543:CD:9880, V-B:PRO:540:CB:9857, V-A:ARG:545:CZ:4924, V-B:PRO:540:CA:9855, H-B:ASP:366:OD2:8186, V-B:ALA:541:CB:9864, V-B:ASP:366:CB:8183, V-B:PRO:540:N:9856, V-B:ILE:538:CB:9834, H-B:TYR:539:N:9842, V-B:ILE:538:CG2:9835, V-B:ILE:538:CA:9832, V-B:MET:535:CE:9807, V-B:TYR:531:CZ:9766, H-B:ALA:541:N:9863, V-B:MET:535:CB:9804, V-B:TYR:531:CE2:9765, V-B:MET:535:CG:9805, V-B:ILE:538:C:9830, V-B:VAL:537:C:9822, V-B:ALA:541:CA:9862, V-B:LEU:363:CD1:8160, V-B:LEU:363:CA:8156"]

$$$$
4ah_Grossjean_2025
     RDKit          3D

 51 53  0  0  0  0  0  0  0  0999 V2000
  128.7580  132.5510   55.8290 C   0  0  0  0  0  0  0  0  0  0  0  0
  129.1210  133.2400   57.0200 O   0  0  0  0  0  0  0  0  0  0  0  0
  129.8740  132.5870   57.9790 C   0  0  0  0  0  0  0  0  0  0  0  0
  129.3380  132.0260   59.1490 C   0  0  0  0  0  0  0  0  0  0  0  0
  130.1600  131.3820   60.0750 C   0  0  0  0  0  0  0  0  0  0  0  0
  129.5530  130.7370   61.3160 C   0  0  0  0  0  0  0  0  0  0  0  0
  130.1120  129.4220   61.6260 N   0  0  0  0  0  0  0  0  0  0  0  0
  129.9510  128.3080   60.8800 C   0  0  0  0  0  0  0  0  0  0  0  0
  129.2640  128.2880   59.8570 O   0  0  0  0  0  0  0  0  0  0  0  0
  130.6080  127.1010   61.3800 C   0  0  0  0  0  0  0  0  0  0  0  0
  131.7400  126.2190   60.3540 S   0  0  0  0  0  0  0  0  0  0  0  0
  131.9920  125.0110   61.5950 C   0  0  0  0  0  0  0  0  0  0  0  0
  132.8190  123.9810   61.4200 N   0  0  0  0  0  0  0  0  0  0  0  0
  132.9250  123.1180   62.4590 C   0  0  0  0  0  0  0  0  0  0  0  0
  133.8690  121.9510   62.2380 C   0  0  0  0  0  0  0  0  0  0  0  0
  132.2310  123.2610   63.6580 C   0  0  0  0  0  0  0  0  0  0  0  0
  131.3600  124.3430   63.8400 C   0  0  0  0  0  0  0  0  0  0  0  0
  130.6240  124.4550   65.1660 C   0  0  0  0  0  0  0  0  0  0  0  0
  131.2220  125.2680   62.7700 C   0  0  0  0  0  0  0  0  0  0  0  0
  130.4320  126.4600   62.6150 C   0  0  0  0  0  0  0  0  0  0  0  0
  129.5950  126.9190   63.6000 N   0  0  0  0  0  0  0  0  0  0  0  0
  131.5270  131.2700   59.8210 C   0  0  0  0  0  0  0  0  0  0  0  0
  132.0920  131.8260   58.6620 C   0  0  0  0  0  0  0  0  0  0  0  0
  133.4400  131.7660   58.3550 O   0  0  0  0  0  0  0  0  0  0  0  0
  133.9100  130.7500   57.4760 C   0  0  0  0  0  0  0  0  0  0  0  0
  131.2550  132.4880   57.7530 C   0  0  0  0  0  0  0  0  0  0  0  0
  131.7920  133.0210   56.6050 O   0  0  0  0  0  0  0  0  0  0  0  0
  131.9070  132.0930   55.5350 C   0  0  0  0  0  0  0  0  0  0  0  0
  128.2599  131.6055   56.0897 H   0  0  0  0  0  0  0  0  0  0  0  0
  128.0722  133.1761   55.2383 H   0  0  0  0  0  0  0  0  0  0  0  0
  129.6614  132.3388   55.2383 H   0  0  0  0  0  0  0  0  0  0  0  0
  128.2566  132.0949   59.3383 H   0  0  0  0  0  0  0  0  0  0  0  0
  129.7300  131.4012   62.1748 H   0  0  0  0  0  0  0  0  0  0  0  0
  128.4818  130.5919   61.1125 H   0  0  0  0  0  0  0  0  0  0  0  0
  130.7540  129.3850   62.4040 H   0  0  0  0  0  0  0  0  0  0  0  0
  134.1921  121.5515   63.2106 H   0  0  0  0  0  0  0  0  0  0  0  0
  133.3514  121.1628   61.6716 H   0  0  0  0  0  0  0  0  0  0  0  0
  134.7479  122.2925   61.6716 H   0  0  0  0  0  0  0  0  0  0  0  0
  132.3669  122.5236   64.4629 H   0  0  0  0  0  0  0  0  0  0  0  0
  131.3406  124.3460   65.9934 H   0  0  0  0  0  0  0  0  0  0  0  0
  130.1346  125.4380   65.2319 H   0  0  0  0  0  0  0  0  0  0  0  0
  129.8644  123.6621   65.2319 H   0  0  0  0  0  0  0  0  0  0  0  0
  128.7380  126.4420   63.8380 H   0  0  0  0  0  0  0  0  0  0  0  0
  129.8090  127.7600   64.1200 H   0  0  0  0  0  0  0  0  0  0  0  0
  132.1707  130.7393   60.5379 H   0  0  0  0  0  0  0  0  0  0  0  0
  134.3000  129.9070   58.0652 H   0  0  0  0  0  0  0  0  0  0  0  0
  133.0815  130.4018   56.8417 H   0  0  0  0  0  0  0  0  0  0  0  0
  134.7118  131.1560   56.8417 H   0  0  0  0  0  0  0  0  0  0  0  0
  132.0327  131.0786   55.9414 H   0  0  0  0  0  0  0  0  0  0  0  0
  130.9973  132.1306   54.9177 H   0  0  0  0  0  0  0  0  0  0  0  0
  132.7800  132.3515   54.9177 H   0  0  0  0  0  0  0  0  0  0  0  0
  1  2  1  0
  2  3  1  0
  3  4  2  0
  4  5  1  0
  5  6  1  0
  6  7  1  0
  7  8  1  0
  8  9  2  0
  8 10  1  0
 10 11  1  0
 11 12  1  0
 12 13  2  0
 13 14  1  0
 14 15  1  0
 14 16  2  0
 16 17  1  0
 17 18  1  0
 17 19  2  0
 19 20  1  0
 20 21  1  0
  5 22  2  0
 22 23  1  0
 23 24  1  0
 24 25  1  0
 23 26  2  0
 26 27  1  0
 27 28  1  0
 26  3  1  0
 20 10  2  0
 19 12  1  0
  1 29  1  0
  1 30  1  0
  1 31  1  0
  4 32  1  0
  6 33  1  0
  6 34  1  0
  7 35  1  0
 15 36  1  0
 15 37  1  0
 15 38  1  0
 16 39  1  0
 18 40  1  0
 18 41  1  0
 18 42  1  0
 21 43  1  0
 21 44  1  0
 22 45  1  0
 25 46  1  0
 25 47  1  0
 25 48  1  0
 28 49  1  0
 28 50  1  0
 28 51  1  0
M  END
>  <Binding energies>  (1) 
[-6.94]

>  <Ligand effiencies>  (1) 
[-0.2238709677419355]

>  <Interactions>  (1) 
["V-A:LEU:475:CD2:4256, V-A:GLY:454:CA:4046, V-B:GLU:543:CB:9878, V-B:GLU:543:CD:9880, V-A:TYR:484:CZ:4344, H-B:GLU:543:OE2:9882, V-A:ASP:366:CG:3210, H-B:GLU:543:OE1:9881, H-A:GLU:543:OE2:4908, H-A:GLU:543:OE1:4907, V-A:GLU:543:CD:4906, V-A:ILE:369:CD1:3236, V-A:TYR:539:CE1:4873, V-A:TYR:539:C:4865, V-A:PRO:540:CA:4881, V-A:PRO:540:CB:4883, V-A:PRO:540:N:4882, V-A:LEU:363:CD1:3186, V-A:ILE:538:CA:4858, V-A:TYR:539:CG:4870, V-A:ILE:538:CB:4860, V-A:MET:535:CE:4833, V-A:ILE:538:CG2:4861, V-A:TYR:531:CE2:4791, V-A:PRO:540:CD:4885, V-A:TYR:531:CZ:4792, V-A:TYR:539:CD2:4872, V-A:TYR:539:CE2:4874, V-A:TYR:539:CZ:4875, V-A:ASP:366:CB:3209, H-A:TYR:539:N:4868, V-A:LEU:363:CA:3182"]

$$$$
4ai_Grossjean_2025
     RDKit          3D

 32 34  0  0  0  0  0  0  0  0999 V2000
  131.0020  132.4880   55.9380 C   0  0  0  0  0  0  0  0  0  0  0  0
  130.5430  132.1150   57.3360 C   0  0  0  0  0  0  0  0  0  0  0  0
  131.4600  131.9700   58.3760 C   0  0  0  0  0  0  0  0  0  0  0  0
  131.0140  131.6310   59.6590 C   0  0  0  0  0  0  0  0  0  0  0  0
  132.0520  131.4870   60.7610 C   0  0  0  0  0  0  0  0  0  0  0  0
  129.6180  131.4470   59.8490 C   0  0  0  0  0  0  0  0  0  0  0  0
  128.8340  131.1040   61.0050 C   0  0  0  0  0  0  0  0  0  0  0  0
  129.4020  130.8740   62.2330 N   0  0  0  0  0  0  0  0  0  0  0  0
  127.4540  131.0360   60.7590 C   0  0  0  0  0  0  0  0  0  0  0  0
  126.3770  130.7070   61.6950 C   0  0  0  0  0  0  0  0  0  0  0  0
  125.2140  130.5920   61.3020 O   0  0  0  0  0  0  0  0  0  0  0  0
  126.7610  130.5290   62.9840 N   0  0  0  0  0  0  0  0  0  0  0  0
  125.9560  130.2040   64.0680 C   0  0  0  0  0  0  0  0  0  0  0  0
  126.4590  129.6920   65.2640 C   0  0  0  0  0  0  0  0  0  0  0  0
  125.3560  129.5030   66.0650 C   0  0  0  0  0  0  0  0  0  0  0  0
  124.2470  129.8810   65.3870 O   0  0  0  0  0  0  0  0  0  0  0  0
  124.6390  130.3250   64.1230 N   0  0  0  0  0  0  0  0  0  0  0  0
  127.0920  131.3730   59.0650 S   0  0  0  0  0  0  0  0  0  0  0  0
  128.7850  131.6240   58.7030 C   0  0  0  0  0  0  0  0  0  0  0  0
  129.2060  131.9460   57.4800 N   0  0  0  0  0  0  0  0  0  0  0  0
  131.8541  133.1805   56.0044 H   0  0  0  0  0  0  0  0  0  0  0  0
  131.3087  131.5799   55.3983 H   0  0  0  0  0  0  0  0  0  0  0  0
  130.1758  132.9739   55.3983 H   0  0  0  0  0  0  0  0  0  0  0  0
  132.5332  132.1218   58.1886 H   0  0  0  0  0  0  0  0  0  0  0  0
  131.5579  131.5556   61.7414 H   0  0  0  0  0  0  0  0  0  0  0  0
  132.5511  130.5110   60.6694 H   0  0  0  0  0  0  0  0  0  0  0  0
  132.7979  132.2903   60.6694 H   0  0  0  0  0  0  0  0  0  0  0  0
  129.7930  131.6220   62.7880 H   0  0  0  0  0  0  0  0  0  0  0  0
  129.4530  129.9430   62.6220 H   0  0  0  0  0  0  0  0  0  0  0  0
  127.7430  130.6350   63.1900 H   0  0  0  0  0  0  0  0  0  0  0  0
  127.5101  129.4842   65.5131 H   0  0  0  0  0  0  0  0  0  0  0  0
  125.3728  129.1081   67.0915 H   0  0  0  0  0  0  0  0  0  0  0  0
  1  2  1  0
  2  3  2  0
  3  4  1  0
  4  5  1  0
  4  6  2  0
  6  7  1  0
  7  8  1  0
  7  9  2  0
  9 10  1  0
 10 11  2  0
 10 12  1  0
 12 13  1  0
 13 14  1  0
 14 15  2  0
 15 16  1  0
 16 17  1  0
  9 18  1  0
 18 19  1  0
 19 20  2  0
 20  2  1  0
 19  6  1  0
 17 13  2  0
  1 21  1  0
  1 22  1  0
  1 23  1  0
  3 24  1  0
  5 25  1  0
  5 26  1  0
  5 27  1  0
  8 28  1  0
  8 29  1  0
 12 30  1  0
 14 31  1  0
 15 32  1  0
M  END
>  <Binding energies>  (1) 
[-6.84]

>  <Ligand effiencies>  (1) 
[-0.29739130434782607]

>  <Interactions>  (1) 
["V-B:HIS:456:CE1:9040, V-B:ARG:545:CZ:9898, H-A:GLU:543:OE2:4908, H-A:GLU:543:OE1:4907, V-A:GLU:543:CD:4906, V-A:TYR:539:CE1:4873, H-B:ARG:545:NE:9896, V-A:PRO:540:CA:4881, V-B:ARG:545:CD:9895, V-A:TYR:539:CD1:4871, V-B:ARG:545:CG:9894, V-A:PRO:540:CB:4883, V-A:PRO:540:N:4882, V-A:ILE:538:CA:4858, V-A:ILE:538:CB:4860, V-A:MET:535:CE:4833, V-A:ILE:538:CG2:4861, H-B:TYR:484:OH:9319, H-B:GLY:454:N:9021, V-A:TYR:539:CZ:4875"]

$$$$
4aj_Grossjean_2025
     RDKit          3D

 32 34  0  0  0  0  0  0  0  0999 V2000
  126.1220  117.4980   71.2430 C   0  0  0  0  0  0  0  0  0  0  0  0
  126.9520  118.3400   72.1950 C   0  0  0  0  0  0  0  0  0  0  0  0
  127.2290  117.8970   73.4870 C   0  0  0  0  0  0  0  0  0  0  0  0
  127.9920  118.6920   74.3500 C   0  0  0  0  0  0  0  0  0  0  0  0
  128.2680  118.1650   75.7500 C   0  0  0  0  0  0  0  0  0  0  0  0
  128.4610  119.9410   73.8620 C   0  0  0  0  0  0  0  0  0  0  0  0
  129.2490  120.9830   74.4640 C   0  0  0  0  0  0  0  0  0  0  0  0
  129.7100  120.9010   75.7530 N   0  0  0  0  0  0  0  0  0  0  0  0
  129.5010  122.0700   73.6120 C   0  0  0  0  0  0  0  0  0  0  0  0
  130.2520  123.2950   73.8970 C   0  0  0  0  0  0  0  0  0  0  0  0
  129.7390  124.4020   73.7220 O   0  0  0  0  0  0  0  0  0  0  0  0
  131.5100  123.1100   74.3660 N   0  0  0  0  0  0  0  0  0  0  0  0
  132.4200  124.0960   74.7210 C   0  0  0  0  0  0  0  0  0  0  0  0
  133.5530  123.9520   75.3740 N   0  0  0  0  0  0  0  0  0  0  0  0
  134.1710  125.1060   75.5350 C   0  0  0  0  0  0  0  0  0  0  0  0
  133.5330  126.2250   75.0050 C   0  0  0  0  0  0  0  0  0  0  0  0
  132.0460  125.7240   74.2560 S   0  0  0  0  0  0  0  0  0  0  0  0
  128.7450  121.8330   72.0350 S   0  0  0  0  0  0  0  0  0  0  0  0
  128.1100  120.2770   72.5200 C   0  0  0  0  0  0  0  0  0  0  0  0
  127.3830  119.5230   71.6950 N   0  0  0  0  0  0  0  0  0  0  0  0
  125.4649  116.8314   71.8208 H   0  0  0  0  0  0  0  0  0  0  0  0
  125.5102  118.1567   70.6091 H   0  0  0  0  0  0  0  0  0  0  0  0
  126.7894  116.8957   70.6091 H   0  0  0  0  0  0  0  0  0  0  0  0
  126.8482  116.9231   73.8283 H   0  0  0  0  0  0  0  0  0  0  0  0
  127.8917  118.8835   76.4931 H   0  0  0  0  0  0  0  0  0  0  0  0
  127.7603  117.1985   75.8847 H   0  0  0  0  0  0  0  0  0  0  0  0
  129.3516  118.0319   75.8847 H   0  0  0  0  0  0  0  0  0  0  0  0
  129.0820  120.8260   76.5400 H   0  0  0  0  0  0  0  0  0  0  0  0
  130.6990  120.9140   75.9590 H   0  0  0  0  0  0  0  0  0  0  0  0
  131.8280  122.1590   74.4770 H   0  0  0  0  0  0  0  0  0  0  0  0
  135.1357  125.1805   76.0582 H   0  0  0  0  0  0  0  0  0  0  0  0
  133.9088  127.2577   75.0526 H   0  0  0  0  0  0  0  0  0  0  0  0
  1  2  1  0
  2  3  2  0
  3  4  1  0
  4  5  1  0
  4  6  2  0
  6  7  1  0
  7  8  1  0
  7  9  2  0
  9 10  1  0
 10 11  2  0
 10 12  1  0
 12 13  1  0
 13 14  2  0
 14 15  1  0
 15 16  2  0
 16 17  1  0
  9 18  1  0
 18 19  1  0
 19 20  2  0
 20  2  1  0
 19  6  1  0
 17 13  1  0
  1 21  1  0
  1 22  1  0
  1 23  1  0
  3 24  1  0
  5 25  1  0
  5 26  1  0
  5 27  1  0
  8 28  1  0
  8 29  1  0
 12 30  1  0
 15 31  1  0
 16 32  1  0
M  END
>  <Binding energies>  (1) 
[-6.38]

>  <Ligand effiencies>  (1) 
[-0.2773913043478261]

>  <Interactions>  (1) 
["V-B:LYS:547:CE:9922, V-A:VAL:458:CG2:4084, H-B:LYS:547:NZ:9923, V-A:HIS:456:CD2:4065, V-A:LYS:547:CD:4947, V-A:LYS:471:CD:4216, V-A:HIS:456:CB:4062, V-A:ASP:473:CG:4237, V-A:HIS:456:CG:4063, V-A:HIS:456:C:4058, V-B:GLY:544:CA:9886, V-B:GLU:543:C:9874, V-A:TYR:484:CD2:4341, H-A:ASP:473:OD2:4239, V-A:TYR:484:CB:4338, V-A:TYR:484:CG:4339, V-B:GLU:543:CA:9876, V-A:SER:483:CA:4328, H-A:TYR:484:N:4337, V-A:SER:483:CB:4330, V-B:VAL:542:CG1:9871, V-B:VAL:542:CB:9870"]

$$$$
4ak_Grossjean_2025
     RDKit          3D

 50 51  0  0  0  0  0  0  0  0999 V2000
  130.2800  124.9500   56.1710 C   0  0  0  0  0  0  0  0  0  0  0  0
  131.3960  125.7790   55.8840 O   0  0  0  0  0  0  0  0  0  0  0  0
  132.4000  125.7450   56.8910 C   0  0  0  0  0  0  0  0  0  0  0  0
  131.8440  125.0560   58.1440 C   0  0  0  0  0  0  0  0  0  0  0  0
  132.6830  123.9620   58.4910 O   0  0  0  0  0  0  0  0  0  0  0  0
  134.0700  124.2290   58.3320 C   0  0  0  0  0  0  0  0  0  0  0  0
  134.7400  124.2670   59.7110 C   0  0  0  0  0  0  0  0  0  0  0  0
  133.7760  123.9620   60.7100 O   0  0  0  0  0  0  0  0  0  0  0  0
  133.7730  122.5960   61.1060 C   0  0  0  0  0  0  0  0  0  0  0  0
  132.4920  122.3030   61.9080 C   0  0  0  0  0  0  0  0  0  0  0  0
  131.2610  122.5320   61.1500 N   0  0  0  0  0  0  0  0  0  0  0  0
  130.0230  122.6100   61.6780 C   0  0  0  0  0  0  0  0  0  0  0  0
  129.8140  122.5130   62.8890 O   0  0  0  0  0  0  0  0  0  0  0  0
  128.9320  122.8270   60.7300 C   0  0  0  0  0  0  0  0  0  0  0  0
  129.2340  122.7540   58.9940 S   0  0  0  0  0  0  0  0  0  0  0  0
  127.5520  123.0810   58.6420 C   0  0  0  0  0  0  0  0  0  0  0  0
  127.0970  123.1660   57.3910 N   0  0  0  0  0  0  0  0  0  0  0  0
  125.7730  123.4270   57.2560 C   0  0  0  0  0  0  0  0  0  0  0  0
  125.2750  123.5190   55.8260 C   0  0  0  0  0  0  0  0  0  0  0  0
  124.9040  123.6000   58.3310 C   0  0  0  0  0  0  0  0  0  0  0  0
  125.3850  123.5100   59.6430 C   0  0  0  0  0  0  0  0  0  0  0  0
  124.3980  123.7110   60.7820 C   0  0  0  0  0  0  0  0  0  0  0  0
  126.7680  123.2390   59.8240 C   0  0  0  0  0  0  0  0  0  0  0  0
  127.5790  123.0830   61.0010 C   0  0  0  0  0  0  0  0  0  0  0  0
  127.0600  123.1830   62.2680 N   0  0  0  0  0  0  0  0  0  0  0  0
  130.1601  124.8609   57.2608 H   0  0  0  0  0  0  0  0  0  0  0  0
  129.3720  125.3943   55.7373 H   0  0  0  0  0  0  0  0  0  0  0  0
  130.4431  123.9524   55.7373 H   0  0  0  0  0  0  0  0  0  0  0  0
  133.2717  125.1853   56.5210 H   0  0  0  0  0  0  0  0  0  0  0  0
  132.7033  126.7723   57.1414 H   0  0  0  0  0  0  0  0  0  0  0  0
  131.8148  125.7749   58.9761 H   0  0  0  0  0  0  0  0  0  0  0  0
  130.8265  124.6900   57.9420 H   0  0  0  0  0  0  0  0  0  0  0  0
  134.5291  123.4370   57.7221 H   0  0  0  0  0  0  0  0  0  0  0  0
  134.2035  125.1989   57.8305 H   0  0  0  0  0  0  0  0  0  0  0  0
  135.5521  123.5259   59.7455 H   0  0  0  0  0  0  0  0  0  0  0  0
  135.1539  125.2699   59.8922 H   0  0  0  0  0  0  0  0  0  0  0  0
  133.8026  121.9543   60.2131 H   0  0  0  0  0  0  0  0  0  0  0  0
  134.6547  122.3910   61.7310 H   0  0  0  0  0  0  0  0  0  0  0  0
  132.5139  121.2502   62.2259 H   0  0  0  0  0  0  0  0  0  0  0  0
  132.4795  122.9974   62.7610 H   0  0  0  0  0  0  0  0  0  0  0  0
  131.3640  122.6260   60.1490 H   0  0  0  0  0  0  0  0  0  0  0  0
  124.1933  123.7188   55.8266 H   0  0  0  0  0  0  0  0  0  0  0  0
  125.7985  124.3356   55.3073 H   0  0  0  0  0  0  0  0  0  0  0  0
  125.4721  122.5692   55.3073 H   0  0  0  0  0  0  0  0  0  0  0  0
  123.8392  123.8075   58.1490 H   0  0  0  0  0  0  0  0  0  0  0  0
  124.9212  123.6044   61.7437 H   0  0  0  0  0  0  0  0  0  0  0  0
  123.9586  124.7171   60.7132 H   0  0  0  0  0  0  0  0  0  0  0  0
  123.6001  122.9569   60.7132 H   0  0  0  0  0  0  0  0  0  0  0  0
  126.0730  123.3250   62.4300 H   0  0  0  0  0  0  0  0  0  0  0  0
  127.6520  123.1130   63.0830 H   0  0  0  0  0  0  0  0  0  0  0  0
  1  2  1  0
  2  3  1  0
  3  4  1  0
  4  5  1  0
  5  6  1  0
  6  7  1  0
  7  8  1  0
  8  9  1  0
  9 10  1  0
 10 11  1  0
 11 12  1  0
 12 13  2  0
 12 14  1  0
 14 15  1  0
 15 16  1  0
 16 17  2  0
 17 18  1  0
 18 19  1  0
 18 20  2  0
 20 21  1  0
 21 22  1  0
 21 23  2  0
 23 24  1  0
 24 25  1  0
 24 14  2  0
 23 16  1  0
  1 26  1  0
  1 27  1  0
  1 28  1  0
  3 29  1  0
  3 30  1  0
  4 31  1  0
  4 32  1  0
  6 33  1  0
  6 34  1  0
  7 35  1  0
  7 36  1  0
  9 37  1  0
  9 38  1  0
 10 39  1  0
 10 40  1  0
 11 41  1  0
 19 42  1  0
 19 43  1  0
 19 44  1  0
 20 45  1  0
 22 46  1  0
 22 47  1  0
 22 48  1  0
 25 49  1  0
 25 50  1  0
M  END
>  <Binding energies>  (1) 
[-5.52]

>  <Ligand effiencies>  (1) 
[-0.19714285714285712]

>  <Interactions>  (1) 
["V-A:LEU:475:CD2:4256, V-B:TYR:539:CD1:9845, V-B:TYR:539:C:9839, V-B:ASP:366:CG:8184, V-B:PRO:540:C:9853, V-B:TYR:539:CE1:9847, V-B:GLU:543:CD:9880, V-B:PRO:540:CB:9857, V-B:PRO:540:CA:9855, V-B:ALA:541:CB:9864, V-B:ASN:362:CB:8147, V-A:ASP:366:CG:3210, H-B:GLU:543:OE1:9881, V-B:PRO:540:N:9856, V-A:ILE:369:CD1:3236, V-B:ILE:538:CB:9834, V-B:TYR:539:CZ:9849, V-B:ILE:538:CG2:9835, V-A:TYR:531:CZ:4792, V-B:MET:535:CE:9807, V-A:ILE:369:CG2:3234, V-A:ILE:369:CB:3233, H-A:TYR:531:OH:4793, V-B:TYR:531:CZ:9766, V-A:ASP:366:C:3205, H-A:ASN:370:ND2:3245, V-A:ASP:366:CB:3209, V-A:ASP:366:CA:3207, V-B:TYR:531:CE2:9765, H-B:TYR:539:OH:9850, V-A:TYR:531:CE1:4790, V-B:ALA:541:CA:9862, V-B:LEU:363:CD1:8160, V-B:ASN:362:C:8143, V-A:ILE:369:CG1:3235, H-B:ALA:541:O:9861"]

$$$$
4al_Grossjean_2025
     RDKit          3D

 28 29  0  0  0  0  0  0  0  0999 V2000
  129.6210  123.8650   62.3780 C   0  0  0  0  0  0  0  0  0  0  0  0
  128.5760  122.9040   62.3720 O   0  0  0  0  0  0  0  0  0  0  0  0
  127.3510  123.2100   61.8700 C   0  0  0  0  0  0  0  0  0  0  0  0
  126.3790  123.5190   62.5630 O   0  0  0  0  0  0  0  0  0  0  0  0
  127.2990  123.1340   60.3930 C   0  0  0  0  0  0  0  0  0  0  0  0
  128.7160  122.5980   59.4870 S   0  0  0  0  0  0  0  0  0  0  0  0
  127.8680  122.7880   57.9700 C   0  0  0  0  0  0  0  0  0  0  0  0
  128.4490  122.5180   56.8000 N   0  0  0  0  0  0  0  0  0  0  0  0
  127.6820  122.7070   55.6970 C   0  0  0  0  0  0  0  0  0  0  0  0
  128.3620  122.3940   54.3760 C   0  0  0  0  0  0  0  0  0  0  0  0
  126.3640  123.1550   55.7380 C   0  0  0  0  0  0  0  0  0  0  0  0
  125.7580  123.4370   56.9660 C   0  0  0  0  0  0  0  0  0  0  0  0
  124.3170  123.9240   56.9600 C   0  0  0  0  0  0  0  0  0  0  0  0
  126.5310  123.2510   58.1440 C   0  0  0  0  0  0  0  0  0  0  0  0
  126.2340  123.4400   59.5370 C   0  0  0  0  0  0  0  0  0  0  0  0
  125.0130  123.8800   59.9800 N   0  0  0  0  0  0  0  0  0  0  0  0
  129.8877  124.1102   63.4166 H   0  0  0  0  0  0  0  0  0  0  0  0
  130.5005  123.4536   61.8610 H   0  0  0  0  0  0  0  0  0  0  0  0
  129.2845  124.7758   61.8610 H   0  0  0  0  0  0  0  0  0  0  0  0
  129.3458  121.9411   54.5683 H   0  0  0  0  0  0  0  0  0  0  0  0
  127.7409  121.6912   53.8013 H   0  0  0  0  0  0  0  0  0  0  0  0
  128.4919  123.3229   53.8013 H   0  0  0  0  0  0  0  0  0  0  0  0
  125.7992  123.2871   54.8033 H   0  0  0  0  0  0  0  0  0  0  0  0
  123.9658  124.0427   57.9956 H   0  0  0  0  0  0  0  0  0  0  0  0
  124.2591  124.8916   56.4400 H   0  0  0  0  0  0  0  0  0  0  0  0
  123.6840  123.1899   56.4400 H   0  0  0  0  0  0  0  0  0  0  0  0
  124.3280  124.2750   59.3520 H   0  0  0  0  0  0  0  0  0  0  0  0
  124.7560  123.8230   60.9560 H   0  0  0  0  0  0  0  0  0  0  0  0
  1  2  1  0
  2  3  1  0
  3  4  2  0
  3  5  1  0
  5  6  1  0
  6  7  1  0
  7  8  2  0
  8  9  1  0
  9 10  1  0
  9 11  2  0
 11 12  1  0
 12 13  1  0
 12 14  2  0
 14 15  1  0
 15 16  1  0
 15  5  2  0
 14  7  1  0
  1 17  1  0
  1 18  1  0
  1 19  1  0
 10 20  1  0
 10 21  1  0
 10 22  1  0
 11 23  1  0
 13 24  1  0
 13 25  1  0
 13 26  1  0
 16 27  1  0
 16 28  1  0
M  END
>  <Binding energies>  (1) 
[-5.69]

>  <Ligand effiencies>  (1) 
[-0.3161111111111111]

>  <Interactions>  (1) 
["V-B:TYR:539:CD1:9845, V-B:TYR:539:C:9839, V-B:ASP:366:CG:8184, V-B:PRO:540:C:9853, V-B:TYR:539:CE1:9847, V-B:PRO:540:CB:9857, V-B:PRO:540:CA:9855, H-B:ASP:366:OD2:8186, V-B:ALA:541:CB:9864, V-B:PRO:540:N:9856, H-B:ARG:545:NH2:9900, V-B:TYR:539:CE2:9848, V-B:ILE:538:CB:9834, H-B:TYR:539:N:9842, V-B:TYR:539:CD2:9846, V-B:ILE:538:CG2:9835, V-B:ILE:538:CA:9832, V-B:MET:535:CE:9807, V-B:TYR:531:CZ:9766, H-B:ALA:541:N:9863, V-B:TYR:531:CE2:9765, V-B:ILE:538:C:9830, V-B:VAL:537:C:9822, V-B:ALA:541:CA:9862, V-B:LEU:363:CD1:8160"]

$$$$
4ba_Grossjean_2025
     RDKit          3D

 44 46  0  0  0  0  0  0  0  0999 V2000
  127.2420  128.3210   73.8380 C   0  0  0  0  0  0  0  0  0  0  0  0
  127.6370  127.6390   72.5140 C   0  0  0  0  0  0  0  0  0  0  0  0
  128.8240  128.2860   71.7730 C   0  0  0  0  0  0  0  0  0  0  0  0
  129.4790  129.1710   72.3300 O   0  0  0  0  0  0  0  0  0  0  0  0
  129.1340  127.7950   70.3890 C   0  0  0  0  0  0  0  0  0  0  0  0
  130.4290  127.9500   69.8780 C   0  0  0  0  0  0  0  0  0  0  0  0
  130.7430  127.5050   68.5970 C   0  0  0  0  0  0  0  0  0  0  0  0
  129.7730  126.8940   67.8020 C   0  0  0  0  0  0  0  0  0  0  0  0
  130.1960  126.4900   66.5210 N   0  0  0  0  0  0  0  0  0  0  0  0
  130.5650  125.2660   66.0700 C   0  0  0  0  0  0  0  0  0  0  0  0
  130.6280  124.2590   66.7760 O   0  0  0  0  0  0  0  0  0  0  0  0
  130.9220  125.2050   64.6510 C   0  0  0  0  0  0  0  0  0  0  0  0
  132.1530  124.0730   64.0950 S   0  0  0  0  0  0  0  0  0  0  0  0
  132.0050  124.6470   62.4510 C   0  0  0  0  0  0  0  0  0  0  0  0
  132.7450  124.1370   61.4680 N   0  0  0  0  0  0  0  0  0  0  0  0
  132.5430  124.6620   60.2380 C   0  0  0  0  0  0  0  0  0  0  0  0
  133.4040  124.0730   59.1350 C   0  0  0  0  0  0  0  0  0  0  0  0
  131.6240  125.6730   59.9690 C   0  0  0  0  0  0  0  0  0  0  0  0
  130.8400  126.2150   61.0010 C   0  0  0  0  0  0  0  0  0  0  0  0
  129.8400  127.3230   60.6560 C   0  0  0  0  0  0  0  0  0  0  0  0
  129.8120  127.6140   59.3540 F   0  0  0  0  0  0  0  0  0  0  0  0
  128.6100  126.9490   61.0080 F   0  0  0  0  0  0  0  0  0  0  0  0
  130.1640  128.4400   61.3080 F   0  0  0  0  0  0  0  0  0  0  0  0
  131.0340  125.6860   62.3120 C   0  0  0  0  0  0  0  0  0  0  0  0
  130.4380  125.9890   63.5910 C   0  0  0  0  0  0  0  0  0  0  0  0
  129.4810  126.9590   63.7500 N   0  0  0  0  0  0  0  0  0  0  0  0
  128.4720  126.7410   68.3040 C   0  0  0  0  0  0  0  0  0  0  0  0
  128.1590  127.1870   69.5850 C   0  0  0  0  0  0  0  0  0  0  0  0
  127.5946  127.7121   74.6835 H   0  0  0  0  0  0  0  0  0  0  0  0
  127.7019  129.3190   73.8878 H   0  0  0  0  0  0  0  0  0  0  0  0
  126.1475  128.4187   73.8878 H   0  0  0  0  0  0  0  0  0  0  0  0
  127.9017  126.5944   72.7347 H   0  0  0  0  0  0  0  0  0  0  0  0
  126.7682  127.7396   71.8468 H   0  0  0  0  0  0  0  0  0  0  0  0
  131.2047  128.4276   70.4945 H   0  0  0  0  0  0  0  0  0  0  0  0
  131.7638  127.6361   68.2086 H   0  0  0  0  0  0  0  0  0  0  0  0
  130.2410  127.2400   65.8480 H   0  0  0  0  0  0  0  0  0  0  0  0
  134.2338  123.5053   59.5812 H   0  0  0  0  0  0  0  0  0  0  0  0
  132.7939  123.4022   58.5123 H   0  0  0  0  0  0  0  0  0  0  0  0
  133.8081  124.8847   58.5123 H   0  0  0  0  0  0  0  0  0  0  0  0
  131.5112  126.0497   58.9417 H   0  0  0  0  0  0  0  0  0  0  0  0
  128.4970  126.7360   63.8030 H   0  0  0  0  0  0  0  0  0  0  0  0
  129.7280  127.9370   63.8110 H   0  0  0  0  0  0  0  0  0  0  0  0
  127.6970  126.2672   67.6836 H   0  0  0  0  0  0  0  0  0  0  0  0
  127.1365  127.0612   69.9705 H   0  0  0  0  0  0  0  0  0  0  0  0
  1  2  1  0
  2  3  1  0
  3  4  2  0
  3  5  1  0
  5  6  2  0
  6  7  1  0
  7  8  2  0
  8  9  1  0
  9 10  1  0
 10 11  2  0
 10 12  1  0
 12 13  1  0
 13 14  1  0
 14 15  2  0
 15 16  1  0
 16 17  1  0
 16 18  2  0
 18 19  1  0
 19 20  1  0
 20 21  1  0
 20 22  1  0
 20 23  1  0
 19 24  2  0
 24 25  1  0
 25 26  1  0
  8 27  1  0
 27 28  2  0
 28  5  1  0
 25 12  2  0
 24 14  1  0
  1 29  1  0
  1 30  1  0
  1 31  1  0
  2 32  1  0
  2 33  1  0
  6 34  1  0
  7 35  1  0
  9 36  1  0
 17 37  1  0
 17 38  1  0
 17 39  1  0
 18 40  1  0
 26 41  1  0
 26 42  1  0
 27 43  1  0
 28 44  1  0
M  END
>  <Binding energies>  (1) 
[-6.3]

>  <Ligand effiencies>  (1) 
[-0.2032258064516129]

>  <Interactions>  (1) 
["V-B:LYS:547:CE:9922, V-B:HIS:456:CE1:9040, V-B:HIS:456:CD2:9039, V-B:HIS:456:CG:9037, V-A:HIS:456:CE1:4066, V-B:HIS:456:CB:9036, V-A:GLY:544:C:4910, V-B:GLU:543:CG:9879, H-A:TYR:484:OH:4345, V-B:GLU:543:CB:9878, V-B:TYR:539:CE1:9847, V-B:GLU:543:CD:9880, H-B:GLU:543:OE2:9882, V-A:ASP:366:CG:3210, H-B:GLU:543:OE1:9881, H-A:GLU:543:OE2:4908, H-A:GLU:543:OE1:4907, V-A:GLU:543:CD:4906, V-A:ILE:369:CG2:3234, V-A:ILE:369:CB:3233, V-B:GLY:544:CA:9886, V-B:GLU:543:C:9874, V-A:GLU:543:C:4900, H-A:HIS:456:NE2:4067, V-A:GLY:544:CA:4912, V-B:GLY:544:C:9884, H-B:HIS:456:NE2:9041, V-A:GLU:543:CG:4905"]

$$$$
4bb_Grossjean_2025
     RDKit          3D

 41 43  0  0  0  0  0  0  0  0999 V2000
  131.0620  126.8790   72.4500 C   0  0  0  0  0  0  0  0  0  0  0  0
  129.6840  126.5100   71.8980 C   0  0  0  0  0  0  0  0  0  0  0  0
  128.9490  125.8070   72.5940 O   0  0  0  0  0  0  0  0  0  0  0  0
  129.3050  127.0120   70.5370 C   0  0  0  0  0  0  0  0  0  0  0  0
  127.9810  126.8840   70.1010 C   0  0  0  0  0  0  0  0  0  0  0  0
  127.6030  127.3410   68.8420 C   0  0  0  0  0  0  0  0  0  0  0  0
  128.5390  127.9430   67.9980 C   0  0  0  0  0  0  0  0  0  0  0  0
  128.0510  128.3670   66.7460 N   0  0  0  0  0  0  0  0  0  0  0  0
  127.6170  129.5880   66.3480 C   0  0  0  0  0  0  0  0  0  0  0  0
  127.5550  130.5730   67.0830 O   0  0  0  0  0  0  0  0  0  0  0  0
  127.1800  129.6700   64.9520 C   0  0  0  0  0  0  0  0  0  0  0  0
  125.8830  130.7710   64.4920 S   0  0  0  0  0  0  0  0  0  0  0  0
  125.9660  130.2470   62.8260 C   0  0  0  0  0  0  0  0  0  0  0  0
  125.1640  130.7610   61.8950 N   0  0  0  0  0  0  0  0  0  0  0  0
  125.3220  130.2760   60.6420 C   0  0  0  0  0  0  0  0  0  0  0  0
  124.3990  130.8760   59.5960 C   0  0  0  0  0  0  0  0  0  0  0  0
  126.2520  129.2980   60.3010 C   0  0  0  0  0  0  0  0  0  0  0  0
  127.1000  128.7530   61.2780 C   0  0  0  0  0  0  0  0  0  0  0  0
  128.1080  127.6790   60.8550 C   0  0  0  0  0  0  0  0  0  0  0  0
  128.0960  127.4400   59.5410 F   0  0  0  0  0  0  0  0  0  0  0  0
  129.3420  128.0670   61.1790 F   0  0  0  0  0  0  0  0  0  0  0  0
  127.8310  126.5310   61.4720 F   0  0  0  0  0  0  0  0  0  0  0  0
  126.9600  129.2430   62.6110 C   0  0  0  0  0  0  0  0  0  0  0  0
  127.6340  128.9310   63.8470 C   0  0  0  0  0  0  0  0  0  0  0  0
  128.6350  127.9970   63.9290 N   0  0  0  0  0  0  0  0  0  0  0  0
  129.8700  128.0680   68.4260 C   0  0  0  0  0  0  0  0  0  0  0  0
  130.2460  127.6080   69.6850 C   0  0  0  0  0  0  0  0  0  0  0  0
  131.0308  126.8706   73.5495 H   0  0  0  0  0  0  0  0  0  0  0  0
  131.8054  126.1483   72.0987 H   0  0  0  0  0  0  0  0  0  0  0  0
  131.3408  127.8834   72.0987 H   0  0  0  0  0  0  0  0  0  0  0  0
  127.2328  126.4182   70.7592 H   0  0  0  0  0  0  0  0  0  0  0  0
  126.5606  127.2274   68.5095 H   0  0  0  0  0  0  0  0  0  0  0  0
  128.0020  127.6340   66.0540 H   0  0  0  0  0  0  0  0  0  0  0  0
  123.5772  131.4102   60.0953 H   0  0  0  0  0  0  0  0  0  0  0  0
  124.9651  131.5792   58.9675 H   0  0  0  0  0  0  0  0  0  0  0  0
  123.9861  130.0732   58.9675 H   0  0  0  0  0  0  0  0  0  0  0  0
  126.3228  128.9502   59.2599 H   0  0  0  0  0  0  0  0  0  0  0  0
  128.4450  127.0240   64.1200 H   0  0  0  0  0  0  0  0  0  0  0  0
  129.6050  128.2530   63.8000 H   0  0  0  0  0  0  0  0  0  0  0  0
  130.6177  128.5305   67.7650 H   0  0  0  0  0  0  0  0  0  0  0  0
  131.2903  127.7129   70.0144 H   0  0  0  0  0  0  0  0  0  0  0  0
  1  2  1  0
  2  3  2  0
  2  4  1  0
  4  5  2  0
  5  6  1  0
  6  7  2  0
  7  8  1  0
  8  9  1  0
  9 10  2  0
  9 11  1  0
 11 12  1  0
 12 13  1  0
 13 14  2  0
 14 15  1  0
 15 16  1  0
 15 17  2  0
 17 18  1  0
 18 19  1  0
 19 20  1  0
 19 21  1  0
 19 22  1  0
 18 23  2  0
 23 24  1  0
 24 25  1  0
  7 26  1  0
 26 27  2  0
 27  4  1  0
 24 11  2  0
 23 13  1  0
  1 28  1  0
  1 29  1  0
  1 30  1  0
  5 31  1  0
  6 32  1  0
  8 33  1  0
 16 34  1  0
 16 35  1  0
 16 36  1  0
 17 37  1  0
 25 38  1  0
 25 39  1  0
 26 40  1  0
 27 41  1  0
M  END
>  <Binding energies>  (1) 
[-6.31]

>  <Ligand effiencies>  (1) 
[-0.21033333333333332]

>  <Interactions>  (1) 
["H-B:LYS:547:NZ:9923, V-B:HIS:456:CE1:9040, V-A:HIS:456:CD2:4065, V-A:HIS:456:CE1:4066, V-A:HIS:456:CG:4063, V-A:GLY:544:C:4910, V-B:GLU:543:CG:9879, V-B:ASP:366:CG:8184, V-B:GLU:543:CD:9880, H-B:GLU:543:OE2:9882, H-B:GLU:543:OE1:9881, V-B:ASP:366:CB:8183, H-A:GLU:543:OE2:4908, H-A:GLU:543:OE1:4907, V-A:GLU:543:CD:4906, V-A:TYR:539:CE1:4873, H-B:TYR:484:OH:9319, V-A:GLU:543:CB:4904, V-B:GLY:544:CA:9886, V-B:GLU:543:C:9874, V-A:GLU:543:C:4900, H-A:HIS:456:NE2:4067, V-B:GLY:544:C:9884, H-B:HIS:456:NE2:9041, V-A:GLU:543:CG:4905"]

$$$$
4bc_Grossjean_2025
     RDKit          3D

 40 42  0  0  0  0  0  0  0  0999 V2000
  123.8770  129.8140   67.5850 C   0  0  0  0  0  0  0  0  0  0  0  0
  123.7330  129.4960   66.2050 O   0  0  0  0  0  0  0  0  0  0  0  0
  124.8000  129.7040   65.3510 C   0  0  0  0  0  0  0  0  0  0  0  0
  124.4870  129.9740   64.0190 C   0  0  0  0  0  0  0  0  0  0  0  0
  125.4960  130.1960   63.0850 C   0  0  0  0  0  0  0  0  0  0  0  0
  126.8360  130.1590   63.4750 C   0  0  0  0  0  0  0  0  0  0  0  0
  127.7840  130.3800   62.4600 N   0  0  0  0  0  0  0  0  0  0  0  0
  127.7150  130.0760   61.1410 C   0  0  0  0  0  0  0  0  0  0  0  0
  126.7630  129.4940   60.6190 O   0  0  0  0  0  0  0  0  0  0  0  0
  128.8740  130.4810   60.3400 C   0  0  0  0  0  0  0  0  0  0  0  0
  128.7400  130.6110   58.5880 S   0  0  0  0  0  0  0  0  0  0  0  0
  130.4140  131.0950   58.4490 C   0  0  0  0  0  0  0  0  0  0  0  0
  130.9630  131.3660   57.2660 N   0  0  0  0  0  0  0  0  0  0  0  0
  132.2670  131.7280   57.2850 C   0  0  0  0  0  0  0  0  0  0  0  0
  132.8720  132.0370   55.9280 C   0  0  0  0  0  0  0  0  0  0  0  0
  133.0270  131.8240   58.4490 C   0  0  0  0  0  0  0  0  0  0  0  0
  132.4530  131.5400   59.6970 C   0  0  0  0  0  0  0  0  0  0  0  0
  133.3300  131.6570   60.9490 C   0  0  0  0  0  0  0  0  0  0  0  0
  132.8260  132.4880   61.8630 F   0  0  0  0  0  0  0  0  0  0  0  0
  133.4580  130.4610   61.5230 F   0  0  0  0  0  0  0  0  0  0  0  0
  134.5360  132.1160   60.6140 F   0  0  0  0  0  0  0  0  0  0  0  0
  131.0790  131.1560   59.7120 C   0  0  0  0  0  0  0  0  0  0  0  0
  130.1690  130.8010   60.7750 C   0  0  0  0  0  0  0  0  0  0  0  0
  130.5450  130.7820   62.0940 N   0  0  0  0  0  0  0  0  0  0  0  0
  127.1590  129.8740   64.8110 C   0  0  0  0  0  0  0  0  0  0  0  0
  126.1480  129.6520   65.7410 C   0  0  0  0  0  0  0  0  0  0  0  0
  123.4993  128.9800   68.1948 H   0  0  0  0  0  0  0  0  0  0  0  0
  124.9396  129.9834   67.8133 H   0  0  0  0  0  0  0  0  0  0  0  0
  123.3033  130.7244   67.8133 H   0  0  0  0  0  0  0  0  0  0  0  0
  123.4340  130.0120   63.7033 H   0  0  0  0  0  0  0  0  0  0  0  0
  125.2361  130.4013   62.0360 H   0  0  0  0  0  0  0  0  0  0  0  0
  128.6470  130.7970   62.7780 H   0  0  0  0  0  0  0  0  0  0  0  0
  133.8441  132.5335   56.0644 H   0  0  0  0  0  0  0  0  0  0  0  0
  133.0138  131.1009   55.3680 H   0  0  0  0  0  0  0  0  0  0  0  0
  132.1967  132.7006   55.3680 H   0  0  0  0  0  0  0  0  0  0  0  0
  134.0835  132.1243   58.3888 H   0  0  0  0  0  0  0  0  0  0  0  0
  130.7250  131.6300   62.6120 H   0  0  0  0  0  0  0  0  0  0  0  0
  130.6520  129.9110   62.5960 H   0  0  0  0  0  0  0  0  0  0  0  0
  128.2127  129.8261   65.1232 H   0  0  0  0  0  0  0  0  0  0  0  0
  126.4063  129.4345   66.7879 H   0  0  0  0  0  0  0  0  0  0  0  0
  1  2  1  0
  2  3  1  0
  3  4  2  0
  4  5  1  0
  5  6  2  0
  6  7  1  0
  7  8  1  0
  8  9  2  0
  8 10  1  0
 10 11  1  0
 11 12  1  0
 12 13  2  0
 13 14  1  0
 14 15  1  0
 14 16  2  0
 16 17  1  0
 17 18  1  0
 18 19  1  0
 18 20  1  0
 18 21  1  0
 17 22  2  0
 22 23  1  0
 23 24  1  0
  6 25  1  0
 25 26  2  0
 26  3  1  0
 23 10  2  0
 22 12  1  0
  1 27  1  0
  1 28  1  0
  1 29  1  0
  4 30  1  0
  5 31  1  0
  7 32  1  0
 15 33  1  0
 15 34  1  0
 15 35  1  0
 16 36  1  0
 24 37  1  0
 24 38  1  0
 25 39  1  0
 26 40  1  0
M  END
>  <Binding energies>  (1) 
[-5.86]

>  <Ligand effiencies>  (1) 
[-0.20206896551724138]

>  <Interactions>  (1) 
["V-B:HIS:456:CE1:9040, V-A:ARG:545:CZ:4924, V-B:ARG:545:CZ:9898, V-A:ASP:366:CG:3210, H-A:GLU:543:OE2:4908, H-A:GLU:543:OE1:4907, V-A:GLU:543:CD:4906, H-B:ARG:545:NE:9896, V-B:GLY:453:CA:9015, V-A:PRO:540:CA:4881, V-B:ARG:545:CD:9895, V-B:ARG:545:CG:9894, V-A:PRO:540:CB:4883, V-A:LEU:363:CD1:3186, V-A:ILE:538:CB:4860, V-A:ILE:538:CG2:4861, V-A:TYR:531:CE2:4791, V-A:TYR:531:CZ:4792, H-B:TYR:484:OH:9319, H-B:GLY:454:N:9021, H-A:TYR:531:OH:4793, V-B:TYR:484:CZ:9318, V-A:PRO:540:C:4879, V-B:GLY:454:CA:9020, V-A:LEU:363:CA:3182, V-A:LEU:363:CB:3184, V-A:ALA:541:CA:4888, V-A:ASN:362:CB:3173, V-A:ASN:362:C:3169, H-A:ALA:541:O:4887, V-A:ALA:541:C:4886, V-B:GLY:454:C:9018, V-B:ARG:545:CB:9893, V-A:ASN:362:CA:3171, V-B:ILE:455:C:9023, V-B:TYR:484:CE1:9316"]

$$$$
4bd_Grossjean_2025
     RDKit          3D

 36 38  0  0  0  0  0  0  0  0999 V2000
  125.9670  117.1460   71.5990 C   0  0  0  0  0  0  0  0  0  0  0  0
  126.8240  118.0420   72.4760 C   0  0  0  0  0  0  0  0  0  0  0  0
  127.2240  117.6340   73.7450 C   0  0  0  0  0  0  0  0  0  0  0  0
  128.0140  118.4740   74.5460 C   0  0  0  0  0  0  0  0  0  0  0  0
  128.4270  117.9830   75.9380 C   0  0  0  0  0  0  0  0  0  0  0  0
  127.9900  118.7740   76.9210 F   0  0  0  0  0  0  0  0  0  0  0  0
  127.9300  116.7660   76.1540 F   0  0  0  0  0  0  0  0  0  0  0  0
  129.7560  117.9390   76.0240 F   0  0  0  0  0  0  0  0  0  0  0  0
  128.3800  119.7410   74.0010 C   0  0  0  0  0  0  0  0  0  0  0  0
  129.1610  120.8410   74.5120 C   0  0  0  0  0  0  0  0  0  0  0  0
  129.7450  120.8190   75.7520 N   0  0  0  0  0  0  0  0  0  0  0  0
  129.2680  121.9280   73.6280 C   0  0  0  0  0  0  0  0  0  0  0  0
  129.9660  123.2020   73.8280 C   0  0  0  0  0  0  0  0  0  0  0  0
  129.4380  124.2650   73.5010 O   0  0  0  0  0  0  0  0  0  0  0  0
  131.1940  123.1090   74.3960 N   0  0  0  0  0  0  0  0  0  0  0  0
  132.1260  124.1230   74.6810 C   0  0  0  0  0  0  0  0  0  0  0  0
  131.7770  125.4110   74.2640 C   0  0  0  0  0  0  0  0  0  0  0  0
  132.6290  126.4840   74.5090 C   0  0  0  0  0  0  0  0  0  0  0  0
  133.8300  126.2730   75.1810 C   0  0  0  0  0  0  0  0  0  0  0  0
  134.1840  124.9970   75.6140 C   0  0  0  0  0  0  0  0  0  0  0  0
  133.3340  123.9210   75.3700 C   0  0  0  0  0  0  0  0  0  0  0  0
  128.4040  121.6150   72.1250 S   0  0  0  0  0  0  0  0  0  0  0  0
  127.9030  120.0380   72.6870 C   0  0  0  0  0  0  0  0  0  0  0  0
  127.1540  119.2360   71.9320 N   0  0  0  0  0  0  0  0  0  0  0  0
  125.3461  116.4969   72.2340 H   0  0  0  0  0  0  0  0  0  0  0  0
  125.3180  117.7669   70.9639 H   0  0  0  0  0  0  0  0  0  0  0  0
  126.6161  116.5253   70.9639 H   0  0  0  0  0  0  0  0  0  0  0  0
  126.9192  116.6469   74.1229 H   0  0  0  0  0  0  0  0  0  0  0  0
  129.2050  120.6830   76.5950 H   0  0  0  0  0  0  0  0  0  0  0  0
  130.7430  120.9340   75.8660 H   0  0  0  0  0  0  0  0  0  0  0  0
  131.4860  122.1840   74.6750 H   0  0  0  0  0  0  0  0  0  0  0  0
  130.8244  125.5772   73.7397 H   0  0  0  0  0  0  0  0  0  0  0  0
  132.3545  127.4948   74.1730 H   0  0  0  0  0  0  0  0  0  0  0  0
  134.5048  127.1206   75.3716 H   0  0  0  0  0  0  0  0  0  0  0  0
  135.1330  124.8397   76.1475 H   0  0  0  0  0  0  0  0  0  0  0  0
  133.6081  122.9136   75.7164 H   0  0  0  0  0  0  0  0  0  0  0  0
  1  2  1  0
  2  3  2  0
  3  4  1  0
  4  5  1  0
  5  6  1  0
  5  7  1  0
  5  8  1  0
  4  9  2  0
  9 10  1  0
 10 11  1  0
 10 12  2  0
 12 13  1  0
 13 14  2  0
 13 15  1  0
 15 16  1  0
 16 17  2  0
 17 18  1  0
 18 19  2  0
 19 20  1  0
 20 21  2  0
 12 22  1  0
 22 23  1  0
 23 24  2  0
 24  2  1  0
 23  9  1  0
 21 16  1  0
  1 25  1  0
  1 26  1  0
  1 27  1  0
  3 28  1  0
 11 29  1  0
 11 30  1  0
 15 31  1  0
 17 32  1  0
 18 33  1  0
 19 34  1  0
 20 35  1  0
 21 36  1  0
M  END
>  <Binding energies>  (1) 
[-6.51]

>  <Ligand effiencies>  (1) 
[-0.2411111111111111]

>  <Interactions>  (1) 
["V-B:LYS:547:CE:9922, V-A:VAL:458:CG2:4084, H-B:LYS:547:NZ:9923, V-A:HIS:456:CD2:4065, V-A:LYS:547:CE:4948, V-A:LYS:547:CD:4947, V-A:LYS:471:CD:4216, V-A:HIS:456:CB:4062, V-A:ASP:473:CG:4237, V-A:HIS:456:CG:4063, V-A:HIS:456:C:4058, V-B:GLY:544:CA:9886, V-B:GLU:543:C:9874, V-A:TYR:484:CD2:4341, H-A:ASP:473:OD2:4239, V-A:TYR:484:CB:4338, V-A:TYR:484:CG:4339, V-B:GLU:543:CA:9876, H-A:TYR:484:N:4337, V-A:SER:483:CB:4330, V-B:VAL:542:CG1:9871"]

$$$$
4be_Grossjean_2025
     RDKit          3D

 38 40  0  0  0  0  0  0  0  0999 V2000
  123.5210  130.9350   62.4680 C   0  0  0  0  0  0  0  0  0  0  0  0
  124.8390  130.6740   63.1720 C   0  0  0  0  0  0  0  0  0  0  0  0
  125.3700  131.5830   64.0900 C   0  0  0  0  0  0  0  0  0  0  0  0
  126.5880  131.2780   64.6980 C   0  0  0  0  0  0  0  0  0  0  0  0
  127.2400  130.0850   64.3780 C   0  0  0  0  0  0  0  0  0  0  0  0
  126.6490  129.2150   63.4540 C   0  0  0  0  0  0  0  0  0  0  0  0
  127.3580  128.0340   63.1700 N   0  0  0  0  0  0  0  0  0  0  0  0
  127.5620  127.4310   61.9720 C   0  0  0  0  0  0  0  0  0  0  0  0
  127.1310  127.8650   60.9020 O   0  0  0  0  0  0  0  0  0  0  0  0
  128.3280  126.1820   62.0190 C   0  0  0  0  0  0  0  0  0  0  0  0
  127.7280  124.7440   61.1940 S   0  0  0  0  0  0  0  0  0  0  0  0
  129.0960  123.8040   61.7420 C   0  0  0  0  0  0  0  0  0  0  0  0
  129.2320  122.5200   61.4150 N   0  0  0  0  0  0  0  0  0  0  0  0
  130.3330  121.8980   61.8960 C   0  0  0  0  0  0  0  0  0  0  0  0
  130.4680  120.4350   61.5160 C   0  0  0  0  0  0  0  0  0  0  0  0
  131.2930  122.5250   62.6860 C   0  0  0  0  0  0  0  0  0  0  0  0
  131.1560  123.8780   63.0330 C   0  0  0  0  0  0  0  0  0  0  0  0
  132.2400  124.5250   63.9010 C   0  0  0  0  0  0  0  0  0  0  0  0
  132.8340  125.5630   63.3070 F   0  0  0  0  0  0  0  0  0  0  0  0
  131.7020  124.9720   65.0360 F   0  0  0  0  0  0  0  0  0  0  0  0
  133.1870  123.6310   64.1840 F   0  0  0  0  0  0  0  0  0  0  0  0
  130.0030  124.5620   62.5450 C   0  0  0  0  0  0  0  0  0  0  0  0
  129.5300  125.9170   62.6940 C   0  0  0  0  0  0  0  0  0  0  0  0
  130.2030  126.8610   63.4270 N   0  0  0  0  0  0  0  0  0  0  0  0
  125.4600  129.5100   62.8510 N   0  0  0  0  0  0  0  0  0  0  0  0
  122.7302  131.0916   63.2165 H   0  0  0  0  0  0  0  0  0  0  0  0
  123.6130  131.8324   61.8385 H   0  0  0  0  0  0  0  0  0  0  0  0
  123.2640  130.0703   61.8385 H   0  0  0  0  0  0  0  0  0  0  0  0
  124.8403  132.5173   64.3279 H   0  0  0  0  0  0  0  0  0  0  0  0
  127.0324  131.9732   65.4254 H   0  0  0  0  0  0  0  0  0  0  0  0
  128.2035  129.8328   64.8450 H   0  0  0  0  0  0  0  0  0  0  0  0
  127.7270  127.5600   63.9800 H   0  0  0  0  0  0  0  0  0  0  0  0
  130.5245  119.8229   62.4282 H   0  0  0  0  0  0  0  0  0  0  0  0
  129.5943  120.1283   60.9222 H   0  0  0  0  0  0  0  0  0  0  0  0
  131.3830  120.2933   60.9222 H   0  0  0  0  0  0  0  0  0  0  0  0
  132.1650  121.9559   63.0406 H   0  0  0  0  0  0  0  0  0  0  0  0
  129.7610  127.7150   63.7340 H   0  0  0  0  0  0  0  0  0  0  0  0
  131.1730  126.7340   63.6800 H   0  0  0  0  0  0  0  0  0  0  0  0
  1  2  1  0
  2  3  2  0
  3  4  1  0
  4  5  2  0
  5  6  1  0
  6  7  1  0
  7  8  1  0
  8  9  2  0
  8 10  1  0
 10 11  1  0
 11 12  1  0
 12 13  2  0
 13 14  1  0
 14 15  1  0
 14 16  2  0
 16 17  1  0
 17 18  1  0
 18 19  1  0
 18 20  1  0
 18 21  1  0
 17 22  2  0
 22 23  1  0
 23 24  1  0
  6 25  2  0
 25  2  1  0
 23 10  2  0
 22 12  1  0
  1 26  1  0
  1 27  1  0
  1 28  1  0
  3 29  1  0
  4 30  1  0
  5 31  1  0
  7 32  1  0
 15 33  1  0
 15 34  1  0
 15 35  1  0
 16 36  1  0
 24 37  1  0
 24 38  1  0
M  END
>  <Binding energies>  (1) 
[-5.68]

>  <Ligand effiencies>  (1) 
[-0.20285714285714285]

>  <Interactions>  (1) 
["V-A:LEU:475:CD2:4256, V-A:GLY:454:CA:4046, V-B:TYR:539:CD1:9845, V-B:GLU:543:CD:9880, V-A:ARG:545:CZ:4924, V-B:ALA:541:CB:9864, H-B:GLU:543:OE2:9882, V-B:ARG:545:CZ:9898, H-B:GLU:543:OE1:9881, H-A:GLU:543:OE2:4908, H-A:GLU:543:OE1:4907, V-A:GLU:543:CD:4906, V-A:GLY:453:C:4039, H-B:ARG:545:NH2:9900, V-B:GLY:453:CA:9015, V-B:ILE:369:CD1:8210, V-B:GLY:453:C:9013, V-B:TYR:484:CZ:9318, V-B:GLY:454:CA:9020"]

$$$$
4bf_Grossjean_2025
     RDKit          3D

 35 37  0  0  0  0  0  0  0  0999 V2000
  132.2230  132.3040   55.9110 C   0  0  0  0  0  0  0  0  0  0  0  0
  131.7090  132.0530   57.3190 C   0  0  0  0  0  0  0  0  0  0  0  0
  132.5900  131.8840   58.3840 C   0  0  0  0  0  0  0  0  0  0  0  0
  132.1020  131.6500   59.6780 C   0  0  0  0  0  0  0  0  0  0  0  0
  133.1090  131.4670   60.8190 C   0  0  0  0  0  0  0  0  0  0  0  0
  133.1060  132.4840   61.6860 F   0  0  0  0  0  0  0  0  0  0  0  0
  132.8220  130.3590   61.5020 F   0  0  0  0  0  0  0  0  0  0  0  0
  134.3420  131.3720   60.3210 F   0  0  0  0  0  0  0  0  0  0  0  0
  130.6860  131.5940   59.8420 C   0  0  0  0  0  0  0  0  0  0  0  0
  129.8380  131.3760   60.9880 C   0  0  0  0  0  0  0  0  0  0  0  0
  130.3380  131.1690   62.2490 N   0  0  0  0  0  0  0  0  0  0  0  0
  128.4630  131.4000   60.7000 C   0  0  0  0  0  0  0  0  0  0  0  0
  127.3340  131.1860   61.6100 C   0  0  0  0  0  0  0  0  0  0  0  0
  126.2100  131.5990   61.3240 O   0  0  0  0  0  0  0  0  0  0  0  0
  127.6260  130.5050   62.7460 N   0  0  0  0  0  0  0  0  0  0  0  0
  126.7940  130.1800   63.8340 C   0  0  0  0  0  0  0  0  0  0  0  0
  127.2360  129.7520   65.0990 C   0  0  0  0  0  0  0  0  0  0  0  0
  126.3020  129.4460   66.0900 C   0  0  0  0  0  0  0  0  0  0  0  0
  124.9450  129.5700   65.7910 C   0  0  0  0  0  0  0  0  0  0  0  0
  124.4920  129.9730   64.5770 N   0  0  0  0  0  0  0  0  0  0  0  0
  125.4130  130.2670   63.6230 C   0  0  0  0  0  0  0  0  0  0  0  0
  128.1780  131.6900   58.9850 S   0  0  0  0  0  0  0  0  0  0  0  0
  129.8940  131.7840   58.6670 C   0  0  0  0  0  0  0  0  0  0  0  0
  130.3620  132.0070   57.4400 N   0  0  0  0  0  0  0  0  0  0  0  0
  133.2104  132.7862   55.9616 H   0  0  0  0  0  0  0  0  0  0  0  0
  132.3094  131.3467   55.3761 H   0  0  0  0  0  0  0  0  0  0  0  0
  131.5212  132.9608   55.3761 H   0  0  0  0  0  0  0  0  0  0  0  0
  133.6749  131.9343   58.2095 H   0  0  0  0  0  0  0  0  0  0  0  0
  130.7070  130.2740   62.5370 H   0  0  0  0  0  0  0  0  0  0  0  0
  130.3550  131.9110   62.9350 H   0  0  0  0  0  0  0  0  0  0  0  0
  128.5740  130.1700   62.8320 H   0  0  0  0  0  0  0  0  0  0  0  0
  128.3123  129.6589   65.3061 H   0  0  0  0  0  0  0  0  0  0  0  0
  126.6292  129.1139   67.0863 H   0  0  0  0  0  0  0  0  0  0  0  0
  124.2100  129.3306   66.5736 H   0  0  0  0  0  0  0  0  0  0  0  0
  125.0554  130.5899   62.6341 H   0  0  0  0  0  0  0  0  0  0  0  0
  1  2  1  0
  2  3  2  0
  3  4  1  0
  4  5  1  0
  5  6  1  0
  5  7  1  0
  5  8  1  0
  4  9  2  0
  9 10  1  0
 10 11  1  0
 10 12  2  0
 12 13  1  0
 13 14  2  0
 13 15  1  0
 15 16  1  0
 16 17  2  0
 17 18  1  0
 18 19  2  0
 19 20  1  0
 20 21  2  0
 12 22  1  0
 22 23  1  0
 23 24  2  0
 24  2  1  0
 23  9  1  0
 21 16  1  0
  1 25  1  0
  1 26  1  0
  1 27  1  0
  3 28  1  0
 11 29  1  0
 11 30  1  0
 15 31  1  0
 17 32  1  0
 18 33  1  0
 19 34  1  0
 21 35  1  0
M  END
>  <Binding energies>  (1) 
[-6.81]

>  <Ligand effiencies>  (1) 
[-0.2522222222222222]

>  <Interactions>  (1) 
["V-B:HIS:456:CE1:9040, V-A:ARG:545:CZ:4924, V-B:ARG:545:CZ:9898, V-A:ASP:366:CG:3210, H-A:GLU:543:OE2:4908, H-A:GLU:543:OE1:4907, V-A:GLU:543:CD:4906, H-B:ARG:545:NH2:9900, V-A:TYR:539:CE1:4873, H-B:ARG:545:NE:9896, V-A:PRO:540:CA:4881, V-B:ARG:545:CD:9895, V-A:TYR:539:CD1:4871, V-B:ARG:545:CG:9894, V-A:PRO:540:CB:4883, V-A:PRO:540:N:4882, V-A:LEU:363:CD1:3186, V-A:ILE:538:CB:4860, V-A:ILE:538:CG2:4861, V-A:TYR:531:CE2:4791, H-B:TYR:484:OH:9319, H-B:GLY:454:N:9021, V-A:PRO:540:C:4879, V-A:LEU:363:CA:3182, V-A:ALA:541:CA:4888, V-A:ASN:362:CB:3173, V-A:ASN:362:C:3169, H-A:ALA:541:O:4887, V-A:ALA:541:C:4886, V-A:ASN:362:CA:3171"]

$$$$
4bg_Grossjean_2025
     RDKit          3D

 39 41  0  0  0  0  0  0  0  0999 V2000
  128.3020  122.5770   54.2820 C   0  0  0  0  0  0  0  0  0  0  0  0
  127.7640  122.8080   55.6820 C   0  0  0  0  0  0  0  0  0  0  0  0
  126.4590  123.2460   55.8850 C   0  0  0  0  0  0  0  0  0  0  0  0
  125.9750  123.4610   57.1860 C   0  0  0  0  0  0  0  0  0  0  0  0
  124.5320  123.9450   57.3610 C   0  0  0  0  0  0  0  0  0  0  0  0
  123.8540  123.2440   58.2730 F   0  0  0  0  0  0  0  0  0  0  0  0
  124.5280  125.2190   57.7520 F   0  0  0  0  0  0  0  0  0  0  0  0
  123.8760  123.8360   56.2060 F   0  0  0  0  0  0  0  0  0  0  0  0
  126.8740  123.2090   58.2650 C   0  0  0  0  0  0  0  0  0  0  0  0
  126.7440  123.3200   59.6980 C   0  0  0  0  0  0  0  0  0  0  0  0
  125.5920  123.7490   60.3080 N   0  0  0  0  0  0  0  0  0  0  0  0
  127.8940  122.9420   60.4070 C   0  0  0  0  0  0  0  0  0  0  0  0
  128.1200  122.9590   61.8520 C   0  0  0  0  0  0  0  0  0  0  0  0
  127.1920  123.1160   62.6470 O   0  0  0  0  0  0  0  0  0  0  0  0
  129.3920  122.7540   62.2530 N   0  0  0  0  0  0  0  0  0  0  0  0
  129.8540  122.7440   63.6410 C   0  0  0  0  0  0  0  0  0  0  0  0
  131.0470  123.6550   63.8940 C   0  0  0  0  0  0  0  0  0  0  0  0
  132.1640  123.5980   63.0540 C   0  0  0  0  0  0  0  0  0  0  0  0
  133.2370  124.4590   63.2640 C   0  0  0  0  0  0  0  0  0  0  0  0
  133.1870  125.3850   64.3040 C   0  0  0  0  0  0  0  0  0  0  0  0
  132.0710  125.4590   65.1340 C   0  0  0  0  0  0  0  0  0  0  0  0
  130.9970  124.5970   64.9250 C   0  0  0  0  0  0  0  0  0  0  0  0
  129.1950  122.4720   59.3170 S   0  0  0  0  0  0  0  0  0  0  0  0
  128.1840  122.7550   57.9200 C   0  0  0  0  0  0  0  0  0  0  0  0
  128.6390  122.5560   56.6830 N   0  0  0  0  0  0  0  0  0  0  0  0
  129.3112  122.1437   54.3439 H   0  0  0  0  0  0  0  0  0  0  0  0
  127.6381  121.8846   53.7437 H   0  0  0  0  0  0  0  0  0  0  0  0
  128.3468  123.5352   53.7437 H   0  0  0  0  0  0  0  0  0  0  0  0
  125.8021  123.4251   55.0211 H   0  0  0  0  0  0  0  0  0  0  0  0
  124.8920  124.2810   59.8140 H   0  0  0  0  0  0  0  0  0  0  0  0
  125.4100  123.5520   61.2830 H   0  0  0  0  0  0  0  0  0  0  0  0
  130.1130  122.7130   61.5470 H   0  0  0  0  0  0  0  0  0  0  0  0
  129.0246  123.0704   64.2857 H   0  0  0  0  0  0  0  0  0  0  0  0
  130.1796  121.7174   63.8647 H   0  0  0  0  0  0  0  0  0  0  0  0
  132.1943  122.8727   62.2275 H   0  0  0  0  0  0  0  0  0  0  0  0
  134.1212  124.4087   62.6115 H   0  0  0  0  0  0  0  0  0  0  0  0
  134.0365  126.0636   64.4710 H   0  0  0  0  0  0  0  0  0  0  0  0
  132.0379  126.1949   65.9509 H   0  0  0  0  0  0  0  0  0  0  0  0
  130.1092  124.6578   65.5717 H   0  0  0  0  0  0  0  0  0  0  0  0
  1  2  1  0
  2  3  2  0
  3  4  1  0
  4  5  1  0
  5  6  1  0
  5  7  1  0
  5  8  1  0
  4  9  2  0
  9 10  1  0
 10 11  1  0
 10 12  2  0
 12 13  1  0
 13 14  2  0
 13 15  1  0
 15 16  1  0
 16 17  1  0
 17 18  2  0
 18 19  1  0
 19 20  2  0
 20 21  1  0
 21 22  2  0
 12 23  1  0
 23 24  1  0
 24 25  2  0
 25  2  1  0
 24  9  1  0
 22 17  1  0
  1 26  1  0
  1 27  1  0
  1 28  1  0
  3 29  1  0
 11 30  1  0
 11 31  1  0
 15 32  1  0
 16 33  1  0
 16 34  1  0
 18 35  1  0
 19 36  1  0
 20 37  1  0
 21 38  1  0
 22 39  1  0
M  END
>  <Binding energies>  (1) 
[-6.7]

>  <Ligand effiencies>  (1) 
[-0.2392857142857143]

>  <Interactions>  (1) 
["V-A:GLY:454:CA:4046, V-B:TYR:539:CD1:9845, V-B:TYR:539:C:9839, V-B:ASP:366:CG:8184, V-B:TYR:539:CE1:9847, V-B:GLU:543:CD:9880, V-B:PRO:540:CB:9857, V-A:ARG:545:CZ:4924, V-B:PRO:540:CA:9855, H-B:ASP:366:OD2:8186, V-B:ALA:541:CB:9864, V-B:ASP:366:CB:8183, V-B:PRO:540:N:9856, V-A:ARG:545:CD:4921, V-B:TYR:539:CE2:9848, V-B:TYR:539:CG:9844, V-B:ILE:538:CB:9834, H-B:TYR:539:N:9842, V-B:TYR:539:CD2:9846, V-B:PRO:540:CD:9859, V-B:ILE:538:CG2:9835, V-B:ILE:538:CA:9832, V-B:MET:535:CE:9807, V-B:TYR:531:CZ:9766, H-B:ALA:541:N:9863, V-B:TYR:531:CE2:9765, V-B:ILE:538:C:9830, V-B:PRO:540:CG:9858, V-B:VAL:537:C:9822, V-B:ALA:541:CA:9862, V-B:LEU:363:CD1:8160, V-B:LEU:363:CA:8156, V-B:LEU:363:CB:8158, V-B:TYR:531:CD2:9763"]

$$$$
4bh_Grossjean_2025
     RDKit          3D

 51 53  0  0  0  0  0  0  0  0999 V2000
  129.8970  121.0170   61.4270 C   0  0  0  0  0  0  0  0  0  0  0  0
  131.2640  121.1170   61.8100 O   0  0  0  0  0  0  0  0  0  0  0  0
  131.9270  122.3200   61.6560 C   0  0  0  0  0  0  0  0  0  0  0  0
  132.1590  122.9350   60.4160 C   0  0  0  0  0  0  0  0  0  0  0  0
  132.8380  124.1510   60.3350 C   0  0  0  0  0  0  0  0  0  0  0  0
  133.0400  124.8260   58.9840 C   0  0  0  0  0  0  0  0  0  0  0  0
  131.9660  125.7520   58.6270 N   0  0  0  0  0  0  0  0  0  0  0  0
  131.6480  126.1350   57.3720 C   0  0  0  0  0  0  0  0  0  0  0  0
  132.2810  125.7580   56.3840 O   0  0  0  0  0  0  0  0  0  0  0  0
  130.5280  127.0690   57.2500 C   0  0  0  0  0  0  0  0  0  0  0  0
  128.9430  126.4840   56.7550 S   0  0  0  0  0  0  0  0  0  0  0  0
  128.2810  128.1010   56.8120 C   0  0  0  0  0  0  0  0  0  0  0  0
  127.0040  128.3400   56.5190 N   0  0  0  0  0  0  0  0  0  0  0  0
  126.6070  129.6310   56.6010 C   0  0  0  0  0  0  0  0  0  0  0  0
  125.1480  129.8810   56.2620 C   0  0  0  0  0  0  0  0  0  0  0  0
  127.4480  130.6790   56.9680 C   0  0  0  0  0  0  0  0  0  0  0  0
  128.7950  130.4330   57.2760 C   0  0  0  0  0  0  0  0  0  0  0  0
  129.6820  131.6170   57.6760 C   0  0  0  0  0  0  0  0  0  0  0  0
  130.1960  131.4950   58.9020 F   0  0  0  0  0  0  0  0  0  0  0  0
  130.7020  131.7250   56.8260 F   0  0  0  0  0  0  0  0  0  0  0  0
  128.9690  132.7430   57.6530 F   0  0  0  0  0  0  0  0  0  0  0  0
  129.2470  129.0830   57.1960 C   0  0  0  0  0  0  0  0  0  0  0  0
  130.5280  128.4610   57.4270 C   0  0  0  0  0  0  0  0  0  0  0  0
  131.6420  129.1710   57.7940 N   0  0  0  0  0  0  0  0  0  0  0  0
  133.2670  124.7780   61.5070 C   0  0  0  0  0  0  0  0  0  0  0  0
  133.0550  124.1840   62.7600 C   0  0  0  0  0  0  0  0  0  0  0  0
  133.4650  124.7410   63.9580 O   0  0  0  0  0  0  0  0  0  0  0  0
  132.5020  125.3590   64.8050 C   0  0  0  0  0  0  0  0  0  0  0  0
  132.3890  122.9510   62.8210 C   0  0  0  0  0  0  0  0  0  0  0  0
  132.1590  122.3660   64.0440 O   0  0  0  0  0  0  0  0  0  0  0  0
  130.8060  122.4360   64.4720 C   0  0  0  0  0  0  0  0  0  0  0  0
  129.2664  120.9709   62.3272 H   0  0  0  0  0  0  0  0  0  0  0  0
  129.6185  121.8972   60.8289 H   0  0  0  0  0  0  0  0  0  0  0  0
  129.7495  120.1057   60.8289 H   0  0  0  0  0  0  0  0  0  0  0  0
  131.8005  122.4516   59.4953 H   0  0  0  0  0  0  0  0  0  0  0  0
  133.9866  125.3855   59.0126 H   0  0  0  0  0  0  0  0  0  0  0  0
  133.0473  124.0312   58.2236 H   0  0  0  0  0  0  0  0  0  0  0  0
  131.3540  126.0330   59.3800 H   0  0  0  0  0  0  0  0  0  0  0  0
  124.5675  129.9805   57.1911 H   0  0  0  0  0  0  0  0  0  0  0  0
  125.0615  130.8071   55.6747 H   0  0  0  0  0  0  0  0  0  0  0  0
  124.7581  129.0366   55.6747 H   0  0  0  0  0  0  0  0  0  0  0  0
  127.0543  131.7050   57.0167 H   0  0  0  0  0  0  0  0  0  0  0  0
  132.3530  129.4340   57.1250 H   0  0  0  0  0  0  0  0  0  0  0  0
  131.7960  129.4480   58.7530 H   0  0  0  0  0  0  0  0  0  0  0  0
  133.7778  125.7503   61.4467 H   0  0  0  0  0  0  0  0  0  0  0  0
  132.7733  125.1849   65.8567 H   0  0  0  0  0  0  0  0  0  0  0  0
  132.4794  126.4407   64.6064 H   0  0  0  0  0  0  0  0  0  0  0  0
  131.5092  124.9289   64.6064 H   0  0  0  0  0  0  0  0  0  0  0  0
  130.7688  122.4379   65.5714 H   0  0  0  0  0  0  0  0  0  0  0  0
  130.3472  123.3591   64.0880 H   0  0  0  0  0  0  0  0  0  0  0  0
  130.2544  121.5652   64.0880 H   0  0  0  0  0  0  0  0  0  0  0  0
  1  2  1  0
  2  3  1  0
  3  4  2  0
  4  5  1  0
  5  6  1  0
  6  7  1  0
  7  8  1  0
  8  9  2  0
  8 10  1  0
 10 11  1  0
 11 12  1  0
 12 13  2  0
 13 14  1  0
 14 15  1  0
 14 16  2  0
 16 17  1  0
 17 18  1  0
 18 19  1  0
 18 20  1  0
 18 21  1  0
 17 22  2  0
 22 23  1  0
 23 24  1  0
  5 25  2  0
 25 26  1  0
 26 27  1  0
 27 28  1  0
 26 29  2  0
 29 30  1  0
 30 31  1  0
 29  3  1  0
 23 10  2  0
 22 12  1  0
  1 32  1  0
  1 33  1  0
  1 34  1  0
  4 35  1  0
  6 36  1  0
  6 37  1  0
  7 38  1  0
 15 39  1  0
 15 40  1  0
 15 41  1  0
 16 42  1  0
 24 43  1  0
 24 44  1  0
 25 45  1  0
 28 46  1  0
 28 47  1  0
 28 48  1  0
 31 49  1  0
 31 50  1  0
 31 51  1  0
M  END
>  <Binding energies>  (1) 
[-6.19]

>  <Ligand effiencies>  (1) 
[-0.18205882352941177]

>  <Interactions>  (1) 
["V-A:LEU:475:CD2:4256, H-A:TYR:484:OH:4345, V-B:TYR:539:CD1:9845, V-A:TYR:484:CE2:4343, V-B:TYR:539:CE1:9847, V-A:ARG:545:CZ:4924, V-B:ALA:541:CB:9864, V-A:TYR:484:CZ:4344, H-A:ASP:366:OD2:3212, H-A:ASP:366:OD1:3211, V-A:ASP:366:CG:3210, H-B:TYR:531:OH:9767, V-A:TYR:539:CE1:4873, V-A:TYR:539:C:4865, V-A:PRO:540:CA:4881, V-A:TYR:539:CD1:4871, V-A:TYR:539:CG:4870, V-A:MET:535:CE:4833, V-A:TYR:531:CZ:4792, V-B:MET:535:CE:9807, H-A:TYR:531:OH:4793, V-B:TYR:531:CZ:9766, V-A:TYR:539:CD2:4872, V-A:TYR:539:CE2:4874, V-B:TYR:531:CE1:9764, V-A:TYR:539:CZ:4875, V-B:ASN:370:CG:8217, V-A:ASP:366:CB:3209, V-A:ASP:366:CA:3207, H-B:TYR:539:OH:9850, H-A:GLY:454:N:4047, V-B:ASN:370:CB:8216"]

$$$$
4bi_Grossjean_2025
     RDKit          3D

 32 34  0  0  0  0  0  0  0  0999 V2000
  132.1070  132.1830   55.9190 C   0  0  0  0  0  0  0  0  0  0  0  0
  131.5670  131.9750   57.3220 C   0  0  0  0  0  0  0  0  0  0  0  0
  132.4260  131.8080   58.4050 C   0  0  0  0  0  0  0  0  0  0  0  0
  131.9120  131.6210   59.6990 C   0  0  0  0  0  0  0  0  0  0  0  0
  132.8960  131.4500   60.8600 C   0  0  0  0  0  0  0  0  0  0  0  0
  134.1690  131.3910   60.4610 F   0  0  0  0  0  0  0  0  0  0  0  0
  132.7890  132.4810   61.6980 F   0  0  0  0  0  0  0  0  0  0  0  0
  132.6310  130.3200   61.5150 F   0  0  0  0  0  0  0  0  0  0  0  0
  130.4920  131.6070   59.8400 C   0  0  0  0  0  0  0  0  0  0  0  0
  129.6210  131.4410   60.9780 C   0  0  0  0  0  0  0  0  0  0  0  0
  130.0930  131.2390   62.2500 N   0  0  0  0  0  0  0  0  0  0  0  0
  128.2520  131.5110   60.6690 C   0  0  0  0  0  0  0  0  0  0  0  0
  127.1040  131.3720   61.5690 C   0  0  0  0  0  0  0  0  0  0  0  0
  126.0150  131.8740   61.2820 O   0  0  0  0  0  0  0  0  0  0  0  0
  127.3320  130.6530   62.6960 N   0  0  0  0  0  0  0  0  0  0  0  0
  126.4270  130.3570   63.7070 C   0  0  0  0  0  0  0  0  0  0  0  0
  126.7790  129.6680   64.8670 C   0  0  0  0  0  0  0  0  0  0  0  0
  125.6170  129.5810   65.5990 C   0  0  0  0  0  0  0  0  0  0  0  0
  124.6160  130.1870   64.9150 O   0  0  0  0  0  0  0  0  0  0  0  0
  125.1430  130.6740   63.7170 N   0  0  0  0  0  0  0  0  0  0  0  0
  128.0010  131.7610   58.9430 S   0  0  0  0  0  0  0  0  0  0  0  0
  129.7240  131.7900   58.6490 C   0  0  0  0  0  0  0  0  0  0  0  0
  130.2180  131.9690   57.4240 N   0  0  0  0  0  0  0  0  0  0  0  0
  133.1321  132.5779   55.9755 H   0  0  0  0  0  0  0  0  0  0  0  0
  132.1130  131.2228   55.3823 H   0  0  0  0  0  0  0  0  0  0  0  0
  131.4673  132.8991   55.3823 H   0  0  0  0  0  0  0  0  0  0  0  0
  133.5144  131.8226   58.2463 H   0  0  0  0  0  0  0  0  0  0  0  0
  130.3080  130.3160   62.5990 H   0  0  0  0  0  0  0  0  0  0  0  0
  130.2380  132.0110   62.8860 H   0  0  0  0  0  0  0  0  0  0  0  0
  128.2600  130.2770   62.8210 H   0  0  0  0  0  0  0  0  0  0  0  0
  127.7712  129.2782   65.1384 H   0  0  0  0  0  0  0  0  0  0  0  0
  125.5166  129.0972   66.5818 H   0  0  0  0  0  0  0  0  0  0  0  0
  1  2  1  0
  2  3  2  0
  3  4  1  0
  4  5  1  0
  5  6  1  0
  5  7  1  0
  5  8  1  0
  4  9  2  0
  9 10  1  0
 10 11  1  0
 10 12  2  0
 12 13  1  0
 13 14  2  0
 13 15  1  0
 15 16  1  0
 16 17  1  0
 17 18  2  0
 18 19  1  0
 19 20  1  0
 12 21  1  0
 21 22  1  0
 22 23  2  0
 23  2  1  0
 22  9  1  0
 20 16  2  0
  1 24  1  0
  1 25  1  0
  1 26  1  0
  3 27  1  0
 11 28  1  0
 11 29  1  0
 15 30  1  0
 17 31  1  0
 18 32  1  0
M  END
>  <Binding energies>  (1) 
[-6.5]

>  <Ligand effiencies>  (1) 
[-0.25]

>  <Interactions>  (1) 
["V-A:ARG:545:CZ:4924, V-B:ARG:545:CZ:9898, V-A:ASP:366:CG:3210, H-A:GLU:543:OE2:4908, H-A:GLU:543:OE1:4907, V-A:GLU:543:CD:4906, V-A:TYR:539:CE1:4873, H-B:ARG:545:NE:9896, V-A:PRO:540:CA:4881, V-A:TYR:539:CD1:4871, V-A:PRO:540:CB:4883, V-A:PRO:540:N:4882, V-A:LEU:363:CD1:3186, V-A:ILE:538:CB:4860, V-A:ILE:538:CG2:4861, V-A:TYR:531:CE2:4791, H-B:TYR:484:OH:9319, H-B:GLY:454:N:9021, V-A:TYR:539:CZ:4875, V-A:PRO:540:C:4879, V-A:LEU:363:CA:3182, V-A:ALA:541:CA:4888, V-A:ASN:362:CB:3173, V-A:ASN:362:C:3169, H-A:ALA:541:O:4887, V-A:ALA:541:C:4886, V-A:ASN:362:CA:3171"]

$$$$
4bj_Grossjean_2025
     RDKit          3D

 32 34  0  0  0  0  0  0  0  0999 V2000
  126.1270  117.4930   71.2680 C   0  0  0  0  0  0  0  0  0  0  0  0
  126.9630  118.3280   72.2210 C   0  0  0  0  0  0  0  0  0  0  0  0
  127.2480  117.8790   73.5080 C   0  0  0  0  0  0  0  0  0  0  0  0
  128.0180  118.6640   74.3800 C   0  0  0  0  0  0  0  0  0  0  0  0
  128.3030  118.1290   75.7880 C   0  0  0  0  0  0  0  0  0  0  0  0
  127.7250  116.9500   76.0250 F   0  0  0  0  0  0  0  0  0  0  0  0
  129.6160  117.9720   75.9540 F   0  0  0  0  0  0  0  0  0  0  0  0
  127.8430  118.9890   76.6980 F   0  0  0  0  0  0  0  0  0  0  0  0
  128.4840  119.9190   73.8880 C   0  0  0  0  0  0  0  0  0  0  0  0
  129.2760  120.9720   74.4780 C   0  0  0  0  0  0  0  0  0  0  0  0
  129.7510  120.9110   75.7630 N   0  0  0  0  0  0  0  0  0  0  0  0
  129.5200  122.0550   73.6190 C   0  0  0  0  0  0  0  0  0  0  0  0
  130.2700  123.2840   73.8900 C   0  0  0  0  0  0  0  0  0  0  0  0
  129.7610  124.3900   73.6930 O   0  0  0  0  0  0  0  0  0  0  0  0
  131.5230  123.1080   74.3750 N   0  0  0  0  0  0  0  0  0  0  0  0
  132.4310  124.0990   74.7220 C   0  0  0  0  0  0  0  0  0  0  0  0
  133.5680  123.9630   75.3690 N   0  0  0  0  0  0  0  0  0  0  0  0
  134.1810  125.1200   75.5210 C   0  0  0  0  0  0  0  0  0  0  0  0
  133.5360  126.2330   74.9900 C   0  0  0  0  0  0  0  0  0  0  0  0
  132.0440  125.7250   74.2560 S   0  0  0  0  0  0  0  0  0  0  0  0
  128.7530  121.8130   72.0510 S   0  0  0  0  0  0  0  0  0  0  0  0
  128.1250  120.2590   72.5480 C   0  0  0  0  0  0  0  0  0  0  0  0
  127.3920  119.5110   71.7240 N   0  0  0  0  0  0  0  0  0  0  0  0
  125.4644  116.8312   71.8451 H   0  0  0  0  0  0  0  0  0  0  0  0
  125.5207  118.1568   70.6342 H   0  0  0  0  0  0  0  0  0  0  0  0
  126.7901  116.8859   70.6342 H   0  0  0  0  0  0  0  0  0  0  0  0
  126.8672  116.9030   73.8432 H   0  0  0  0  0  0  0  0  0  0  0  0
  130.7340  120.9980   75.9750 H   0  0  0  0  0  0  0  0  0  0  0  0
  129.1280  120.7700   76.5470 H   0  0  0  0  0  0  0  0  0  0  0  0
  131.8400  122.1580   74.5070 H   0  0  0  0  0  0  0  0  0  0  0  0
  135.1482  125.2012   76.0386 H   0  0  0  0  0  0  0  0  0  0  0  0
  133.9097  127.2669   75.0285 H   0  0  0  0  0  0  0  0  0  0  0  0
  1  2  1  0
  2  3  2  0
  3  4  1  0
  4  5  1  0
  5  6  1  0
  5  7  1  0
  5  8  1  0
  4  9  2  0
  9 10  1  0
 10 11  1  0
 10 12  2  0
 12 13  1  0
 13 14  2  0
 13 15  1  0
 15 16  1  0
 16 17  2  0
 17 18  1  0
 18 19  2  0
 19 20  1  0
 12 21  1  0
 21 22  1  0
 22 23  2  0
 23  2  1  0
 22  9  1  0
 20 16  1  0
  1 24  1  0
  1 25  1  0
  1 26  1  0
  3 27  1  0
 11 28  1  0
 11 29  1  0
 15 30  1  0
 18 31  1  0
 19 32  1  0
M  END
>  <Binding energies>  (1) 
[-6.04]

>  <Ligand effiencies>  (1) 
[-0.2323076923076923]

>  <Interactions>  (1) 
["V-B:LYS:547:CE:9922, V-A:VAL:458:CG2:4084, H-B:LYS:547:NZ:9923, V-A:HIS:456:CD2:4065, V-A:LYS:547:CD:4947, V-A:LYS:471:CD:4216, V-A:HIS:456:CB:4062, V-A:ASP:473:CG:4237, V-A:HIS:456:CG:4063, V-A:HIS:456:C:4058, V-B:GLY:544:CA:9886, V-B:GLU:543:C:9874, V-A:TYR:484:CD2:4341, H-A:ASP:473:OD2:4239, V-A:TYR:484:CB:4338, V-A:TYR:484:CG:4339, V-B:GLU:543:CA:9876, V-A:SER:483:CA:4328, H-A:TYR:484:N:4337, V-A:SER:483:CB:4330, V-B:VAL:542:CG1:9871, V-B:VAL:542:CB:9870"]

$$$$
4bk_Grossjean_2025
     RDKit          3D

 50 51  0  0  0  0  0  0  0  0999 V2000
  132.2490  125.7260   56.9300 C   0  0  0  0  0  0  0  0  0  0  0  0
  131.3100  125.8000   55.8680 O   0  0  0  0  0  0  0  0  0  0  0  0
  130.3880  124.7180   55.8530 C   0  0  0  0  0  0  0  0  0  0  0  0
  129.8460  124.4860   57.2690 C   0  0  0  0  0  0  0  0  0  0  0  0
  128.9860  123.3550   57.2660 O   0  0  0  0  0  0  0  0  0  0  0  0
  128.7440  122.8210   55.9720 C   0  0  0  0  0  0  0  0  0  0  0  0
  127.2360  122.8310   55.6890 C   0  0  0  0  0  0  0  0  0  0  0  0
  126.5440  122.3050   56.8120 O   0  0  0  0  0  0  0  0  0  0  0  0
  125.3140  122.9640   57.0900 C   0  0  0  0  0  0  0  0  0  0  0  0
  125.3690  123.5730   58.5020 C   0  0  0  0  0  0  0  0  0  0  0  0
  126.6840  123.4650   59.1370 N   0  0  0  0  0  0  0  0  0  0  0  0
  126.9080  123.4530   60.4680 C   0  0  0  0  0  0  0  0  0  0  0  0
  125.9940  123.5130   61.2920 O   0  0  0  0  0  0  0  0  0  0  0  0
  128.3070  123.3530   60.8840 C   0  0  0  0  0  0  0  0  0  0  0  0
  129.2830  121.9750   60.3810 S   0  0  0  0  0  0  0  0  0  0  0  0
  130.6850  122.6110   61.2080 C   0  0  0  0  0  0  0  0  0  0  0  0
  131.8500  121.9630   61.2010 N   0  0  0  0  0  0  0  0  0  0  0  0
  132.8630  122.5550   61.8750 C   0  0  0  0  0  0  0  0  0  0  0  0
  134.1810  121.8010   61.8520 C   0  0  0  0  0  0  0  0  0  0  0  0
  132.7410  123.7670   62.5490 C   0  0  0  0  0  0  0  0  0  0  0  0
  131.5170  124.4540   62.5620 C   0  0  0  0  0  0  0  0  0  0  0  0
  131.4300  125.7820   63.3210 C   0  0  0  0  0  0  0  0  0  0  0  0
  130.4210  125.8190   64.1940 F   0  0  0  0  0  0  0  0  0  0  0  0
  132.5570  125.9870   64.0020 F   0  0  0  0  0  0  0  0  0  0  0  0
  131.2490  126.7820   62.4600 F   0  0  0  0  0  0  0  0  0  0  0  0
  130.4270  123.8580   61.8590 C   0  0  0  0  0  0  0  0  0  0  0  0
  129.0580  124.2570   61.6510 C   0  0  0  0  0  0  0  0  0  0  0  0
  128.5380  125.4190   62.1620 N   0  0  0  0  0  0  0  0  0  0  0  0
  131.7181  125.7678   57.8925 H   0  0  0  0  0  0  0  0  0  0  0  0
  132.8077  124.7810   56.8602 H   0  0  0  0  0  0  0  0  0  0  0  0
  132.9489  126.5718   56.8602 H   0  0  0  0  0  0  0  0  0  0  0  0
  129.5543  124.9565   55.1761 H   0  0  0  0  0  0  0  0  0  0  0  0
  130.8973  123.8082   55.5025 H   0  0  0  0  0  0  0  0  0  0  0  0
  130.6845  124.3075   57.9582 H   0  0  0  0  0  0  0  0  0  0  0  0
  129.2848  125.3733   57.5975 H   0  0  0  0  0  0  0  0  0  0  0  0
  129.2624  123.4335   55.2196 H   0  0  0  0  0  0  0  0  0  0  0  0
  129.1192  121.7880   55.9253 H   0  0  0  0  0  0  0  0  0  0  0  0
  126.9039  123.8631   55.5032 H   0  0  0  0  0  0  0  0  0  0  0  0
  127.0233  122.2144   54.8033 H   0  0  0  0  0  0  0  0  0  0  0  0
  125.1505  123.7629   56.3517 H   0  0  0  0  0  0  0  0  0  0  0  0
  124.4879  122.2398   57.0338 H   0  0  0  0  0  0  0  0  0  0  0  0
  125.1033  124.6381   58.4318 H   0  0  0  0  0  0  0  0  0  0  0  0
  124.6625  123.0054   59.1255 H   0  0  0  0  0  0  0  0  0  0  0  0
  127.4760  123.4120   58.5150 H   0  0  0  0  0  0  0  0  0  0  0  0
  134.5129  121.6111   62.8834 H   0  0  0  0  0  0  0  0  0  0  0  0
  134.0464  120.8433   61.3280 H   0  0  0  0  0  0  0  0  0  0  0  0
  134.9384  122.4024   61.3280 H   0  0  0  0  0  0  0  0  0  0  0  0
  133.6099  124.1892   63.0751 H   0  0  0  0  0  0  0  0  0  0  0  0
  127.9720  125.4290   63.0000 H   0  0  0  0  0  0  0  0  0  0  0  0
  128.7080  126.3110   61.7190 H   0  0  0  0  0  0  0  0  0  0  0  0
  1  2  1  0
  2  3  1  0
  3  4  1  0
  4  5  1  0
  5  6  1  0
  6  7  1  0
  7  8  1  0
  8  9  1  0
  9 10  1  0
 10 11  1  0
 11 12  1  0
 12 13  2  0
 12 14  1  0
 14 15  1  0
 15 16  1  0
 16 17  2  0
 17 18  1  0
 18 19  1  0
 18 20  2  0
 20 21  1  0
 21 22  1  0
 22 23  1  0
 22 24  1  0
 22 25  1  0
 21 26  2  0
 26 27  1  0
 27 28  1  0
 27 14  2  0
 26 16  1  0
  1 29  1  0
  1 30  1  0
  1 31  1  0
  3 32  1  0
  3 33  1  0
  4 34  1  0
  4 35  1  0
  6 36  1  0
  6 37  1  0
  7 38  1  0
  7 39  1  0
  9 40  1  0
  9 41  1  0
 10 42  1  0
 10 43  1  0
 11 44  1  0
 19 45  1  0
 19 46  1  0
 19 47  1  0
 20 48  1  0
 28 49  1  0
 28 50  1  0
M  END
>  <Binding energies>  (1) 
[-5.55]

>  <Ligand effiencies>  (1) 
[-0.17903225806451611]

>  <Interactions>  (1) 
["V-A:LEU:475:CD2:4256, V-A:GLY:454:CA:4046, V-B:TYR:539:CD1:9845, V-B:TYR:539:C:9839, V-B:TYR:539:CE1:9847, V-B:GLU:543:CD:9880, V-B:PRO:540:CB:9857, V-A:ARG:545:CZ:4924, V-B:PRO:540:CA:9855, H-B:GLU:543:OE2:9882, H-B:GLU:543:OE1:9881, V-B:PRO:540:N:9856, V-A:ILE:369:CD1:3236, V-B:TYR:539:CE2:9848, V-B:TYR:539:CG:9844, V-B:ILE:538:CB:9834, H-B:TYR:539:N:9842, V-B:TYR:539:CD2:9846, V-B:PRO:540:CD:9859, V-B:TYR:539:CZ:9849, V-B:ILE:538:CG2:9835, V-A:TYR:531:CZ:4792, V-B:ILE:538:CA:9832, V-B:MET:535:CE:9807, V-A:ILE:369:CG2:3234, H-A:TYR:531:OH:4793, H-B:ALA:541:N:9863, V-A:ASP:366:CB:3209, H-B:TYR:539:OH:9850, V-A:TYR:531:CE1:4790, V-B:ILE:538:C:9830, V-B:LEU:363:CD1:8160, V-A:SER:385:C:3402"]

$$$$
4ca_Grossjean_2025
     RDKit          3D

 52 55  0  0  0  0  0  0  0  0999 V2000
  133.2250  132.1640   57.4250 C   0  0  0  0  0  0  0  0  0  0  0  0
  132.4990  132.7450   56.2080 C   0  0  0  0  0  0  0  0  0  0  0  0
  131.3270  133.4270   56.6370 O   0  0  0  0  0  0  0  0  0  0  0  0
  130.1220  132.8010   56.6650 C   0  0  0  0  0  0  0  0  0  0  0  0
  129.1070  133.2560   56.1270 O   0  0  0  0  0  0  0  0  0  0  0  0
  130.1480  131.4990   57.4120 C   0  0  0  0  0  0  0  0  0  0  0  0
  130.3520  130.3080   56.7030 C   0  0  0  0  0  0  0  0  0  0  0  0
  130.3850  129.0850   57.3690 C   0  0  0  0  0  0  0  0  0  0  0  0
  130.2080  129.0280   58.7510 C   0  0  0  0  0  0  0  0  0  0  0  0
  130.2690  127.7410   59.3230 N   0  0  0  0  0  0  0  0  0  0  0  0
  129.4090  127.1190   60.1660 C   0  0  0  0  0  0  0  0  0  0  0  0
  128.3450  127.6050   60.5500 O   0  0  0  0  0  0  0  0  0  0  0  0
  129.8170  125.7810   60.6000 C   0  0  0  0  0  0  0  0  0  0  0  0
  130.0020  124.4860   59.4200 S   0  0  0  0  0  0  0  0  0  0  0  0
  130.5070  123.3650   60.6620 C   0  0  0  0  0  0  0  0  0  0  0  0
  130.8220  122.1050   60.3730 N   0  0  0  0  0  0  0  0  0  0  0  0
  131.2180  121.3120   61.4020 C   0  0  0  0  0  0  0  0  0  0  0  0
  131.5760  119.8990   61.0430 C   0  0  0  0  0  0  0  0  0  0  0  0
  130.6030  118.8870   61.0470 C   0  0  0  0  0  0  0  0  0  0  0  0
  130.9300  117.5740   60.7190 C   0  0  0  0  0  0  0  0  0  0  0  0
  132.2410  117.2520   60.3840 C   0  0  0  0  0  0  0  0  0  0  0  0
  133.2260  118.2340   60.3750 C   0  0  0  0  0  0  0  0  0  0  0  0
  132.8940  119.5460   60.7030 C   0  0  0  0  0  0  0  0  0  0  0  0
  131.2720  121.7820   62.7190 C   0  0  0  0  0  0  0  0  0  0  0  0
  130.9370  123.1070   63.0350 C   0  0  0  0  0  0  0  0  0  0  0  0
  131.0220  123.5570   64.4980 C   0  0  0  0  0  0  0  0  0  0  0  0
  130.2210  124.5870   64.7760 F   0  0  0  0  0  0  0  0  0  0  0  0
  130.6710  122.5520   65.3000 F   0  0  0  0  0  0  0  0  0  0  0  0
  132.2680  123.9330   64.7830 F   0  0  0  0  0  0  0  0  0  0  0  0
  130.5380  123.9530   61.9600 C   0  0  0  0  0  0  0  0  0  0  0  0
  130.1400  125.3380   61.8940 C   0  0  0  0  0  0  0  0  0  0  0  0
  130.0820  126.1460   63.0000 N   0  0  0  0  0  0  0  0  0  0  0  0
  130.0090  130.2150   59.4700 C   0  0  0  0  0  0  0  0  0  0  0  0
  129.9780  131.4380   58.8030 C   0  0  0  0  0  0  0  0  0  0  0  0
  132.7554  132.5398   58.3460 H   0  0  0  0  0  0  0  0  0  0  0  0
  133.1593  131.0662   57.4015 H   0  0  0  0  0  0  0  0  0  0  0  0
  134.2817  132.4687   57.4015 H   0  0  0  0  0  0  0  0  0  0  0  0
  133.1634  133.4498   55.6865 H   0  0  0  0  0  0  0  0  0  0  0  0
  132.2198  131.9302   55.5238 H   0  0  0  0  0  0  0  0  0  0  0  0
  130.4872  130.3389   55.6118 H   0  0  0  0  0  0  0  0  0  0  0  0
  130.5518  128.1579   56.8009 H   0  0  0  0  0  0  0  0  0  0  0  0
  131.0770  127.2050   59.0440 H   0  0  0  0  0  0  0  0  0  0  0  0
  129.5652  119.1355   61.3137 H   0  0  0  0  0  0  0  0  0  0  0  0
  130.1543  116.7941   60.7248 H   0  0  0  0  0  0  0  0  0  0  0  0
  132.5003  116.2149   60.1247 H   0  0  0  0  0  0  0  0  0  0  0  0
  134.2619  117.9756   60.1102 H   0  0  0  0  0  0  0  0  0  0  0  0
  133.6761  120.3195   60.6960 H   0  0  0  0  0  0  0  0  0  0  0  0
  131.5834  121.0986   63.5227 H   0  0  0  0  0  0  0  0  0  0  0  0
  130.7550  126.8830   63.1600 H   0  0  0  0  0  0  0  0  0  0  0  0
  129.3580  126.0340   63.6970 H   0  0  0  0  0  0  0  0  0  0  0  0
  129.8772  130.1808   60.5615 H   0  0  0  0  0  0  0  0  0  0  0  0
  129.8186  132.3651   59.3731 H   0  0  0  0  0  0  0  0  0  0  0  0
  1  2  1  0
  2  3  1  0
  3  4  1  0
  4  5  2  0
  4  6  1  0
  6  7  2  0
  7  8  1  0
  8  9  2  0
  9 10  1  0
 10 11  1  0
 11 12  2  0
 11 13  1  0
 13 14  1  0
 14 15  1  0
 15 16  2  0
 16 17  1  0
 17 18  1  0
 18 19  2  0
 19 20  1  0
 20 21  2  0
 21 22  1  0
 22 23  2  0
 17 24  2  0
 24 25  1  0
 25 26  1  0
 26 27  1  0
 26 28  1  0
 26 29  1  0
 25 30  2  0
 30 31  1  0
 31 32  1  0
  9 33  1  0
 33 34  2  0
 34  6  1  0
 31 13  2  0
 30 15  1  0
 23 18  1  0
  1 35  1  0
  1 36  1  0
  1 37  1  0
  2 38  1  0
  2 39  1  0
  7 40  1  0
  8 41  1  0
 10 42  1  0
 19 43  1  0
 20 44  1  0
 21 45  1  0
 22 46  1  0
 23 47  1  0
 24 48  1  0
 32 49  1  0
 32 50  1  0
 33 51  1  0
 34 52  1  0
M  END
>  <Binding energies>  (1) 
[-7.26]

>  <Ligand effiencies>  (1) 
[-0.1962162162162162]

>  <Interactions>  (1) 
["V-B:GLU:543:CG:9879, V-A:LEU:475:CD2:4256, V-A:GLY:454:CA:4046, V-B:TYR:539:CD1:9845, V-A:TYR:484:CE2:4343, V-B:GLU:543:CB:9878, V-B:TYR:539:CE1:9847, V-B:GLU:543:CD:9880, V-B:ALA:541:CB:9864, V-A:TYR:484:CZ:4344, H-A:ASP:366:OD2:3212, H-B:GLU:543:OE2:9882, H-B:GLU:543:OE1:9881, H-A:GLU:543:OE2:4908, V-A:TYR:539:C:4865, V-A:PRO:540:CA:4881, V-A:PRO:540:CB:4883, V-A:PRO:540:N:4882, V-A:LEU:363:CD1:3186, V-A:TYR:539:CA:4867, V-A:ILE:538:CA:4858, V-A:ILE:538:C:4856, V-A:ILE:538:CB:4860, V-A:MET:535:CE:4833, V-A:PRO:540:CG:4884, V-A:ILE:538:CG2:4861, V-A:PRO:540:CD:4885, V-A:ILE:369:CG2:3234, V-A:LEU:373:CD1:3277, V-A:PRO:482:CG:4324, V-A:SER:385:CA:3404, V-A:SER:385:CB:3406, V-A:PRO:482:CB:4323, V-B:TYR:539:CB:9843, H-A:TYR:539:N:4868, V-A:LEU:363:CA:3182, V-A:LEU:363:CB:3184"]

$$$$
4cb_Grossjean_2025
     RDKit          3D

 49 52  0  0  0  0  0  0  0  0999 V2000
  132.5130  132.5860   56.3200 C   0  0  0  0  0  0  0  0  0  0  0  0
  131.3700  133.3720   56.6290 O   0  0  0  0  0  0  0  0  0  0  0  0
  130.1560  132.7950   56.8210 C   0  0  0  0  0  0  0  0  0  0  0  0
  129.0940  133.3000   56.4450 O   0  0  0  0  0  0  0  0  0  0  0  0
  130.2330  131.4760   57.5380 C   0  0  0  0  0  0  0  0  0  0  0  0
  129.8650  130.3070   56.8600 C   0  0  0  0  0  0  0  0  0  0  0  0
  129.9320  129.0700   57.4940 C   0  0  0  0  0  0  0  0  0  0  0  0
  130.3620  128.9760   58.8180 C   0  0  0  0  0  0  0  0  0  0  0  0
  130.4050  127.6750   59.3560 N   0  0  0  0  0  0  0  0  0  0  0  0
  129.4410  126.9570   59.9820 C   0  0  0  0  0  0  0  0  0  0  0  0
  128.2840  127.3470   60.1460 O   0  0  0  0  0  0  0  0  0  0  0  0
  129.8560  125.6330   60.4560 C   0  0  0  0  0  0  0  0  0  0  0  0
  130.0430  124.3020   59.3160 S   0  0  0  0  0  0  0  0  0  0  0  0
  130.5560  123.2220   60.5910 C   0  0  0  0  0  0  0  0  0  0  0  0
  130.8740  121.9540   60.3420 N   0  0  0  0  0  0  0  0  0  0  0  0
  131.2710  121.1940   61.3960 C   0  0  0  0  0  0  0  0  0  0  0  0
  131.6290  119.7700   61.0830 C   0  0  0  0  0  0  0  0  0  0  0  0
  130.6550  118.7600   61.1260 C   0  0  0  0  0  0  0  0  0  0  0  0
  130.9810  117.4360   60.8400 C   0  0  0  0  0  0  0  0  0  0  0  0
  132.2900  117.1040   60.5060 C   0  0  0  0  0  0  0  0  0  0  0  0
  133.2750  118.0860   60.4590 C   0  0  0  0  0  0  0  0  0  0  0  0
  132.9450  119.4070   60.7470 C   0  0  0  0  0  0  0  0  0  0  0  0
  131.3250  121.7070   62.6970 C   0  0  0  0  0  0  0  0  0  0  0  0
  130.9880  123.0410   62.9710 C   0  0  0  0  0  0  0  0  0  0  0  0
  131.0720  123.5370   64.4200 C   0  0  0  0  0  0  0  0  0  0  0  0
  130.2320  124.5420   64.6770 F   0  0  0  0  0  0  0  0  0  0  0  0
  130.7710  122.5430   65.2540 F   0  0  0  0  0  0  0  0  0  0  0  0
  132.3050  123.9720   64.6780 F   0  0  0  0  0  0  0  0  0  0  0  0
  130.5860  123.8510   61.8700 C   0  0  0  0  0  0  0  0  0  0  0  0
  130.1860  125.2330   61.7610 C   0  0  0  0  0  0  0  0  0  0  0  0
  130.1320  126.0760   62.8410 N   0  0  0  0  0  0  0  0  0  0  0  0
  130.7350  130.1420   59.5040 C   0  0  0  0  0  0  0  0  0  0  0  0
  130.6690  131.3780   58.8680 C   0  0  0  0  0  0  0  0  0  0  0  0
  132.9937  132.2554   57.2526 H   0  0  0  0  0  0  0  0  0  0  0  0
  132.2061  131.7070   55.7341 H   0  0  0  0  0  0  0  0  0  0  0  0
  133.2239  133.1871   55.7341 H   0  0  0  0  0  0  0  0  0  0  0  0
  129.5200  130.3672   55.8172 H   0  0  0  0  0  0  0  0  0  0  0  0
  129.6439  128.1599   56.9474 H   0  0  0  0  0  0  0  0  0  0  0  0
  131.2950  127.2120   59.2420 H   0  0  0  0  0  0  0  0  0  0  0  0
  129.6186  119.0178   61.3895 H   0  0  0  0  0  0  0  0  0  0  0  0
  130.2062  116.6561   60.8781 H   0  0  0  0  0  0  0  0  0  0  0  0
  132.5480  116.0593   60.2777 H   0  0  0  0  0  0  0  0  0  0  0  0
  134.3092  117.8194   60.1955 H   0  0  0  0  0  0  0  0  0  0  0  0
  133.7268  120.1799   60.7111 H   0  0  0  0  0  0  0  0  0  0  0  0
  131.6383  121.0504   63.5221 H   0  0  0  0  0  0  0  0  0  0  0  0
  129.4630  125.9470   63.5870 H   0  0  0  0  0  0  0  0  0  0  0  0
  130.7660  126.8580   62.9310 H   0  0  0  0  0  0  0  0  0  0  0  0
  131.0802  130.0789   60.5465 H   0  0  0  0  0  0  0  0  0  0  0  0
  130.9616  132.2873   59.4135 H   0  0  0  0  0  0  0  0  0  0  0  0
  1  2  1  0
  2  3  1  0
  3  4  2  0
  3  5  1  0
  5  6  2  0
  6  7  1  0
  7  8  2  0
  8  9  1  0
  9 10  1  0
 10 11  2  0
 10 12  1  0
 12 13  1  0
 13 14  1  0
 14 15  2  0
 15 16  1  0
 16 17  1  0
 17 18  2  0
 18 19  1  0
 19 20  2  0
 20 21  1  0
 21 22  2  0
 16 23  2  0
 23 24  1  0
 24 25  1  0
 25 26  1  0
 25 27  1  0
 25 28  1  0
 24 29  2  0
 29 30  1  0
 30 31  1  0
  8 32  1  0
 32 33  2  0
 33  5  1  0
 30 12  2  0
 29 14  1  0
 22 17  1  0
  1 34  1  0
  1 35  1  0
  1 36  1  0
  6 37  1  0
  7 38  1  0
  9 39  1  0
 18 40  1  0
 19 41  1  0
 20 42  1  0
 21 43  1  0
 22 44  1  0
 23 45  1  0
 31 46  1  0
 31 47  1  0
 32 48  1  0
 33 49  1  0
M  END
>  <Binding energies>  (1) 
[-6.88]

>  <Ligand effiencies>  (1) 
[-0.19111111111111112]

>  <Interactions>  (1) 
["V-B:GLU:543:CG:9879, V-A:LEU:475:CD2:4256, V-A:GLY:454:CA:4046, V-B:TYR:539:CD1:9845, V-A:TYR:484:CE2:4343, V-B:GLU:543:CB:9878, V-B:TYR:539:CE1:9847, V-B:GLU:543:CD:9880, V-B:ALA:541:CB:9864, V-A:TYR:484:CZ:4344, H-A:ASP:366:OD2:3212, H-B:GLU:543:OE2:9882, H-A:ASP:366:OD1:3211, V-A:ASP:366:CG:3210, H-B:GLU:543:OE1:9881, H-A:GLU:543:OE2:4908, V-A:TYR:539:C:4865, V-A:PRO:540:CA:4881, V-A:PRO:540:N:4882, V-A:LEU:363:CD1:3186, V-A:TYR:539:CA:4867, V-A:ILE:538:CA:4858, V-A:ILE:538:CB:4860, V-A:MET:535:CE:4833, V-A:ILE:538:CG2:4861, V-A:TYR:531:CE2:4791, V-A:PRO:540:CD:4885, V-A:ILE:369:CG2:3234, V-A:LEU:373:CD1:3277, V-A:PRO:482:CG:4324, V-A:SER:385:CA:3404, V-A:SER:385:CB:3406, V-A:PRO:482:CB:4323, H-A:TYR:539:N:4868"]

$$$$
4cc_Grossjean_2025
     RDKit          3D

 47 50  0  0  0  0  0  0  0  0999 V2000
  124.0060  133.2960   62.3420 C   0  0  0  0  0  0  0  0  0  0  0  0
  124.2080  132.5530   63.5390 O   0  0  0  0  0  0  0  0  0  0  0  0
  124.9590  131.3940   63.4960 C   0  0  0  0  0  0  0  0  0  0  0  0
  125.5550  131.0840   62.2740 C   0  0  0  0  0  0  0  0  0  0  0  0
  126.3320  129.9380   62.1340 C   0  0  0  0  0  0  0  0  0  0  0  0
  126.5150  129.0760   63.2170 C   0  0  0  0  0  0  0  0  0  0  0  0
  127.3280  127.9510   62.9860 N   0  0  0  0  0  0  0  0  0  0  0  0
  127.5730  127.2950   61.8260 C   0  0  0  0  0  0  0  0  0  0  0  0
  127.1190  127.6370   60.7320 O   0  0  0  0  0  0  0  0  0  0  0  0
  128.4390  126.1180   61.9390 C   0  0  0  0  0  0  0  0  0  0  0  0
  128.1520  124.7040   60.9260 S   0  0  0  0  0  0  0  0  0  0  0  0
  129.5100  123.8640   61.6370 C   0  0  0  0  0  0  0  0  0  0  0  0
  129.8440  122.6340   61.2540 N   0  0  0  0  0  0  0  0  0  0  0  0
  130.9200  122.0660   61.8570 C   0  0  0  0  0  0  0  0  0  0  0  0
  131.2710  120.6770   61.4060 C   0  0  0  0  0  0  0  0  0  0  0  0
  132.5380  120.3940   60.8720 C   0  0  0  0  0  0  0  0  0  0  0  0
  132.8700  119.1090   60.4500 C   0  0  0  0  0  0  0  0  0  0  0  0
  131.9350  118.0850   60.5570 C   0  0  0  0  0  0  0  0  0  0  0  0
  130.6710  118.3390   61.0800 C   0  0  0  0  0  0  0  0  0  0  0  0
  130.3430  119.6250   61.4990 C   0  0  0  0  0  0  0  0  0  0  0  0
  131.6450  122.7280   62.8520 C   0  0  0  0  0  0  0  0  0  0  0  0
  131.3010  124.0260   63.2650 C   0  0  0  0  0  0  0  0  0  0  0  0
  132.1430  124.6950   64.3560 C   0  0  0  0  0  0  0  0  0  0  0  0
  132.5180  125.9380   64.0420 F   0  0  0  0  0  0  0  0  0  0  0  0
  131.4420  124.7650   65.4870 F   0  0  0  0  0  0  0  0  0  0  0  0
  133.2520  123.9860   64.5690 F   0  0  0  0  0  0  0  0  0  0  0  0
  130.1790  124.6350   62.6330 C   0  0  0  0  0  0  0  0  0  0  0  0
  129.5410  125.9190   62.7870 C   0  0  0  0  0  0  0  0  0  0  0  0
  129.9780  126.8610   63.6830 N   0  0  0  0  0  0  0  0  0  0  0  0
  125.9290  129.3880   64.4530 C   0  0  0  0  0  0  0  0  0  0  0  0
  125.1540  130.5360   64.5880 C   0  0  0  0  0  0  0  0  0  0  0  0
  123.7251  134.3291   62.5947 H   0  0  0  0  0  0  0  0  0  0  0  0
  124.9351  133.3022   61.7531 H   0  0  0  0  0  0  0  0  0  0  0  0
  123.2017  132.8310   61.7531 H   0  0  0  0  0  0  0  0  0  0  0  0
  125.4095  131.7519   61.4122 H   0  0  0  0  0  0  0  0  0  0  0  0
  126.8037  129.7105   61.1667 H   0  0  0  0  0  0  0  0  0  0  0  0
  127.8130  127.6110   63.8020 H   0  0  0  0  0  0  0  0  0  0  0  0
  133.2809  121.2006   60.7854 H   0  0  0  0  0  0  0  0  0  0  0  0
  133.8675  118.9048   60.0338 H   0  0  0  0  0  0  0  0  0  0  0  0
  132.1962  117.0689   60.2264 H   0  0  0  0  0  0  0  0  0  0  0  0
  129.9339  117.5267   61.1620 H   0  0  0  0  0  0  0  0  0  0  0  0
  129.3416  119.8215   61.9095 H   0  0  0  0  0  0  0  0  0  0  0  0
  132.5020  122.2225   63.3210 H   0  0  0  0  0  0  0  0  0  0  0  0
  129.7920  126.7830   64.6730 H   0  0  0  0  0  0  0  0  0  0  0  0
  130.5020  127.6700   63.3810 H   0  0  0  0  0  0  0  0  0  0  0  0
  126.0824  128.7242   65.3166 H   0  0  0  0  0  0  0  0  0  0  0  0
  124.6913  130.7720   65.5577 H   0  0  0  0  0  0  0  0  0  0  0  0
  1  2  1  0
  2  3  1  0
  3  4  2  0
  4  5  1  0
  5  6  2  0
  6  7  1  0
  7  8  1  0
  8  9  2  0
  8 10  1  0
 10 11  1  0
 11 12  1  0
 12 13  2  0
 13 14  1  0
 14 15  1  0
 15 16  2  0
 16 17  1  0
 17 18  2  0
 18 19  1  0
 19 20  2  0
 14 21  2  0
 21 22  1  0
 22 23  1  0
 23 24  1  0
 23 25  1  0
 23 26  1  0
 22 27  2  0
 27 28  1  0
 28 29  1  0
  6 30  1  0
 30 31  2  0
 31  3  1  0
 28 10  2  0
 27 12  1  0
 20 15  1  0
  1 32  1  0
  1 33  1  0
  1 34  1  0
  4 35  1  0
  5 36  1  0
  7 37  1  0
 16 38  1  0
 17 39  1  0
 18 40  1  0
 19 41  1  0
 20 42  1  0
 21 43  1  0
 29 44  1  0
 29 45  1  0
 30 46  1  0
 31 47  1  0
M  END
>  <Binding energies>  (1) 
[-7.36]

>  <Ligand effiencies>  (1) 
[-0.21647058823529414]

>  <Interactions>  (1) 
["V-A:LEU:475:CD2:4256, V-A:GLY:454:CA:4046, V-B:TYR:539:CD1:9845, V-B:TYR:539:CE1:9847, V-B:GLU:543:CD:9880, V-A:ARG:545:CZ:4924, V-B:ALA:541:CB:9864, V-A:TYR:484:CZ:4344, H-B:GLU:543:OE2:9882, V-B:ARG:545:CZ:9898, H-B:GLU:543:OE1:9881, H-A:GLU:543:OE2:4908, H-A:GLU:543:OE1:4907, V-A:GLU:543:CD:4906, V-A:GLY:453:C:4039, V-B:LEU:475:CD2:9230, V-B:ILE:369:CD1:8210, V-B:ILE:369:CG2:8208, V-A:ILE:369:CG2:3234, H-B:GLY:454:N:9021, V-A:LEU:373:CD1:3277, V-A:PRO:482:CG:4324, V-A:SER:385:CA:3404, V-A:PRO:482:CB:4323, V-B:GLY:454:CA:9020"]

$$$$
4cd_Grossjean_2025
     RDKit          3D

 43 46  0  0  0  0  0  0  0  0999 V2000
  129.9940  126.9160   63.6410 N   0  0  0  0  0  0  0  0  0  0  0  0
  129.5590  125.9700   62.7470 C   0  0  0  0  0  0  0  0  0  0  0  0
  128.4600  126.1640   61.8960 C   0  0  0  0  0  0  0  0  0  0  0  0
  127.5790  127.3320   61.7920 C   0  0  0  0  0  0  0  0  0  0  0  0
  127.1200  127.6770   60.7030 O   0  0  0  0  0  0  0  0  0  0  0  0
  127.3200  127.9690   62.9590 N   0  0  0  0  0  0  0  0  0  0  0  0
  126.5680  129.1350   63.1970 C   0  0  0  0  0  0  0  0  0  0  0  0
  127.0480  129.9790   64.2020 C   0  0  0  0  0  0  0  0  0  0  0  0
  126.3810  131.1630   64.5020 C   0  0  0  0  0  0  0  0  0  0  0  0
  125.2340  131.5090   63.7910 C   0  0  0  0  0  0  0  0  0  0  0  0
  124.7520  130.6840   62.7790 C   0  0  0  0  0  0  0  0  0  0  0  0
  125.4170  129.4980   62.4750 C   0  0  0  0  0  0  0  0  0  0  0  0
  128.1890  124.7530   60.8760 S   0  0  0  0  0  0  0  0  0  0  0  0
  129.5390  123.9130   61.6010 C   0  0  0  0  0  0  0  0  0  0  0  0
  129.8760  122.6820   61.2230 N   0  0  0  0  0  0  0  0  0  0  0  0
  130.9320  122.1060   61.8540 C   0  0  0  0  0  0  0  0  0  0  0  0
  131.2860  120.7170   61.4080 C   0  0  0  0  0  0  0  0  0  0  0  0
  132.5590  120.4330   60.8860 C   0  0  0  0  0  0  0  0  0  0  0  0
  132.8940  119.1470   60.4710 C   0  0  0  0  0  0  0  0  0  0  0  0
  131.9590  118.1230   60.5740 C   0  0  0  0  0  0  0  0  0  0  0  0
  130.6930  118.3760   61.0910 C   0  0  0  0  0  0  0  0  0  0  0  0
  130.3620  119.6620   61.5060 C   0  0  0  0  0  0  0  0  0  0  0  0
  131.6550  122.7740   62.8460 C   0  0  0  0  0  0  0  0  0  0  0  0
  131.3100  124.0750   63.2500 C   0  0  0  0  0  0  0  0  0  0  0  0
  132.1430  124.7480   64.3470 C   0  0  0  0  0  0  0  0  0  0  0  0
  132.5500  125.9760   64.0160 F   0  0  0  0  0  0  0  0  0  0  0  0
  131.4210  124.8530   65.4620 F   0  0  0  0  0  0  0  0  0  0  0  0
  133.2330  124.0220   64.5940 F   0  0  0  0  0  0  0  0  0  0  0  0
  130.1970  124.6840   62.6040 C   0  0  0  0  0  0  0  0  0  0  0  0
  129.7500  126.8770   64.6200 H   0  0  0  0  0  0  0  0  0  0  0  0
  130.5790  127.6870   63.3480 H   0  0  0  0  0  0  0  0  0  0  0  0
  127.7070  127.5480   63.7910 H   0  0  0  0  0  0  0  0  0  0  0  0
  127.9569  129.7064   64.7584 H   0  0  0  0  0  0  0  0  0  0  0  0
  126.7579  131.8229   65.2972 H   0  0  0  0  0  0  0  0  0  0  0  0
  124.7045  132.4427   64.0316 H   0  0  0  0  0  0  0  0  0  0  0  0
  123.8479  130.9677   62.2203 H   0  0  0  0  0  0  0  0  0  0  0  0
  125.0424  128.8467   61.6716 H   0  0  0  0  0  0  0  0  0  0  0  0
  133.3027  121.2393   60.8039 H   0  0  0  0  0  0  0  0  0  0  0  0
  133.8947  118.9417   60.0631 H   0  0  0  0  0  0  0  0  0  0  0  0
  132.2222  117.1070   60.2447 H   0  0  0  0  0  0  0  0  0  0  0  0
  129.9566  117.5629   61.1715 H   0  0  0  0  0  0  0  0  0  0  0  0
  129.3607  119.8565   61.9177 H   0  0  0  0  0  0  0  0  0  0  0  0
  132.5111  122.2715   63.3200 H   0  0  0  0  0  0  0  0  0  0  0  0
  1  2  1  0
  2  3  2  0
  3  4  1  0
  4  5  2  0
  4  6  1  0
  6  7  1  0
  7  8  2  0
  8  9  1  0
  9 10  2  0
 10 11  1  0
 11 12  2  0
  3 13  1  0
 13 14  1  0
 14 15  2  0
 15 16  1  0
 16 17  1  0
 17 18  2  0
 18 19  1  0
 19 20  2  0
 20 21  1  0
 21 22  2  0
 16 23  2  0
 23 24  1  0
 24 25  1  0
 25 26  1  0
 25 27  1  0
 25 28  1  0
 24 29  2  0
 29  2  1  0
 12  7  1  0
 29 14  1  0
 22 17  1  0
  1 30  1  0
  1 31  1  0
  6 32  1  0
  8 33  1  0
  9 34  1  0
 10 35  1  0
 11 36  1  0
 12 37  1  0
 18 38  1  0
 19 39  1  0
 20 40  1  0
 21 41  1  0
 22 42  1  0
 23 43  1  0
M  END
>  <Binding energies>  (1) 
[-7.5]

>  <Ligand effiencies>  (1) 
[-0.234375]

>  <Interactions>  (1) 
["V-A:LEU:475:CD2:4256, V-A:GLY:454:CA:4046, V-B:TYR:539:CD1:9845, V-B:TYR:539:CE1:9847, V-B:GLU:543:CD:9880, V-A:ARG:545:CZ:4924, V-B:ALA:541:CB:9864, V-A:TYR:484:CZ:4344, H-B:GLU:543:OE2:9882, V-B:ARG:545:CZ:9898, H-B:GLU:543:OE1:9881, H-A:GLU:543:OE2:4908, H-A:GLU:543:OE1:4907, V-A:GLU:543:CD:4906, V-A:GLY:453:C:4039, V-A:ILE:369:CG2:3234, V-A:LEU:373:CD1:3277, V-A:PRO:482:CG:4324, V-A:SER:385:CA:3404, V-A:PRO:482:CB:4323, V-B:GLY:454:CA:9020"]

$$$$
4ce_Grossjean_2025
     RDKit          3D

 45 48  0  0  0  0  0  0  0  0999 V2000
  123.9820  131.0660   61.4130 C   0  0  0  0  0  0  0  0  0  0  0  0
  124.9200  130.6080   62.5130 C   0  0  0  0  0  0  0  0  0  0  0  0
  124.9860  131.2740   63.7400 C   0  0  0  0  0  0  0  0  0  0  0  0
  125.8670  130.7910   64.7100 C   0  0  0  0  0  0  0  0  0  0  0  0
  126.6490  129.6690   64.4340 C   0  0  0  0  0  0  0  0  0  0  0  0
  126.5370  129.0530   63.1820 C   0  0  0  0  0  0  0  0  0  0  0  0
  127.3330  127.9120   62.9720 N   0  0  0  0  0  0  0  0  0  0  0  0
  127.6110  127.2730   61.8090 C   0  0  0  0  0  0  0  0  0  0  0  0
  127.1900  127.6380   60.7100 O   0  0  0  0  0  0  0  0  0  0  0  0
  128.4650  126.0890   61.9290 C   0  0  0  0  0  0  0  0  0  0  0  0
  128.1340  124.6560   60.9600 S   0  0  0  0  0  0  0  0  0  0  0  0
  129.5210  123.8290   61.6290 C   0  0  0  0  0  0  0  0  0  0  0  0
  129.8390  122.5920   61.2550 N   0  0  0  0  0  0  0  0  0  0  0  0
  130.9440  122.0370   61.8190 C   0  0  0  0  0  0  0  0  0  0  0  0
  131.2770  120.6450   61.3720 C   0  0  0  0  0  0  0  0  0  0  0  0
  132.5370  120.3510   60.8250 C   0  0  0  0  0  0  0  0  0  0  0  0
  132.8510  119.0620   60.4010 C   0  0  0  0  0  0  0  0  0  0  0  0
  131.9080  118.0470   60.5220 C   0  0  0  0  0  0  0  0  0  0  0  0
  130.6540  118.3110   61.0590 C   0  0  0  0  0  0  0  0  0  0  0  0
  130.3420  119.6020   61.4790 C   0  0  0  0  0  0  0  0  0  0  0  0
  131.7100  122.7190   62.7700 C   0  0  0  0  0  0  0  0  0  0  0  0
  131.3810  124.0220   63.1760 C   0  0  0  0  0  0  0  0  0  0  0  0
  132.2650  124.7110   64.2200 C   0  0  0  0  0  0  0  0  0  0  0  0
  132.8370  125.8280   63.7680 F   0  0  0  0  0  0  0  0  0  0  0  0
  131.5310  125.0410   65.2840 F   0  0  0  0  0  0  0  0  0  0  0  0
  133.2410  123.8860   64.5990 F   0  0  0  0  0  0  0  0  0  0  0  0
  130.2330  124.6190   62.5790 C   0  0  0  0  0  0  0  0  0  0  0  0
  129.6040  125.9080   62.7320 C   0  0  0  0  0  0  0  0  0  0  0  0
  130.0800  126.8700   63.5850 N   0  0  0  0  0  0  0  0  0  0  0  0
  125.6750  129.5160   62.2300 N   0  0  0  0  0  0  0  0  0  0  0  0
  123.0792  131.5068   61.8609 H   0  0  0  0  0  0  0  0  0  0  0  0
  124.4873  131.8188   60.7901 H   0  0  0  0  0  0  0  0  0  0  0  0
  123.6991  130.2046   60.7901 H   0  0  0  0  0  0  0  0  0  0  0  0
  124.3596  132.1566   63.9368 H   0  0  0  0  0  0  0  0  0  0  0  0
  125.9439  131.2923   65.6861 H   0  0  0  0  0  0  0  0  0  0  0  0
  127.3439  129.2740   65.1897 H   0  0  0  0  0  0  0  0  0  0  0  0
  127.7820  127.5540   63.8020 H   0  0  0  0  0  0  0  0  0  0  0  0
  133.2866  121.1504   60.7301 H   0  0  0  0  0  0  0  0  0  0  0  0
  133.8410  118.8476   59.9721 H   0  0  0  0  0  0  0  0  0  0  0  0
  132.1566  117.0281   60.1903 H   0  0  0  0  0  0  0  0  0  0  0  0
  129.9115  117.5048   61.1520 H   0  0  0  0  0  0  0  0  0  0  0  0
  129.3474  119.8081   61.9013 H   0  0  0  0  0  0  0  0  0  0  0  0
  132.5887  122.2240   63.2091 H   0  0  0  0  0  0  0  0  0  0  0  0
  129.8680  126.8610   64.5730 H   0  0  0  0  0  0  0  0  0  0  0  0
  130.6620  127.6260   63.2530 H   0  0  0  0  0  0  0  0  0  0  0  0
  1  2  1  0
  2  3  2  0
  3  4  1  0
  4  5  2  0
  5  6  1  0
  6  7  1  0
  7  8  1  0
  8  9  2  0
  8 10  1  0
 10 11  1  0
 11 12  1  0
 12 13  2  0
 13 14  1  0
 14 15  1  0
 15 16  2  0
 16 17  1  0
 17 18  2  0
 18 19  1  0
 19 20  2  0
 14 21  2  0
 21 22  1  0
 22 23  1  0
 23 24  1  0
 23 25  1  0
 23 26  1  0
 22 27  2  0
 27 28  1  0
 28 29  1  0
  6 30  2  0
 30  2  1  0
 28 10  2  0
 27 12  1  0
 20 15  1  0
  1 31  1  0
  1 32  1  0
  1 33  1  0
  3 34  1  0
  4 35  1  0
  5 36  1  0
  7 37  1  0
 16 38  1  0
 17 39  1  0
 18 40  1  0
 19 41  1  0
 20 42  1  0
 21 43  1  0
 29 44  1  0
 29 45  1  0
M  END
>  <Binding energies>  (1) 
[-7.69]

>  <Ligand effiencies>  (1) 
[-0.23303030303030303]

>  <Interactions>  (1) 
["V-A:LEU:475:CD2:4256, V-A:GLY:454:CA:4046, V-B:TYR:539:CD1:9845, V-B:TYR:539:CE1:9847, V-B:GLU:543:CD:9880, V-A:ARG:545:CZ:4924, V-B:ALA:541:CB:9864, V-A:TYR:484:CZ:4344, H-B:GLU:543:OE2:9882, V-B:ARG:545:CZ:9898, H-B:GLU:543:OE1:9881, H-A:GLU:543:OE2:4908, H-A:GLU:543:OE1:4907, V-A:GLU:543:CD:4906, V-A:GLY:453:C:4039, H-B:ARG:545:NH2:9900, V-B:ILE:369:CD1:8210, V-A:ILE:369:CG2:3234, V-A:LEU:373:CD1:3277, V-A:PRO:482:CG:4324, V-A:SER:385:CA:3404, V-A:PRO:482:CB:4323, V-B:GLY:454:CA:9020"]

$$$$
4cf_Grossjean_2025
     RDKit          3D

 42 45  0  0  0  0  0  0  0  0999 V2000
  129.9080  126.9560   63.6900 N   0  0  0  0  0  0  0  0  0  0  0  0
  129.4700  126.0050   62.8050 C   0  0  0  0  0  0  0  0  0  0  0  0
  128.3500  126.1840   61.9750 C   0  0  0  0  0  0  0  0  0  0  0  0
  127.4410  127.3310   61.9020 C   0  0  0  0  0  0  0  0  0  0  0  0
  126.8860  127.6240   60.8420 O   0  0  0  0  0  0  0  0  0  0  0  0
  127.2630  128.0050   63.0630 N   0  0  0  0  0  0  0  0  0  0  0  0
  126.5070  129.1650   63.3220 C   0  0  0  0  0  0  0  0  0  0  0  0
  126.4690  130.3140   62.5080 C   0  0  0  0  0  0  0  0  0  0  0  0
  125.6850  131.4040   62.8900 C   0  0  0  0  0  0  0  0  0  0  0  0
  124.9580  131.3220   64.0780 C   0  0  0  0  0  0  0  0  0  0  0  0
  124.9820  130.2300   64.8830 N   0  0  0  0  0  0  0  0  0  0  0  0
  125.7500  129.1780   64.4990 C   0  0  0  0  0  0  0  0  0  0  0  0
  128.0760  124.7680   60.9630 S   0  0  0  0  0  0  0  0  0  0  0  0
  129.4530  123.9470   61.6610 C   0  0  0  0  0  0  0  0  0  0  0  0
  129.7960  122.7180   61.2800 N   0  0  0  0  0  0  0  0  0  0  0  0
  130.8710  122.1560   61.8920 C   0  0  0  0  0  0  0  0  0  0  0  0
  131.2300  120.7680   61.4470 C   0  0  0  0  0  0  0  0  0  0  0  0
  132.5220  120.4740   60.9860 C   0  0  0  0  0  0  0  0  0  0  0  0
  132.8630  119.1880   60.5720 C   0  0  0  0  0  0  0  0  0  0  0  0
  131.9120  118.1750   60.6180 C   0  0  0  0  0  0  0  0  0  0  0  0
  130.6240  118.4370   61.0740 C   0  0  0  0  0  0  0  0  0  0  0  0
  130.2890  119.7240   61.4870 C   0  0  0  0  0  0  0  0  0  0  0  0
  131.6100  122.8380   62.8630 C   0  0  0  0  0  0  0  0  0  0  0  0
  131.2590  124.1350   63.2690 C   0  0  0  0  0  0  0  0  0  0  0  0
  132.1090  124.8240   64.3430 C   0  0  0  0  0  0  0  0  0  0  0  0
  133.2020  124.1310   64.6700 F   0  0  0  0  0  0  0  0  0  0  0  0
  132.5100  126.0170   63.9050 F   0  0  0  0  0  0  0  0  0  0  0  0
  131.3910  124.9820   65.4550 F   0  0  0  0  0  0  0  0  0  0  0  0
  130.1220  124.7280   62.6470 C   0  0  0  0  0  0  0  0  0  0  0  0
  129.8850  126.8070   64.6890 H   0  0  0  0  0  0  0  0  0  0  0  0
  130.2730  127.8440   63.3700 H   0  0  0  0  0  0  0  0  0  0  0  0
  127.7350  127.6290   63.8730 H   0  0  0  0  0  0  0  0  0  0  0  0
  127.0536  130.3521   61.5770 H   0  0  0  0  0  0  0  0  0  0  0  0
  125.6413  132.3094   62.2669 H   0  0  0  0  0  0  0  0  0  0  0  0
  124.3379  132.1806   64.3752 H   0  0  0  0  0  0  0  0  0  0  0  0
  125.7786  128.2896   65.1470 H   0  0  0  0  0  0  0  0  0  0  0  0
  133.2783  121.2719   60.9508 H   0  0  0  0  0  0  0  0  0  0  0  0
  133.8799  118.9753   60.2105 H   0  0  0  0  0  0  0  0  0  0  0  0
  132.1798  117.1592   60.2916 H   0  0  0  0  0  0  0  0  0  0  0  0
  129.8747  117.6324   61.1081 H   0  0  0  0  0  0  0  0  0  0  0  0
  129.2710  119.9273   61.8507 H   0  0  0  0  0  0  0  0  0  0  0  0
  132.4838  122.3486   63.3179 H   0  0  0  0  0  0  0  0  0  0  0  0
  1  2  1  0
  2  3  2  0
  3  4  1  0
  4  5  2  0
  4  6  1  0
  6  7  1  0
  7  8  2  0
  8  9  1  0
  9 10  2  0
 10 11  1  0
 11 12  2  0
  3 13  1  0
 13 14  1  0
 14 15  2  0
 15 16  1  0
 16 17  1  0
 17 18  2  0
 18 19  1  0
 19 20  2  0
 20 21  1  0
 21 22  2  0
 16 23  2  0
 23 24  1  0
 24 25  1  0
 25 26  1  0
 25 27  1  0
 25 28  1  0
 24 29  2  0
 29  2  1  0
 12  7  1  0
 29 14  1  0
 22 17  1  0
  1 30  1  0
  1 31  1  0
  6 32  1  0
  8 33  1  0
  9 34  1  0
 10 35  1  0
 12 36  1  0
 18 37  1  0
 19 38  1  0
 20 39  1  0
 21 40  1  0
 22 41  1  0
 23 42  1  0
M  END
>  <Binding energies>  (1) 
[-7.5]

>  <Ligand effiencies>  (1) 
[-0.234375]

>  <Interactions>  (1) 
["V-A:LEU:475:CD2:4256, V-A:GLY:454:CA:4046, V-B:TYR:539:CD1:9845, V-B:TYR:539:CE1:9847, V-B:GLU:543:CD:9880, V-A:ARG:545:CZ:4924, V-B:ALA:541:CB:9864, V-A:TYR:484:CZ:4344, H-B:GLU:543:OE2:9882, V-B:ARG:545:CZ:9898, H-B:GLU:543:OE1:9881, H-A:GLU:543:OE2:4908, H-A:GLU:543:OE1:4907, V-A:GLU:543:CD:4906, V-A:GLY:453:C:4039, H-B:ARG:545:NH2:9900, H-B:TYR:484:OH:9319, V-A:ILE:369:CG2:3234, H-B:GLY:454:N:9021, V-A:LEU:373:CD1:3277, V-A:PRO:482:CG:4324, V-A:SER:385:CA:3404, V-A:PRO:482:CB:4323, V-B:GLY:454:CA:9020"]

$$$$
4cg_Grossjean_2025
     RDKit          3D

 46 49  0  0  0  0  0  0  0  0999 V2000
  130.3060  127.9660   62.9920 N   0  0  0  0  0  0  0  0  0  0  0  0
  130.4240  127.1340   61.9090 C   0  0  0  0  0  0  0  0  0  0  0  0
  130.2320  127.5630   60.5870 C   0  0  0  0  0  0  0  0  0  0  0  0
  129.9340  128.9090   60.0990 C   0  0  0  0  0  0  0  0  0  0  0  0
  128.8550  129.1740   59.5640 O   0  0  0  0  0  0  0  0  0  0  0  0
  130.9210  129.8200   60.2350 N   0  0  0  0  0  0  0  0  0  0  0  0
  130.8370  131.2250   59.8400 C   0  0  0  0  0  0  0  0  0  0  0  0
  131.3480  131.4900   58.4280 C   0  0  0  0  0  0  0  0  0  0  0  0
  130.4560  131.8970   57.4320 C   0  0  0  0  0  0  0  0  0  0  0  0
  130.9240  132.1710   56.1490 C   0  0  0  0  0  0  0  0  0  0  0  0
  132.2820  132.0440   55.8700 C   0  0  0  0  0  0  0  0  0  0  0  0
  133.1790  131.6540   56.8620 C   0  0  0  0  0  0  0  0  0  0  0  0
  132.7120  131.3830   58.1460 C   0  0  0  0  0  0  0  0  0  0  0  0
  130.4810  126.2480   59.4430 S   0  0  0  0  0  0  0  0  0  0  0  0
  130.8170  125.1270   60.7420 C   0  0  0  0  0  0  0  0  0  0  0  0
  131.1030  123.8510   60.5000 N   0  0  0  0  0  0  0  0  0  0  0  0
  131.3550  123.0550   61.5720 C   0  0  0  0  0  0  0  0  0  0  0  0
  131.6730  121.6190   61.2660 C   0  0  0  0  0  0  0  0  0  0  0  0
  130.6970  120.6190   61.4050 C   0  0  0  0  0  0  0  0  0  0  0  0
  130.9870  119.2870   61.1240 C   0  0  0  0  0  0  0  0  0  0  0  0
  132.2640  118.9330   60.6990 C   0  0  0  0  0  0  0  0  0  0  0  0
  133.2510  119.9020   60.5560 C   0  0  0  0  0  0  0  0  0  0  0  0
  132.9560  121.2330   60.8380 C   0  0  0  0  0  0  0  0  0  0  0  0
  131.3000  123.5430   62.8830 C   0  0  0  0  0  0  0  0  0  0  0  0
  130.9990  124.8880   63.1490 C   0  0  0  0  0  0  0  0  0  0  0  0
  130.9540  125.3560   64.6080 C   0  0  0  0  0  0  0  0  0  0  0  0
  130.9010  124.3470   65.4800 F   0  0  0  0  0  0  0  0  0  0  0  0
  132.0470  126.0670   64.8860 F   0  0  0  0  0  0  0  0  0  0  0  0
  129.8750  126.1110   64.8060 F   0  0  0  0  0  0  0  0  0  0  0  0
  130.7470  125.7340   62.0300 C   0  0  0  0  0  0  0  0  0  0  0  0
  130.2590  127.6110   63.9370 H   0  0  0  0  0  0  0  0  0  0  0  0
  130.2690  128.9700   62.8820 H   0  0  0  0  0  0  0  0  0  0  0  0
  131.7470  129.5520   60.7480 H   0  0  0  0  0  0  0  0  0  0  0  0
  129.7845  131.5399   59.8945 H   0  0  0  0  0  0  0  0  0  0  0  0
  131.4782  131.7943   60.5290 H   0  0  0  0  0  0  0  0  0  0  0  0
  129.3852  132.0009   57.6611 H   0  0  0  0  0  0  0  0  0  0  0  0
  130.2245  132.4860   55.3607 H   0  0  0  0  0  0  0  0  0  0  0  0
  132.6508  132.2539   54.8551 H   0  0  0  0  0  0  0  0  0  0  0  0
  134.2507  131.5605   56.6324 H   0  0  0  0  0  0  0  0  0  0  0  0
  133.4162  131.0852   58.9368 H   0  0  0  0  0  0  0  0  0  0  0  0
  129.6862  120.8930   61.7416 H   0  0  0  0  0  0  0  0  0  0  0  0
  130.2097  118.5170   61.2374 H   0  0  0  0  0  0  0  0  0  0  0  0
  132.4939  117.8809   60.4750 H   0  0  0  0  0  0  0  0  0  0  0  0
  134.2598  119.6183   60.2217 H   0  0  0  0  0  0  0  0  0  0  0  0
  133.7400  121.9961   60.7241 H   0  0  0  0  0  0  0  0  0  0  0  0
  131.4966  122.8587   63.7215 H   0  0  0  0  0  0  0  0  0  0  0  0
  1  2  1  0
  2  3  2  0
  3  4  1  0
  4  5  2  0
  4  6  1  0
  6  7  1  0
  7  8  1  0
  8  9  2  0
  9 10  1  0
 10 11  2  0
 11 12  1  0
 12 13  2  0
  3 14  1  0
 14 15  1  0
 15 16  2  0
 16 17  1  0
 17 18  1  0
 18 19  2  0
 19 20  1  0
 20 21  2  0
 21 22  1  0
 22 23  2  0
 17 24  2  0
 24 25  1  0
 25 26  1  0
 26 27  1  0
 26 28  1  0
 26 29  1  0
 25 30  2  0
 30  2  1  0
 13  8  1  0
 30 15  1  0
 23 18  1  0
  1 31  1  0
  1 32  1  0
  6 33  1  0
  7 34  1  0
  7 35  1  0
  9 36  1  0
 10 37  1  0
 11 38  1  0
 12 39  1  0
 13 40  1  0
 19 41  1  0
 20 42  1  0
 21 43  1  0
 22 44  1  0
 23 45  1  0
 24 46  1  0
M  END
>  <Binding energies>  (1) 
[-7.69]

>  <Ligand effiencies>  (1) 
[-0.23303030303030303]

>  <Interactions>  (1) 
["V-B:GLU:543:CG:9879, V-A:LEU:475:CD2:4256, V-B:TYR:539:CD1:9845, V-A:TYR:484:CE2:4343, V-B:GLU:543:CB:9878, V-B:TYR:539:CE1:9847, V-B:GLU:543:CD:9880, V-A:ARG:545:CZ:4924, V-B:ALA:541:CB:9864, V-A:TYR:484:CZ:4344, H-A:ASP:366:OD2:3212, H-B:GLU:543:OE2:9882, H-A:GLU:543:OE2:4908, H-A:GLU:543:OE1:4907, V-A:GLU:543:CD:4906, V-A:PRO:540:CA:4881, V-A:PRO:540:CB:4883, V-A:LEU:363:CD1:3186, V-A:ILE:538:CA:4858, V-A:ILE:538:CB:4860, V-A:MET:535:CE:4833, V-A:ILE:538:CG2:4861, V-A:TYR:531:CE2:4791, V-A:TYR:531:CZ:4792, V-A:ILE:369:CG2:3234, V-A:LEU:373:CD1:3277, V-A:SER:385:CA:3404"]

$$$$
4ch_Grossjean_2025
     RDKit          3D

 58 61  0  0  0  0  0  0  0  0999 V2000
  128.7250  132.5170   56.0090 C   0  0  0  0  0  0  0  0  0  0  0  0
  129.2980  133.2260   57.1030 O   0  0  0  0  0  0  0  0  0  0  0  0
  130.0880  132.5470   58.0120 C   0  0  0  0  0  0  0  0  0  0  0  0
  129.6040  131.9800   59.2020 C   0  0  0  0  0  0  0  0  0  0  0  0
  130.4600  131.3050   60.0740 C   0  0  0  0  0  0  0  0  0  0  0  0
  129.9210  130.7200   61.3740 C   0  0  0  0  0  0  0  0  0  0  0  0
  130.1660  129.2860   61.5340 N   0  0  0  0  0  0  0  0  0  0  0  0
  130.0490  128.3570   60.5620 C   0  0  0  0  0  0  0  0  0  0  0  0
  129.7420  128.6450   59.4030 O   0  0  0  0  0  0  0  0  0  0  0  0
  130.3470  126.9790   60.9530 C   0  0  0  0  0  0  0  0  0  0  0  0
  130.5800  125.7430   59.7210 S   0  0  0  0  0  0  0  0  0  0  0  0
  130.8910  124.5280   60.9360 C   0  0  0  0  0  0  0  0  0  0  0  0
  131.1520  123.2660   60.6060 N   0  0  0  0  0  0  0  0  0  0  0  0
  131.3870  122.3920   61.6200 C   0  0  0  0  0  0  0  0  0  0  0  0
  131.6720  120.9750   61.2140 C   0  0  0  0  0  0  0  0  0  0  0  0
  130.6620  119.9990   61.2500 C   0  0  0  0  0  0  0  0  0  0  0  0
  130.9210  118.6830   60.8750 C   0  0  0  0  0  0  0  0  0  0  0  0
  132.1980  118.3220   60.4600 C   0  0  0  0  0  0  0  0  0  0  0  0
  133.2180  119.2670   60.4190 C   0  0  0  0  0  0  0  0  0  0  0  0
  132.9550  120.5820   60.7960 C   0  0  0  0  0  0  0  0  0  0  0  0
  131.3400  122.7880   62.9610 C   0  0  0  0  0  0  0  0  0  0  0  0
  131.0630  124.1170   63.3220 C   0  0  0  0  0  0  0  0  0  0  0  0
  131.0270  124.4820   64.8090 C   0  0  0  0  0  0  0  0  0  0  0  0
  130.2120  125.5040   65.0790 F   0  0  0  0  0  0  0  0  0  0  0  0
  130.6050  123.4380   65.5210 F   0  0  0  0  0  0  0  0  0  0  0  0
  132.2480  124.8280   65.2190 F   0  0  0  0  0  0  0  0  0  0  0  0
  130.8290  125.0430   62.2650 C   0  0  0  0  0  0  0  0  0  0  0  0
  130.5270  126.4540   62.2420 C   0  0  0  0  0  0  0  0  0  0  0  0
  130.4160  127.2090   63.3820 N   0  0  0  0  0  0  0  0  0  0  0  0
  131.8180  131.2090   59.7670 C   0  0  0  0  0  0  0  0  0  0  0  0
  132.3300  131.7680   58.5850 C   0  0  0  0  0  0  0  0  0  0  0  0
  133.6620  131.7090   58.2180 O   0  0  0  0  0  0  0  0  0  0  0  0
  134.1080  130.6530   57.3730 C   0  0  0  0  0  0  0  0  0  0  0  0
  131.4530  132.4290   57.7130 C   0  0  0  0  0  0  0  0  0  0  0  0
  131.9430  132.9940   56.5610 O   0  0  0  0  0  0  0  0  0  0  0  0
  132.0610  132.0850   55.4750 C   0  0  0  0  0  0  0  0  0  0  0  0
  128.0767  131.7148   56.3912 H   0  0  0  0  0  0  0  0  0  0  0  0
  128.1293  133.2088   55.3954 H   0  0  0  0  0  0  0  0  0  0  0  0
  129.5264  132.0797   55.3954 H   0  0  0  0  0  0  0  0  0  0  0  0
  128.5361  132.0689   59.4504 H   0  0  0  0  0  0  0  0  0  0  0  0
  130.3980  131.2472   62.2134 H   0  0  0  0  0  0  0  0  0  0  0  0
  128.8294  130.8535   61.3518 H   0  0  0  0  0  0  0  0  0  0  0  0
  130.3690  128.9720   62.4720 H   0  0  0  0  0  0  0  0  0  0  0  0
  129.6505  120.2788   61.5796 H   0  0  0  0  0  0  0  0  0  0  0  0
  130.1181  117.9318   60.9070 H   0  0  0  0  0  0  0  0  0  0  0  0
  132.4029  117.2830   60.1624 H   0  0  0  0  0  0  0  0  0  0  0  0
  134.2271  118.9774   60.0906 H   0  0  0  0  0  0  0  0  0  0  0  0
  133.7652  121.3254   60.7660 H   0  0  0  0  0  0  0  0  0  0  0  0
  131.5238  122.0431   63.7492 H   0  0  0  0  0  0  0  0  0  0  0  0
  129.7960  128.0050   63.4370 H   0  0  0  0  0  0  0  0  0  0  0  0
  130.9500  126.9900   64.2110 H   0  0  0  0  0  0  0  0  0  0  0  0
  132.4959  130.6888   60.4597 H   0  0  0  0  0  0  0  0  0  0  0  0
  134.4623  129.8142   57.9902 H   0  0  0  0  0  0  0  0  0  0  0  0
  133.2757  130.3151   56.7380 H   0  0  0  0  0  0  0  0  0  0  0  0
  134.9305  131.0140   56.7380 H   0  0  0  0  0  0  0  0  0  0  0  0
  132.1935  131.0645   55.8637 H   0  0  0  0  0  0  0  0  0  0  0  0
  131.1498  132.1278   54.8603 H   0  0  0  0  0  0  0  0  0  0  0  0
  132.9311  132.3591   54.8603 H   0  0  0  0  0  0  0  0  0  0  0  0
  1  2  1  0
  2  3  1  0
  3  4  2  0
  4  5  1  0
  5  6  1  0
  6  7  1  0
  7  8  1  0
  8  9  2  0
  8 10  1  0
 10 11  1  0
 11 12  1  0
 12 13  2  0
 13 14  1  0
 14 15  1  0
 15 16  2  0
 16 17  1  0
 17 18  2  0
 18 19  1  0
 19 20  2  0
 14 21  2  0
 21 22  1  0
 22 23  1  0
 23 24  1  0
 23 25  1  0
 23 26  1  0
 22 27  2  0
 27 28  1  0
 28 29  1  0
  5 30  2  0
 30 31  1  0
 31 32  1  0
 32 33  1  0
 31 34  2  0
 34 35  1  0
 35 36  1  0
 34  3  1  0
 28 10  2  0
 27 12  1  0
 20 15  1  0
  1 37  1  0
  1 38  1  0
  1 39  1  0
  4 40  1  0
  6 41  1  0
  6 42  1  0
  7 43  1  0
 16 44  1  0
 17 45  1  0
 18 46  1  0
 19 47  1  0
 20 48  1  0
 21 49  1  0
 29 50  1  0
 29 51  1  0
 30 52  1  0
 33 53  1  0
 33 54  1  0
 33 55  1  0
 36 56  1  0
 36 57  1  0
 36 58  1  0
M  END
>  <Binding energies>  (1) 
[-8.19]

>  <Ligand effiencies>  (1) 
[-0.21]

>  <Interactions>  (1) 
["V-B:GLU:543:CG:9879, V-A:LEU:475:CD2:4256, V-B:TYR:539:CD1:9845, V-A:TYR:484:CE2:4343, V-B:GLU:543:CB:9878, V-B:TYR:539:CE1:9847, V-B:GLU:543:CD:9880, V-B:ALA:541:CB:9864, V-A:TYR:484:CZ:4344, H-B:GLU:543:OE2:9882, V-A:ASP:366:CG:3210, H-A:GLU:543:OE2:4908, H-A:GLU:543:OE1:4907, V-A:GLU:543:CD:4906, V-A:TYR:539:CE1:4873, V-A:TYR:539:C:4865, V-A:PRO:540:CA:4881, V-A:PRO:540:CB:4883, V-A:PRO:540:N:4882, V-A:LEU:363:CD1:3186, V-A:ILE:538:CA:4858, V-A:TYR:539:CG:4870, V-A:ILE:538:CB:4860, V-A:MET:535:CE:4833, V-A:ILE:538:CG2:4861, V-A:TYR:531:CE2:4791, V-A:PRO:540:CD:4885, V-A:TYR:531:CZ:4792, V-A:ILE:369:CG2:3234, V-A:LEU:373:CD1:3277, V-A:PRO:482:CG:4324, V-A:SER:385:CA:3404, V-A:SER:385:CB:3406, V-A:PRO:482:CB:4323, V-A:TYR:539:CD2:4872, V-A:TYR:539:CE2:4874, V-A:TYR:539:CZ:4875, V-A:ASP:366:CB:3209, H-A:TYR:539:N:4868, V-A:LEU:363:CA:3182, V-A:LEU:363:CB:3184, V-A:LEU:363:C:3180"]

$$$$
4ci_Grossjean_2025
     RDKit          3D

 39 42  0  0  0  0  0  0  0  0999 V2000
  132.4150  125.8210   62.0670 N   0  0  0  0  0  0  0  0  0  0  0  0
  131.8910  124.6410   62.5260 C   0  0  0  0  0  0  0  0  0  0  0  0
  131.0850  124.5500   63.6720 C   0  0  0  0  0  0  0  0  0  0  0  0
  130.6440  125.6250   64.5650 C   0  0  0  0  0  0  0  0  0  0  0  0
  129.9050  126.5220   64.1520 O   0  0  0  0  0  0  0  0  0  0  0  0
  131.1130  125.5580   65.8360 N   0  0  0  0  0  0  0  0  0  0  0  0
  130.8590  126.4390   66.8790 C   0  0  0  0  0  0  0  0  0  0  0  0
  129.5890  126.6320   67.4220 C   0  0  0  0  0  0  0  0  0  0  0  0
  129.7620  127.5690   68.4140 C   0  0  0  0  0  0  0  0  0  0  0  0
  131.0690  127.9220   68.4670 O   0  0  0  0  0  0  0  0  0  0  0  0
  131.7530  127.1990   67.4890 N   0  0  0  0  0  0  0  0  0  0  0  0
  130.5790  122.8880   63.9650 S   0  0  0  0  0  0  0  0  0  0  0  0
  131.4540  122.3260   62.5600 C   0  0  0  0  0  0  0  0  0  0  0  0
  131.4620  121.0410   62.2140 N   0  0  0  0  0  0  0  0  0  0  0  0
  132.1670  120.6990   61.1050 C   0  0  0  0  0  0  0  0  0  0  0  0
  132.1610  119.2420   60.7420 C   0  0  0  0  0  0  0  0  0  0  0  0
  130.9580  118.5160   60.6950 C   0  0  0  0  0  0  0  0  0  0  0  0
  130.9460  117.1650   60.3590 C   0  0  0  0  0  0  0  0  0  0  0  0
  132.1410  116.5170   60.0650 C   0  0  0  0  0  0  0  0  0  0  0  0
  133.3460  117.2080   60.1090 C   0  0  0  0  0  0  0  0  0  0  0  0
  133.3540  118.5590   60.4470 C   0  0  0  0  0  0  0  0  0  0  0  0
  132.8750  121.6480   60.3600 C   0  0  0  0  0  0  0  0  0  0  0  0
  132.8740  123.0060   60.7160 C   0  0  0  0  0  0  0  0  0  0  0  0
  133.6720  123.9910   59.8540 C   0  0  0  0  0  0  0  0  0  0  0  0
  134.0800  123.4650   58.6980 F   0  0  0  0  0  0  0  0  0  0  0  0
  132.9160  125.0500   59.5650 F   0  0  0  0  0  0  0  0  0  0  0  0
  134.7580  124.3930   60.5150 F   0  0  0  0  0  0  0  0  0  0  0  0
  132.1270  123.3760   61.8700 C   0  0  0  0  0  0  0  0  0  0  0  0
  133.3040  125.8620   61.5870 H   0  0  0  0  0  0  0  0  0  0  0  0
  131.9230  126.6960   62.1880 H   0  0  0  0  0  0  0  0  0  0  0  0
  131.7190  124.7840   66.0620 H   0  0  0  0  0  0  0  0  0  0  0  0
  128.6515  126.1410   67.1218 H   0  0  0  0  0  0  0  0  0  0  0  0
  128.9666  127.9679   69.0607 H   0  0  0  0  0  0  0  0  0  0  0  0
  130.0104  119.0239   60.9276 H   0  0  0  0  0  0  0  0  0  0  0  0
  129.9954  116.6124   60.3262 H   0  0  0  0  0  0  0  0  0  0  0  0
  132.1323  115.4505   59.7959 H   0  0  0  0  0  0  0  0  0  0  0  0
  134.2887  116.6904   59.8780 H   0  0  0  0  0  0  0  0  0  0  0  0
  134.3104  119.1012   60.4838 H   0  0  0  0  0  0  0  0  0  0  0  0
  133.4445  121.3234   59.4767 H   0  0  0  0  0  0  0  0  0  0  0  0
  1  2  1  0
  2  3  2  0
  3  4  1  0
  4  5  2  0
  4  6  1  0
  6  7  1  0
  7  8  1  0
  8  9  2  0
  9 10  1  0
 10 11  1  0
  3 12  1  0
 12 13  1  0
 13 14  2  0
 14 15  1  0
 15 16  1  0
 16 17  2  0
 17 18  1  0
 18 19  2  0
 19 20  1  0
 20 21  2  0
 15 22  2  0
 22 23  1  0
 23 24  1  0
 24 25  1  0
 24 26  1  0
 24 27  1  0
 23 28  2  0
 28  2  1  0
 11  7  2  0
 28 13  1  0
 21 16  1  0
  1 29  1  0
  1 30  1  0
  6 31  1  0
  8 32  1  0
  9 33  1  0
 17 34  1  0
 18 35  1  0
 19 36  1  0
 20 37  1  0
 21 38  1  0
 22 39  1  0
M  END
>  <Binding energies>  (1) 
[-7.2]

>  <Ligand effiencies>  (1) 
[-0.23225806451612904]

>  <Interactions>  (1) 
["V-A:HIS:456:CE1:4066, V-B:GLU:543:CG:9879, V-A:LEU:475:CD2:4256, H-A:TYR:484:OH:4345, V-B:TYR:539:CD1:9845, V-B:GLU:543:CB:9878, V-B:TYR:539:CE1:9847, V-B:GLU:543:CD:9880, V-A:ARG:545:CZ:4924, V-B:ALA:541:CB:9864, H-A:ASP:366:OD2:3212, H-A:ASP:366:OD1:3211, V-A:ASP:366:CG:3210, V-A:GLU:543:CD:4906, V-A:ILE:369:CD1:3236, H-A:ARG:545:NE:4922, V-B:TYR:539:CG:9844, V-B:TYR:539:CZ:9849, V-A:ILE:369:CG2:3234, V-A:ILE:369:CB:3233, V-A:LEU:373:CD1:3277, V-A:PRO:482:CG:4324, V-A:SER:385:CA:3404, V-A:SER:385:CB:3406, V-A:PRO:482:CB:4323, V-A:VAL:384:C:3394, V-A:ASP:366:CB:3209, V-A:ASP:366:CA:3207, V-B:TYR:539:CB:9843, V-A:GLU:543:CG:4905, V-A:ILE:369:CG1:3235"]

$$$$
4cj_Grossjean_2025
     RDKit          3D

 39 42  0  0  0  0  0  0  0  0999 V2000
  130.1190  126.8840   63.6080 N   0  0  0  0  0  0  0  0  0  0  0  0
  129.6320  125.9250   62.7560 C   0  0  0  0  0  0  0  0  0  0  0  0
  128.4960  126.1160   61.9520 C   0  0  0  0  0  0  0  0  0  0  0  0
  127.6410  127.3010   61.8450 C   0  0  0  0  0  0  0  0  0  0  0  0
  127.2350  127.6880   60.7470 O   0  0  0  0  0  0  0  0  0  0  0  0
  127.3550  127.9200   63.0170 N   0  0  0  0  0  0  0  0  0  0  0  0
  126.5720  129.0540   63.1910 C   0  0  0  0  0  0  0  0  0  0  0  0
  125.9680  129.7670   62.2650 N   0  0  0  0  0  0  0  0  0  0  0  0
  125.3060  130.7800   62.7890 C   0  0  0  0  0  0  0  0  0  0  0  0
  125.3640  130.9030   64.1740 C   0  0  0  0  0  0  0  0  0  0  0  0
  126.3420  129.6170   64.8160 S   0  0  0  0  0  0  0  0  0  0  0  0
  128.1610  124.6890   60.9740 S   0  0  0  0  0  0  0  0  0  0  0  0
  129.5380  123.8500   61.6480 C   0  0  0  0  0  0  0  0  0  0  0  0
  129.8500  122.6130   61.2700 N   0  0  0  0  0  0  0  0  0  0  0  0
  130.9420  122.0440   61.8420 C   0  0  0  0  0  0  0  0  0  0  0  0
  131.2730  120.6520   61.3840 C   0  0  0  0  0  0  0  0  0  0  0  0
  130.3300  119.6170   61.4910 C   0  0  0  0  0  0  0  0  0  0  0  0
  130.6330  118.3230   61.0740 C   0  0  0  0  0  0  0  0  0  0  0  0
  131.8890  118.0460   60.5430 C   0  0  0  0  0  0  0  0  0  0  0  0
  132.8410  119.0520   60.4280 C   0  0  0  0  0  0  0  0  0  0  0  0
  132.5340  120.3440   60.8460 C   0  0  0  0  0  0  0  0  0  0  0  0
  131.7010  122.7110   62.8090 C   0  0  0  0  0  0  0  0  0  0  0  0
  131.3800  124.0160   63.2170 C   0  0  0  0  0  0  0  0  0  0  0  0
  132.2570  124.6900   64.2780 C   0  0  0  0  0  0  0  0  0  0  0  0
  132.8100  125.8280   63.8560 F   0  0  0  0  0  0  0  0  0  0  0  0
  131.5220  124.9770   65.3520 F   0  0  0  0  0  0  0  0  0  0  0  0
  133.2490  123.8720   64.6310 F   0  0  0  0  0  0  0  0  0  0  0  0
  130.2480  124.6290   62.6080 C   0  0  0  0  0  0  0  0  0  0  0  0
  130.0880  127.8680   63.3800 H   0  0  0  0  0  0  0  0  0  0  0  0
  130.5230  126.6360   64.5000 H   0  0  0  0  0  0  0  0  0  0  0  0
  127.7540  127.5300   63.8580 H   0  0  0  0  0  0  0  0  0  0  0  0
  124.7397  131.4881   62.1662 H   0  0  0  0  0  0  0  0  0  0  0  0
  124.8707  131.6873   64.7668 H   0  0  0  0  0  0  0  0  0  0  0  0
  129.3362  119.8316   61.9108 H   0  0  0  0  0  0  0  0  0  0  0  0
  129.8827  117.5236   61.1641 H   0  0  0  0  0  0  0  0  0  0  0  0
  132.1298  117.0249   60.2123 H   0  0  0  0  0  0  0  0  0  0  0  0
  133.8329  118.8283   60.0085 H   0  0  0  0  0  0  0  0  0  0  0  0
  133.2910  121.1367   60.7536 H   0  0  0  0  0  0  0  0  0  0  0  0
  132.5668  122.2033   63.2591 H   0  0  0  0  0  0  0  0  0  0  0  0
  1  2  1  0
  2  3  2  0
  3  4  1  0
  4  5  2  0
  4  6  1  0
  6  7  1  0
  7  8  2  0
  8  9  1  0
  9 10  2  0
 10 11  1  0
  3 12  1  0
 12 13  1  0
 13 14  2  0
 14 15  1  0
 15 16  1  0
 16 17  2  0
 17 18  1  0
 18 19  2  0
 19 20  1  0
 20 21  2  0
 15 22  2  0
 22 23  1  0
 23 24  1  0
 24 25  1  0
 24 26  1  0
 24 27  1  0
 23 28  2  0
 28  2  1  0
 11  7  1  0
 28 13  1  0
 21 16  1  0
  1 29  1  0
  1 30  1  0
  6 31  1  0
  9 32  1  0
 10 33  1  0
 17 34  1  0
 18 35  1  0
 19 36  1  0
 20 37  1  0
 21 38  1  0
 22 39  1  0
M  END
>  <Binding energies>  (1) 
[-6.96]

>  <Ligand effiencies>  (1) 
[-0.22451612903225807]

>  <Interactions>  (1) 
["V-A:LEU:475:CD2:4256, V-A:GLY:454:CA:4046, V-B:TYR:539:CD1:9845, V-B:TYR:539:CE1:9847, V-B:GLU:543:CD:9880, V-A:ARG:545:CZ:4924, V-B:ALA:541:CB:9864, V-A:TYR:484:CZ:4344, H-B:GLU:543:OE2:9882, V-B:ARG:545:CZ:9898, H-B:GLU:543:OE1:9881, H-A:GLU:543:OE2:4908, H-A:GLU:543:OE1:4907, V-A:GLU:543:CD:4906, V-A:GLY:453:C:4039, H-B:ARG:545:NH2:9900, V-A:ILE:369:CG2:3234, V-A:LEU:373:CD1:3277, V-A:PRO:482:CG:4324, V-A:SER:385:CA:3404, V-A:PRO:482:CB:4323, V-B:GLY:454:CA:9020"]

$$$$
4ck_Grossjean_2025
     RDKit          3D

 57 59  0  0  0  0  0  0  0  0999 V2000
  124.7980  130.1710   58.4450 C   0  0  0  0  0  0  0  0  0  0  0  0
  124.0340  131.2650   58.9280 O   0  0  0  0  0  0  0  0  0  0  0  0
  123.6370  131.1220   60.2840 C   0  0  0  0  0  0  0  0  0  0  0  0
  124.2470  132.2640   61.1070 C   0  0  0  0  0  0  0  0  0  0  0  0
  123.8810  132.1000   62.4700 O   0  0  0  0  0  0  0  0  0  0  0  0
  124.7060  132.8270   63.3710 C   0  0  0  0  0  0  0  0  0  0  0  0
  125.3710  131.8480   64.3460 C   0  0  0  0  0  0  0  0  0  0  0  0
  124.7470  130.5780   64.2160 O   0  0  0  0  0  0  0  0  0  0  0  0
  125.6580  129.4860   64.2270 C   0  0  0  0  0  0  0  0  0  0  0  0
  126.0830  129.1560   62.7880 C   0  0  0  0  0  0  0  0  0  0  0  0
  126.9750  127.9970   62.7300 N   0  0  0  0  0  0  0  0  0  0  0  0
  127.5200  127.4750   61.6120 C   0  0  0  0  0  0  0  0  0  0  0  0
  127.3350  127.9580   60.4930 O   0  0  0  0  0  0  0  0  0  0  0  0
  128.3640  126.2950   61.8030 C   0  0  0  0  0  0  0  0  0  0  0  0
  128.1420  124.8750   60.7840 S   0  0  0  0  0  0  0  0  0  0  0  0
  129.4680  124.0510   61.5700 C   0  0  0  0  0  0  0  0  0  0  0  0
  129.8310  122.8220   61.2130 N   0  0  0  0  0  0  0  0  0  0  0  0
  130.8730  122.2620   61.8820 C   0  0  0  0  0  0  0  0  0  0  0  0
  131.2700  120.8820   61.4430 C   0  0  0  0  0  0  0  0  0  0  0  0
  130.3520  119.8200   61.4900 C   0  0  0  0  0  0  0  0  0  0  0  0
  130.7150  118.5370   61.0870 C   0  0  0  0  0  0  0  0  0  0  0  0
  132.0060  118.2980   60.6280 C   0  0  0  0  0  0  0  0  0  0  0  0
  132.9330  119.3320   60.5650 C   0  0  0  0  0  0  0  0  0  0  0  0
  132.5660  120.6140   60.9690 C   0  0  0  0  0  0  0  0  0  0  0  0
  131.5500  122.9420   62.8990 C   0  0  0  0  0  0  0  0  0  0  0  0
  131.1730  124.2390   63.2850 C   0  0  0  0  0  0  0  0  0  0  0  0
  131.9560  124.9260   64.4110 C   0  0  0  0  0  0  0  0  0  0  0  0
  131.2860  124.9670   65.5640 F   0  0  0  0  0  0  0  0  0  0  0  0
  133.0950  124.2700   64.6330 F   0  0  0  0  0  0  0  0  0  0  0  0
  132.2320  126.1830   64.0650 F   0  0  0  0  0  0  0  0  0  0  0  0
  130.0810  124.8350   62.5920 C   0  0  0  0  0  0  0  0  0  0  0  0
  129.4320  126.1190   62.6970 C   0  0  0  0  0  0  0  0  0  0  0  0
  129.8230  127.0790   63.5950 N   0  0  0  0  0  0  0  0  0  0  0  0
  125.1975  129.5989   59.2954 H   0  0  0  0  0  0  0  0  0  0  0  0
  124.1580  129.5188   57.8326 H   0  0  0  0  0  0  0  0  0  0  0  0
  125.6307  130.5473   57.8326 H   0  0  0  0  0  0  0  0  0  0  0  0
  122.5399  131.1629   60.3532 H   0  0  0  0  0  0  0  0  0  0  0  0
  123.9879  130.1550   60.6736 H   0  0  0  0  0  0  0  0  0  0  0  0
  125.3428  132.2407   61.0142 H   0  0  0  0  0  0  0  0  0  0  0  0
  123.8732  133.2297   60.7359 H   0  0  0  0  0  0  0  0  0  0  0  0
  125.4803  133.3675   62.8067 H   0  0  0  0  0  0  0  0  0  0  0  0
  124.0946  133.5495   63.9316 H   0  0  0  0  0  0  0  0  0  0  0  0
  126.4416  131.7600   64.1090 H   0  0  0  0  0  0  0  0  0  0  0  0
  125.2612  132.2148   65.3772 H   0  0  0  0  0  0  0  0  0  0  0  0
  126.5455  129.7554   64.8183 H   0  0  0  0  0  0  0  0  0  0  0  0
  125.1704  128.6075   64.6748 H   0  0  0  0  0  0  0  0  0  0  0  0
  125.1833  128.9414   62.1927 H   0  0  0  0  0  0  0  0  0  0  0  0
  126.6282  130.0237   62.3881 H   0  0  0  0  0  0  0  0  0  0  0  0
  127.2440  127.6020   63.6190 H   0  0  0  0  0  0  0  0  0  0  0  0
  129.3295  120.0045   61.8510 H   0  0  0  0  0  0  0  0  0  0  0  0
  129.9838  117.7164   61.1316 H   0  0  0  0  0  0  0  0  0  0  0  0
  132.2953  117.2846   60.3129 H   0  0  0  0  0  0  0  0  0  0  0  0
  133.9518  119.1390   60.1978 H   0  0  0  0  0  0  0  0  0  0  0  0
  133.3023  121.4295   60.9162 H   0  0  0  0  0  0  0  0  0  0  0  0
  132.3940  122.4520   63.4065 H   0  0  0  0  0  0  0  0  0  0  0  0
  130.5590  127.7400   63.3870 H   0  0  0  0  0  0  0  0  0  0  0  0
  129.3820  127.1610   64.5010 H   0  0  0  0  0  0  0  0  0  0  0  0
  1  2  1  0
  2  3  1  0
  3  4  1  0
  4  5  1  0
  5  6  1  0
  6  7  1  0
  7  8  1  0
  8  9  1  0
  9 10  1  0
 10 11  1  0
 11 12  1  0
 12 13  2  0
 12 14  1  0
 14 15  1  0
 15 16  1  0
 16 17  2  0
 17 18  1  0
 18 19  1  0
 19 20  2  0
 20 21  1  0
 21 22  2  0
 22 23  1  0
 23 24  2  0
 18 25  2  0
 25 26  1  0
 26 27  1  0
 27 28  1  0
 27 29  1  0
 27 30  1  0
 26 31  2  0
 31 32  1  0
 32 33  1  0
 32 14  2  0
 31 16  1  0
 24 19  1  0
  1 34  1  0
  1 35  1  0
  1 36  1  0
  3 37  1  0
  3 38  1  0
  4 39  1  0
  4 40  1  0
  6 41  1  0
  6 42  1  0
  7 43  1  0
  7 44  1  0
  9 45  1  0
  9 46  1  0
 10 47  1  0
 10 48  1  0
 11 49  1  0
 20 50  1  0
 21 51  1  0
 22 52  1  0
 23 53  1  0
 24 54  1  0
 25 55  1  0
 33 56  1  0
 33 57  1  0
M  END
>  <Binding energies>  (1) 
[-7.06]

>  <Ligand effiencies>  (1) 
[-0.1961111111111111]

>  <Interactions>  (1) 
["V-A:HIS:456:CE1:4066, V-A:LEU:475:CD2:4256, V-A:GLY:454:CA:4046, V-B:TYR:539:CD1:9845, V-B:ASP:366:CG:8184, V-B:TYR:539:CE1:9847, V-B:GLU:543:CD:9880, V-A:ARG:545:CZ:4924, V-B:ALA:541:CB:9864, V-A:TYR:484:CZ:4344, H-B:GLU:543:OE2:9882, V-B:ARG:545:CZ:9898, H-B:GLU:543:OE1:9881, V-B:ASP:366:CB:8183, H-A:GLU:543:OE2:4908, H-A:GLU:543:OE1:4907, V-A:GLU:543:CD:4906, V-A:TYR:539:CE1:4873, V-B:LEU:475:CD2:9230, V-B:ILE:369:CD1:8210, V-B:ILE:369:CG2:8208, H-B:TYR:484:OH:9319, V-A:ILE:369:CG2:3234, H-B:GLY:454:N:9021, V-A:LEU:373:CD1:3277, V-A:PRO:482:CG:4324, V-A:SER:385:CA:3404, V-A:PRO:482:CB:4323, V-A:TYR:539:CZ:4875, H-A:TYR:539:OH:4876, V-B:GLY:454:CA:9020, V-B:ASP:366:CA:8181, V-B:ILE:369:CB:8207"]

$$$$
4dd_Grossjean_2025
     RDKit          3D

 43 46  0  0  0  0  0  0  0  0999 V2000
  130.7640  125.5750   64.3130 C   0  0  0  0  0  0  0  0  0  0  0  0
  130.9900  125.0680   62.8970 C   0  0  0  0  0  0  0  0  0  0  0  0
  131.2440  123.7030   62.7170 C   0  0  0  0  0  0  0  0  0  0  0  0
  131.4610  123.1730   61.4390 C   0  0  0  0  0  0  0  0  0  0  0  0
  131.7410  121.7160   61.2180 C   0  0  0  0  0  0  0  0  0  0  0  0
  130.7160  120.7620   61.3230 C   0  0  0  0  0  0  0  0  0  0  0  0
  130.9680  119.4080   61.1160 C   0  0  0  0  0  0  0  0  0  0  0  0
  132.2550  118.9880   60.8010 C   0  0  0  0  0  0  0  0  0  0  0  0
  133.2900  119.9100   60.6890 C   0  0  0  0  0  0  0  0  0  0  0  0
  133.0320  121.2640   60.8940 C   0  0  0  0  0  0  0  0  0  0  0  0
  131.4460  123.9550   60.3250 N   0  0  0  0  0  0  0  0  0  0  0  0
  131.1980  125.2530   60.4940 C   0  0  0  0  0  0  0  0  0  0  0  0
  131.1320  126.3680   59.1480 S   0  0  0  0  0  0  0  0  0  0  0  0
  130.7790  127.7210   60.2250 C   0  0  0  0  0  0  0  0  0  0  0  0
  130.5730  129.0660   59.6830 C   0  0  0  0  0  0  0  0  0  0  0  0
  129.7400  129.8230   60.1830 O   0  0  0  0  0  0  0  0  0  0  0  0
  131.3580  129.3920   58.6270 N   0  0  0  0  0  0  0  0  0  0  0  0
  131.3740  130.5660   57.8520 C   0  0  0  0  0  0  0  0  0  0  0  0
  132.6380  131.0890   57.5630 C   0  0  0  0  0  0  0  0  0  0  0  0
  132.7610  132.2410   56.7900 C   0  0  0  0  0  0  0  0  0  0  0  0
  131.6190  132.8660   56.2980 C   0  0  0  0  0  0  0  0  0  0  0  0
  130.3550  132.3490   56.5670 C   0  0  0  0  0  0  0  0  0  0  0  0
  130.2280  131.1980   57.3400 C   0  0  0  0  0  0  0  0  0  0  0  0
  130.7250  127.3010   61.5630 C   0  0  0  0  0  0  0  0  0  0  0  0
  130.4730  128.1420   62.6180 N   0  0  0  0  0  0  0  0  0  0  0  0
  130.9590  125.8930   61.7430 C   0  0  0  0  0  0  0  0  0  0  0  0
  131.1026  124.8153   65.0329 H   0  0  0  0  0  0  0  0  0  0  0  0
  131.3333  126.5039   64.4651 H   0  0  0  0  0  0  0  0  0  0  0  0
  129.6926  125.7725   64.4651 H   0  0  0  0  0  0  0  0  0  0  0  0
  131.2735  123.0372   63.5921 H   0  0  0  0  0  0  0  0  0  0  0  0
  129.6962  121.0898   61.5731 H   0  0  0  0  0  0  0  0  0  0  0  0
  130.1526  118.6746   61.2014 H   0  0  0  0  0  0  0  0  0  0  0  0
  132.4562  117.9187   60.6392 H   0  0  0  0  0  0  0  0  0  0  0  0
  134.3068  119.5723   60.4399 H   0  0  0  0  0  0  0  0  0  0  0  0
  133.8521  121.9911   60.8007 H   0  0  0  0  0  0  0  0  0  0  0  0
  132.0440  128.7040   58.3550 H   0  0  0  0  0  0  0  0  0  0  0  0
  133.5389  130.5886   57.9477 H   0  0  0  0  0  0  0  0  0  0  0  0
  133.7560  132.6549   56.5694 H   0  0  0  0  0  0  0  0  0  0  0  0
  131.7163  133.7778   55.6904 H   0  0  0  0  0  0  0  0  0  0  0  0
  129.4589  132.8484   56.1700 H   0  0  0  0  0  0  0  0  0  0  0  0
  129.2310  130.7835   57.5499 H   0  0  0  0  0  0  0  0  0  0  0  0
  130.5660  127.8380   63.5770 H   0  0  0  0  0  0  0  0  0  0  0  0
  130.1870  129.1000   62.4680 H   0  0  0  0  0  0  0  0  0  0  0  0
  1  2  1  0
  2  3  2  0
  3  4  1  0
  4  5  1  0
  5  6  2  0
  6  7  1  0
  7  8  2  0
  8  9  1  0
  9 10  2  0
  4 11  2  0
 11 12  1  0
 12 13  1  0
 13 14  1  0
 14 15  1  0
 15 16  2  0
 15 17  1  0
 17 18  1  0
 18 19  2  0
 19 20  1  0
 20 21  2  0
 21 22  1  0
 22 23  2  0
 14 24  2  0
 24 25  1  0
 24 26  1  0
 26  2  1  0
 10  5  1  0
 26 12  2  0
 23 18  1  0
  1 27  1  0
  1 28  1  0
  1 29  1  0
  3 30  1  0
  6 31  1  0
  7 32  1  0
  8 33  1  0
  9 34  1  0
 10 35  1  0
 17 36  1  0
 19 37  1  0
 20 38  1  0
 21 39  1  0
 22 40  1  0
 23 41  1  0
 25 42  1  0
 25 43  1  0
M  END
>  <Binding energies>  (1) 
[-7.6]

>  <Ligand effiencies>  (1) 
[-0.26206896551724135]

>  <Interactions>  (1) 
["V-A:LEU:475:CD2:4256, V-B:TYR:539:CD1:9845, V-B:TYR:539:CE1:9847, V-B:GLU:543:CD:9880, V-B:ALA:541:CB:9864, H-A:ASP:366:OD2:3212, H-A:ASP:366:OD1:3211, V-A:ASP:366:CG:3210, H-A:GLU:543:OE2:4908, H-A:GLU:543:OE1:4907, V-A:GLU:543:CD:4906, V-A:PRO:540:CB:4883, V-A:PRO:540:N:4882, V-A:LEU:363:CD1:3186, V-A:ILE:538:CA:4858, V-A:ILE:538:CB:4860, V-A:ILE:538:CG2:4861, V-A:TYR:531:CE2:4791, V-A:PRO:540:CD:4885, V-A:ILE:369:CG2:3234, H-A:TYR:531:OH:4793, V-A:LEU:373:CD1:3277, V-A:SER:385:CA:3404, V-A:ASP:366:CB:3209"]

$$$$
4dg_Grossjean_2025
     RDKit          3D

 46 49  0  0  0  0  0  0  0  0999 V2000
  130.6860  125.3590   64.5690 C   0  0  0  0  0  0  0  0  0  0  0  0
  130.9120  124.9230   63.1300 C   0  0  0  0  0  0  0  0  0  0  0  0
  131.1990  123.5750   62.8850 C   0  0  0  0  0  0  0  0  0  0  0  0
  131.4170  123.1100   61.5820 C   0  0  0  0  0  0  0  0  0  0  0  0
  131.7250  121.6690   61.2890 C   0  0  0  0  0  0  0  0  0  0  0  0
  130.7320  120.6820   61.4010 C   0  0  0  0  0  0  0  0  0  0  0  0
  131.0140  119.3440   61.1340 C   0  0  0  0  0  0  0  0  0  0  0  0
  132.2970  118.9730   60.7490 C   0  0  0  0  0  0  0  0  0  0  0  0
  133.3020  119.9290   60.6340 C   0  0  0  0  0  0  0  0  0  0  0  0
  133.0160  121.2640   60.9020 C   0  0  0  0  0  0  0  0  0  0  0  0
  131.3420  123.9360   60.5040 N   0  0  0  0  0  0  0  0  0  0  0  0
  131.0690  125.2200   60.7350 C   0  0  0  0  0  0  0  0  0  0  0  0
  130.9510  126.3890   59.4400 S   0  0  0  0  0  0  0  0  0  0  0  0
  130.5920  127.6830   60.5830 C   0  0  0  0  0  0  0  0  0  0  0  0
  130.4070  129.0530   60.1070 C   0  0  0  0  0  0  0  0  0  0  0  0
  129.4420  129.3640   59.4050 O   0  0  0  0  0  0  0  0  0  0  0  0
  131.3710  129.9320   60.4500 N   0  0  0  0  0  0  0  0  0  0  0  0
  131.3830  131.3530   60.1060 C   0  0  0  0  0  0  0  0  0  0  0  0
  131.5220  131.6130   58.6100 C   0  0  0  0  0  0  0  0  0  0  0  0
  130.4180  132.0620   57.8780 C   0  0  0  0  0  0  0  0  0  0  0  0
  130.5490  132.3300   56.5190 C   0  0  0  0  0  0  0  0  0  0  0  0
  131.7840  132.1590   55.8970 C   0  0  0  0  0  0  0  0  0  0  0  0
  132.8920  131.7280   56.6240 C   0  0  0  0  0  0  0  0  0  0  0  0
  132.7620  131.4610   57.9840 C   0  0  0  0  0  0  0  0  0  0  0  0
  130.5860  127.2100   61.9030 C   0  0  0  0  0  0  0  0  0  0  0  0
  130.3490  128.0030   62.9970 N   0  0  0  0  0  0  0  0  0  0  0  0
  130.8440  125.7990   62.0160 C   0  0  0  0  0  0  0  0  0  0  0  0
  131.0832  124.5927   65.2510 H   0  0  0  0  0  0  0  0  0  0  0  0
  131.2030  126.3132   64.7485 H   0  0  0  0  0  0  0  0  0  0  0  0
  129.6083  125.4865   64.7485 H   0  0  0  0  0  0  0  0  0  0  0  0
  131.2541  122.8707   63.7281 H   0  0  0  0  0  0  0  0  0  0  0  0
  129.7148  120.9702   61.7046 H   0  0  0  0  0  0  0  0  0  0  0  0
  130.2242  118.5840   61.2275 H   0  0  0  0  0  0  0  0  0  0  0  0
  132.5194  117.9174   60.5339 H   0  0  0  0  0  0  0  0  0  0  0  0
  134.3170  119.6307   60.3328 H   0  0  0  0  0  0  0  0  0  0  0  0
  133.8132  122.0163   60.8097 H   0  0  0  0  0  0  0  0  0  0  0  0
  132.0890  129.6250   61.0910 H   0  0  0  0  0  0  0  0  0  0  0  0
  130.4410  131.8035   60.4521 H   0  0  0  0  0  0  0  0  0  0  0  0
  132.2616  131.7982   60.5959 H   0  0  0  0  0  0  0  0  0  0  0  0
  129.4474  132.2031   58.3761 H   0  0  0  0  0  0  0  0  0  0  0  0
  129.6812  132.6754   55.9380 H   0  0  0  0  0  0  0  0  0  0  0  0
  131.8854  132.3663   54.8215 H   0  0  0  0  0  0  0  0  0  0  0  0
  133.8642  131.5994   56.1258 H   0  0  0  0  0  0  0  0  0  0  0  0
  133.6351  131.1305   58.5657 H   0  0  0  0  0  0  0  0  0  0  0  0
  130.2320  127.6160   63.9220 H   0  0  0  0  0  0  0  0  0  0  0  0
  130.2900  129.0090   62.9120 H   0  0  0  0  0  0  0  0  0  0  0  0
  1  2  1  0
  2  3  2  0
  3  4  1  0
  4  5  1  0
  5  6  2  0
  6  7  1  0
  7  8  2  0
  8  9  1  0
  9 10  2  0
  4 11  2  0
 11 12  1  0
 12 13  1  0
 13 14  1  0
 14 15  1  0
 15 16  2  0
 15 17  1  0
 17 18  1  0
 18 19  1  0
 19 20  2  0
 20 21  1  0
 21 22  2  0
 22 23  1  0
 23 24  2  0
 14 25  2  0
 25 26  1  0
 25 27  1  0
 27  2  1  0
 10  5  1  0
 27 12  2  0
 24 19  1  0
  1 28  1  0
  1 29  1  0
  1 30  1  0
  3 31  1  0
  6 32  1  0
  7 33  1  0
  8 34  1  0
  9 35  1  0
 10 36  1  0
 17 37  1  0
 18 38  1  0
 18 39  1  0
 20 40  1  0
 21 41  1  0
 22 42  1  0
 23 43  1  0
 24 44  1  0
 26 45  1  0
 26 46  1  0
M  END
>  <Binding energies>  (1) 
[-8.16]

>  <Ligand effiencies>  (1) 
[-0.272]

>  <Interactions>  (1) 
["V-A:LEU:475:CD2:4256, V-B:TYR:539:CD1:9845, V-B:TYR:539:CE1:9847, V-B:GLU:543:CD:9880, V-B:ALA:541:CB:9864, H-A:ASP:366:OD2:3212, H-B:GLU:543:OE2:9882, H-A:ASP:366:OD1:3211, V-A:ASP:366:CG:3210, H-A:GLU:543:OE2:4908, H-A:GLU:543:OE1:4907, V-A:GLU:543:CD:4906, V-A:PRO:540:CA:4881, V-A:PRO:540:CB:4883, V-A:PRO:540:N:4882, V-A:LEU:363:CD1:3186, V-A:ILE:538:CB:4860, V-A:ILE:538:CG2:4861, V-A:TYR:531:CE2:4791, V-A:TYR:531:CZ:4792, V-A:ILE:369:CG2:3234, V-A:LEU:373:CD1:3277, V-A:SER:385:CA:3404"]

$$$$
4dj_Grossjean_2025
     RDKit          3D

 39 42  0  0  0  0  0  0  0  0999 V2000
  134.1780  123.7210   60.3340 C   0  0  0  0  0  0  0  0  0  0  0  0
  133.1670  122.8190   61.0250 C   0  0  0  0  0  0  0  0  0  0  0  0
  133.0670  121.4900   60.5970 C   0  0  0  0  0  0  0  0  0  0  0  0
  132.1540  120.6100   61.1900 C   0  0  0  0  0  0  0  0  0  0  0  0
  132.0280  119.1770   60.7550 C   0  0  0  0  0  0  0  0  0  0  0  0
  133.1660  118.4190   60.4350 C   0  0  0  0  0  0  0  0  0  0  0  0
  133.0570  117.0910   60.0310 C   0  0  0  0  0  0  0  0  0  0  0  0
  131.8010  116.5010   59.9360 C   0  0  0  0  0  0  0  0  0  0  0  0
  130.6570  117.2290   60.2420 C   0  0  0  0  0  0  0  0  0  0  0  0
  130.7710  118.5550   60.6470 C   0  0  0  0  0  0  0  0  0  0  0  0
  131.3420  120.9970   62.2120 N   0  0  0  0  0  0  0  0  0  0  0  0
  131.4360  122.2610   62.6200 C   0  0  0  0  0  0  0  0  0  0  0  0
  130.4470  122.8940   63.9170 S   0  0  0  0  0  0  0  0  0  0  0  0
  131.1930  124.4870   63.7730 C   0  0  0  0  0  0  0  0  0  0  0  0
  130.7710  125.5830   64.6460 C   0  0  0  0  0  0  0  0  0  0  0  0
  130.0660  126.4980   64.2120 O   0  0  0  0  0  0  0  0  0  0  0  0
  131.2140  125.5150   65.9250 N   0  0  0  0  0  0  0  0  0  0  0  0
  130.9620  126.4200   66.9450 C   0  0  0  0  0  0  0  0  0  0  0  0
  131.7960  127.2850   67.4830 N   0  0  0  0  0  0  0  0  0  0  0  0
  131.2160  127.9920   68.4330 C   0  0  0  0  0  0  0  0  0  0  0  0
  129.8770  127.7060   68.6830 C   0  0  0  0  0  0  0  0  0  0  0  0
  129.3600  126.4400   67.6100 S   0  0  0  0  0  0  0  0  0  0  0  0
  132.1590  124.5020   62.7550 C   0  0  0  0  0  0  0  0  0  0  0  0
  132.8960  125.6100   62.4190 N   0  0  0  0  0  0  0  0  0  0  0  0
  132.3190  123.2410   62.0820 C   0  0  0  0  0  0  0  0  0  0  0  0
  134.7733  124.2521   61.0913 H   0  0  0  0  0  0  0  0  0  0  0  0
  134.8439  123.1114   59.7055 H   0  0  0  0  0  0  0  0  0  0  0  0
  133.6480  124.4518   59.7055 H   0  0  0  0  0  0  0  0  0  0  0  0
  133.7149  121.1321   59.7833 H   0  0  0  0  0  0  0  0  0  0  0  0
  134.1611  118.8826   60.5047 H   0  0  0  0  0  0  0  0  0  0  0  0
  133.9598  116.5113   59.7882 H   0  0  0  0  0  0  0  0  0  0  0  0
  131.7124  115.4521   59.6168 H   0  0  0  0  0  0  0  0  0  0  0  0
  129.6657  116.7586   60.1642 H   0  0  0  0  0  0  0  0  0  0  0  0
  129.8625  119.1269   60.8869 H   0  0  0  0  0  0  0  0  0  0  0  0
  131.7950  124.7260   66.1730 H   0  0  0  0  0  0  0  0  0  0  0  0
  131.7599  128.7645   68.9963 H   0  0  0  0  0  0  0  0  0  0  0  0
  129.2478  128.2010   69.4374 H   0  0  0  0  0  0  0  0  0  0  0  0
  133.6110  125.5800   61.7080 H   0  0  0  0  0  0  0  0  0  0  0  0
  132.7450  126.4980   62.8760 H   0  0  0  0  0  0  0  0  0  0  0  0
  1  2  1  0
  2  3  2  0
  3  4  1  0
  4  5  1  0
  5  6  2  0
  6  7  1  0
  7  8  2  0
  8  9  1  0
  9 10  2  0
  4 11  2  0
 11 12  1  0
 12 13  1  0
 13 14  1  0
 14 15  1  0
 15 16  2  0
 15 17  1  0
 17 18  1  0
 18 19  2  0
 19 20  1  0
 20 21  2  0
 21 22  1  0
 14 23  2  0
 23 24  1  0
 23 25  1  0
 25  2  1  0
 10  5  1  0
 25 12  2  0
 22 18  1  0
  1 26  1  0
  1 27  1  0
  1 28  1  0
  3 29  1  0
  6 30  1  0
  7 31  1  0
  8 32  1  0
  9 33  1  0
 10 34  1  0
 17 35  1  0
 20 36  1  0
 21 37  1  0
 24 38  1  0
 24 39  1  0
M  END
>  <Binding energies>  (1) 
[-7.39]

>  <Ligand effiencies>  (1) 
[-0.2639285714285714]

>  <Interactions>  (1) 
["V-A:HIS:456:CE1:4066, V-B:GLU:543:CG:9879, V-A:LEU:475:CD2:4256, H-A:TYR:484:OH:4345, V-B:TYR:539:CD1:9845, V-B:GLU:543:CB:9878, V-B:TYR:539:CE1:9847, V-B:GLU:543:CD:9880, V-A:ARG:545:CZ:4924, V-B:ALA:541:CB:9864, H-A:ASP:366:OD1:3211, H-A:GLU:543:OE2:4908, V-A:GLU:543:CD:4906, V-A:ILE:369:CD1:3236, V-A:ARG:545:CG:4920, H-A:ARG:545:NE:4922, V-B:TYR:539:CG:9844, V-A:ILE:369:CG2:3234, V-A:ILE:369:CB:3233, V-A:LEU:373:CD1:3277, V-A:GLU:543:CB:4904, V-A:PRO:482:CG:4324, V-A:SER:385:CA:3404, V-A:SER:385:CB:3406, V-A:PRO:482:CB:4323, V-B:TYR:539:CB:9843, V-A:GLU:543:C:4900, V-A:GLU:543:CG:4905, V-A:ILE:369:CG1:3235, V-B:VAL:344:CG1:7972"]

$$$$
4ea_Grossjean_2025
     RDKit          3D

 52 55  0  0  0  0  0  0  0  0999 V2000
  131.4800  117.2470   59.7430 C   0  0  0  0  0  0  0  0  0  0  0  0
  132.1990  117.8900   60.9320 C   0  0  0  0  0  0  0  0  0  0  0  0
  132.0210  119.3000   60.8850 O   0  0  0  0  0  0  0  0  0  0  0  0
  133.0840  120.1400   60.7950 C   0  0  0  0  0  0  0  0  0  0  0  0
  134.2560  119.7510   60.7650 O   0  0  0  0  0  0  0  0  0  0  0  0
  132.6920  121.5880   60.7360 C   0  0  0  0  0  0  0  0  0  0  0  0
  131.3340  121.9300   60.7740 C   0  0  0  0  0  0  0  0  0  0  0  0
  130.9380  123.2630   60.7200 C   0  0  0  0  0  0  0  0  0  0  0  0
  131.8880  124.2810   60.6280 C   0  0  0  0  0  0  0  0  0  0  0  0
  131.3720  125.5900   60.5810 N   0  0  0  0  0  0  0  0  0  0  0  0
  130.5430  126.1760   59.6820 C   0  0  0  0  0  0  0  0  0  0  0  0
  130.0800  125.6070   58.6930 O   0  0  0  0  0  0  0  0  0  0  0  0
  130.2130  127.5770   59.9580 C   0  0  0  0  0  0  0  0  0  0  0  0
  129.2050  128.0010   61.3440 S   0  0  0  0  0  0  0  0  0  0  0  0
  129.3060  129.7030   60.9580 C   0  0  0  0  0  0  0  0  0  0  0  0
  128.6990  130.6310   61.6990 N   0  0  0  0  0  0  0  0  0  0  0  0
  128.8550  131.9150   61.2930 C   0  0  0  0  0  0  0  0  0  0  0  0
  128.1560  132.9540   62.1500 C   0  0  0  0  0  0  0  0  0  0  0  0
  129.5980  132.2890   60.1750 C   0  0  0  0  0  0  0  0  0  0  0  0
  130.2330  131.3130   59.4010 C   0  0  0  0  0  0  0  0  0  0  0  0
  131.0180  131.7250   58.2160 C   0  0  0  0  0  0  0  0  0  0  0  0
  132.4160  131.7020   58.2550 C   0  0  0  0  0  0  0  0  0  0  0  0
  133.1560  132.0870   57.1400 C   0  0  0  0  0  0  0  0  0  0  0  0
  132.4960  132.5010   55.9850 C   0  0  0  0  0  0  0  0  0  0  0  0
  131.1040  132.5330   55.9360 C   0  0  0  0  0  0  0  0  0  0  0  0
  130.3670  132.1470   57.0520 C   0  0  0  0  0  0  0  0  0  0  0  0
  130.0930  129.9530   59.7940 C   0  0  0  0  0  0  0  0  0  0  0  0
  130.5980  128.7220   59.2430 C   0  0  0  0  0  0  0  0  0  0  0  0
  131.3840  128.6910   58.1190 N   0  0  0  0  0  0  0  0  0  0  0  0
  133.2510  123.9470   60.5900 C   0  0  0  0  0  0  0  0  0  0  0  0
  133.6450  122.6130   60.6430 C   0  0  0  0  0  0  0  0  0  0  0  0
  130.7075  116.5561   60.1116 H   0  0  0  0  0  0  0  0  0  0  0  0
  131.0093  118.0309   59.1316 H   0  0  0  0  0  0  0  0  0  0  0  0
  132.2067  116.6920   59.1316 H   0  0  0  0  0  0  0  0  0  0  0  0
  131.7794  117.4981   61.8703 H   0  0  0  0  0  0  0  0  0  0  0  0
  133.2722  117.6532   60.8844 H   0  0  0  0  0  0  0  0  0  0  0  0
  130.5741  121.1380   60.8472 H   0  0  0  0  0  0  0  0  0  0  0  0
  129.8679  123.5161   60.7501 H   0  0  0  0  0  0  0  0  0  0  0  0
  131.6750  126.1770   61.3440 H   0  0  0  0  0  0  0  0  0  0  0  0
  128.3140  132.7191   63.2129 H   0  0  0  0  0  0  0  0  0  0  0  0
  128.5688  133.9494   61.9292 H   0  0  0  0  0  0  0  0  0  0  0  0
  127.0784  132.9467   61.9292 H   0  0  0  0  0  0  0  0  0  0  0  0
  129.6848  133.3510   59.9017 H   0  0  0  0  0  0  0  0  0  0  0  0
  132.9331  131.3784   59.1704 H   0  0  0  0  0  0  0  0  0  0  0  0
  134.2553  132.0644   57.1710 H   0  0  0  0  0  0  0  0  0  0  0  0
  133.0794  132.8054   55.1035 H   0  0  0  0  0  0  0  0  0  0  0  0
  130.5902  132.8615   55.0205 H   0  0  0  0  0  0  0  0  0  0  0  0
  129.2678  132.1739   57.0184 H   0  0  0  0  0  0  0  0  0  0  0  0
  131.0730  128.2540   57.2630 H   0  0  0  0  0  0  0  0  0  0  0  0
  132.3060  129.1070   58.1100 H   0  0  0  0  0  0  0  0  0  0  0  0
  134.0090  124.7409   60.5182 H   0  0  0  0  0  0  0  0  0  0  0  0
  134.7150  122.3600   60.6116 H   0  0  0  0  0  0  0  0  0  0  0  0
  1  2  1  0
  2  3  1  0
  3  4  1  0
  4  5  2  0
  4  6  1  0
  6  7  2  0
  7  8  1  0
  8  9  2  0
  9 10  1  0
 10 11  1  0
 11 12  2  0
 11 13  1  0
 13 14  1  0
 14 15  1  0
 15 16  2  0
 16 17  1  0
 17 18  1  0
 17 19  2  0
 19 20  1  0
 20 21  1  0
 21 22  2  0
 22 23  1  0
 23 24  2  0
 24 25  1  0
 25 26  2  0
 20 27  2  0
 27 28  1  0
 28 29  1  0
  9 30  1  0
 30 31  2  0
 31  6  1  0
 28 13  2  0
 27 15  1  0
 26 21  1  0
  1 32  1  0
  1 33  1  0
  1 34  1  0
  2 35  1  0
  2 36  1  0
  7 37  1  0
  8 38  1  0
 10 39  1  0
 18 40  1  0
 18 41  1  0
 18 42  1  0
 19 43  1  0
 22 44  1  0
 23 45  1  0
 24 46  1  0
 25 47  1  0
 26 48  1  0
 29 49  1  0
 29 50  1  0
 30 51  1  0
 31 52  1  0
M  END
>  <Binding energies>  (1) 
[-7.33]

>  <Ligand effiencies>  (1) 
[-0.21558823529411764]

>  <Interactions>  (1) 
["V-A:LEU:475:CD2:4256, V-B:TYR:539:CD1:9845, V-B:TYR:539:CE1:9847, H-A:ASP:366:OD2:3212, H-A:ASP:366:OD1:3211, V-A:ASP:366:CG:3210, V-A:ILE:369:CD1:3236, V-A:TYR:539:C:4865, V-A:ALA:541:CB:4890, V-A:PRO:540:CA:4881, V-A:PRO:540:CB:4883, V-A:PRO:540:N:4882, V-A:LEU:363:CD1:3186, V-A:ILE:538:CA:4858, V-B:TYR:539:CG:9844, V-A:ILE:538:CB:4860, V-A:ILE:538:CG2:4861, V-A:TYR:531:CE2:4791, V-A:PRO:540:CD:4885, V-A:ILE:369:CG2:3234, V-A:ILE:369:CB:3233, H-A:TYR:531:OH:4793, V-A:LEU:373:CD1:3277, V-A:SER:385:CA:3404, V-A:SER:385:CB:3406, V-A:ASP:366:CB:3209, V-B:TYR:539:CB:9843, V-A:LEU:363:CA:3182"]

$$$$
4eb_Grossjean_2025
     RDKit          3D

 49 52  0  0  0  0  0  0  0  0999 V2000
  128.6270  132.8400   54.7230 C   0  0  0  0  0  0  0  0  0  0  0  0
  129.1260  133.2560   55.9860 O   0  0  0  0  0  0  0  0  0  0  0  0
  130.3410  132.8380   56.4290 C   0  0  0  0  0  0  0  0  0  0  0  0
  131.3720  133.5060   56.3170 O   0  0  0  0  0  0  0  0  0  0  0  0
  130.3030  131.4800   57.0690 C   0  0  0  0  0  0  0  0  0  0  0  0
  131.5080  130.8490   57.4060 C   0  0  0  0  0  0  0  0  0  0  0  0
  131.5070  129.5910   58.0000 C   0  0  0  0  0  0  0  0  0  0  0  0
  130.3040  128.9360   58.2700 C   0  0  0  0  0  0  0  0  0  0  0  0
  130.4240  127.6690   58.8720 N   0  0  0  0  0  0  0  0  0  0  0  0
  131.2540  126.6360   58.5860 C   0  0  0  0  0  0  0  0  0  0  0  0
  132.0940  126.6500   57.6860 O   0  0  0  0  0  0  0  0  0  0  0  0
  131.0950  125.4530   59.4360 C   0  0  0  0  0  0  0  0  0  0  0  0
  130.5670  123.9190   58.7400 S   0  0  0  0  0  0  0  0  0  0  0  0
  130.6400  123.1310   60.3000 C   0  0  0  0  0  0  0  0  0  0  0  0
  130.3280  121.8430   60.4540 N   0  0  0  0  0  0  0  0  0  0  0  0
  130.4260  121.3540   61.7140 C   0  0  0  0  0  0  0  0  0  0  0  0
  130.0670  119.8860   61.8660 C   0  0  0  0  0  0  0  0  0  0  0  0
  130.8230  122.1130   62.8120 C   0  0  0  0  0  0  0  0  0  0  0  0
  131.1490  123.4640   62.6460 C   0  0  0  0  0  0  0  0  0  0  0  0
  131.5690  124.2580   63.8230 C   0  0  0  0  0  0  0  0  0  0  0  0
  132.9070  124.6340   63.9750 C   0  0  0  0  0  0  0  0  0  0  0  0
  133.3030  125.3830   65.0810 C   0  0  0  0  0  0  0  0  0  0  0  0
  132.3600  125.7520   66.0360 C   0  0  0  0  0  0  0  0  0  0  0  0
  131.0250  125.3800   65.8950 C   0  0  0  0  0  0  0  0  0  0  0  0
  130.6310  124.6320   64.7890 C   0  0  0  0  0  0  0  0  0  0  0  0
  131.0590  124.0160   61.3390 C   0  0  0  0  0  0  0  0  0  0  0  0
  131.3120  125.3330   60.8180 C   0  0  0  0  0  0  0  0  0  0  0  0
  131.7280  126.3690   61.6160 N   0  0  0  0  0  0  0  0  0  0  0  0
  129.0920  129.5600   57.9360 C   0  0  0  0  0  0  0  0  0  0  0  0
  129.0950  130.8190   57.3420 C   0  0  0  0  0  0  0  0  0  0  0  0
  127.7898  132.1421   54.8713 H   0  0  0  0  0  0  0  0  0  0  0  0
  128.2772  133.7177   54.1597 H   0  0  0  0  0  0  0  0  0  0  0  0
  129.4275  132.3380   54.1597 H   0  0  0  0  0  0  0  0  0  0  0  0
  132.4635  131.3531   57.1989 H   0  0  0  0  0  0  0  0  0  0  0  0
  132.4612  129.1088   58.2589 H   0  0  0  0  0  0  0  0  0  0  0  0
  129.7850  127.5170   59.6380 H   0  0  0  0  0  0  0  0  0  0  0  0
  130.0050  119.6324   62.9346 H   0  0  0  0  0  0  0  0  0  0  0  0
  129.0956  119.6946   61.3868 H   0  0  0  0  0  0  0  0  0  0  0  0
  130.8404  119.2679   61.3868 H   0  0  0  0  0  0  0  0  0  0  0  0
  130.8803  121.6512   63.8087 H   0  0  0  0  0  0  0  0  0  0  0  0
  133.6492  124.3376   63.2192 H   0  0  0  0  0  0  0  0  0  0  0  0
  134.3552  125.6812   65.1989 H   0  0  0  0  0  0  0  0  0  0  0  0
  132.6718  126.3427   66.9100 H   0  0  0  0  0  0  0  0  0  0  0  0
  130.2857  125.6759   66.6539 H   0  0  0  0  0  0  0  0  0  0  0  0
  129.5781  124.3344   64.6751 H   0  0  0  0  0  0  0  0  0  0  0  0
  131.1330  126.7580   62.3340 H   0  0  0  0  0  0  0  0  0  0  0  0
  132.6460  126.7790   61.5120 H   0  0  0  0  0  0  0  0  0  0  0  0
  128.1380  129.0533   58.1440 H   0  0  0  0  0  0  0  0  0  0  0  0
  128.1406  131.3011   57.0838 H   0  0  0  0  0  0  0  0  0  0  0  0
  1  2  1  0
  2  3  1  0
  3  4  2  0
  3  5  1  0
  5  6  2  0
  6  7  1  0
  7  8  2  0
  8  9  1  0
  9 10  1  0
 10 11  2  0
 10 12  1  0
 12 13  1  0
 13 14  1  0
 14 15  2  0
 15 16  1  0
 16 17  1  0
 16 18  2  0
 18 19  1  0
 19 20  1  0
 20 21  2  0
 21 22  1  0
 22 23  2  0
 23 24  1  0
 24 25  2  0
 19 26  2  0
 26 27  1  0
 27 28  1  0
  8 29  1  0
 29 30  2  0
 30  5  1  0
 27 12  2  0
 26 14  1  0
 25 20  1  0
  1 31  1  0
  1 32  1  0
  1 33  1  0
  6 34  1  0
  7 35  1  0
  9 36  1  0
 17 37  1  0
 17 38  1  0
 17 39  1  0
 18 40  1  0
 21 41  1  0
 22 42  1  0
 23 43  1  0
 24 44  1  0
 25 45  1  0
 28 46  1  0
 28 47  1  0
 29 48  1  0
 30 49  1  0
M  END
>  <Binding energies>  (1) 
[-7.19]

>  <Ligand effiencies>  (1) 
[-0.2178787878787879]

>  <Interactions>  (1) 
["V-A:HIS:456:CE1:4066, V-A:LEU:475:CD2:4256, V-A:GLY:454:CA:4046, V-B:TYR:539:CD1:9845, V-B:GLU:543:CB:9878, V-B:TYR:539:CE1:9847, V-B:GLU:543:CD:9880, V-A:ARG:545:CZ:4924, V-B:ALA:541:CB:9864, H-A:ASP:366:OD2:3212, H-A:ASP:366:OD1:3211, V-A:ASP:366:CG:3210, H-A:GLU:543:OE2:4908, V-A:ARG:545:CD:4921, V-A:ARG:545:CG:4920, V-A:TYR:539:C:4865, V-A:PRO:540:N:4882, V-A:ILE:538:CA:4858, V-A:ILE:538:C:4856, V-A:ILE:538:CB:4860, V-A:MET:535:CE:4833, V-B:TYR:539:CZ:9849, H-A:TYR:531:OH:4793, V-A:PRO:482:CB:4323, V-A:TYR:539:CD2:4872, V-A:TYR:539:CE2:4874, V-A:TYR:539:CZ:4875, V-A:ASP:366:CB:3209, V-B:ALA:541:CA:9862, V-A:VAL:537:C:4848, H-A:TYR:539:N:4868"]

$$$$
8a_Ghoteimi_2023
     RDKit          3D

 67 71  0  0  0  0  0  0  0  0999 V2000
  131.3650  126.5000   73.5370 C   0  0  0  0  0  0  0  0  0  0  0  0
  130.0130  125.9090   73.1280 C   0  0  0  0  0  0  0  0  0  0  0  0
  129.0450  126.9480   73.0560 O   0  0  0  0  0  0  0  0  0  0  0  0
  129.2600  128.0560   72.2980 C   0  0  0  0  0  0  0  0  0  0  0  0
  129.2760  129.2020   72.7580 O   0  0  0  0  0  0  0  0  0  0  0  0
  129.4720  127.7480   70.8440 C   0  0  0  0  0  0  0  0  0  0  0  0
  128.4030  127.2510   70.0880 C   0  0  0  0  0  0  0  0  0  0  0  0
  128.5670  126.9550   68.7380 C   0  0  0  0  0  0  0  0  0  0  0  0
  129.8020  127.1460   68.1150 C   0  0  0  0  0  0  0  0  0  0  0  0
  129.8520  126.8080   66.7480 N   0  0  0  0  0  0  0  0  0  0  0  0
  130.4210  125.7440   66.1290 C   0  0  0  0  0  0  0  0  0  0  0  0
  131.0280  124.8450   66.7110 O   0  0  0  0  0  0  0  0  0  0  0  0
  130.2640  125.7130   64.6710 C   0  0  0  0  0  0  0  0  0  0  0  0
  129.4070  127.0100   63.8400 S   0  0  0  0  0  0  0  0  0  0  0  0
  129.6520  126.2420   62.2890 C   0  0  0  0  0  0  0  0  0  0  0  0
  129.1740  126.7690   61.1620 N   0  0  0  0  0  0  0  0  0  0  0  0
  129.4160  126.0880   60.0110 C   0  0  0  0  0  0  0  0  0  0  0  0
  128.8530  126.6880   58.7620 C   0  0  0  0  0  0  0  0  0  0  0  0
  127.5600  127.2290   58.7390 C   0  0  0  0  0  0  0  0  0  0  0  0
  127.0370  127.7760   57.5700 C   0  0  0  0  0  0  0  0  0  0  0  0
  127.7920  127.7970   56.3990 C   0  0  0  0  0  0  0  0  0  0  0  0
  127.1910  128.3570   55.2870 O   0  0  0  0  0  0  0  0  0  0  0  0
  126.4750  129.5790   55.4280 C   0  0  0  0  0  0  0  0  0  0  0  0
  129.0880  127.2640   56.4130 C   0  0  0  0  0  0  0  0  0  0  0  0
  129.6080  126.7150   57.5830 C   0  0  0  0  0  0  0  0  0  0  0  0
  130.1370  124.8930   59.9890 C   0  0  0  0  0  0  0  0  0  0  0  0
  130.6550  124.3440   61.1670 C   0  0  0  0  0  0  0  0  0  0  0  0
  131.4420  123.0870   61.0820 C   0  0  0  0  0  0  0  0  0  0  0  0
  130.8060  121.8500   61.2020 C   0  0  0  0  0  0  0  0  0  0  0  0
  131.5370  120.6690   61.1030 C   0  0  0  0  0  0  0  0  0  0  0  0
  132.9130  120.7040   60.8780 C   0  0  0  0  0  0  0  0  0  0  0  0
  133.5550  119.4830   60.7940 O   0  0  0  0  0  0  0  0  0  0  0  0
  132.7790  118.2940   60.7130 C   0  0  0  0  0  0  0  0  0  0  0  0
  133.5530  121.9460   60.7490 C   0  0  0  0  0  0  0  0  0  0  0  0
  132.8190  123.1260   60.8470 C   0  0  0  0  0  0  0  0  0  0  0  0
  130.3950  125.0280   62.3870 C   0  0  0  0  0  0  0  0  0  0  0  0
  130.7150  124.7410   63.7640 C   0  0  0  0  0  0  0  0  0  0  0  0
  131.3880  123.6060   64.1430 N   0  0  0  0  0  0  0  0  0  0  0  0
  130.8770  127.6480   68.8640 C   0  0  0  0  0  0  0  0  0  0  0  0
  130.7110  127.9440   70.2140 C   0  0  0  0  0  0  0  0  0  0  0  0
  131.4349  126.5306   74.6343 H   0  0  0  0  0  0  0  0  0  0  0  0
  132.1754  125.8741   73.1352 H   0  0  0  0  0  0  0  0  0  0  0  0
  131.4559  127.5200   73.1352 H   0  0  0  0  0  0  0  0  0  0  0  0
  130.1064  125.4257   72.1443 H   0  0  0  0  0  0  0  0  0  0  0  0
  129.6973  125.1641   73.8733 H   0  0  0  0  0  0  0  0  0  0  0  0
  127.4247  127.0931   70.5656 H   0  0  0  0  0  0  0  0  0  0  0  0
  127.7170  126.5675   68.1572 H   0  0  0  0  0  0  0  0  0  0  0  0
  129.3770  127.4630   66.1450 H   0  0  0  0  0  0  0  0  0  0  0  0
  126.9513  127.2214   59.6552 H   0  0  0  0  0  0  0  0  0  0  0  0
  126.0198  128.1948   57.5710 H   0  0  0  0  0  0  0  0  0  0  0  0
  126.3425  129.8052   56.4963 H   0  0  0  0  0  0  0  0  0  0  0  0
  127.0395  130.3922   54.9483 H   0  0  0  0  0  0  0  0  0  0  0  0
  125.4897  129.4841   54.9483 H   0  0  0  0  0  0  0  0  0  0  0  0
  129.6968  127.2792   55.4970 H   0  0  0  0  0  0  0  0  0  0  0  0
  130.6255  126.2970   57.5806 H   0  0  0  0  0  0  0  0  0  0  0  0
  130.3002  124.3757   59.0321 H   0  0  0  0  0  0  0  0  0  0  0  0
  129.7206  121.8080   61.3758 H   0  0  0  0  0  0  0  0  0  0  0  0
  131.0251  119.7005   61.2031 H   0  0  0  0  0  0  0  0  0  0  0  0
  132.5466  117.9380   61.7275 H   0  0  0  0  0  0  0  0  0  0  0  0
  131.8429  118.5031   60.1744 H   0  0  0  0  0  0  0  0  0  0  0  0
  133.3472  117.5213   60.1744 H   0  0  0  0  0  0  0  0  0  0  0  0
  134.6375  121.9881   60.5700 H   0  0  0  0  0  0  0  0  0  0  0  0
  133.3271  124.0956   60.7386 H   0  0  0  0  0  0  0  0  0  0  0  0
  131.6370  123.4400   65.1080 H   0  0  0  0  0  0  0  0  0  0  0  0
  131.6520  122.8970   63.4750 H   0  0  0  0  0  0  0  0  0  0  0  0
  131.8533  127.8080   68.3832 H   0  0  0  0  0  0  0  0  0  0  0  0
  131.5600  128.3358   70.7934 H   0  0  0  0  0  0  0  0  0  0  0  0
  1  2  1  0
  2  3  1  0
  3  4  1  0
  4  5  2  0
  4  6  1  0
  6  7  2  0
  7  8  1  0
  8  9  2  0
  9 10  1  0
 10 11  1  0
 11 12  2  0
 11 13  1  0
 13 14  1  0
 14 15  1  0
 15 16  2  0
 16 17  1  0
 17 18  1  0
 18 19  2  0
 19 20  1  0
 20 21  2  0
 21 22  1  0
 22 23  1  0
 21 24  1  0
 24 25  2  0
 17 26  2  0
 26 27  1  0
 27 28  1  0
 28 29  2  0
 29 30  1  0
 30 31  2  0
 31 32  1  0
 32 33  1  0
 31 34  1  0
 34 35  2  0
 27 36  2  0
 36 37  1  0
 37 38  1  0
  9 39  1  0
 39 40  2  0
 40  6  1  0
 37 13  2  0
 36 15  1  0
 25 18  1  0
 35 28  1  0
  1 41  1  0
  1 42  1  0
  1 43  1  0
  2 44  1  0
  2 45  1  0
  7 46  1  0
  8 47  1  0
 10 48  1  0
 19 49  1  0
 20 50  1  0
 23 51  1  0
 23 52  1  0
 23 53  1  0
 24 54  1  0
 25 55  1  0
 26 56  1  0
 29 57  1  0
 30 58  1  0
 33 59  1  0
 33 60  1  0
 33 61  1  0
 34 62  1  0
 35 63  1  0
 38 64  1  0
 38 65  1  0
 39 66  1  0
 40 67  1  0
M  END
>  <Binding energies>  (1) 
[-7.04]

>  <Ligand effiencies>  (1) 
[-0.16372093023255815]

>  <Interactions>  (1) 
["V-B:LYS:547:CE:9922, H-B:LYS:547:NZ:9923, V-B:HIS:456:CE1:9040, V-A:HIS:456:CD2:4065, V-A:LYS:547:CE:4948, H-A:LYS:547:NZ:4949, V-B:HIS:456:CD2:9039, V-A:HIS:456:CB:4062, V-A:HIS:456:CE1:4066, V-A:HIS:456:CG:4063, V-A:GLY:544:C:4910, V-B:GLU:543:CG:9879, V-A:LEU:475:CD2:4256, H-A:TYR:484:OH:4345, V-B:TYR:539:CD1:9845, V-B:GLU:543:CB:9878, V-B:TYR:539:CE1:9847, V-B:GLU:543:CD:9880, H-B:GLU:543:OE2:9882, H-A:GLU:543:OE2:4908, H-A:GLU:543:OE1:4907, H-B:TYR:531:OH:9767, V-A:GLU:543:CD:4906, V-A:ILE:369:CD1:3236, V-A:ARG:545:CG:4920, V-A:MET:535:CE:4833, V-B:MET:535:CE:9807, V-A:ILE:369:CG2:3234, V-A:LEU:373:CD1:3277, V-A:SER:385:CA:3404, V-A:SER:385:CB:3406, V-B:TYR:531:CZ:9766, V-B:TYR:531:CE1:9764, V-B:GLU:543:C:9874, V-A:GLU:543:C:4900, H-A:HIS:456:NE2:4067, V-A:GLY:544:CA:4912, H-B:HIS:456:NE2:9041, V-A:GLU:543:CG:4905"]

$$$$
8b_Ghoteimi_2023
     RDKit          3D

 54 58  0  0  0  0  0  0  0  0999 V2000
  132.1630  116.8750   60.0280 C   0  0  0  0  0  0  0  0  0  0  0  0
  133.2140  117.7200   60.4830 O   0  0  0  0  0  0  0  0  0  0  0  0
  132.9540  119.0590   60.7030 C   0  0  0  0  0  0  0  0  0  0  0  0
  131.6170  119.4160   60.8660 C   0  0  0  0  0  0  0  0  0  0  0  0
  131.2600  120.7410   61.0910 C   0  0  0  0  0  0  0  0  0  0  0  0
  132.2340  121.7480   61.1590 C   0  0  0  0  0  0  0  0  0  0  0  0
  131.8560  123.1750   61.3990 C   0  0  0  0  0  0  0  0  0  0  0  0
  131.7300  123.6970   62.6900 C   0  0  0  0  0  0  0  0  0  0  0  0
  131.3760  125.0350   62.8870 C   0  0  0  0  0  0  0  0  0  0  0  0
  131.2410  125.5540   64.2680 C   0  0  0  0  0  0  0  0  0  0  0  0
  129.9980  125.9740   64.7440 C   0  0  0  0  0  0  0  0  0  0  0  0
  129.8720  126.4520   66.0450 C   0  0  0  0  0  0  0  0  0  0  0  0
  130.9830  126.5200   66.8870 C   0  0  0  0  0  0  0  0  0  0  0  0
  130.7630  127.0060   68.1620 O   0  0  0  0  0  0  0  0  0  0  0  0
  129.5020  127.5890   68.4750 C   0  0  0  0  0  0  0  0  0  0  0  0
  132.2320  126.1010   66.4050 C   0  0  0  0  0  0  0  0  0  0  0  0
  132.3570  125.6220   65.1040 C   0  0  0  0  0  0  0  0  0  0  0  0
  131.1570  125.8450   61.7410 C   0  0  0  0  0  0  0  0  0  0  0  0
  130.7950  127.2290   61.5770 C   0  0  0  0  0  0  0  0  0  0  0  0
  130.5860  128.0640   62.6450 N   0  0  0  0  0  0  0  0  0  0  0  0
  130.6820  127.6320   60.2370 C   0  0  0  0  0  0  0  0  0  0  0  0
  130.3390  128.9540   59.7100 C   0  0  0  0  0  0  0  0  0  0  0  0
  129.2980  129.5190   60.0550 O   0  0  0  0  0  0  0  0  0  0  0  0
  131.2340  129.4830   58.8370 N   0  0  0  0  0  0  0  0  0  0  0  0
  131.1630  130.7110   58.1930 C   0  0  0  0  0  0  0  0  0  0  0  0
  132.1860  131.2090   57.3880 C   0  0  0  0  0  0  0  0  0  0  0  0
  131.7340  132.4320   56.9500 C   0  0  0  0  0  0  0  0  0  0  0  0
  130.5010  132.6580   57.4610 O   0  0  0  0  0  0  0  0  0  0  0  0
  130.1480  131.5590   58.2470 N   0  0  0  0  0  0  0  0  0  0  0  0
  131.0260  126.2950   59.1380 S   0  0  0  0  0  0  0  0  0  0  0  0
  131.3180  125.2090   60.4770 C   0  0  0  0  0  0  0  0  0  0  0  0
  131.6530  123.9330   60.2870 N   0  0  0  0  0  0  0  0  0  0  0  0
  133.5770  121.3830   60.9970 C   0  0  0  0  0  0  0  0  0  0  0  0
  133.9370  120.0570   60.7710 C   0  0  0  0  0  0  0  0  0  0  0  0
  131.6338  116.4496   60.8934 H   0  0  0  0  0  0  0  0  0  0  0  0
  131.4587  117.4611   59.4194 H   0  0  0  0  0  0  0  0  0  0  0  0
  132.5842  116.0612   59.4194 H   0  0  0  0  0  0  0  0  0  0  0  0
  130.8366  118.6424   60.8162 H   0  0  0  0  0  0  0  0  0  0  0  0
  130.1992  121.0030   61.2174 H   0  0  0  0  0  0  0  0  0  0  0  0
  131.9113  123.0482   63.5596 H   0  0  0  0  0  0  0  0  0  0  0  0
  129.1155  125.9271   64.0890 H   0  0  0  0  0  0  0  0  0  0  0  0
  128.8883  126.7790   66.4128 H   0  0  0  0  0  0  0  0  0  0  0  0
  129.3842  127.6435   69.5673 H   0  0  0  0  0  0  0  0  0  0  0  0
  129.4508  128.6022   68.0497 H   0  0  0  0  0  0  0  0  0  0  0  0
  128.6970  126.9717   68.0497 H   0  0  0  0  0  0  0  0  0  0  0  0
  133.1160  126.1512   67.0577 H   0  0  0  0  0  0  0  0  0  0  0  0
  133.3397  125.2955   64.7329 H   0  0  0  0  0  0  0  0  0  0  0  0
  130.7870  127.7690   63.5900 H   0  0  0  0  0  0  0  0  0  0  0  0
  130.2220  128.9990   62.5250 H   0  0  0  0  0  0  0  0  0  0  0  0
  132.0510  128.9290   58.6270 H   0  0  0  0  0  0  0  0  0  0  0  0
  133.1471  130.7280   57.1536 H   0  0  0  0  0  0  0  0  0  0  0  0
  132.2863  133.1170   56.2899 H   0  0  0  0  0  0  0  0  0  0  0  0
  134.3585  122.1553   61.0491 H   0  0  0  0  0  0  0  0  0  0  0  0
  134.9970  119.7911   60.6453 H   0  0  0  0  0  0  0  0  0  0  0  0
  1  2  1  0
  2  3  1  0
  3  4  2  0
  4  5  1  0
  5  6  2  0
  6  7  1  0
  7  8  2  0
  8  9  1  0
  9 10  1  0
 10 11  2  0
 11 12  1  0
 12 13  2  0
 13 14  1  0
 14 15  1  0
 13 16  1  0
 16 17  2  0
  9 18  2  0
 18 19  1  0
 19 20  1  0
 19 21  2  0
 21 22  1  0
 22 23  2  0
 22 24  1  0
 24 25  1  0
 25 26  1  0
 26 27  2  0
 27 28  1  0
 28 29  1  0
 21 30  1  0
 30 31  1  0
 31 32  2  0
  6 33  1  0
 33 34  2  0
 34  3  1  0
 32  7  1  0
 17 10  1  0
 31 18  1  0
 29 25  2  0
  1 35  1  0
  1 36  1  0
  1 37  1  0
  4 38  1  0
  5 39  1  0
  8 40  1  0
 11 41  1  0
 12 42  1  0
 15 43  1  0
 15 44  1  0
 15 45  1  0
 16 46  1  0
 17 47  1  0
 20 48  1  0
 20 49  1  0
 24 50  1  0
 26 51  1  0
 27 52  1  0
 33 53  1  0
 34 54  1  0
M  END
>  <Binding energies>  (1) 
[-6.62]

>  <Ligand effiencies>  (1) 
[-0.17891891891891892]

>  <Interactions>  (1) 
["V-A:HIS:456:CE1:4066, V-B:GLU:543:CG:9879, V-A:LEU:475:CD2:4256, V-B:TYR:539:CD1:9845, V-B:GLU:543:CB:9878, V-B:TYR:539:CE1:9847, V-B:GLU:543:CD:9880, V-A:ARG:545:CZ:4924, H-A:ASP:366:OD2:3212, H-A:ASP:366:OD1:3211, V-A:ASP:366:CG:3210, H-A:GLU:543:OE2:4908, H-A:GLU:543:OE1:4907, V-A:GLU:543:CD:4906, V-A:ARG:545:CD:4921, V-A:ILE:369:CD1:3236, V-A:ARG:545:CG:4920, V-A:PRO:540:CA:4881, V-A:PRO:540:CB:4883, V-A:PRO:540:N:4882, V-A:PRO:540:CD:4885, V-A:ILE:369:CG2:3234, H-A:TYR:531:OH:4793, V-A:LEU:373:CD1:3277, V-A:SER:385:CA:3404, V-A:SER:385:CB:3406, H-A:HIS:456:NE2:4067, H-A:TYR:539:N:4868, V-A:GLU:543:CG:4905, V-A:SER:385:C:3402"]

$$$$
8c_Ghoteimi_2023
     RDKit          3D

 54 58  0  0  0  0  0  0  0  0999 V2000
  133.6460  116.5200   59.9120 C   0  0  0  0  0  0  0  0  0  0  0  0
  132.5060  117.0270   60.5950 O   0  0  0  0  0  0  0  0  0  0  0  0
  132.3660  118.3930   60.7520 C   0  0  0  0  0  0  0  0  0  0  0  0
  131.0830  118.8610   61.0280 C   0  0  0  0  0  0  0  0  0  0  0  0
  130.8480  120.2220   61.1990 C   0  0  0  0  0  0  0  0  0  0  0  0
  131.8920  121.1520   61.0980 C   0  0  0  0  0  0  0  0  0  0  0  0
  131.6450  122.6170   61.2760 C   0  0  0  0  0  0  0  0  0  0  0  0
  131.6650  123.2190   62.5380 C   0  0  0  0  0  0  0  0  0  0  0  0
  131.4330  124.5920   62.6770 C   0  0  0  0  0  0  0  0  0  0  0  0
  131.4520  125.1970   64.0280 C   0  0  0  0  0  0  0  0  0  0  0  0
  130.2590  125.5800   64.6450 C   0  0  0  0  0  0  0  0  0  0  0  0
  130.2780  126.1400   65.9180 C   0  0  0  0  0  0  0  0  0  0  0  0
  131.4850  126.3290   66.5930 C   0  0  0  0  0  0  0  0  0  0  0  0
  131.4080  126.8890   67.8530 O   0  0  0  0  0  0  0  0  0  0  0  0
  130.2010  127.5260   68.2570 C   0  0  0  0  0  0  0  0  0  0  0  0
  132.6840  125.9480   65.9700 C   0  0  0  0  0  0  0  0  0  0  0  0
  132.6640  125.3870   64.6960 C   0  0  0  0  0  0  0  0  0  0  0  0
  131.1840  125.3500   61.5020 C   0  0  0  0  0  0  0  0  0  0  0  0
  130.9160  126.7460   61.2800 C   0  0  0  0  0  0  0  0  0  0  0  0
  130.8580  127.6560   62.3060 N   0  0  0  0  0  0  0  0  0  0  0  0
  130.7250  127.0820   59.9300 C   0  0  0  0  0  0  0  0  0  0  0  0
  130.4410  128.3950   59.3480 C   0  0  0  0  0  0  0  0  0  0  0  0
  129.4150  129.0090   59.6490 O   0  0  0  0  0  0  0  0  0  0  0  0
  131.3720  128.8590   58.4780 N   0  0  0  0  0  0  0  0  0  0  0  0
  131.3460  130.0660   57.7940 C   0  0  0  0  0  0  0  0  0  0  0  0
  130.3780  130.5520   57.0480 N   0  0  0  0  0  0  0  0  0  0  0  0
  130.6940  131.7320   56.5520 C   0  0  0  0  0  0  0  0  0  0  0  0
  131.9470  132.2280   56.8940 C   0  0  0  0  0  0  0  0  0  0  0  0
  132.7490  131.0780   57.9220 S   0  0  0  0  0  0  0  0  0  0  0  0
  130.8780  125.6620   58.8940 S   0  0  0  0  0  0  0  0  0  0  0  0
  131.1930  124.6330   60.2710 C   0  0  0  0  0  0  0  0  0  0  0  0
  131.4120  123.3240   60.1370 N   0  0  0  0  0  0  0  0  0  0  0  0
  133.1800  120.6740   60.8220 C   0  0  0  0  0  0  0  0  0  0  0  0
  133.4190  119.3140   60.6500 C   0  0  0  0  0  0  0  0  0  0  0  0
  134.3949  116.1869   60.6456 H   0  0  0  0  0  0  0  0  0  0  0  0
  133.3474  115.6698   59.2811 H   0  0  0  0  0  0  0  0  0  0  0  0
  134.0773  117.3111   59.2811 H   0  0  0  0  0  0  0  0  0  0  0  0
  130.2489  118.1488   61.1114 H   0  0  0  0  0  0  0  0  0  0  0  0
  129.8284  120.5730   61.4165 H   0  0  0  0  0  0  0  0  0  0  0  0
  131.8650  122.6074   63.4301 H   0  0  0  0  0  0  0  0  0  0  0  0
  129.3014  125.4383   64.1225 H   0  0  0  0  0  0  0  0  0  0  0  0
  129.3333  126.4366   66.3971 H   0  0  0  0  0  0  0  0  0  0  0  0
  130.1504  127.5527   69.3555 H   0  0  0  0  0  0  0  0  0  0  0  0
  130.1791  128.5531   67.8639 H   0  0  0  0  0  0  0  0  0  0  0  0
  129.3407  126.9645   67.8639 H   0  0  0  0  0  0  0  0  0  0  0  0
  133.6423  126.0932   66.4901 H   0  0  0  0  0  0  0  0  0  0  0  0
  133.6072  125.0919   64.2131 H   0  0  0  0  0  0  0  0  0  0  0  0
  130.6320  128.6260   62.1380 H   0  0  0  0  0  0  0  0  0  0  0  0
  131.0390  127.3890   63.2630 H   0  0  0  0  0  0  0  0  0  0  0  0
  132.1760  128.2730   58.3050 H   0  0  0  0  0  0  0  0  0  0  0  0
  130.0047  132.2928   55.9037 H   0  0  0  0  0  0  0  0  0  0  0  0
  132.3636  133.1921   56.5670 H   0  0  0  0  0  0  0  0  0  0  0  0
  134.0153  121.3850   60.7400 H   0  0  0  0  0  0  0  0  0  0  0  0
  134.4376  118.9598   60.4332 H   0  0  0  0  0  0  0  0  0  0  0  0
  1  2  1  0
  2  3  1  0
  3  4  2  0
  4  5  1  0
  5  6  2  0
  6  7  1  0
  7  8  2  0
  8  9  1  0
  9 10  1  0
 10 11  2  0
 11 12  1  0
 12 13  2  0
 13 14  1  0
 14 15  1  0
 13 16  1  0
 16 17  2  0
  9 18  2  0
 18 19  1  0
 19 20  1  0
 19 21  2  0
 21 22  1  0
 22 23  2  0
 22 24  1  0
 24 25  1  0
 25 26  2  0
 26 27  1  0
 27 28  2  0
 28 29  1  0
 21 30  1  0
 30 31  1  0
 31 32  2  0
  6 33  1  0
 33 34  2  0
 34  3  1  0
 32  7  1  0
 17 10  1  0
 31 18  1  0
 29 25  1  0
  1 35  1  0
  1 36  1  0
  1 37  1  0
  4 38  1  0
  5 39  1  0
  8 40  1  0
 11 41  1  0
 12 42  1  0
 15 43  1  0
 15 44  1  0
 15 45  1  0
 16 46  1  0
 17 47  1  0
 20 48  1  0
 20 49  1  0
 24 50  1  0
 27 51  1  0
 28 52  1  0
 33 53  1  0
 34 54  1  0
M  END
>  <Binding energies>  (1) 
[-6.68]

>  <Ligand effiencies>  (1) 
[-0.18054054054054053]

>  <Interactions>  (1) 
["V-A:HIS:456:CE1:4066, V-B:GLU:543:CG:9879, V-A:LEU:475:CD2:4256, V-B:TYR:539:CD1:9845, V-B:GLU:543:CB:9878, V-B:TYR:539:CE1:9847, V-B:GLU:543:CD:9880, V-A:ARG:545:CZ:4924, V-B:ALA:541:CB:9864, H-A:ASP:366:OD2:3212, H-A:ASP:366:OD1:3211, V-A:ASP:366:CG:3210, H-A:GLU:543:OE2:4908, H-A:GLU:543:OE1:4907, V-A:GLU:543:CD:4906, V-A:ARG:545:CD:4921, V-A:ARG:545:CG:4920, V-A:PRO:540:CB:4883, V-A:PRO:540:N:4882, V-A:MET:535:CE:4833, V-A:PRO:540:CD:4885, V-A:ILE:369:CG2:3234, H-A:TYR:531:OH:4793, V-A:LEU:373:CD1:3277, V-A:SER:385:CA:3404, V-A:SER:385:CB:3406, V-A:VAL:384:C:3394, V-A:ASP:366:CB:3209, H-A:HIS:456:NE2:4067, V-A:GLU:543:CG:4905, V-A:LEU:373:CD2:3278, V-A:SER:385:C:3402"]

$$$$
8d_Ghoteimi_2023
     RDKit          3D

 50 53  0  0  0  0  0  0  0  0999 V2000
  127.8520  122.7240   55.4880 C   0  0  0  0  0  0  0  0  0  0  0  0
  126.7020  122.0310   55.9530 O   0  0  0  0  0  0  0  0  0  0  0  0
  125.9680  122.5160   56.9880 C   0  0  0  0  0  0  0  0  0  0  0  0
  124.7520  122.3480   57.1100 O   0  0  0  0  0  0  0  0  0  0  0  0
  126.7800  123.2730   57.9650 C   0  0  0  0  0  0  0  0  0  0  0  0
  128.0740  122.4630   58.8500 S   0  0  0  0  0  0  0  0  0  0  0  0
  128.4710  123.9390   59.6990 C   0  0  0  0  0  0  0  0  0  0  0  0
  129.4550  123.9920   60.5970 N   0  0  0  0  0  0  0  0  0  0  0  0
  129.6810  125.1910   61.1980 C   0  0  0  0  0  0  0  0  0  0  0  0
  130.7870  125.2210   62.2050 C   0  0  0  0  0  0  0  0  0  0  0  0
  132.0760  124.7750   61.8790 C   0  0  0  0  0  0  0  0  0  0  0  0
  133.1020  124.8050   62.8190 C   0  0  0  0  0  0  0  0  0  0  0  0
  132.8670  125.2800   64.1090 C   0  0  0  0  0  0  0  0  0  0  0  0
  133.9430  125.2730   64.9750 O   0  0  0  0  0  0  0  0  0  0  0  0
  133.7080  125.3800   66.3750 C   0  0  0  0  0  0  0  0  0  0  0  0
  131.5830  125.7300   64.4450 C   0  0  0  0  0  0  0  0  0  0  0  0
  130.5600  125.6990   63.5010 C   0  0  0  0  0  0  0  0  0  0  0  0
  128.9210  126.3270   60.9060 C   0  0  0  0  0  0  0  0  0  0  0  0
  127.8910  126.2720   59.9620 C   0  0  0  0  0  0  0  0  0  0  0  0
  127.1090  127.4960   59.6680 C   0  0  0  0  0  0  0  0  0  0  0  0
  126.4860  128.1970   60.7030 C   0  0  0  0  0  0  0  0  0  0  0  0
  125.7440  129.3410   60.4260 C   0  0  0  0  0  0  0  0  0  0  0  0
  125.6160  129.8040   59.1160 C   0  0  0  0  0  0  0  0  0  0  0  0
  124.8610  130.9460   58.9360 O   0  0  0  0  0  0  0  0  0  0  0  0
  123.5320  130.9870   59.4430 C   0  0  0  0  0  0  0  0  0  0  0  0
  126.2470  129.0990   58.0770 C   0  0  0  0  0  0  0  0  0  0  0  0
  126.9880  127.9540   58.3560 C   0  0  0  0  0  0  0  0  0  0  0  0
  127.6390  125.0310   59.3200 C   0  0  0  0  0  0  0  0  0  0  0  0
  126.6830  124.6220   58.3290 C   0  0  0  0  0  0  0  0  0  0  0  0
  125.7560  125.4810   57.7960 N   0  0  0  0  0  0  0  0  0  0  0  0
  128.4394  123.0780   56.3480 H   0  0  0  0  0  0  0  0  0  0  0  0
  128.4670  122.0460   54.8780 H   0  0  0  0  0  0  0  0  0  0  0  0
  127.5398  123.5845   54.8780 H   0  0  0  0  0  0  0  0  0  0  0  0
  132.2790  124.3962   60.8664 H   0  0  0  0  0  0  0  0  0  0  0  0
  134.1061  124.4513   62.5422 H   0  0  0  0  0  0  0  0  0  0  0  0
  134.5757  124.9849   66.9237 H   0  0  0  0  0  0  0  0  0  0  0  0
  133.5556  126.4363   66.6415 H   0  0  0  0  0  0  0  0  0  0  0  0
  132.8112  124.8015   66.6415 H   0  0  0  0  0  0  0  0  0  0  0  0
  131.3827  126.1090   65.4580 H   0  0  0  0  0  0  0  0  0  0  0  0
  129.5571  126.0559   63.7781 H   0  0  0  0  0  0  0  0  0  0  0  0
  129.1352  127.2735   61.4239 H   0  0  0  0  0  0  0  0  0  0  0  0
  126.5822  127.8436   61.7402 H   0  0  0  0  0  0  0  0  0  0  0  0
  125.2541  129.8851   61.2469 H   0  0  0  0  0  0  0  0  0  0  0  0
  123.5589  130.9862   60.5427 H   0  0  0  0  0  0  0  0  0  0  0  0
  123.0326  131.9010   59.0891 H   0  0  0  0  0  0  0  0  0  0  0  0
  122.9772  130.1055   59.0891 H   0  0  0  0  0  0  0  0  0  0  0  0
  126.1551  129.4531   57.0396 H   0  0  0  0  0  0  0  0  0  0  0  0
  127.4804  127.4078   57.5379 H   0  0  0  0  0  0  0  0  0  0  0  0
  125.0430  125.9100   58.3690 H   0  0  0  0  0  0  0  0  0  0  0  0
  125.7570  125.7200   56.8140 H   0  0  0  0  0  0  0  0  0  0  0  0
  1  2  1  0
  2  3  1  0
  3  4  2  0
  3  5  1  0
  5  6  1  0
  6  7  1  0
  7  8  2  0
  8  9  1  0
  9 10  1  0
 10 11  2  0
 11 12  1  0
 12 13  2  0
 13 14  1  0
 14 15  1  0
 13 16  1  0
 16 17  2  0
  9 18  2  0
 18 19  1  0
 19 20  1  0
 20 21  2  0
 21 22  1  0
 22 23  2  0
 23 24  1  0
 24 25  1  0
 23 26  1  0
 26 27  2  0
 19 28  2  0
 28 29  1  0
 29 30  1  0
 29  5  2  0
 28  7  1  0
 17 10  1  0
 27 20  1  0
  1 31  1  0
  1 32  1  0
  1 33  1  0
 11 34  1  0
 12 35  1  0
 15 36  1  0
 15 37  1  0
 15 38  1  0
 16 39  1  0
 17 40  1  0
 18 41  1  0
 21 42  1  0
 22 43  1  0
 25 44  1  0
 25 45  1  0
 25 46  1  0
 26 47  1  0
 27 48  1  0
 30 49  1  0
 30 50  1  0
M  END
>  <Binding energies>  (1) 
[-7.75]

>  <Ligand effiencies>  (1) 
[-0.2421875]

>  <Interactions>  (1) 
["V-A:HIS:456:CE1:4066, H-A:TYR:484:OH:4345, V-B:TYR:539:CD1:9845, V-B:TYR:539:C:9839, V-B:ASP:366:CG:8184, V-B:TYR:539:CE1:9847, V-B:GLU:543:CD:9880, V-B:PRO:540:CB:9857, V-A:ARG:545:CZ:4924, V-B:PRO:540:CA:9855, H-B:ASP:366:OD2:8186, V-A:TYR:484:CZ:4344, V-B:ASP:366:CB:8183, V-B:PRO:540:N:9856, H-B:TYR:531:OH:9767, V-A:ARG:545:CD:4921, V-A:ARG:545:CG:4920, H-A:ARG:545:NE:4922, V-B:ILE:369:CD1:8210, V-B:ILE:369:CG2:8208, V-B:TYR:539:CE2:9848, V-B:ILE:538:CB:9834, H-B:TYR:539:N:9842, V-B:TYR:539:CD2:9846, V-B:PRO:540:CD:9859, V-B:ILE:538:CG2:9835, V-B:ILE:538:CA:9832, V-B:MET:535:CE:9807, V-B:TYR:531:CZ:9766, V-B:ILE:538:C:9830, H-A:GLY:454:N:4047, H-A:TYR:539:OH:4876, V-B:ASP:366:CA:8181, V-B:ILE:369:CB:8207"]

$$$$
9a_Ghoteimi_2023
     RDKit          3D

 85 91  0  0  0  0  0  0  0  0999 V2000
  131.4020  116.3920   58.9480 C   0  0  0  0  0  0  0  0  0  0  0  0
  132.2450  117.1380   59.9870 C   0  0  0  0  0  0  0  0  0  0  0  0
  132.1430  118.5390   59.7610 O   0  0  0  0  0  0  0  0  0  0  0  0
  133.0690  119.3980   60.2600 C   0  0  0  0  0  0  0  0  0  0  0  0
  134.2730  119.3340   59.9880 O   0  0  0  0  0  0  0  0  0  0  0  0
  132.4860  120.4320   61.1800 C   0  0  0  0  0  0  0  0  0  0  0  0
  133.3010  121.0140   62.1600 C   0  0  0  0  0  0  0  0  0  0  0  0
  132.7890  121.9730   63.0290 C   0  0  0  0  0  0  0  0  0  0  0  0
  131.4560  122.3730   62.9370 C   0  0  0  0  0  0  0  0  0  0  0  0
  131.0490  123.3490   63.8670 N   0  0  0  0  0  0  0  0  0  0  0  0
  131.6150  124.5350   64.2000 C   0  0  0  0  0  0  0  0  0  0  0  0
  132.6520  124.9720   63.7000 O   0  0  0  0  0  0  0  0  0  0  0  0
  130.8990  125.3050   65.2220 C   0  0  0  0  0  0  0  0  0  0  0  0
  131.0540  124.8810   66.9280 S   0  0  0  0  0  0  0  0  0  0  0  0
  129.9910  126.1870   67.3960 C   0  0  0  0  0  0  0  0  0  0  0  0
  129.7010  126.4280   68.6740 N   0  0  0  0  0  0  0  0  0  0  0  0
  128.8740  127.4750   68.9320 C   0  0  0  0  0  0  0  0  0  0  0  0
  128.5710  127.7330   70.3720 C   0  0  0  0  0  0  0  0  0  0  0  0
  127.3250  127.3890   70.9100 C   0  0  0  0  0  0  0  0  0  0  0  0
  127.0350  127.6250   72.2510 C   0  0  0  0  0  0  0  0  0  0  0  0
  127.9850  128.2020   73.1080 C   0  0  0  0  0  0  0  0  0  0  0  0
  127.7010  128.4620   74.4530 N   0  0  0  0  0  0  0  0  0  0  0  0
  127.9800  129.7800   75.0600 C   0  0  0  0  0  0  0  0  0  0  0  0
  127.9480  129.7740   76.6020 C   0  0  0  0  0  0  0  0  0  0  0  0
  126.7110  129.2540   77.0620 O   0  0  0  0  0  0  0  0  0  0  0  0
  126.5100  127.9220   76.6160 C   0  0  0  0  0  0  0  0  0  0  0  0
  126.4950  127.8780   75.0750 C   0  0  0  0  0  0  0  0  0  0  0  0
  129.2260  128.5580   72.5610 C   0  0  0  0  0  0  0  0  0  0  0  0
  129.5150  128.3250   71.2200 C   0  0  0  0  0  0  0  0  0  0  0  0
  128.3210  128.2570   67.9150 C   0  0  0  0  0  0  0  0  0  0  0  0
  128.6070  127.9950   66.5700 C   0  0  0  0  0  0  0  0  0  0  0  0
  127.9630  128.8330   65.5270 C   0  0  0  0  0  0  0  0  0  0  0  0
  127.8620  128.3780   64.2100 C   0  0  0  0  0  0  0  0  0  0  0  0
  127.2470  129.1590   63.2370 C   0  0  0  0  0  0  0  0  0  0  0  0
  126.6980  130.4110   63.5590 C   0  0  0  0  0  0  0  0  0  0  0  0
  126.0860  131.2180   62.5970 N   0  0  0  0  0  0  0  0  0  0  0  0
  125.9570  132.6670   62.8500 C   0  0  0  0  0  0  0  0  0  0  0  0
  125.6220  133.4810   61.5820 C   0  0  0  0  0  0  0  0  0  0  0  0
  124.4490  132.9670   60.9700 O   0  0  0  0  0  0  0  0  0  0  0  0
  124.6080  131.6100   60.5890 C   0  0  0  0  0  0  0  0  0  0  0  0
  124.9160  130.7460   61.8300 C   0  0  0  0  0  0  0  0  0  0  0  0
  126.8030  130.8570   64.8840 C   0  0  0  0  0  0  0  0  0  0  0  0
  127.4230  130.0780   65.8560 C   0  0  0  0  0  0  0  0  0  0  0  0
  129.5010  126.9240   66.2790 C   0  0  0  0  0  0  0  0  0  0  0  0
  130.0550  126.4130   65.0500 C   0  0  0  0  0  0  0  0  0  0  0  0
  129.7870  126.9750   63.8290 N   0  0  0  0  0  0  0  0  0  0  0  0
  130.6330  121.7980   61.9550 C   0  0  0  0  0  0  0  0  0  0  0  0
  131.1460  120.8380   61.0870 C   0  0  0  0  0  0  0  0  0  0  0  0
  130.6735  115.7473   59.4614 H   0  0  0  0  0  0  0  0  0  0  0  0
  130.8684  117.1191   58.3183 H   0  0  0  0  0  0  0  0  0  0  0  0
  132.0588  115.7739   58.3183 H   0  0  0  0  0  0  0  0  0  0  0  0
  131.8772  116.9014   60.9963 H   0  0  0  0  0  0  0  0  0  0  0  0
  133.2965  116.8273   59.8985 H   0  0  0  0  0  0  0  0  0  0  0  0
  134.3549  120.7102   62.2433 H   0  0  0  0  0  0  0  0  0  0  0  0
  133.4409  122.4191   63.7946 H   0  0  0  0  0  0  0  0  0  0  0  0
  130.1950  123.1190   64.3550 H   0  0  0  0  0  0  0  0  0  0  0  0
  126.5646  126.9258   70.2641 H   0  0  0  0  0  0  0  0  0  0  0  0
  126.0445  127.3547   72.6456 H   0  0  0  0  0  0  0  0  0  0  0  0
  128.9787  130.1072   74.7350 H   0  0  0  0  0  0  0  0  0  0  0  0
  127.1843  130.4619   74.7255 H   0  0  0  0  0  0  0  0  0  0  0  0
  128.7692  129.1476   76.9805 H   0  0  0  0  0  0  0  0  0  0  0  0
  128.0638  130.8047   76.9685 H   0  0  0  0  0  0  0  0  0  0  0  0
  127.3253  127.2856   76.9906 H   0  0  0  0  0  0  0  0  0  0  0  0
  125.5453  127.5556   76.9969 H   0  0  0  0  0  0  0  0  0  0  0  0
  126.4147  126.8277   74.7582 H   0  0  0  0  0  0  0  0  0  0  0  0
  125.6376  128.4825   74.7442 H   0  0  0  0  0  0  0  0  0  0  0  0
  129.9843  129.0297   73.2032 H   0  0  0  0  0  0  0  0  0  0  0  0
  130.4994  128.6100   70.8202 H   0  0  0  0  0  0  0  0  0  0  0  0
  127.6515  129.0902   68.1748 H   0  0  0  0  0  0  0  0  0  0  0  0
  128.2723  127.3937   63.9402 H   0  0  0  0  0  0  0  0  0  0  0  0
  127.1899  128.7912   62.2019 H   0  0  0  0  0  0  0  0  0  0  0  0
  125.1552  132.8227   63.5868 H   0  0  0  0  0  0  0  0  0  0  0  0
  126.9316  133.0216   63.2167 H   0  0  0  0  0  0  0  0  0  0  0  0
  125.4578  134.5332   61.8576 H   0  0  0  0  0  0  0  0  0  0  0  0
  126.4604  133.4069   60.8738 H   0  0  0  0  0  0  0  0  0  0  0  0
  123.6805  131.2529   60.1176 H   0  0  0  0  0  0  0  0  0  0  0  0
  125.4429  131.5302   59.8772 H   0  0  0  0  0  0  0  0  0  0  0  0
  124.0370  130.7595   62.4912 H   0  0  0  0  0  0  0  0  0  0  0  0
  125.1502  129.7331   61.4706 H   0  0  0  0  0  0  0  0  0  0  0  0
  126.3888  131.8381   65.1595 H   0  0  0  0  0  0  0  0  0  0  0  0
  127.4882  130.4454   66.8908 H   0  0  0  0  0  0  0  0  0  0  0  0
  130.3170  127.7600   63.4750 H   0  0  0  0  0  0  0  0  0  0  0  0
  129.0460  126.6230   63.2380 H   0  0  0  0  0  0  0  0  0  0  0  0
  129.5806  122.1069   61.8715 H   0  0  0  0  0  0  0  0  0  0  0  0
  130.4943  120.3932   60.3205 H   0  0  0  0  0  0  0  0  0  0  0  0
  1  2  1  0
  2  3  1  0
  3  4  1  0
  4  5  2  0
  4  6  1  0
  6  7  2  0
  7  8  1  0
  8  9  2  0
  9 10  1  0
 10 11  1  0
 11 12  2  0
 11 13  1  0
 13 14  1  0
 14 15  1  0
 15 16  2  0
 16 17  1  0
 17 18  1  0
 18 19  2  0
 19 20  1  0
 20 21  2  0
 21 22  1  0
 22 23  1  0
 23 24  1  0
 24 25  1  0
 25 26  1  0
 26 27  1  0
 21 28  1  0
 28 29  2  0
 17 30  2  0
 30 31  1  0
 31 32  1  0
 32 33  2  0
 33 34  1  0
 34 35  2  0
 35 36  1  0
 36 37  1  0
 37 38  1  0
 38 39  1  0
 39 40  1  0
 40 41  1  0
 35 42  1  0
 42 43  2  0
 31 44  2  0
 44 45  1  0
 45 46  1  0
  9 47  1  0
 47 48  2  0
 48  6  1  0
 45 13  2  0
 44 15  1  0
 29 18  1  0
 43 32  1  0
 27 22  1  0
 41 36  1  0
  1 49  1  0
  1 50  1  0
  1 51  1  0
  2 52  1  0
  2 53  1  0
  7 54  1  0
  8 55  1  0
 10 56  1  0
 19 57  1  0
 20 58  1  0
 23 59  1  0
 23 60  1  0
 24 61  1  0
 24 62  1  0
 26 63  1  0
 26 64  1  0
 27 65  1  0
 27 66  1  0
 28 67  1  0
 29 68  1  0
 30 69  1  0
 33 70  1  0
 34 71  1  0
 37 72  1  0
 37 73  1  0
 38 74  1  0
 38 75  1  0
 40 76  1  0
 40 77  1  0
 41 78  1  0
 41 79  1  0
 42 80  1  0
 43 81  1  0
 46 82  1  0
 46 83  1  0
 47 84  1  0
 48 85  1  0
M  END
>  <Binding energies>  (1) 
[-1.29]

>  <Ligand effiencies>  (1) 
[-0.025294117647058825]

>  <Interactions>  (1) 
["V-B:LYS:547:CE:9922, V-B:HIS:456:CE1:9040, V-A:LYS:547:CE:4948, V-B:HIS:456:CD2:9039, V-B:HIS:456:CG:9037, V-A:HIS:456:CE1:4066, V-B:VAL:458:CG2:9058, V-B:LYS:547:CD:9921, V-B:GLU:543:CG:9879, V-A:LEU:475:CD2:4256, H-A:TYR:484:OH:4345, V-A:GLY:454:CA:4046, V-B:TYR:539:CD1:9845, V-A:TYR:484:CE2:4343, V-B:GLU:543:CB:9878, V-B:TYR:539:CE1:9847, V-B:GLU:543:CD:9880, V-B:ALA:541:CB:9864, V-A:TYR:484:CZ:4344, H-B:GLU:543:OE2:9882, H-B:GLU:543:OE1:9881, H-A:GLU:543:OE2:4908, H-A:GLU:543:OE1:4907, V-A:GLU:543:CD:4906, H-A:ARG:545:NH2:4926, V-A:TYR:539:CE1:4873, V-B:LEU:475:CD2:9230, V-A:TYR:539:CD1:4871, V-B:ILE:369:CG2:8208, V-B:TYR:539:CG:9844, V-A:ILE:369:CG2:3234, V-B:TYR:484:CZ:9318, V-A:LEU:373:CD1:3277, V-A:GLU:543:CB:4904, V-A:SER:385:CA:3404, V-B:TYR:539:CB:9843, V-B:GLY:544:CA:9886, V-B:GLU:543:C:9874, V-A:GLU:543:C:4900, H-A:HIS:456:NE2:4067, V-A:GLY:544:CA:4912, V-B:GLY:544:C:9884, V-A:GLU:543:CG:4905, V-B:VAL:344:CG1:7972"]

$$$$
9b_Ghoteimi_2023
     RDKit          3D

 72 78  0  0  0  0  0  0  0  0999 V2000
  131.0050  124.1700   60.6040 N   0  0  0  0  0  0  0  0  0  0  0  0
  131.4210  123.9600   61.8940 C   0  0  0  0  0  0  0  0  0  0  0  0
  132.2740  122.9110   62.2710 C   0  0  0  0  0  0  0  0  0  0  0  0
  132.8910  121.8870   61.4240 C   0  0  0  0  0  0  0  0  0  0  0  0
  133.7980  122.1800   60.6420 O   0  0  0  0  0  0  0  0  0  0  0  0
  132.3910  120.6340   61.5670 N   0  0  0  0  0  0  0  0  0  0  0  0
  132.7780  119.4850   60.8880 C   0  0  0  0  0  0  0  0  0  0  0  0
  131.9210  118.4080   60.6650 C   0  0  0  0  0  0  0  0  0  0  0  0
  132.6740  117.4900   59.9690 C   0  0  0  0  0  0  0  0  0  0  0  0
  133.9200  117.9900   59.7840 O   0  0  0  0  0  0  0  0  0  0  0  0
  133.9730  119.2540   60.3710 N   0  0  0  0  0  0  0  0  0  0  0  0
  132.5730  122.9250   64.0090 S   0  0  0  0  0  0  0  0  0  0  0  0
  131.5440  124.3210   64.2210 C   0  0  0  0  0  0  0  0  0  0  0  0
  131.3200  124.8470   65.4230 N   0  0  0  0  0  0  0  0  0  0  0  0
  130.4890  125.9210   65.4820 C   0  0  0  0  0  0  0  0  0  0  0  0
  130.2390  126.4790   66.8460 C   0  0  0  0  0  0  0  0  0  0  0  0
  131.2080  127.2450   67.5040 C   0  0  0  0  0  0  0  0  0  0  0  0
  130.9750  127.7500   68.7790 C   0  0  0  0  0  0  0  0  0  0  0  0
  129.7690  127.4950   69.4500 C   0  0  0  0  0  0  0  0  0  0  0  0
  129.5190  127.9980   70.7320 N   0  0  0  0  0  0  0  0  0  0  0  0
  130.6220  128.3340   71.6550 C   0  0  0  0  0  0  0  0  0  0  0  0
  130.1850  129.1860   72.8640 C   0  0  0  0  0  0  0  0  0  0  0  0
  129.1250  128.5440   73.5530 O   0  0  0  0  0  0  0  0  0  0  0  0
  127.9920  128.3690   72.7180 C   0  0  0  0  0  0  0  0  0  0  0  0
  128.3610  127.4940   71.4990 C   0  0  0  0  0  0  0  0  0  0  0  0
  128.7940  126.7430   68.7790 C   0  0  0  0  0  0  0  0  0  0  0  0
  129.0260  126.2420   67.5010 C   0  0  0  0  0  0  0  0  0  0  0  0
  129.9090  126.4790   64.3410 C   0  0  0  0  0  0  0  0  0  0  0  0
  130.1570  125.9410   63.0720 C   0  0  0  0  0  0  0  0  0  0  0  0
  129.5400  126.5900   61.8870 C   0  0  0  0  0  0  0  0  0  0  0  0
  130.2250  127.5890   61.1950 C   0  0  0  0  0  0  0  0  0  0  0  0
  129.6570  128.1850   60.0730 C   0  0  0  0  0  0  0  0  0  0  0  0
  128.3890  127.7980   59.6120 C   0  0  0  0  0  0  0  0  0  0  0  0
  127.8080  128.3720   58.4790 N   0  0  0  0  0  0  0  0  0  0  0  0
  127.9180  127.6780   57.1810 C   0  0  0  0  0  0  0  0  0  0  0  0
  127.5970  128.5890   55.9760 C   0  0  0  0  0  0  0  0  0  0  0  0
  126.3070  129.1620   56.1310 O   0  0  0  0  0  0  0  0  0  0  0  0
  126.2190  129.9470   57.3110 C   0  0  0  0  0  0  0  0  0  0  0  0
  126.5100  129.0730   58.5490 C   0  0  0  0  0  0  0  0  0  0  0  0
  127.7190  126.7790   60.3050 C   0  0  0  0  0  0  0  0  0  0  0  0
  128.2870  126.1830   61.4280 C   0  0  0  0  0  0  0  0  0  0  0  0
  130.9970  124.7950   62.9910 C   0  0  0  0  0  0  0  0  0  0  0  0
  131.6120  124.0010   59.8140 H   0  0  0  0  0  0  0  0  0  0  0  0
  130.0720  124.5030   60.3990 H   0  0  0  0  0  0  0  0  0  0  0  0
  131.6540  120.5090   62.2450 H   0  0  0  0  0  0  0  0  0  0  0  0
  130.8707  118.3127   60.9776 H   0  0  0  0  0  0  0  0  0  0  0  0
  132.3213  116.5085   59.6192 H   0  0  0  0  0  0  0  0  0  0  0  0
  132.1671  127.4505   67.0061 H   0  0  0  0  0  0  0  0  0  0  0  0
  131.7486  128.3592   69.2693 H   0  0  0  0  0  0  0  0  0  0  0  0
  131.0573  127.3963   72.0309 H   0  0  0  0  0  0  0  0  0  0  0  0
  131.3451  128.9352   71.0843 H   0  0  0  0  0  0  0  0  0  0  0  0
  131.0381  129.3141   73.5465 H   0  0  0  0  0  0  0  0  0  0  0  0
  129.8410  130.1682   72.5076 H   0  0  0  0  0  0  0  0  0  0  0  0
  127.1911  127.8773   73.2897 H   0  0  0  0  0  0  0  0  0  0  0  0
  127.6497  129.3529   72.3646 H   0  0  0  0  0  0  0  0  0  0  0  0
  128.5968  126.4812   71.8577 H   0  0  0  0  0  0  0  0  0  0  0  0
  127.4957  127.5092   70.8200 H   0  0  0  0  0  0  0  0  0  0  0  0
  127.8299  126.5457   69.2706 H   0  0  0  0  0  0  0  0  0  0  0  0
  128.2449  125.6518   66.9995 H   0  0  0  0  0  0  0  0  0  0  0  0
  129.2484  127.3529   64.4402 H   0  0  0  0  0  0  0  0  0  0  0  0
  131.2203  127.9076   61.5383 H   0  0  0  0  0  0  0  0  0  0  0  0
  130.2104  128.9716   59.5391 H   0  0  0  0  0  0  0  0  0  0  0  0
  128.9460  127.3022   57.0713 H   0  0  0  0  0  0  0  0  0  0  0  0
  127.1787  126.8635   57.1816 H   0  0  0  0  0  0  0  0  0  0  0  0
  128.3472  129.3912   55.9157 H   0  0  0  0  0  0  0  0  0  0  0  0
  127.6175  127.9893   55.0541 H   0  0  0  0  0  0  0  0  0  0  0  0
  126.9540  130.7638   57.2608 H   0  0  0  0  0  0  0  0  0  0  0  0
  125.2040  130.3631   57.3931 H   0  0  0  0  0  0  0  0  0  0  0  0
  126.5098  129.7186   59.4396 H   0  0  0  0  0  0  0  0  0  0  0  0
  125.7264  128.3024   58.5944 H   0  0  0  0  0  0  0  0  0  0  0  0
  126.7304  126.4458   59.9562 H   0  0  0  0  0  0  0  0  0  0  0  0
  127.7440  125.3858   61.9568 H   0  0  0  0  0  0  0  0  0  0  0  0
  1  2  1  0
  2  3  2  0
  3  4  1  0
  4  5  2  0
  4  6  1  0
  6  7  1  0
  7  8  1  0
  8  9  2  0
  9 10  1  0
 10 11  1  0
  3 12  1  0
 12 13  1  0
 13 14  2  0
 14 15  1  0
 15 16  1  0
 16 17  2  0
 17 18  1  0
 18 19  2  0
 19 20  1  0
 20 21  1  0
 21 22  1  0
 22 23  1  0
 23 24  1  0
 24 25  1  0
 19 26  1  0
 26 27  2  0
 15 28  2  0
 28 29  1  0
 29 30  1  0
 30 31  2  0
 31 32  1  0
 32 33  2  0
 33 34  1  0
 34 35  1  0
 35 36  1  0
 36 37  1  0
 37 38  1  0
 38 39  1  0
 33 40  1  0
 40 41  2  0
 29 42  2  0
 42  2  1  0
 11  7  2  0
 42 13  1  0
 27 16  1  0
 41 30  1  0
 25 20  1  0
 39 34  1  0
  1 43  1  0
  1 44  1  0
  6 45  1  0
  8 46  1  0
  9 47  1  0
 17 48  1  0
 18 49  1  0
 21 50  1  0
 21 51  1  0
 22 52  1  0
 22 53  1  0
 24 54  1  0
 24 55  1  0
 25 56  1  0
 25 57  1  0
 26 58  1  0
 27 59  1  0
 28 60  1  0
 31 61  1  0
 32 62  1  0
 35 63  1  0
 35 64  1  0
 36 65  1  0
 36 66  1  0
 38 67  1  0
 38 68  1  0
 39 69  1  0
 39 70  1  0
 40 71  1  0
 41 72  1  0
M  END
>  <Binding energies>  (1) 
[-6.26]

>  <Ligand effiencies>  (1) 
[-0.1391111111111111]

>  <Interactions>  (1) 
["V-B:HIS:456:CE1:9040, V-A:LYS:547:CE:4948, H-A:LYS:547:NZ:4949, V-B:HIS:456:CD2:9039, V-B:HIS:456:CG:9037, V-A:HIS:456:CE1:4066, V-A:GLY:544:C:4910, V-B:GLU:543:CG:9879, V-A:LEU:475:CD2:4256, H-A:TYR:484:OH:4345, V-A:GLY:454:CA:4046, V-B:TYR:539:CD1:9845, V-B:ASP:366:CG:8184, V-B:GLU:543:CB:9878, V-B:TYR:539:CE1:9847, V-B:GLU:543:CD:9880, V-A:TYR:484:CZ:4344, H-B:TYR:531:OH:9767, V-A:GLU:543:CD:4906, V-A:ARG:545:CG:4920, V-A:MET:535:CE:4833, V-B:MET:535:CE:9807, V-A:LEU:373:CD1:3277, V-A:SER:385:CA:3404, V-A:TYR:539:CZ:4875, H-A:SER:385:N:3405, V-B:GLU:543:C:9874, V-A:GLU:543:C:4900, V-A:GLY:544:CA:4912, V-B:GLY:544:C:9884, V-A:GLU:543:CG:4905"]

$$$$
9c_Ghoteimi_2023
     RDKit          3D

 72 78  0  0  0  0  0  0  0  0999 V2000
  130.8450  124.0910   60.6320 N   0  0  0  0  0  0  0  0  0  0  0  0
  131.2300  123.8520   61.9260 C   0  0  0  0  0  0  0  0  0  0  0  0
  132.0100  122.7500   62.3100 C   0  0  0  0  0  0  0  0  0  0  0  0
  132.5690  121.6890   61.4670 C   0  0  0  0  0  0  0  0  0  0  0  0
  133.4870  121.9270   60.6780 O   0  0  0  0  0  0  0  0  0  0  0  0
  132.0040  120.4660   61.6200 N   0  0  0  0  0  0  0  0  0  0  0  0
  132.3340  119.3030   60.9390 C   0  0  0  0  0  0  0  0  0  0  0  0
  133.5340  118.8580   60.6320 N   0  0  0  0  0  0  0  0  0  0  0  0
  133.4740  117.7170   59.9740 C   0  0  0  0  0  0  0  0  0  0  0  0
  132.1990  117.2120   59.7320 C   0  0  0  0  0  0  0  0  0  0  0  0
  131.0230  118.2980   60.4090 S   0  0  0  0  0  0  0  0  0  0  0  0
  132.2900  122.7420   64.0510 S   0  0  0  0  0  0  0  0  0  0  0  0
  131.3480  124.1990   64.2550 C   0  0  0  0  0  0  0  0  0  0  0  0
  131.1450  124.7360   65.4570 N   0  0  0  0  0  0  0  0  0  0  0  0
  130.3830  125.8600   65.5090 C   0  0  0  0  0  0  0  0  0  0  0  0
  130.1530  126.4290   66.8720 C   0  0  0  0  0  0  0  0  0  0  0  0
  131.1280  127.2100   67.5040 C   0  0  0  0  0  0  0  0  0  0  0  0
  130.9130  127.7300   68.7770 C   0  0  0  0  0  0  0  0  0  0  0  0
  129.7180  127.4780   69.4700 C   0  0  0  0  0  0  0  0  0  0  0  0
  129.4840  127.9990   70.7480 N   0  0  0  0  0  0  0  0  0  0  0  0
  130.5990  128.3710   71.6430 C   0  0  0  0  0  0  0  0  0  0  0  0
  130.1720  129.2410   72.8440 C   0  0  0  0  0  0  0  0  0  0  0  0
  129.1360  128.5920   73.5660 O   0  0  0  0  0  0  0  0  0  0  0  0
  127.9910  128.3830   72.7560 C   0  0  0  0  0  0  0  0  0  0  0  0
  128.3510  127.4910   71.5480 C   0  0  0  0  0  0  0  0  0  0  0  0
  128.7380  126.7110   68.8240 C   0  0  0  0  0  0  0  0  0  0  0  0
  128.9530  126.1940   67.5490 C   0  0  0  0  0  0  0  0  0  0  0  0
  129.8520  126.4560   64.3630 C   0  0  0  0  0  0  0  0  0  0  0  0
  130.0820  125.9070   63.0960 C   0  0  0  0  0  0  0  0  0  0  0  0
  129.5230  126.5950   61.9060 C   0  0  0  0  0  0  0  0  0  0  0  0
  130.3010  127.5040   61.1870 C   0  0  0  0  0  0  0  0  0  0  0  0
  129.7860  128.1390   60.0590 C   0  0  0  0  0  0  0  0  0  0  0  0
  128.4770  127.8830   59.6230 C   0  0  0  0  0  0  0  0  0  0  0  0
  127.9430  128.5000   58.4880 N   0  0  0  0  0  0  0  0  0  0  0  0
  127.8490  127.7340   57.2290 C   0  0  0  0  0  0  0  0  0  0  0  0
  127.6200  128.6250   55.9890 C   0  0  0  0  0  0  0  0  0  0  0  0
  126.4640  129.4290   56.1760 O   0  0  0  0  0  0  0  0  0  0  0  0
  126.5910  130.2750   57.3080 C   0  0  0  0  0  0  0  0  0  0  0  0
  126.7990  129.4270   58.5820 C   0  0  0  0  0  0  0  0  0  0  0  0
  127.7110  126.9530   60.3410 C   0  0  0  0  0  0  0  0  0  0  0  0
  128.2260  126.3180   61.4680 C   0  0  0  0  0  0  0  0  0  0  0  0
  130.8480  124.7090   63.0200 C   0  0  0  0  0  0  0  0  0  0  0  0
  131.4000  123.7850   59.8450 H   0  0  0  0  0  0  0  0  0  0  0  0
  129.9890  124.5840   60.4200 H   0  0  0  0  0  0  0  0  0  0  0  0
  131.2640  120.3790   62.3010 H   0  0  0  0  0  0  0  0  0  0  0  0
  134.3802  117.1934   59.6352 H   0  0  0  0  0  0  0  0  0  0  0  0
  131.9727  116.2770   59.1986 H   0  0  0  0  0  0  0  0  0  0  0  0
  132.0771  127.4155   66.9873 H   0  0  0  0  0  0  0  0  0  0  0  0
  131.6916  128.3482   69.2477 H   0  0  0  0  0  0  0  0  0  0  0  0
  131.0563  127.4480   72.0289 H   0  0  0  0  0  0  0  0  0  0  0  0
  131.3010  128.9720   71.0464 H   0  0  0  0  0  0  0  0  0  0  0  0
  131.0359  129.3973   73.5067 H   0  0  0  0  0  0  0  0  0  0  0  0
  129.8052  130.2108   72.4767 H   0  0  0  0  0  0  0  0  0  0  0  0
  127.2088  127.8900   73.3520 H   0  0  0  0  0  0  0  0  0  0  0  0
  127.6266  129.3543   72.3903 H   0  0  0  0  0  0  0  0  0  0  0  0
  128.6118  126.4898   71.9217 H   0  0  0  0  0  0  0  0  0  0  0  0
  127.4723  127.4780   70.8864 H   0  0  0  0  0  0  0  0  0  0  0  0
  127.7829  126.5143   69.3331 H   0  0  0  0  0  0  0  0  0  0  0  0
  128.1677  125.5924   67.0680 H   0  0  0  0  0  0  0  0  0  0  0  0
  129.2452  127.3686   64.4572 H   0  0  0  0  0  0  0  0  0  0  0  0
  131.3288  127.7206   61.5136 H   0  0  0  0  0  0  0  0  0  0  0  0
  130.4139  128.8506   59.5027 H   0  0  0  0  0  0  0  0  0  0  0  0
  128.7861  127.1751   57.0893 H   0  0  0  0  0  0  0  0  0  0  0  0
  126.9785  127.0672   57.3169 H   0  0  0  0  0  0  0  0  0  0  0  0
  128.4953  129.2744   55.8402 H   0  0  0  0  0  0  0  0  0  0  0  0
  127.4761  127.9852   55.1059 H   0  0  0  0  0  0  0  0  0  0  0  0
  127.4550  130.9416   57.1693 H   0  0  0  0  0  0  0  0  0  0  0  0
  125.6730  130.8711   57.4175 H   0  0  0  0  0  0  0  0  0  0  0  0
  126.9699  130.1070   59.4296 H   0  0  0  0  0  0  0  0  0  0  0  0
  125.8949  128.8149   58.7161 H   0  0  0  0  0  0  0  0  0  0  0  0
  126.6882  126.7219   60.0088 H   0  0  0  0  0  0  0  0  0  0  0  0
  127.6071  125.5932   62.0172 H   0  0  0  0  0  0  0  0  0  0  0  0
  1  2  1  0
  2  3  2  0
  3  4  1  0
  4  5  2  0
  4  6  1  0
  6  7  1  0
  7  8  2  0
  8  9  1  0
  9 10  2  0
 10 11  1  0
  3 12  1  0
 12 13  1  0
 13 14  2  0
 14 15  1  0
 15 16  1  0
 16 17  2  0
 17 18  1  0
 18 19  2  0
 19 20  1  0
 20 21  1  0
 21 22  1  0
 22 23  1  0
 23 24  1  0
 24 25  1  0
 19 26  1  0
 26 27  2  0
 15 28  2  0
 28 29  1  0
 29 30  1  0
 30 31  2  0
 31 32  1  0
 32 33  2  0
 33 34  1  0
 34 35  1  0
 35 36  1  0
 36 37  1  0
 37 38  1  0
 38 39  1  0
 33 40  1  0
 40 41  2  0
 29 42  2  0
 42  2  1  0
 11  7  1  0
 42 13  1  0
 27 16  1  0
 41 30  1  0
 25 20  1  0
 39 34  1  0
  1 43  1  0
  1 44  1  0
  6 45  1  0
  9 46  1  0
 10 47  1  0
 17 48  1  0
 18 49  1  0
 21 50  1  0
 21 51  1  0
 22 52  1  0
 22 53  1  0
 24 54  1  0
 24 55  1  0
 25 56  1  0
 25 57  1  0
 26 58  1  0
 27 59  1  0
 28 60  1  0
 31 61  1  0
 32 62  1  0
 35 63  1  0
 35 64  1  0
 36 65  1  0
 36 66  1  0
 38 67  1  0
 38 68  1  0
 39 69  1  0
 39 70  1  0
 40 71  1  0
 41 72  1  0
M  END
>  <Binding energies>  (1) 
[-5.84]

>  <Ligand effiencies>  (1) 
[-0.12977777777777777]

>  <Interactions>  (1) 
["V-B:HIS:456:CE1:9040, V-A:LYS:547:CE:4948, H-A:LYS:547:NZ:4949, V-B:HIS:456:CD2:9039, V-B:HIS:456:CG:9037, V-A:HIS:456:CE1:4066, V-A:GLY:544:C:4910, V-B:GLU:543:CG:9879, V-A:LEU:475:CD2:4256, H-A:TYR:484:OH:4345, V-A:GLY:454:CA:4046, V-B:TYR:539:CD1:9845, V-B:GLU:543:CB:9878, V-B:TYR:539:CE1:9847, V-B:GLU:543:CD:9880, V-A:TYR:484:CZ:4344, H-B:TYR:531:OH:9767, V-A:GLU:543:CD:4906, V-A:ARG:545:CG:4920, V-A:TYR:539:CE1:4873, V-B:TYR:539:CG:9844, V-A:MET:535:CE:4833, V-B:MET:535:CE:9807, V-A:LEU:373:CD1:3277, V-A:PRO:482:CG:4324, V-A:SER:385:CA:3404, V-A:SER:385:CB:3406, V-A:VAL:384:C:3394, V-A:TYR:539:CZ:4875, V-B:TYR:539:CB:9843, V-B:GLU:543:C:9874, V-A:GLU:543:C:4900, V-A:GLY:544:CA:4912, V-B:GLY:544:C:9884, H-A:TYR:539:OH:4876, V-A:GLU:543:CG:4905"]

$$$$
9d_Ghoteimi_2023
     RDKit          3D

 68 73  0  0  0  0  0  0  0  0999 V2000
  134.3670  123.9650   59.7250 C   0  0  0  0  0  0  0  0  0  0  0  0
  133.5370  122.8460   59.9980 O   0  0  0  0  0  0  0  0  0  0  0  0
  133.4120  122.3630   61.2620 C   0  0  0  0  0  0  0  0  0  0  0  0
  133.8790  121.2840   61.6370 O   0  0  0  0  0  0  0  0  0  0  0  0
  132.6480  123.2660   62.1510 C   0  0  0  0  0  0  0  0  0  0  0  0
  132.8400  123.1440   63.8990 S   0  0  0  0  0  0  0  0  0  0  0  0
  131.7180  124.4600   64.1530 C   0  0  0  0  0  0  0  0  0  0  0  0
  131.4360  124.9100   65.3750 N   0  0  0  0  0  0  0  0  0  0  0  0
  130.5640  125.9490   65.4640 C   0  0  0  0  0  0  0  0  0  0  0  0
  130.2820  126.4540   66.8430 C   0  0  0  0  0  0  0  0  0  0  0  0
  131.2120  127.2600   67.5080 C   0  0  0  0  0  0  0  0  0  0  0  0
  130.9600  127.7330   68.7930 C   0  0  0  0  0  0  0  0  0  0  0  0
  129.7610  127.4270   69.4560 C   0  0  0  0  0  0  0  0  0  0  0  0
  129.5010  127.8810   70.7540 N   0  0  0  0  0  0  0  0  0  0  0  0
  128.2840  127.4680   71.4830 C   0  0  0  0  0  0  0  0  0  0  0  0
  127.9880  128.3200   72.7350 C   0  0  0  0  0  0  0  0  0  0  0  0
  129.1160  128.3310   73.5930 O   0  0  0  0  0  0  0  0  0  0  0  0
  130.2510  128.8870   72.9520 C   0  0  0  0  0  0  0  0  0  0  0  0
  130.6190  128.0550   71.7050 C   0  0  0  0  0  0  0  0  0  0  0  0
  128.8390  126.6060   68.7910 C   0  0  0  0  0  0  0  0  0  0  0  0
  129.0930  126.1300   67.5070 C   0  0  0  0  0  0  0  0  0  0  0  0
  129.9550  126.5100   64.3390 C   0  0  0  0  0  0  0  0  0  0  0  0
  130.2330  126.0280   63.0550 C   0  0  0  0  0  0  0  0  0  0  0  0
  129.5360  126.6420   61.8950 C   0  0  0  0  0  0  0  0  0  0  0  0
  128.2460  126.2400   61.5430 C   0  0  0  0  0  0  0  0  0  0  0  0
  127.5900  126.8320   60.4670 C   0  0  0  0  0  0  0  0  0  0  0  0
  128.2020  127.8540   59.7240 C   0  0  0  0  0  0  0  0  0  0  0  0
  127.5690  128.4570   58.6340 N   0  0  0  0  0  0  0  0  0  0  0  0
  126.0960  128.4240   58.5520 C   0  0  0  0  0  0  0  0  0  0  0  0
  125.5200  129.4370   57.5410 C   0  0  0  0  0  0  0  0  0  0  0  0
  126.1030  129.2350   56.2620 O   0  0  0  0  0  0  0  0  0  0  0  0
  127.5130  129.4000   56.2970 C   0  0  0  0  0  0  0  0  0  0  0  0
  128.1380  128.3820   57.2750 C   0  0  0  0  0  0  0  0  0  0  0  0
  129.4980  128.2490   60.0850 C   0  0  0  0  0  0  0  0  0  0  0  0
  130.1540  127.6560   61.1600 C   0  0  0  0  0  0  0  0  0  0  0  0
  131.1750  124.9680   62.9360 C   0  0  0  0  0  0  0  0  0  0  0  0
  131.7420  124.2770   61.8070 C   0  0  0  0  0  0  0  0  0  0  0  0
  131.4380  124.5960   60.5090 N   0  0  0  0  0  0  0  0  0  0  0  0
  134.7002  124.4142   60.6722 H   0  0  0  0  0  0  0  0  0  0  0  0
  135.2433  123.6389   59.1456 H   0  0  0  0  0  0  0  0  0  0  0  0
  133.8006  124.7090   59.1456 H   0  0  0  0  0  0  0  0  0  0  0  0
  132.1559  127.5239   67.0086 H   0  0  0  0  0  0  0  0  0  0  0  0
  131.7128  128.3568   69.2971 H   0  0  0  0  0  0  0  0  0  0  0  0
  127.4263  127.5475   70.7989 H   0  0  0  0  0  0  0  0  0  0  0  0
  128.4526  126.4377   71.8295 H   0  0  0  0  0  0  0  0  0  0  0  0
  127.7544  129.3500   72.4275 H   0  0  0  0  0  0  0  0  0  0  0  0
  127.1310  127.8868   73.2716 H   0  0  0  0  0  0  0  0  0  0  0  0
  130.0265  129.9197   72.6467 H   0  0  0  0  0  0  0  0  0  0  0  0
  131.0991  128.8788   73.6524 H   0  0  0  0  0  0  0  0  0  0  0  0
  131.4442  128.5604   71.1818 H   0  0  0  0  0  0  0  0  0  0  0  0
  130.8977  127.0517   72.0595 H   0  0  0  0  0  0  0  0  0  0  0  0
  127.8986  126.3331   69.2922 H   0  0  0  0  0  0  0  0  0  0  0  0
  128.3495  125.4910   67.0081 H   0  0  0  0  0  0  0  0  0  0  0  0
  129.2469  127.3424   64.4642 H   0  0  0  0  0  0  0  0  0  0  0  0
  127.7441  125.4495   62.1202 H   0  0  0  0  0  0  0  0  0  0  0  0
  126.5789  126.4945   60.1955 H   0  0  0  0  0  0  0  0  0  0  0  0
  125.7854  127.4131   58.2493 H   0  0  0  0  0  0  0  0  0  0  0  0
  125.7075  128.6963   59.5444 H   0  0  0  0  0  0  0  0  0  0  0  0
  124.4308  129.3009   57.4700 H   0  0  0  0  0  0  0  0  0  0  0  0
  125.7481  130.4571   57.8837 H   0  0  0  0  0  0  0  0  0  0  0  0
  127.9242  129.2376   55.2897 H   0  0  0  0  0  0  0  0  0  0  0  0
  127.7496  130.4194   56.6358 H   0  0  0  0  0  0  0  0  0  0  0  0
  127.9690  127.3691   56.8806 H   0  0  0  0  0  0  0  0  0  0  0  0
  129.2088  128.6208   57.3553 H   0  0  0  0  0  0  0  0  0  0  0  0
  130.0037  129.0390   59.5104 H   0  0  0  0  0  0  0  0  0  0  0  0
  131.1665  127.9885   61.4326 H   0  0  0  0  0  0  0  0  0  0  0  0
  132.1000  124.4600   59.7580 H   0  0  0  0  0  0  0  0  0  0  0  0
  130.5360  124.9760   60.2570 H   0  0  0  0  0  0  0  0  0  0  0  0
  1  2  1  0
  2  3  1  0
  3  4  2  0
  3  5  1  0
  5  6  1  0
  6  7  1  0
  7  8  2  0
  8  9  1  0
  9 10  1  0
 10 11  2  0
 11 12  1  0
 12 13  2  0
 13 14  1  0
 14 15  1  0
 15 16  1  0
 16 17  1  0
 17 18  1  0
 18 19  1  0
 13 20  1  0
 20 21  2  0
  9 22  2  0
 22 23  1  0
 23 24  1  0
 24 25  2  0
 25 26  1  0
 26 27  2  0
 27 28  1  0
 28 29  1  0
 29 30  1  0
 30 31  1  0
 31 32  1  0
 32 33  1  0
 27 34  1  0
 34 35  2  0
 23 36  2  0
 36 37  1  0
 37 38  1  0
 37  5  2  0
 36  7  1  0
 21 10  1  0
 35 24  1  0
 19 14  1  0
 33 28  1  0
  1 39  1  0
  1 40  1  0
  1 41  1  0
 11 42  1  0
 12 43  1  0
 15 44  1  0
 15 45  1  0
 16 46  1  0
 16 47  1  0
 18 48  1  0
 18 49  1  0
 19 50  1  0
 19 51  1  0
 20 52  1  0
 21 53  1  0
 22 54  1  0
 25 55  1  0
 26 56  1  0
 29 57  1  0
 29 58  1  0
 30 59  1  0
 30 60  1  0
 32 61  1  0
 32 62  1  0
 33 63  1  0
 33 64  1  0
 34 65  1  0
 35 66  1  0
 38 67  1  0
 38 68  1  0
M  END
>  <Binding energies>  (1) 
[-5.72]

>  <Ligand effiencies>  (1) 
[-0.143]

>  <Interactions>  (1) 
["V-B:HIS:456:CE1:9040, V-A:LYS:547:CE:4948, H-A:LYS:547:NZ:4949, V-B:HIS:456:CD2:9039, V-B:HIS:456:CG:9037, V-A:HIS:456:CE1:4066, V-A:GLY:544:C:4910, V-B:GLU:543:CG:9879, V-A:LEU:475:CD2:4256, H-A:TYR:484:OH:4345, V-A:GLY:454:CA:4046, V-B:ASP:366:CG:8184, V-B:GLU:543:CB:9878, V-B:GLU:543:CD:9880, H-A:ASP:366:OD1:3211, V-A:ASP:366:CG:3210, V-B:ASP:366:CB:8183, H-B:TYR:531:OH:9767, V-A:GLU:543:CD:4906, V-A:ILE:369:CD1:3236, V-A:ARG:545:CG:4920, V-A:MET:535:CE:4833, V-A:ILE:369:CG2:3234, V-A:ILE:369:CB:3233, V-A:ASP:366:CA:3207, V-B:GLU:543:C:9874, V-A:GLU:543:C:4900, V-A:GLY:544:CA:4912, V-B:GLY:544:C:9884, V-A:GLU:543:CG:4905, V-A:ILE:369:CG1:3235"]

$$$$
RR10_Rahimova_2017
     RDKit          3D

 66 70  0  0  0  0  0  0  0  0999 V2000
  134.2500  124.2440   59.0030 C   0  0  0  0  0  0  0  0  0  0  0  0
  133.9020  123.7260   60.4090 C   0  0  1  0  0  0  0  0  0  0  0  0
  132.9750  124.7020   61.1700 C   0  0  0  0  0  0  0  0  0  0  0  0
  132.6670  124.1790   62.5920 C   0  0  0  0  0  0  0  0  0  0  0  0
  132.0150  122.7720   62.5680 C   0  0  1  0  0  0  0  0  0  0  0  0
  130.6630  122.8350   61.9970 N   0  0  0  0  0  0  0  0  0  0  0  0
  129.8960  121.7720   61.6910 C   0  0  0  0  0  0  0  0  0  0  0  0
  130.2530  120.6080   61.8850 O   0  0  0  0  0  0  0  0  0  0  0  0
  128.5210  122.0690   61.0580 C   0  0  1  0  0  0  0  0  0  0  0  0
  127.7760  123.1240   61.9160 C   0  0  0  0  0  0  0  0  0  0  0  0
  126.4360  123.4930   61.2350 C   0  0  0  0  0  0  0  0  0  0  0  0
  126.6170  123.9000   59.7540 C   0  0  0  0  0  0  0  0  0  0  0  0
  127.3940  122.8680   59.0160 N   0  0  0  0  0  0  0  0  0  0  0  0
  127.4080  123.0780   57.2570 S   0  0  0  0  0  0  0  0  0  0  0  0
  126.0270  123.3070   56.8140 O   0  0  0  0  0  0  0  0  0  0  0  0
  128.1990  121.9840   56.6790 O   0  0  0  0  0  0  0  0  0  0  0  0
  128.2980  124.6090   56.9780 C   0  0  0  0  0  0  0  0  0  0  0  0
  129.5000  124.5820   56.2620 C   0  0  0  0  0  0  0  0  0  0  0  0
  130.2430  125.7390   56.0120 C   0  0  0  0  0  0  0  0  0  0  0  0
  129.7230  126.9350   56.5140 C   0  0  0  0  0  0  0  0  0  0  0  0
  130.1440  128.2430   56.4850 N   0  0  0  0  0  0  0  0  0  0  0  0
  129.2120  129.0050   57.1580 C   0  0  0  0  0  0  0  0  0  0  0  0
  129.3320  130.4900   57.3460 C   0  0  0  0  0  0  0  0  0  0  0  0
  130.1130  131.0130   58.3850 C   0  0  0  0  0  0  0  0  0  0  0  0
  130.2280  132.3890   58.5580 C   0  0  0  0  0  0  0  0  0  0  0  0
  129.5600  133.2520   57.6930 C   0  0  0  0  0  0  0  0  0  0  0  0
  128.7800  132.7490   56.6560 C   0  0  0  0  0  0  0  0  0  0  0  0
  128.6660  131.3710   56.4840 C   0  0  0  0  0  0  0  0  0  0  0  0
  128.2160  128.2760   57.6130 N   0  0  0  0  0  0  0  0  0  0  0  0
  128.5050  126.9920   57.2330 C   0  0  0  0  0  0  0  0  0  0  0  0
  127.7800  125.8140   57.4660 C   0  0  0  0  0  0  0  0  0  0  0  0
  128.7250  122.5900   59.6140 C   0  0  0  0  0  0  0  0  0  0  0  0
  132.9480  121.8080   61.7870 C   0  0  0  0  0  0  0  0  0  0  0  0
  133.2520  122.3240   60.3620 C   0  0  0  0  0  0  0  0  0  0  0  0
  134.8616  125.1543   59.0886 H   0  0  0  0  0  0  0  0  0  0  0  0
  134.8142  123.4732   58.4575 H   0  0  0  0  0  0  0  0  0  0  0  0
  133.3231  124.4749   58.4575 H   0  0  0  0  0  0  0  0  0  0  0  0
  134.8556  123.6526   60.9524 H   0  0  0  0  0  0  0  0  0  0  0  0
  133.4692  125.6817   61.2463 H   0  0  0  0  0  0  0  0  0  0  0  0
  132.0285  124.7898   60.6164 H   0  0  0  0  0  0  0  0  0  0  0  0
  133.6067  124.1247   63.1612 H   0  0  0  0  0  0  0  0  0  0  0  0
  131.9553  124.8740   63.0616 H   0  0  0  0  0  0  0  0  0  0  0  0
  131.8969  122.3875   63.5918 H   0  0  0  0  0  0  0  0  0  0  0  0
  130.3460  123.7500   61.7120 H   0  0  0  0  0  0  0  0  0  0  0  0
  127.9165  121.1507   61.0232 H   0  0  0  0  0  0  0  0  0  0  0  0
  127.5771  122.7092   62.9152 H   0  0  0  0  0  0  0  0  0  0  0  0
  128.3992  124.0256   62.0096 H   0  0  0  0  0  0  0  0  0  0  0  0
  125.7648  122.6228   61.2822 H   0  0  0  0  0  0  0  0  0  0  0  0
  126.0158  124.3572   61.7703 H   0  0  0  0  0  0  0  0  0  0  0  0
  125.6275  124.0100   59.2863 H   0  0  0  0  0  0  0  0  0  0  0  0
  127.1663  124.8522   59.7136 H   0  0  0  0  0  0  0  0  0  0  0  0
  129.8723  123.6186   55.8835 H   0  0  0  0  0  0  0  0  0  0  0  0
  131.1878  125.7097   55.4494 H   0  0  0  0  0  0  0  0  0  0  0  0
  130.9780  128.6290   56.0650 H   0  0  0  0  0  0  0  0  0  0  0  0
  130.6392  130.3309   59.0690 H   0  0  0  0  0  0  0  0  0  0  0  0
  130.8441  132.7933   59.3747 H   0  0  0  0  0  0  0  0  0  0  0  0
  129.6496  134.3397   57.8304 H   0  0  0  0  0  0  0  0  0  0  0  0
  128.2559  133.4361   55.9753 H   0  0  0  0  0  0  0  0  0  0  0  0
  128.0487  130.9720   55.6656 H   0  0  0  0  0  0  0  0  0  0  0  0
  126.8288  125.8368   58.0181 H   0  0  0  0  0  0  0  0  0  0  0  0
  129.2478  121.8289   59.0162 H   0  0  0  0  0  0  0  0  0  0  0  0
  129.3288  123.5093   59.6289 H   0  0  0  0  0  0  0  0  0  0  0  0
  133.8949  121.7067   62.3375 H   0  0  0  0  0  0  0  0  0  0  0  0
  132.4353  120.8391   61.6953 H   0  0  0  0  0  0  0  0  0  0  0  0
  133.9403  121.6245   59.8651 H   0  0  0  0  0  0  0  0  0  0  0  0
  132.3062  122.3940   59.8047 H   0  0  0  0  0  0  0  0  0  0  0  0
  1  2  1  0
  2  3  1  0
  3  4  1  0
  4  5  1  0
  5  6  1  0
  6  7  1  0
  7  8  2  0
  7  9  1  0
  9 10  1  0
 10 11  1  0
 11 12  1  0
 12 13  1  0
 13 14  1  0
 14 15  2  0
 14 16  2  0
 14 17  1  0
 17 18  2  0
 18 19  1  0
 19 20  2  0
 20 21  1  0
 21 22  1  0
 22 23  1  0
 23 24  2  0
 24 25  1  0
 25 26  2  0
 26 27  1  0
 27 28  2  0
 22 29  2  0
 29 30  1  0
 30 31  2  0
 13 32  1  0
  5 33  1  0
 33 34  1  0
 34  2  1  0
 32  9  1  0
 31 17  1  0
 30 20  1  0
 28 23  1  0
  1 35  1  0
  1 36  1  0
  1 37  1  0
  2 38  1  1
  3 39  1  0
  3 40  1  0
  4 41  1  0
  4 42  1  0
  5 43  1  1
  6 44  1  0
  9 45  1  6
 10 46  1  0
 10 47  1  0
 11 48  1  0
 11 49  1  0
 12 50  1  0
 12 51  1  0
 18 52  1  0
 19 53  1  0
 21 54  1  0
 24 55  1  0
 25 56  1  0
 26 57  1  0
 27 58  1  0
 28 59  1  0
 31 60  1  0
 32 61  1  0
 32 62  1  0
 33 63  1  0
 33 64  1  0
 34 65  1  0
 34 66  1  0
M  END
>  <Binding energies>  (1) 
[-9.96]

>  <Ligand effiencies>  (1) 
[-0.27666666666666667]

>  <Interactions>  (1) 
["V-A:LEU:475:CD2:4256, V-B:TYR:539:CD1:9845, V-B:TYR:539:C:9839, V-B:PRO:540:C:9853, V-B:TYR:539:CE1:9847, V-B:PRO:540:CB:9857, V-B:PRO:540:CA:9855, V-B:ALA:541:CB:9864, V-A:ASP:366:CG:3210, V-B:PRO:540:N:9856, V-A:ILE:369:CD1:3236, V-A:TYR:539:CE1:4873, V-A:TYR:539:C:4865, V-A:PRO:540:CA:4881, V-A:TYR:539:CD1:4871, V-A:PRO:540:N:4882, V-A:TYR:539:CA:4867, V-A:TYR:539:CG:4870, H-B:TYR:539:N:9842, V-A:MET:535:CE:4833, V-B:TYR:539:CZ:9849, V-A:TYR:531:CZ:4792, V-B:MET:535:CE:9807, V-A:ILE:369:CG2:3234, V-A:ILE:369:CB:3233, H-A:TYR:531:OH:4793, V-A:TYR:539:CD2:4872, V-A:TYR:539:CE2:4874, V-A:TYR:539:CZ:4875, V-A:ASP:366:CB:3209, V-A:ASP:366:CA:3207, V-B:ALA:541:CA:9862, V-A:TYR:539:CB:4869"]

$$$$
RR11_Rahimova_2017
     RDKit          3D

 55 60  0  0  0  0  0  0  0  0999 V2000
  133.0580  125.0760   56.0220 N   0  0  0  0  0  0  0  0  0  0  0  0
  131.9280  125.7800   56.4340 C   0  0  0  0  0  0  0  0  0  0  0  0
  130.7910  125.8020   55.6280 C   0  0  0  0  0  0  0  0  0  0  0  0
  129.6630  126.5030   56.0420 C   0  0  0  0  0  0  0  0  0  0  0  0
  129.6590  127.1890   57.2640 C   0  0  0  0  0  0  0  0  0  0  0  0
  128.4400  127.9390   57.7110 C   0  0  0  0  0  0  0  0  0  0  0  0
  128.2440  128.3770   58.9360 N   0  0  0  0  0  0  0  0  0  0  0  0
  127.0290  129.0090   58.9050 C   0  0  0  0  0  0  0  0  0  0  0  0
  126.3430  129.6620   59.9380 C   0  0  0  0  0  0  0  0  0  0  0  0
  125.1080  130.2540   59.6480 C   0  0  0  0  0  0  0  0  0  0  0  0
  124.3370  130.9650   60.7520 C   0  0  0  0  0  0  0  0  0  0  0  0
  125.0540  130.9290   62.0940 C   0  0  0  0  0  0  0  0  0  0  0  0
  125.4930  132.1250   62.6730 C   0  0  0  0  0  0  0  0  0  0  0  0
  126.1470  132.1440   63.9060 C   0  0  0  0  0  0  0  0  0  0  0  0
  126.3520  130.9250   64.5650 C   0  0  0  0  0  0  0  0  0  0  0  0
  126.9650  130.6780   65.7650 N   0  0  0  0  0  0  0  0  0  0  0  0
  126.9000  129.3740   65.9270 C   0  0  0  0  0  0  0  0  0  0  0  0
  127.4640  128.6360   67.1070 C   0  0  0  0  0  0  0  0  0  0  0  0
  128.7400  128.9450   67.5950 C   0  0  0  0  0  0  0  0  0  0  0  0
  129.2670  128.2540   68.6830 C   0  0  0  0  0  0  0  0  0  0  0  0
  128.5210  127.2470   69.2910 C   0  0  0  0  0  0  0  0  0  0  0  0
  129.0500  126.5510   70.3770 N   0  0  0  0  0  0  0  0  0  0  0  0
  127.2490  126.9320   68.8190 C   0  0  0  0  0  0  0  0  0  0  0  0
  126.7230  127.6230   67.7320 C   0  0  0  0  0  0  0  0  0  0  0  0
  126.2570  128.7550   64.8760 N   0  0  0  0  0  0  0  0  0  0  0  0
  125.8900  129.7240   63.9730 C   0  0  0  0  0  0  0  0  0  0  0  0
  125.2310  129.6990   62.7420 C   0  0  0  0  0  0  0  0  0  0  0  0
  124.5620  130.1710   58.3620 C   0  0  0  0  0  0  0  0  0  0  0  0
  125.2180  129.5230   57.3120 C   0  0  0  0  0  0  0  0  0  0  0  0
  126.4570  128.9510   57.6120 C   0  0  0  0  0  0  0  0  0  0  0  0
  127.3880  128.2560   56.8760 N   0  0  0  0  0  0  0  0  0  0  0  0
  130.8090  127.1600   58.0640 C   0  0  0  0  0  0  0  0  0  0  0  0
  131.9390  126.4590   57.6520 C   0  0  0  0  0  0  0  0  0  0  0  0
  133.9560  125.2960   56.4280 H   0  0  0  0  0  0  0  0  0  0  0  0
  132.9590  124.3280   55.3520 H   0  0  0  0  0  0  0  0  0  0  0  0
  130.7857  125.2665   54.6672 H   0  0  0  0  0  0  0  0  0  0  0  0
  128.7665  126.5190   55.4047 H   0  0  0  0  0  0  0  0  0  0  0  0
  126.7650  129.7083   60.9528 H   0  0  0  0  0  0  0  0  0  0  0  0
  124.1934  132.0155   60.4590 H   0  0  0  0  0  0  0  0  0  0  0  0
  123.3787  130.4394   60.8760 H   0  0  0  0  0  0  0  0  0  0  0  0
  125.3184  133.0733   62.1435 H   0  0  0  0  0  0  0  0  0  0  0  0
  126.4920  133.0903   64.3481 H   0  0  0  0  0  0  0  0  0  0  0  0
  129.3303  129.7396   67.1151 H   0  0  0  0  0  0  0  0  0  0  0  0
  130.2695  128.5027   69.0613 H   0  0  0  0  0  0  0  0  0  0  0  0
  128.4340  126.0130   70.9710 H   0  0  0  0  0  0  0  0  0  0  0  0
  130.0470  126.5630   70.5370 H   0  0  0  0  0  0  0  0  0  0  0  0
  126.6616  126.1387   69.3045 H   0  0  0  0  0  0  0  0  0  0  0  0
  125.7184  127.3728   67.3602 H   0  0  0  0  0  0  0  0  0  0  0  0
  126.1120  127.7570   64.8250 H   0  0  0  0  0  0  0  0  0  0  0  0
  124.8681  128.7585   62.3019 H   0  0  0  0  0  0  0  0  0  0  0  0
  123.5818  130.6322   58.1710 H   0  0  0  0  0  0  0  0  0  0  0  0
  124.7824  129.4663   56.3035 H   0  0  0  0  0  0  0  0  0  0  0  0
  127.3580  128.0020   55.9000 H   0  0  0  0  0  0  0  0  0  0  0  0
  130.8190  127.6952   59.0249 H   0  0  0  0  0  0  0  0  0  0  0  0
  132.8381  126.4407   58.2855 H   0  0  0  0  0  0  0  0  0  0  0  0
  1  2  1  0
  2  3  2  0
  3  4  1  0
  4  5  2  0
  5  6  1  0
  6  7  2  0
  7  8  1  0
  8  9  2  0
  9 10  1  0
 10 11  1  0
 11 12  1  0
 12 13  2  0
 13 14  1  0
 14 15  2  0
 15 16  1  0
 16 17  2  0
 17 18  1  0
 18 19  2  0
 19 20  1  0
 20 21  2  0
 21 22  1  0
 21 23  1  0
 23 24  2  0
 17 25  1  0
 25 26  1  0
 26 27  2  0
 10 28  2  0
 28 29  1  0
 29 30  2  0
 30 31  1  0
  5 32  1  0
 32 33  2  0
 33  2  1  0
 31  6  1  0
 30  8  1  0
 27 12  1  0
 26 15  1  0
 24 18  1  0
  1 34  1  0
  1 35  1  0
  3 36  1  0
  4 37  1  0
  9 38  1  0
 11 39  1  0
 11 40  1  0
 13 41  1  0
 14 42  1  0
 19 43  1  0
 20 44  1  0
 22 45  1  0
 22 46  1  0
 23 47  1  0
 24 48  1  0
 25 49  1  0
 27 50  1  0
 28 51  1  0
 29 52  1  0
 31 53  1  0
 32 54  1  0
 33 55  1  0
M  END
>  <Binding energies>  (1) 
[-7.22]

>  <Ligand effiencies>  (1) 
[-0.18512820512820513]

>  <Interactions>  (1) 
["V-B:HIS:456:CE1:9040, V-A:HIS:456:CD2:4065, V-A:HIS:456:CE1:4066, V-B:GLU:543:CG:9879, V-B:ASP:366:CG:8184, V-B:GLU:543:CB:9878, V-B:GLU:543:CD:9880, H-B:GLU:543:OE2:9882, V-B:ARG:545:CZ:9898, V-A:ASP:366:CG:3210, H-B:GLU:543:OE1:9881, V-B:ASP:366:CB:8183, H-B:TYR:531:OH:9767, V-A:GLU:543:CD:4906, V-B:LEU:475:CD2:9230, V-B:ARG:545:CG:9894, V-B:TYR:539:CZ:9849, V-A:TYR:531:CZ:4792, H-B:TYR:484:OH:9319, V-B:MET:535:CE:9807, V-A:GLU:543:CB:4904, V-B:TYR:531:CZ:9766, V-A:ASP:366:C:3205, V-A:ASP:366:CB:3209, H-B:TYR:539:OH:9850, V-A:ASN:370:CG:3243, V-A:ASN:370:CB:3242, V-A:TYR:531:CE1:4790, H-A:ASP:366:O:3206, V-B:GLU:543:C:9874, V-A:GLU:543:C:4900, H-B:GLU:543:O:9875, V-B:GLY:544:C:9884, V-A:GLU:543:CG:4905, V-B:ASP:366:CA:8181, H-A:HIS:456:ND1:4064, V-A:ASN:370:CA:3240"]

$$$$
RR11_Rahimova_2017-again1
     RDKit          3D

 56 61  0  0  0  0  0  0  0  0999 V2000
  133.0820  125.0440   55.9070 N   0  0  0  0  0  0  0  0  0  0  0  0
  131.9470  125.7300   56.3380 C   0  0  0  0  0  0  0  0  0  0  0  0
  130.8110  125.7680   55.5330 C   0  0  0  0  0  0  0  0  0  0  0  0
  129.6790  126.4560   55.9640 C   0  0  0  0  0  0  0  0  0  0  0  0
  129.6750  127.1130   57.2010 C   0  0  0  0  0  0  0  0  0  0  0  0
  128.4570  127.8610   57.6610 C   0  0  0  0  0  0  0  0  0  0  0  0
  127.4520  128.1930   56.8820 N   0  0  0  0  0  0  0  0  0  0  0  0
  126.5780  128.8730   57.6890 C   0  0  0  0  0  0  0  0  0  0  0  0
  125.3440  129.4550   57.3690 C   0  0  0  0  0  0  0  0  0  0  0  0
  124.6440  130.1130   58.3810 C   0  0  0  0  0  0  0  0  0  0  0  0
  125.1480  130.2010   59.6840 C   0  0  0  0  0  0  0  0  0  0  0  0
  124.3460  130.9350   60.7490 C   0  0  0  0  0  0  0  0  0  0  0  0
  125.0320  130.9300   62.1070 C   0  0  0  0  0  0  0  0  0  0  0  0
  125.4180  132.1420   62.6920 C   0  0  0  0  0  0  0  0  0  0  0  0
  126.0530  132.1990   63.9350 C   0  0  0  0  0  0  0  0  0  0  0  0
  126.2830  130.9800   64.5770 C   0  0  0  0  0  0  0  0  0  0  0  0
  126.8870  130.6710   65.7890 N   0  0  0  0  0  0  0  0  0  0  0  0
  126.8830  129.3100   65.9860 C   0  0  0  0  0  0  0  0  0  0  0  0
  127.4500  128.5690   67.1540 C   0  0  0  0  0  0  0  0  0  0  0  0
  128.7610  128.8200   67.5760 C   0  0  0  0  0  0  0  0  0  0  0  0
  129.2910  128.1390   68.6680 C   0  0  0  0  0  0  0  0  0  0  0  0
  128.5120  127.2020   69.3450 C   0  0  0  0  0  0  0  0  0  0  0  0
  129.0420  126.5250   70.4410 N   0  0  0  0  0  0  0  0  0  0  0  0
  127.2050  126.9430   68.9320 C   0  0  0  0  0  0  0  0  0  0  0  0
  126.6760  127.6240   67.8390 C   0  0  0  0  0  0  0  0  0  0  0  0
  126.2620  128.7610   64.8880 N   0  0  0  0  0  0  0  0  0  0  0  0
  125.8850  129.7610   64.0030 C   0  0  0  0  0  0  0  0  0  0  0  0
  125.2450  129.7100   62.7620 C   0  0  0  0  0  0  0  0  0  0  0  0
  126.3690  129.6070   60.0330 C   0  0  0  0  0  0  0  0  0  0  0  0
  127.0680  128.9570   59.0140 C   0  0  0  0  0  0  0  0  0  0  0  0
  128.2700  128.2920   58.9580 N   0  0  0  0  0  0  0  0  0  0  0  0
  130.8240  127.0650   58.0020 C   0  0  0  0  0  0  0  0  0  0  0  0
  131.9560  126.3770   57.5730 C   0  0  0  0  0  0  0  0  0  0  0  0
  132.9890  124.3230   55.2070 H   0  0  0  0  0  0  0  0  0  0  0  0
  133.9760  125.2480   56.3300 H   0  0  0  0  0  0  0  0  0  0  0  0
  130.8077  125.2560   54.5594 H   0  0  0  0  0  0  0  0  0  0  0  0
  128.7817  126.4835   55.3282 H   0  0  0  0  0  0  0  0  0  0  0  0
  124.9384  129.3948   56.3483 H   0  0  0  0  0  0  0  0  0  0  0  0
  123.6724  130.5738   58.1492 H   0  0  0  0  0  0  0  0  0  0  0  0
  124.2071  131.9781   60.4286 H   0  0  0  0  0  0  0  0  0  0  0  0
  123.3844  130.4125   60.8602 H   0  0  0  0  0  0  0  0  0  0  0  0
  125.2146  133.0803   62.1552 H   0  0  0  0  0  0  0  0  0  0  0  0
  126.3565  133.1555   64.3854 H   0  0  0  0  0  0  0  0  0  0  0  0
  127.2900  131.3140   66.4560 H   0  0  0  0  0  0  0  0  0  0  0  0
  129.3756  129.5594   67.0416 H   0  0  0  0  0  0  0  0  0  0  0  0
  130.3217  128.3396   68.9959 H   0  0  0  0  0  0  0  0  0  0  0  0
  128.5000  125.7980   70.8870 H   0  0  0  0  0  0  0  0  0  0  0  0
  129.9500  126.7860   70.7960 H   0  0  0  0  0  0  0  0  0  0  0  0
  126.5938  126.2025   69.4686 H   0  0  0  0  0  0  0  0  0  0  0  0
  125.6459  127.4190   67.5121 H   0  0  0  0  0  0  0  0  0  0  0  0
  126.1280  127.7660   64.7850 H   0  0  0  0  0  0  0  0  0  0  0  0
  124.9231  128.7557   62.3196 H   0  0  0  0  0  0  0  0  0  0  0  0
  126.7579  129.6510   61.0610 H   0  0  0  0  0  0  0  0  0  0  0  0
  128.9370  128.1300   59.6980 H   0  0  0  0  0  0  0  0  0  0  0  0
  130.8316  127.5746   58.9768 H   0  0  0  0  0  0  0  0  0  0  0  0
  132.8546  126.3440   58.2065 H   0  0  0  0  0  0  0  0  0  0  0  0
  1  2  1  0
  2  3  2  0
  3  4  1  0
  4  5  2  0
  5  6  1  0
  6  7  2  0
  7  8  1  0
  8  9  2  0
  9 10  1  0
 10 11  2  0
 11 12  1  0
 12 13  1  0
 13 14  2  0
 14 15  1  0
 15 16  2  0
 16 17  1  0
 17 18  1  0
 18 19  1  0
 19 20  2  0
 20 21  1  0
 21 22  2  0
 22 23  1  0
 22 24  1  0
 24 25  2  0
 18 26  2  0
 26 27  1  0
 27 28  2  0
 11 29  1  0
 29 30  2  0
 30 31  1  0
  5 32  1  0
 32 33  2  0
 33  2  1  0
 31  6  1  0
 30  8  1  0
 28 13  1  0
 27 16  1  0
 25 19  1  0
  1 34  1  0
  1 35  1  0
  3 36  1  0
  4 37  1  0
  9 38  1  0
 10 39  1  0
 12 40  1  0
 12 41  1  0
 14 42  1  0
 15 43  1  0
 17 44  1  0
 20 45  1  0
 21 46  1  0
 23 47  1  0
 23 48  1  0
 24 49  1  0
 25 50  1  0
 26 51  1  0
 28 52  1  0
 29 53  1  0
 31 54  1  0
 32 55  1  0
 33 56  1  0
M  CHG  1  26   1
M  END
>  <Binding energies>  (1) 
[-8.57]

>  <Ligand effiencies>  (1) 
[-0.21425]

>  <Interactions>  (1) 
["V-B:HIS:456:CE1:9040, V-A:HIS:456:CD2:4065, V-A:HIS:456:CE1:4066, V-B:GLU:543:CG:9879, V-B:ASP:366:CG:8184, V-B:GLU:543:CB:9878, V-B:GLU:543:CD:9880, H-B:GLU:543:OE2:9882, V-B:ARG:545:CZ:9898, V-A:ASP:366:CG:3210, H-B:GLU:543:OE1:9881, V-B:ASP:366:CB:8183, H-A:GLU:543:OE1:4907, H-B:TYR:531:OH:9767, V-A:GLU:543:CD:4906, V-B:LEU:475:CD2:9230, V-B:ARG:545:CG:9894, V-B:TYR:539:CZ:9849, V-A:TYR:531:CZ:4792, H-B:TYR:484:OH:9319, V-B:MET:535:CE:9807, V-B:TYR:484:CZ:9318, V-A:GLU:543:CB:4904, V-B:TYR:484:CE2:9317, V-A:ASP:366:C:3205, V-A:ASP:366:CB:3209, H-B:TYR:539:OH:9850, V-A:ASN:370:CG:3243, V-A:ASN:370:CB:3242, V-A:TYR:531:CE1:4790, H-A:ASP:366:O:3206, V-B:GLU:543:C:9874, V-A:GLU:543:C:4900, H-B:GLU:543:O:9875, V-B:GLY:544:C:9884, V-A:GLU:543:CG:4905, V-B:ASP:366:CA:8181, V-A:ASN:370:CA:3240"]

$$$$
RR11_Rahimova_2017-again2
     RDKit          3D

 57 62  0  0  0  0  0  0  0  0999 V2000
  133.1360  125.0390   55.9860 N   0  0  0  0  0  0  0  0  0  0  0  0
  132.0050  125.7420   56.3970 C   0  0  0  0  0  0  0  0  0  0  0  0
  132.0100  126.4120   57.6180 C   0  0  0  0  0  0  0  0  0  0  0  0
  130.8770  127.1100   58.0310 C   0  0  0  0  0  0  0  0  0  0  0  0
  129.7330  127.1400   57.2240 C   0  0  0  0  0  0  0  0  0  0  0  0
  128.5150  127.8800   57.6710 C   0  0  0  0  0  0  0  0  0  0  0  0
  128.2540  128.3470   58.9390 N   0  0  0  0  0  0  0  0  0  0  0  0
  127.0300  129.0020   58.9630 C   0  0  0  0  0  0  0  0  0  0  0  0
  126.3400  129.6460   59.9940 C   0  0  0  0  0  0  0  0  0  0  0  0
  125.1110  130.2330   59.6660 C   0  0  0  0  0  0  0  0  0  0  0  0
  124.3160  130.9540   60.7460 C   0  0  0  0  0  0  0  0  0  0  0  0
  125.0130  130.9410   62.0990 C   0  0  0  0  0  0  0  0  0  0  0  0
  125.4030  132.1510   62.6860 C   0  0  0  0  0  0  0  0  0  0  0  0
  126.0470  132.2030   63.9250 C   0  0  0  0  0  0  0  0  0  0  0  0
  126.2820  130.9810   64.5600 C   0  0  0  0  0  0  0  0  0  0  0  0
  126.8930  130.6700   65.7670 N   0  0  0  0  0  0  0  0  0  0  0  0
  126.8890  129.3080   65.9620 C   0  0  0  0  0  0  0  0  0  0  0  0
  127.4630  128.5660   67.1250 C   0  0  0  0  0  0  0  0  0  0  0  0
  128.7710  128.8230   67.5500 C   0  0  0  0  0  0  0  0  0  0  0  0
  129.3030  128.1390   68.6410 C   0  0  0  0  0  0  0  0  0  0  0  0
  128.5280  127.1960   69.3120 C   0  0  0  0  0  0  0  0  0  0  0  0
  129.0570  126.5150   70.4080 N   0  0  0  0  0  0  0  0  0  0  0  0
  127.2250  126.9290   68.8950 C   0  0  0  0  0  0  0  0  0  0  0  0
  126.6930  127.6140   67.8050 C   0  0  0  0  0  0  0  0  0  0  0  0
  126.2610  128.7620   64.8670 N   0  0  0  0  0  0  0  0  0  0  0  0
  125.8800  129.7650   63.9850 C   0  0  0  0  0  0  0  0  0  0  0  0
  125.2310  129.7190   62.7480 C   0  0  0  0  0  0  0  0  0  0  0  0
  124.5910  130.1480   58.3690 C   0  0  0  0  0  0  0  0  0  0  0  0
  125.2730  129.5000   57.3360 C   0  0  0  0  0  0  0  0  0  0  0  0
  126.5080  128.9320   57.6610 C   0  0  0  0  0  0  0  0  0  0  0  0
  127.4370  128.2390   56.8950 N   0  0  0  0  0  0  0  0  0  0  0  0
  129.7410  126.4670   55.9960 C   0  0  0  0  0  0  0  0  0  0  0  0
  130.8730  125.7690   55.5830 C   0  0  0  0  0  0  0  0  0  0  0  0
  133.0440  124.3100   55.2930 H   0  0  0  0  0  0  0  0  0  0  0  0
  134.0240  125.2190   56.4330 H   0  0  0  0  0  0  0  0  0  0  0  0
  132.9065  126.3902   58.2550 H   0  0  0  0  0  0  0  0  0  0  0  0
  130.8812  127.6397   58.9950 H   0  0  0  0  0  0  0  0  0  0  0  0
  128.8950  128.2140   59.7060 H   0  0  0  0  0  0  0  0  0  0  0  0
  126.7436  129.6899   61.0163 H   0  0  0  0  0  0  0  0  0  0  0  0
  124.1697  131.9992   60.4360 H   0  0  0  0  0  0  0  0  0  0  0  0
  123.3586  130.4249   60.8615 H   0  0  0  0  0  0  0  0  0  0  0  0
  125.1956  133.0914   62.1544 H   0  0  0  0  0  0  0  0  0  0  0  0
  126.3534  133.1577   64.3774 H   0  0  0  0  0  0  0  0  0  0  0  0
  127.2990  131.3100   66.4340 H   0  0  0  0  0  0  0  0  0  0  0  0
  129.3822  129.5686   67.0203 H   0  0  0  0  0  0  0  0  0  0  0  0
  130.3321  128.3431   68.9715 H   0  0  0  0  0  0  0  0  0  0  0  0
  130.0410  126.5980   70.6180 H   0  0  0  0  0  0  0  0  0  0  0  0
  128.4650  125.8950   70.9400 H   0  0  0  0  0  0  0  0  0  0  0  0
  126.6187  126.1797   69.4250 H   0  0  0  0  0  0  0  0  0  0  0  0
  125.6638  127.4064   67.4769 H   0  0  0  0  0  0  0  0  0  0  0  0
  126.1260  127.7660   64.7610 H   0  0  0  0  0  0  0  0  0  0  0  0
  124.9062  128.7663   62.3042 H   0  0  0  0  0  0  0  0  0  0  0  0
  123.6139  130.6062   58.1563 H   0  0  0  0  0  0  0  0  0  0  0  0
  124.8590  129.4399   56.3187 H   0  0  0  0  0  0  0  0  0  0  0  0
  127.3790  128.0130   55.9130 H   0  0  0  0  0  0  0  0  0  0  0  0
  128.8481  126.4898   55.3540 H   0  0  0  0  0  0  0  0  0  0  0  0
  130.8743  125.2408   54.6181 H   0  0  0  0  0  0  0  0  0  0  0  0
  1  2  1  0
  2  3  2  0
  3  4  1  0
  4  5  2  0
  5  6  1  0
  6  7  1  0
  7  8  1  0
  8  9  2  0
  9 10  1  0
 10 11  1  0
 11 12  1  0
 12 13  2  0
 13 14  1  0
 14 15  2  0
 15 16  1  0
 16 17  1  0
 17 18  1  0
 18 19  2  0
 19 20  1  0
 20 21  2  0
 21 22  1  0
 21 23  1  0
 23 24  2  0
 17 25  2  0
 25 26  1  0
 26 27  2  0
 10 28  2  0
 28 29  1  0
 29 30  2  0
 30 31  1  0
  5 32  1  0
 32 33  2  0
 33  2  1  0
 31  6  2  0
 30  8  1  0
 27 12  1  0
 26 15  1  0
 24 18  1  0
  1 34  1  0
  1 35  1  0
  3 36  1  0
  4 37  1  0
  7 38  1  0
  9 39  1  0
 11 40  1  0
 11 41  1  0
 13 42  1  0
 14 43  1  0
 16 44  1  0
 19 45  1  0
 20 46  1  0
 22 47  1  0
 22 48  1  0
 23 49  1  0
 24 50  1  0
 25 51  1  0
 27 52  1  0
 28 53  1  0
 29 54  1  0
 31 55  1  0
 32 56  1  0
 33 57  1  0
M  CHG  2  25   1  31   1
M  END
>  <Binding energies>  (1) 
[-8.68]

>  <Ligand effiencies>  (1) 
[-0.21170731707317073]

>  <Interactions>  (1) 
["V-B:HIS:456:CE1:9040, V-A:HIS:456:CD2:4065, V-A:HIS:456:CE1:4066, V-B:GLU:543:CG:9879, V-B:ASP:366:CG:8184, V-B:GLU:543:CB:9878, V-B:GLU:543:CD:9880, H-B:GLU:543:OE2:9882, V-B:ARG:545:CZ:9898, V-A:ASP:366:CG:3210, H-B:GLU:543:OE1:9881, V-B:ASP:366:CB:8183, H-A:GLU:543:OE1:4907, H-B:TYR:531:OH:9767, V-A:GLU:543:CD:4906, V-B:LEU:475:CD2:9230, V-B:ARG:545:CG:9894, V-B:TYR:539:CZ:9849, V-A:TYR:531:CZ:4792, H-B:TYR:484:OH:9319, V-B:MET:535:CE:9807, V-B:TYR:484:CZ:9318, V-A:GLU:543:CB:4904, V-B:TYR:484:CE2:9317, V-B:TYR:531:CZ:9766, V-A:ASP:366:C:3205, V-A:ASP:366:CB:3209, H-B:TYR:539:OH:9850, V-A:ASN:370:CG:3243, V-A:ASN:370:CB:3242, V-A:TYR:531:CE1:4790, H-A:ASP:366:O:3206, V-B:GLU:543:C:9874, V-A:GLU:543:C:4900, H-B:GLU:543:O:9875, V-B:GLY:544:C:9884, V-A:GLU:543:CG:4905, V-B:ASP:366:CA:8181, H-A:HIS:456:ND1:4064, V-A:ASN:370:CA:3240"]

$$$$
RR12_Rahimova_2017
     RDKit          3D

 51 53  0  0  0  0  0  0  0  0999 V2000
  131.2220  122.7730   63.7070 C   0  0  0  0  0  0  0  0  0  0  0  0
  129.9780  122.7380   62.8100 C   0  0  0  0  0  0  0  0  0  0  0  0
  130.3270  122.7790   61.3110 C   0  0  0  0  0  0  0  0  0  0  0  0
  131.4870  121.9370   61.0270 N   0  0  0  0  0  0  0  0  0  0  0  0
  132.7800  122.3500   60.7450 C   0  0  0  0  0  0  0  0  0  0  0  0
  133.2010  123.8060   60.6380 C   0  0  0  0  0  0  0  0  0  0  0  0
  133.3290  124.2740   59.1770 C   0  0  0  0  0  0  0  0  0  0  0  0
  132.2390  125.2880   58.7800 C   0  0  0  0  0  0  0  0  0  0  0  0
  131.1700  124.7170   57.9610 N   0  0  0  0  0  0  0  0  0  0  0  0
  130.9370  125.0230   56.6720 C   0  0  0  0  0  0  0  0  0  0  0  0
  131.6130  125.8360   56.0380 O   0  0  0  0  0  0  0  0  0  0  0  0
  129.7620  124.2860   56.0170 C   0  0  0  0  0  0  0  0  0  0  0  0
  129.2060  123.3550   56.9460 O   0  0  0  0  0  0  0  0  0  0  0  0
  127.8330  123.2810   57.0910 C   0  0  0  0  0  0  0  0  0  0  0  0
  127.3270  123.5760   58.3590 C   0  0  0  0  0  0  0  0  0  0  0  0
  125.9560  123.5320   58.6010 C   0  0  0  0  0  0  0  0  0  0  0  0
  125.0850  123.1910   57.5700 C   0  0  0  0  0  0  0  0  0  0  0  0
  125.5730  122.8920   56.3000 C   0  0  0  0  0  0  0  0  0  0  0  0
  126.9440  122.9360   56.0590 C   0  0  0  0  0  0  0  0  0  0  0  0
  133.6140  121.3570   60.5590 N   0  0  0  0  0  0  0  0  0  0  0  0
  132.8640  120.2290   60.7470 C   0  0  0  0  0  0  0  0  0  0  0  0
  133.2590  118.8840   60.6800 C   0  0  0  0  0  0  0  0  0  0  0  0
  132.2960  117.9040   60.9210 C   0  0  0  0  0  0  0  0  0  0  0  0
  130.9760  118.2420   61.2200 C   0  0  0  0  0  0  0  0  0  0  0  0
  130.5510  119.5700   61.2930 C   0  0  0  0  0  0  0  0  0  0  0  0
  131.5180  120.5550   61.0500 C   0  0  0  0  0  0  0  0  0  0  0  0
  130.9132  122.7643   64.7627 H   0  0  0  0  0  0  0  0  0  0  0  0
  131.8477  121.8921   63.5007 H   0  0  0  0  0  0  0  0  0  0  0  0
  131.7972  123.6877   63.5007 H   0  0  0  0  0  0  0  0  0  0  0  0
  129.4207  121.8124   63.0167 H   0  0  0  0  0  0  0  0  0  0  0  0
  129.3787  123.6320   63.0369 H   0  0  0  0  0  0  0  0  0  0  0  0
  129.4665  122.4159   60.7299 H   0  0  0  0  0  0  0  0  0  0  0  0
  130.5661  123.8158   61.0320 H   0  0  0  0  0  0  0  0  0  0  0  0
  132.4490  124.4293   61.1440 H   0  0  0  0  0  0  0  0  0  0  0  0
  134.1898  123.9048   61.1097 H   0  0  0  0  0  0  0  0  0  0  0  0
  134.3138  124.7456   59.0435 H   0  0  0  0  0  0  0  0  0  0  0  0
  133.2108  123.3899   58.5333 H   0  0  0  0  0  0  0  0  0  0  0  0
  131.7920  125.6940   59.6994 H   0  0  0  0  0  0  0  0  0  0  0  0
  132.7290  126.0625   58.1717 H   0  0  0  0  0  0  0  0  0  0  0  0
  130.5750  124.0380   58.4140 H   0  0  0  0  0  0  0  0  0  0  0  0
  128.9917  125.0136   55.7217 H   0  0  0  0  0  0  0  0  0  0  0  0
  130.1181  123.7469   55.1267 H   0  0  0  0  0  0  0  0  0  0  0  0
  128.0165  123.8451   59.1727 H   0  0  0  0  0  0  0  0  0  0  0  0
  125.5635  123.7655   59.6017 H   0  0  0  0  0  0  0  0  0  0  0  0
  124.0020  123.1574   57.7598 H   0  0  0  0  0  0  0  0  0  0  0  0
  124.8784  122.6223   55.4908 H   0  0  0  0  0  0  0  0  0  0  0  0
  127.3322  122.6998   55.0573 H   0  0  0  0  0  0  0  0  0  0  0  0
  134.2980  118.6105   60.4442 H   0  0  0  0  0  0  0  0  0  0  0  0
  132.5833  116.8432   60.8743 H   0  0  0  0  0  0  0  0  0  0  0  0
  130.2480  117.4381   61.4038 H   0  0  0  0  0  0  0  0  0  0  0  0
  129.5087  119.8303   61.5295 H   0  0  0  0  0  0  0  0  0  0  0  0
  1  2  1  0
  2  3  1  0
  3  4  1  0
  4  5  1  0
  5  6  1  0
  6  7  1  0
  7  8  1  0
  8  9  1  0
  9 10  1  0
 10 11  2  0
 10 12  1  0
 12 13  1  0
 13 14  1  0
 14 15  2  0
 15 16  1  0
 16 17  2  0
 17 18  1  0
 18 19  2  0
  5 20  2  0
 20 21  1  0
 21 22  2  0
 22 23  1  0
 23 24  2  0
 24 25  1  0
 25 26  2  0
 26  4  1  0
 19 14  1  0
 26 21  1  0
  1 27  1  0
  1 28  1  0
  1 29  1  0
  2 30  1  0
  2 31  1  0
  3 32  1  0
  3 33  1  0
  6 34  1  0
  6 35  1  0
  7 36  1  0
  7 37  1  0
  8 38  1  0
  8 39  1  0
  9 40  1  0
 12 41  1  0
 12 42  1  0
 15 43  1  0
 16 44  1  0
 17 45  1  0
 18 46  1  0
 19 47  1  0
 22 48  1  0
 23 49  1  0
 24 50  1  0
 25 51  1  0
M  END
>  <Binding energies>  (1) 
[-7.26]

>  <Ligand effiencies>  (1) 
[-0.2688888888888889]

>  <Interactions>  (1) 
["V-A:LEU:475:CD2:4256, V-B:TYR:539:CD1:9845, V-B:TYR:539:CE1:9847, V-B:PRO:540:CB:9857, V-B:PRO:540:CA:9855, V-B:ALA:541:CB:9864, V-A:ASP:366:CG:3210, V-B:PRO:540:N:9856, V-B:TYR:539:CE2:9848, V-B:ILE:538:CB:9834, V-B:PRO:540:CD:9859, V-B:TYR:539:CZ:9849, V-B:ILE:538:CG2:9835, V-B:ILE:538:CA:9832, V-B:MET:535:CE:9807, V-A:ILE:369:CG2:3234, H-A:TYR:531:OH:4793, V-A:LEU:373:CD1:3277, V-A:PRO:482:CG:4324, V-A:SER:385:CA:3404, V-A:SER:385:CB:3406, V-A:PRO:482:CB:4323, V-A:ASP:366:CB:3209, V-A:ASP:366:CA:3207, H-B:TYR:539:OH:9850, V-B:LEU:363:CD1:8160"]

$$$$
RR13_Rahimova_2017
     RDKit          3D

 84 90  0  0  0  0  0  0  0  0999 V2000
  128.3600  123.1100   60.7000 Cl  0  0  0  0  0  0  0  0  0  0  0  0
  128.6270  123.3750   59.0100 C   0  0  0  0  0  0  0  0  0  0  0  0
  127.7590  122.7550   58.1080 C   0  0  0  0  0  0  0  0  0  0  0  0
  127.9340  122.9110   56.7360 C   0  0  0  0  0  0  0  0  0  0  0  0
  128.9840  123.6900   56.2550 C   0  0  0  0  0  0  0  0  0  0  0  0
  129.8540  124.3120   57.1480 C   0  0  0  0  0  0  0  0  0  0  0  0
  129.6860  124.1760   58.5360 C   0  0  0  0  0  0  0  0  0  0  0  0
  130.6800  124.8560   59.5040 C   0  0  1  0  0  0  0  0  0  0  0  0
  132.1290  124.4800   59.1610 C   0  0  0  0  0  0  0  0  0  0  0  0
  132.7380  124.6690   58.0110 N   0  0  0  0  0  0  0  0  0  0  0  0
  134.0190  124.1480   58.1680 N   0  0  0  0  0  0  0  0  0  0  0  0
  134.1640  123.6220   59.4360 N   0  0  0  0  0  0  0  0  0  0  0  0
  132.9780  123.8160   60.0210 N   0  0  0  0  0  0  0  0  0  0  0  0
  132.7630  123.4150   61.4060 C   0  0  0  0  0  0  0  0  0  0  0  0
  131.4670  122.5920   61.5290 C   0  0  0  0  0  0  0  0  0  0  0  0
  131.6880  121.1200   61.2170 C   0  0  0  0  0  0  0  0  0  0  0  0
  132.9370  120.6830   60.7680 C   0  0  0  0  0  0  0  0  0  0  0  0
  133.1370  119.3370   60.4750 C   0  0  0  0  0  0  0  0  0  0  0  0
  132.0880  118.4330   60.6320 C   0  0  0  0  0  0  0  0  0  0  0  0
  130.8410  118.8630   61.0780 C   0  0  0  0  0  0  0  0  0  0  0  0
  130.6400  120.2100   61.3710 C   0  0  0  0  0  0  0  0  0  0  0  0
  130.4870  126.3210   59.6140 N   0  0  0  0  0  0  0  0  0  0  0  0
  130.8950  126.7980   60.9490 C   0  0  0  0  0  0  0  0  0  0  0  0
  130.8230  128.3400   61.0270 C   0  0  0  0  0  0  0  0  0  0  0  0
  129.4460  128.8080   60.7980 N   0  0  0  0  0  0  0  0  0  0  0  0
  129.3140  130.2760   60.9450 C   0  0  1  0  0  0  0  0  0  0  0  0
  128.3190  130.7500   62.0270 C   0  0  0  0  0  0  0  0  0  0  0  0
  127.8330  129.7830   62.9180 C   0  0  0  0  0  0  0  0  0  0  0  0
  126.9450  130.1240   63.9370 C   0  0  0  0  0  0  0  0  0  0  0  0
  126.5230  131.4420   64.0780 C   0  0  0  0  0  0  0  0  0  0  0  0
  126.9800  132.4150   63.1940 C   0  0  0  0  0  0  0  0  0  0  0  0
  127.8680  132.0840   62.1660 C   0  0  0  0  0  0  0  0  0  0  0  0
  128.3240  133.3510   61.0770 Cl  0  0  0  0  0  0  0  0  0  0  0  0
  130.6580  130.9860   61.1190 C   0  0  0  0  0  0  0  0  0  0  0  0
  131.0740  131.5700   62.2190 N   0  0  0  0  0  0  0  0  0  0  0  0
  132.3440  132.0630   61.9340 N   0  0  0  0  0  0  0  0  0  0  0  0
  132.6920  131.7490   60.6360 N   0  0  0  0  0  0  0  0  0  0  0  0
  131.6450  131.0650   60.1590 N   0  0  0  0  0  0  0  0  0  0  0  0
  131.6540  130.5820   58.7830 C   0  0  0  0  0  0  0  0  0  0  0  0
  131.6910  131.7660   57.7990 C   0  0  0  0  0  0  0  0  0  0  0  0
  130.3980  131.8960   57.0090 C   0  0  0  0  0  0  0  0  0  0  0  0
  130.3730  132.6450   55.8290 C   0  0  0  0  0  0  0  0  0  0  0  0
  129.1910  132.7580   55.1020 C   0  0  0  0  0  0  0  0  0  0  0  0
  128.0360  132.1230   55.5580 C   0  0  0  0  0  0  0  0  0  0  0  0
  128.0560  131.3740   56.7350 C   0  0  0  0  0  0  0  0  0  0  0  0
  129.2370  131.2600   57.4610 C   0  0  0  0  0  0  0  0  0  0  0  0
  129.0440  128.3350   59.4610 C   0  0  0  0  0  0  0  0  0  0  0  0
  129.1080  126.7910   59.3920 C   0  0  0  0  0  0  0  0  0  0  0  0
  126.9300  122.1382   58.4853 H   0  0  0  0  0  0  0  0  0  0  0  0
  127.2447  122.4203   56.0331 H   0  0  0  0  0  0  0  0  0  0  0  0
  129.1261  123.8139   55.1713 H   0  0  0  0  0  0  0  0  0  0  0  0
  130.6853  124.9190   56.7601 H   0  0  0  0  0  0  0  0  0  0  0  0
  130.4601  124.4629   60.5076 H   0  0  0  0  0  0  0  0  0  0  0  0
  133.6138  122.8048   61.7434 H   0  0  0  0  0  0  0  0  0  0  0  0
  132.6750  124.3166   62.0301 H   0  0  0  0  0  0  0  0  0  0  0  0
  131.0863  122.6827   62.5570 H   0  0  0  0  0  0  0  0  0  0  0  0
  130.7461  122.9870   60.7981 H   0  0  0  0  0  0  0  0  0  0  0  0
  133.7609  121.4016   60.6463 H   0  0  0  0  0  0  0  0  0  0  0  0
  134.1185  118.9885   60.1212 H   0  0  0  0  0  0  0  0  0  0  0  0
  132.2467  117.3692   60.4013 H   0  0  0  0  0  0  0  0  0  0  0  0
  130.0185  118.1425   61.1984 H   0  0  0  0  0  0  0  0  0  0  0  0
  129.6571  120.5563   61.7232 H   0  0  0  0  0  0  0  0  0  0  0  0
  130.2239  126.3669   61.7065 H   0  0  0  0  0  0  0  0  0  0  0  0
  131.9329  126.4839   61.1334 H   0  0  0  0  0  0  0  0  0  0  0  0
  131.1548  128.6672   62.0234 H   0  0  0  0  0  0  0  0  0  0  0  0
  131.4752  128.7647   60.2496 H   0  0  0  0  0  0  0  0  0  0  0  0
  128.8776  130.5730   59.9800 H   0  0  0  0  0  0  0  0  0  0  0  0
  128.1578  128.7375   62.8113 H   0  0  0  0  0  0  0  0  0  0  0  0
  126.5783  129.3516   64.6290 H   0  0  0  0  0  0  0  0  0  0  0  0
  125.8292  131.7148   64.8869 H   0  0  0  0  0  0  0  0  0  0  0  0
  126.6391  133.4549   63.3052 H   0  0  0  0  0  0  0  0  0  0  0  0
  132.5419  129.9521   58.6257 H   0  0  0  0  0  0  0  0  0  0  0  0
  130.7395  129.9975   58.6039 H   0  0  0  0  0  0  0  0  0  0  0  0
  131.8541  132.6938   58.3669 H   0  0  0  0  0  0  0  0  0  0  0  0
  132.5073  131.5860   57.0840 H   0  0  0  0  0  0  0  0  0  0  0  0
  131.2867  133.1448   55.4750 H   0  0  0  0  0  0  0  0  0  0  0  0
  129.1682  133.3454   54.1722 H   0  0  0  0  0  0  0  0  0  0  0  0
  127.1014  132.2134   54.9849 H   0  0  0  0  0  0  0  0  0  0  0  0
  127.1411  130.8754   57.0876 H   0  0  0  0  0  0  0  0  0  0  0  0
  129.2579  130.6704   58.3894 H   0  0  0  0  0  0  0  0  0  0  0  0
  128.0150  128.6645   59.2545 H   0  0  0  0  0  0  0  0  0  0  0  0
  129.7330  128.7539   58.7128 H   0  0  0  0  0  0  0  0  0  0  0  0
  128.4519  126.3666   60.1662 H   0  0  0  0  0  0  0  0  0  0  0  0
  128.7775  126.4655   58.3946 H   0  0  0  0  0  0  0  0  0  0  0  0
  1  2  1  0
  2  3  2  0
  3  4  1  0
  4  5  2  0
  5  6  1  0
  6  7  2  0
  7  8  1  0
  8  9  1  0
  9 10  2  0
 10 11  1  0
 11 12  2  0
 12 13  1  0
 13 14  1  0
 14 15  1  0
 15 16  1  0
 16 17  2  0
 17 18  1  0
 18 19  2  0
 19 20  1  0
 20 21  2  0
  8 22  1  0
 22 23  1  0
 23 24  1  0
 24 25  1  0
 25 26  1  0
 26 27  1  0
 27 28  2  0
 28 29  1  0
 29 30  2  0
 30 31  1  0
 31 32  2  0
 32 33  1  0
 26 34  1  0
 34 35  2  0
 35 36  1  0
 36 37  2  0
 37 38  1  0
 38 39  1  0
 39 40  1  0
 40 41  1  0
 41 42  2  0
 42 43  1  0
 43 44  2  0
 44 45  1  0
 45 46  2  0
 25 47  1  0
 47 48  1  0
  7  2  1  0
 13  9  1  0
 21 16  1  0
 48 22  1  0
 32 27  1  0
 38 34  1  0
 46 41  1  0
  3 49  1  0
  4 50  1  0
  5 51  1  0
  6 52  1  0
  8 53  1  1
 14 54  1  0
 14 55  1  0
 15 56  1  0
 15 57  1  0
 17 58  1  0
 18 59  1  0
 19 60  1  0
 20 61  1  0
 21 62  1  0
 23 63  1  0
 23 64  1  0
 24 65  1  0
 24 66  1  0
 26 67  1  6
 28 68  1  0
 29 69  1  0
 30 70  1  0
 31 71  1  0
 39 72  1  0
 39 73  1  0
 40 74  1  0
 40 75  1  0
 42 76  1  0
 43 77  1  0
 44 78  1  0
 45 79  1  0
 46 80  1  0
 47 81  1  0
 47 82  1  0
 48 83  1  0
 48 84  1  0
M  END
>  <Binding energies>  (1) 
[-14.07]

>  <Ligand effiencies>  (1) 
[-0.293125]

>  <Interactions>  (1) 
["V-A:LEU:475:CD2:4256, V-B:TYR:539:CD1:9845, V-B:TYR:539:C:9839, V-B:TYR:539:CE1:9847, V-B:PRO:540:CA:9855, V-B:ALA:541:CB:9864, V-A:ASP:366:CG:3210, V-B:PRO:540:N:9856, V-A:GLU:543:CD:4906, V-A:TYR:539:CE1:4873, V-B:LEU:475:CD2:9230, V-A:TYR:539:C:4865, V-A:ALA:541:CB:4890, V-A:PRO:540:CA:4881, V-A:TYR:539:CD1:4871, V-A:PRO:540:CB:4883, V-A:PRO:540:N:4882, V-A:ILE:538:CA:4858, V-A:ILE:538:C:4856, V-B:TYR:539:CE2:9848, V-A:ILE:538:CB:4860, V-A:MET:535:CE:4833, V-B:TYR:539:CZ:9849, V-A:ILE:538:CG2:4861, V-B:MET:535:CE:9807, V-A:ILE:369:CG2:3234, V-A:LEU:373:CD1:3277, V-A:PRO:482:CG:4324, V-A:SER:385:CA:3404, V-A:SER:385:CB:3406, V-A:PRO:482:CB:4323, V-A:TYR:539:CD2:4872, V-A:TYR:539:CE2:4874, V-A:TYR:539:CZ:4875, H-B:TYR:539:OH:9850, H-A:ALA:541:N:4889"]

$$$$
RR14_Rahimova_2017
     RDKit          3D

 76 80  0  0  0  0  0  0  0  0999 V2000
  128.7480  122.6940   54.8210 C   0  0  0  0  0  0  0  0  0  0  0  0
  127.3420  122.8940   54.7300 O   0  0  0  0  0  0  0  0  0  0  0  0
  126.6070  123.0440   55.8900 C   0  0  0  0  0  0  0  0  0  0  0  0
  125.2960  123.4980   55.7420 C   0  0  0  0  0  0  0  0  0  0  0  0
  124.4870  123.7030   56.8560 C   0  0  0  0  0  0  0  0  0  0  0  0
  124.9890  123.4590   58.1370 C   0  0  0  0  0  0  0  0  0  0  0  0
  124.1280  123.7440   59.3620 C   0  0  0  0  0  0  0  0  0  0  0  0
  124.8810  123.7200   60.6160 N   0  0  0  0  0  0  0  0  0  0  0  0
  124.5200  122.8960   61.6060 N   0  0  0  0  0  0  0  0  0  0  0  0
  125.4150  123.1590   62.6250 N   0  0  0  0  0  0  0  0  0  0  0  0
  126.3070  124.1520   62.2340 N   0  0  0  0  0  0  0  0  0  0  0  0
  125.9590  124.4830   61.0120 C   0  0  0  0  0  0  0  0  0  0  0  0
  126.6330  125.5550   60.1680 C   0  0  0  0  0  0  0  0  0  0  0  0
  128.0240  125.2120   59.8290 N   0  0  0  0  0  0  0  0  0  0  0  0
  128.6630  126.2530   59.0130 C   0  0  0  0  0  0  0  0  0  0  0  0
  127.9300  126.5240   57.6810 C   0  0  0  0  0  0  0  0  0  0  0  0
  127.7010  128.0230   57.3930 C   0  0  0  0  0  0  0  0  0  0  0  0
  126.4680  128.5470   57.9910 N   0  0  0  0  0  0  0  0  0  0  0  0
  125.7120  129.3250   57.0020 C   0  0  0  0  0  0  0  0  0  0  0  0
  124.4330  129.9350   57.6140 C   0  0  0  0  0  0  0  0  0  0  0  0
  124.7610  130.7010   58.7680 O   0  0  0  0  0  0  0  0  0  0  0  0
  125.3930  129.9180   59.7740 C   0  0  0  0  0  0  0  0  0  0  0  0
  126.7020  129.3090   59.2270 C   0  0  0  0  0  0  0  0  0  0  0  0
  128.7990  124.9720   61.0550 C   0  0  0  0  0  0  0  0  0  0  0  0
  129.6280  123.6890   61.0840 C   0  0  0  0  0  0  0  0  0  0  0  0
  130.9820  123.7320   61.1290 C   0  0  0  0  0  0  0  0  0  0  0  0
  131.8080  122.5080   61.1170 C   0  0  0  0  0  0  0  0  0  0  0  0
  133.2110  122.5150   61.1830 C   0  0  0  0  0  0  0  0  0  0  0  0
  134.0000  123.8150   61.2730 C   0  0  0  0  0  0  0  0  0  0  0  0
  133.8990  121.2980   61.1680 C   0  0  0  0  0  0  0  0  0  0  0  0
  133.2070  120.0910   61.0900 C   0  0  0  0  0  0  0  0  0  0  0  0
  131.8100  120.0730   61.0260 C   0  0  0  0  0  0  0  0  0  0  0  0
  131.0830  118.7370   60.9440 C   0  0  0  0  0  0  0  0  0  0  0  0
  131.1100  121.2890   61.0410 C   0  0  0  0  0  0  0  0  0  0  0  0
  129.7010  121.3200   60.9760 N   0  0  0  0  0  0  0  0  0  0  0  0
  128.9040  122.4180   60.9830 C   0  0  0  0  0  0  0  0  0  0  0  0
  127.6810  122.3010   60.9060 O   0  0  0  0  0  0  0  0  0  0  0  0
  126.2890  122.9760   58.2930 C   0  0  0  0  0  0  0  0  0  0  0  0
  127.0970  122.7730   57.1780 C   0  0  0  0  0  0  0  0  0  0  0  0
  129.0446  122.6518   55.8794 H   0  0  0  0  0  0  0  0  0  0  0  0
  129.0166  121.7486   54.3270 H   0  0  0  0  0  0  0  0  0  0  0  0
  129.2696  123.5270   54.3270 H   0  0  0  0  0  0  0  0  0  0  0  0
  124.8981  123.6957   54.7357 H   0  0  0  0  0  0  0  0  0  0  0  0
  123.4533  124.0568   56.7280 H   0  0  0  0  0  0  0  0  0  0  0  0
  123.6742  124.7393   59.2461 H   0  0  0  0  0  0  0  0  0  0  0  0
  123.3710  122.9481   59.4209 H   0  0  0  0  0  0  0  0  0  0  0  0
  126.0630  125.6804   59.2356 H   0  0  0  0  0  0  0  0  0  0  0  0
  126.6513  126.4833   60.7579 H   0  0  0  0  0  0  0  0  0  0  0  0
  128.6863  127.1865   59.5944 H   0  0  0  0  0  0  0  0  0  0  0  0
  129.6721  125.8947   58.7614 H   0  0  0  0  0  0  0  0  0  0  0  0
  128.5300  126.1007   56.8620 H   0  0  0  0  0  0  0  0  0  0  0  0
  126.9375  126.0562   57.7591 H   0  0  0  0  0  0  0  0  0  0  0  0
  128.5530  128.5901   57.7961 H   0  0  0  0  0  0  0  0  0  0  0  0
  127.6074  128.1347   56.3027 H   0  0  0  0  0  0  0  0  0  0  0  0
  126.3497  130.1380   56.6246 H   0  0  0  0  0  0  0  0  0  0  0  0
  125.4140  128.6482   56.1876 H   0  0  0  0  0  0  0  0  0  0  0  0
  123.9485  130.5855   56.8710 H   0  0  0  0  0  0  0  0  0  0  0  0
  123.7492  129.1232   57.9028 H   0  0  0  0  0  0  0  0  0  0  0  0
  125.6224  130.5553   60.6407 H   0  0  0  0  0  0  0  0  0  0  0  0
  124.7162  129.1052   60.0762 H   0  0  0  0  0  0  0  0  0  0  0  0
  127.4133  130.1213   59.0166 H   0  0  0  0  0  0  0  0  0  0  0  0
  127.1051  128.6211   59.9848 H   0  0  0  0  0  0  0  0  0  0  0  0
  129.4867  125.8199   61.1896 H   0  0  0  0  0  0  0  0  0  0  0  0
  128.0558  124.8626   61.8585 H   0  0  0  0  0  0  0  0  0  0  0  0
  131.4819  124.7107   61.1760 H   0  0  0  0  0  0  0  0  0  0  0  0
  134.1581  124.0755   62.3299 H   0  0  0  0  0  0  0  0  0  0  0  0
  134.9736  123.6881   60.7770 H   0  0  0  0  0  0  0  0  0  0  0  0
  133.4380  124.6201   60.7770 H   0  0  0  0  0  0  0  0  0  0  0  0
  134.9978  121.2932   61.2183 H   0  0  0  0  0  0  0  0  0  0  0  0
  133.7650  119.1431   61.0787 H   0  0  0  0  0  0  0  0  0  0  0  0
  130.8813  118.3664   61.9598 H   0  0  0  0  0  0  0  0  0  0  0  0
  130.1324  118.8692   60.4065 H   0  0  0  0  0  0  0  0  0  0  0  0
  131.7102  118.0106   60.4065 H   0  0  0  0  0  0  0  0  0  0  0  0
  129.2070  120.4440   60.9110 H   0  0  0  0  0  0  0  0  0  0  0  0
  126.6758  122.7554   59.2989 H   0  0  0  0  0  0  0  0  0  0  0  0
  128.1234  122.3988   57.3061 H   0  0  0  0  0  0  0  0  0  0  0  0
  1  2  1  0
  2  3  1  0
  3  4  2  0
  4  5  1  0
  5  6  2  0
  6  7  1  0
  7  8  1  0
  8  9  1  0
  9 10  2  0
 10 11  1  0
 11 12  2  0
 12 13  1  0
 13 14  1  0
 14 15  1  0
 15 16  1  0
 16 17  1  0
 17 18  1  0
 18 19  1  0
 19 20  1  0
 20 21  1  0
 21 22  1  0
 22 23  1  0
 14 24  1  0
 24 25  1  0
 25 26  2  0
 26 27  1  0
 27 28  2  0
 28 29  1  0
 28 30  1  0
 30 31  2  0
 31 32  1  0
 32 33  1  0
 32 34  2  0
 34 35  1  0
 35 36  1  0
 36 37  2  0
  6 38  1  0
 38 39  2  0
 39  3  1  0
 12  8  1  0
 23 18  1  0
 36 25  1  0
 34 27  1  0
  1 40  1  0
  1 41  1  0
  1 42  1  0
  4 43  1  0
  5 44  1  0
  7 45  1  0
  7 46  1  0
 13 47  1  0
 13 48  1  0
 15 49  1  0
 15 50  1  0
 16 51  1  0
 16 52  1  0
 17 53  1  0
 17 54  1  0
 19 55  1  0
 19 56  1  0
 20 57  1  0
 20 58  1  0
 22 59  1  0
 22 60  1  0
 23 61  1  0
 23 62  1  0
 24 63  1  0
 24 64  1  0
 26 65  1  0
 29 66  1  0
 29 67  1  0
 29 68  1  0
 30 69  1  0
 31 70  1  0
 33 71  1  0
 33 72  1  0
 33 73  1  0
 35 74  1  0
 38 75  1  0
 39 76  1  0
M  END
>  <Binding energies>  (1) 
[-10.38]

>  <Ligand effiencies>  (1) 
[-0.2595]

>  <Interactions>  (1) 
["V-A:LEU:475:CD2:4256, V-B:TYR:539:CD1:9845, V-B:TYR:539:C:9839, V-B:ASP:366:CG:8184, H-B:TYR:539:O:9840, V-B:TYR:539:CE1:9847, V-B:PRO:540:CB:9857, V-B:PRO:540:CA:9855, V-B:ALA:541:CB:9864, V-B:ASP:366:CB:8183, V-B:PRO:540:N:9856, H-B:TYR:531:OH:9767, V-A:ILE:369:CD1:3236, H-B:ARG:545:NH2:9900, V-B:TYR:539:CE2:9848, V-B:ILE:538:CB:9834, V-B:TYR:539:CD2:9846, V-B:PRO:540:CD:9859, V-B:TYR:539:CZ:9849, V-B:ILE:538:CG2:9835, V-B:ILE:538:CA:9832, V-B:MET:535:CE:9807, V-A:ILE:369:CG2:3234, V-A:PRO:482:CG:4324, V-A:SER:385:CA:3404, V-B:TYR:531:CZ:9766, V-B:TYR:531:CE1:9764, H-B:ALA:541:N:9863, V-B:TYR:531:CE2:9765, V-B:LEU:363:CD1:8160, H-A:TYR:539:OH:4876, V-B:ASP:366:CA:8181, V-B:ASP:366:C:8179, V-B:LEU:363:CA:8156"]

$$$$
RR15_Rahimova_2017
     RDKit          3D

 85 89  0  0  0  0  0  0  0  0999 V2000
  133.5100  118.8550   60.3890 C   0  0  0  0  0  0  0  0  0  0  0  0
  133.5180  120.2340   60.7450 O   0  0  0  0  0  0  0  0  0  0  0  0
  132.3170  120.9060   60.8920 C   0  0  0  0  0  0  0  0  0  0  0  0
  131.0980  120.2690   61.1720 C   0  0  0  0  0  0  0  0  0  0  0  0
  129.9240  121.0060   61.3060 C   0  0  0  0  0  0  0  0  0  0  0  0
  129.9320  122.3970   61.1630 C   0  0  0  0  0  0  0  0  0  0  0  0
  128.6620  123.1910   61.3010 C   0  0  0  0  0  0  0  0  0  0  0  0
  127.6020  122.7460   61.9610 N   0  0  0  0  0  0  0  0  0  0  0  0
  126.6470  123.7370   61.8620 N   0  0  0  0  0  0  0  0  0  0  0  0
  127.2640  124.7010   61.1760 N   0  0  0  0  0  0  0  0  0  0  0  0
  126.5550  125.8870   60.7000 C   0  0  0  0  0  0  0  0  0  0  0  0
  127.2970  127.2260   60.9390 C   0  0  0  0  0  0  0  0  0  0  0  0
  128.0160  127.3240   61.9360 O   0  0  0  0  0  0  0  0  0  0  0  0
  127.1650  128.2440   60.0340 N   0  0  0  0  0  0  0  0  0  0  0  0
  126.9050  127.9740   58.6060 C   0  0  0  0  0  0  0  0  0  0  0  0
  128.0800  127.2770   57.8860 C   0  0  0  0  0  0  0  0  0  0  0  0
  127.6620  126.2230   56.8320 C   0  0  0  0  0  0  0  0  0  0  0  0
  127.3810  124.9010   57.4000 N   0  0  0  0  0  0  0  0  0  0  0  0
  126.1790  124.2650   56.8400 C   0  0  0  0  0  0  0  0  0  0  0  0
  125.9770  122.8420   57.4060 C   0  0  0  0  0  0  0  0  0  0  0  0
  127.1480  122.0600   57.1980 O   0  0  0  0  0  0  0  0  0  0  0  0
  128.2940  122.6210   57.8270 C   0  0  0  0  0  0  0  0  0  0  0  0
  128.5610  124.0360   57.2700 C   0  0  0  0  0  0  0  0  0  0  0  0
  127.0770  129.6850   60.4250 C   0  0  2  0  0  0  0  0  0  0  0  0
  128.3890  130.4930   60.1770 C   0  0  0  0  0  0  0  0  0  0  0  0
  129.4680  130.1080   60.6270 O   0  0  0  0  0  0  0  0  0  0  0  0
  128.2580  131.5950   59.4170 N   0  0  0  0  0  0  0  0  0  0  0  0
  129.3550  132.4460   58.9700 C   0  0  0  0  0  0  0  0  0  0  0  0
  129.9100  131.9720   57.6140 C   0  0  2  0  0  0  0  0  0  0  0  0
  131.0590  130.9510   57.6910 C   0  0  0  0  0  0  0  0  0  0  0  0
  132.3050  131.7640   57.4360 C   0  0  0  0  0  0  0  0  0  0  0  0
  131.7880  132.8100   56.4640 C   0  0  0  0  0  0  0  0  0  0  0  0
  130.5080  133.1240   57.0030 O   0  0  0  0  0  0  0  0  0  0  0  0
  126.4080  129.8330   61.7860 C   0  0  0  0  0  0  0  0  0  0  0  0
  127.2270  129.9220   62.9180 C   0  0  0  0  0  0  0  0  0  0  0  0
  126.6720  130.0570   64.1870 C   0  0  0  0  0  0  0  0  0  0  0  0
  125.2890  130.1070   64.3340 C   0  0  0  0  0  0  0  0  0  0  0  0
  124.7490  130.2400   65.5660 F   0  0  0  0  0  0  0  0  0  0  0  0
  124.4580  130.0220   63.2200 C   0  0  0  0  0  0  0  0  0  0  0  0
  125.0140  129.8850   61.9510 C   0  0  0  0  0  0  0  0  0  0  0  0
  128.5020  124.3900   60.7730 N   0  0  0  0  0  0  0  0  0  0  0  0
  131.1500  123.0310   60.8860 C   0  0  0  0  0  0  0  0  0  0  0  0
  132.3440  122.3020   60.7510 C   0  0  0  0  0  0  0  0  0  0  0  0
  133.5710  122.8820   60.4810 O   0  0  0  0  0  0  0  0  0  0  0  0
  133.6280  124.0890   59.7280 C   0  0  0  0  0  0  0  0  0  0  0  0
  133.5064  118.2408   61.3015 H   0  0  0  0  0  0  0  0  0  0  0  0
  132.6106  118.6348   59.7953 H   0  0  0  0  0  0  0  0  0  0  0  0
  134.4068  118.6244   59.7953 H   0  0  0  0  0  0  0  0  0  0  0  0
  131.0697  119.1754   61.2869 H   0  0  0  0  0  0  0  0  0  0  0  0
  128.9792  120.4878   61.5269 H   0  0  0  0  0  0  0  0  0  0  0  0
  126.3894  125.7757   59.6183 H   0  0  0  0  0  0  0  0  0  0  0  0
  125.6208  125.9427   61.2782 H   0  0  0  0  0  0  0  0  0  0  0  0
  126.0178  127.3281   58.5299 H   0  0  0  0  0  0  0  0  0  0  0  0
  126.7566  128.9471   58.1150 H   0  0  0  0  0  0  0  0  0  0  0  0
  128.6775  128.0493   57.3794 H   0  0  0  0  0  0  0  0  0  0  0  0
  128.6403  126.7342   58.6615 H   0  0  0  0  0  0  0  0  0  0  0  0
  126.7556  126.5819   56.3225 H   0  0  0  0  0  0  0  0  0  0  0  0
  128.5111  126.1030   56.1430 H   0  0  0  0  0  0  0  0  0  0  0  0
  125.3005  124.8776   57.0907 H   0  0  0  0  0  0  0  0  0  0  0  0
  126.3044  124.1888   55.7498 H   0  0  0  0  0  0  0  0  0  0  0  0
  125.7694  122.9058   58.4843 H   0  0  0  0  0  0  0  0  0  0  0  0
  125.1309  122.3664   56.8884 H   0  0  0  0  0  0  0  0  0  0  0  0
  128.1209  122.6829   58.9115 H   0  0  0  0  0  0  0  0  0  0  0  0
  129.1665  121.9823   57.6249 H   0  0  0  0  0  0  0  0  0  0  0  0
  129.3965  124.4864   57.8259 H   0  0  0  0  0  0  0  0  0  0  0  0
  128.8037  123.9443   56.2010 H   0  0  0  0  0  0  0  0  0  0  0  0
  126.3984  130.1987   59.7281 H   0  0  0  0  0  0  0  0  0  0  0  0
  127.3430  131.8290   59.0620 H   0  0  0  0  0  0  0  0  0  0  0  0
  128.9894  133.4783   58.8671 H   0  0  0  0  0  0  0  0  0  0  0  0
  130.1628  132.3933   59.7148 H   0  0  0  0  0  0  0  0  0  0  0  0
  129.0677  131.5027   57.0846 H   0  0  0  0  0  0  0  0  0  0  0  0
  131.0971  130.4828   58.6857 H   0  0  0  0  0  0  0  0  0  0  0  0
  130.9392  130.1312   56.9674 H   0  0  0  0  0  0  0  0  0  0  0  0
  132.6804  132.2255   58.3612 H   0  0  0  0  0  0  0  0  0  0  0  0
  133.1540  131.1774   57.0550 H   0  0  0  0  0  0  0  0  0  0  0  0
  132.4408  133.6952   56.4480 H   0  0  0  0  0  0  0  0  0  0  0  0
  131.7517  132.4607   55.4216 H   0  0  0  0  0  0  0  0  0  0  0  0
  128.3204  129.8848   62.8032 H   0  0  0  0  0  0  0  0  0  0  0  0
  127.3239  130.1239   65.0705 H   0  0  0  0  0  0  0  0  0  0  0  0
  123.3656  130.0630   63.3422 H   0  0  0  0  0  0  0  0  0  0  0  0
  124.3570  129.8170   61.0714 H   0  0  0  0  0  0  0  0  0  0  0  0
  131.1725  124.1248   60.7715 H   0  0  0  0  0  0  0  0  0  0  0  0
  133.6686  124.9477   60.4143 H   0  0  0  0  0  0  0  0  0  0  0  0
  134.5269  124.0835   59.0940 H   0  0  0  0  0  0  0  0  0  0  0  0
  132.7326  124.1683   59.0940 H   0  0  0  0  0  0  0  0  0  0  0  0
  1  2  1  0
  2  3  1  0
  3  4  2  0
  4  5  1  0
  5  6  2  0
  6  7  1  0
  7  8  1  0
  8  9  2  0
  9 10  1  0
 10 11  1  0
 11 12  1  0
 12 13  2  0
 12 14  1  0
 14 15  1  0
 15 16  1  0
 16 17  1  0
 17 18  1  0
 18 19  1  0
 19 20  1  0
 20 21  1  0
 21 22  1  0
 22 23  1  0
 14 24  1  0
 24 25  1  0
 25 26  2  0
 25 27  1  0
 27 28  1  0
 28 29  1  0
 29 30  1  0
 30 31  1  0
 31 32  1  0
 32 33  1  0
 24 34  1  0
 34 35  2  0
 35 36  1  0
 36 37  2  0
 37 38  1  0
 37 39  1  0
 39 40  2  0
 10 41  1  0
  6 42  1  0
 42 43  2  0
 43 44  1  0
 44 45  1  0
 43  3  1  0
 41  7  2  0
 23 18  1  0
 33 29  1  0
 40 34  1  0
  1 46  1  0
  1 47  1  0
  1 48  1  0
  4 49  1  0
  5 50  1  0
 11 51  1  0
 11 52  1  0
 15 53  1  0
 15 54  1  0
 16 55  1  0
 16 56  1  0
 17 57  1  0
 17 58  1  0
 19 59  1  0
 19 60  1  0
 20 61  1  0
 20 62  1  0
 22 63  1  0
 22 64  1  0
 23 65  1  0
 23 66  1  0
 24 67  1  6
 27 68  1  0
 28 69  1  0
 28 70  1  0
 29 71  1  6
 30 72  1  0
 30 73  1  0
 31 74  1  0
 31 75  1  0
 32 76  1  0
 32 77  1  0
 35 78  1  0
 36 79  1  0
 39 80  1  0
 40 81  1  0
 42 82  1  0
 45 83  1  0
 45 84  1  0
 45 85  1  0
M  END
>  <Binding energies>  (1) 
[-9.24]

>  <Ligand effiencies>  (1) 
[-0.2008695652173913]

>  <Interactions>  (1) 
["V-A:LEU:475:CD2:4256, V-B:TYR:539:CD1:9845, V-B:TYR:539:C:9839, V-B:ASP:366:CG:8184, V-B:TYR:539:CE1:9847, V-B:PRO:540:CB:9857, V-B:PRO:540:CA:9855, V-B:ALA:541:CB:9864, V-B:ARG:545:CZ:9898, V-A:ASP:366:CG:3210, V-B:PRO:540:N:9856, H-B:TYR:531:OH:9767, V-A:ILE:369:CD1:3236, V-A:TYR:539:CE1:4873, V-A:TYR:539:C:4865, V-A:PRO:540:CA:4881, V-A:TYR:539:CD1:4871, V-A:PRO:540:CB:4883, V-A:PRO:540:N:4882, V-A:ILE:538:CA:4858, V-B:TYR:539:CG:9844, V-A:ILE:538:CB:4860, H-B:TYR:539:N:9842, V-B:PRO:540:CD:9859, V-B:TYR:539:CZ:9849, V-A:ILE:538:CG2:4861, V-A:PRO:540:CD:4885, V-B:MET:535:CE:9807, V-A:ILE:369:CG2:3234, V-A:ILE:369:CB:3233, V-B:TYR:484:CZ:9318, V-A:LEU:373:CD1:3277, V-A:SER:385:CA:3404, V-A:SER:385:CB:3406, H-B:ALA:541:N:9863, H-A:TYR:539:N:4868, V-B:GLY:454:CA:9020"]

$$$$
RR16_Rahimova_2017
     RDKit          3D

 80 85  0  0  0  0  0  0  0  0999 V2000
  132.7440  122.3150   64.0610 O   0  0  0  0  0  0  0  0  0  0  0  0
  133.2870  122.7370   62.7650 S   0  0  0  0  0  0  0  0  0  0  0  0
  134.3880  122.0000   62.1340 O   0  0  0  0  0  0  0  0  0  0  0  0
  133.7760  124.4260   62.9180 N   0  0  0  0  0  0  0  0  0  0  0  0
  133.0790  125.3390   63.8540 C   0  0  0  0  0  0  0  0  0  0  0  0
  131.5500  125.2520   63.6060 C   0  0  0  0  0  0  0  0  0  0  0  0
  130.7440  124.2780   64.4870 C   0  0  0  0  0  0  0  0  0  0  0  0
  130.5500  124.7600   65.9350 C   0  0  0  0  0  0  0  0  0  0  0  0
  131.3500  126.0090   66.3320 C   0  0  0  0  0  0  0  0  0  0  0  0
  132.8840  125.8690   66.3940 C   0  0  0  0  0  0  0  0  0  0  0  0
  133.5430  125.0130   65.2930 C   0  0  0  0  0  0  0  0  0  0  0  0
  131.9170  122.7730   61.6160 C   0  0  0  0  0  0  0  0  0  0  0  0
  132.0430  123.4280   60.3880 C   0  0  0  0  0  0  0  0  0  0  0  0
  130.9340  123.5530   59.5570 C   0  0  0  0  0  0  0  0  0  0  0  0
  129.7050  123.0240   59.9560 C   0  0  0  0  0  0  0  0  0  0  0  0
  128.2460  123.3060   58.9560 S   0  0  0  0  0  0  0  0  0  0  0  0
  127.0780  123.1890   59.8390 O   0  0  0  0  0  0  0  0  0  0  0  0
  128.3600  122.4580   57.7620 O   0  0  0  0  0  0  0  0  0  0  0  0
  128.3900  125.0000   58.4460 N   0  0  0  0  0  0  0  0  0  0  0  0
  127.4120  125.4150   57.4070 C   0  0  0  0  0  0  0  0  0  0  0  0
  127.8070  126.7800   56.8090 C   0  0  0  0  0  0  0  0  0  0  0  0
  128.0130  127.8520   57.9090 C   0  0  0  0  0  0  0  0  0  0  0  0
  128.4510  129.2030   57.3390 C   0  0  0  0  0  0  0  0  0  0  0  0
  127.5730  129.9330   56.5260 C   0  0  0  0  0  0  0  0  0  0  0  0
  127.9280  131.1730   55.9920 C   0  0  0  0  0  0  0  0  0  0  0  0
  127.0550  131.8740   55.2010 O   0  0  0  0  0  0  0  0  0  0  0  0
  129.2000  131.6830   56.2910 C   0  0  0  0  0  0  0  0  0  0  0  0
  129.8040  132.8530   55.9330 N   0  0  0  0  0  0  0  0  0  0  0  0
  131.0490  132.8760   56.5230 N   0  0  0  0  0  0  0  0  0  0  0  0
  131.2230  131.7210   57.1940 N   0  0  0  0  0  0  0  0  0  0  0  0
  132.4250  131.5090   57.9890 C   0  0  0  0  0  0  0  0  0  0  0  0
  132.1490  131.5190   59.4860 C   0  0  0  0  0  0  0  0  0  0  0  0
  133.2060  131.4020   60.3950 C   0  0  0  0  0  0  0  0  0  0  0  0
  132.9580  131.4340   61.7680 C   0  0  0  0  0  0  0  0  0  0  0  0
  131.6530  131.5850   62.2390 C   0  0  0  0  0  0  0  0  0  0  0  0
  130.5950  131.7050   61.3370 C   0  0  0  0  0  0  0  0  0  0  0  0
  128.9820  131.9030   61.9160 Cl  0  0  0  0  0  0  0  0  0  0  0  0
  130.8430  131.6690   59.9630 C   0  0  0  0  0  0  0  0  0  0  0  0
  130.0840  130.9370   57.1070 C   0  0  0  0  0  0  0  0  0  0  0  0
  129.7310  129.6930   57.6390 C   0  0  0  0  0  0  0  0  0  0  0  0
  128.9370  127.3530   59.0510 C   0  0  0  0  0  0  0  0  0  0  0  0
  128.5120  125.9640   59.5700 C   0  0  0  0  0  0  0  0  0  0  0  0
  129.5910  122.3330   61.1650 C   0  0  0  0  0  0  0  0  0  0  0  0
  130.6980  122.2100   61.9970 C   0  0  0  0  0  0  0  0  0  0  0  0
  134.7520  124.6500   62.7040 H   0  0  0  0  0  0  0  0  0  0  0  0
  133.3364  126.3955   63.6879 H   0  0  0  0  0  0  0  0  0  0  0  0
  131.1329  126.2582   63.7594 H   0  0  0  0  0  0  0  0  0  0  0  0
  131.4524  124.8549   62.5848 H   0  0  0  0  0  0  0  0  0  0  0  0
  129.7519  124.1401   64.0323 H   0  0  0  0  0  0  0  0  0  0  0  0
  131.3201  123.3423   64.5371 H   0  0  0  0  0  0  0  0  0  0  0  0
  129.4822  124.9828   66.0772 H   0  0  0  0  0  0  0  0  0  0  0  0
  130.9242  123.9474   66.5750 H   0  0  0  0  0  0  0  0  0  0  0  0
  131.1183  126.7974   65.6007 H   0  0  0  0  0  0  0  0  0  0  0  0
  131.0419  126.2283   67.3649 H   0  0  0  0  0  0  0  0  0  0  0  0
  133.3143  126.8795   66.3338 H   0  0  0  0  0  0  0  0  0  0  0  0
  133.0897  125.3395   67.3360 H   0  0  0  0  0  0  0  0  0  0  0  0
  134.6309  125.1669   65.3450 H   0  0  0  0  0  0  0  0  0  0  0  0
  133.2423  123.9729   65.4875 H   0  0  0  0  0  0  0  0  0  0  0  0
  133.0141  123.8427   60.0799 H   0  0  0  0  0  0  0  0  0  0  0  0
  131.0252  124.0670   58.5887 H   0  0  0  0  0  0  0  0  0  0  0  0
  127.3924  124.6609   56.6064 H   0  0  0  0  0  0  0  0  0  0  0  0
  126.4176  125.5031   57.8690 H   0  0  0  0  0  0  0  0  0  0  0  0
  128.7442  126.6639   56.2449 H   0  0  0  0  0  0  0  0  0  0  0  0
  126.9900  127.1154   56.1532 H   0  0  0  0  0  0  0  0  0  0  0  0
  127.0268  128.0239   58.3649 H   0  0  0  0  0  0  0  0  0  0  0  0
  126.5789  129.5182   56.3031 H   0  0  0  0  0  0  0  0  0  0  0  0
  126.1340  131.7150   55.4200 H   0  0  0  0  0  0  0  0  0  0  0  0
  132.8591  130.5353   57.7177 H   0  0  0  0  0  0  0  0  0  0  0  0
  133.1162  132.3370   57.7732 H   0  0  0  0  0  0  0  0  0  0  0  0
  134.2357  131.2844   60.0264 H   0  0  0  0  0  0  0  0  0  0  0  0
  133.7917  131.3401   62.4794 H   0  0  0  0  0  0  0  0  0  0  0  0
  131.4584  131.6094   63.3214 H   0  0  0  0  0  0  0  0  0  0  0  0
  130.0076  131.7590   59.2531 H   0  0  0  0  0  0  0  0  0  0  0  0
  130.4292  129.1211   58.2679 H   0  0  0  0  0  0  0  0  0  0  0  0
  129.9680  127.2910   58.6727 H   0  0  0  0  0  0  0  0  0  0  0  0
  128.8627  128.0659   59.8854 H   0  0  0  0  0  0  0  0  0  0  0  0
  129.2673  125.5970   60.2805 H   0  0  0  0  0  0  0  0  0  0  0  0
  127.5346  126.0550   60.0665 H   0  0  0  0  0  0  0  0  0  0  0  0
  128.6286  121.8878   61.4576 H   0  0  0  0  0  0  0  0  0  0  0  0
  130.6135  121.6709   62.9521 H   0  0  0  0  0  0  0  0  0  0  0  0
  1  2  2  0
  2  3  2  0
  2  4  1  0
  4  5  1  0
  5  6  1  0
  6  7  1  0
  7  8  1  0
  8  9  1  0
  9 10  1  0
 10 11  1  0
  2 12  1  0
 12 13  2  0
 13 14  1  0
 14 15  2  0
 15 16  1  0
 16 17  2  0
 16 18  2  0
 16 19  1  0
 19 20  1  0
 20 21  1  0
 21 22  1  0
 22 23  1  0
 23 24  2  0
 24 25  1  0
 25 26  1  0
 25 27  2  0
 27 28  1  0
 28 29  2  0
 29 30  1  0
 30 31  1  0
 31 32  1  0
 32 33  2  0
 33 34  1  0
 34 35  2  0
 35 36  1  0
 36 37  1  0
 36 38  2  0
 30 39  1  0
 39 40  2  0
 22 41  1  0
 41 42  1  0
 15 43  1  0
 43 44  2  0
 11  5  1  0
 44 12  1  0
 42 19  1  0
 40 23  1  0
 39 27  1  0
 38 32  1  0
  4 45  1  0
  5 46  1  0
  6 47  1  0
  6 48  1  0
  7 49  1  0
  7 50  1  0
  8 51  1  0
  8 52  1  0
  9 53  1  0
  9 54  1  0
 10 55  1  0
 10 56  1  0
 11 57  1  0
 11 58  1  0
 13 59  1  0
 14 60  1  0
 20 61  1  0
 20 62  1  0
 21 63  1  0
 21 64  1  0
 22 65  1  0
 24 66  1  0
 26 67  1  0
 31 68  1  0
 31 69  1  0
 33 70  1  0
 34 71  1  0
 35 72  1  0
 38 73  1  0
 40 74  1  0
 41 75  1  0
 41 76  1  0
 42 77  1  0
 42 78  1  0
 43 79  1  0
 44 80  1  0
M  END
>  <Binding energies>  (1) 
[-9.91]

>  <Ligand effiencies>  (1) 
[-0.20645833333333333]

>  <Interactions>  (1) 
["V-A:HIS:456:CE1:4066, V-B:GLU:543:CG:9879, V-A:LEU:475:CD2:4256, H-A:TYR:484:OH:4345, V-A:GLY:454:CA:4046, V-B:TYR:539:CD1:9845, V-A:TYR:484:CE2:4343, V-B:GLU:543:CB:9878, V-B:TYR:539:CE1:9847, V-B:GLU:543:CD:9880, V-A:ARG:545:CZ:4924, V-B:ALA:541:CB:9864, V-A:TYR:484:CZ:4344, H-A:ASP:366:OD1:3211, V-A:ASP:366:CG:3210, V-A:GLU:543:CD:4906, V-A:ARG:545:CD:4921, V-A:ARG:545:CG:4920, V-A:GLY:453:C:4039, V-A:ALA:541:CB:4890, V-A:PRO:540:CA:4881, V-A:PRO:540:CB:4883, H-B:TYR:539:N:9842, V-A:MET:535:CE:4833, V-B:TYR:539:CZ:9849, V-B:MET:535:CE:9807, V-A:TYR:539:CE2:4874, V-A:TYR:539:CZ:4875, H-A:GLY:454:N:4047, H-A:TYR:539:OH:4876, H-B:ASN:370:ND2:8219, H-A:TYR:539:N:4868, V-A:ALA:541:CA:4888, V-A:ASN:362:CB:3173, V-A:ASN:362:C:3169"]

$$$$
RR17_Rahimova_2017
     RDKit          3D

 63 66  0  0  0  0  0  0  0  0999 V2000
  132.6870  132.1380   55.6690 C   0  0  0  0  0  0  0  0  0  0  0  0
  132.5180  132.9210   56.9750 C   0  0  0  0  0  0  0  0  0  0  0  0
  131.1330  133.1920   57.1700 O   0  0  0  0  0  0  0  0  0  0  0  0
  130.2180  132.1610   57.0590 C   0  0  0  0  0  0  0  0  0  0  0  0
  130.6030  130.9290   57.5850 C   0  0  0  0  0  0  0  0  0  0  0  0
  129.7500  129.8320   57.5190 C   0  0  0  0  0  0  0  0  0  0  0  0
  128.4870  129.9460   56.9200 C   0  0  0  0  0  0  0  0  0  0  0  0
  127.5870  128.7450   56.8650 C   0  0  0  0  0  0  0  0  0  0  0  0
  126.5030  128.7580   56.2740 O   0  0  0  0  0  0  0  0  0  0  0  0
  128.0670  127.4740   57.6000 C   0  0  0  0  0  0  0  0  0  0  0  0
  128.0210  127.6710   59.4180 S   0  0  0  0  0  0  0  0  0  0  0  0
  129.4950  126.7940   59.8570 C   0  0  0  0  0  0  0  0  0  0  0  0
  130.4870  127.2810   60.5640 N   0  0  0  0  0  0  0  0  0  0  0  0
  131.4460  126.2840   60.6960 N   0  0  0  0  0  0  0  0  0  0  0  0
  130.9940  125.2290   60.0660 C   0  0  0  0  0  0  0  0  0  0  0  0
  131.7290  123.9000   59.9710 C   0  0  0  0  0  0  0  0  0  0  0  0
  131.4860  123.0090   61.1030 N   0  0  0  0  0  0  0  0  0  0  0  0
  131.6040  121.6090   61.0340 C   0  0  0  0  0  0  0  0  0  0  0  0
  132.8640  121.0840   60.7520 C   0  0  0  0  0  0  0  0  0  0  0  0
  133.0500  119.7070   60.6640 C   0  0  0  0  0  0  0  0  0  0  0  0
  131.9740  118.8370   60.8630 C   0  0  0  0  0  0  0  0  0  0  0  0
  132.1930  117.3290   60.7570 C   0  0  0  0  0  0  0  0  0  0  0  0
  133.3640  117.0260   60.1910 F   0  0  0  0  0  0  0  0  0  0  0  0
  132.1640  116.7680   61.9670 F   0  0  0  0  0  0  0  0  0  0  0  0
  131.2200  116.7970   60.0160 F   0  0  0  0  0  0  0  0  0  0  0  0
  130.7100  119.3620   61.1550 C   0  0  0  0  0  0  0  0  0  0  0  0
  130.5260  120.7390   61.2430 C   0  0  0  0  0  0  0  0  0  0  0  0
  129.7640  125.4880   59.4990 N   0  0  0  0  0  0  0  0  0  0  0  0
  128.9570  124.6120   58.7560 C   0  0  0  0  0  0  0  0  0  0  0  0
  129.3200  124.2840   57.4500 C   0  0  0  0  0  0  0  0  0  0  0  0
  128.5180  123.4180   56.7120 C   0  0  0  0  0  0  0  0  0  0  0  0
  127.3510  122.8780   57.2790 C   0  0  0  0  0  0  0  0  0  0  0  0
  126.4970  122.0120   56.6240 O   0  0  0  0  0  0  0  0  0  0  0  0
  125.1230  122.3600   56.4910 C   0  0  0  0  0  0  0  0  0  0  0  0
  127.0030  123.2200   58.5870 C   0  0  0  0  0  0  0  0  0  0  0  0
  127.8010  124.0840   59.3310 C   0  0  0  0  0  0  0  0  0  0  0  0
  128.1010  131.1860   56.3920 C   0  0  0  0  0  0  0  0  0  0  0  0
  128.9560  132.2830   56.4600 C   0  0  0  0  0  0  0  0  0  0  0  0
  132.9140  131.0865   55.8987 H   0  0  0  0  0  0  0  0  0  0  0  0
  131.7563  132.1932   55.0853 H   0  0  0  0  0  0  0  0  0  0  0  0
  133.5121  132.5722   55.0853 H   0  0  0  0  0  0  0  0  0  0  0  0
  132.9003  132.3243   57.8163 H   0  0  0  0  0  0  0  0  0  0  0  0
  133.0803  133.8649   56.9212 H   0  0  0  0  0  0  0  0  0  0  0  0
  131.5910  130.8231   58.0569 H   0  0  0  0  0  0  0  0  0  0  0  0
  130.0688  128.8671   57.9401 H   0  0  0  0  0  0  0  0  0  0  0  0
  127.4155  126.6338   57.3178 H   0  0  0  0  0  0  0  0  0  0  0  0
  129.1103  127.2866   57.3061 H   0  0  0  0  0  0  0  0  0  0  0  0
  131.4049  123.3895   59.0521 H   0  0  0  0  0  0  0  0  0  0  0  0
  132.8050  124.1287   59.9688 H   0  0  0  0  0  0  0  0  0  0  0  0
  131.0170  123.3990   61.9070 H   0  0  0  0  0  0  0  0  0  0  0  0
  133.7166  121.7617   60.5980 H   0  0  0  0  0  0  0  0  0  0  0  0
  134.0473  119.3022   60.4371 H   0  0  0  0  0  0  0  0  0  0  0  0
  129.8588  118.6840   61.3156 H   0  0  0  0  0  0  0  0  0  0  0  0
  129.5310  121.1453   61.4774 H   0  0  0  0  0  0  0  0  0  0  0  0
  130.2335  124.7066   57.0063 H   0  0  0  0  0  0  0  0  0  0  0  0
  128.7987  123.1554   55.6813 H   0  0  0  0  0  0  0  0  0  0  0  0
  124.6752  122.4734   57.4893 H   0  0  0  0  0  0  0  0  0  0  0  0
  125.0366  123.3084   55.9405 H   0  0  0  0  0  0  0  0  0  0  0  0
  124.5956  121.5671   55.9405 H   0  0  0  0  0  0  0  0  0  0  0  0
  126.0888  122.8024   59.0341 H   0  0  0  0  0  0  0  0  0  0  0  0
  127.5229  124.3479   60.3621 H   0  0  0  0  0  0  0  0  0  0  0  0
  127.1134  131.2934   55.9196 H   0  0  0  0  0  0  0  0  0  0  0  0
  128.6399  133.2500   56.0418 H   0  0  0  0  0  0  0  0  0  0  0  0
  1  2  1  0
  2  3  1  0
  3  4  1  0
  4  5  2  0
  5  6  1  0
  6  7  2  0
  7  8  1  0
  8  9  2  0
  8 10  1  0
 10 11  1  0
 11 12  1  0
 12 13  2  0
 13 14  1  0
 14 15  2  0
 15 16  1  0
 16 17  1  0
 17 18  1  0
 18 19  2  0
 19 20  1  0
 20 21  2  0
 21 22  1  0
 22 23  1  0
 22 24  1  0
 22 25  1  0
 21 26  1  0
 26 27  2  0
 15 28  1  0
 28 29  1  0
 29 30  2  0
 30 31  1  0
 31 32  2  0
 32 33  1  0
 33 34  1  0
 32 35  1  0
 35 36  2  0
  7 37  1  0
 37 38  2  0
 38  4  1  0
 28 12  1  0
 36 29  1  0
 27 18  1  0
  1 39  1  0
  1 40  1  0
  1 41  1  0
  2 42  1  0
  2 43  1  0
  5 44  1  0
  6 45  1  0
 10 46  1  0
 10 47  1  0
 16 48  1  0
 16 49  1  0
 17 50  1  0
 19 51  1  0
 20 52  1  0
 26 53  1  0
 27 54  1  0
 30 55  1  0
 31 56  1  0
 34 57  1  0
 34 58  1  0
 34 59  1  0
 35 60  1  0
 36 61  1  0
 37 62  1  0
 38 63  1  0
M  END
>  <Binding energies>  (1) 
[-8.45]

>  <Ligand effiencies>  (1) 
[-0.21666666666666665]

>  <Interactions>  (1) 
["V-A:LEU:475:CD2:4256, V-B:TYR:539:CD1:9845, V-B:TYR:539:C:9839, V-B:TYR:539:CE1:9847, V-B:PRO:540:CB:9857, V-B:PRO:540:CA:9855, V-B:ALA:541:CB:9864, V-B:PRO:540:N:9856, H-B:TYR:531:OH:9767, H-A:ARG:545:NH2:4926, V-A:TYR:539:CE1:4873, V-A:PRO:540:CA:4881, V-A:PRO:540:CB:4883, V-A:PRO:540:N:4882, V-A:LEU:363:CD1:3186, V-A:ILE:538:CB:4860, V-B:ILE:538:CB:9834, H-B:TYR:539:N:9842, V-A:MET:535:CE:4833, V-B:PRO:540:CD:9859, V-A:PRO:540:CG:4884, V-B:TYR:539:CZ:9849, V-A:ILE:538:CG2:4861, V-B:ILE:538:CG2:9835, V-A:TYR:531:CE2:4791, V-A:PRO:540:CD:4885, V-A:TYR:531:CZ:4792, V-B:ILE:538:CA:9832, V-B:MET:535:CE:9807, V-A:ILE:369:CG2:3234, V-A:LEU:373:CD1:3277, V-A:PRO:482:CG:4324, V-A:SER:385:CA:3404, V-A:SER:385:CB:3406, V-A:PRO:482:CB:4323, V-A:VAL:384:C:3394, V-A:TYR:539:CD2:4872, V-A:TYR:539:CE2:4874, V-A:TYR:539:CZ:4875, V-A:LEU:475:CG:4254, V-B:PRO:540:CG:9858, V-B:LEU:363:CD1:8160, V-B:TYR:539:CB:9843, H-A:TYR:539:N:4868, V-B:VAL:344:CG1:7972"]

$$$$
RR18_Rahimova_2017
     RDKit          3D

 56 61  0  0  0  0  0  0  0  0999 V2000
  132.8900  125.7330   56.2050 C   0  0  0  0  0  0  0  0  0  0  0  0
  132.6690  125.3110   57.6360 C   0  0  0  0  0  0  0  0  0  0  0  0
  133.4430  124.6570   58.5810 C   0  0  0  0  0  0  0  0  0  0  0  0
  132.6690  124.5580   59.7370 C   0  0  0  0  0  0  0  0  0  0  0  0
  131.4510  125.1560   59.4570 C   0  0  0  0  0  0  0  0  0  0  0  0
  130.1780  125.3930   60.2660 C   0  0  1  0  0  0  0  0  0  0  0  0
  130.0590  124.3890   61.4510 C   0  0  0  0  0  0  0  0  0  0  0  0
  129.8980  122.9610   61.1960 C   0  0  0  0  0  0  0  0  0  0  0  0
  128.8110  122.4760   60.8760 O   0  0  0  0  0  0  0  0  0  0  0  0
  131.0370  122.2420   61.3260 N   0  0  0  0  0  0  0  0  0  0  0  0
  131.2650  120.8570   61.1800 C   0  0  0  0  0  0  0  0  0  0  0  0
  130.2540  119.8870   61.3110 C   0  0  0  0  0  0  0  0  0  0  0  0
  130.5470  118.5330   61.1620 C   0  0  0  0  0  0  0  0  0  0  0  0
  131.8490  118.1260   60.8870 C   0  0  0  0  0  0  0  0  0  0  0  0
  132.8620  119.0740   60.7650 C   0  0  0  0  0  0  0  0  0  0  0  0
  132.5840  120.4370   60.9120 C   0  0  0  0  0  0  0  0  0  0  0  0
  133.7300  121.4340   60.7740 C   0  0  0  0  0  0  0  0  0  0  0  0
  130.2110  124.8600   62.7170 C   0  0  0  0  0  0  0  0  0  0  0  0
  130.3440  126.1750   63.0450 N   0  0  0  0  0  0  0  0  0  0  0  0
  130.2460  127.0670   62.1300 C   0  0  0  0  0  0  0  0  0  0  0  0
  130.2460  128.7900   62.4200 S   0  0  0  0  0  0  0  0  0  0  0  0
  130.0390  129.1370   60.6750 C   0  0  0  0  0  0  0  0  0  0  0  0
  129.9430  130.3750   60.0780 C   0  0  0  0  0  0  0  0  0  0  0  0
  129.9230  131.5950   60.8980 C   0  0  0  0  0  0  0  0  0  0  0  0
  130.0070  131.7310   62.1180 O   0  0  0  0  0  0  0  0  0  0  0  0
  129.7700  132.6320   60.0670 N   0  0  0  0  0  0  0  0  0  0  0  0
  129.7160  132.2600   58.7580 C   0  0  0  0  0  0  0  0  0  0  0  0
  129.5760  133.0830   57.6410 C   0  0  0  0  0  0  0  0  0  0  0  0
  129.5750  132.5030   56.3750 C   0  0  0  0  0  0  0  0  0  0  0  0
  129.7210  131.1230   56.2490 C   0  0  0  0  0  0  0  0  0  0  0  0
  129.8580  130.3200   57.3840 C   0  0  0  0  0  0  0  0  0  0  0  0
  129.8380  130.8840   58.6730 C   0  0  0  0  0  0  0  0  0  0  0  0
  129.9720  127.8590   59.9650 C   0  0  0  0  0  0  0  0  0  0  0  0
  129.7820  127.7010   58.7630 O   0  0  0  0  0  0  0  0  0  0  0  0
  130.1250  126.7990   60.8040 N   0  0  0  0  0  0  0  0  0  0  0  0
  131.4580  125.6110   58.1760 O   0  0  0  0  0  0  0  0  0  0  0  0
  133.4002  126.7073   56.1847 H   0  0  0  0  0  0  0  0  0  0  0  0
  133.5111  124.9831   55.6933 H   0  0  0  0  0  0  0  0  0  0  0  0
  131.9198  125.8164   55.6933 H   0  0  0  0  0  0  0  0  0  0  0  0
  134.4701  124.2871   58.4456 H   0  0  0  0  0  0  0  0  0  0  0  0
  132.9682  124.0941   60.6885 H   0  0  0  0  0  0  0  0  0  0  0  0
  129.3337  125.2368   59.5785 H   0  0  0  0  0  0  0  0  0  0  0  0
  131.8740  122.7760   61.5090 H   0  0  0  0  0  0  0  0  0  0  0  0
  129.2233  120.2005   61.5330 H   0  0  0  0  0  0  0  0  0  0  0  0
  129.7474  117.7842   61.2620 H   0  0  0  0  0  0  0  0  0  0  0  0
  132.0778  117.0569   60.7661 H   0  0  0  0  0  0  0  0  0  0  0  0
  133.8905  118.7478   60.5510 H   0  0  0  0  0  0  0  0  0  0  0  0
  134.0763  121.7353   61.7737 H   0  0  0  0  0  0  0  0  0  0  0  0
  134.5596  120.9653   60.2244 H   0  0  0  0  0  0  0  0  0  0  0  0
  133.3806  122.3205   60.2244 H   0  0  0  0  0  0  0  0  0  0  0  0
  130.2278  124.1257   63.5359 H   0  0  0  0  0  0  0  0  0  0  0  0
  129.7210  133.5890   60.3830 H   0  0  0  0  0  0  0  0  0  0  0  0
  129.4682  134.1714   57.7579 H   0  0  0  0  0  0  0  0  0  0  0  0
  129.4596  133.1309   55.4792 H   0  0  0  0  0  0  0  0  0  0  0  0
  129.7284  130.6630   55.2498 H   0  0  0  0  0  0  0  0  0  0  0  0
  129.9831  129.2332   57.2686 H   0  0  0  0  0  0  0  0  0  0  0  0
  1  2  1  0
  2  3  2  0
  3  4  1  0
  4  5  2  0
  5  6  1  0
  6  7  1  0
  7  8  1  0
  8  9  2  0
  8 10  1  0
 10 11  1  0
 11 12  2  0
 12 13  1  0
 13 14  2  0
 14 15  1  0
 15 16  2  0
 16 17  1  0
  7 18  2  0
 18 19  1  0
 19 20  2  0
 20 21  1  0
 21 22  1  0
 22 23  2  0
 23 24  1  0
 24 25  2  0
 24 26  1  0
 26 27  1  0
 27 28  2  0
 28 29  1  0
 29 30  2  0
 30 31  1  0
 31 32  2  0
 22 33  1  0
 33 34  2  0
 33 35  1  0
  5 36  1  0
 36  2  1  0
 35  6  1  0
 16 11  1  0
 35 20  1  0
 32 23  1  0
 32 27  1  0
  1 37  1  0
  1 38  1  0
  1 39  1  0
  3 40  1  0
  4 41  1  0
  6 42  1  6
 10 43  1  0
 12 44  1  0
 13 45  1  0
 14 46  1  0
 15 47  1  0
 17 48  1  0
 17 49  1  0
 17 50  1  0
 18 51  1  0
 26 52  1  0
 28 53  1  0
 29 54  1  0
 30 55  1  0
 31 56  1  0
M  END
>  <Binding energies>  (1) 
[-8.73]

>  <Ligand effiencies>  (1) 
[-0.22973684210526316]

>  <Interactions>  (1) 
["V-A:LEU:475:CD2:4256, V-B:TYR:539:CD1:9845, V-B:TYR:539:CE1:9847, V-B:ALA:541:CB:9864, V-A:ASP:366:CG:3210, V-A:GLU:543:CD:4906, V-A:ILE:369:CD1:3236, V-A:TYR:539:CE1:4873, V-A:TYR:539:C:4865, V-A:PRO:540:CA:4881, V-A:TYR:539:CD1:4871, V-A:PRO:540:N:4882, V-A:TYR:539:CA:4867, V-A:ILE:538:CA:4858, V-A:TYR:539:CG:4870, V-A:MET:535:CE:4833, V-A:TYR:531:CZ:4792, V-A:ILE:369:CG2:3234, V-A:LEU:373:CD1:3277, V-A:PRO:482:CG:4324, V-A:SER:385:CA:3404, V-A:SER:385:CB:3406, V-A:PRO:482:CB:4323, H-B:ALA:541:N:9863, V-A:ASP:366:C:3205, V-A:ASP:366:CB:3209, V-A:ASP:366:CA:3207, V-A:ASN:370:CB:3242, V-A:TYR:531:CE1:4790, V-A:PRO:540:C:4879, H-A:ALA:541:N:4889, H-A:TYR:539:O:4866"]

$$$$
RR19_Rahimova_2017
     RDKit          3D

 72 77  0  0  0  0  0  0  0  0999 V2000
  131.6530  125.6830   56.1820 O   0  0  0  0  0  0  0  0  0  0  0  0
  130.9810  125.6860   57.2170 C   0  0  0  0  0  0  0  0  0  0  0  0
  131.3020  125.0600   58.3770 N   0  0  0  0  0  0  0  0  0  0  0  0
  132.4540  124.4690   58.8340 C   0  0  0  0  0  0  0  0  0  0  0  0
  133.9750  124.5760   58.0990 S   0  0  0  0  0  0  0  0  0  0  0  0
  132.1670  123.7780   59.9860 N   0  0  0  0  0  0  0  0  0  0  0  0
  132.9430  123.1470   60.9030 C   0  0  0  0  0  0  0  0  0  0  0  0
  134.1710  123.2140   60.9920 O   0  0  0  0  0  0  0  0  0  0  0  0
  132.1490  122.2560   61.8910 C   0  0  2  0  0  0  0  0  0  0  0  0
  132.6150  122.3500   63.3730 C   0  0  0  0  0  0  0  0  0  0  0  0
  132.1100  123.5650   64.1350 C   0  0  0  0  0  0  0  0  0  0  0  0
  130.8640  123.5380   64.7980 C   0  0  0  0  0  0  0  0  0  0  0  0
  130.4560  124.6280   65.5540 C   0  0  0  0  0  0  0  0  0  0  0  0
  131.2770  125.7420   65.6780 C   0  0  0  0  0  0  0  0  0  0  0  0
  132.5190  125.7710   65.0560 C   0  0  0  0  0  0  0  0  0  0  0  0
  132.9470  124.6900   64.2970 C   0  0  0  0  0  0  0  0  0  0  0  0
  132.0960  120.8440   61.4230 N   0  0  0  0  0  0  0  0  0  0  0  0
  130.9070  120.2000   61.2470 C   0  0  0  0  0  0  0  0  0  0  0  0
  129.7780  120.6450   61.4620 O   0  0  0  0  0  0  0  0  0  0  0  0
  131.2590  118.8510   60.7380 C   0  0  0  0  0  0  0  0  0  0  0  0
  130.4530  117.7670   60.3880 C   0  0  0  0  0  0  0  0  0  0  0  0
  131.0670  116.5990   59.9220 C   0  0  0  0  0  0  0  0  0  0  0  0
  132.4630  116.5310   59.8110 C   0  0  0  0  0  0  0  0  0  0  0  0
  133.2530  117.6300   60.1660 C   0  0  0  0  0  0  0  0  0  0  0  0
  132.6210  118.7850   60.6300 C   0  0  0  0  0  0  0  0  0  0  0  0
  133.1780  120.0900   61.0650 C   0  0  0  0  0  0  0  0  0  0  0  0
  134.3640  120.4200   61.0890 O   0  0  0  0  0  0  0  0  0  0  0  0
  129.6290  126.4480   57.2500 C   0  0  2  0  0  0  0  0  0  0  0  0
  129.5320  127.5100   58.3830 C   0  0  0  0  0  0  0  0  0  0  0  0
  129.7310  126.9440   59.7770 C   0  0  0  0  0  0  0  0  0  0  0  0
  130.8660  127.3080   60.5330 C   0  0  0  0  0  0  0  0  0  0  0  0
  130.9950  126.8700   61.8450 C   0  0  0  0  0  0  0  0  0  0  0  0
  129.9990  126.0970   62.4270 C   0  0  0  0  0  0  0  0  0  0  0  0
  128.8580  125.7640   61.7080 C   0  0  0  0  0  0  0  0  0  0  0  0
  128.7100  126.1910   60.3940 C   0  0  0  0  0  0  0  0  0  0  0  0
  128.4420  125.5470   57.2430 N   0  0  0  0  0  0  0  0  0  0  0  0
  127.2080  125.9830   57.6210 C   0  0  0  0  0  0  0  0  0  0  0  0
  126.9040  127.1090   58.0180 O   0  0  0  0  0  0  0  0  0  0  0  0
  126.3090  124.8150   57.4510 C   0  0  0  0  0  0  0  0  0  0  0  0
  124.9410  124.6720   57.6900 C   0  0  0  0  0  0  0  0  0  0  0  0
  124.3420  123.4330   57.4330 C   0  0  0  0  0  0  0  0  0  0  0  0
  125.1080  122.3660   56.9460 C   0  0  0  0  0  0  0  0  0  0  0  0
  126.4780  122.5300   56.7110 C   0  0  0  0  0  0  0  0  0  0  0  0
  127.0560  123.7730   56.9750 C   0  0  0  0  0  0  0  0  0  0  0  0
  128.4540  124.2450   56.8270 C   0  0  0  0  0  0  0  0  0  0  0  0
  129.4200  123.6010   56.4150 O   0  0  0  0  0  0  0  0  0  0  0  0
  130.5780  125.1240   59.0780 H   0  0  0  0  0  0  0  0  0  0  0  0
  131.1790  123.6310   60.1320 H   0  0  0  0  0  0  0  0  0  0  0  0
  131.1289  122.6675   61.8909 H   0  0  0  0  0  0  0  0  0  0  0  0
  132.2640  121.4492   63.8978 H   0  0  0  0  0  0  0  0  0  0  0  0
  133.7107  122.4424   63.3430 H   0  0  0  0  0  0  0  0  0  0  0  0
  130.2163  122.6528   64.7154 H   0  0  0  0  0  0  0  0  0  0  0  0
  129.4781  124.6099   66.0574 H   0  0  0  0  0  0  0  0  0  0  0  0
  130.9420  126.6053   66.2716 H   0  0  0  0  0  0  0  0  0  0  0  0
  133.1659  126.6540   65.1653 H   0  0  0  0  0  0  0  0  0  0  0  0
  133.9388  124.7103   63.8217 H   0  0  0  0  0  0  0  0  0  0  0  0
  129.3583  117.8293   60.4765 H   0  0  0  0  0  0  0  0  0  0  0  0
  130.4521  115.7310   59.6418 H   0  0  0  0  0  0  0  0  0  0  0  0
  132.9391  115.6100   59.4434 H   0  0  0  0  0  0  0  0  0  0  0  0
  134.3488  117.5848   60.0813 H   0  0  0  0  0  0  0  0  0  0  0  0
  129.6127  127.0055   56.3019 H   0  0  0  0  0  0  0  0  0  0  0  0
  130.3024  128.2752   58.2070 H   0  0  0  0  0  0  0  0  0  0  0  0
  128.5121  127.9206   58.3484 H   0  0  0  0  0  0  0  0  0  0  0  0
  131.6478  127.9380   60.0836 H   0  0  0  0  0  0  0  0  0  0  0  0
  131.8904  127.1368   62.4256 H   0  0  0  0  0  0  0  0  0  0  0  0
  130.1142  125.7464   63.4632 H   0  0  0  0  0  0  0  0  0  0  0  0
  128.0691  125.1603   62.1804 H   0  0  0  0  0  0  0  0  0  0  0  0
  127.7962  125.9417   59.8346 H   0  0  0  0  0  0  0  0  0  0  0  0
  124.3464  125.5149   58.0721 H   0  0  0  0  0  0  0  0  0  0  0  0
  123.2656  123.2968   57.6142 H   0  0  0  0  0  0  0  0  0  0  0  0
  124.6307  121.3950   56.7474 H   0  0  0  0  0  0  0  0  0  0  0  0
  127.0859  121.6977   56.3267 H   0  0  0  0  0  0  0  0  0  0  0  0
  1  2  2  0
  2  3  1  0
  3  4  1  0
  4  5  2  0
  4  6  1  0
  6  7  1  0
  7  8  2  0
  7  9  1  0
  9 10  1  0
 10 11  1  0
 11 12  2  0
 12 13  1  0
 13 14  2  0
 14 15  1  0
 15 16  2  0
  9 17  1  0
 17 18  1  0
 18 19  2  0
 18 20  1  0
 20 21  2  0
 21 22  1  0
 22 23  2  0
 23 24  1  0
 24 25  2  0
 25 26  1  0
 26 27  2  0
  2 28  1  0
 28 29  1  0
 29 30  1  0
 30 31  2  0
 31 32  1  0
 32 33  2  0
 33 34  1  0
 34 35  2  0
 28 36  1  0
 36 37  1  0
 37 38  2  0
 37 39  1  0
 39 40  2  0
 40 41  1  0
 41 42  2  0
 42 43  1  0
 43 44  2  0
 44 45  1  0
 45 46  2  0
 16 11  1  0
 26 17  1  0
 35 30  1  0
 45 36  1  0
 25 20  1  0
 44 39  1  0
  3 47  1  0
  6 48  1  0
  9 49  1  1
 10 50  1  0
 10 51  1  0
 12 52  1  0
 13 53  1  0
 14 54  1  0
 15 55  1  0
 16 56  1  0
 21 57  1  0
 22 58  1  0
 23 59  1  0
 24 60  1  0
 28 61  1  6
 29 62  1  0
 29 63  1  0
 31 64  1  0
 32 65  1  0
 33 66  1  0
 34 67  1  0
 35 68  1  0
 40 69  1  0
 41 70  1  0
 42 71  1  0
 43 72  1  0
M  END
>  <Binding energies>  (1) 
[-11.78]

>  <Ligand effiencies>  (1) 
[-0.24541666666666664]

>  <Interactions>  (1) 
["V-A:HIS:456:CE1:4066, V-B:GLU:543:CG:9879, V-A:LEU:475:CD2:4256, V-A:GLY:454:CA:4046, V-B:TYR:539:CD1:9845, V-B:TYR:539:C:9839, V-B:ASP:366:CG:8184, V-A:TYR:484:CE2:4343, V-B:GLU:543:CB:9878, V-B:TYR:539:CE1:9847, V-B:GLU:543:CD:9880, V-B:PRO:540:CB:9857, V-A:ARG:545:CZ:4924, V-B:PRO:540:CA:9855, V-B:ALA:541:CB:9864, V-A:TYR:484:CZ:4344, V-A:ASP:366:CG:3210, V-B:ASP:366:CB:8183, V-B:PRO:540:N:9856, H-B:TYR:531:OH:9767, V-A:ARG:545:CD:4921, V-B:TYR:539:CG:9844, V-B:ILE:538:CB:9834, V-B:PRO:540:CD:9859, V-B:TYR:539:CZ:9849, V-B:ILE:538:CG2:9835, V-B:ILE:538:CA:9832, V-B:MET:535:CE:9807, V-A:ILE:369:CG2:3234, V-A:ILE:369:CB:3233, H-A:TYR:531:OH:4793, V-A:LEU:373:CD1:3277, V-A:PRO:482:CG:4324, V-A:SER:385:CA:3404, V-A:SER:385:CB:3406, V-A:PRO:482:CB:4323, V-B:TYR:531:CZ:9766, H-B:ALA:541:N:9863, V-A:ASP:366:C:3205, V-A:ASP:366:CB:3209, V-A:ASP:366:CA:3207, V-B:TYR:531:CE2:9765, H-B:TYR:539:OH:9850, V-B:PRO:540:CG:9858, V-B:LEU:363:CD1:8160, V-B:TYR:539:CB:9843, V-B:LEU:363:CA:8156, V-B:VAL:344:CG1:7972"]

$$$$
RR19_Rahimova_2017-again1
     RDKit          3D

 71 76  0  0  0  0  0  0  0  0999 V2000
  133.4970  123.8480   58.8380 O   0  0  0  0  0  0  0  0  0  0  0  0
  132.5410  124.3070   59.4690 C   0  0  0  0  0  0  0  0  0  0  0  0
  131.6700  125.2410   59.0190 N   0  0  0  0  0  0  0  0  0  0  0  0
  131.4770  125.8180   57.7950 C   0  0  0  0  0  0  0  0  0  0  0  0
  132.3550  125.6590   56.3710 S   0  0  0  0  0  0  0  0  0  0  0  0
  130.3100  126.5560   57.8840 N   0  0  0  0  0  0  0  0  0  0  0  0
  129.4590  126.6260   58.8560 C   0  0  0  0  0  0  0  0  0  0  0  0
  129.4930  126.1230   59.9970 O   0  0  0  0  0  0  0  0  0  0  0  0
  128.1680  127.4590   58.5590 C   0  0  2  0  0  0  0  0  0  0  0  0
  127.0960  126.6030   57.8060 C   0  0  0  0  0  0  0  0  0  0  0  0
  127.4000  125.1070   57.7570 C   0  0  0  0  0  0  0  0  0  0  0  0
  127.9680  124.5490   56.6090 C   0  0  0  0  0  0  0  0  0  0  0  0
  128.2590  123.1880   56.5690 C   0  0  0  0  0  0  0  0  0  0  0  0
  127.9790  122.3890   57.6760 C   0  0  0  0  0  0  0  0  0  0  0  0
  127.4080  122.9390   58.8230 C   0  0  0  0  0  0  0  0  0  0  0  0
  127.1160  124.2990   58.8620 C   0  0  0  0  0  0  0  0  0  0  0  0
  128.4460  128.7970   57.9390 N   0  0  0  0  0  0  0  0  0  0  0  0
  129.6050  129.4710   58.1850 C   0  0  0  0  0  0  0  0  0  0  0  0
  130.5340  129.1200   58.9130 O   0  0  0  0  0  0  0  0  0  0  0  0
  129.5100  130.7220   57.3900 C   0  0  0  0  0  0  0  0  0  0  0  0
  130.3980  131.7900   57.2570 C   0  0  0  0  0  0  0  0  0  0  0  0
  130.0420  132.8560   56.4240 C   0  0  0  0  0  0  0  0  0  0  0  0
  128.8190  132.8420   55.7410 C   0  0  0  0  0  0  0  0  0  0  0  0
  127.9430  131.7620   55.8870 C   0  0  0  0  0  0  0  0  0  0  0  0
  128.3160  130.7090   56.7240 C   0  0  0  0  0  0  0  0  0  0  0  0
  127.6130  129.4500   57.0720 C   0  0  0  0  0  0  0  0  0  0  0  0
  126.5140  129.0770   56.6640 O   0  0  0  0  0  0  0  0  0  0  0  0
  132.2640  123.8080   60.9180 C   0  0  2  0  0  0  0  0  0  0  0  0
  133.2340  124.4010   61.9800 C   0  0  0  0  0  0  0  0  0  0  0  0
  132.5880  124.6580   63.3300 C   0  0  0  0  0  0  0  0  0  0  0  0
  133.2800  125.3910   64.3170 C   0  0  0  0  0  0  0  0  0  0  0  0
  132.6510  125.7100   65.5140 C   0  0  0  0  0  0  0  0  0  0  0  0
  131.3320  125.3340   65.7340 C   0  0  0  0  0  0  0  0  0  0  0  0
  130.6270  124.6450   64.7560 C   0  0  0  0  0  0  0  0  0  0  0  0
  131.2370  124.3160   63.5530 C   0  0  0  0  0  0  0  0  0  0  0  0
  132.1410  122.3230   61.0370 N   0  0  0  0  0  0  0  0  0  0  0  0
  130.9260  121.7110   61.1200 C   0  0  0  0  0  0  0  0  0  0  0  0
  129.8210  122.2500   61.1880 O   0  0  0  0  0  0  0  0  0  0  0  0
  131.2140  120.2560   61.1000 C   0  0  0  0  0  0  0  0  0  0  0  0
  130.3590  119.1540   61.1450 C   0  0  0  0  0  0  0  0  0  0  0  0
  130.9160  117.8710   61.0880 C   0  0  0  0  0  0  0  0  0  0  0  0
  132.3040  117.7080   60.9900 C   0  0  0  0  0  0  0  0  0  0  0  0
  133.1450  118.8250   60.9490 C   0  0  0  0  0  0  0  0  0  0  0  0
  132.5700  120.0950   61.0040 C   0  0  0  0  0  0  0  0  0  0  0  0
  133.1850  121.4450   60.9530 C   0  0  0  0  0  0  0  0  0  0  0  0
  134.3820  121.7140   60.8430 O   0  0  0  0  0  0  0  0  0  0  0  0
  130.9690  125.5030   59.6950 H   0  0  0  0  0  0  0  0  0  0  0  0
  127.7199  127.7176   59.5297 H   0  0  0  0  0  0  0  0  0  0  0  0
  126.1291  126.7407   58.3121 H   0  0  0  0  0  0  0  0  0  0  0  0
  127.0902  126.9552   56.7639 H   0  0  0  0  0  0  0  0  0  0  0  0
  128.1851  125.1843   55.7376 H   0  0  0  0  0  0  0  0  0  0  0  0
  128.7079  122.7453   55.6676 H   0  0  0  0  0  0  0  0  0  0  0  0
  128.2107  121.3141   57.6446 H   0  0  0  0  0  0  0  0  0  0  0  0
  127.1896  122.3013   59.6923 H   0  0  0  0  0  0  0  0  0  0  0  0
  126.6617  124.7384   59.7623 H   0  0  0  0  0  0  0  0  0  0  0  0
  131.3572  131.7937   57.7955 H   0  0  0  0  0  0  0  0  0  0  0  0
  130.7257  133.7094   56.3047 H   0  0  0  0  0  0  0  0  0  0  0  0
  128.5468  133.6838   55.0874 H   0  0  0  0  0  0  0  0  0  0  0  0
  126.9810  131.7426   55.3540 H   0  0  0  0  0  0  0  0  0  0  0  0
  131.2679  124.2123   61.1510 H   0  0  0  0  0  0  0  0  0  0  0  0
  134.0647  123.6943   62.1228 H   0  0  0  0  0  0  0  0  0  0  0  0
  133.5691  125.3759   61.5963 H   0  0  0  0  0  0  0  0  0  0  0  0
  134.3176  125.7100   64.1388 H   0  0  0  0  0  0  0  0  0  0  0  0
  133.1998  126.2626   66.2908 H   0  0  0  0  0  0  0  0  0  0  0  0
  130.8436  125.5833   66.6876 H   0  0  0  0  0  0  0  0  0  0  0  0
  129.5802  124.3585   64.9353 H   0  0  0  0  0  0  0  0  0  0  0  0
  130.6673  123.7887   62.7736 H   0  0  0  0  0  0  0  0  0  0  0  0
  129.2704  119.2907   61.2236 H   0  0  0  0  0  0  0  0  0  0  0  0
  130.2614  116.9875   61.1203 H   0  0  0  0  0  0  0  0  0  0  0  0
  132.7345  116.6968   60.9451 H   0  0  0  0  0  0  0  0  0  0  0  0
  134.2359  118.7047   60.8750 H   0  0  0  0  0  0  0  0  0  0  0  0
  1  2  2  0
  2  3  1  0
  3  4  1  0
  4  5  2  0
  4  6  1  0
  6  7  2  0
  7  8  1  0
  7  9  1  0
  9 10  1  0
 10 11  1  0
 11 12  2  0
 12 13  1  0
 13 14  2  0
 14 15  1  0
 15 16  2  0
  9 17  1  0
 17 18  1  0
 18 19  2  0
 18 20  1  0
 20 21  2  0
 21 22  1  0
 22 23  2  0
 23 24  1  0
 24 25  2  0
 25 26  1  0
 26 27  2  0
  2 28  1  0
 28 29  1  0
 29 30  1  0
 30 31  2  0
 31 32  1  0
 32 33  2  0
 33 34  1  0
 34 35  2  0
 28 36  1  0
 36 37  1  0
 37 38  2  0
 37 39  1  0
 39 40  2  0
 40 41  1  0
 41 42  2  0
 42 43  1  0
 43 44  2  0
 44 45  1  0
 45 46  2  0
 16 11  1  0
 26 17  1  0
 35 30  1  0
 45 36  1  0
 25 20  1  0
 44 39  1  0
  3 47  1  0
  9 48  1  1
 10 49  1  0
 10 50  1  0
 12 51  1  0
 13 52  1  0
 14 53  1  0
 15 54  1  0
 16 55  1  0
 21 56  1  0
 22 57  1  0
 23 58  1  0
 24 59  1  0
 28 60  1  1
 29 61  1  0
 29 62  1  0
 31 63  1  0
 32 64  1  0
 33 65  1  0
 34 66  1  0
 35 67  1  0
 40 68  1  0
 41 69  1  0
 42 70  1  0
 43 71  1  0
M  CHG  1   8  -1
M  END
>  <Binding energies>  (1) 
[-11.08]

>  <Ligand effiencies>  (1) 
[-0.23574468085106384]

>  <Interactions>  (1) 
["V-A:HIS:456:CE1:4066, V-A:LEU:475:CD2:4256, V-B:TYR:539:CD1:9845, V-B:TYR:539:C:9839, V-B:GLU:543:CB:9878, V-B:TYR:539:CE1:9847, V-B:GLU:543:CD:9880, V-A:ARG:545:CZ:4924, V-B:PRO:540:CA:9855, V-B:ALA:541:CB:9864, V-A:ASP:366:CG:3210, V-B:PRO:540:N:9856, H-B:TYR:531:OH:9767, V-A:ARG:545:CD:4921, V-A:ARG:545:CG:4920, V-A:TYR:539:CE1:4873, V-A:TYR:539:C:4865, V-A:PRO:540:N:4882, V-A:TYR:539:CA:4867, V-A:ILE:538:CA:4858, V-A:ILE:538:C:4856, V-B:TYR:539:CG:9844, V-A:TYR:539:CG:4870, V-A:ILE:538:CB:4860, V-A:MET:535:CE:4833, V-B:TYR:539:CZ:9849, V-B:TYR:539:CA:9841, V-A:TYR:531:CZ:4792, V-B:MET:535:CE:9807, V-A:ILE:369:CG2:3234, V-A:LEU:373:CD1:3277, V-A:PRO:482:CG:4324, V-A:SER:385:CA:3404, V-A:SER:385:CB:3406, V-A:PRO:482:CB:4323, V-A:TYR:539:CD2:4872, V-A:TYR:539:CE2:4874, V-A:TYR:539:CZ:4875, V-A:ASP:366:CB:3209, H-B:TYR:539:OH:9850, V-A:ASN:370:CB:3242, V-A:TYR:531:CE1:4790"]

$$$$
RR1_Rahimova_2017
     RDKit          3D

 68 71  0  0  0  0  0  0  0  0999 V2000
  126.0510  122.9430   56.3010 C   0  0  0  0  0  0  0  0  0  0  0  0
  127.3030  122.3740   56.6670 O   0  0  0  0  0  0  0  0  0  0  0  0
  127.9440  122.8300   57.8020 C   0  0  0  0  0  0  0  0  0  0  0  0
  129.2630  123.3110   57.8270 C   0  0  0  0  0  0  0  0  0  0  0  0
  129.8300  123.7440   59.0220 C   0  0  0  0  0  0  0  0  0  0  0  0
  129.0920  123.7100   60.2070 C   0  0  0  0  0  0  0  0  0  0  0  0
  129.7680  124.1250   61.3700 N   0  0  0  0  0  0  0  0  0  0  0  0
  130.1690  123.3960   62.4330 C   0  0  0  0  0  0  0  0  0  0  0  0
  129.9320  122.1980   62.5910 O   0  0  0  0  0  0  0  0  0  0  0  0
  130.9660  124.1820   63.4850 C   0  0  0  0  0  0  0  0  0  0  0  0
  132.7830  124.0240   63.3700 S   0  0  0  0  0  0  0  0  0  0  0  0
  132.8380  122.7660   62.1390 C   0  0  0  0  0  0  0  0  0  0  0  0
  132.3530  121.5600   62.2970 N   0  0  0  0  0  0  0  0  0  0  0  0
  132.5970  120.9640   61.1350 C   0  0  0  0  0  0  0  0  0  0  0  0
  132.1900  119.5440   60.8580 C   0  0  0  0  0  0  0  0  0  0  0  0
  133.1230  118.5810   60.4430 C   0  0  0  0  0  0  0  0  0  0  0  0
  132.7150  117.2700   60.1900 C   0  0  0  0  0  0  0  0  0  0  0  0
  131.3700  116.9490   60.3600 C   0  0  0  0  0  0  0  0  0  0  0  0
  130.4410  117.8540   60.7600 N   0  0  0  0  0  0  0  0  0  0  0  0
  130.8590  119.1230   61.0010 C   0  0  0  0  0  0  0  0  0  0  0  0
  133.2180  121.7070   60.2380 N   0  0  0  0  0  0  0  0  0  0  0  0
  133.3750  122.8670   60.8820 N   0  0  0  0  0  0  0  0  0  0  0  0
  134.0150  124.0040   60.2210 C   0  0  0  0  0  0  0  0  0  0  0  0
  133.1500  124.7120   59.1630 C   0  0  0  0  0  0  0  0  0  0  0  0
  133.1940  124.3690   57.9770 O   0  0  0  0  0  0  0  0  0  0  0  0
  132.3730  125.7050   59.6370 N   0  0  0  0  0  0  0  0  0  0  0  0
  131.4590  126.2900   58.7720 N   0  0  0  0  0  0  0  0  0  0  0  0
  130.3230  126.7940   59.3010 C   0  0  0  0  0  0  0  0  0  0  0  0
  130.0940  126.8600   60.5140 O   0  0  0  0  0  0  0  0  0  0  0  0
  129.3120  127.3220   58.3030 C   0  0  0  0  0  0  0  0  0  0  0  0
  129.6070  127.3060   56.9360 C   0  0  0  0  0  0  0  0  0  0  0  0
  128.6990  127.7960   56.0030 C   0  0  0  0  0  0  0  0  0  0  0  0
  127.4660  128.3270   56.4130 C   0  0  0  0  0  0  0  0  0  0  0  0
  126.5250  128.8430   55.5390 O   0  0  0  0  0  0  0  0  0  0  0  0
  126.3000  130.2480   55.5000 C   0  0  0  0  0  0  0  0  0  0  0  0
  127.1540  128.3600   57.7790 C   0  0  0  0  0  0  0  0  0  0  0  0
  125.9340  128.9120   58.1320 O   0  0  0  0  0  0  0  0  0  0  0  0
  125.7700  129.4890   59.4220 C   0  0  0  0  0  0  0  0  0  0  0  0
  128.0780  127.8540   58.7110 C   0  0  0  0  0  0  0  0  0  0  0  0
  127.7740  123.2310   60.1860 C   0  0  0  0  0  0  0  0  0  0  0  0
  127.2100  122.8000   58.9890 C   0  0  0  0  0  0  0  0  0  0  0  0
  125.4856  123.2000   57.2089 H   0  0  0  0  0  0  0  0  0  0  0  0
  126.2214  123.8521   55.7056 H   0  0  0  0  0  0  0  0  0  0  0  0
  125.4782  122.2168   55.7056 H   0  0  0  0  0  0  0  0  0  0  0  0
  129.8508  123.3457   56.8979 H   0  0  0  0  0  0  0  0  0  0  0  0
  130.8654  124.1151   59.0331 H   0  0  0  0  0  0  0  0  0  0  0  0
  129.9430  125.1190   61.4180 H   0  0  0  0  0  0  0  0  0  0  0  0
  130.7104  125.2466   63.3789 H   0  0  0  0  0  0  0  0  0  0  0  0
  130.6855  123.7553   64.4593 H   0  0  0  0  0  0  0  0  0  0  0  0
  134.1794  118.8602   60.3166 H   0  0  0  0  0  0  0  0  0  0  0  0
  133.4386  116.5083   59.8641 H   0  0  0  0  0  0  0  0  0  0  0  0
  131.0467  115.9165   60.1613 H   0  0  0  0  0  0  0  0  0  0  0  0
  130.1126  119.8625   61.3266 H   0  0  0  0  0  0  0  0  0  0  0  0
  134.2821  124.7412   60.9925 H   0  0  0  0  0  0  0  0  0  0  0  0
  134.8856  123.5981   59.6851 H   0  0  0  0  0  0  0  0  0  0  0  0
  132.1660  125.8600   60.6140 H   0  0  0  0  0  0  0  0  0  0  0  0
  131.4600  125.8340   57.8710 H   0  0  0  0  0  0  0  0  0  0  0  0
  130.5705  126.9003   56.5938 H   0  0  0  0  0  0  0  0  0  0  0  0
  128.9499  127.7670   54.9324 H   0  0  0  0  0  0  0  0  0  0  0  0
  126.2375  130.6380   56.5267 H   0  0  0  0  0  0  0  0  0  0  0  0
  127.1311  130.7379   54.9716 H   0  0  0  0  0  0  0  0  0  0  0  0
  125.3574  130.4539   54.9716 H   0  0  0  0  0  0  0  0  0  0  0  0
  125.9848  128.7331   60.1918 H   0  0  0  0  0  0  0  0  0  0  0  0
  126.4631  130.3355   59.5358 H   0  0  0  0  0  0  0  0  0  0  0  0
  124.7353  129.8444   59.5358 H   0  0  0  0  0  0  0  0  0  0  0  0
  127.8288  127.8754   59.7822 H   0  0  0  0  0  0  0  0  0  0  0  0
  127.1864  123.1960   61.1152 H   0  0  0  0  0  0  0  0  0  0  0  0
  126.1737  122.4314   58.9781 H   0  0  0  0  0  0  0  0  0  0  0  0
  1  2  1  0
  2  3  1  0
  3  4  2  0
  4  5  1  0
  5  6  2  0
  6  7  1  0
  7  8  1  0
  8  9  2  0
  8 10  1  0
 10 11  1  0
 11 12  1  0
 12 13  2  0
 13 14  1  0
 14 15  1  0
 15 16  2  0
 16 17  1  0
 17 18  2  0
 18 19  1  0
 19 20  2  0
 14 21  2  0
 21 22  1  0
 22 23  1  0
 23 24  1  0
 24 25  2  0
 24 26  1  0
 26 27  1  0
 27 28  1  0
 28 29  2  0
 28 30  1  0
 30 31  2  0
 31 32  1  0
 32 33  2  0
 33 34  1  0
 34 35  1  0
 33 36  1  0
 36 37  1  0
 37 38  1  0
 36 39  2  0
  6 40  1  0
 40 41  2  0
 41  3  1  0
 22 12  1  0
 39 30  1  0
 20 15  1  0
  1 42  1  0
  1 43  1  0
  1 44  1  0
  4 45  1  0
  5 46  1  0
  7 47  1  0
 10 48  1  0
 10 49  1  0
 16 50  1  0
 17 51  1  0
 18 52  1  0
 20 53  1  0
 23 54  1  0
 23 55  1  0
 26 56  1  0
 27 57  1  0
 31 58  1  0
 32 59  1  0
 35 60  1  0
 35 61  1  0
 35 62  1  0
 38 63  1  0
 38 64  1  0
 38 65  1  0
 39 66  1  0
 40 67  1  0
 41 68  1  0
M  END
>  <Binding energies>  (1) 
[-8.08]

>  <Ligand effiencies>  (1) 
[-0.18363636363636363]

>  <Interactions>  (1) 
["V-A:LEU:475:CD2:4256, H-A:TYR:484:OH:4345, V-B:TYR:539:CD1:9845, V-B:TYR:539:C:9839, V-B:ASP:366:CG:8184, V-B:TYR:539:CE1:9847, V-B:PRO:540:CB:9857, V-B:PRO:540:CA:9855, H-A:ASP:366:OD2:3212, H-A:ASP:366:OD1:3211, V-A:ASP:366:CG:3210, V-B:ASP:366:CB:8183, V-B:PRO:540:N:9856, H-B:TYR:531:OH:9767, V-A:ILE:369:CD1:3236, V-B:ILE:538:CB:9834, H-B:TYR:539:N:9842, V-A:MET:535:CE:4833, V-B:TYR:539:CZ:9849, V-B:ILE:538:CG2:9835, V-B:ILE:538:CA:9832, V-B:MET:535:CE:9807, V-A:ILE:369:CG2:3234, V-A:ILE:369:CB:3233, V-A:LEU:373:CD1:3277, V-A:PRO:482:CG:4324, V-A:SER:385:CA:3404, V-A:SER:385:CB:3406, V-B:TYR:531:CE1:9764, V-A:TYR:539:CZ:4875, V-B:ASN:370:CG:8217, V-A:ASP:366:CB:3209, V-A:ASP:366:CA:3207, H-B:TYR:539:OH:9850, H-A:GLY:454:N:4047"]

$$$$
RR20_Rahimova_2017
     RDKit          3D

 68 73  0  0  0  0  0  0  0  0999 V2000
  134.0190  131.7280   59.5430 C   0  0  0  0  0  0  0  0  0  0  0  0
  132.7570  131.7410   58.7000 C   0  0  0  0  0  0  0  0  0  0  0  0
  131.5070  131.7540   59.3200 C   0  0  0  0  0  0  0  0  0  0  0  0
  130.3480  131.7740   58.5490 C   0  0  0  0  0  0  0  0  0  0  0  0
  130.4290  131.7690   57.1510 C   0  0  0  0  0  0  0  0  0  0  0  0
  129.1580  131.8130   56.3320 C   0  0  0  0  0  0  0  0  0  0  0  0
  129.0410  132.7220   55.5080 O   0  0  0  0  0  0  0  0  0  0  0  0
  128.2070  130.8520   56.5210 N   0  0  0  0  0  0  0  0  0  0  0  0
  126.8640  130.9690   55.9300 C   0  0  0  0  0  0  0  0  0  0  0  0
  126.1510  129.6600   56.2240 C   0  0  0  0  0  0  0  0  0  0  0  0
  127.2720  128.7530   56.6310 C   0  0  0  0  0  0  0  0  0  0  0  0
  127.2360  127.3930   56.9360 C   0  0  0  0  0  0  0  0  0  0  0  0
  128.3640  126.7480   57.4590 C   0  0  0  0  0  0  0  0  0  0  0  0
  128.3280  125.2800   57.7800 C   0  0  0  0  0  0  0  0  0  0  0  0
  129.1310  124.8230   58.7270 N   0  0  0  0  0  0  0  0  0  0  0  0
  129.0020  123.5380   58.9360 C   0  0  0  0  0  0  0  0  0  0  0  0
  129.6810  122.7480   59.8520 N   0  0  0  0  0  0  0  0  0  0  0  0
  129.1970  122.2530   61.0170 C   0  0  0  0  0  0  0  0  0  0  0  0
  128.0440  122.4290   61.4150 O   0  0  0  0  0  0  0  0  0  0  0  0
  130.1420  121.3910   61.8880 C   0  0  0  0  0  0  0  0  0  0  0  0
  131.0140  122.1970   62.7620 N   0  0  0  0  0  0  0  0  0  0  0  0
  132.1030  122.8500   62.0190 C   0  0  0  0  0  0  0  0  0  0  0  0
  133.1310  123.4530   63.0030 C   0  0  0  0  0  0  0  0  0  0  0  0
  132.4790  124.2330   64.1450 C   0  0  0  0  0  0  0  0  0  0  0  0
  133.2370  125.0670   64.9740 C   0  0  0  0  0  0  0  0  0  0  0  0
  132.6500  125.7480   66.0380 C   0  0  0  0  0  0  0  0  0  0  0  0
  131.2880  125.6020   66.2840 C   0  0  0  0  0  0  0  0  0  0  0  0
  130.5190  124.7820   65.4610 C   0  0  0  0  0  0  0  0  0  0  0  0
  131.0970  124.0920   64.3900 C   0  0  0  0  0  0  0  0  0  0  0  0
  130.2440  123.2380   63.4520 C   0  0  0  0  0  0  0  0  0  0  0  0
  127.8410  122.7670   57.9270 S   0  0  0  0  0  0  0  0  0  0  0  0
  127.5160  124.3040   57.1630 C   0  0  0  0  0  0  0  0  0  0  0  0
  126.5220  124.4000   56.0260 C   0  0  0  0  0  0  0  0  0  0  0  0
  129.5110  127.5140   57.7200 C   0  0  0  0  0  0  0  0  0  0  0  0
  129.5440  128.8780   57.4340 C   0  0  0  0  0  0  0  0  0  0  0  0
  128.4380  129.4930   56.8330 C   0  0  0  0  0  0  0  0  0  0  0  0
  131.6870  131.7860   56.5360 C   0  0  0  0  0  0  0  0  0  0  0  0
  132.8470  131.7660   57.3070 C   0  0  0  0  0  0  0  0  0  0  0  0
  133.7479  131.7308   60.6091 H   0  0  0  0  0  0  0  0  0  0  0  0
  134.6026  130.8238   59.3155 H   0  0  0  0  0  0  0  0  0  0  0  0
  134.6211  132.6200   59.3155 H   0  0  0  0  0  0  0  0  0  0  0  0
  131.4374  131.7484   60.4178 H   0  0  0  0  0  0  0  0  0  0  0  0
  129.3640  131.7938   59.0403 H   0  0  0  0  0  0  0  0  0  0  0  0
  126.3197  131.8094   56.3855 H   0  0  0  0  0  0  0  0  0  0  0  0
  126.9194  131.1589   54.8479 H   0  0  0  0  0  0  0  0  0  0  0  0
  125.4230  129.7803   57.0398 H   0  0  0  0  0  0  0  0  0  0  0  0
  125.5720  129.2791   55.3698 H   0  0  0  0  0  0  0  0  0  0  0  0
  126.3124  126.8208   56.7642 H   0  0  0  0  0  0  0  0  0  0  0  0
  130.6400  122.5300   59.6230 H   0  0  0  0  0  0  0  0  0  0  0  0
  129.5308  120.7278   62.5178 H   0  0  0  0  0  0  0  0  0  0  0  0
  130.7927  120.8241   61.2060 H   0  0  0  0  0  0  0  0  0  0  0  0
  132.6034  122.1077   61.3798 H   0  0  0  0  0  0  0  0  0  0  0  0
  131.6829  123.6557   61.3990 H   0  0  0  0  0  0  0  0  0  0  0  0
  133.7265  122.6342   63.4330 H   0  0  0  0  0  0  0  0  0  0  0  0
  133.7540  124.1600   62.4355 H   0  0  0  0  0  0  0  0  0  0  0  0
  134.3136  125.1869   64.7826 H   0  0  0  0  0  0  0  0  0  0  0  0
  133.2606  126.3986   66.6813 H   0  0  0  0  0  0  0  0  0  0  0  0
  130.8198  126.1327   67.1261 H   0  0  0  0  0  0  0  0  0  0  0  0
  129.4417  124.6756   65.6562 H   0  0  0  0  0  0  0  0  0  0  0  0
  129.4518  122.7543   64.0422 H   0  0  0  0  0  0  0  0  0  0  0  0
  129.8332  123.9072   62.6817 H   0  0  0  0  0  0  0  0  0  0  0  0
  125.5056  124.4982   56.4349 H   0  0  0  0  0  0  0  0  0  0  0  0
  126.7553  125.2798   55.4083 H   0  0  0  0  0  0  0  0  0  0  0  0
  126.5826  123.4918   55.4083 H   0  0  0  0  0  0  0  0  0  0  0  0
  130.3973  127.0306   58.1569 H   0  0  0  0  0  0  0  0  0  0  0  0
  130.4374  129.4707   57.6799 H   0  0  0  0  0  0  0  0  0  0  0  0
  131.7595  131.8153   55.4388 H   0  0  0  0  0  0  0  0  0  0  0  0
  133.8328  131.7699   56.8189 H   0  0  0  0  0  0  0  0  0  0  0  0
  1  2  1  0
  2  3  2  0
  3  4  1  0
  4  5  2  0
  5  6  1  0
  6  7  2  0
  6  8  1  0
  8  9  1  0
  9 10  1  0
 10 11  1  0
 11 12  2  0
 12 13  1  0
 13 14  1  0
 14 15  1  0
 15 16  2  0
 16 17  1  0
 17 18  1  0
 18 19  2  0
 18 20  1  0
 20 21  1  0
 21 22  1  0
 22 23  1  0
 23 24  1  0
 24 25  2  0
 25 26  1  0
 26 27  2  0
 27 28  1  0
 28 29  2  0
 29 30  1  0
 16 31  1  0
 31 32  1  0
 32 33  1  0
 13 34  2  0
 34 35  1  0
 35 36  2  0
  5 37  1  0
 37 38  2  0
 38  2  1  0
 36  8  1  0
 36 11  1  0
 32 14  2  0
 30 21  1  0
 29 24  1  0
  1 39  1  0
  1 40  1  0
  1 41  1  0
  3 42  1  0
  4 43  1  0
  9 44  1  0
  9 45  1  0
 10 46  1  0
 10 47  1  0
 12 48  1  0
 17 49  1  0
 20 50  1  0
 20 51  1  0
 22 52  1  0
 22 53  1  0
 23 54  1  0
 23 55  1  0
 25 56  1  0
 26 57  1  0
 27 58  1  0
 28 59  1  0
 30 60  1  0
 30 61  1  0
 33 62  1  0
 33 63  1  0
 33 64  1  0
 34 65  1  0
 35 66  1  0
 37 67  1  0
 38 68  1  0
M  END
>  <Binding energies>  (1) 
[-10.17]

>  <Ligand effiencies>  (1) 
[-0.26076923076923075]

>  <Interactions>  (1) 
["V-A:HIS:456:CE1:4066, V-B:GLU:543:CG:9879, V-A:LEU:475:CD2:4256, V-A:GLY:454:CA:4046, V-B:TYR:539:CD1:9845, V-B:TYR:539:C:9839, V-B:GLU:543:CB:9878, V-B:TYR:539:CE1:9847, V-B:GLU:543:CD:9880, V-A:ARG:545:CZ:4924, V-B:PRO:540:CA:9855, V-B:ALA:541:CB:9864, V-A:ASP:366:CG:3210, V-B:PRO:540:N:9856, V-A:ARG:545:CD:4921, V-A:ARG:545:CG:4920, V-A:TYR:539:CE1:4873, V-A:PRO:540:CA:4881, V-A:PRO:540:CB:4883, V-A:PRO:540:N:4882, V-A:LEU:363:CD1:3186, V-A:MET:535:CE:4833, V-A:TYR:531:CE2:4791, V-B:MET:535:CE:9807, V-B:TYR:531:CZ:9766, V-A:TYR:539:CE2:4874, V-B:TYR:531:CE1:9764, V-A:TYR:539:CZ:4875, H-B:ALA:541:N:9863, H-A:TYR:539:N:4868, V-A:LEU:363:CA:3182, V-A:LEU:363:CB:3184, V-A:ASN:362:C:3169"]

$$$$
RR20_Rahimova_2017-again1
     RDKit          3D

 68 73  0  0  0  0  0  0  0  0999 V2000
  123.8260  123.9150   58.0360 C   0  0  0  0  0  0  0  0  0  0  0  0
  125.2420  123.8630   57.4910 C   0  0  0  0  0  0  0  0  0  0  0  0
  125.6510  122.7750   56.7190 C   0  0  0  0  0  0  0  0  0  0  0  0
  126.9470  122.7290   56.2120 C   0  0  0  0  0  0  0  0  0  0  0  0
  127.8480  123.7660   56.4820 C   0  0  0  0  0  0  0  0  0  0  0  0
  129.2460  123.7080   55.9080 C   0  0  0  0  0  0  0  0  0  0  0  0
  129.3920  123.1750   54.8060 O   0  0  0  0  0  0  0  0  0  0  0  0
  130.2780  124.2650   56.6080 N   0  0  0  0  0  0  0  0  0  0  0  0
  131.0990  125.3440   56.0360 C   0  0  0  0  0  0  0  0  0  0  0  0
  132.0320  125.8060   57.1440 C   0  0  0  0  0  0  0  0  0  0  0  0
  131.4110  125.2070   58.3710 C   0  0  0  0  0  0  0  0  0  0  0  0
  131.7860  125.3580   59.7070 C   0  0  0  0  0  0  0  0  0  0  0  0
  131.1850  124.5820   60.7100 C   0  0  0  0  0  0  0  0  0  0  0  0
  131.5920  124.7390   62.1470 C   0  0  0  0  0  0  0  0  0  0  0  0
  130.6390  124.8620   63.0570 N   0  0  0  0  0  0  0  0  0  0  0  0
  131.0840  125.0030   64.2820 C   0  0  0  0  0  0  0  0  0  0  0  0
  130.3770  125.1940   65.4400 N   0  0  0  0  0  0  0  0  0  0  0  0
  130.8450  125.7430   66.5110 C   0  0  0  0  0  0  0  0  0  0  0  0
  131.9440  126.2780   66.7530 O   0  0  0  0  0  0  0  0  0  0  0  0
  129.8580  125.7430   67.6960 C   0  0  0  0  0  0  0  0  0  0  0  0
  129.2830  127.1740   67.9080 N   0  0  2  0  0  0  0  0  0  0  0  0
  130.3760  128.2040   68.2580 C   0  0  0  0  0  0  0  0  0  0  0  0
  130.9950  127.8700   69.6270 C   0  0  0  0  0  0  0  0  0  0  0  0
  129.9530  127.6190   70.7130 C   0  0  0  0  0  0  0  0  0  0  0  0
  130.3170  127.7160   72.0610 C   0  0  0  0  0  0  0  0  0  0  0  0
  129.4050  127.4470   73.0780 C   0  0  0  0  0  0  0  0  0  0  0  0
  128.1060  127.0760   72.7560 C   0  0  0  0  0  0  0  0  0  0  0  0
  127.7240  126.9880   71.4200 C   0  0  0  0  0  0  0  0  0  0  0  0
  128.6240  127.2620   70.3840 C   0  0  0  0  0  0  0  0  0  0  0  0
  128.1250  127.1980   68.9350 C   0  0  0  0  0  0  0  0  0  0  0  0
  132.8050  125.0180   64.3830 S   0  0  0  0  0  0  0  0  0  0  0  0
  132.9050  124.7720   62.6560 C   0  0  0  0  0  0  0  0  0  0  0  0
  134.2510  124.6170   61.9790 C   0  0  0  0  0  0  0  0  0  0  0  0
  130.2360  123.6230   60.3320 C   0  0  0  0  0  0  0  0  0  0  0  0
  129.8730  123.4570   58.9950 C   0  0  0  0  0  0  0  0  0  0  0  0
  130.4220  124.2920   58.0130 C   0  0  0  0  0  0  0  0  0  0  0  0
  127.4210  124.8690   57.2320 C   0  0  0  0  0  0  0  0  0  0  0  0
  126.1250  124.9150   57.7380 C   0  0  0  0  0  0  0  0  0  0  0  0
  123.8561  123.9139   59.1356 H   0  0  0  0  0  0  0  0  0  0  0  0
  123.3309  124.8319   57.6836 H   0  0  0  0  0  0  0  0  0  0  0  0
  123.2650  123.0369   57.6836 H   0  0  0  0  0  0  0  0  0  0  0  0
  124.9496  121.9536   56.5109 H   0  0  0  0  0  0  0  0  0  0  0  0
  127.2643  121.8742   55.5967 H   0  0  0  0  0  0  0  0  0  0  0  0
  131.6802  124.9676   55.1813 H   0  0  0  0  0  0  0  0  0  0  0  0
  130.4726  126.1713   55.6709 H   0  0  0  0  0  0  0  0  0  0  0  0
  133.0517  125.4237   56.9888 H   0  0  0  0  0  0  0  0  0  0  0  0
  132.1368  126.8997   57.1980 H   0  0  0  0  0  0  0  0  0  0  0  0
  132.5598  126.0921   59.9762 H   0  0  0  0  0  0  0  0  0  0  0  0
  129.0334  125.0466   67.4836 H   0  0  0  0  0  0  0  0  0  0  0  0
  130.3869  125.4270   68.6073 H   0  0  0  0  0  0  0  0  0  0  0  0
  128.9010  127.4550   67.0140 H   0  0  0  0  0  0  0  0  0  0  0  0
  131.1606  128.1786   67.4875 H   0  0  0  0  0  0  0  0  0  0  0  0
  129.9267  129.2072   68.2999 H   0  0  0  0  0  0  0  0  0  0  0  0
  131.6131  126.9664   69.5201 H   0  0  0  0  0  0  0  0  0  0  0  0
  131.5884  128.7421   69.9388 H   0  0  0  0  0  0  0  0  0  0  0  0
  131.3441  128.0106   72.3221 H   0  0  0  0  0  0  0  0  0  0  0  0
  129.7118  127.5279   74.1313 H   0  0  0  0  0  0  0  0  0  0  0  0
  127.3818  126.8526   73.5533 H   0  0  0  0  0  0  0  0  0  0  0  0
  126.6923  126.6968   71.1735 H   0  0  0  0  0  0  0  0  0  0  0  0
  127.5235  126.2856   68.8093 H   0  0  0  0  0  0  0  0  0  0  0  0
  127.5308  128.1043   68.7465 H   0  0  0  0  0  0  0  0  0  0  0  0
  135.0374  124.5264   62.7428 H   0  0  0  0  0  0  0  0  0  0  0  0
  134.2438  123.7137   61.3512 H   0  0  0  0  0  0  0  0  0  0  0  0
  134.4493  125.4982   61.3512 H   0  0  0  0  0  0  0  0  0  0  0  0
  129.7695  122.9907   61.1018 H   0  0  0  0  0  0  0  0  0  0  0  0
  129.1567  122.6715   58.7123 H   0  0  0  0  0  0  0  0  0  0  0  0
  128.1129  125.7028   57.4221 H   0  0  0  0  0  0  0  0  0  0  0  0
  125.7970  125.7805   58.3325 H   0  0  0  0  0  0  0  0  0  0  0  0
  1  2  1  0
  2  3  2  0
  3  4  1  0
  4  5  2  0
  5  6  1  0
  6  7  2  0
  6  8  1  0
  8  9  1  0
  9 10  1  0
 10 11  1  0
 11 12  2  0
 12 13  1  0
 13 14  1  0
 14 15  1  0
 15 16  2  0
 16 17  1  0
 17 18  2  0
 18 19  1  0
 18 20  1  0
 20 21  1  0
 21 22  1  0
 22 23  1  0
 23 24  1  0
 24 25  2  0
 25 26  1  0
 26 27  2  0
 27 28  1  0
 28 29  2  0
 29 30  1  0
 16 31  1  0
 31 32  1  0
 32 33  1  0
 13 34  2  0
 34 35  1  0
 35 36  2  0
  5 37  1  0
 37 38  2  0
 38  2  1  0
 36  8  1  0
 36 11  1  0
 32 14  2  0
 30 21  1  0
 29 24  1  0
  1 39  1  0
  1 40  1  0
  1 41  1  0
  3 42  1  0
  4 43  1  0
  9 44  1  0
  9 45  1  0
 10 46  1  0
 10 47  1  0
 12 48  1  0
 20 49  1  0
 20 50  1  0
 21 51  1  6
 22 52  1  0
 22 53  1  0
 23 54  1  0
 23 55  1  0
 25 56  1  0
 26 57  1  0
 27 58  1  0
 28 59  1  0
 30 60  1  0
 30 61  1  0
 33 62  1  0
 33 63  1  0
 33 64  1  0
 34 65  1  0
 35 66  1  0
 37 67  1  0
 38 68  1  0
M  CHG  2  19  -1  21   1
M  END
>  <Binding energies>  (1) 
[-9.95]

>  <Ligand effiencies>  (1) 
[-0.2551282051282051]

>  <Interactions>  (1) 
["V-B:LYS:547:CE:9922, V-B:HIS:456:CE1:9040, V-A:HIS:456:CE1:4066, V-A:GLY:544:C:4910, V-B:GLU:543:CG:9879, H-A:TYR:484:OH:4345, V-B:TYR:539:CD1:9845, V-B:ASP:366:CG:8184, V-B:GLU:543:CB:9878, V-B:TYR:539:CE1:9847, V-B:GLU:543:CD:9880, V-B:PRO:540:CB:9857, V-A:ARG:545:CZ:4924, H-B:GLU:543:OE2:9882, V-A:ASP:366:CG:3210, V-B:ASP:366:CB:8183, H-A:GLU:543:OE2:4908, V-B:PRO:540:N:9856, V-A:GLU:543:CD:4906, V-A:GLY:453:CA:4041, V-A:ILE:369:CD1:3236, H-A:ARG:545:NE:4922, V-A:GLY:453:C:4039, V-B:TYR:539:CE2:9848, V-B:ILE:538:CB:9834, V-B:PRO:540:CD:9859, V-B:TYR:539:CZ:9849, V-B:ILE:538:CG2:9835, V-B:ILE:538:CA:9832, V-B:MET:535:CE:9807, V-A:GLU:543:CB:4904, H-A:ASN:370:ND2:3245, V-A:ASP:366:CB:3209, V-B:TYR:531:CE2:9765, H-B:TYR:539:OH:9850, V-B:LEU:363:CD1:8160, V-B:GLY:544:CA:9886, V-B:GLU:543:C:9874, V-A:GLU:543:C:4900, V-A:GLY:544:CA:4912, V-B:GLY:544:C:9884, V-A:GLU:543:CG:4905, V-B:LEU:363:CA:8156, V-B:LEU:363:CB:8158"]

$$$$
RR21_Rahimova_2017
     RDKit          3D

 62 67  0  0  0  0  0  0  0  0999 V2000
  131.4780  127.3130   67.5320 C   0  0  0  0  0  0  0  0  0  0  0  0
  132.4310  126.4940   66.8610 O   0  0  0  0  0  0  0  0  0  0  0  0
  131.9980  125.6090   65.8920 C   0  0  0  0  0  0  0  0  0  0  0  0
  130.7050  125.0590   65.8450 C   0  0  0  0  0  0  0  0  0  0  0  0
  130.3470  124.1730   64.8300 C   0  0  0  0  0  0  0  0  0  0  0  0
  131.2650  123.8170   63.8350 C   0  0  0  0  0  0  0  0  0  0  0  0
  130.8760  122.8700   62.7430 C   0  0  0  0  0  0  0  0  0  0  0  0
  131.5390  121.7400   62.5870 N   0  0  0  0  0  0  0  0  0  0  0  0
  130.9760  121.1030   61.5490 N   0  0  0  0  0  0  0  0  0  0  0  0
  131.4400  119.8320   61.1200 C   0  0  0  0  0  0  0  0  0  0  0  0
  132.7790  119.6460   60.7430 C   0  0  0  0  0  0  0  0  0  0  0  0
  133.2220  118.3930   60.3290 C   0  0  0  0  0  0  0  0  0  0  0  0
  132.3310  117.3230   60.2890 C   0  0  0  0  0  0  0  0  0  0  0  0
  130.9990  117.4960   60.6570 C   0  0  0  0  0  0  0  0  0  0  0  0
  130.5520  118.7470   61.0720 C   0  0  0  0  0  0  0  0  0  0  0  0
  129.9300  121.8390   61.0520 C   0  0  0  0  0  0  0  0  0  0  0  0
  129.8370  123.0070   61.7930 C   0  0  0  0  0  0  0  0  0  0  0  0
  128.8560  124.0750   61.6700 C   0  0  0  0  0  0  0  0  0  0  0  0
  128.5940  124.8510   60.5930 C   0  0  0  0  0  0  0  0  0  0  0  0
  129.3800  124.8070   58.9980 S   0  0  0  0  0  0  0  0  0  0  0  0
  128.3170  126.0970   58.4550 C   0  0  0  0  0  0  0  0  0  0  0  0
  128.2710  126.6490   57.2820 N   0  0  0  0  0  0  0  0  0  0  0  0
  127.3470  127.6840   56.9670 C   0  0  0  0  0  0  0  0  0  0  0  0
  127.2260  128.2420   55.8770 O   0  0  0  0  0  0  0  0  0  0  0  0
  126.4600  128.0770   58.1160 C   0  0  0  0  0  0  0  0  0  0  0  0
  125.4360  129.1990   57.9000 C   0  0  0  0  0  0  0  0  0  0  0  0
  125.2930  130.1570   59.0810 C   0  0  0  0  0  0  0  0  0  0  0  0
  126.4270  130.5770   59.7820 C   0  0  0  0  0  0  0  0  0  0  0  0
  126.2980  131.4630   60.8480 C   0  0  0  0  0  0  0  0  0  0  0  0
  125.0360  131.9340   61.2150 C   0  0  0  0  0  0  0  0  0  0  0  0
  124.9030  132.9100   62.3700 C   0  0  0  0  0  0  0  0  0  0  0  0
  123.9030  131.5250   60.5080 C   0  0  0  0  0  0  0  0  0  0  0  0
  124.0310  130.6380   59.4430 C   0  0  0  0  0  0  0  0  0  0  0  0
  126.5210  127.5220   59.2820 N   0  0  0  0  0  0  0  0  0  0  0  0
  127.4710  126.5060   59.4520 N   0  0  0  0  0  0  0  0  0  0  0  0
  127.5640  125.8780   60.6500 C   0  0  0  0  0  0  0  0  0  0  0  0
  126.8690  126.1400   61.6390 O   0  0  0  0  0  0  0  0  0  0  0  0
  132.5540  124.3590   63.8850 C   0  0  0  0  0  0  0  0  0  0  0  0
  132.9150  125.2450   64.9000 C   0  0  0  0  0  0  0  0  0  0  0  0
  134.1700  125.7520   64.9190 F   0  0  0  0  0  0  0  0  0  0  0  0
  131.6032  127.2054   68.6195 H   0  0  0  0  0  0  0  0  0  0  0  0
  131.6328  128.3642   67.2473 H   0  0  0  0  0  0  0  0  0  0  0  0
  130.4621  127.0018   67.2473 H   0  0  0  0  0  0  0  0  0  0  0  0
  129.9691  125.3303   66.6162 H   0  0  0  0  0  0  0  0  0  0  0  0
  129.3322  123.7491   64.8108 H   0  0  0  0  0  0  0  0  0  0  0  0
  133.4804  120.4928   60.7748 H   0  0  0  0  0  0  0  0  0  0  0  0
  134.2719  118.2483   60.0345 H   0  0  0  0  0  0  0  0  0  0  0  0
  132.6826  116.3327   59.9639 H   0  0  0  0  0  0  0  0  0  0  0  0
  130.3019  116.6459   60.6198 H   0  0  0  0  0  0  0  0  0  0  0  0
  129.5002  118.8853   61.3630 H   0  0  0  0  0  0  0  0  0  0  0  0
  129.2793  121.5525   60.2127 H   0  0  0  0  0  0  0  0  0  0  0  0
  128.2509  124.2769   62.5661 H   0  0  0  0  0  0  0  0  0  0  0  0
  125.7444  129.7817   57.0194 H   0  0  0  0  0  0  0  0  0  0  0  0
  124.4584  128.7118   57.7701 H   0  0  0  0  0  0  0  0  0  0  0  0
  127.4214  130.2074   59.4913 H   0  0  0  0  0  0  0  0  0  0  0  0
  127.1902  131.7919   61.4010 H   0  0  0  0  0  0  0  0  0  0  0  0
  124.9774  132.3639   63.3220 H   0  0  0  0  0  0  0  0  0  0  0  0
  125.7075  133.6580   62.3125 H   0  0  0  0  0  0  0  0  0  0  0  0
  123.9277  133.4154   62.3125 H   0  0  0  0  0  0  0  0  0  0  0  0
  122.9102  131.9036   60.7927 H   0  0  0  0  0  0  0  0  0  0  0  0
  123.1390  130.3153   58.8860 H   0  0  0  0  0  0  0  0  0  0  0  0
  133.2904  124.0835   63.1157 H   0  0  0  0  0  0  0  0  0  0  0  0
  1  2  1  0
  2  3  1  0
  3  4  2  0
  4  5  1  0
  5  6  2  0
  6  7  1  0
  7  8  2  0
  8  9  1  0
  9 10  1  0
 10 11  2  0
 11 12  1  0
 12 13  2  0
 13 14  1  0
 14 15  2  0
  9 16  1  0
 16 17  2  0
 17 18  1  0
 18 19  2  0
 19 20  1  0
 20 21  1  0
 21 22  2  0
 22 23  1  0
 23 24  2  0
 23 25  1  0
 25 26  1  0
 26 27  1  0
 27 28  2  0
 28 29  1  0
 29 30  2  0
 30 31  1  0
 30 32  1  0
 32 33  2  0
 25 34  2  0
 34 35  1  0
 35 36  1  0
 36 37  2  0
  6 38  1  0
 38 39  2  0
 39 40  1  0
 39  3  1  0
 17  7  1  0
 36 19  1  0
 15 10  1  0
 35 21  1  0
 33 27  1  0
  1 41  1  0
  1 42  1  0
  1 43  1  0
  4 44  1  0
  5 45  1  0
 11 46  1  0
 12 47  1  0
 13 48  1  0
 14 49  1  0
 15 50  1  0
 16 51  1  0
 18 52  1  0
 26 53  1  0
 26 54  1  0
 28 55  1  0
 29 56  1  0
 31 57  1  0
 31 58  1  0
 31 59  1  0
 32 60  1  0
 33 61  1  0
 38 62  1  0
M  END
>  <Binding energies>  (1) 
[-9.19]

>  <Ligand effiencies>  (1) 
[-0.22974999999999998]

>  <Interactions>  (1) 
["V-A:HIS:456:CE1:4066, V-A:LEU:475:CD2:4256, H-A:TYR:484:OH:4345, V-B:TYR:539:CD1:9845, V-B:ASP:366:CG:8184, V-B:GLU:543:CB:9878, V-B:TYR:539:CE1:9847, V-B:GLU:543:CD:9880, V-A:ARG:545:CZ:4924, V-B:ALA:541:CB:9864, V-A:TYR:484:CZ:4344, V-B:ASP:366:CB:8183, H-B:TYR:531:OH:9767, V-A:GLU:543:CD:4906, V-A:ARG:545:CD:4921, V-A:GLY:453:CA:4041, V-A:ARG:545:CG:4920, H-A:ARG:545:NE:4922, V-A:GLY:453:C:4039, H-B:ARG:545:NH2:9900, V-A:TYR:539:CE1:4873, V-B:LEU:475:CD2:9230, V-B:ILE:369:CD1:8210, V-B:ILE:369:CG2:8208, V-A:ILE:369:CG2:3234, V-A:LEU:373:CD1:3277, V-A:PRO:482:CG:4324, V-A:SER:385:CA:3404, V-A:SER:385:CB:3406, V-A:PRO:482:CB:4323, V-B:TYR:539:CB:9843, V-A:GLU:543:CG:4905, V-B:ASP:366:CA:8181, V-B:ILE:369:CB:8207"]

$$$$
RR22_Rahimova_2017
     RDKit          3D

 49 54  0  0  0  0  0  0  0  0999 V2000
  126.1310  122.8730   61.0970 O   0  0  0  0  0  0  0  0  0  0  0  0
  127.3060  123.1710   60.8960 C   0  0  0  0  0  0  0  0  0  0  0  0
  128.2960  123.3850   61.8390 N   0  0  0  0  0  0  0  0  0  0  0  0
  129.6400  123.6660   61.4340 C   0  0  1  0  0  0  0  0  0  0  0  0
  129.9720  124.9030   62.0720 O   0  0  0  0  0  0  0  0  0  0  0  0
  131.0550  124.9250   62.9510 C   0  0  0  0  0  0  0  0  0  0  0  0
  131.1270  126.0130   63.8210 C   0  0  0  0  0  0  0  0  0  0  0  0
  132.2030  126.1260   64.7020 C   0  0  0  0  0  0  0  0  0  0  0  0
  133.2070  125.1560   64.7070 C   0  0  0  0  0  0  0  0  0  0  0  0
  133.1340  124.0680   63.8360 C   0  0  0  0  0  0  0  0  0  0  0  0
  132.0500  123.9290   62.9640 C   0  0  0  0  0  0  0  0  0  0  0  0
  131.9000  122.8130   61.9550 C   0  0  1  0  0  0  0  0  0  0  0  0
  132.4320  121.4160   62.2000 C   0  0  0  0  0  0  0  0  0  0  0  0
  131.4200  120.6040   61.3870 C   0  0  0  0  0  0  0  0  0  0  0  0
  131.6740  119.2150   60.9550 C   0  0  0  0  0  0  0  0  0  0  0  0
  130.6080  118.3290   60.7390 C   0  0  0  0  0  0  0  0  0  0  0  0
  130.8530  117.0210   60.3310 C   0  0  0  0  0  0  0  0  0  0  0  0
  132.1630  116.5910   60.1360 C   0  0  0  0  0  0  0  0  0  0  0  0
  133.2320  117.4580   60.3450 C   0  0  0  0  0  0  0  0  0  0  0  0
  132.9890  118.7670   60.7520 C   0  0  0  0  0  0  0  0  0  0  0  0
  130.3540  121.2780   61.1700 N   0  0  0  0  0  0  0  0  0  0  0  0
  130.5060  122.5320   61.7860 N   0  0  0  0  0  0  0  0  0  0  0  0
  129.5950  123.9340   59.9370 C   0  0  0  0  0  0  0  0  0  0  0  0
  130.5940  124.5590   59.2700 C   0  0  0  0  0  0  0  0  0  0  0  0
  130.6890  124.8620   57.8290 C   0  0  0  0  0  0  0  0  0  0  0  0
  129.8670  124.2640   56.8630 C   0  0  0  0  0  0  0  0  0  0  0  0
  130.0140  124.5990   55.5170 C   0  0  0  0  0  0  0  0  0  0  0  0
  130.9930  125.5290   55.1660 C   0  0  0  0  0  0  0  0  0  0  0  0
  131.8070  126.1180   56.0770 N   0  0  0  0  0  0  0  0  0  0  0  0
  131.6480  125.7790   57.3820 C   0  0  0  0  0  0  0  0  0  0  0  0
  128.0490  123.4120   59.2530 S   0  0  0  0  0  0  0  0  0  0  0  0
  128.0800  123.3880   62.8240 H   0  0  0  0  0  0  0  0  0  0  0  0
  130.3380  126.7794   63.8125 H   0  0  0  0  0  0  0  0  0  0  0  0
  132.2603  126.9799   65.3931 H   0  0  0  0  0  0  0  0  0  0  0  0
  134.0572  125.2494   65.3987 H   0  0  0  0  0  0  0  0  0  0  0  0
  133.9352  123.3143   63.8355 H   0  0  0  0  0  0  0  0  0  0  0  0
  132.4986  123.2483   61.1412 H   0  0  0  0  0  0  0  0  0  0  0  0
  133.4558  121.2952   61.8163 H   0  0  0  0  0  0  0  0  0  0  0  0
  132.5148  121.1292   63.2587 H   0  0  0  0  0  0  0  0  0  0  0  0
  129.5734  118.6696   60.8928 H   0  0  0  0  0  0  0  0  0  0  0  0
  130.0144  116.3292   60.1631 H   0  0  0  0  0  0  0  0  0  0  0  0
  132.3549  115.5569   59.8139 H   0  0  0  0  0  0  0  0  0  0  0  0
  134.2639  117.1104   60.1893 H   0  0  0  0  0  0  0  0  0  0  0  0
  133.8322  119.4543   60.9155 H   0  0  0  0  0  0  0  0  0  0  0  0
  131.4474  124.8837   59.8834 H   0  0  0  0  0  0  0  0  0  0  0  0
  129.1059  123.5303   57.1669 H   0  0  0  0  0  0  0  0  0  0  0  0
  129.3728  124.1405   54.7498 H   0  0  0  0  0  0  0  0  0  0  0  0
  131.1096  125.7959   54.1053 H   0  0  0  0  0  0  0  0  0  0  0  0
  132.3068  126.2492   58.1269 H   0  0  0  0  0  0  0  0  0  0  0  0
  1  2  2  0
  2  3  1  0
  3  4  1  0
  4  5  1  1
  5  6  1  0
  6  7  2  0
  7  8  1  0
  8  9  2  0
  9 10  1  0
 10 11  2  0
 11 12  1  0
 12 13  1  0
 13 14  1  0
 14 15  1  0
 15 16  2  0
 16 17  1  0
 17 18  2  0
 18 19  1  0
 19 20  2  0
 14 21  2  0
 21 22  1  0
  4 23  1  0
 23 24  2  0
 24 25  1  0
 25 26  2  0
 26 27  1  0
 27 28  2  0
 28 29  1  0
 29 30  2  0
 23 31  1  0
 31  2  1  0
 22  4  1  0
 30 25  1  0
 11  6  1  0
 22 12  1  0
 20 15  1  0
  3 32  1  0
  7 33  1  0
  8 34  1  0
  9 35  1  0
 10 36  1  0
 12 37  1  6
 13 38  1  0
 13 39  1  0
 16 40  1  0
 17 41  1  0
 18 42  1  0
 19 43  1  0
 20 44  1  0
 24 45  1  0
 26 46  1  0
 27 47  1  0
 28 48  1  0
 30 49  1  0
M  END
>  <Binding energies>  (1) 
[-9.35]

>  <Ligand effiencies>  (1) 
[-0.2921875]

>  <Interactions>  (1) 
["V-A:LEU:475:CD2:4256, V-A:GLY:454:CA:4046, V-B:TYR:539:CD1:9845, V-B:PRO:540:C:9853, V-B:TYR:539:CE1:9847, V-A:ARG:545:CZ:4924, V-B:PRO:540:CA:9855, V-B:ALA:541:CB:9864, H-B:GLU:543:OE1:9881, V-A:ARG:545:CD:4921, V-B:TYR:539:CE2:9848, V-B:TYR:539:CZ:9849, V-A:TYR:531:CZ:4792, V-B:MET:535:CE:9807, H-A:TYR:531:OH:4793, V-A:LEU:373:CD1:3277, V-A:PRO:482:CG:4324, V-A:SER:385:CA:3404, V-A:SER:385:CB:3406, V-A:PRO:482:CB:4323, H-B:ALA:541:N:9863, V-A:ASP:366:CB:3209, H-B:TYR:539:OH:9850, V-A:ASN:370:CG:3243, V-A:TYR:531:CE1:4790, V-B:TYR:539:CB:9843, V-B:VAL:344:CG1:7972"]

$$$$
RR23_Rahimova_2017
     RDKit          3D

 65 70  0  0  0  0  0  0  0  0999 V2000
  133.6130  131.6050   60.9260 C   0  0  0  0  0  0  0  0  0  0  0  0
  132.5090  131.6990   59.8890 C   0  0  0  0  0  0  0  0  0  0  0  0
  132.8230  131.6720   58.5300 C   0  0  0  0  0  0  0  0  0  0  0  0
  131.8080  131.7480   57.5790 C   0  0  0  0  0  0  0  0  0  0  0  0
  130.4730  131.8650   57.9800 C   0  0  0  0  0  0  0  0  0  0  0  0
  129.3840  131.9260   56.9320 C   0  0  0  0  0  0  0  0  0  0  0  0
  129.4450  132.8310   56.0970 O   0  0  0  0  0  0  0  0  0  0  0  0
  128.3950  130.9820   56.9370 N   0  0  0  0  0  0  0  0  0  0  0  0
  127.2540  131.0590   56.0110 C   0  0  0  0  0  0  0  0  0  0  0  0
  126.4570  129.7800   56.2080 C   0  0  0  0  0  0  0  0  0  0  0  0
  127.4130  128.9040   56.9590 C   0  0  0  0  0  0  0  0  0  0  0  0
  127.2670  127.5710   57.3440 C   0  0  0  0  0  0  0  0  0  0  0  0
  128.2130  126.9680   58.1870 C   0  0  0  0  0  0  0  0  0  0  0  0
  128.0900  125.5040   58.6350 C   0  0  2  0  0  0  0  0  0  0  0  0
  128.9540  125.2010   59.7550 N   0  0  0  0  0  0  0  0  0  0  0  0
  129.3650  123.9970   59.7250 C   0  0  0  0  0  0  0  0  0  0  0  0
  130.2070  123.3760   60.5940 N   0  0  0  0  0  0  0  0  0  0  0  0
  130.9160  123.9190   61.6120 C   0  0  0  0  0  0  0  0  0  0  0  0
  130.8840  125.1020   61.9570 O   0  0  0  0  0  0  0  0  0  0  0  0
  131.8310  122.9470   62.3750 C   0  0  0  0  0  0  0  0  0  0  0  0
  131.6080  121.5730   61.8690 N   0  0  0  0  0  0  0  0  0  0  0  0
  130.2930  121.1280   61.9140 N   0  0  0  0  0  0  0  0  0  0  0  0
  129.9660  119.9450   61.5010 N   0  0  0  0  0  0  0  0  0  0  0  0
  130.9480  119.0890   60.9970 C   0  0  0  0  0  0  0  0  0  0  0  0
  130.5620  117.8190   60.5620 C   0  0  0  0  0  0  0  0  0  0  0  0
  131.5200  116.9410   60.0530 C   0  0  0  0  0  0  0  0  0  0  0  0
  132.8600  117.3290   59.9790 C   0  0  0  0  0  0  0  0  0  0  0  0
  133.2480  118.5980   60.4140 C   0  0  0  0  0  0  0  0  0  0  0  0
  132.2860  119.4790   60.9220 C   0  0  0  0  0  0  0  0  0  0  0  0
  132.6860  120.8550   61.4010 C   0  0  0  0  0  0  0  0  0  0  0  0
  133.8460  121.2780   61.3840 O   0  0  0  0  0  0  0  0  0  0  0  0
  128.7900  122.9780   58.3730 S   0  0  0  0  0  0  0  0  0  0  0  0
  128.2870  124.4720   57.5000 C   0  0  2  0  0  0  0  0  0  0  0  0
  129.3490  124.8120   56.4320 C   0  0  0  0  0  0  0  0  0  0  0  0
  129.2750  127.7400   58.6710 C   0  0  0  0  0  0  0  0  0  0  0  0
  129.4100  129.0800   58.3040 C   0  0  0  0  0  0  0  0  0  0  0  0
  128.5070  129.6510   57.3980 C   0  0  0  0  0  0  0  0  0  0  0  0
  130.1620  131.8630   59.3460 C   0  0  0  0  0  0  0  0  0  0  0  0
  131.1770  131.7860   60.2960 C   0  0  0  0  0  0  0  0  0  0  0  0
  133.1736  131.6424   61.9337 H   0  0  0  0  0  0  0  0  0  0  0  0
  134.1566  130.6573   60.7980 H   0  0  0  0  0  0  0  0  0  0  0  0
  134.3090  132.4471   60.7980 H   0  0  0  0  0  0  0  0  0  0  0  0
  133.8721  131.5907   58.2094 H   0  0  0  0  0  0  0  0  0  0  0  0
  132.0574  131.7159   56.5081 H   0  0  0  0  0  0  0  0  0  0  0  0
  126.6318  131.9353   56.2454 H   0  0  0  0  0  0  0  0  0  0  0  0
  127.5912  131.1632   54.9692 H   0  0  0  0  0  0  0  0  0  0  0  0
  125.5463  129.9675   56.7958 H   0  0  0  0  0  0  0  0  0  0  0  0
  126.1086  129.3349   55.2644 H   0  0  0  0  0  0  0  0  0  0  0  0
  126.4053  126.9893   56.9847 H   0  0  0  0  0  0  0  0  0  0  0  0
  127.0443  125.4047   58.9616 H   0  0  0  0  0  0  0  0  0  0  0  0
  130.3600  122.3910   60.4330 H   0  0  0  0  0  0  0  0  0  0  0  0
  132.8821  123.2310   62.2186 H   0  0  0  0  0  0  0  0  0  0  0  0
  131.6008  122.9879   63.4499 H   0  0  0  0  0  0  0  0  0  0  0  0
  129.5073  117.5122   60.6204 H   0  0  0  0  0  0  0  0  0  0  0  0
  131.2191  115.9404   59.7090 H   0  0  0  0  0  0  0  0  0  0  0  0
  133.6113  116.6333   59.5771 H   0  0  0  0  0  0  0  0  0  0  0  0
  134.3032  118.9035   60.3578 H   0  0  0  0  0  0  0  0  0  0  0  0
  127.3568  124.4073   56.9165 H   0  0  0  0  0  0  0  0  0  0  0  0
  130.2844  125.1115   56.9274 H   0  0  0  0  0  0  0  0  0  0  0  0
  129.5335  123.9280   55.8039 H   0  0  0  0  0  0  0  0  0  0  0  0
  128.9858  125.6388   55.8039 H   0  0  0  0  0  0  0  0  0  0  0  0
  130.0124  127.2854   59.3489 H   0  0  0  0  0  0  0  0  0  0  0  0
  130.2247  129.6870   58.7258 H   0  0  0  0  0  0  0  0  0  0  0  0
  129.1122  131.9225   59.6692 H   0  0  0  0  0  0  0  0  0  0  0  0
  130.9289  131.7937   61.3676 H   0  0  0  0  0  0  0  0  0  0  0  0
  1  2  1  0
  2  3  2  0
  3  4  1  0
  4  5  2  0
  5  6  1  0
  6  7  2  0
  6  8  1  0
  8  9  1  0
  9 10  1  0
 10 11  1  0
 11 12  2  0
 12 13  1  0
 13 14  1  0
 14 15  1  0
 15 16  2  0
 16 17  1  0
 17 18  1  0
 18 19  2  0
 18 20  1  0
 20 21  1  0
 21 22  1  0
 22 23  2  0
 23 24  1  0
 24 25  2  0
 25 26  1  0
 26 27  2  0
 27 28  1  0
 28 29  2  0
 29 30  1  0
 30 31  2  0
 16 32  1  0
 32 33  1  0
 33 34  1  0
 13 35  2  0
 35 36  1  0
 36 37  2  0
  5 38  1  0
 38 39  2  0
 39  2  1  0
 37  8  1  0
 37 11  1  0
 33 14  1  0
 30 21  1  0
 29 24  1  0
  1 40  1  0
  1 41  1  0
  1 42  1  0
  3 43  1  0
  4 44  1  0
  9 45  1  0
  9 46  1  0
 10 47  1  0
 10 48  1  0
 12 49  1  0
 14 50  1  1
 17 51  1  0
 20 52  1  0
 20 53  1  0
 25 54  1  0
 26 55  1  0
 27 56  1  0
 28 57  1  0
 33 58  1  6
 34 59  1  0
 34 60  1  0
 34 61  1  0
 35 62  1  0
 36 63  1  0
 38 64  1  0
 39 65  1  0
M  END
>  <Binding energies>  (1) 
[-10.29]

>  <Ligand effiencies>  (1) 
[-0.25725]

>  <Interactions>  (1) 
["V-A:LEU:475:CD2:4256, V-B:TYR:539:CD1:9845, V-B:TYR:539:CE1:9847, V-A:TYR:539:CE1:4873, V-A:PRO:540:CA:4881, V-A:PRO:540:CB:4883, V-A:PRO:540:N:4882, V-A:MET:535:CE:4833, V-B:MET:535:CE:9807, V-A:ILE:369:CG2:3234, V-A:LEU:373:CD1:3277, V-A:PRO:482:CG:4324, V-A:SER:385:CA:3404, V-A:SER:385:CB:3406, V-A:PRO:482:CB:4323, V-A:TYR:539:CE2:4874, V-A:TYR:539:CZ:4875, V-B:TYR:539:CB:9843, V-A:PRO:540:C:4879, H-A:TYR:539:N:4868, V-A:ASN:362:CB:3173, V-A:ASN:362:C:3169"]

$$$$
RR24_Rahimova_2017
     RDKit          3D

 65 71  0  0  0  0  0  0  0  0999 V2000
  124.7770  122.7090   56.7160 C   0  0  0  0  0  0  0  0  0  0  0  0
  125.9670  123.6210   56.3840 C   0  0  2  0  0  0  0  0  0  0  0  0
  127.2140  122.8410   55.8700 C   0  0  0  0  0  0  0  0  0  0  0  0
  127.4820  122.7530   54.6680 O   0  0  0  0  0  0  0  0  0  0  0  0
  127.9260  122.2680   56.8840 O   0  0  0  0  0  0  0  0  0  0  0  0
  128.7230  123.0550   57.6840 C   0  0  0  0  0  0  0  0  0  0  0  0
  129.5660  123.9990   57.0930 C   0  0  0  0  0  0  0  0  0  0  0  0
  130.3700  124.8070   57.8930 C   0  0  0  0  0  0  0  0  0  0  0  0
  130.3290  124.6810   59.2840 C   0  0  0  0  0  0  0  0  0  0  0  0
  131.2300  125.5610   60.1580 C   0  0  1  0  0  0  0  0  0  0  0  0
  130.9610  127.0670   59.9340 C   0  0  0  0  0  0  0  0  0  0  0  0
  130.7300  127.9240   60.9460 C   0  0  0  0  0  0  0  0  0  0  0  0
  130.7150  127.5210   62.2580 N   0  0  0  0  0  0  0  0  0  0  0  0
  130.9360  126.2090   62.6050 C   0  0  0  0  0  0  0  0  0  0  0  0
  130.8970  125.9770   63.9420 N   0  0  0  0  0  0  0  0  0  0  0  0
  131.0150  124.7270   64.4680 C   0  0  0  0  0  0  0  0  0  0  0  0
  130.6600  124.5270   65.6310 O   0  0  0  0  0  0  0  0  0  0  0  0
  131.3830  123.7590   63.5470 N   0  0  0  0  0  0  0  0  0  0  0  0
  131.6130  122.4010   64.0820 C   0  0  0  0  0  0  0  0  0  0  0  0
  131.4510  123.8850   62.1700 C   0  0  0  0  0  0  0  0  0  0  0  0
  131.7370  122.9610   61.4020 O   0  0  0  0  0  0  0  0  0  0  0  0
  131.1750  125.2400   61.6820 C   0  0  0  0  0  0  0  0  0  0  0  0
  130.5100  129.2700   60.4430 C   0  0  0  0  0  0  0  0  0  0  0  0
  130.2320  130.4860   61.0700 C   0  0  0  0  0  0  0  0  0  0  0  0
  130.0690  131.6330   60.2890 C   0  0  0  0  0  0  0  0  0  0  0  0
  130.1850  131.5610   58.8980 C   0  0  0  0  0  0  0  0  0  0  0  0
  130.4630  130.3400   58.2760 C   0  0  0  0  0  0  0  0  0  0  0  0
  130.6230  129.1970   59.0610 C   0  0  0  0  0  0  0  0  0  0  0  0
  130.9210  127.8010   58.6740 C   0  0  0  0  0  0  0  0  0  0  0  0
  131.1010  127.3160   57.5590 O   0  0  0  0  0  0  0  0  0  0  0  0
  129.4700  123.7470   59.8730 C   0  0  0  0  0  0  0  0  0  0  0  0
  128.6640  122.9410   59.0750 C   0  0  0  0  0  0  0  0  0  0  0  0
  126.2990  124.5430   57.5100 N   0  0  0  0  0  0  0  0  0  0  0  0
  126.0400  124.2080   58.8060 C   0  0  0  0  0  0  0  0  0  0  0  0
  125.5200  123.1710   59.2210 O   0  0  0  0  0  0  0  0  0  0  0  0
  126.5150  125.3590   59.6130 C   0  0  0  0  0  0  0  0  0  0  0  0
  126.5040  125.5740   60.9920 C   0  0  0  0  0  0  0  0  0  0  0  0
  127.0300  126.7730   61.4870 C   0  0  0  0  0  0  0  0  0  0  0  0
  127.5560  127.7290   60.6090 C   0  0  0  0  0  0  0  0  0  0  0  0
  127.5580  127.4950   59.2300 C   0  0  0  0  0  0  0  0  0  0  0  0
  127.0270  126.2940   58.7550 C   0  0  0  0  0  0  0  0  0  0  0  0
  126.8940  125.7670   57.3750 C   0  0  0  0  0  0  0  0  0  0  0  0
  127.2500  126.3150   56.3300 O   0  0  0  0  0  0  0  0  0  0  0  0
  124.6708  122.6276   57.8078 H   0  0  0  0  0  0  0  0  0  0  0  0
  123.8575  123.1359   56.2890 H   0  0  0  0  0  0  0  0  0  0  0  0
  124.9502  121.7102   56.2890 H   0  0  0  0  0  0  0  0  0  0  0  0
  125.6410  124.2483   55.5412 H   0  0  0  0  0  0  0  0  0  0  0  0
  129.5947  124.1039   55.9984 H   0  0  0  0  0  0  0  0  0  0  0  0
  131.0391  125.5464   57.4287 H   0  0  0  0  0  0  0  0  0  0  0  0
  132.2478  125.3132   59.8223 H   0  0  0  0  0  0  0  0  0  0  0  0
  130.5410  128.1990   62.9870 H   0  0  0  0  0  0  0  0  0  0  0  0
  130.7500  126.7330   64.5940 H   0  0  0  0  0  0  0  0  0  0  0  0
  131.6074  122.4342   65.1815 H   0  0  0  0  0  0  0  0  0  0  0  0
  130.8159  121.7289   63.7314 H   0  0  0  0  0  0  0  0  0  0  0  0
  132.5870  122.0289   63.7314 H   0  0  0  0  0  0  0  0  0  0  0  0
  130.1424  130.5404   62.1650 H   0  0  0  0  0  0  0  0  0  0  0  0
  129.8484  132.5969   60.7710 H   0  0  0  0  0  0  0  0  0  0  0  0
  130.0570  132.4687   58.2900 H   0  0  0  0  0  0  0  0  0  0  0  0
  130.5545  130.2809   57.1814 H   0  0  0  0  0  0  0  0  0  0  0  0
  129.4317  123.6497   60.9680 H   0  0  0  0  0  0  0  0  0  0  0  0
  127.9808  122.2145   59.5392 H   0  0  0  0  0  0  0  0  0  0  0  0
  126.0908  124.8174   61.6752 H   0  0  0  0  0  0  0  0  0  0  0  0
  127.0302  126.9652   62.5701 H   0  0  0  0  0  0  0  0  0  0  0  0
  127.9694  128.6680   61.0057 H   0  0  0  0  0  0  0  0  0  0  0  0
  127.9692  128.2413   58.5343 H   0  0  0  0  0  0  0  0  0  0  0  0
  1  2  1  0
  2  3  1  0
  3  4  2  0
  3  5  1  0
  5  6  1  0
  6  7  2  0
  7  8  1  0
  8  9  2  0
  9 10  1  0
 10 11  1  0
 11 12  2  0
 12 13  1  0
 13 14  1  0
 14 15  1  0
 15 16  1  0
 16 17  2  0
 16 18  1  0
 18 19  1  0
 18 20  1  0
 20 21  2  0
 20 22  1  0
 12 23  1  0
 23 24  2  0
 24 25  1  0
 25 26  2  0
 26 27  1  0
 27 28  2  0
 28 29  1  0
 29 30  2  0
  9 31  1  0
 31 32  2  0
  2 33  1  0
 33 34  1  0
 34 35  2  0
 34 36  1  0
 36 37  2  0
 37 38  1  0
 38 39  2  0
 39 40  1  0
 40 41  2  0
 41 42  1  0
 42 43  2  0
 32  6  1  0
 42 33  1  0
 22 10  1  0
 28 23  1  0
 41 36  1  0
 29 11  1  0
 22 14  2  0
  1 44  1  0
  1 45  1  0
  1 46  1  0
  2 47  1  6
  7 48  1  0
  8 49  1  0
 10 50  1  6
 13 51  1  0
 15 52  1  0
 19 53  1  0
 19 54  1  0
 19 55  1  0
 24 56  1  0
 25 57  1  0
 26 58  1  0
 27 59  1  0
 31 60  1  0
 32 61  1  0
 37 62  1  0
 38 63  1  0
 39 64  1  0
 40 65  1  0
M  END
>  <Binding energies>  (1) 
[-10.0]

>  <Ligand effiencies>  (1) 
[-0.2222222222222222]

>  <Interactions>  (1) 
["V-A:LEU:475:CD2:4256, H-A:TYR:484:OH:4345, V-B:TYR:539:CD1:9845, V-B:TYR:539:C:9839, V-B:ASP:366:CG:8184, V-A:TYR:484:CE2:4343, V-B:TYR:539:CE1:9847, V-B:GLU:543:CD:9880, V-B:PRO:540:CB:9857, V-A:TYR:484:CZ:4344, V-A:ASP:366:CG:3210, H-A:GLU:543:OE2:4908, H-A:GLU:543:OE1:4907, V-B:PRO:540:N:9856, H-B:TYR:531:OH:9767, V-A:GLU:543:CD:4906, V-A:PRO:540:CA:4881, V-B:TYR:539:CG:9844, V-B:ILE:538:CB:9834, H-B:TYR:539:N:9842, V-B:PRO:540:CD:9859, V-B:TYR:539:CZ:9849, V-B:ILE:538:CG2:9835, V-B:ILE:538:CA:9832, V-B:MET:535:CE:9807, H-A:TYR:531:OH:4793, V-B:LEU:363:CD1:8160"]

$$$$
RR24_Rahimova_2017-again1
     RDKit          3D

 63 69  0  0  0  0  0  0  0  0999 V2000
  128.4240  133.3880   61.6700 C   0  0  0  0  0  0  0  0  0  0  0  0
  128.2280  132.3530   60.5540 C   0  0  2  0  0  0  0  0  0  0  0  0
  127.6100  131.0150   61.0530 C   0  0  0  0  0  0  0  0  0  0  0  0
  126.4670  130.6630   60.7380 O   0  0  0  0  0  0  0  0  0  0  0  0
  128.4510  130.3210   61.8750 O   0  0  0  0  0  0  0  0  0  0  0  0
  128.7220  128.9980   61.6120 C   0  0  0  0  0  0  0  0  0  0  0  0
  129.1210  128.1570   62.6520 C   0  0  0  0  0  0  0  0  0  0  0  0
  129.3770  126.8130   62.3980 C   0  0  0  0  0  0  0  0  0  0  0  0
  129.2280  126.3000   61.1050 C   0  0  0  0  0  0  0  0  0  0  0  0
  129.5090  124.8180   60.8190 C   0  0  1  0  0  0  0  0  0  0  0  0
  128.6180  124.2870   59.6720 C   0  0  0  0  0  0  0  0  0  0  0  0
  127.2800  124.1360   59.5560 C   0  0  0  0  0  0  0  0  0  0  0  0
  126.4240  124.4000   60.4840 O   0  0  0  0  0  0  0  0  0  0  0  0
  126.9380  123.6570   58.2180 C   0  0  0  0  0  0  0  0  0  0  0  0
  125.7140  123.3600   57.6050 C   0  0  0  0  0  0  0  0  0  0  0  0
  125.6950  122.9170   56.2810 C   0  0  0  0  0  0  0  0  0  0  0  0
  126.8910  122.7690   55.5760 C   0  0  0  0  0  0  0  0  0  0  0  0
  128.1090  123.0640   56.1920 C   0  0  0  0  0  0  0  0  0  0  0  0
  128.1250  123.5110   57.5150 C   0  0  0  0  0  0  0  0  0  0  0  0
  129.2100  123.8730   58.4110 C   0  0  0  0  0  0  0  0  0  0  0  0
  130.4750  123.8520   58.2200 N   0  0  0  0  0  0  0  0  0  0  0  0
  131.3550  124.1130   59.2280 C   0  0  0  0  0  0  0  0  0  0  0  0
  132.6540  123.8840   58.8780 N   0  0  0  0  0  0  0  0  0  0  0  0
  133.5870  124.1080   59.7340 C   0  0  0  0  0  0  0  0  0  0  0  0
  134.7280  123.8700   59.3050 O   0  0  0  0  0  0  0  0  0  0  0  0
  133.3220  124.5720   61.0220 N   0  0  0  0  0  0  0  0  0  0  0  0
  134.3750  124.8410   62.0290 C   0  0  0  0  0  0  0  0  0  0  0  0
  132.0380  124.8150   61.4690 C   0  0  0  0  0  0  0  0  0  0  0  0
  131.7580  125.2020   62.6080 O   0  0  0  0  0  0  0  0  0  0  0  0
  130.9940  124.5640   60.4700 C   0  0  0  0  0  0  0  0  0  0  0  0
  128.8160  127.1430   60.0680 C   0  0  0  0  0  0  0  0  0  0  0  0
  128.5570  128.4870   60.3220 C   0  0  0  0  0  0  0  0  0  0  0  0
  129.4760  132.1410   59.7620 N   0  0  0  0  0  0  0  0  0  0  0  0
  129.4820  132.2320   58.4030 C   0  0  0  0  0  0  0  0  0  0  0  0
  128.5280  132.4820   57.6640 O   0  0  0  0  0  0  0  0  0  0  0  0
  130.8850  131.9650   57.9960 C   0  0  0  0  0  0  0  0  0  0  0  0
  131.4780  131.9210   56.7330 C   0  0  0  0  0  0  0  0  0  0  0  0
  132.8450  131.6400   56.6450 C   0  0  0  0  0  0  0  0  0  0  0  0
  133.5960  131.4100   57.8060 C   0  0  0  0  0  0  0  0  0  0  0  0
  132.9830  131.4590   59.0630 C   0  0  0  0  0  0  0  0  0  0  0  0
  131.6170  131.7400   59.1290 C   0  0  0  0  0  0  0  0  0  0  0  0
  130.7050  131.8590   60.2940 C   0  0  0  0  0  0  0  0  0  0  0  0
  130.9940  131.7340   61.4840 O   0  0  0  0  0  0  0  0  0  0  0  0
  128.3305  132.8943   62.6485 H   0  0  0  0  0  0  0  0  0  0  0  0
  129.4235  133.8387   61.5807 H   0  0  0  0  0  0  0  0  0  0  0  0
  127.6585  134.1729   61.5807 H   0  0  0  0  0  0  0  0  0  0  0  0
  127.4812  132.7848   59.8715 H   0  0  0  0  0  0  0  0  0  0  0  0
  129.2329  128.5560   63.6709 H   0  0  0  0  0  0  0  0  0  0  0  0
  129.6976  126.1518   63.2165 H   0  0  0  0  0  0  0  0  0  0  0  0
  129.2705  124.2751   61.7455 H   0  0  0  0  0  0  0  0  0  0  0  0
  124.7733  123.4751   58.1634 H   0  0  0  0  0  0  0  0  0  0  0  0
  124.7370  122.6844   55.7930 H   0  0  0  0  0  0  0  0  0  0  0  0
  126.8738  122.4193   54.5332 H   0  0  0  0  0  0  0  0  0  0  0  0
  129.0516  122.9448   55.6377 H   0  0  0  0  0  0  0  0  0  0  0  0
  133.9527  124.7331   63.0389 H   0  0  0  0  0  0  0  0  0  0  0  0
  135.1994  124.1246   61.8978 H   0  0  0  0  0  0  0  0  0  0  0  0
  134.7548  125.8650   61.8978 H   0  0  0  0  0  0  0  0  0  0  0  0
  128.6964  126.7435   59.0501 H   0  0  0  0  0  0  0  0  0  0  0  0
  128.2226  129.1464   59.5075 H   0  0  0  0  0  0  0  0  0  0  0  0
  130.8826  132.1035   55.8263 H   0  0  0  0  0  0  0  0  0  0  0  0
  133.3332  131.5993   55.6601 H   0  0  0  0  0  0  0  0  0  0  0  0
  134.6710  131.1902   57.7287 H   0  0  0  0  0  0  0  0  0  0  0  0
  133.5648  131.2800   59.9792 H   0  0  0  0  0  0  0  0  0  0  0  0
  1  2  1  0
  2  3  1  0
  3  4  2  0
  3  5  1  0
  5  6  1  0
  6  7  2  0
  7  8  1  0
  8  9  2  0
  9 10  1  0
 10 11  1  0
 11 12  2  0
 12 13  1  0
 12 14  1  0
 14 15  2  0
 15 16  1  0
 16 17  2  0
 17 18  1  0
 18 19  2  0
 19 20  1  0
 20 21  2  0
 21 22  1  0
 22 23  1  0
 23 24  2  0
 24 25  1  0
 24 26  1  0
 26 27  1  0
 26 28  1  0
 28 29  2  0
 28 30  1  0
  9 31  1  0
 31 32  2  0
  2 33  1  0
 33 34  1  0
 34 35  2  0
 34 36  1  0
 36 37  2  0
 37 38  1  0
 38 39  2  0
 39 40  1  0
 40 41  2  0
 41 42  1  0
 42 43  2  0
 32  6  1  0
 42 33  1  0
 30 10  1  0
 41 36  1  0
 20 11  1  0
 30 22  2  0
 19 14  1  0
  1 44  1  0
  1 45  1  0
  1 46  1  0
  2 47  1  6
  7 48  1  0
  8 49  1  0
 10 50  1  1
 15 51  1  0
 16 52  1  0
 17 53  1  0
 18 54  1  0
 27 55  1  0
 27 56  1  0
 27 57  1  0
 31 58  1  0
 32 59  1  0
 37 60  1  0
 38 61  1  0
 39 62  1  0
 40 63  1  0
M  CHG  2  13  -1  25  -1
M  END
>  <Binding energies>  (1) 
[-8.77]

>  <Ligand effiencies>  (1) 
[-0.203953488372093]

>  <Interactions>  (1) 
["V-B:TYR:539:CE1:9847, V-B:PRO:540:CB:9857, V-A:ARG:545:CZ:4924, V-B:PRO:540:CA:9855, V-A:ASP:366:CG:3210, V-B:PRO:540:N:9856, V-A:GLU:543:CD:4906, V-A:GLY:453:CA:4041, H-A:ARG:545:NH2:4926, V-A:ILE:369:CD1:3236, V-A:GLY:453:C:4039, V-A:TYR:539:CE1:4873, V-A:TYR:539:C:4865, V-A:ALA:541:CB:4890, V-A:PRO:540:CA:4881, V-A:TYR:539:CD1:4871, V-A:PRO:540:CB:4883, V-A:PRO:540:N:4882, V-A:LEU:363:CD1:3186, V-B:TYR:539:CE2:9848, V-B:ILE:538:CB:9834, V-B:TYR:539:CZ:9849, V-B:ILE:538:CG2:9835, V-A:TYR:531:CE2:4791, V-A:TYR:531:CZ:4792, V-B:ILE:538:CA:9832, V-B:MET:535:CE:9807, V-A:ILE:369:CG2:3234, V-A:ASP:366:CB:3209, H-B:TYR:539:OH:9850, V-B:ILE:538:C:9830, V-A:LEU:363:CA:3182, V-A:LEU:363:CB:3184, H-A:ALA:541:N:4889"]

$$$$
RR25_Rahimova_2017
     RDKit          3D

 63 68  0  0  0  0  0  0  0  0999 V2000
  132.7510  125.3640   56.2420 O   0  0  0  0  0  0  0  0  0  0  0  0
  132.4390  125.1260   57.4090 C   0  0  0  0  0  0  0  0  0  0  0  0
  133.3030  124.3260   58.1160 O   0  0  0  0  0  0  0  0  0  0  0  0
  133.2000  124.1890   59.4890 C   0  0  0  0  0  0  0  0  0  0  0  0
  134.3660  123.8530   60.1740 C   0  0  0  0  0  0  0  0  0  0  0  0
  134.3330  123.6910   61.5580 C   0  0  0  0  0  0  0  0  0  0  0  0
  133.1370  123.8580   62.2730 C   0  0  0  0  0  0  0  0  0  0  0  0
  133.1070  123.6930   63.7470 N   0  0  0  0  0  0  0  0  0  0  0  0
  133.5290  124.6080   64.4500 O   0  0  0  0  0  0  0  0  0  0  0  0
  132.6610  122.6480   64.2120 O   0  0  0  0  0  0  0  0  0  0  0  0
  131.9710  124.1850   61.5620 C   0  0  0  0  0  0  0  0  0  0  0  0
  131.9860  124.3430   60.1730 C   0  0  0  0  0  0  0  0  0  0  0  0
  130.7560  124.7070   59.3610 C   0  0  0  0  0  0  0  0  0  0  0  0
  131.1670  125.6110   58.1640 C   0  0  2  0  0  0  0  0  0  0  0  0
  129.9460  125.9230   57.2520 C   0  0  0  0  0  0  0  0  0  0  0  0
  129.5830  125.0130   56.5010 O   0  0  0  0  0  0  0  0  0  0  0  0
  129.2340  127.0850   57.3610 N   0  0  0  0  0  0  0  0  0  0  0  0
  129.7830  128.3040   57.9920 C   0  0  0  0  0  0  0  0  0  0  0  0
  128.6550  129.0210   58.7630 C   0  0  0  0  0  0  0  0  0  0  0  0
  127.5060  129.2980   57.8960 N   0  0  0  0  0  0  0  0  0  0  0  0
  126.4880  130.0970   58.5920 C   0  0  0  0  0  0  0  0  0  0  0  0
  127.0700  131.3800   59.2430 C   0  0  0  0  0  0  0  0  0  0  0  0
  128.5540  131.5270   59.1910 N   0  0  0  0  0  0  0  0  0  0  0  0
  129.2020  131.3820   60.3990 C   0  0  0  0  0  0  0  0  0  0  0  0
  128.6090  131.1820   61.4660 O   0  0  0  0  0  0  0  0  0  0  0  0
  130.7140  131.4680   60.3190 C   0  0  0  0  0  0  0  0  0  0  0  0
  131.4750  131.3090   61.4850 C   0  0  0  0  0  0  0  0  0  0  0  0
  132.8670  131.3750   61.4460 C   0  0  0  0  0  0  0  0  0  0  0  0
  133.5410  131.5960   60.2460 C   0  0  0  0  0  0  0  0  0  0  0  0
  132.8140  131.7630   59.0430 C   0  0  0  0  0  0  0  0  0  0  0  0
  133.4340  131.9900   57.7920 C   0  0  0  0  0  0  0  0  0  0  0  0
  132.6580  132.1420   56.6440 C   0  0  0  0  0  0  0  0  0  0  0  0
  131.2680  132.0760   56.7060 C   0  0  0  0  0  0  0  0  0  0  0  0
  130.6100  131.8540   57.9230 C   0  0  0  0  0  0  0  0  0  0  0  0
  131.3930  131.6960   59.0950 C   0  0  0  0  0  0  0  0  0  0  0  0
  129.0960  131.7790   57.9480 C   0  0  0  0  0  0  0  0  0  0  0  0
  128.4160  131.9200   56.9260 O   0  0  0  0  0  0  0  0  0  0  0  0
  126.9530  128.0410   57.3880 C   0  0  0  0  0  0  0  0  0  0  0  0
  127.9970  127.2500   56.5640 C   0  0  0  0  0  0  0  0  0  0  0  0
  135.3090  123.7161   59.6245 H   0  0  0  0  0  0  0  0  0  0  0  0
  135.2557  123.4290   62.0964 H   0  0  0  0  0  0  0  0  0  0  0  0
  131.0263  124.3196   62.1093 H   0  0  0  0  0  0  0  0  0  0  0  0
  130.2840  123.7890   58.9808 H   0  0  0  0  0  0  0  0  0  0  0  0
  130.0448  125.2503   60.0006 H   0  0  0  0  0  0  0  0  0  0  0  0
  131.4901  126.5749   58.5840 H   0  0  0  0  0  0  0  0  0  0  0  0
  130.5885  128.0282   58.6885 H   0  0  0  0  0  0  0  0  0  0  0  0
  130.1885  128.9729   57.2186 H   0  0  0  0  0  0  0  0  0  0  0  0
  128.3285  128.3813   59.5962 H   0  0  0  0  0  0  0  0  0  0  0  0
  129.0458  129.9792   59.1360 H   0  0  0  0  0  0  0  0  0  0  0  0
  125.7155  130.3909   57.8662 H   0  0  0  0  0  0  0  0  0  0  0  0
  126.0746  129.4749   59.3995 H   0  0  0  0  0  0  0  0  0  0  0  0
  126.6282  132.2471   58.7303 H   0  0  0  0  0  0  0  0  0  0  0  0
  126.8171  131.3102   60.3113 H   0  0  0  0  0  0  0  0  0  0  0  0
  130.9671  131.1297   62.4441 H   0  0  0  0  0  0  0  0  0  0  0  0
  133.4418  131.2509   62.3756 H   0  0  0  0  0  0  0  0  0  0  0  0
  134.6400  131.6407   60.2339 H   0  0  0  0  0  0  0  0  0  0  0  0
  134.5305  132.0467   57.7249 H   0  0  0  0  0  0  0  0  0  0  0  0
  133.1501  132.3165   55.6758 H   0  0  0  0  0  0  0  0  0  0  0  0
  130.6781  132.2000   55.7859 H   0  0  0  0  0  0  0  0  0  0  0  0
  126.6285  127.4242   58.2390 H   0  0  0  0  0  0  0  0  0  0  0  0
  126.1049  128.2800   56.7294 H   0  0  0  0  0  0  0  0  0  0  0  0
  127.5899  126.2602   56.3101 H   0  0  0  0  0  0  0  0  0  0  0  0
  128.2274  127.8003   55.6398 H   0  0  0  0  0  0  0  0  0  0  0  0
  1  2  2  0
  2  3  1  0
  3  4  1  0
  4  5  2  0
  5  6  1  0
  6  7  2  0
  7  8  1  0
  8  9  2  0
  8 10  1  0
  7 11  1  0
 11 12  2  0
 12 13  1  0
 13 14  1  0
 14 15  1  0
 15 16  2  0
 15 17  1  0
 17 18  1  0
 18 19  1  0
 19 20  1  0
 20 21  1  0
 21 22  1  0
 22 23  1  0
 23 24  1  0
 24 25  2  0
 24 26  1  0
 26 27  2  0
 27 28  1  0
 28 29  2  0
 29 30  1  0
 30 31  2  0
 31 32  1  0
 32 33  2  0
 33 34  1  0
 34 35  2  0
 34 36  1  0
 36 37  2  0
 20 38  1  0
 38 39  1  0
 14  2  1  0
 39 17  1  0
 12  4  1  0
 36 23  1  0
 35 26  1  0
 35 30  1  0
  5 40  1  0
  6 41  1  0
 11 42  1  0
 13 43  1  0
 13 44  1  0
 14 45  1  1
 18 46  1  0
 18 47  1  0
 19 48  1  0
 19 49  1  0
 21 50  1  0
 21 51  1  0
 22 52  1  0
 22 53  1  0
 27 54  1  0
 28 55  1  0
 29 56  1  0
 31 57  1  0
 32 58  1  0
 33 59  1  0
 38 60  1  0
 38 61  1  0
 39 62  1  0
 39 63  1  0
M  CHG  2   8   1  10  -1
M  END
>  <Binding energies>  (1) 
[-10.47]

>  <Ligand effiencies>  (1) 
[-0.2684615384615385]

>  <Interactions>  (1) 
["H-A:TYR:484:OH:4345, V-A:GLY:454:CA:4046, V-B:TYR:539:CE1:9847, V-A:ASP:366:CG:3210, V-A:ILE:369:CD1:3236, V-A:TYR:539:CE1:4873, V-A:PRO:540:CA:4881, V-A:TYR:539:CD1:4871, V-A:PRO:540:CB:4883, V-A:PRO:540:N:4882, V-A:LEU:363:CD1:3186, V-A:PRO:540:CG:4884, V-B:TYR:539:CZ:9849, V-A:ILE:538:CG2:4861, V-A:TYR:531:CE2:4791, V-A:PRO:540:CD:4885, V-B:MET:535:CE:9807, V-A:ILE:369:CG2:3234, V-A:ILE:369:CB:3233, H-A:TYR:531:OH:4793, V-A:TYR:539:CZ:4875, H-A:ASN:370:ND2:3245, V-A:ASP:366:CB:3209, H-B:TYR:539:OH:9850, H-A:GLY:454:N:4047, V-A:LEU:363:CA:3182, V-A:LEU:363:CB:3184, V-A:ILE:369:CG1:3235, V-A:ASN:362:CB:3173, V-A:ASN:362:C:3169"]

$$$$
RR26_Rahimova_2017
     RDKit          3D

 59 65  0  0  0  0  0  0  0  0999 V2000
  128.7410  131.1890   57.8010 C   0  0  0  0  0  0  0  0  0  0  0  0
  130.1830  131.5800   57.5000 C   0  0  0  0  0  0  0  0  0  0  0  0
  130.4210  132.8240   56.9060 C   0  0  0  0  0  0  0  0  0  0  0  0
  131.7220  133.2500   56.6440 C   0  0  0  0  0  0  0  0  0  0  0  0
  132.7990  132.4360   56.9830 C   0  0  0  0  0  0  0  0  0  0  0  0
  132.5740  131.1950   57.5750 C   0  0  0  0  0  0  0  0  0  0  0  0
  131.2710  130.7460   57.8380 C   0  0  0  0  0  0  0  0  0  0  0  0
  131.1170  129.3900   58.4640 C   0  0  0  0  0  0  0  0  0  0  0  0
  131.1740  128.2670   57.7530 N   0  0  0  0  0  0  0  0  0  0  0  0
  131.0080  127.3560   58.6740 C   0  0  0  0  0  0  0  0  0  0  0  0
  130.9290  125.6330   58.7090 S   0  0  0  0  0  0  0  0  0  0  0  0
  130.6920  125.7030   60.4950 C   0  0  0  0  0  0  0  0  0  0  0  0
  130.5260  124.6690   61.3490 C   0  0  0  0  0  0  0  0  0  0  0  0
  130.5030  123.2480   61.0420 C   0  0  0  0  0  0  0  0  0  0  0  0
  131.4640  122.2920   61.3380 C   0  0  0  0  0  0  0  0  0  0  0  0
  131.0010  121.0780   60.8970 N   0  0  0  0  0  0  0  0  0  0  0  0
  131.6360  119.8130   60.9860 C   0  0  0  0  0  0  0  0  0  0  0  0
  132.9800  119.6560   60.6170 C   0  0  0  0  0  0  0  0  0  0  0  0
  133.5900  118.4070   60.7060 C   0  0  0  0  0  0  0  0  0  0  0  0
  132.8600  117.3140   61.1660 C   0  0  0  0  0  0  0  0  0  0  0  0
  131.5260  117.4570   61.5380 C   0  0  0  0  0  0  0  0  0  0  0  0
  130.9120  118.7030   61.4480 C   0  0  0  0  0  0  0  0  0  0  0  0
  129.7790  121.2130   60.3600 N   0  0  0  0  0  0  0  0  0  0  0  0
  129.4740  122.4940   60.4350 C   0  0  0  0  0  0  0  0  0  0  0  0
  128.1600  122.9800   59.9040 C   0  0  0  0  0  0  0  0  0  0  0  0
  127.3480  123.8210   60.6810 C   0  0  0  0  0  0  0  0  0  0  0  0
  126.1200  124.2760   60.1970 C   0  0  0  0  0  0  0  0  0  0  0  0
  125.6930  123.8900   58.9280 C   0  0  0  0  0  0  0  0  0  0  0  0
  126.5040  123.0650   58.1350 C   0  0  0  0  0  0  0  0  0  0  0  0
  127.7270  122.6070   58.6230 C   0  0  0  0  0  0  0  0  0  0  0  0
  126.1030  122.6220   56.8900 O   0  0  0  0  0  0  0  0  0  0  0  0
  125.0500  123.3950   56.3050 C   0  0  0  0  0  0  0  0  0  0  0  0
  123.9490  123.6930   57.3510 C   0  0  0  0  0  0  0  0  0  0  0  0
  124.4960  124.4010   58.4690 O   0  0  0  0  0  0  0  0  0  0  0  0
  130.6770  127.0730   61.0000 C   0  0  0  0  0  0  0  0  0  0  0  0
  130.5320  127.4740   62.1550 O   0  0  0  0  0  0  0  0  0  0  0  0
  130.8640  127.9120   59.8900 N   0  0  0  0  0  0  0  0  0  0  0  0
  130.9380  129.2400   59.7680 N   0  0  0  0  0  0  0  0  0  0  0  0
  128.5918  131.1485   58.8901 H   0  0  0  0  0  0  0  0  0  0  0  0
  128.0602  131.9350   57.3651 H   0  0  0  0  0  0  0  0  0  0  0  0
  128.5303  130.2013   57.3651 H   0  0  0  0  0  0  0  0  0  0  0  0
  129.5725  133.4728   56.6430 H   0  0  0  0  0  0  0  0  0  0  0  0
  131.8972  134.2272   56.1704 H   0  0  0  0  0  0  0  0  0  0  0  0
  133.8272  132.7723   56.7836 H   0  0  0  0  0  0  0  0  0  0  0  0
  133.4306  130.5578   57.8401 H   0  0  0  0  0  0  0  0  0  0  0  0
  130.3916  124.9354   62.4078 H   0  0  0  0  0  0  0  0  0  0  0  0
  132.4267  122.4749   61.8378 H   0  0  0  0  0  0  0  0  0  0  0  0
  133.5542  120.5221   60.2561 H   0  0  0  0  0  0  0  0  0  0  0  0
  134.6435  118.2846   60.4143 H   0  0  0  0  0  0  0  0  0  0  0  0
  133.3421  116.3278   61.2362 H   0  0  0  0  0  0  0  0  0  0  0  0
  130.9588  116.5877   61.9021 H   0  0  0  0  0  0  0  0  0  0  0  0
  129.8576  118.8178   61.7395 H   0  0  0  0  0  0  0  0  0  0  0  0
  127.6833  124.1253   61.6835 H   0  0  0  0  0  0  0  0  0  0  0  0
  125.4927  124.9359   60.8143 H   0  0  0  0  0  0  0  0  0  0  0  0
  128.3544  121.9511   58.0015 H   0  0  0  0  0  0  0  0  0  0  0  0
  125.4621  124.3446   55.9330 H   0  0  0  0  0  0  0  0  0  0  0  0
  124.6073  122.8226   55.4766 H   0  0  0  0  0  0  0  0  0  0  0  0
  123.1631  124.3052   56.8846 H   0  0  0  0  0  0  0  0  0  0  0  0
  123.5284  122.7403   57.7052 H   0  0  0  0  0  0  0  0  0  0  0  0
  1  2  1  0
  2  3  2  0
  3  4  1  0
  4  5  2  0
  5  6  1  0
  6  7  2  0
  7  8  1  0
  8  9  1  0
  9 10  2  0
 10 11  1  0
 11 12  1  0
 12 13  2  0
 13 14  1  0
 14 15  2  0
 15 16  1  0
 16 17  1  0
 17 18  2  0
 18 19  1  0
 19 20  2  0
 20 21  1  0
 21 22  2  0
 16 23  1  0
 23 24  2  0
 24 25  1  0
 25 26  2  0
 26 27  1  0
 27 28  2  0
 28 29  1  0
 29 30  2  0
 29 31  1  0
 31 32  1  0
 32 33  1  0
 33 34  1  0
 12 35  1  0
 35 36  2  0
 35 37  1  0
 37 38  1  0
  7  2  1  0
 38  8  2  0
 37 10  1  0
 24 14  1  0
 30 25  1  0
 22 17  1  0
 34 28  1  0
  1 39  1  0
  1 40  1  0
  1 41  1  0
  3 42  1  0
  4 43  1  0
  5 44  1  0
  6 45  1  0
 13 46  1  0
 15 47  1  0
 18 48  1  0
 19 49  1  0
 20 50  1  0
 21 51  1  0
 22 52  1  0
 26 53  1  0
 27 54  1  0
 30 55  1  0
 32 56  1  0
 32 57  1  0
 33 58  1  0
 33 59  1  0
M  END
>  <Binding energies>  (1) 
[-9.7]

>  <Ligand effiencies>  (1) 
[-0.2552631578947368]

>  <Interactions>  (1) 
["V-A:LEU:475:CD2:4256, V-B:TYR:539:CD1:9845, V-B:TYR:539:C:9839, V-B:TYR:539:CE1:9847, V-B:PRO:540:CB:9857, V-B:PRO:540:CA:9855, V-A:ASP:366:CG:3210, V-B:PRO:540:N:9856, H-B:TYR:531:OH:9767, H-A:ARG:545:NH2:4926, V-A:TYR:539:C:4865, V-A:PRO:540:CA:4881, V-A:PRO:540:CB:4883, V-A:PRO:540:N:4882, V-A:LEU:363:CD1:3186, V-A:TYR:539:CA:4867, V-A:ILE:538:CA:4858, V-A:ILE:538:C:4856, V-A:ILE:538:CB:4860, V-B:ILE:538:CB:9834, H-B:TYR:539:N:9842, V-A:PRO:540:CG:4884, V-A:ILE:538:CG2:4861, V-B:ILE:538:CG2:9835, V-A:TYR:531:CE2:4791, V-A:PRO:540:CD:4885, V-A:ILE:369:CG2:3234, H-A:TYR:531:OH:4793, V-A:LEU:373:CD1:3277, V-A:PRO:482:CG:4324, V-A:SER:385:CA:3404, V-A:SER:385:CB:3406, V-A:PRO:482:CB:4323, V-B:TYR:531:CZ:9766, V-B:TYR:531:CE2:9765, V-A:LEU:475:CG:4254, V-B:LEU:363:CD1:8160, V-A:SER:385:C:3402, V-B:LEU:363:CA:8156, V-B:LEU:363:CB:8158"]

$$$$
RR27_Rahimova_2017
     RDKit          3D

 66 71  0  0  0  0  0  0  0  0999 V2000
  129.1520  122.6560   60.7340 O   0  0  0  0  0  0  0  0  0  0  0  0
  130.2140  123.0580   60.2500 C   0  0  0  0  0  0  0  0  0  0  0  0
  131.5460  122.4790   60.8100 C   0  0  0  0  0  0  0  0  0  0  0  0
  131.5260  120.9460   60.9570 C   0  0  0  0  0  0  0  0  0  0  0  0
  130.3810  120.2600   61.3910 C   0  0  0  0  0  0  0  0  0  0  0  0
  130.3960  118.8730   61.5110 C   0  0  0  0  0  0  0  0  0  0  0  0
  131.5540  118.1670   61.1990 C   0  0  0  0  0  0  0  0  0  0  0  0
  132.6980  118.8340   60.7700 C   0  0  0  0  0  0  0  0  0  0  0  0
  132.6830  120.2210   60.6500 C   0  0  0  0  0  0  0  0  0  0  0  0
  132.0220  123.2450   62.0590 C   0  0  0  0  0  0  0  0  0  0  0  0
  131.3180  123.1900   63.2700 C   0  0  0  0  0  0  0  0  0  0  0  0
  131.7690  123.9040   64.3770 C   0  0  0  0  0  0  0  0  0  0  0  0
  132.9210  124.6790   64.2770 C   0  0  0  0  0  0  0  0  0  0  0  0
  133.6240  124.7520   63.0770 C   0  0  0  0  0  0  0  0  0  0  0  0
  133.1720  124.0400   61.9710 C   0  0  0  0  0  0  0  0  0  0  0  0
  130.2390  123.8670   59.1530 N   0  0  0  0  0  0  0  0  0  0  0  0
  131.4440  124.5730   58.6930 C   0  0  0  0  0  0  0  0  0  0  0  0
  131.4920  125.9180   59.4520 C   0  0  0  0  0  0  0  0  0  0  0  0
  130.1850  126.7550   59.2790 C   0  0  0  0  0  0  0  0  0  0  0  0
  130.1360  128.0530   60.1060 C   0  0  0  0  0  0  0  0  0  0  0  0
  129.2270  128.0910   61.1240 N   0  0  0  0  0  0  0  0  0  0  0  0
  129.1620  129.2060   61.9030 C   0  0  0  0  0  0  0  0  0  0  0  0
  128.2960  129.3600   62.9540 O   0  0  0  0  0  0  0  0  0  0  0  0
  130.0340  130.2760   61.6250 C   0  0  0  0  0  0  0  0  0  0  0  0
  130.2320  131.5010   62.1930 N   0  0  0  0  0  0  0  0  0  0  0  0
  131.2330  132.1290   61.4770 N   0  0  0  0  0  0  0  0  0  0  0  0
  131.6480  131.3040   60.4930 N   0  0  0  0  0  0  0  0  0  0  0  0
  132.6900  131.7270   59.5600 C   0  0  0  0  0  0  0  0  0  0  0  0
  132.2030  131.8790   58.1260 C   0  0  0  0  0  0  0  0  0  0  0  0
  133.1010  131.7600   57.0610 C   0  0  0  0  0  0  0  0  0  0  0  0
  132.6520  131.8880   55.7450 C   0  0  0  0  0  0  0  0  0  0  0  0
  131.3040  132.1310   55.4880 C   0  0  0  0  0  0  0  0  0  0  0  0
  130.4000  132.2410   56.5460 C   0  0  0  0  0  0  0  0  0  0  0  0
  128.7250  132.5150   56.2290 Cl  0  0  0  0  0  0  0  0  0  0  0  0
  130.8500  132.1210   57.8610 C   0  0  0  0  0  0  0  0  0  0  0  0
  130.9220  130.1250   60.5390 C   0  0  0  0  0  0  0  0  0  0  0  0
  131.0020  129.0470   59.7550 N   0  0  0  0  0  0  0  0  0  0  0  0
  128.9060  125.8750   59.4330 C   0  0  0  0  0  0  0  0  0  0  0  0
  129.0050  124.5200   58.6880 C   0  0  0  0  0  0  0  0  0  0  0  0
  132.3231  122.6542   60.0514 H   0  0  0  0  0  0  0  0  0  0  0  0
  129.4674  120.8209   61.6375 H   0  0  0  0  0  0  0  0  0  0  0  0
  129.4970  118.3378   61.8507 H   0  0  0  0  0  0  0  0  0  0  0  0
  131.5654  117.0710   61.2923 H   0  0  0  0  0  0  0  0  0  0  0  0
  133.6094  118.2680   60.5270 H   0  0  0  0  0  0  0  0  0  0  0  0
  133.5861  120.7502   60.3118 H   0  0  0  0  0  0  0  0  0  0  0  0
  130.4056  122.5803   63.3460 H   0  0  0  0  0  0  0  0  0  0  0  0
  131.2169  123.8558   65.3272 H   0  0  0  0  0  0  0  0  0  0  0  0
  133.2792  125.2387   65.1536 H   0  0  0  0  0  0  0  0  0  0  0  0
  134.5316  125.3693   63.0043 H   0  0  0  0  0  0  0  0  0  0  0  0
  133.7216  124.1016   61.0202 H   0  0  0  0  0  0  0  0  0  0  0  0
  132.3410  123.9781   58.9200 H   0  0  0  0  0  0  0  0  0  0  0  0
  131.4149  124.7350   57.6054 H   0  0  0  0  0  0  0  0  0  0  0  0
  131.6393  125.7128   60.5226 H   0  0  0  0  0  0  0  0  0  0  0  0
  132.3213  126.5066   59.0326 H   0  0  0  0  0  0  0  0  0  0  0  0
  130.2055  127.1131   58.2391 H   0  0  0  0  0  0  0  0  0  0  0  0
  128.6260  129.9680   63.6190 H   0  0  0  0  0  0  0  0  0  0  0  0
  133.0851  132.6967   59.8971 H   0  0  0  0  0  0  0  0  0  0  0  0
  133.4575  130.9390   59.5568 H   0  0  0  0  0  0  0  0  0  0  0  0
  134.1650  131.5648   57.2605 H   0  0  0  0  0  0  0  0  0  0  0  0
  133.3629  131.7970   54.9105 H   0  0  0  0  0  0  0  0  0  0  0  0
  130.9522  132.2362   54.4511 H   0  0  0  0  0  0  0  0  0  0  0  0
  130.1379  132.2170   58.6939 H   0  0  0  0  0  0  0  0  0  0  0  0
  128.7457  125.6751   60.5027 H   0  0  0  0  0  0  0  0  0  0  0  0
  128.0693  126.4330   58.9875 H   0  0  0  0  0  0  0  0  0  0  0  0
  128.1327  123.8932   58.9250 H   0  0  0  0  0  0  0  0  0  0  0  0
  129.0247  124.6697   57.5984 H   0  0  0  0  0  0  0  0  0  0  0  0
  1  2  2  0
  2  3  1  0
  3  4  1  0
  4  5  2  0
  5  6  1  0
  6  7  2  0
  7  8  1  0
  8  9  2  0
  3 10  1  0
 10 11  2  0
 11 12  1  0
 12 13  2  0
 13 14  1  0
 14 15  2  0
  2 16  1  0
 16 17  1  0
 17 18  1  0
 18 19  1  0
 19 20  1  0
 20 21  2  0
 21 22  1  0
 22 23  1  0
 22 24  2  0
 24 25  1  0
 25 26  2  0
 26 27  1  0
 27 28  1  0
 28 29  1  0
 29 30  2  0
 30 31  1  0
 31 32  2  0
 32 33  1  0
 33 34  1  0
 33 35  2  0
 27 36  1  0
 36 37  2  0
 19 38  1  0
 38 39  1  0
  9  4  1  0
 15 10  1  0
 39 16  1  0
 37 20  1  0
 36 24  1  0
 35 29  1  0
  3 40  1  0
  5 41  1  0
  6 42  1  0
  7 43  1  0
  8 44  1  0
  9 45  1  0
 11 46  1  0
 12 47  1  0
 13 48  1  0
 14 49  1  0
 15 50  1  0
 17 51  1  0
 17 52  1  0
 18 53  1  0
 18 54  1  0
 19 55  1  0
 23 56  1  0
 28 57  1  0
 28 58  1  0
 30 59  1  0
 31 60  1  0
 32 61  1  0
 35 62  1  0
 38 63  1  0
 38 64  1  0
 39 65  1  0
 39 66  1  0
M  END
>  <Binding energies>  (1) 
[-10.64]

>  <Ligand effiencies>  (1) 
[-0.266]

>  <Interactions>  (1) 
["V-A:LEU:475:CD2:4256, V-A:GLY:454:CA:4046, V-B:TYR:539:CD1:9845, V-B:TYR:539:CE1:9847, V-A:ARG:545:CZ:4924, V-B:ALA:541:CB:9864, V-A:TYR:484:CZ:4344, V-A:ASP:366:CG:3210, H-A:GLU:543:OE2:4908, H-A:GLU:543:OE1:4907, V-A:GLU:543:CD:4906, V-A:GLY:453:CA:4041, V-A:GLY:453:C:4039, V-A:TYR:539:CE1:4873, V-A:TYR:539:C:4865, V-A:PRO:540:CA:4881, V-A:TYR:539:CD1:4871, V-A:PRO:540:CB:4883, V-A:PRO:540:N:4882, V-A:LEU:363:CD1:3186, V-A:ILE:538:CA:4858, V-A:TYR:539:CG:4870, V-A:ILE:538:CB:4860, V-A:MET:535:CE:4833, V-B:TYR:539:CZ:9849, V-A:ILE:538:CG2:4861, V-A:TYR:531:CE2:4791, V-A:TYR:531:CZ:4792, V-A:ILE:369:CG2:3234, V-A:LEU:373:CD1:3277, V-A:PRO:482:CG:4324, V-A:SER:385:CA:3404, V-A:SER:385:CB:3406, V-A:PRO:482:CB:4323, V-A:TYR:539:CD2:4872, V-A:TYR:539:CE2:4874, V-A:TYR:539:CZ:4875, H-A:ALA:541:N:4889"]

$$$$
RR27_Rahimova_2017-again1
     RDKit          3D

 66 71  0  0  0  0  0  0  0  0999 V2000
  127.9290  123.1110   60.7000 O   0  0  0  0  0  0  0  0  0  0  0  0
  129.1640  123.1310   60.6780 C   0  0  0  0  0  0  0  0  0  0  0  0
  129.9320  122.5490   61.9030 C   0  0  0  0  0  0  0  0  0  0  0  0
  130.6820  123.6340   62.6990 C   0  0  0  0  0  0  0  0  0  0  0  0
  130.2650  124.9740   62.7070 C   0  0  0  0  0  0  0  0  0  0  0  0
  130.9680  125.9260   63.4400 C   0  0  0  0  0  0  0  0  0  0  0  0
  132.0920  125.5450   64.1680 C   0  0  0  0  0  0  0  0  0  0  0  0
  132.5170  124.2200   64.1710 C   0  0  0  0  0  0  0  0  0  0  0  0
  131.8140  123.2680   63.4380 C   0  0  0  0  0  0  0  0  0  0  0  0
  130.8120  121.3460   61.5160 C   0  0  0  0  0  0  0  0  0  0  0  0
  132.1590  121.5090   61.1580 C   0  0  0  0  0  0  0  0  0  0  0  0
  132.9290  120.4090   60.7920 C   0  0  0  0  0  0  0  0  0  0  0  0
  132.3590  119.1390   60.7840 C   0  0  0  0  0  0  0  0  0  0  0  0
  131.0240  118.9610   61.1350 C   0  0  0  0  0  0  0  0  0  0  0  0
  130.2510  120.0620   61.4930 C   0  0  0  0  0  0  0  0  0  0  0  0
  129.8460  123.4950   59.5530 N   0  0  0  0  0  0  0  0  0  0  0  0
  131.2810  123.8080   59.5340 C   0  0  0  0  0  0  0  0  0  0  0  0
  131.4430  125.2960   59.9240 C   0  0  0  0  0  0  0  0  0  0  0  0
  130.4410  126.2880   59.2480 C   0  0  0  0  0  0  0  0  0  0  0  0
  130.2030  127.5650   60.0610 C   0  0  0  0  0  0  0  0  0  0  0  0
  130.9640  128.6010   59.8980 N   0  0  0  0  0  0  0  0  0  0  0  0
  130.6650  129.6770   60.6780 C   0  0  0  0  0  0  0  0  0  0  0  0
  129.6430  129.7560   61.6120 C   0  0  0  0  0  0  0  0  0  0  0  0
  129.6440  130.9410   62.1970 N   0  0  0  0  0  0  0  0  0  0  0  0
  130.6870  131.6780   61.6440 N   0  0  0  0  0  0  0  0  0  0  0  0
  131.2780  130.9020   60.7180 N   0  0  0  0  0  0  0  0  0  0  0  0
  132.4310  131.3800   59.9660 C   0  0  0  0  0  0  0  0  0  0  0  0
  132.1100  131.7140   58.5170 C   0  0  0  0  0  0  0  0  0  0  0  0
  133.1410  131.8370   57.5800 C   0  0  0  0  0  0  0  0  0  0  0  0
  132.8500  132.1520   56.2520 C   0  0  0  0  0  0  0  0  0  0  0  0
  131.5270  132.3440   55.8540 C   0  0  0  0  0  0  0  0  0  0  0  0
  130.4940  132.2170   56.7820 C   0  0  0  0  0  0  0  0  0  0  0  0
  128.8580  132.4580   56.2900 Cl  0  0  0  0  0  0  0  0  0  0  0  0
  130.7830  131.9010   58.1100 C   0  0  0  0  0  0  0  0  0  0  0  0
  128.7660  128.6020   61.8110 C   0  0  0  0  0  0  0  0  0  0  0  0
  127.8160  128.4850   62.5810 O   0  0  0  0  0  0  0  0  0  0  0  0
  129.1520  127.5770   60.9730 N   0  0  0  0  0  0  0  0  0  0  0  0
  129.1080  125.6650   58.7240 C   0  0  0  0  0  0  0  0  0  0  0  0
  129.1330  124.1420   58.4410 C   0  0  0  0  0  0  0  0  0  0  0  0
  129.1769  122.1531   62.5981 H   0  0  0  0  0  0  0  0  0  0  0  0
  129.3774  125.2738   62.1306 H   0  0  0  0  0  0  0  0  0  0  0  0
  130.6369  126.9750   63.4440 H   0  0  0  0  0  0  0  0  0  0  0  0
  132.6487  126.2977   64.7456 H   0  0  0  0  0  0  0  0  0  0  0  0
  133.4048  123.9261   64.7502 H   0  0  0  0  0  0  0  0  0  0  0  0
  132.1500  122.2206   63.4392 H   0  0  0  0  0  0  0  0  0  0  0  0
  132.6092  122.5126   61.1667 H   0  0  0  0  0  0  0  0  0  0  0  0
  133.9839  120.5426   60.5101 H   0  0  0  0  0  0  0  0  0  0  0  0
  132.9686  118.2692   60.4980 H   0  0  0  0  0  0  0  0  0  0  0  0
  130.5813  117.9540   61.1295 H   0  0  0  0  0  0  0  0  0  0  0  0
  129.1929  119.9232   61.7596 H   0  0  0  0  0  0  0  0  0  0  0  0
  131.8129  123.1713   60.2563 H   0  0  0  0  0  0  0  0  0  0  0  0
  131.7023  123.6236   58.5348 H   0  0  0  0  0  0  0  0  0  0  0  0
  131.3140  125.3756   61.0135 H   0  0  0  0  0  0  0  0  0  0  0  0
  132.4417  125.5914   59.5698 H   0  0  0  0  0  0  0  0  0  0  0  0
  130.9776  126.5796   58.3331 H   0  0  0  0  0  0  0  0  0  0  0  0
  132.8156  132.2866   60.4560 H   0  0  0  0  0  0  0  0  0  0  0  0
  133.1721  130.5672   59.9558 H   0  0  0  0  0  0  0  0  0  0  0  0
  134.1851  131.6849   57.8910 H   0  0  0  0  0  0  0  0  0  0  0  0
  133.6643  132.2489   55.5188 H   0  0  0  0  0  0  0  0  0  0  0  0
  131.2985  132.5957   54.8078 H   0  0  0  0  0  0  0  0  0  0  0  0
  129.9661  131.7984   58.8395 H   0  0  0  0  0  0  0  0  0  0  0  0
  128.5970  126.7370   61.0500 H   0  0  0  0  0  0  0  0  0  0  0  0
  128.3294  125.8541   59.4777 H   0  0  0  0  0  0  0  0  0  0  0  0
  128.9202  126.1434   57.7514 H   0  0  0  0  0  0  0  0  0  0  0  0
  128.1052  123.7551   58.3787 H   0  0  0  0  0  0  0  0  0  0  0  0
  129.6375  123.9347   57.4857 H   0  0  0  0  0  0  0  0  0  0  0  0
  1  2  2  0
  2  3  1  0
  3  4  1  0
  4  5  2  0
  5  6  1  0
  6  7  2  0
  7  8  1  0
  8  9  2  0
  3 10  1  0
 10 11  2  0
 11 12  1  0
 12 13  2  0
 13 14  1  0
 14 15  2  0
  2 16  1  0
 16 17  1  0
 17 18  1  0
 18 19  1  0
 19 20  1  0
 20 21  2  0
 21 22  1  0
 22 23  2  0
 23 24  1  0
 24 25  2  0
 25 26  1  0
 26 27  1  0
 27 28  1  0
 28 29  2  0
 29 30  1  0
 30 31  2  0
 31 32  1  0
 32 33  1  0
 32 34  2  0
 23 35  1  0
 35 36  2  0
 35 37  1  0
 19 38  1  0
 38 39  1  0
  9  4  1  0
 15 10  1  0
 39 16  1  0
 37 20  1  0
 26 22  1  0
 34 28  1  0
  3 40  1  0
  5 41  1  0
  6 42  1  0
  7 43  1  0
  8 44  1  0
  9 45  1  0
 11 46  1  0
 12 47  1  0
 13 48  1  0
 14 49  1  0
 15 50  1  0
 17 51  1  0
 17 52  1  0
 18 53  1  0
 18 54  1  0
 19 55  1  0
 27 56  1  0
 27 57  1  0
 29 58  1  0
 30 59  1  0
 31 60  1  0
 34 61  1  0
 37 62  1  0
 38 63  1  0
 38 64  1  0
 39 65  1  0
 39 66  1  0
M  END
>  <Binding energies>  (1) 
[-10.18]

>  <Ligand effiencies>  (1) 
[-0.2545]

>  <Interactions>  (1) 
["V-A:LEU:475:CD2:4256, V-A:GLY:454:CA:4046, V-B:TYR:539:CD1:9845, V-B:TYR:539:CE1:9847, V-A:ARG:545:CZ:4924, V-B:ALA:541:CB:9864, V-A:ASP:366:CG:3210, V-A:GLU:543:CD:4906, V-A:TYR:539:CE1:4873, V-A:PRO:540:CA:4881, V-A:TYR:539:CD1:4871, V-A:PRO:540:CB:4883, V-A:PRO:540:N:4882, V-A:LEU:363:CD1:3186, V-A:ILE:538:CA:4858, V-A:TYR:539:CG:4870, V-A:ILE:538:CB:4860, V-A:MET:535:CE:4833, V-B:TYR:539:CZ:9849, V-A:ILE:538:CG2:4861, V-A:TYR:531:CE2:4791, V-A:ILE:369:CG2:3234, V-A:LEU:373:CD1:3277, V-A:PRO:482:CB:4323, V-A:TYR:539:CD2:4872, V-A:TYR:539:CE2:4874, V-A:TYR:539:CZ:4875, H-B:ALA:541:N:9863, V-A:LEU:363:CA:3182, H-A:ALA:541:N:4889"]

$$$$
RR28_Rahimova_2017
     RDKit          3D

 82 85  0  0  0  0  0  0  0  0999 V2000
  127.3880  129.4960   66.0660 C   0  0  0  0  0  0  0  0  0  0  0  0
  126.9610  129.1030   64.6560 C   0  0  0  0  0  0  0  0  0  0  0  0
  125.7720  128.9010   64.4160 O   0  0  0  0  0  0  0  0  0  0  0  0
  127.9450  129.0010   63.7400 N   0  0  0  0  0  0  0  0  0  0  0  0
  127.8320  128.6340   62.3100 C   0  0  0  0  0  0  0  0  0  0  0  0
  128.2650  127.1480   62.1540 C   0  0  0  0  0  0  0  0  0  0  0  0
  127.3720  126.2270   61.5850 C   0  0  0  0  0  0  0  0  0  0  0  0
  127.7240  124.8890   61.4340 C   0  0  0  0  0  0  0  0  0  0  0  0
  128.9780  124.4400   61.8500 C   0  0  0  0  0  0  0  0  0  0  0  0
  129.3450  122.9660   61.6800 C   0  0  0  0  0  0  0  0  0  0  0  0
  129.9430  122.4650   62.7630 F   0  0  0  0  0  0  0  0  0  0  0  0
  128.2520  122.2420   61.4400 F   0  0  0  0  0  0  0  0  0  0  0  0
  130.1790  122.8390   60.6470 F   0  0  0  0  0  0  0  0  0  0  0  0
  129.8760  125.3470   62.4190 C   0  0  0  0  0  0  0  0  0  0  0  0
  129.5230  126.6850   62.5700 C   0  0  0  0  0  0  0  0  0  0  0  0
  128.6570  129.6290   61.4190 C   0  0  0  0  0  0  0  0  0  0  0  0
  128.0990  131.0750   61.4360 C   0  0  0  0  0  0  0  0  0  0  0  0
  126.7100  130.9910   60.9560 N   0  0  0  0  0  0  0  0  0  0  0  0
  126.4240  131.1810   59.6390 C   0  0  0  0  0  0  0  0  0  0  0  0
  127.2690  131.5910   58.8400 O   0  0  0  0  0  0  0  0  0  0  0  0
  124.9590  131.0370   59.1630 C   0  0  0  0  0  0  0  0  0  0  0  0
  124.6770  129.8720   58.1750 C   0  0  0  0  0  0  0  0  0  0  0  0
  125.7480  129.6690   57.0780 C   0  0  0  0  0  0  0  0  0  0  0  0
  125.5100  130.1060   55.9480 O   0  0  0  0  0  0  0  0  0  0  0  0
  126.9640  129.1470   57.4080 N   0  0  0  0  0  0  0  0  0  0  0  0
  127.1950  128.3400   58.6120 C   0  0  0  0  0  0  0  0  0  0  0  0
  126.8280  126.8860   58.2450 C   0  0  0  0  0  0  0  0  0  0  0  0
  127.6070  126.3020   57.0150 C   0  0  0  0  0  0  0  0  0  0  0  0
  126.9040  125.0980   56.5230 N   0  0  0  0  0  0  0  0  0  0  0  0
  126.9410  123.8490   57.0290 C   0  0  0  0  0  0  0  0  0  0  0  0
  126.1200  122.7960   56.2910 C   0  0  0  0  0  0  0  0  0  0  0  0
  127.5880  123.5270   58.0250 O   0  0  0  0  0  0  0  0  0  0  0  0
  129.0150  125.8520   57.5230 C   0  0  0  0  0  0  0  0  0  0  0  0
  129.3690  125.8500   58.8830 C   0  0  0  0  0  0  0  0  0  0  0  0
  130.6350  125.4410   59.2940 C   0  0  0  0  0  0  0  0  0  0  0  0
  131.5810  125.0240   58.3550 C   0  0  0  0  0  0  0  0  0  0  0  0
  132.9730  124.5680   58.7910 C   0  0  0  0  0  0  0  0  0  0  0  0
  133.2710  125.0550   59.9970 F   0  0  0  0  0  0  0  0  0  0  0  0
  132.9970  123.2370   58.8500 F   0  0  0  0  0  0  0  0  0  0  0  0
  133.9210  124.9660   57.9410 F   0  0  0  0  0  0  0  0  0  0  0  0
  131.2470  125.0280   57.0000 C   0  0  0  0  0  0  0  0  0  0  0  0
  129.9810  125.4380   56.5920 C   0  0  0  0  0  0  0  0  0  0  0  0
  127.6760  127.4000   55.8830 C   0  0  0  0  0  0  0  0  0  0  0  0
  127.9480  128.8520   56.3590 C   0  0  0  0  0  0  0  0  0  0  0  0
  125.8270  130.2360   61.8570 C   0  0  0  0  0  0  0  0  0  0  0  0
  126.3370  128.7720   61.8730 C   0  0  0  0  0  0  0  0  0  0  0  0
  126.7850  128.9410   66.7998 H   0  0  0  0  0  0  0  0  0  0  0  0
  128.4517  129.2544   66.2077 H   0  0  0  0  0  0  0  0  0  0  0  0
  127.2353  130.5761   66.2077 H   0  0  0  0  0  0  0  0  0  0  0  0
  128.8880  129.1710   64.0590 H   0  0  0  0  0  0  0  0  0  0  0  0
  126.3799  126.5674   61.2537 H   0  0  0  0  0  0  0  0  0  0  0  0
  127.0106  124.1824   60.9848 H   0  0  0  0  0  0  0  0  0  0  0  0
  130.8669  125.0019   62.7493 H   0  0  0  0  0  0  0  0  0  0  0  0
  130.2388  127.3881   63.0209 H   0  0  0  0  0  0  0  0  0  0  0  0
  129.6933  129.6504   61.7874 H   0  0  0  0  0  0  0  0  0  0  0  0
  128.5928  129.2674   60.3821 H   0  0  0  0  0  0  0  0  0  0  0  0
  128.1242  131.4804   62.4583 H   0  0  0  0  0  0  0  0  0  0  0  0
  128.7005  131.7417   60.8006 H   0  0  0  0  0  0  0  0  0  0  0  0
  124.3294  130.8846   60.0520 H   0  0  0  0  0  0  0  0  0  0  0  0
  124.7352  131.9592   58.6067 H   0  0  0  0  0  0  0  0  0  0  0  0
  124.6046  128.9414   58.7571 H   0  0  0  0  0  0  0  0  0  0  0  0
  123.7464  130.1337   57.6502 H   0  0  0  0  0  0  0  0  0  0  0  0
  128.2514  128.4005   58.9127 H   0  0  0  0  0  0  0  0  0  0  0  0
  126.5879  128.7019   59.4549 H   0  0  0  0  0  0  0  0  0  0  0  0
  127.0383  126.2493   59.1170 H   0  0  0  0  0  0  0  0  0  0  0  0
  125.7651  126.8966   57.9620 H   0  0  0  0  0  0  0  0  0  0  0  0
  126.3630  125.2370   55.6830 H   0  0  0  0  0  0  0  0  0  0  0  0
  125.6142  122.1473   57.0213 H   0  0  0  0  0  0  0  0  0  0  0  0
  125.3686  123.2930   55.6598 H   0  0  0  0  0  0  0  0  0  0  0  0
  126.7852  122.1885   55.6598 H   0  0  0  0  0  0  0  0  0  0  0  0
  128.6348  126.1765   59.6343 H   0  0  0  0  0  0  0  0  0  0  0  0
  130.8913  125.4464   60.3637 H   0  0  0  0  0  0  0  0  0  0  0  0
  131.9866  124.7061   56.2521 H   0  0  0  0  0  0  0  0  0  0  0  0
  129.7327  125.4377   55.5204 H   0  0  0  0  0  0  0  0  0  0  0  0
  128.4808  127.1172   55.1885 H   0  0  0  0  0  0  0  0  0  0  0  0
  126.6748  127.4199   55.4278 H   0  0  0  0  0  0  0  0  0  0  0  0
  128.9679  128.9330   56.7631 H   0  0  0  0  0  0  0  0  0  0  0  0
  127.8601  129.5634   55.5246 H   0  0  0  0  0  0  0  0  0  0  0  0
  125.8691  130.6614   62.8705 H   0  0  0  0  0  0  0  0  0  0  0  0
  124.7832  130.2835   61.5131 H   0  0  0  0  0  0  0  0  0  0  0  0
  125.7154  128.1950   62.5734 H   0  0  0  0  0  0  0  0  0  0  0  0
  126.2664  128.3948   60.8421 H   0  0  0  0  0  0  0  0  0  0  0  0
  1  2  1  0
  2  3  2  0
  2  4  1  0
  4  5  1  0
  5  6  1  0
  6  7  2  0
  7  8  1  0
  8  9  2  0
  9 10  1  0
 10 11  1  0
 10 12  1  0
 10 13  1  0
  9 14  1  0
 14 15  2  0
  5 16  1  0
 16 17  1  0
 17 18  1  0
 18 19  1  0
 19 20  2  0
 19 21  1  0
 21 22  1  0
 22 23  1  0
 23 24  2  0
 23 25  1  0
 25 26  1  0
 26 27  1  0
 27 28  1  0
 28 29  1  0
 29 30  1  0
 30 31  1  0
 30 32  2  0
 28 33  1  0
 33 34  2  0
 34 35  1  0
 35 36  2  0
 36 37  1  0
 37 38  1  0
 37 39  1  0
 37 40  1  0
 36 41  1  0
 41 42  2  0
 28 43  1  0
 43 44  1  0
 18 45  1  0
 45 46  1  0
 46  5  1  0
 15  6  1  0
 44 25  1  0
 42 33  1  0
  1 47  1  0
  1 48  1  0
  1 49  1  0
  4 50  1  0
  7 51  1  0
  8 52  1  0
 14 53  1  0
 15 54  1  0
 16 55  1  0
 16 56  1  0
 17 57  1  0
 17 58  1  0
 21 59  1  0
 21 60  1  0
 22 61  1  0
 22 62  1  0
 26 63  1  0
 26 64  1  0
 27 65  1  0
 27 66  1  0
 29 67  1  0
 31 68  1  0
 31 69  1  0
 31 70  1  0
 34 71  1  0
 35 72  1  0
 41 73  1  0
 42 74  1  0
 43 75  1  0
 43 76  1  0
 44 77  1  0
 44 78  1  0
 45 79  1  0
 45 80  1  0
 46 81  1  0
 46 82  1  0
M  END
>  <Binding energies>  (1) 
[-7.66]

>  <Ligand effiencies>  (1) 
[-0.15958333333333333]

>  <Interactions>  (1) 
["V-B:HIS:456:CE1:9040, V-B:TYR:539:CD1:9845, V-B:ASP:366:CG:8184, V-B:PRO:540:C:9853, V-B:TYR:539:CE1:9847, V-B:GLU:543:CD:9880, V-B:PRO:540:CA:9855, V-B:ALA:541:CB:9864, H-B:GLU:543:OE2:9882, V-A:ASP:366:CG:3210, V-B:ASP:366:CB:8183, H-A:GLU:543:OE2:4908, H-A:GLU:543:OE1:4907, H-B:TYR:531:OH:9767, V-A:GLU:543:CD:4906, H-B:ARG:545:NH2:9900, V-A:TYR:539:CE1:4873, H-B:ARG:545:NE:9896, V-B:ILE:538:CB:9834, V-A:MET:535:CE:4833, V-B:TYR:539:CZ:9849, V-B:ILE:538:CG2:9835, V-B:ILE:538:CA:9832, V-B:MET:535:CE:9807, V-A:ILE:369:CG2:3234, V-A:ILE:369:CB:3233, V-A:GLU:543:CB:4904, V-B:TYR:531:CZ:9766, V-A:TYR:539:CZ:4875, V-A:ASP:366:C:3205, V-A:ASP:366:CB:3209, V-A:ASP:366:CA:3207, V-B:ALA:541:CA:9862, H-A:TYR:539:OH:4876, H-B:ASN:370:ND2:8219, V-B:ASP:366:CA:8181, V-B:ASP:366:C:8179, H-B:MET:535:SD:9806"]

$$$$
RR29_Rahimova_2017
     RDKit          3D

 35 36  0  0  0  0  0  0  0  0999 V2000
  131.1690  121.5150   61.8590 C   0  0  0  0  0  0  0  0  0  0  0  0
  130.2520  122.6600   62.2620 C   0  0  0  0  0  0  0  0  0  0  0  0
  128.7890  122.4460   61.8150 C   0  0  0  0  0  0  0  0  0  0  0  0
  128.2440  123.6660   61.0430 C   0  0  0  0  0  0  0  0  0  0  0  0
  127.7600  123.2970   59.6490 C   0  0  0  0  0  0  0  0  0  0  0  0
  128.6600  122.7460   58.7150 C   0  0  0  0  0  0  0  0  0  0  0  0
  128.2350  122.3980   57.4250 C   0  0  0  0  0  0  0  0  0  0  0  0
  126.9020  122.6290   57.1040 C   0  0  0  0  0  0  0  0  0  0  0  0
  126.0260  123.1660   58.0040 C   0  0  0  0  0  0  0  0  0  0  0  0
  126.4170  123.5110   59.2940 C   0  0  0  0  0  0  0  0  0  0  0  0
  124.7930  123.2490   57.4370 O   0  0  0  0  0  0  0  0  0  0  0  0
  124.9790  122.9440   56.0810 C   0  0  0  0  0  0  0  0  0  0  0  0
  126.2460  122.3570   55.9440 O   0  0  0  0  0  0  0  0  0  0  0  0
  130.7530  123.6540   62.8970 N   0  0  0  0  0  0  0  0  0  0  0  0
  129.9440  124.7300   63.1880 N   0  0  0  0  0  0  0  0  0  0  0  0
  130.3780  125.8640   63.7620 C   0  0  0  0  0  0  0  0  0  0  0  0
  131.6430  126.1070   64.1070 N   0  0  0  0  0  0  0  0  0  0  0  0
  129.4860  126.8130   64.0030 N   0  0  0  0  0  0  0  0  0  0  0  0
  131.5618  121.0246   62.7619 H   0  0  0  0  0  0  0  0  0  0  0  0
  130.6031  120.7848   61.2618 H   0  0  0  0  0  0  0  0  0  0  0  0
  132.0052  121.9077   61.2618 H   0  0  0  0  0  0  0  0  0  0  0  0
  128.7412  121.5612   61.1632 H   0  0  0  0  0  0  0  0  0  0  0  0
  128.1723  122.3062   62.7151 H   0  0  0  0  0  0  0  0  0  0  0  0
  127.4031  124.0952   61.6075 H   0  0  0  0  0  0  0  0  0  0  0  0
  129.0651  124.3898   60.9338 H   0  0  0  0  0  0  0  0  0  0  0  0
  129.7099  122.5868   59.0018 H   0  0  0  0  0  0  0  0  0  0  0  0
  128.9301  121.9587   56.6943 H   0  0  0  0  0  0  0  0  0  0  0  0
  125.6998  123.9366   60.0113 H   0  0  0  0  0  0  0  0  0  0  0  0
  124.2024  122.2409   55.7455 H   0  0  0  0  0  0  0  0  0  0  0  0
  124.9091  123.8552   55.4688 H   0  0  0  0  0  0  0  0  0  0  0  0
  128.9620  124.6290   62.9740 H   0  0  0  0  0  0  0  0  0  0  0  0
  131.9600  127.0570   64.2350 H   0  0  0  0  0  0  0  0  0  0  0  0
  132.2820  125.3350   64.2290 H   0  0  0  0  0  0  0  0  0  0  0  0
  128.5050  126.5810   64.0670 H   0  0  0  0  0  0  0  0  0  0  0  0
  129.7890  127.7680   64.1300 H   0  0  0  0  0  0  0  0  0  0  0  0
  1  2  1  0
  2  3  1  0
  3  4  1  0
  4  5  1  0
  5  6  2  0
  6  7  1  0
  7  8  2  0
  8  9  1  0
  9 10  2  0
  9 11  1  0
 11 12  1  0
 12 13  1  0
  2 14  2  0
 14 15  1  0
 15 16  1  0
 16 17  1  0
 16 18  2  0
 10  5  1  0
 13  8  1  0
  1 19  1  0
  1 20  1  0
  1 21  1  0
  3 22  1  0
  3 23  1  0
  4 24  1  0
  4 25  1  0
  6 26  1  0
  7 27  1  0
 10 28  1  0
 12 29  1  0
 12 30  1  0
 15 31  1  0
 17 32  1  0
 17 33  1  0
 18 34  1  0
 18 35  1  0
M  CHG  1  18   1
M  END
>  <Binding energies>  (1) 
[-7.52]

>  <Ligand effiencies>  (1) 
[-0.3269565217391304]

>  <Interactions>  (1) 
["V-A:LEU:475:CD2:4256, H-A:TYR:484:OH:4345, V-B:TYR:539:CD1:9845, V-B:TYR:539:C:9839, V-B:TYR:539:CE1:9847, V-B:GLU:543:CD:9880, V-B:PRO:540:CB:9857, V-A:ARG:545:CZ:4924, V-B:PRO:540:CA:9855, V-B:ALA:541:CB:9864, H-B:GLU:543:OE2:9882, H-B:GLU:543:OE1:9881, H-A:GLU:543:OE2:4908, H-A:GLU:543:OE1:4907, V-B:PRO:540:N:9856, V-A:GLU:543:CD:4906, V-B:TYR:539:CG:9844, V-B:ILE:538:CB:9834, H-B:TYR:539:N:9842, V-B:TYR:539:CD2:9846, V-B:PRO:540:CD:9859, V-B:TYR:539:CZ:9849, V-B:TYR:539:CA:9841, V-B:ILE:538:CG2:9835, V-B:TYR:531:CE2:9765, V-B:ALA:541:CA:9862, V-B:LEU:363:CD1:8160"]

$$$$
RR29_Rahimova_2017-again1
     RDKit          3D

 34 35  0  0  0  0  0  0  0  0999 V2000
  128.6830  122.8730   58.5810 C   0  0  0  0  0  0  0  0  0  0  0  0
  128.3220  122.9990   60.0530 C   0  0  0  0  0  0  0  0  0  0  0  0
  129.5480  123.0210   60.9860 C   0  0  0  0  0  0  0  0  0  0  0  0
  129.5720  121.7910   61.9180 C   0  0  0  0  0  0  0  0  0  0  0  0
  130.6080  120.7630   61.4880 C   0  0  0  0  0  0  0  0  0  0  0  0
  131.9050  121.1800   61.1320 C   0  0  0  0  0  0  0  0  0  0  0  0
  132.8770  120.2500   60.7350 C   0  0  0  0  0  0  0  0  0  0  0  0
  132.5070  118.9100   60.6980 C   0  0  0  0  0  0  0  0  0  0  0  0
  131.2490  118.5000   61.0400 C   0  0  0  0  0  0  0  0  0  0  0  0
  130.2700  119.4000   61.4470 C   0  0  0  0  0  0  0  0  0  0  0  0
  131.1760  117.1470   60.9460 O   0  0  0  0  0  0  0  0  0  0  0  0
  132.3680  116.7470   60.3240 C   0  0  0  0  0  0  0  0  0  0  0  0
  133.2620  117.8270   60.3790 O   0  0  0  0  0  0  0  0  0  0  0  0
  127.0820  123.0570   60.3930 N   0  0  0  0  0  0  0  0  0  0  0  0
  126.8170  123.1350   61.6570 N   0  0  0  0  0  0  0  0  0  0  0  0
  125.7110  123.6900   61.9950 C   0  0  0  0  0  0  0  0  0  0  0  0
  124.7150  124.2470   61.1450 N   0  0  0  0  0  0  0  0  0  0  0  0
  125.3370  123.8140   63.3500 N   0  0  0  0  0  0  0  0  0  0  0  0
  129.7177  122.5118   58.4868 H   0  0  0  0  0  0  0  0  0  0  0  0
  128.0002  122.1600   58.0957 H   0  0  0  0  0  0  0  0  0  0  0  0
  128.5921  123.8560   58.0957 H   0  0  0  0  0  0  0  0  0  0  0  0
  130.4624  123.0240   60.3746 H   0  0  0  0  0  0  0  0  0  0  0  0
  129.4908  123.9253   61.6096 H   0  0  0  0  0  0  0  0  0  0  0  0
  129.8074  122.1251   62.9392 H   0  0  0  0  0  0  0  0  0  0  0  0
  128.5825  121.3127   61.8708 H   0  0  0  0  0  0  0  0  0  0  0  0
  132.1593  122.2497   61.1657 H   0  0  0  0  0  0  0  0  0  0  0  0
  133.8941  120.5687   60.4630 H   0  0  0  0  0  0  0  0  0  0  0  0
  129.2636  119.0558   61.7277 H   0  0  0  0  0  0  0  0  0  0  0  0
  132.7938  115.8811   60.8522 H   0  0  0  0  0  0  0  0  0  0  0  0
  132.1788  116.4567   59.2800 H   0  0  0  0  0  0  0  0  0  0  0  0
  124.8120  124.2550   60.1390 H   0  0  0  0  0  0  0  0  0  0  0  0
  123.8720  124.6700   61.5020 H   0  0  0  0  0  0  0  0  0  0  0  0
  125.9230  123.4780   64.1000 H   0  0  0  0  0  0  0  0  0  0  0  0
  124.4740  124.2500   63.6370 H   0  0  0  0  0  0  0  0  0  0  0  0
  1  2  1  0
  2  3  1  0
  3  4  1  0
  4  5  1  0
  5  6  2  0
  6  7  1  0
  7  8  2  0
  8  9  1  0
  9 10  2  0
  9 11  1  0
 11 12  1  0
 12 13  1  0
  2 14  2  0
 14 15  1  0
 15 16  2  0
 16 17  1  0
 16 18  1  0
 10  5  1  0
 13  8  1  0
  1 19  1  0
  1 20  1  0
  1 21  1  0
  3 22  1  0
  3 23  1  0
  4 24  1  0
  4 25  1  0
  6 26  1  0
  7 27  1  0
 10 28  1  0
 12 29  1  0
 12 30  1  0
 17 31  1  0
 17 32  1  0
 18 33  1  0
 18 34  1  0
M  END
>  <Binding energies>  (1) 
[-6.43]

>  <Ligand effiencies>  (1) 
[-0.29227272727272724]

>  <Interactions>  (1) 
["V-B:GLU:543:CG:9879, V-A:LEU:475:CD2:4256, V-B:TYR:539:CD1:9845, V-B:TYR:539:C:9839, V-B:ASP:366:CG:8184, V-B:TYR:539:CE1:9847, V-B:GLU:543:CD:9880, V-B:PRO:540:CB:9857, H-B:ASP:366:OD1:8185, V-B:PRO:540:CA:9855, H-B:ASP:366:OD2:8186, V-B:ALA:541:CB:9864, H-B:GLU:543:OE2:9882, V-B:ARG:545:CZ:9898, V-B:ASN:362:CB:8147, H-B:GLU:543:OE1:9881, V-A:ILE:369:CG2:3234, V-A:LEU:373:CD1:3277, V-A:PRO:482:CG:4324, V-A:SER:385:CA:3404, V-A:SER:385:CB:3406, V-A:PRO:482:CB:4323, H-B:ALA:541:N:9863, V-B:ALA:541:CA:9862, V-B:ALA:541:C:9860, H-B:ALA:541:O:9861, H-B:ASN:362:O:8144"]

$$$$
RR2_Rahimova_2017
     RDKit          3D

 76 80  0  0  0  0  0  0  0  0999 V2000
  133.6260  122.9520   60.5570 C   0  0  0  0  0  0  0  0  0  0  0  0
  133.6700  123.3380   59.1880 O   0  0  0  0  0  0  0  0  0  0  0  0
  132.8680  124.3770   58.7530 C   0  0  0  0  0  0  0  0  0  0  0  0
  131.7180  124.8210   59.4200 C   0  0  0  0  0  0  0  0  0  0  0  0
  130.9690  125.8750   58.9050 C   0  0  0  0  0  0  0  0  0  0  0  0
  131.3490  126.5070   57.7120 C   0  0  0  0  0  0  0  0  0  0  0  0
  130.5120  127.6490   57.1680 C   0  0  0  0  0  0  0  0  0  0  0  0
  129.4560  127.4160   56.5690 O   0  0  0  0  0  0  0  0  0  0  0  0
  131.0050  128.8920   57.3730 N   0  0  0  0  0  0  0  0  0  0  0  0
  130.3250  129.9690   56.8150 N   0  0  0  0  0  0  0  0  0  0  0  0
  130.9740  131.1450   56.7040 C   0  0  0  0  0  0  0  0  0  0  0  0
  132.0660  131.4000   57.2210 O   0  0  0  0  0  0  0  0  0  0  0  0
  130.2750  132.2080   55.8450 C   0  0  0  0  0  0  0  0  0  0  0  0
  128.6270  132.7290   56.4470 S   0  0  0  0  0  0  0  0  0  0  0  0
  127.9420  131.1680   56.9130 C   0  0  0  0  0  0  0  0  0  0  0  0
  127.0820  130.5150   56.1730 N   0  0  0  0  0  0  0  0  0  0  0  0
  126.7060  129.3780   56.8730 N   0  0  0  0  0  0  0  0  0  0  0  0
  127.3770  129.3700   58.0010 C   0  0  0  0  0  0  0  0  0  0  0  0
  127.2540  128.2860   59.0220 C   0  0  0  0  0  0  0  0  0  0  0  0
  126.5420  128.5200   60.2010 C   0  0  0  0  0  0  0  0  0  0  0  0
  126.4280  127.5200   61.1620 C   0  0  0  0  0  0  0  0  0  0  0  0
  127.0130  126.2670   60.9440 C   0  0  0  0  0  0  0  0  0  0  0  0
  126.9390  125.2260   61.8820 N   0  0  0  0  0  0  0  0  0  0  0  0
  126.5440  123.5380   61.4900 S   0  0  0  0  0  0  0  0  0  0  0  0
  125.2310  123.2800   62.0920 O   0  0  0  0  0  0  0  0  0  0  0  0
  127.7050  122.7070   61.8330 O   0  0  0  0  0  0  0  0  0  0  0  0
  126.3120  123.5100   59.7140 C   0  0  0  0  0  0  0  0  0  0  0  0
  127.3590  123.1440   58.8650 C   0  0  0  0  0  0  0  0  0  0  0  0
  127.1630  123.1440   57.4870 C   0  0  0  0  0  0  0  0  0  0  0  0
  125.9210  123.5050   56.9590 C   0  0  0  0  0  0  0  0  0  0  0  0
  125.7140  123.5190   55.4550 C   0  0  0  0  0  0  0  0  0  0  0  0
  124.8780  123.8750   57.8100 C   0  0  0  0  0  0  0  0  0  0  0  0
  125.0730  123.8760   59.1880 C   0  0  0  0  0  0  0  0  0  0  0  0
  127.7210  126.0340   59.7660 C   0  0  0  0  0  0  0  0  0  0  0  0
  127.8410  127.0360   58.8070 C   0  0  0  0  0  0  0  0  0  0  0  0
  128.1860  130.4900   58.0940 N   0  0  0  0  0  0  0  0  0  0  0  0
  129.0260  130.8790   59.1580 C   0  0  0  0  0  0  0  0  0  0  0  0
  129.0610  132.2130   59.5670 C   0  0  0  0  0  0  0  0  0  0  0  0
  129.8890  132.5880   60.6210 C   0  0  0  0  0  0  0  0  0  0  0  0
  130.6860  131.6440   61.2710 C   0  0  0  0  0  0  0  0  0  0  0  0
  131.4750  132.1120   62.3030 O   0  0  0  0  0  0  0  0  0  0  0  0
  132.6820  131.4270   62.6220 C   0  0  0  0  0  0  0  0  0  0  0  0
  130.6440  130.3040   60.8520 C   0  0  0  0  0  0  0  0  0  0  0  0
  129.8160  129.9230   59.8000 C   0  0  0  0  0  0  0  0  0  0  0  0
  132.5050  126.0610   57.0540 C   0  0  0  0  0  0  0  0  0  0  0  0
  133.2530  125.0080   57.5720 C   0  0  0  0  0  0  0  0  0  0  0  0
  133.7277  123.8438   61.1929 H   0  0  0  0  0  0  0  0  0  0  0  0
  132.6658  122.4586   60.7682 H   0  0  0  0  0  0  0  0  0  0  0  0
  134.4505  122.2552   60.7682 H   0  0  0  0  0  0  0  0  0  0  0  0
  131.4058  124.3338   60.3555 H   0  0  0  0  0  0  0  0  0  0  0  0
  130.0698  126.2158   59.4391 H   0  0  0  0  0  0  0  0  0  0  0  0
  131.9990  129.0640   57.4240 H   0  0  0  0  0  0  0  0  0  0  0  0
  129.5690  129.6900   56.2040 H   0  0  0  0  0  0  0  0  0  0  0  0
  130.9218  133.0970   55.8093 H   0  0  0  0  0  0  0  0  0  0  0  0
  130.1105  131.7472   54.8598 H   0  0  0  0  0  0  0  0  0  0  0  0
  126.0695  129.4988   60.3704 H   0  0  0  0  0  0  0  0  0  0  0  0
  125.8774  127.7144   62.0943 H   0  0  0  0  0  0  0  0  0  0  0  0
  127.1510  125.4450   62.8440 H   0  0  0  0  0  0  0  0  0  0  0  0
  128.3348  122.8568   59.2838 H   0  0  0  0  0  0  0  0  0  0  0  0
  127.9855  122.8599   56.8141 H   0  0  0  0  0  0  0  0  0  0  0  0
  124.6390  123.5917   55.2335 H   0  0  0  0  0  0  0  0  0  0  0  0
  126.2371  124.3838   55.0209 H   0  0  0  0  0  0  0  0  0  0  0  0
  126.1159  122.5916   55.0209 H   0  0  0  0  0  0  0  0  0  0  0  0
  123.9030  124.1655   57.3918 H   0  0  0  0  0  0  0  0  0  0  0  0
  124.2520  124.1647   59.8608 H   0  0  0  0  0  0  0  0  0  0  0  0
  128.1875  125.0529   59.5932 H   0  0  0  0  0  0  0  0  0  0  0  0
  128.3987  126.8436   57.8786 H   0  0  0  0  0  0  0  0  0  0  0  0
  128.4377  132.9637   59.0592 H   0  0  0  0  0  0  0  0  0  0  0  0
  129.9157  133.6388   60.9451 H   0  0  0  0  0  0  0  0  0  0  0  0
  132.7907  131.3653   63.7149 H   0  0  0  0  0  0  0  0  0  0  0  0
  132.6505  130.4122   62.1988 H   0  0  0  0  0  0  0  0  0  0  0  0
  133.5371  131.9744   62.1988 H   0  0  0  0  0  0  0  0  0  0  0  0
  131.2682  129.5524   61.3574 H   0  0  0  0  0  0  0  0  0  0  0  0
  129.7840  128.8725   59.4754 H   0  0  0  0  0  0  0  0  0  0  0  0
  132.8230  126.5480   56.1203 H   0  0  0  0  0  0  0  0  0  0  0  0
  134.1570  124.6706   57.0439 H   0  0  0  0  0  0  0  0  0  0  0  0
  1  2  1  0
  2  3  1  0
  3  4  2  0
  4  5  1  0
  5  6  2  0
  6  7  1  0
  7  8  2  0
  7  9  1  0
  9 10  1  0
 10 11  1  0
 11 12  2  0
 11 13  1  0
 13 14  1  0
 14 15  1  0
 15 16  2  0
 16 17  1  0
 17 18  2  0
 18 19  1  0
 19 20  2  0
 20 21  1  0
 21 22  2  0
 22 23  1  0
 23 24  1  0
 24 25  2  0
 24 26  2  0
 24 27  1  0
 27 28  2  0
 28 29  1  0
 29 30  2  0
 30 31  1  0
 30 32  1  0
 32 33  2  0
 22 34  1  0
 34 35  2  0
 18 36  1  0
 36 37  1  0
 37 38  2  0
 38 39  1  0
 39 40  2  0
 40 41  1  0
 41 42  1  0
 40 43  1  0
 43 44  2  0
  6 45  1  0
 45 46  2  0
 46  3  1  0
 36 15  1  0
 44 37  1  0
 35 19  1  0
 33 27  1  0
  1 47  1  0
  1 48  1  0
  1 49  1  0
  4 50  1  0
  5 51  1  0
  9 52  1  0
 10 53  1  0
 13 54  1  0
 13 55  1  0
 20 56  1  0
 21 57  1  0
 23 58  1  0
 28 59  1  0
 29 60  1  0
 31 61  1  0
 31 62  1  0
 31 63  1  0
 32 64  1  0
 33 65  1  0
 34 66  1  0
 35 67  1  0
 38 68  1  0
 39 69  1  0
 42 70  1  0
 42 71  1  0
 42 72  1  0
 43 73  1  0
 44 74  1  0
 45 75  1  0
 46 76  1  0
M  END
>  <Binding energies>  (1) 
[-11.34]

>  <Ligand effiencies>  (1) 
[-0.23142857142857143]

>  <Interactions>  (1) 
["V-B:TYR:539:C:9839, V-B:ASP:366:CG:8184, V-B:PRO:540:C:9853, V-B:TYR:539:CE1:9847, V-B:GLU:543:CD:9880, V-B:PRO:540:CB:9857, V-A:ARG:545:CZ:4924, V-B:PRO:540:CA:9855, H-A:ASP:366:OD2:3212, H-B:GLU:543:OE2:9882, V-A:ASP:366:CG:3210, H-B:GLU:543:OE1:9881, V-B:PRO:540:N:9856, H-B:TYR:531:OH:9767, V-A:GLU:543:CD:4906, V-A:ILE:369:CD1:3236, H-B:ARG:545:NH2:9900, V-A:TYR:539:CE1:4873, V-A:TYR:539:C:4865, V-A:PRO:540:CA:4881, V-A:TYR:539:CD1:4871, V-A:PRO:540:N:4882, V-A:ILE:538:CA:4858, V-A:ILE:538:CB:4860, V-B:ILE:538:CB:9834, V-A:MET:535:CE:4833, V-B:TYR:539:CZ:9849, V-A:ILE:538:CG2:4861, V-B:ILE:538:CG2:9835, V-A:TYR:531:CZ:4792, V-B:MET:535:CE:9807, V-A:ILE:369:CG2:3234, V-A:ILE:369:CB:3233, H-A:TYR:531:OH:4793, V-B:TYR:531:CZ:9766, V-A:TYR:539:CZ:4875, H-B:ALA:541:N:9863, V-A:ASP:366:C:3205, V-A:ASP:366:CB:3209, V-A:ASP:366:CA:3207, V-B:TYR:531:CE2:9765, H-B:TYR:539:OH:9850, V-A:TYR:531:CE1:4790, V-A:PRO:540:C:4879, H-A:TYR:539:OH:4876, H-A:TYR:539:N:4868, V-A:ASN:362:CB:3173, H-A:ALA:541:N:4889, V-A:ALA:541:C:4886"]

$$$$
RR30_Rahimova_2017
     RDKit          3D

 29 30  0  0  0  0  0  0  0  0999 V2000
  131.0170  125.6150   55.9970 C   0  0  0  0  0  0  0  0  0  0  0  0
  131.6120  126.1340   57.3140 C   0  0  0  0  0  0  0  0  0  0  0  0
  132.1900  125.0200   58.1600 C   0  0  0  0  0  0  0  0  0  0  0  0
  133.3970  124.5120   58.1150 N   0  0  0  0  0  0  0  0  0  0  0  0
  133.4260  123.5110   59.0830 N   0  0  0  0  0  0  0  0  0  0  0  0
  132.2340  123.4950   59.6220 C   0  0  0  0  0  0  0  0  0  0  0  0
  131.6550  122.4510   60.9210 S   0  0  0  0  0  0  0  0  0  0  0  0
  130.1520  123.3590   61.4060 C   0  0  0  0  0  0  0  0  0  0  0  0
  128.9320  122.9380   60.5830 C   0  0  0  0  0  0  0  0  0  0  0  0
  127.9960  122.3640   61.1430 O   0  0  0  0  0  0  0  0  0  0  0  0
  128.9900  123.2080   59.2590 N   0  0  0  0  0  0  0  0  0  0  0  0
  128.0140  122.9210   58.3160 C   0  0  0  0  0  0  0  0  0  0  0  0
  128.0370  122.0050   57.3750 N   0  0  0  0  0  0  0  0  0  0  0  0
  126.8780  122.0050   56.6090 N   0  0  0  0  0  0  0  0  0  0  0  0
  126.0070  122.9150   56.9830 C   0  0  0  0  0  0  0  0  0  0  0  0
  124.6730  123.1130   56.3020 C   0  0  0  0  0  0  0  0  0  0  0  0
  126.5560  123.8620   58.3390 S   0  0  0  0  0  0  0  0  0  0  0  0
  131.4010  124.4260   59.0900 O   0  0  0  0  0  0  0  0  0  0  0  0
  130.2046  124.9064   56.2158 H   0  0  0  0  0  0  0  0  0  0  0  0
  130.6197  126.4603   55.4159 H   0  0  0  0  0  0  0  0  0  0  0  0
  131.8005  125.1066   55.4159 H   0  0  0  0  0  0  0  0  0  0  0  0
  132.4111  126.8535   57.0822 H   0  0  0  0  0  0  0  0  0  0  0  0
  130.8008  126.6065   57.8873 H   0  0  0  0  0  0  0  0  0  0  0  0
  129.9472  123.1632   62.4689 H   0  0  0  0  0  0  0  0  0  0  0  0
  130.3299  124.4291   61.2234 H   0  0  0  0  0  0  0  0  0  0  0  0
  129.8240  123.6570   58.9090 H   0  0  0  0  0  0  0  0  0  0  0  0
  123.8868  123.2297   57.0625 H   0  0  0  0  0  0  0  0  0  0  0  0
  124.7123  124.0151   55.6738 H   0  0  0  0  0  0  0  0  0  0  0  0
  124.4486  122.2383   55.6738 H   0  0  0  0  0  0  0  0  0  0  0  0
  1  2  1  0
  2  3  1  0
  3  4  2  0
  4  5  1  0
  5  6  2  0
  6  7  1  0
  7  8  1  0
  8  9  1  0
  9 10  2  0
  9 11  1  0
 11 12  1  0
 12 13  2  0
 13 14  1  0
 14 15  2  0
 15 16  1  0
 15 17  1  0
  6 18  1  0
 18  3  1  0
 17 12  1  0
  1 19  1  0
  1 20  1  0
  1 21  1  0
  2 22  1  0
  2 23  1  0
  8 24  1  0
  8 25  1  0
 11 26  1  0
 16 27  1  0
 16 28  1  0
 16 29  1  0
M  END
>  <Binding energies>  (1) 
[-6.76]

>  <Ligand effiencies>  (1) 
[-0.3557894736842105]

>  <Interactions>  (1) 
["V-B:TYR:539:CD1:9845, V-B:TYR:539:C:9839, V-B:TYR:539:CE1:9847, V-B:PRO:540:CA:9855, V-A:ASP:366:CG:3210, V-B:PRO:540:N:9856, V-B:ILE:538:CB:9834, H-B:TYR:539:N:9842, V-B:PRO:540:CD:9859, V-B:TYR:539:CZ:9849, V-B:ILE:538:CG2:9835, V-B:MET:535:CE:9807, H-B:ALA:541:N:9863, V-A:ASP:366:CB:3209, V-B:TYR:531:CE2:9765, H-B:TYR:539:OH:9850, V-A:TYR:531:CE1:4790, V-B:LEU:363:CD1:8160"]

$$$$
RR31_Rahimova_2017
     RDKit          3D

 44 45  0  0  0  0  0  0  0  0999 V2000
  132.2980  132.2840   55.9460 C   0  0  0  0  0  0  0  0  0  0  0  0
  131.3780  132.1590   57.1530 C   0  0  0  0  0  0  0  0  0  0  0  0
  131.9130  131.7620   58.3790 C   0  0  0  0  0  0  0  0  0  0  0  0
  131.0980  131.6420   59.5030 C   0  0  0  0  0  0  0  0  0  0  0  0
  129.7240  131.9240   59.4360 C   0  0  0  0  0  0  0  0  0  0  0  0
  128.8920  131.7980   60.5510 N   0  0  0  0  0  0  0  0  0  0  0  0
  127.7260  130.8930   60.5590 C   0  0  0  0  0  0  0  0  0  0  0  0
  126.7080  131.1850   61.6870 C   0  0  0  0  0  0  0  0  0  0  0  0
  127.3590  131.1570   62.9990 N   0  0  0  0  0  0  0  0  0  0  0  0
  126.4120  131.3960   64.0930 C   0  0  0  0  0  0  0  0  0  0  0  0
  126.0620  130.1150   64.8770 C   0  0  0  0  0  0  0  0  0  0  0  0
  127.2950  129.4830   65.5420 C   0  0  0  0  0  0  0  0  0  0  0  0
  128.1420  128.7570   64.4910 N   0  0  0  0  0  0  0  0  0  0  0  0
  128.3860  132.1990   63.0010 C   0  0  0  0  0  0  0  0  0  0  0  0
  129.4490  131.9240   61.9130 C   0  0  0  0  0  0  0  0  0  0  0  0
  129.1970  132.3130   58.1960 C   0  0  0  0  0  0  0  0  0  0  0  0
  130.0050  132.4370   57.0590 C   0  0  0  0  0  0  0  0  0  0  0  0
  129.3720  132.8610   55.7400 C   0  0  0  0  0  0  0  0  0  0  0  0
  133.3341  132.4248   56.2877 H   0  0  0  0  0  0  0  0  0  0  0  0
  132.2332  131.3688   55.3392 H   0  0  0  0  0  0  0  0  0  0  0  0
  131.9913  133.1487   55.3392 H   0  0  0  0  0  0  0  0  0  0  0  0
  132.9878  131.5418   58.4590 H   0  0  0  0  0  0  0  0  0  0  0  0
  131.5383  131.3210   60.4586 H   0  0  0  0  0  0  0  0  0  0  0  0
  127.2082  130.9880   59.5932 H   0  0  0  0  0  0  0  0  0  0  0  0
  128.1128  129.8785   60.7354 H   0  0  0  0  0  0  0  0  0  0  0  0
  126.2666  132.1795   61.5252 H   0  0  0  0  0  0  0  0  0  0  0  0
  125.9276  130.4100   61.6653 H   0  0  0  0  0  0  0  0  0  0  0  0
  126.8565  132.1226   64.7890 H   0  0  0  0  0  0  0  0  0  0  0  0
  125.4805  131.7731   63.6456 H   0  0  0  0  0  0  0  0  0  0  0  0
  125.3293  130.3672   65.6577 H   0  0  0  0  0  0  0  0  0  0  0  0
  125.6532  129.3847   64.1632 H   0  0  0  0  0  0  0  0  0  0  0  0
  127.8985  130.2718   66.0149 H   0  0  0  0  0  0  0  0  0  0  0  0
  126.9648  128.7600   66.3024 H   0  0  0  0  0  0  0  0  0  0  0  0
  127.6150  127.9970   64.0850 H   0  0  0  0  0  0  0  0  0  0  0  0
  128.9780  128.3820   64.9170 H   0  0  0  0  0  0  0  0  0  0  0  0
  128.4100  129.3960   63.7560 H   0  0  0  0  0  0  0  0  0  0  0  0
  127.9126  133.1723   62.8048 H   0  0  0  0  0  0  0  0  0  0  0  0
  128.8805  132.2049   63.9836 H   0  0  0  0  0  0  0  0  0  0  0  0
  130.1711  132.7538   61.9166 H   0  0  0  0  0  0  0  0  0  0  0  0
  129.9147  130.9581   62.1583 H   0  0  0  0  0  0  0  0  0  0  0  0
  128.1210  132.5263   58.1144 H   0  0  0  0  0  0  0  0  0  0  0  0
  128.4735  133.4628   55.9412 H   0  0  0  0  0  0  0  0  0  0  0  0
  130.0925  133.4594   55.1631 H   0  0  0  0  0  0  0  0  0  0  0  0
  129.0929  131.9670   55.1631 H   0  0  0  0  0  0  0  0  0  0  0  0
  1  2  1  0
  2  3  2  0
  3  4  1  0
  4  5  2  0
  5  6  1  0
  6  7  1  0
  7  8  1  0
  8  9  1  0
  9 10  1  0
 10 11  1  0
 11 12  1  0
 12 13  1  0
  9 14  1  0
 14 15  1  0
  5 16  1  0
 16 17  2  0
 17 18  1  0
 17  2  1  0
 15  6  1  0
  1 19  1  0
  1 20  1  0
  1 21  1  0
  3 22  1  0
  4 23  1  0
  7 24  1  0
  7 25  1  0
  8 26  1  0
  8 27  1  0
 10 28  1  0
 10 29  1  0
 11 30  1  0
 11 31  1  0
 12 32  1  0
 12 33  1  0
 13 34  1  0
 13 35  1  0
 13 36  1  0
 14 37  1  0
 14 38  1  0
 15 39  1  0
 15 40  1  0
 16 41  1  0
 18 42  1  0
 18 43  1  0
 18 44  1  0
M  CHG  1  13   1
M  END
>  <Binding energies>  (1) 
[-7.31]

>  <Ligand effiencies>  (1) 
[-0.34809523809523807]

>  <Interactions>  (1) 
["V-B:GLU:543:CD:9880, H-B:GLU:543:OE2:9882, H-B:GLU:543:OE1:9881, H-A:GLU:543:OE2:4908, H-A:GLU:543:OE1:4907, V-A:GLU:543:CD:4906, V-A:TYR:539:CE1:4873, V-A:TYR:539:C:4865, V-A:ALA:541:CB:4890, V-A:PRO:540:CA:4881, V-A:TYR:539:CD1:4871, V-A:PRO:540:CB:4883, V-A:PRO:540:N:4882, V-A:LEU:363:CD1:3186, V-A:ILE:538:CA:4858, V-A:ILE:538:C:4856, V-A:TYR:539:CG:4870, V-A:ILE:538:CB:4860, V-A:MET:535:CE:4833, V-A:ILE:538:CG2:4861, V-A:TYR:531:CE2:4791, V-A:TYR:539:CD2:4872, V-A:TYR:539:CE2:4874"]

$$$$
RR32_Rahimova_2017
     RDKit          3D

 37 39  0  0  0  0  0  0  0  0999 V2000
  125.2790  123.9150   61.4920 C   0  0  0  0  0  0  0  0  0  0  0  0
  126.2290  123.5130   60.3690 C   0  0  0  0  0  0  0  0  0  0  0  0
  127.5320  123.1460   60.7070 C   0  0  0  0  0  0  0  0  0  0  0  0
  128.4260  122.7690   59.7100 C   0  0  0  0  0  0  0  0  0  0  0  0
  129.7180  122.4060   60.0490 N   0  0  0  0  0  0  0  0  0  0  0  0
  130.6940  123.4910   60.2520 C   0  0  0  0  0  0  0  0  0  0  0  0
  132.1420  122.9820   60.4470 C   0  0  0  0  0  0  0  0  0  0  0  0
  132.2080  122.0760   61.5930 N   0  0  0  0  0  0  0  0  0  0  0  0
  133.5790  121.6210   61.7970 C   0  0  0  0  0  0  0  0  0  0  0  0
  131.3320  120.9380   61.3200 C   0  0  0  0  0  0  0  0  0  0  0  0
  129.8730  121.4170   61.1330 C   0  0  0  0  0  0  0  0  0  0  0  0
  128.0880  122.7440   58.3950 N   0  0  0  0  0  0  0  0  0  0  0  0
  126.8250  123.0990   58.0330 C   0  0  0  0  0  0  0  0  0  0  0  0
  126.5000  123.0660   56.6550 C   0  0  0  0  0  0  0  0  0  0  0  0
  125.2250  123.4190   56.2270 C   0  0  0  0  0  0  0  0  0  0  0  0
  124.2560  123.8070   57.1440 C   0  0  0  0  0  0  0  0  0  0  0  0
  124.5430  123.8510   58.5050 C   0  0  0  0  0  0  0  0  0  0  0  0
  125.8360  123.4990   58.9900 C   0  0  0  0  0  0  0  0  0  0  0  0
  125.7540  123.7140   62.4636 H   0  0  0  0  0  0  0  0  0  0  0  0
  125.0489  124.9876   61.4112 H   0  0  0  0  0  0  0  0  0  0  0  0
  124.3489  123.3333   61.4112 H   0  0  0  0  0  0  0  0  0  0  0  0
  127.8517  123.1547   61.7595 H   0  0  0  0  0  0  0  0  0  0  0  0
  130.6711  124.1505   59.3720 H   0  0  0  0  0  0  0  0  0  0  0  0
  130.4073  124.0195   61.1731 H   0  0  0  0  0  0  0  0  0  0  0  0
  132.4642  122.4469   59.5416 H   0  0  0  0  0  0  0  0  0  0  0  0
  132.8034  123.8417   60.6301 H   0  0  0  0  0  0  0  0  0  0  0  0
  133.7859  121.5523   62.8752 H   0  0  0  0  0  0  0  0  0  0  0  0
  133.7095  120.6314   61.3348 H   0  0  0  0  0  0  0  0  0  0  0  0
  134.2753  122.3362   61.3348 H   0  0  0  0  0  0  0  0  0  0  0  0
  131.6685  120.4327   60.4027 H   0  0  0  0  0  0  0  0  0  0  0  0
  131.3740  120.2417   62.1705 H   0  0  0  0  0  0  0  0  0  0  0  0
  129.2458  120.5436   60.9011 H   0  0  0  0  0  0  0  0  0  0  0  0
  129.5690  121.9088   62.0688 H   0  0  0  0  0  0  0  0  0  0  0  0
  127.2593  122.7599   55.9203 H   0  0  0  0  0  0  0  0  0  0  0  0
  124.9818  123.3909   55.1546 H   0  0  0  0  0  0  0  0  0  0  0  0
  123.2514  124.0823   56.7905 H   0  0  0  0  0  0  0  0  0  0  0  0
  123.7623  124.1613   59.2151 H   0  0  0  0  0  0  0  0  0  0  0  0
  1  2  1  0
  2  3  2  0
  3  4  1  0
  4  5  1  0
  5  6  1  0
  6  7  1  0
  7  8  1  0
  8  9  1  0
  8 10  1  0
 10 11  1  0
  4 12  2  0
 12 13  1  0
 13 14  2  0
 14 15  1  0
 15 16  2  0
 16 17  1  0
 17 18  2  0
 18  2  1  0
 11  5  1  0
 18 13  1  0
  1 19  1  0
  1 20  1  0
  1 21  1  0
  3 22  1  0
  6 23  1  0
  6 24  1  0
  7 25  1  0
  7 26  1  0
  9 27  1  0
  9 28  1  0
  9 29  1  0
 10 30  1  0
 10 31  1  0
 11 32  1  0
 11 33  1  0
 14 34  1  0
 15 35  1  0
 16 36  1  0
 17 37  1  0
M  END
>  <Binding energies>  (1) 
[-6.67]

>  <Ligand effiencies>  (1) 
[-0.3705555555555555]

>  <Interactions>  (1) 
["V-A:LEU:475:CD2:4256, V-A:GLY:454:CA:4046, V-B:TYR:539:CD1:9845, V-B:TYR:539:C:9839, V-B:ASP:366:CG:8184, V-B:PRO:540:C:9853, V-B:TYR:539:CE1:9847, V-B:PRO:540:CB:9857, V-B:PRO:540:CA:9855, V-B:ALA:541:CB:9864, V-B:PRO:540:N:9856, V-A:ILE:369:CD1:3236, V-B:ILE:538:CB:9834, V-B:ILE:538:CG2:9835, V-A:ILE:369:CG2:3234, V-B:TYR:531:CZ:9766, V-B:TYR:531:CE2:9765, V-B:LEU:363:CD1:8160, V-B:LEU:363:CA:8156"]

$$$$
RR32_Rahimova_2017-again1
     RDKit          3D

 38 40  0  0  0  0  0  0  0  0999 V2000
  133.6000  131.3230   57.1130 C   0  0  0  0  0  0  0  0  0  0  0  0
  132.2450  131.5770   57.7580 C   0  0  0  0  0  0  0  0  0  0  0  0
  132.0840  131.4370   59.1360 C   0  0  0  0  0  0  0  0  0  0  0  0
  130.8390  131.6760   59.7270 C   0  0  0  0  0  0  0  0  0  0  0  0
  130.6520  131.5320   61.1060 N   0  0  0  0  0  0  0  0  0  0  0  0
  129.3560  131.8760   61.7240 C   0  0  0  0  0  0  0  0  0  0  0  0
  128.3500  130.7010   61.6880 C   0  0  0  0  0  0  0  0  0  0  0  0
  128.9460  129.5210   62.4800 N   0  0  0  0  0  0  0  0  0  0  0  0
  127.9900  128.3120   62.4630 C   0  0  0  0  0  0  0  0  0  0  0  0
  130.3080  129.1470   61.8610 C   0  0  0  0  0  0  0  0  0  0  0  0
  131.2150  130.4000   61.8730 C   0  0  0  0  0  0  0  0  0  0  0  0
  129.7550  132.0210   58.9790 N   0  0  0  0  0  0  0  0  0  0  0  0
  129.8810  132.1680   57.6330 C   0  0  0  0  0  0  0  0  0  0  0  0
  128.7360  132.5430   56.8890 C   0  0  0  0  0  0  0  0  0  0  0  0
  128.8210  132.7070   55.5090 C   0  0  0  0  0  0  0  0  0  0  0  0
  130.0270  132.5050   54.8460 C   0  0  0  0  0  0  0  0  0  0  0  0
  131.1700  132.1340   55.5500 C   0  0  0  0  0  0  0  0  0  0  0  0
  131.1230  131.9570   56.9600 C   0  0  0  0  0  0  0  0  0  0  0  0
  134.3584  131.1808   57.8970 H   0  0  0  0  0  0  0  0  0  0  0  0
  133.5450  130.4195   56.4879 H   0  0  0  0  0  0  0  0  0  0  0  0
  133.8759  132.1851   56.4879 H   0  0  0  0  0  0  0  0  0  0  0  0
  132.9388  131.1377   59.7602 H   0  0  0  0  0  0  0  0  0  0  0  0
  129.5297  132.1593   62.7726 H   0  0  0  0  0  0  0  0  0  0  0  0
  128.9210  132.7053   61.1469 H   0  0  0  0  0  0  0  0  0  0  0  0
  127.3995  131.0125   62.1457 H   0  0  0  0  0  0  0  0  0  0  0  0
  128.1613  130.3988   60.6473 H   0  0  0  0  0  0  0  0  0  0  0  0
  129.0980  129.8190   63.4330 H   0  0  0  0  0  0  0  0  0  0  0  0
  127.7555  128.0154   63.4960 H   0  0  0  0  0  0  0  0  0  0  0  0
  127.0616  128.5860   61.9404 H   0  0  0  0  0  0  0  0  0  0  0  0
  128.4706  127.4718   61.9404 H   0  0  0  0  0  0  0  0  0  0  0  0
  130.7757  128.3450   62.4510 H   0  0  0  0  0  0  0  0  0  0  0  0
  130.1679  128.7938   60.8287 H   0  0  0  0  0  0  0  0  0  0  0  0
  131.3562  130.7198   62.9160 H   0  0  0  0  0  0  0  0  0  0  0  0
  132.1656  130.1209   61.3950 H   0  0  0  0  0  0  0  0  0  0  0  0
  127.7769  132.7052   57.4027 H   0  0  0  0  0  0  0  0  0  0  0  0
  127.9270  132.9987   54.9383 H   0  0  0  0  0  0  0  0  0  0  0  0
  130.0784  132.6395   53.7555 H   0  0  0  0  0  0  0  0  0  0  0  0
  132.1161  131.9768   55.0112 H   0  0  0  0  0  0  0  0  0  0  0  0
  1  2  1  0
  2  3  2  0
  3  4  1  0
  4  5  1  0
  5  6  1  0
  6  7  1  0
  7  8  1  0
  8  9  1  0
  8 10  1  0
 10 11  1  0
  4 12  2  0
 12 13  1  0
 13 14  2  0
 14 15  1  0
 15 16  2  0
 16 17  1  0
 17 18  2  0
 18  2  1  0
 11  5  1  0
 18 13  1  0
  1 19  1  0
  1 20  1  0
  1 21  1  0
  3 22  1  0
  6 23  1  0
  6 24  1  0
  7 25  1  0
  7 26  1  0
  8 27  1  0
  9 28  1  0
  9 29  1  0
  9 30  1  0
 10 31  1  0
 10 32  1  0
 11 33  1  0
 11 34  1  0
 14 35  1  0
 15 36  1  0
 16 37  1  0
 17 38  1  0
M  CHG  1   8   1
M  END
>  <Binding energies>  (1) 
[-7.37]

>  <Ligand effiencies>  (1) 
[-0.3878947368421053]

>  <Interactions>  (1) 
["H-A:GLU:543:OE2:4908, H-A:GLU:543:OE1:4907, V-A:GLU:543:CD:4906, V-A:TYR:539:CE1:4873, V-A:TYR:539:C:4865, V-A:ALA:541:CB:4890, V-A:PRO:540:CA:4881, V-A:TYR:539:CD1:4871, V-A:PRO:540:CB:4883, V-A:PRO:540:N:4882, V-A:LEU:363:CD1:3186, V-A:ILE:538:CA:4858, V-A:ILE:538:C:4856, V-A:TYR:539:CG:4870, V-A:ILE:538:CB:4860, V-A:MET:535:CE:4833, V-A:ILE:538:CG2:4861, V-A:TYR:531:CE2:4791, V-A:TYR:531:CZ:4792, V-A:TYR:539:CD2:4872, V-A:TYR:539:CE2:4874, V-A:TYR:539:CZ:4875, V-A:ASP:366:CB:3209, V-A:LEU:363:CA:3182, V-A:LEU:363:CB:3184"]

$$$$
RR32_Rahimova_2017-again2
     RDKit          3D

 39 41  0  0  0  0  0  0  0  0999 V2000
  133.6260  131.3100   56.9880 C   0  0  0  0  0  0  0  0  0  0  0  0
  132.2830  131.5410   57.6690 C   0  0  0  0  0  0  0  0  0  0  0  0
  132.1590  131.3800   59.0520 C   0  0  0  0  0  0  0  0  0  0  0  0
  130.9310  131.5820   59.6950 C   0  0  0  0  0  0  0  0  0  0  0  0
  130.7540  131.4430   61.1190 N   0  0  0  0  0  0  0  0  0  0  0  0
  129.5010  131.8960   61.7790 C   0  0  0  0  0  0  0  0  0  0  0  0
  128.4160  130.7880   61.7170 C   0  0  0  0  0  0  0  0  0  0  0  0
  128.9380  129.5140   62.4240 N   0  0  0  0  0  0  0  0  0  0  0  0
  127.9080  128.3720   62.3330 C   0  0  0  0  0  0  0  0  0  0  0  0
  130.2960  129.0860   61.8200 C   0  0  0  0  0  0  0  0  0  0  0  0
  131.2830  130.2830   61.8800 C   0  0  0  0  0  0  0  0  0  0  0  0
  129.8750  131.9460   58.9390 N   0  0  0  0  0  0  0  0  0  0  0  0
  129.9020  132.1300   57.5760 C   0  0  0  0  0  0  0  0  0  0  0  0
  128.7340  132.5120   56.8780 C   0  0  0  0  0  0  0  0  0  0  0  0
  128.7990  132.6920   55.4990 C   0  0  0  0  0  0  0  0  0  0  0  0
  129.9950  132.5000   54.8130 C   0  0  0  0  0  0  0  0  0  0  0  0
  131.1560  132.1220   55.4890 C   0  0  0  0  0  0  0  0  0  0  0  0
  131.1410  131.9260   56.8990 C   0  0  0  0  0  0  0  0  0  0  0  0
  134.4061  131.1758   57.7518 H   0  0  0  0  0  0  0  0  0  0  0  0
  133.5686  130.4085   56.3602 H   0  0  0  0  0  0  0  0  0  0  0  0
  133.8730  132.1788   56.3602 H   0  0  0  0  0  0  0  0  0  0  0  0
  133.0393  131.0902   59.6445 H   0  0  0  0  0  0  0  0  0  0  0  0
  129.7134  132.1347   62.8316 H   0  0  0  0  0  0  0  0  0  0  0  0
  129.1268  132.7868   61.2533 H   0  0  0  0  0  0  0  0  0  0  0  0
  127.5038  131.1395   62.2214 H   0  0  0  0  0  0  0  0  0  0  0  0
  128.1881  130.5566   60.6660 H   0  0  0  0  0  0  0  0  0  0  0  0
  129.0930  129.7440   63.3970 H   0  0  0  0  0  0  0  0  0  0  0  0
  127.6218  128.0547   63.3466 H   0  0  0  0  0  0  0  0  0  0  0  0
  127.0164  128.7245   61.7937 H   0  0  0  0  0  0  0  0  0  0  0  0
  128.3503  127.5214   61.7937 H   0  0  0  0  0  0  0  0  0  0  0  0
  130.7052  128.2429   62.3959 H   0  0  0  0  0  0  0  0  0  0  0  0
  130.1536  128.7772   60.7739 H   0  0  0  0  0  0  0  0  0  0  0  0
  131.4293  130.5772   62.9298 H   0  0  0  0  0  0  0  0  0  0  0  0
  132.2387  129.9740   61.4314 H   0  0  0  0  0  0  0  0  0  0  0  0
  128.9980  132.1020   59.4130 H   0  0  0  0  0  0  0  0  0  0  0  0
  127.7871  132.6649   57.4166 H   0  0  0  0  0  0  0  0  0  0  0  0
  127.8959  132.9890   54.9457 H   0  0  0  0  0  0  0  0  0  0  0  0
  130.0254  132.6482   53.7235 H   0  0  0  0  0  0  0  0  0  0  0  0
  132.0904  131.9743   54.9277 H   0  0  0  0  0  0  0  0  0  0  0  0
  1  2  1  0
  2  3  2  0
  3  4  1  0
  4  5  1  0
  5  6  1  0
  6  7  1  0
  7  8  1  0
  8  9  1  0
  8 10  1  0
 10 11  1  0
  4 12  2  0
 12 13  1  0
 13 14  2  0
 14 15  1  0
 15 16  2  0
 16 17  1  0
 17 18  2  0
 18  2  1  0
 11  5  1  0
 18 13  1  0
  1 19  1  0
  1 20  1  0
  1 21  1  0
  3 22  1  0
  6 23  1  0
  6 24  1  0
  7 25  1  0
  7 26  1  0
  8 27  1  0
  9 28  1  0
  9 29  1  0
  9 30  1  0
 10 31  1  0
 10 32  1  0
 11 33  1  0
 11 34  1  0
 12 35  1  0
 14 36  1  0
 15 37  1  0
 16 38  1  0
 17 39  1  0
M  CHG  2   8   1  12   1
M  END
>  <Binding energies>  (1) 
[-7.46]

>  <Ligand effiencies>  (1) 
[-0.373]

>  <Interactions>  (1) 
["H-A:GLU:543:OE2:4908, H-A:GLU:543:OE1:4907, V-A:GLU:543:CD:4906, V-A:TYR:539:CE1:4873, V-A:ALA:541:CB:4890, V-A:PRO:540:CA:4881, V-A:TYR:539:CD1:4871, V-A:PRO:540:CB:4883, V-A:PRO:540:N:4882, V-A:LEU:363:CD1:3186, V-A:ILE:538:CA:4858, V-A:ILE:538:C:4856, V-A:TYR:539:CG:4870, V-A:ILE:538:CB:4860, V-A:MET:535:CE:4833, V-A:ILE:538:CG2:4861, V-A:TYR:531:CE2:4791, V-A:TYR:531:CZ:4792, V-A:TYR:539:CD2:4872, V-A:TYR:539:CE2:4874, V-A:TYR:539:CZ:4875, V-A:ASP:366:CB:3209, V-A:LEU:363:CA:3182, H-A:TYR:539:O:4866"]

$$$$
RR33_Rahimova_2017
     RDKit          3D

 36 37  0  0  0  0  0  0  0  0999 V2000
  132.9190  118.8100   60.7680 C   0  0  0  0  0  0  0  0  0  0  0  0
  133.6320  120.1660   60.7430 C   0  0  0  0  0  0  0  0  0  0  0  0
  132.9890  121.0380   61.6690 O   0  0  0  0  0  0  0  0  0  0  0  0
  131.7450  121.5540   61.3630 C   0  0  0  0  0  0  0  0  0  0  0  0
  130.6430  120.7910   61.7490 C   0  0  0  0  0  0  0  0  0  0  0  0
  129.3500  121.2290   61.4790 C   0  0  0  0  0  0  0  0  0  0  0  0
  129.1380  122.4420   60.8180 C   0  0  0  0  0  0  0  0  0  0  0  0
  127.7480  122.9100   60.5280 C   0  0  0  0  0  0  0  0  0  0  0  0
  127.2090  123.1450   59.3530 N   0  0  0  0  0  0  0  0  0  0  0  0
  125.9700  123.5360   59.6080 C   0  0  0  0  0  0  0  0  0  0  0  0
  125.0180  123.8900   58.4860 C   0  0  0  0  0  0  0  0  0  0  0  0
  125.6120  123.5810   57.1930 N   0  0  0  0  0  0  0  0  0  0  0  0
  125.0250  122.3740   56.6350 C   0  0  0  0  0  0  0  0  0  0  0  0
  125.7550  123.5380   60.9810 C   0  0  0  0  0  0  0  0  0  0  0  0
  124.5920  123.8660   61.8850 C   0  0  0  0  0  0  0  0  0  0  0  0
  126.9040  123.1350   61.5690 O   0  0  0  0  0  0  0  0  0  0  0  0
  130.2400  123.2120   60.4330 C   0  0  0  0  0  0  0  0  0  0  0  0
  131.5350  122.7740   60.7010 C   0  0  0  0  0  0  0  0  0  0  0  0
  132.7563  118.5005   61.8109 H   0  0  0  0  0  0  0  0  0  0  0  0
  131.9495  118.8960   60.2555 H   0  0  0  0  0  0  0  0  0  0  0  0
  133.5394  118.0600   60.2555 H   0  0  0  0  0  0  0  0  0  0  0  0
  134.6862  120.0351   61.0287 H   0  0  0  0  0  0  0  0  0  0  0  0
  133.5862  120.5947   59.7310 H   0  0  0  0  0  0  0  0  0  0  0  0
  130.7973  119.8352   62.2711 H   0  0  0  0  0  0  0  0  0  0  0  0
  128.4897  120.6169   61.7877 H   0  0  0  0  0  0  0  0  0  0  0  0
  124.0892  123.3127   58.6043 H   0  0  0  0  0  0  0  0  0  0  0  0
  124.8041  124.9681   58.5294 H   0  0  0  0  0  0  0  0  0  0  0  0
  126.6060  123.4380   57.3090 H   0  0  0  0  0  0  0  0  0  0  0  0
  124.7028  121.7115   57.4519 H   0  0  0  0  0  0  0  0  0  0  0  0
  124.1563  122.6413   56.0154 H   0  0  0  0  0  0  0  0  0  0  0  0
  125.7717  121.8557   56.0154 H   0  0  0  0  0  0  0  0  0  0  0  0
  124.9074  123.7771   62.9351 H   0  0  0  0  0  0  0  0  0  0  0  0
  124.2543  124.8944   61.6894 H   0  0  0  0  0  0  0  0  0  0  0  0
  123.7667  123.1656   61.6894 H   0  0  0  0  0  0  0  0  0  0  0  0
  130.0833  124.1698   59.9152 H   0  0  0  0  0  0  0  0  0  0  0  0
  132.3956  123.3860   60.3930 H   0  0  0  0  0  0  0  0  0  0  0  0
  1  2  1  0
  2  3  1  0
  3  4  1  0
  4  5  2  0
  5  6  1  0
  6  7  2  0
  7  8  1  0
  8  9  2  0
  9 10  1  0
 10 11  1  0
 11 12  1  0
 12 13  1  0
 10 14  2  0
 14 15  1  0
 14 16  1  0
  7 17  1  0
 17 18  2  0
 18  4  1  0
 16  8  1  0
  1 19  1  0
  1 20  1  0
  1 21  1  0
  2 22  1  0
  2 23  1  0
  5 24  1  0
  6 25  1  0
 11 26  1  0
 11 27  1  0
 12 28  1  0
 13 29  1  0
 13 30  1  0
 13 31  1  0
 15 32  1  0
 15 33  1  0
 15 34  1  0
 17 35  1  0
 18 36  1  0
M  END
>  <Binding energies>  (1) 
[-4.97]

>  <Ligand effiencies>  (1) 
[-0.261578947368421]

>  <Interactions>  (1) 
["V-A:LEU:475:CD2:4256, V-B:TYR:539:CD1:9845, V-B:TYR:539:C:9839, V-B:PRO:540:C:9853, V-B:TYR:539:CE1:9847, V-B:PRO:540:CB:9857, V-B:PRO:540:CA:9855, V-B:ALA:541:CB:9864, V-B:ARG:545:CZ:9898, V-B:ASN:362:CB:8147, V-B:PRO:540:N:9856, H-B:TYR:531:OH:9767, V-B:ILE:538:CB:9834, V-B:PRO:540:CD:9859, V-B:ILE:538:CG2:9835, V-A:ILE:369:CG2:3234, V-A:LEU:373:CD1:3277, V-A:SER:385:CA:3404, V-A:SER:385:CB:3406, H-B:ALA:541:N:9863, V-B:PRO:540:CG:9858, V-B:ALA:541:CA:9862, V-B:LEU:363:CD1:8160, V-A:SER:385:C:3402"]

$$$$
RR33_Rahimova_2017-again1
     RDKit          3D

 37 38  0  0  0  0  0  0  0  0999 V2000
  124.4290  123.8680   56.6330 C   0  0  0  0  0  0  0  0  0  0  0  0
  124.9760  122.4380   56.6460 C   0  0  0  0  0  0  0  0  0  0  0  0
  126.3960  122.4880   56.5470 O   0  0  0  0  0  0  0  0  0  0  0  0
  127.1460  122.7660   57.6740 C   0  0  0  0  0  0  0  0  0  0  0  0
  126.4370  123.1250   58.8200 C   0  0  0  0  0  0  0  0  0  0  0  0
  127.1050  123.4220   60.0050 C   0  0  0  0  0  0  0  0  0  0  0  0
  128.5020  123.3640   60.0590 C   0  0  0  0  0  0  0  0  0  0  0  0
  129.2240  123.6810   61.3290 C   0  0  0  0  0  0  0  0  0  0  0  0
  129.4190  124.8650   61.8670 N   0  0  0  0  0  0  0  0  0  0  0  0
  130.1020  124.6390   62.9790 C   0  0  0  0  0  0  0  0  0  0  0  0
  130.5310  125.7790   63.8820 C   0  0  0  0  0  0  0  0  0  0  0  0
  129.4930  126.9100   63.7940 N   0  0  0  0  0  0  0  0  0  0  0  0
  129.5740  127.7180   62.4910 C   0  0  0  0  0  0  0  0  0  0  0  0
  130.3330  123.2750   63.1120 C   0  0  0  0  0  0  0  0  0  0  0  0
  131.0330  122.3960   64.1180 C   0  0  0  0  0  0  0  0  0  0  0  0
  129.7630  122.6630   62.0470 O   0  0  0  0  0  0  0  0  0  0  0  0
  129.2170  123.0040   58.9110 C   0  0  0  0  0  0  0  0  0  0  0  0
  128.5470  122.7070   57.7280 C   0  0  0  0  0  0  0  0  0  0  0  0
  124.2949  124.2187   57.6669 H   0  0  0  0  0  0  0  0  0  0  0  0
  125.1384  124.5272   56.1114 H   0  0  0  0  0  0  0  0  0  0  0  0
  123.4607  123.8855   56.1114 H   0  0  0  0  0  0  0  0  0  0  0  0
  124.6882  121.9408   57.5841 H   0  0  0  0  0  0  0  0  0  0  0  0
  124.5623  121.8722   55.7982 H   0  0  0  0  0  0  0  0  0  0  0  0
  125.3386  123.1740   58.7874 H   0  0  0  0  0  0  0  0  0  0  0  0
  126.5328  123.7031   60.9014 H   0  0  0  0  0  0  0  0  0  0  0  0
  130.5984  125.4211   64.9200 H   0  0  0  0  0  0  0  0  0  0  0  0
  131.5147  126.1538   63.5629 H   0  0  0  0  0  0  0  0  0  0  0  0
  128.5690  126.5110   63.8760 H   0  0  0  0  0  0  0  0  0  0  0  0
  129.6310  127.5350   64.5750 H   0  0  0  0  0  0  0  0  0  0  0  0
  129.6811  128.7867   62.7283 H   0  0  0  0  0  0  0  0  0  0  0  0
  130.4431  127.3835   61.9056 H   0  0  0  0  0  0  0  0  0  0  0  0
  128.6558  127.5627   61.9056 H   0  0  0  0  0  0  0  0  0  0  0  0
  130.7722  122.7234   65.1352 H   0  0  0  0  0  0  0  0  0  0  0  0
  130.7161  121.3522   63.9762 H   0  0  0  0  0  0  0  0  0  0  0  0
  132.1212  122.4712   63.9762 H   0  0  0  0  0  0  0  0  0  0  0  0
  130.3154  122.9555   58.9440 H   0  0  0  0  0  0  0  0  0  0  0  0
  129.1181  122.4247   56.8313 H   0  0  0  0  0  0  0  0  0  0  0  0
  1  2  1  0
  2  3  1  0
  3  4  1  0
  4  5  2  0
  5  6  1  0
  6  7  2  0
  7  8  1  0
  8  9  2  0
  9 10  1  0
 10 11  1  0
 11 12  1  0
 12 13  1  0
 10 14  2  0
 14 15  1  0
 14 16  1  0
  7 17  1  0
 17 18  2  0
 18  4  1  0
 16  8  1  0
  1 19  1  0
  1 20  1  0
  1 21  1  0
  2 22  1  0
  2 23  1  0
  5 24  1  0
  6 25  1  0
 11 26  1  0
 11 27  1  0
 12 28  1  0
 12 29  1  0
 13 30  1  0
 13 31  1  0
 13 32  1  0
 15 33  1  0
 15 34  1  0
 15 35  1  0
 17 36  1  0
 18 37  1  0
M  CHG  1  12   1
M  END
>  <Binding energies>  (1) 
[-6.57]

>  <Ligand effiencies>  (1) 
[-0.3285]

>  <Interactions>  (1) 
["V-A:LEU:475:CD2:4256, V-B:TYR:539:CD1:9845, V-B:TYR:539:C:9839, V-A:TYR:484:CE2:4343, V-B:TYR:539:CE1:9847, V-B:GLU:543:CD:9880, V-B:PRO:540:CB:9857, V-B:PRO:540:CA:9855, V-B:ALA:541:CB:9864, V-A:TYR:484:CZ:4344, H-B:GLU:543:OE2:9882, H-B:GLU:543:OE1:9881, H-A:GLU:543:OE2:4908, H-A:GLU:543:OE1:4907, V-B:PRO:540:N:9856, V-A:GLU:543:CD:4906, V-B:TYR:539:CG:9844, V-B:ILE:538:CB:9834, H-B:TYR:539:N:9842, V-B:PRO:540:CD:9859, V-B:TYR:539:CZ:9849, V-B:ILE:538:CG2:9835, V-B:TYR:531:CZ:9766, V-B:TYR:531:CE2:9765, V-B:PRO:540:CG:9858, V-B:LEU:363:CD1:8160"]

$$$$
RR3_Rahimova_2017
     RDKit          3D

 63 69  0  0  0  0  0  0  0  0999 V2000
  129.7390  130.9360   57.0260 C   0  0  0  0  0  0  0  0  0  0  0  0
  128.7840  129.9340   57.1630 C   0  0  0  0  0  0  0  0  0  0  0  0
  129.1250  128.7350   57.7830 C   0  0  0  0  0  0  0  0  0  0  0  0
  130.4220  128.5230   58.2750 C   0  0  0  0  0  0  0  0  0  0  0  0
  130.7880  127.2340   58.9430 C   0  0  0  0  0  0  0  0  0  0  0  0
  131.3190  126.1670   58.2070 C   0  0  0  0  0  0  0  0  0  0  0  0
  131.6560  124.9670   58.8280 C   0  0  0  0  0  0  0  0  0  0  0  0
  131.4600  124.8050   60.2020 C   0  0  0  0  0  0  0  0  0  0  0  0
  131.8150  123.5160   60.8750 C   0  0  0  0  0  0  0  0  0  0  0  0
  132.1250  122.4490   60.1460 N   0  0  0  0  0  0  0  0  0  0  0  0
  132.4300  121.4940   60.9910 C   0  0  0  0  0  0  0  0  0  0  0  0
  132.8340  120.1400   60.6210 C   0  0  0  0  0  0  0  0  0  0  0  0
  134.1280  119.7240   60.3600 C   0  0  0  0  0  0  0  0  0  0  0  0
  134.1420  118.3880   60.0520 N   0  0  0  0  0  0  0  0  0  0  0  0
  132.8620  117.8830   60.0980 C   0  0  0  0  0  0  0  0  0  0  0  0
  132.3810  116.5910   59.8630 C   0  0  0  0  0  0  0  0  0  0  0  0
  131.0060  116.3940   59.9900 C   0  0  0  0  0  0  0  0  0  0  0  0
  130.1450  117.4300   60.3350 C   0  0  0  0  0  0  0  0  0  0  0  0
  130.6240  118.7180   60.5700 C   0  0  0  0  0  0  0  0  0  0  0  0
  132.0030  118.9710   60.4550 C   0  0  0  0  0  0  0  0  0  0  0  0
  132.3150  121.9290   62.2830 N   0  0  0  0  0  0  0  0  0  0  0  0
  131.8940  123.2330   62.2490 C   0  0  0  0  0  0  0  0  0  0  0  0
  131.6010  124.0230   63.4820 C   0  0  0  0  0  0  0  0  0  0  0  0
  130.6700  123.5520   64.4090 C   0  0  0  0  0  0  0  0  0  0  0  0
  130.3840  124.2910   65.5530 C   0  0  0  0  0  0  0  0  0  0  0  0
  131.0250  125.5140   65.8000 C   0  0  0  0  0  0  0  0  0  0  0  0
  130.7010  126.3150   67.0210 C   0  0  0  0  0  0  0  0  0  0  0  0
  129.4800  126.1430   67.6920 C   0  0  0  0  0  0  0  0  0  0  0  0
  129.1810  126.8860   68.8320 C   0  0  0  0  0  0  0  0  0  0  0  0
  130.1020  127.8110   69.3140 C   0  0  0  0  0  0  0  0  0  0  0  0
  131.3180  127.9960   68.6660 C   0  0  0  0  0  0  0  0  0  0  0  0
  131.6140  127.2540   67.5260 C   0  0  0  0  0  0  0  0  0  0  0  0
  131.9710  125.9660   64.8700 C   0  0  0  0  0  0  0  0  0  0  0  0
  132.2590  125.2300   63.7240 C   0  0  0  0  0  0  0  0  0  0  0  0
  130.9430  125.8670   60.9460 C   0  0  0  0  0  0  0  0  0  0  0  0
  130.6070  127.0650   60.3220 C   0  0  0  0  0  0  0  0  0  0  0  0
  131.3690  129.5470   58.1250 C   0  0  0  0  0  0  0  0  0  0  0  0
  131.0310  130.7470   57.5050 C   0  0  0  0  0  0  0  0  0  0  0  0
  129.4708  131.8836   56.5359 H   0  0  0  0  0  0  0  0  0  0  0  0
  127.7633  130.0883   56.7830 H   0  0  0  0  0  0  0  0  0  0  0  0
  128.3681  127.9438   57.8885 H   0  0  0  0  0  0  0  0  0  0  0  0
  131.4719  126.2786   57.1234 H   0  0  0  0  0  0  0  0  0  0  0  0
  132.0784  124.1430   58.2343 H   0  0  0  0  0  0  0  0  0  0  0  0
  135.0166  120.3715   60.3946 H   0  0  0  0  0  0  0  0  0  0  0  0
  134.9930  117.8920   59.8320 H   0  0  0  0  0  0  0  0  0  0  0  0
  133.0568  115.7670   59.5902 H   0  0  0  0  0  0  0  0  0  0  0  0
  130.5911  115.3909   59.8122 H   0  0  0  0  0  0  0  0  0  0  0  0
  129.0671  117.2298   60.4241 H   0  0  0  0  0  0  0  0  0  0  0  0
  129.9311  119.5277   60.8424 H   0  0  0  0  0  0  0  0  0  0  0  0
  132.4820  121.3790   63.1130 H   0  0  0  0  0  0  0  0  0  0  0  0
  130.1603  122.5929   64.2347 H   0  0  0  0  0  0  0  0  0  0  0  0
  129.6450  123.9108   66.2736 H   0  0  0  0  0  0  0  0  0  0  0  0
  128.7502  125.4125   67.3130 H   0  0  0  0  0  0  0  0  0  0  0  0
  128.2208  126.7420   69.3489 H   0  0  0  0  0  0  0  0  0  0  0  0
  129.8665  128.3994   70.2131 H   0  0  0  0  0  0  0  0  0  0  0  0
  132.0439  128.7264   69.0529 H   0  0  0  0  0  0  0  0  0  0  0  0
  132.5759  127.4055   67.0143 H   0  0  0  0  0  0  0  0  0  0  0  0
  132.4941  126.9171   65.0484 H   0  0  0  0  0  0  0  0  0  0  0  0
  133.0069  125.6005   63.0075 H   0  0  0  0  0  0  0  0  0  0  0  0
  130.8004  125.7565   62.0311 H   0  0  0  0  0  0  0  0  0  0  0  0
  130.1936  127.8906   60.9199 H   0  0  0  0  0  0  0  0  0  0  0  0
  132.3918  129.4000   58.5021 H   0  0  0  0  0  0  0  0  0  0  0  0
  131.7828  131.5424   57.3945 H   0  0  0  0  0  0  0  0  0  0  0  0
  1  2  2  0
  2  3  1  0
  3  4  2  0
  4  5  1  0
  5  6  2  0
  6  7  1  0
  7  8  2  0
  8  9  1  0
  9 10  1  0
 10 11  2  0
 11 12  1  0
 12 13  2  0
 13 14  1  0
 14 15  1  0
 15 16  2  0
 16 17  1  0
 17 18  2  0
 18 19  1  0
 19 20  2  0
 11 21  1  0
 21 22  1  0
 22 23  1  0
 23 24  2  0
 24 25  1  0
 25 26  2  0
 26 27  1  0
 27 28  2  0
 28 29  1  0
 29 30  2  0
 30 31  1  0
 31 32  2  0
 26 33  1  0
 33 34  2  0
  8 35  1  0
 35 36  2  0
  4 37  1  0
 37 38  2  0
 38  1  1  0
 36  5  1  0
 22  9  2  0
 34 23  1  0
 20 12  1  0
 32 27  1  0
 20 15  1  0
  1 39  1  0
  2 40  1  0
  3 41  1  0
  6 42  1  0
  7 43  1  0
 13 44  1  0
 14 45  1  0
 16 46  1  0
 17 47  1  0
 18 48  1  0
 19 49  1  0
 21 50  1  0
 24 51  1  0
 25 52  1  0
 28 53  1  0
 29 54  1  0
 30 55  1  0
 31 56  1  0
 32 57  1  0
 33 58  1  0
 34 59  1  0
 35 60  1  0
 36 61  1  0
 37 62  1  0
 38 63  1  0
M  END
>  <Binding energies>  (1) 
[-8.8]

>  <Ligand effiencies>  (1) 
[-0.22000000000000003]

>  <Interactions>  (1) 
["V-A:HIS:456:CE1:4066, V-A:GLY:544:C:4910, V-B:GLU:543:CG:9879, V-A:LEU:475:CD2:4256, V-B:TYR:539:CD1:9845, V-B:TYR:539:C:9839, V-A:TYR:484:CE2:4343, V-B:GLU:543:CB:9878, V-B:TYR:539:CE1:9847, V-B:GLU:543:CD:9880, V-A:ARG:545:CZ:4924, V-A:TYR:484:CZ:4344, V-A:ASP:366:CG:3210, V-A:GLU:543:CD:4906, V-A:ARG:545:CD:4921, V-A:ARG:545:CG:4920, V-B:TYR:539:CG:9844, V-A:MET:535:CE:4833, V-A:ILE:369:CG2:3234, V-A:LEU:373:CD1:3277, V-A:GLU:543:CB:4904, V-A:PRO:482:CG:4324, V-A:SER:385:CA:3404, V-A:SER:385:CB:3406, V-A:PRO:482:CB:4323, V-A:VAL:384:C:3394, V-A:ASP:366:CB:3209, V-B:TYR:539:CB:9843, V-B:GLU:543:C:9874, V-A:GLU:543:C:4900, V-A:GLU:543:CG:4905, V-A:SER:385:C:3402, V-B:VAL:344:CG1:7972, H-A:VAL:384:O:3395, V-A:LEU:373:CG:3276"]

$$$$
RR4_Rahimova_2017
     RDKit          3D

 66 70  0  0  0  0  0  0  0  0999 V2000
  129.5380  132.8720   55.0970 C   0  0  0  0  0  0  0  0  0  0  0  0
  128.2030  132.5510   55.4730 O   0  0  0  0  0  0  0  0  0  0  0  0
  127.9610  131.3790   56.1630 C   0  0  0  0  0  0  0  0  0  0  0  0
  128.9260  130.9870   57.0890 C   0  0  0  0  0  0  0  0  0  0  0  0
  128.7660  129.8210   57.8310 C   0  0  0  0  0  0  0  0  0  0  0  0
  127.6350  129.0080   57.6670 C   0  0  0  0  0  0  0  0  0  0  0  0
  127.4660  127.7490   58.4690 C   0  0  0  0  0  0  0  0  0  0  0  0
  128.1870  127.4940   59.6400 C   0  0  0  0  0  0  0  0  0  0  0  0
  127.9910  126.3060   60.3550 C   0  0  0  0  0  0  0  0  0  0  0  0
  128.7760  126.1150   61.6110 C   0  0  0  0  0  0  0  0  0  0  0  0
  129.5840  124.9850   61.7700 C   0  0  0  0  0  0  0  0  0  0  0  0
  130.3280  124.8050   62.9330 C   0  0  0  0  0  0  0  0  0  0  0  0
  130.2860  125.7530   63.9550 C   0  0  0  0  0  0  0  0  0  0  0  0
  131.0580  125.4910   65.0700 O   0  0  0  0  0  0  0  0  0  0  0  0
  132.4610  125.3030   64.9160 C   0  0  0  0  0  0  0  0  0  0  0  0
  129.4810  126.8920   63.7980 C   0  0  0  0  0  0  0  0  0  0  0  0
  128.7380  127.0690   62.6340 C   0  0  0  0  0  0  0  0  0  0  0  0
  127.0670  125.3590   59.8490 C   0  0  0  0  0  0  0  0  0  0  0  0
  126.8220  124.1000   60.5590 C   0  0  0  0  0  0  0  0  0  0  0  0
  126.6290  123.1060   61.1190 N   0  0  0  0  0  0  0  0  0  0  0  0
  126.3940  125.6690   58.6450 C   0  0  0  0  0  0  0  0  0  0  0  0
  125.2110  124.5940   57.8600 S   0  0  0  0  0  0  0  0  0  0  0  0
  126.1310  123.4520   56.7760 C   0  0  0  0  0  0  0  0  0  0  0  0
  127.5110  123.0410   57.3080 C   0  0  0  0  0  0  0  0  0  0  0  0
  127.8160  121.8500   57.4030 O   0  0  0  0  0  0  0  0  0  0  0  0
  128.3120  124.0730   57.6610 N   0  0  0  0  0  0  0  0  0  0  0  0
  129.6120  124.0280   58.1710 C   0  0  0  0  0  0  0  0  0  0  0  0
  130.0470  123.0960   59.5800 S   0  0  0  0  0  0  0  0  0  0  0  0
  131.7030  123.6080   59.4760 C   0  0  0  0  0  0  0  0  0  0  0  0
  131.9090  124.4730   58.3900 C   0  0  0  0  0  0  0  0  0  0  0  0
  130.7270  124.6970   57.6430 C   0  0  0  0  0  0  0  0  0  0  0  0
  130.6750  125.5420   56.4540 C   0  0  0  0  0  0  0  0  0  0  0  0
  130.6340  126.2130   55.5120 N   0  0  0  0  0  0  0  0  0  0  0  0
  133.2990  125.0320   58.0620 C   0  0  0  0  0  0  0  0  0  0  0  0
  134.3970  124.2240   58.7890 C   0  0  0  0  0  0  0  0  0  0  0  0
  134.0500  123.9710   60.2660 C   0  0  0  0  0  0  0  0  0  0  0  0
  132.7840  123.1010   60.4220 C   0  0  0  0  0  0  0  0  0  0  0  0
  126.5790  126.8390   57.9910 N   0  0  0  0  0  0  0  0  0  0  0  0
  126.6670  129.4120   56.7340 C   0  0  0  0  0  0  0  0  0  0  0  0
  126.8240  130.5780   55.9900 C   0  0  0  0  0  0  0  0  0  0  0  0
  130.1482  133.0187   56.0004 H   0  0  0  0  0  0  0  0  0  0  0  0
  129.9587  132.0494   54.5000 H   0  0  0  0  0  0  0  0  0  0  0  0
  129.5387  133.7959   54.5000 H   0  0  0  0  0  0  0  0  0  0  0  0
  129.8236  131.6060   57.2348 H   0  0  0  0  0  0  0  0  0  0  0  0
  129.5392  129.5321   58.5581 H   0  0  0  0  0  0  0  0  0  0  0  0
  128.9154  128.2341   60.0030 H   0  0  0  0  0  0  0  0  0  0  0  0
  129.6323  124.2320   60.9696 H   0  0  0  0  0  0  0  0  0  0  0  0
  130.9541  123.9077   63.0467 H   0  0  0  0  0  0  0  0  0  0  0  0
  132.9335  125.2397   65.9074 H   0  0  0  0  0  0  0  0  0  0  0  0
  132.6474  124.3718   64.3608 H   0  0  0  0  0  0  0  0  0  0  0  0
  132.8860  126.1522   64.3608 H   0  0  0  0  0  0  0  0  0  0  0  0
  129.4370  127.6469   64.5969 H   0  0  0  0  0  0  0  0  0  0  0  0
  128.1148  127.9679   62.5173 H   0  0  0  0  0  0  0  0  0  0  0  0
  125.5279  122.5413   56.6459 H   0  0  0  0  0  0  0  0  0  0  0  0
  126.3072  123.9901   55.8329 H   0  0  0  0  0  0  0  0  0  0  0  0
  127.9380  125.0010   57.5320 H   0  0  0  0  0  0  0  0  0  0  0  0
  133.4655  124.9722   56.9763 H   0  0  0  0  0  0  0  0  0  0  0  0
  133.3482  126.0782   58.3981 H   0  0  0  0  0  0  0  0  0  0  0  0
  134.5179  123.2551   58.2825 H   0  0  0  0  0  0  0  0  0  0  0  0
  135.3264  124.8115   58.7562 H   0  0  0  0  0  0  0  0  0  0  0  0
  134.8956  123.4570   60.7464 H   0  0  0  0  0  0  0  0  0  0  0  0
  133.8542  124.9439   60.7404 H   0  0  0  0  0  0  0  0  0  0  0  0
  133.0245  122.0557   60.1781 H   0  0  0  0  0  0  0  0  0  0  0  0
  132.4225  123.1603   61.4592 H   0  0  0  0  0  0  0  0  0  0  0  0
  125.7676  128.7957   56.5881 H   0  0  0  0  0  0  0  0  0  0  0  0
  126.0524  130.8720   55.2632 H   0  0  0  0  0  0  0  0  0  0  0  0
  1  2  1  0
  2  3  1  0
  3  4  2  0
  4  5  1  0
  5  6  2  0
  6  7  1  0
  7  8  2  0
  8  9  1  0
  9 10  1  0
 10 11  2  0
 11 12  1  0
 12 13  2  0
 13 14  1  0
 14 15  1  0
 13 16  1  0
 16 17  2  0
  9 18  2  0
 18 19  1  0
 19 20  3  0
 18 21  1  0
 21 22  1  0
 22 23  1  0
 23 24  1  0
 24 25  2  0
 24 26  1  0
 26 27  1  0
 27 28  1  0
 28 29  1  0
 29 30  2  0
 30 31  1  0
 31 32  1  0
 32 33  3  0
 30 34  1  0
 34 35  1  0
 35 36  1  0
 36 37  1  0
 21 38  2  0
  6 39  1  0
 39 40  2  0
 40  3  1  0
 38  7  1  0
 17 10  1  0
 31 27  2  0
 37 29  1  0
  1 41  1  0
  1 42  1  0
  1 43  1  0
  4 44  1  0
  5 45  1  0
  8 46  1  0
 11 47  1  0
 12 48  1  0
 15 49  1  0
 15 50  1  0
 15 51  1  0
 16 52  1  0
 17 53  1  0
 23 54  1  0
 23 55  1  0
 26 56  1  0
 34 57  1  0
 34 58  1  0
 35 59  1  0
 35 60  1  0
 36 61  1  0
 36 62  1  0
 37 63  1  0
 37 64  1  0
 39 65  1  0
 40 66  1  0
M  END
>  <Binding energies>  (1) 
[-8.56]

>  <Ligand effiencies>  (1) 
[-0.20878048780487807]

>  <Interactions>  (1) 
["H-A:TYR:484:OH:4345, V-B:TYR:539:CD1:9845, V-B:TYR:539:C:9839, V-B:ASP:366:CG:8184, V-B:TYR:539:CE1:9847, V-B:GLU:543:CD:9880, V-A:ARG:545:CZ:4924, V-B:PRO:540:CA:9855, V-A:ASP:366:CG:3210, V-B:PRO:540:N:9856, H-B:TYR:531:OH:9767, V-A:GLU:543:CD:4906, V-A:ILE:369:CD1:3236, V-A:TYR:539:CE1:4873, V-A:ILE:538:CA:4858, V-A:ILE:538:C:4856, V-A:ILE:538:CB:4860, H-B:TYR:539:N:9842, V-A:MET:535:CE:4833, V-B:TYR:539:CZ:9849, V-A:ILE:538:CG2:4861, V-B:MET:535:CE:9807, V-A:ILE:369:CG2:3234, V-A:ILE:369:CB:3233, H-A:TYR:531:OH:4793, V-A:TYR:539:CD2:4872, V-A:TYR:539:CE2:4874, V-A:TYR:539:CZ:4875, H-B:ALA:541:N:9863, V-A:ASP:366:C:3205, V-A:ASP:366:CB:3209, V-A:ASP:366:CA:3207, H-A:TYR:539:OH:4876, V-A:ILE:369:CG1:3235"]

$$$$
RR5_Rahimova_2017
     RDKit          3D

 77 82  0  0  0  0  0  0  0  0999 V2000
  128.5900  127.3180   59.9530 O   0  0  0  0  0  0  0  0  0  0  0  0
  127.4690  126.8440   60.1290 C   0  0  0  0  0  0  0  0  0  0  0  0
  126.4030  127.6670   60.8790 C   0  0  0  0  0  0  0  0  0  0  0  0
  126.7110  129.2050   60.9430 C   0  0  2  0  0  0  0  0  0  0  0  0
  127.5480  129.7190   59.8400 N   0  0  0  0  0  0  0  0  0  0  0  0
  127.0060  130.0400   58.6030 C   0  0  0  0  0  0  0  0  0  0  0  0
  125.8140  129.9900   58.2860 O   0  0  0  0  0  0  0  0  0  0  0  0
  128.0060  130.4080   57.7840 O   0  0  0  0  0  0  0  0  0  0  0  0
  128.0230  131.6890   57.1610 C   0  0  0  0  0  0  0  0  0  0  0  0
  129.1330  132.5780   57.7640 C   0  0  0  0  0  0  0  0  0  0  0  0
  129.2380  132.4790   59.2750 C   0  0  0  0  0  0  0  0  0  0  0  0
  128.2720  132.7320   60.2530 C   0  0  0  0  0  0  0  0  0  0  0  0
  128.5840  132.5520   61.6020 C   0  0  0  0  0  0  0  0  0  0  0  0
  129.8580  132.1220   61.9750 C   0  0  0  0  0  0  0  0  0  0  0  0
  130.8260  131.8710   61.0010 C   0  0  0  0  0  0  0  0  0  0  0  0
  130.5120  132.0520   59.6530 C   0  0  0  0  0  0  0  0  0  0  0  0
  131.3230  131.8740   58.4380 C   0  0  0  0  0  0  0  0  0  0  0  0
  132.6520  131.4780   58.2690 C   0  0  0  0  0  0  0  0  0  0  0  0
  133.1940  131.4110   56.9850 C   0  0  0  0  0  0  0  0  0  0  0  0
  132.4100  131.7350   55.8750 C   0  0  0  0  0  0  0  0  0  0  0  0
  131.0820  132.1260   56.0480 C   0  0  0  0  0  0  0  0  0  0  0  0
  130.5340  132.1920   57.3310 C   0  0  0  0  0  0  0  0  0  0  0  0
  127.3510  129.5810   62.3020 C   0  0  0  0  0  0  0  0  0  0  0  0
  126.7270  129.8710   63.3040 O   0  0  0  0  0  0  0  0  0  0  0  0
  128.7110  129.5180   62.2030 O   0  0  0  0  0  0  0  0  0  0  0  0
  127.0630  125.6350   59.6820 N   0  0  0  0  0  0  0  0  0  0  0  0
  127.7400  124.5380   58.9270 C   0  0  0  0  0  0  0  0  0  0  0  0
  126.5370  123.8550   58.1930 C   0  0  0  0  0  0  0  0  0  0  0  0
  126.7330  123.0430   57.0640 C   0  0  0  0  0  0  0  0  0  0  0  0
  125.6560  122.4400   56.4200 C   0  0  0  0  0  0  0  0  0  0  0  0
  124.3640  122.6460   56.8890 C   0  0  0  0  0  0  0  0  0  0  0  0
  124.1400  123.4440   58.0050 C   0  0  0  0  0  0  0  0  0  0  0  0
  125.2180  124.0380   58.6540 C   0  0  0  0  0  0  0  0  0  0  0  0
  128.7490  125.2080   57.9350 C   0  0  0  0  0  0  0  0  0  0  0  0
  130.0830  124.7820   57.8400 C   0  0  0  0  0  0  0  0  0  0  0  0
  130.9690  125.4060   56.9630 C   0  0  0  0  0  0  0  0  0  0  0  0
  130.5320  126.4640   56.1730 C   0  0  0  0  0  0  0  0  0  0  0  0
  129.2130  126.9010   56.2470 C   0  0  0  0  0  0  0  0  0  0  0  0
  128.3280  126.2720   57.1160 C   0  0  0  0  0  0  0  0  0  0  0  0
  128.4010  123.6130   60.0040 C   0  0  0  0  0  0  0  0  0  0  0  0
  128.2940  123.9080   61.3760 C   0  0  0  0  0  0  0  0  0  0  0  0
  128.8860  123.0940   62.3370 C   0  0  0  0  0  0  0  0  0  0  0  0
  129.5920  121.9630   61.9440 C   0  0  0  0  0  0  0  0  0  0  0  0
  129.7030  121.6380   60.5970 C   0  0  0  0  0  0  0  0  0  0  0  0
  129.1100  122.4550   59.6390 C   0  0  0  0  0  0  0  0  0  0  0  0
  125.4379  127.5286   60.3697 H   0  0  0  0  0  0  0  0  0  0  0  0
  126.3912  127.3017   61.9165 H   0  0  0  0  0  0  0  0  0  0  0  0
  125.7308  129.6913   60.8304 H   0  0  0  0  0  0  0  0  0  0  0  0
  128.5520  129.6720   59.9400 H   0  0  0  0  0  0  0  0  0  0  0  0
  128.2069  131.5636   56.0838 H   0  0  0  0  0  0  0  0  0  0  0  0
  127.0511  132.1758   57.3296 H   0  0  0  0  0  0  0  0  0  0  0  0
  128.8278  133.5733   57.4088 H   0  0  0  0  0  0  0  0  0  0  0  0
  127.2677  133.0723   59.9604 H   0  0  0  0  0  0  0  0  0  0  0  0
  127.8240  132.7496   62.3723 H   0  0  0  0  0  0  0  0  0  0  0  0
  130.1000  131.9805   63.0387 H   0  0  0  0  0  0  0  0  0  0  0  0
  131.8307  131.5324   61.2942 H   0  0  0  0  0  0  0  0  0  0  0  0
  133.2678  131.2204   59.1433 H   0  0  0  0  0  0  0  0  0  0  0  0
  134.2407  131.1024   56.8465 H   0  0  0  0  0  0  0  0  0  0  0  0
  132.8400  131.6818   54.8639 H   0  0  0  0  0  0  0  0  0  0  0  0
  130.4661  132.3825   55.1734 H   0  0  0  0  0  0  0  0  0  0  0  0
  129.1470  129.7580   63.0230 H   0  0  0  0  0  0  0  0  0  0  0  0
  126.1440  125.3650   60.0010 H   0  0  0  0  0  0  0  0  0  0  0  0
  127.7522  122.8811   56.6831 H   0  0  0  0  0  0  0  0  0  0  0  0
  125.8274  121.8013   55.5410 H   0  0  0  0  0  0  0  0  0  0  0  0
  123.5138  122.1749   56.3741 H   0  0  0  0  0  0  0  0  0  0  0  0
  123.1160  123.6050   58.3731 H   0  0  0  0  0  0  0  0  0  0  0  0
  125.0375  124.6612   59.5423 H   0  0  0  0  0  0  0  0  0  0  0  0
  130.4332  123.9467   58.4643 H   0  0  0  0  0  0  0  0  0  0  0  0
  132.0118  125.0622   56.8959 H   0  0  0  0  0  0  0  0  0  0  0  0
  131.2337  126.9585   55.4852 H   0  0  0  0  0  0  0  0  0  0  0  0
  128.8722  127.7393   55.6216 H   0  0  0  0  0  0  0  0  0  0  0  0
  127.2828  126.6115   57.1639 H   0  0  0  0  0  0  0  0  0  0  0  0
  127.7321  124.7984   61.6945 H   0  0  0  0  0  0  0  0  0  0  0  0
  128.7955  123.3448   63.4042 H   0  0  0  0  0  0  0  0  0  0  0  0
  130.0651  121.3221   62.7025 H   0  0  0  0  0  0  0  0  0  0  0  0
  130.2572  120.7389   60.2896 H   0  0  0  0  0  0  0  0  0  0  0  0
  129.1977  122.1895   58.5751 H   0  0  0  0  0  0  0  0  0  0  0  0
  1  2  2  0
  2  3  1  0
  3  4  1  0
  4  5  1  0
  5  6  1  0
  6  7  2  0
  6  8  1  0
  8  9  1  0
  9 10  1  0
 10 11  1  0
 11 12  2  0
 12 13  1  0
 13 14  2  0
 14 15  1  0
 15 16  2  0
 16 17  1  0
 17 18  2  0
 18 19  1  0
 19 20  2  0
 20 21  1  0
 21 22  2  0
  4 23  1  0
 23 24  2  0
 23 25  1  0
  2 26  1  0
 26 27  1  0
 27 28  1  0
 28 29  2  0
 29 30  1  0
 30 31  2  0
 31 32  1  0
 32 33  2  0
 27 34  1  0
 34 35  2  0
 35 36  1  0
 36 37  2  0
 37 38  1  0
 38 39  2  0
 27 40  1  0
 40 41  2  0
 41 42  1  0
 42 43  2  0
 43 44  1  0
 44 45  2  0
 22 10  1  0
 33 28  1  0
 39 34  1  0
 45 40  1  0
 16 11  1  0
 22 17  1  0
  3 46  1  0
  3 47  1  0
  4 48  1  1
  5 49  1  0
  9 50  1  0
  9 51  1  0
 10 52  1  0
 12 53  1  0
 13 54  1  0
 14 55  1  0
 15 56  1  0
 18 57  1  0
 19 58  1  0
 20 59  1  0
 21 60  1  0
 25 61  1  0
 26 62  1  0
 29 63  1  0
 30 64  1  0
 31 65  1  0
 32 66  1  0
 33 67  1  0
 35 68  1  0
 36 69  1  0
 37 70  1  0
 38 71  1  0
 39 72  1  0
 41 73  1  0
 42 74  1  0
 43 75  1  0
 44 76  1  0
 45 77  1  0
M  END
>  <Binding energies>  (1) 
[-10.41]

>  <Ligand effiencies>  (1) 
[-0.216875]

>  <Interactions>  (1) 
["V-B:TYR:539:CD1:9845, V-B:TYR:539:C:9839, V-B:ASP:366:CG:8184, V-B:TYR:539:CE1:9847, V-B:PRO:540:CB:9857, V-B:PRO:540:CA:9855, H-B:ASP:366:OD2:8186, V-B:ALA:541:CB:9864, H-A:GLU:543:OE2:4908, H-A:GLU:543:OE1:4907, V-B:PRO:540:N:9856, V-A:TYR:539:CE1:4873, V-A:TYR:539:C:4865, V-A:ALA:541:CB:4890, V-A:PRO:540:CA:4881, V-A:TYR:539:CD1:4871, V-A:PRO:540:CB:4883, V-A:PRO:540:N:4882, V-A:LEU:363:CD1:3186, V-A:ILE:538:CA:4858, V-A:TYR:539:CG:4870, V-A:ILE:538:CB:4860, V-B:ILE:538:CB:9834, V-A:MET:535:CE:4833, V-B:PRO:540:CD:9859, V-B:TYR:539:CZ:9849, V-A:ILE:538:CG2:4861, V-B:ILE:538:CG2:9835, V-A:TYR:531:CE2:4791, V-A:TYR:531:CZ:4792, V-B:ILE:538:CA:9832, V-B:MET:535:CE:9807, V-A:TYR:539:CE2:4874, V-A:TYR:539:CZ:4875, V-B:PRO:540:CG:9858, V-B:LEU:363:CD1:8160, V-A:PRO:540:C:4879, H-A:TYR:539:OH:4876, V-A:ALA:541:CA:4888, V-B:LEU:363:CA:8156, V-B:LEU:363:CB:8158"]

$$$$
RR5_Rahimova_2017-again1
     RDKit          3D

 76 81  0  0  0  0  0  0  0  0999 V2000
  130.1450  128.2330   56.7350 O   0  0  0  0  0  0  0  0  0  0  0  0
  130.3110  128.0980   57.9480 C   0  0  0  0  0  0  0  0  0  0  0  0
  131.0540  126.8470   58.4600 C   0  0  0  0  0  0  0  0  0  0  0  0
  130.5380  125.4630   57.9460 C   0  0  2  0  0  0  0  0  0  0  0  0
  131.2860  124.3840   58.6250 N   0  0  0  0  0  0  0  0  0  0  0  0
  132.6660  124.2640   58.5050 C   0  0  0  0  0  0  0  0  0  0  0  0
  133.4100  124.9860   57.8350 O   0  0  0  0  0  0  0  0  0  0  0  0
  133.0740  123.2180   59.2480 O   0  0  0  0  0  0  0  0  0  0  0  0
  133.6260  123.4140   60.5450 C   0  0  0  0  0  0  0  0  0  0  0  0
  132.7930  122.6550   61.5960 C   0  0  0  0  0  0  0  0  0  0  0  0
  131.3440  123.1060   61.6610 C   0  0  0  0  0  0  0  0  0  0  0  0
  130.8150  124.3680   61.9440 C   0  0  0  0  0  0  0  0  0  0  0  0
  129.4330  124.5620   61.9350 C   0  0  0  0  0  0  0  0  0  0  0  0
  128.5770  123.4970   61.6470 C   0  0  0  0  0  0  0  0  0  0  0  0
  129.1020  122.2340   61.3690 C   0  0  0  0  0  0  0  0  0  0  0  0
  130.4850  122.0420   61.3780 C   0  0  0  0  0  0  0  0  0  0  0  0
  131.2970  120.8390   61.1380 C   0  0  0  0  0  0  0  0  0  0  0  0
  130.9270  119.5280   60.8300 C   0  0  0  0  0  0  0  0  0  0  0  0
  131.9130  118.5540   60.6630 C   0  0  0  0  0  0  0  0  0  0  0  0
  133.2610  118.8910   60.8010 C   0  0  0  0  0  0  0  0  0  0  0  0
  133.6280  120.2030   61.1070 C   0  0  0  0  0  0  0  0  0  0  0  0
  132.6430  121.1810   61.2730 C   0  0  0  0  0  0  0  0  0  0  0  0
  130.6330  125.3430   56.3710 C   0  0  0  0  0  0  0  0  0  0  0  0
  129.8440  124.5090   55.8680 O   0  0  0  0  0  0  0  0  0  0  0  0
  131.4430  126.1070   55.7930 O   0  0  0  0  0  0  0  0  0  0  0  0
  129.9820  129.0520   58.8440 N   0  0  0  0  0  0  0  0  0  0  0  0
  129.2870  130.3480   58.6340 C   0  0  0  0  0  0  0  0  0  0  0  0
  127.8960  130.1090   57.9660 C   0  0  0  0  0  0  0  0  0  0  0  0
  127.7980  129.7650   56.6050 C   0  0  0  0  0  0  0  0  0  0  0  0
  126.5600  129.5400   56.0100 C   0  0  0  0  0  0  0  0  0  0  0  0
  125.4000  129.6500   56.7700 C   0  0  0  0  0  0  0  0  0  0  0  0
  125.4690  129.9840   58.1190 C   0  0  0  0  0  0  0  0  0  0  0  0
  126.7080  130.2110   58.7120 C   0  0  0  0  0  0  0  0  0  0  0  0
  128.9380  131.1360   59.9370 C   0  0  0  0  0  0  0  0  0  0  0  0
  128.8280  132.5370   59.9260 C   0  0  0  0  0  0  0  0  0  0  0  0
  128.5180  133.2420   61.0850 C   0  0  0  0  0  0  0  0  0  0  0  0
  128.3090  132.5530   62.2750 C   0  0  0  0  0  0  0  0  0  0  0  0
  128.4020  131.1650   62.3120 C   0  0  0  0  0  0  0  0  0  0  0  0
  128.7120  130.4640   61.1500 C   0  0  0  0  0  0  0  0  0  0  0  0
  130.2350  131.1390   57.6670 C   0  0  0  0  0  0  0  0  0  0  0  0
  129.7330  132.0430   56.7150 C   0  0  0  0  0  0  0  0  0  0  0  0
  130.5880  132.7510   55.8770 C   0  0  0  0  0  0  0  0  0  0  0  0
  131.9630  132.5780   55.9880 C   0  0  0  0  0  0  0  0  0  0  0  0
  132.4890  131.7080   56.9370 C   0  0  0  0  0  0  0  0  0  0  0  0
  131.6300  131.0000   57.7740 C   0  0  0  0  0  0  0  0  0  0  0  0
  132.1088  126.9408   58.1622 H   0  0  0  0  0  0  0  0  0  0  0  0
  130.8823  126.8337   59.5464 H   0  0  0  0  0  0  0  0  0  0  0  0
  129.4702  125.3687   58.1930 H   0  0  0  0  0  0  0  0  0  0  0  0
  130.7830  123.7620   59.2430 H   0  0  0  0  0  0  0  0  0  0  0  0
  134.6601  123.0392   60.5606 H   0  0  0  0  0  0  0  0  0  0  0  0
  133.6132  124.4879   60.7829 H   0  0  0  0  0  0  0  0  0  0  0  0
  133.3504  122.8536   62.5233 H   0  0  0  0  0  0  0  0  0  0  0  0
  131.4873  125.2078   62.1737 H   0  0  0  0  0  0  0  0  0  0  0  0
  129.0170  125.5562   62.1553 H   0  0  0  0  0  0  0  0  0  0  0  0
  127.4882  123.6535   61.6392 H   0  0  0  0  0  0  0  0  0  0  0  0
  128.4291  121.3935   61.1438 H   0  0  0  0  0  0  0  0  0  0  0  0
  129.8648  119.2644   60.7196 H   0  0  0  0  0  0  0  0  0  0  0  0
  131.6275  117.5193   60.4223 H   0  0  0  0  0  0  0  0  0  0  0  0
  134.0355  118.1212   60.6684 H   0  0  0  0  0  0  0  0  0  0  0  0
  134.6903  120.4666   61.2172 H   0  0  0  0  0  0  0  0  0  0  0  0
  130.1050  128.8070   59.8150 H   0  0  0  0  0  0  0  0  0  0  0  0
  128.7135  129.6725   56.0023 H   0  0  0  0  0  0  0  0  0  0  0  0
  126.4991  129.2764   54.9438 H   0  0  0  0  0  0  0  0  0  0  0  0
  124.4211  129.4716   56.3011 H   0  0  0  0  0  0  0  0  0  0  0  0
  124.5481  130.0684   58.7147 H   0  0  0  0  0  0  0  0  0  0  0  0
  126.7585  130.4738   59.7789 H   0  0  0  0  0  0  0  0  0  0  0  0
  128.9896  133.0851   58.9861 H   0  0  0  0  0  0  0  0  0  0  0  0
  128.4386  134.3389   61.0602 H   0  0  0  0  0  0  0  0  0  0  0  0
  128.0686  133.1090   63.1932 H   0  0  0  0  0  0  0  0  0  0  0  0
  128.2314  130.6245   63.2547 H   0  0  0  0  0  0  0  0  0  0  0  0
  128.7811  129.3666   61.1820 H   0  0  0  0  0  0  0  0  0  0  0  0
  128.6465  132.1930   56.6313 H   0  0  0  0  0  0  0  0  0  0  0  0
  130.1777  133.4454   55.1290 H   0  0  0  0  0  0  0  0  0  0  0  0
  132.6392  133.1328   55.3210 H   0  0  0  0  0  0  0  0  0  0  0  0
  133.5779  131.5797   57.0261 H   0  0  0  0  0  0  0  0  0  0  0  0
  132.0497  130.3211   58.5310 H   0  0  0  0  0  0  0  0  0  0  0  0
  1  2  2  0
  2  3  1  0
  3  4  1  0
  4  5  1  0
  5  6  1  0
  6  7  2  0
  6  8  1  0
  8  9  1  0
  9 10  1  0
 10 11  1  0
 11 12  2  0
 12 13  1  0
 13 14  2  0
 14 15  1  0
 15 16  2  0
 16 17  1  0
 17 18  2  0
 18 19  1  0
 19 20  2  0
 20 21  1  0
 21 22  2  0
  4 23  1  0
 23 24  2  0
 23 25  1  0
  2 26  1  0
 26 27  1  0
 27 28  1  0
 28 29  2  0
 29 30  1  0
 30 31  2  0
 31 32  1  0
 32 33  2  0
 27 34  1  0
 34 35  2  0
 35 36  1  0
 36 37  2  0
 37 38  1  0
 38 39  2  0
 27 40  1  0
 40 41  2  0
 41 42  1  0
 42 43  2  0
 43 44  1  0
 44 45  2  0
 22 10  1  0
 33 28  1  0
 39 34  1  0
 45 40  1  0
 16 11  1  0
 22 17  1  0
  3 46  1  0
  3 47  1  0
  4 48  1  6
  5 49  1  0
  9 50  1  0
  9 51  1  0
 10 52  1  0
 12 53  1  0
 13 54  1  0
 14 55  1  0
 15 56  1  0
 18 57  1  0
 19 58  1  0
 20 59  1  0
 21 60  1  0
 26 61  1  0
 29 62  1  0
 30 63  1  0
 31 64  1  0
 32 65  1  0
 33 66  1  0
 35 67  1  0
 36 68  1  0
 37 69  1  0
 38 70  1  0
 39 71  1  0
 41 72  1  0
 42 73  1  0
 43 74  1  0
 44 75  1  0
 45 76  1  0
M  CHG  1  25  -1
M  END
>  <Binding energies>  (1) 
[-11.17]

>  <Ligand effiencies>  (1) 
[-0.2376595744680851]

>  <Interactions>  (1) 
["V-A:LEU:475:CD2:4256, V-B:TYR:539:CD1:9845, V-B:ASP:366:CG:8184, V-B:TYR:539:CE1:9847, V-B:ALA:541:CB:9864, H-A:ASP:366:OD2:3212, V-A:ASP:366:CG:3210, V-B:ASP:366:CB:8183, V-A:ILE:369:CD1:3236, V-A:TYR:539:CE1:4873, V-A:TYR:539:C:4865, V-A:ALA:541:CB:4890, V-A:PRO:540:CA:4881, V-A:TYR:539:CD1:4871, V-A:LEU:363:CD1:3186, V-A:ILE:538:CA:4858, V-A:ILE:538:C:4856, V-A:ILE:538:CB:4860, V-A:MET:535:CE:4833, V-B:TYR:539:CZ:9849, V-A:ILE:538:CG2:4861, V-A:TYR:531:CE2:4791, V-A:PRO:540:CD:4885, V-B:MET:535:CE:9807, V-A:ILE:369:CG2:3234, H-A:TYR:531:OH:4793, V-A:LEU:373:CD1:3277, V-A:SER:385:CA:3404, V-A:SER:385:CB:3406, V-B:TYR:531:CZ:9766, V-B:TYR:531:CE1:9764, V-A:TYR:539:CZ:4875, H-B:TYR:539:OH:9850, V-A:SER:385:C:3402"]

$$$$
RR6_Rahimova_2017
     RDKit          3D

 63 66  0  0  0  0  0  0  0  0999 V2000
  129.8590  125.6730   72.9780 C   0  0  0  0  0  0  0  0  0  0  0  0
  129.3010  126.8870   73.4620 O   0  0  0  0  0  0  0  0  0  0  0  0
  129.2700  128.0000   72.6840 C   0  0  0  0  0  0  0  0  0  0  0  0
  129.1660  129.1430   73.1390 O   0  0  0  0  0  0  0  0  0  0  0  0
  129.3760  127.7020   71.2160 C   0  0  0  0  0  0  0  0  0  0  0  0
  128.2820  127.2380   70.4710 C   0  0  0  0  0  0  0  0  0  0  0  0
  128.4140  126.9640   69.1110 C   0  0  0  0  0  0  0  0  0  0  0  0
  129.6510  127.1450   68.4740 C   0  0  0  0  0  0  0  0  0  0  0  0
  129.9020  126.8720   67.1170 N   0  0  0  0  0  0  0  0  0  0  0  0
  130.2480  125.7070   66.5280 C   0  0  0  0  0  0  0  0  0  0  0  0
  130.4000  124.6310   67.1080 O   0  0  0  0  0  0  0  0  0  0  0  0
  130.5260  125.7830   65.0230 C   0  0  0  0  0  0  0  0  0  0  0  0
  131.9100  124.7270   64.4780 S   0  0  0  0  0  0  0  0  0  0  0  0
  131.5470  124.2270   62.8070 C   0  0  0  0  0  0  0  0  0  0  0  0
  131.7870  122.9180   62.5520 N   0  0  0  0  0  0  0  0  0  0  0  0
  131.5220  122.4130   61.3220 C   0  0  0  0  0  0  0  0  0  0  0  0
  131.7580  120.9420   61.1400 C   0  0  0  0  0  0  0  0  0  0  0  0
  133.0320  120.4480   60.8200 C   0  0  0  0  0  0  0  0  0  0  0  0
  133.2480  119.0850   60.6390 C   0  0  0  0  0  0  0  0  0  0  0  0
  132.1910  118.1860   60.7780 C   0  0  0  0  0  0  0  0  0  0  0  0
  132.4290  116.7020   60.5700 C   0  0  0  0  0  0  0  0  0  0  0  0
  130.9190  118.6560   61.0970 C   0  0  0  0  0  0  0  0  0  0  0  0
  130.7090  120.0190   61.2780 C   0  0  0  0  0  0  0  0  0  0  0  0
  131.0150  123.2300   60.3070 C   0  0  0  0  0  0  0  0  0  0  0  0
  130.7630  124.5890   60.5440 C   0  0  0  0  0  0  0  0  0  0  0  0
  130.2040  125.4000   59.4220 C   0  0  0  0  0  0  0  0  0  0  0  0
  131.0610  126.0010   58.4950 C   0  0  0  0  0  0  0  0  0  0  0  0
  130.5480  126.7450   57.4360 C   0  0  0  0  0  0  0  0  0  0  0  0
  129.1710  126.8990   57.2790 C   0  0  0  0  0  0  0  0  0  0  0  0
  128.7530  127.6520   56.1990 O   0  0  0  0  0  0  0  0  0  0  0  0
  127.6320  128.5160   56.3490 C   0  0  0  0  0  0  0  0  0  0  0  0
  128.3070  126.2930   58.2040 C   0  0  0  0  0  0  0  0  0  0  0  0
  128.8230  125.5490   59.2610 C   0  0  0  0  0  0  0  0  0  0  0  0
  131.0410  125.1100   61.8320 C   0  0  0  0  0  0  0  0  0  0  0  0
  130.8280  126.5280   62.1400 C   0  0  0  0  0  0  0  0  0  0  0  0
  130.6570  127.6460   62.3830 N   0  0  0  0  0  0  0  0  0  0  0  0
  130.7370  127.6220   69.2090 C   0  0  0  0  0  0  0  0  0  0  0  0
  130.6030  127.8940   70.5680 C   0  0  0  0  0  0  0  0  0  0  0  0
  130.1505  125.0388   73.8282 H   0  0  0  0  0  0  0  0  0  0  0  0
  129.1132  125.1451   72.3656 H   0  0  0  0  0  0  0  0  0  0  0  0
  130.7453  125.8953   72.3656 H   0  0  0  0  0  0  0  0  0  0  0  0
  127.3105  127.0889   70.9649 H   0  0  0  0  0  0  0  0  0  0  0  0
  127.5474  126.6054   68.5362 H   0  0  0  0  0  0  0  0  0  0  0  0
  129.9000  127.6880   66.5210 H   0  0  0  0  0  0  0  0  0  0  0  0
  129.6183  125.4702   64.4861 H   0  0  0  0  0  0  0  0  0  0  0  0
  130.8083  126.8226   64.8006 H   0  0  0  0  0  0  0  0  0  0  0  0
  133.8728  121.1488   60.7105 H   0  0  0  0  0  0  0  0  0  0  0  0
  134.2532  118.7166   60.3861 H   0  0  0  0  0  0  0  0  0  0  0  0
  132.5090  116.2030   61.5470 H   0  0  0  0  0  0  0  0  0  0  0  0
  131.5884  116.2713   60.0061 H   0  0  0  0  0  0  0  0  0  0  0  0
  133.3621  116.5558   60.0061 H   0  0  0  0  0  0  0  0  0  0  0  0
  130.0821  117.9504   61.2056 H   0  0  0  0  0  0  0  0  0  0  0  0
  129.7022  120.3806   61.5341 H   0  0  0  0  0  0  0  0  0  0  0  0
  130.8120  122.8030   59.3138 H   0  0  0  0  0  0  0  0  0  0  0  0
  132.1495  125.8850   58.6033 H   0  0  0  0  0  0  0  0  0  0  0  0
  131.2348  127.2154   56.7169 H   0  0  0  0  0  0  0  0  0  0  0  0
  127.4298  128.6719   57.4190 H   0  0  0  0  0  0  0  0  0  0  0  0
  127.8482  129.4833   55.8720 H   0  0  0  0  0  0  0  0  0  0  0  0
  126.7516  128.0606   55.8720 H   0  0  0  0  0  0  0  0  0  0  0  0
  127.2185  126.4064   58.0933 H   0  0  0  0  0  0  0  0  0  0  0  0
  128.1372  125.0731   59.9774 H   0  0  0  0  0  0  0  0  0  0  0  0
  131.7047  127.7841   68.7118 H   0  0  0  0  0  0  0  0  0  0  0  0
  131.4685  128.2630   71.1379 H   0  0  0  0  0  0  0  0  0  0  0  0
  1  2  1  0
  2  3  1  0
  3  4  2  0
  3  5  1  0
  5  6  2  0
  6  7  1  0
  7  8  2  0
  8  9  1  0
  9 10  1  0
 10 11  2  0
 10 12  1  0
 12 13  1  0
 13 14  1  0
 14 15  2  0
 15 16  1  0
 16 17  1  0
 17 18  2  0
 18 19  1  0
 19 20  2  0
 20 21  1  0
 20 22  1  0
 22 23  2  0
 16 24  2  0
 24 25  1  0
 25 26  1  0
 26 27  2  0
 27 28  1  0
 28 29  2  0
 29 30  1  0
 30 31  1  0
 29 32  1  0
 32 33  2  0
 25 34  2  0
 34 35  1  0
 35 36  3  0
  8 37  1  0
 37 38  2  0
 38  5  1  0
 34 14  1  0
 23 17  1  0
 33 26  1  0
  1 39  1  0
  1 40  1  0
  1 41  1  0
  6 42  1  0
  7 43  1  0
  9 44  1  0
 12 45  1  0
 12 46  1  0
 18 47  1  0
 19 48  1  0
 21 49  1  0
 21 50  1  0
 21 51  1  0
 22 52  1  0
 23 53  1  0
 24 54  1  0
 27 55  1  0
 28 56  1  0
 31 57  1  0
 31 58  1  0
 31 59  1  0
 32 60  1  0
 33 61  1  0
 37 62  1  0
 38 63  1  0
M  END
>  <Binding energies>  (1) 
[-9.41]

>  <Ligand effiencies>  (1) 
[-0.2412820512820513]

>  <Interactions>  (1) 
["V-B:LYS:547:CE:9922, H-B:LYS:547:NZ:9923, V-B:HIS:456:CE1:9040, V-A:HIS:456:CD2:4065, H-A:LYS:547:NZ:4949, V-B:HIS:456:CD2:9039, V-A:HIS:456:CE1:4066, V-A:HIS:456:CG:4063, V-A:GLY:544:C:4910, V-B:GLU:543:CG:9879, V-A:LEU:475:CD2:4256, H-A:TYR:484:OH:4345, V-B:TYR:539:CD1:9845, V-B:GLU:543:CB:9878, V-B:TYR:539:CE1:9847, V-B:GLU:543:CD:9880, V-B:ALA:541:CB:9864, H-B:GLU:543:OE2:9882, V-A:ASP:366:CG:3210, H-A:GLU:543:OE2:4908, H-A:GLU:543:OE1:4907, V-A:GLU:543:CD:4906, H-A:ARG:545:NH2:4926, V-A:MET:535:CE:4833, V-A:ILE:369:CG2:3234, V-A:LEU:373:CD1:3277, V-A:PRO:482:CG:4324, V-A:SER:385:CA:3404, V-A:SER:385:CB:3406, V-A:PRO:482:CB:4323, V-B:GLU:543:C:9874, V-A:GLU:543:C:4900, H-A:HIS:456:NE2:4067, V-A:GLY:544:CA:4912, V-B:GLY:544:C:9884, H-B:HIS:456:NE2:9041, V-A:GLU:543:CG:4905"]

$$$$
RR7_Rahimova_2017
     RDKit          3D

 80 86  0  0  0  0  0  0  0  0999 V2000
  134.6140  124.1620   59.5220 C   0  0  0  0  0  0  0  0  0  0  0  0
  134.0280  124.5380   58.2790 O   0  0  0  0  0  0  0  0  0  0  0  0
  132.6670  124.7650   58.2190 C   0  0  0  0  0  0  0  0  0  0  0  0
  131.8920  124.1790   59.2180 C   0  0  0  0  0  0  0  0  0  0  0  0
  130.5130  124.3560   59.2430 C   0  0  0  0  0  0  0  0  0  0  0  0
  129.8700  125.1180   58.2560 C   0  0  0  0  0  0  0  0  0  0  0  0
  128.3290  125.3610   58.2770 C   0  0  0  0  0  0  0  0  0  0  0  0
  128.1350  126.7650   57.9930 O   0  0  0  0  0  0  0  0  0  0  0  0
  127.7950  127.1890   56.6690 C   0  0  0  0  0  0  0  0  0  0  0  0
  126.8630  128.4080   56.7570 C   0  0  1  0  0  0  0  0  0  0  0  0
  126.3650  128.4510   58.0920 O   0  0  0  0  0  0  0  0  0  0  0  0
  126.6870  129.6530   58.7310 C   0  0  1  0  0  0  0  0  0  0  0  0
  126.8980  129.4250   60.1470 N   0  0  0  0  0  0  0  0  0  0  0  0
  127.9520  128.7670   60.7560 C   0  0  0  0  0  0  0  0  0  0  0  0
  127.8700  128.6620   62.0600 N   0  0  0  0  0  0  0  0  0  0  0  0
  126.6670  129.2410   62.3590 C   0  0  0  0  0  0  0  0  0  0  0  0
  125.9900  129.4330   63.5790 C   0  0  0  0  0  0  0  0  0  0  0  0
  126.6000  128.9870   64.7670 N   0  0  0  0  0  0  0  0  0  0  0  0
  126.1410  129.0580   66.0390 C   0  0  0  0  0  0  0  0  0  0  0  0
  125.0670  129.5710   66.3620 O   0  0  0  0  0  0  0  0  0  0  0  0
  127.0580  128.4840   67.0990 C   0  0  0  0  0  0  0  0  0  0  0  0
  126.6150  127.4180   67.8970 C   0  0  0  0  0  0  0  0  0  0  0  0
  127.4430  126.8730   68.8730 C   0  0  0  0  0  0  0  0  0  0  0  0
  128.7230  127.3840   69.0570 C   0  0  0  0  0  0  0  0  0  0  0  0
  129.1840  128.4390   68.2720 C   0  0  0  0  0  0  0  0  0  0  0  0
  128.3550  128.9870   67.2960 C   0  0  0  0  0  0  0  0  0  0  0  0
  124.7650  130.0410   63.5750 N   0  0  0  0  0  0  0  0  0  0  0  0
  124.2560  130.4330   62.3780 C   0  0  0  0  0  0  0  0  0  0  0  0
  124.8220  130.3010   61.1480 N   0  0  0  0  0  0  0  0  0  0  0  0
  126.0230  129.7090   61.1840 C   0  0  0  0  0  0  0  0  0  0  0  0
  127.8960  130.1960   57.9790 C   0  0  0  0  0  0  0  0  0  0  0  0
  127.5500  129.7670   56.5630 C   0  0  2  0  0  0  0  0  0  0  0  0
  126.7150  130.7080   55.9120 O   0  0  0  0  0  0  0  0  0  0  0  0
  127.5910  124.5680   57.1650 C   0  0  0  0  0  0  0  0  0  0  0  0
  126.1970  124.6710   57.0280 C   0  0  0  0  0  0  0  0  0  0  0  0
  125.5240  123.9550   56.0450 C   0  0  0  0  0  0  0  0  0  0  0  0
  126.2380  123.1250   55.1860 C   0  0  0  0  0  0  0  0  0  0  0  0
  127.6200  123.0070   55.3040 C   0  0  0  0  0  0  0  0  0  0  0  0
  128.2930  123.7240   56.2890 C   0  0  0  0  0  0  0  0  0  0  0  0
  127.6040  124.9940   59.6030 C   0  0  0  0  0  0  0  0  0  0  0  0
  127.6560  125.8630   60.7050 C   0  0  0  0  0  0  0  0  0  0  0  0
  127.0190  125.5390   61.8980 C   0  0  0  0  0  0  0  0  0  0  0  0
  126.3280  124.3350   62.0060 C   0  0  0  0  0  0  0  0  0  0  0  0
  126.2750  123.4530   60.9310 C   0  0  0  0  0  0  0  0  0  0  0  0
  126.9130  123.7790   59.7380 C   0  0  0  0  0  0  0  0  0  0  0  0
  130.6560  125.7170   57.2600 C   0  0  0  0  0  0  0  0  0  0  0  0
  132.0360  125.5410   57.2360 C   0  0  0  0  0  0  0  0  0  0  0  0
  134.0033  124.5539   60.3487 H   0  0  0  0  0  0  0  0  0  0  0  0
  134.6606  123.0650   59.5885 H   0  0  0  0  0  0  0  0  0  0  0  0
  135.6306  124.5768   59.5885 H   0  0  0  0  0  0  0  0  0  0  0  0
  132.3764  123.5698   59.9953 H   0  0  0  0  0  0  0  0  0  0  0  0
  129.9197  123.8934   60.0455 H   0  0  0  0  0  0  0  0  0  0  0  0
  128.7099  127.4631   56.1233 H   0  0  0  0  0  0  0  0  0  0  0  0
  127.2876  126.3714   56.1361 H   0  0  0  0  0  0  0  0  0  0  0  0
  126.1166  128.2784   55.9594 H   0  0  0  0  0  0  0  0  0  0  0  0
  125.8824  130.4025   58.7009 H   0  0  0  0  0  0  0  0  0  0  0  0
  128.7999  128.3602   60.1854 H   0  0  0  0  0  0  0  0  0  0  0  0
  127.5050  128.5600   64.6370 H   0  0  0  0  0  0  0  0  0  0  0  0
  125.6042  127.0098   67.7495 H   0  0  0  0  0  0  0  0  0  0  0  0
  127.0863  126.0405   69.4972 H   0  0  0  0  0  0  0  0  0  0  0  0
  129.3771  126.9519   69.8286 H   0  0  0  0  0  0  0  0  0  0  0  0
  130.1982  128.8373   68.4225 H   0  0  0  0  0  0  0  0  0  0  0  0
  128.7182  129.8193   66.6752 H   0  0  0  0  0  0  0  0  0  0  0  0
  123.2676  130.9150   62.4068 H   0  0  0  0  0  0  0  0  0  0  0  0
  127.9717  131.2900   58.0658 H   0  0  0  0  0  0  0  0  0  0  0  0
  128.8675  129.8330   58.3457 H   0  0  0  0  0  0  0  0  0  0  0  0
  128.4327  129.7001   55.9100 H   0  0  0  0  0  0  0  0  0  0  0  0
  125.9750  130.9130   56.4900 H   0  0  0  0  0  0  0  0  0  0  0  0
  125.6311  125.3261   57.7067 H   0  0  0  0  0  0  0  0  0  0  0  0
  124.4320  124.0440   55.9465 H   0  0  0  0  0  0  0  0  0  0  0  0
  125.7063  122.5578   54.4078 H   0  0  0  0  0  0  0  0  0  0  0  0
  128.1782  122.3495   54.6213 H   0  0  0  0  0  0  0  0  0  0  0  0
  129.3849  123.6287   56.3822 H   0  0  0  0  0  0  0  0  0  0  0  0
  128.2073  126.8114   60.6235 H   0  0  0  0  0  0  0  0  0  0  0  0
  127.0608  126.2307   62.7523 H   0  0  0  0  0  0  0  0  0  0  0  0
  125.8204  124.0792   62.9478 H   0  0  0  0  0  0  0  0  0  0  0  0
  125.7308  122.5016   61.0239 H   0  0  0  0  0  0  0  0  0  0  0  0
  126.8756  123.0774   58.8916 H   0  0  0  0  0  0  0  0  0  0  0  0
  130.1745  126.3344   56.4873 H   0  0  0  0  0  0  0  0  0  0  0  0
  132.6346  126.0125   56.4427 H   0  0  0  0  0  0  0  0  0  0  0  0
  1  2  1  0
  2  3  1  0
  3  4  2  0
  4  5  1  0
  5  6  2  0
  6  7  1  0
  7  8  1  0
  8  9  1  0
  9 10  1  0
 10 11  1  0
 11 12  1  0
 12 13  1  0
 13 14  1  0
 14 15  2  0
 15 16  1  0
 16 17  2  0
 17 18  1  0
 18 19  1  0
 19 20  2  0
 19 21  1  0
 21 22  2  0
 22 23  1  0
 23 24  2  0
 24 25  1  0
 25 26  2  0
 17 27  1  0
 27 28  2  0
 28 29  1  0
 29 30  2  0
 12 31  1  0
 31 32  1  0
 32 33  1  0
  7 34  1  0
 34 35  2  0
 35 36  1  0
 36 37  2  0
 37 38  1  0
 38 39  2  0
  7 40  1  0
 40 41  2  0
 41 42  1  0
 42 43  2  0
 43 44  1  0
 44 45  2  0
  6 46  1  0
 46 47  2  0
 47  3  1  0
 32 10  1  0
 39 34  1  0
 45 40  1  0
 30 13  1  0
 30 16  1  0
 26 21  1  0
  1 48  1  0
  1 49  1  0
  1 50  1  0
  4 51  1  0
  5 52  1  0
  9 53  1  0
  9 54  1  0
 10 55  1  6
 12 56  1  1
 14 57  1  0
 18 58  1  0
 22 59  1  0
 23 60  1  0
 24 61  1  0
 25 62  1  0
 26 63  1  0
 28 64  1  0
 31 65  1  0
 31 66  1  0
 32 67  1  6
 33 68  1  0
 35 69  1  0
 36 70  1  0
 37 71  1  0
 38 72  1  0
 39 73  1  0
 41 74  1  0
 42 75  1  0
 43 76  1  0
 44 77  1  0
 45 78  1  0
 46 79  1  0
 47 80  1  0
M  END
>  <Binding energies>  (1) 
[-9.06]

>  <Ligand effiencies>  (1) 
[-0.18489795918367347]

>  <Interactions>  (1) 
["V-B:HIS:456:CE1:9040, V-B:GLU:543:CG:9879, V-B:ASP:366:CG:8184, V-B:PRO:540:C:9853, V-B:GLU:543:CB:9878, V-B:TYR:539:CE1:9847, V-B:GLU:543:CD:9880, V-B:PRO:540:CB:9857, V-B:PRO:540:CA:9855, H-B:GLU:543:OE2:9882, V-B:ARG:545:CZ:9898, V-A:ASP:366:CG:3210, H-A:GLU:543:OE2:4908, H-A:GLU:543:OE1:4907, H-B:TYR:531:OH:9767, V-A:GLU:543:CD:4906, V-A:ILE:369:CD1:3236, H-B:ARG:545:NH2:9900, H-B:ARG:545:NE:9896, V-B:ARG:545:CD:9895, V-B:ARG:545:CG:9894, V-B:ILE:538:CB:9834, V-A:MET:535:CE:4833, V-B:TYR:539:CZ:9849, V-B:ILE:538:CG2:9835, V-B:ILE:538:CA:9832, H-B:TYR:484:OH:9319, V-B:MET:535:CE:9807, V-A:ILE:369:CG2:3234, H-B:GLY:454:N:9021, V-A:ILE:369:CB:3233, V-A:GLU:543:CB:4904, V-B:TYR:531:CZ:9766, V-A:ASP:366:CB:3209, V-A:ASP:366:CA:3207, V-B:TYR:531:CE2:9765, H-B:TYR:539:OH:9850, V-B:GLU:543:C:9874, V-A:GLU:543:C:4900, H-A:TYR:539:OH:4876, H-B:ASN:370:ND2:8219, V-A:GLU:543:CG:4905, V-A:ILE:369:CG1:3235"]

$$$$
RR8_A_Rahimova_2017
     RDKit          3D

 73 77  0  0  0  0  0  0  0  0999 V2000
  131.2800  125.7120   61.9980 O   0  0  0  0  0  0  0  0  0  0  0  0
  130.3120  126.1270   61.3520 C   0  0  0  0  0  0  0  0  0  0  0  0
  130.3460  127.2180   60.5250 O   0  0  0  0  0  0  0  0  0  0  0  0
  131.1130  127.1230   59.3570 C   0  0  1  0  0  0  0  0  0  0  0  0
  131.7590  125.8860   59.2630 O   0  0  0  0  0  0  0  0  0  0  0  0
  131.7820  125.4010   57.9240 C   0  0  2  0  0  0  0  0  0  0  0  0
  133.2430  125.1240   57.5280 C   0  0  0  0  0  0  0  0  0  0  0  0
  133.6900  123.9620   58.2120 O   0  0  0  0  0  0  0  0  0  0  0  0
  134.3650  124.2330   59.4330 C   0  0  0  0  0  0  0  0  0  0  0  0
  133.5590  123.6860   60.6010 C   0  0  0  0  0  0  0  0  0  0  0  0
  132.4750  122.8380   60.3620 C   0  0  0  0  0  0  0  0  0  0  0  0
  131.7380  122.3300   61.4310 C   0  0  0  0  0  0  0  0  0  0  0  0
  132.0920  122.6690   62.7350 C   0  0  0  0  0  0  0  0  0  0  0  0
  133.1750  123.5090   62.9820 C   0  0  0  0  0  0  0  0  0  0  0  0
  133.9120  124.0160   61.9150 C   0  0  0  0  0  0  0  0  0  0  0  0
  131.0790  126.5050   57.1230 C   0  0  1  0  0  0  0  0  0  0  0  0
  130.2360  125.9990   56.0900 O   0  0  0  0  0  0  0  0  0  0  0  0
  130.2770  124.5900   55.8960 C   0  0  0  0  0  0  0  0  0  0  0  0
  129.0960  123.9350   56.5980 C   0  0  0  0  0  0  0  0  0  0  0  0
  129.1140  123.7790   57.9870 C   0  0  0  0  0  0  0  0  0  0  0  0
  128.0420  123.1730   58.6350 C   0  0  0  0  0  0  0  0  0  0  0  0
  126.9530  122.7190   57.8910 C   0  0  0  0  0  0  0  0  0  0  0  0
  126.9300  122.8630   56.5070 C   0  0  0  0  0  0  0  0  0  0  0  0
  128.0030  123.4680   55.8580 C   0  0  0  0  0  0  0  0  0  0  0  0
  130.1820  127.1670   58.1530 C   0  0  2  0  0  0  0  0  0  0  0  0
  129.8380  128.4880   57.7440 O   0  0  0  0  0  0  0  0  0  0  0  0
  130.3030  129.5360   58.5870 C   0  0  0  0  0  0  0  0  0  0  0  0
  130.9340  130.6360   57.7470 C   0  0  0  0  0  0  0  0  0  0  0  0
  130.1290  131.4790   56.9720 C   0  0  0  0  0  0  0  0  0  0  0  0
  130.7110  132.4910   56.2120 C   0  0  0  0  0  0  0  0  0  0  0  0
  132.0930  132.6600   56.2310 C   0  0  0  0  0  0  0  0  0  0  0  0
  132.9010  131.8290   57.0040 C   0  0  0  0  0  0  0  0  0  0  0  0
  132.3200  130.8170   57.7650 C   0  0  0  0  0  0  0  0  0  0  0  0
  128.9640  125.4680   61.3870 C   0  0  0  0  0  0  0  0  0  0  0  0
  127.7920  126.1580   61.0410 C   0  0  0  0  0  0  0  0  0  0  0  0
  126.5560  125.5190   61.0840 C   0  0  0  0  0  0  0  0  0  0  0  0
  126.4590  124.1770   61.4750 C   0  0  0  0  0  0  0  0  0  0  0  0
  125.1410  123.4970   61.5190 N   0  0  0  0  0  0  0  0  0  0  0  0
  124.8030  122.9380   62.5580 O   0  0  0  0  0  0  0  0  0  0  0  0
  124.4350  123.5180   60.5150 O   0  0  0  0  0  0  0  0  0  0  0  0
  127.6290  123.4910   61.8220 C   0  0  0  0  0  0  0  0  0  0  0  0
  128.8650  124.1270   61.7800 C   0  0  0  0  0  0  0  0  0  0  0  0
  131.8419  127.9465   59.3821 H   0  0  0  0  0  0  0  0  0  0  0  0
  131.2660  124.4453   57.7494 H   0  0  0  0  0  0  0  0  0  0  0  0
  133.3073  124.9615   56.4420 H   0  0  0  0  0  0  0  0  0  0  0  0
  133.8734  125.9835   57.7998 H   0  0  0  0  0  0  0  0  0  0  0  0
  135.3551  123.7541   59.4167 H   0  0  0  0  0  0  0  0  0  0  0  0
  134.4806  125.3206   59.5499 H   0  0  0  0  0  0  0  0  0  0  0  0
  132.2028  122.5710   59.3302 H   0  0  0  0  0  0  0  0  0  0  0  0
  130.8816  121.6651   61.2457 H   0  0  0  0  0  0  0  0  0  0  0  0
  131.5100  122.2690   63.5784 H   0  0  0  0  0  0  0  0  0  0  0  0
  133.4469  123.7707   64.0152 H   0  0  0  0  0  0  0  0  0  0  0  0
  134.7715  124.6758   62.1044 H   0  0  0  0  0  0  0  0  0  0  0  0
  131.8190  127.1572   56.6362 H   0  0  0  0  0  0  0  0  0  0  0  0
  130.2297  124.3687   54.8195 H   0  0  0  0  0  0  0  0  0  0  0  0
  131.2130  124.1939   56.3167 H   0  0  0  0  0  0  0  0  0  0  0  0
  129.9768  124.1358   58.5686 H   0  0  0  0  0  0  0  0  0  0  0  0
  128.0533  123.0526   59.7283 H   0  0  0  0  0  0  0  0  0  0  0  0
  126.1041  122.2425   58.4032 H   0  0  0  0  0  0  0  0  0  0  0  0
  126.0677  122.5004   55.9282 H   0  0  0  0  0  0  0  0  0  0  0  0
  127.9920  123.5791   54.7637 H   0  0  0  0  0  0  0  0  0  0  0  0
  129.2037  126.6967   58.3310 H   0  0  0  0  0  0  0  0  0  0  0  0
  129.4565  129.9505   59.1541 H   0  0  0  0  0  0  0  0  0  0  0  0
  131.0555  129.1346   59.2817 H   0  0  0  0  0  0  0  0  0  0  0  0
  129.0375  131.3424   56.9631 H   0  0  0  0  0  0  0  0  0  0  0  0
  130.0817  133.1536   55.5997 H   0  0  0  0  0  0  0  0  0  0  0  0
  132.5518  133.4583   55.6291 H   0  0  0  0  0  0  0  0  0  0  0  0
  133.9917  131.9712   57.0134 H   0  0  0  0  0  0  0  0  0  0  0  0
  132.9522  130.1600   58.3804 H   0  0  0  0  0  0  0  0  0  0  0  0
  127.8505  127.2125   60.7333 H   0  0  0  0  0  0  0  0  0  0  0  0
  125.6466  126.0730   60.8083 H   0  0  0  0  0  0  0  0  0  0  0  0
  127.5700  122.4370   62.1314 H   0  0  0  0  0  0  0  0  0  0  0  0
  129.7732  123.5721   62.0579 H   0  0  0  0  0  0  0  0  0  0  0  0
  1  2  2  0
  2  3  1  0
  3  4  1  0
  4  5  1  0
  5  6  1  0
  6  7  1  0
  7  8  1  0
  8  9  1  0
  9 10  1  0
 10 11  2  0
 11 12  1  0
 12 13  2  0
 13 14  1  0
 14 15  2  0
  6 16  1  0
 16 17  1  0
 17 18  1  0
 18 19  1  0
 19 20  2  0
 20 21  1  0
 21 22  2  0
 22 23  1  0
 23 24  2  0
 16 25  1  0
 25 26  1  0
 26 27  1  0
 27 28  1  0
 28 29  2  0
 29 30  1  0
 30 31  2  0
 31 32  1  0
 32 33  2  0
  2 34  1  0
 34 35  2  0
 35 36  1  0
 36 37  2  0
 37 38  1  0
 38 39  2  0
 38 40  1  0
 37 41  1  0
 41 42  2  0
 25  4  1  0
 33 28  1  0
 42 34  1  0
 15 10  1  0
 24 19  1  0
  4 43  1  6
  6 44  1  1
  7 45  1  0
  7 46  1  0
  9 47  1  0
  9 48  1  0
 11 49  1  0
 12 50  1  0
 13 51  1  0
 14 52  1  0
 15 53  1  0
 16 54  1  6
 18 55  1  0
 18 56  1  0
 20 57  1  0
 21 58  1  0
 22 59  1  0
 23 60  1  0
 24 61  1  0
 25 62  1  1
 27 63  1  0
 27 64  1  0
 29 65  1  0
 30 66  1  0
 31 67  1  0
 32 68  1  0
 33 69  1  0
 35 70  1  0
 36 71  1  0
 41 72  1  0
 42 73  1  0
M  CHG  2  38   1  40  -1
M  END
>  <Binding energies>  (1) 
[-9.93]

>  <Ligand effiencies>  (1) 
[-0.23642857142857143]

>  <Interactions>  (1) 
["V-A:LEU:475:CD2:4256, V-A:GLY:454:CA:4046, V-B:TYR:539:CD1:9845, V-B:TYR:539:C:9839, V-B:ASP:366:CG:8184, V-B:PRO:540:C:9853, V-B:TYR:539:CE1:9847, V-B:PRO:540:CB:9857, V-B:PRO:540:CA:9855, V-B:ALA:541:CB:9864, V-B:ASN:362:CB:8147, V-A:ASP:366:CG:3210, V-B:PRO:540:N:9856, H-A:ARG:545:NH2:4926, V-A:ILE:369:CD1:3236, V-A:PRO:540:CB:4883, V-A:PRO:540:N:4882, V-A:LEU:363:CD1:3186, V-A:ILE:538:CA:4858, V-B:TYR:539:CE2:9848, V-A:ILE:538:CB:4860, V-B:ILE:538:CB:9834, V-A:MET:535:CE:4833, V-B:PRO:540:CD:9859, V-B:TYR:539:CZ:9849, V-A:ILE:538:CG2:4861, V-A:TYR:531:CE2:4791, V-A:PRO:540:CD:4885, V-B:ILE:538:CA:9832, V-B:MET:535:CE:9807, V-A:ILE:369:CG2:3234, V-A:ILE:369:CB:3233, H-A:TYR:531:OH:4793, H-B:ALA:541:N:9863, V-A:ASP:366:C:3205, V-A:ASP:366:CB:3209, V-A:ASP:366:CA:3207, H-B:TYR:539:OH:9850, V-A:ILE:369:CG1:3235, H-B:ASN:362:ND2:8150"]

$$$$
RR8_B_Rahimova_2017
     RDKit          3D

 73 77  0  0  0  0  0  0  0  0999 V2000
  133.6630  124.2990   57.7570 O   0  0  0  0  0  0  0  0  0  0  0  0
  132.8480  124.9780   58.3900 C   0  0  0  0  0  0  0  0  0  0  0  0
  131.9320  125.8170   57.8180 O   0  0  0  0  0  0  0  0  0  0  0  0
  131.0130  125.2720   56.9030 C   0  0  2  0  0  0  0  0  0  0  0  0
  130.6640  126.1890   55.9050 O   0  0  0  0  0  0  0  0  0  0  0  0
  129.5080  126.9430   56.2690 C   0  0  2  0  0  0  0  0  0  0  0  0
  129.8500  128.4430   56.2650 C   0  0  0  0  0  0  0  0  0  0  0  0
  128.7140  129.1830   56.6920 O   0  0  0  0  0  0  0  0  0  0  0  0
  128.9840  130.1940   57.6530 C   0  0  0  0  0  0  0  0  0  0  0  0
  130.2670  130.9170   57.2710 C   0  0  0  0  0  0  0  0  0  0  0  0
  131.4380  130.6850   58.0000 C   0  0  0  0  0  0  0  0  0  0  0  0
  132.6090  131.3620   57.6710 C   0  0  0  0  0  0  0  0  0  0  0  0
  132.6070  132.2670   56.6120 C   0  0  0  0  0  0  0  0  0  0  0  0
  131.4470  132.4980   55.8770 C   0  0  0  0  0  0  0  0  0  0  0  0
  130.2740  131.8240   56.2070 C   0  0  0  0  0  0  0  0  0  0  0  0
  129.0900  126.3650   57.6260 C   0  0  1  0  0  0  0  0  0  0  0  0
  127.6640  126.3620   57.7350 O   0  0  0  0  0  0  0  0  0  0  0  0
  127.0840  125.4380   58.6590 C   0  0  0  0  0  0  0  0  0  0  0  0
  126.2740  124.3520   57.9580 C   0  0  0  0  0  0  0  0  0  0  0  0
  124.9500  124.1110   58.3350 C   0  0  0  0  0  0  0  0  0  0  0  0
  124.2030  123.1410   57.6720 C   0  0  0  0  0  0  0  0  0  0  0  0
  124.7840  122.4120   56.6360 C   0  0  0  0  0  0  0  0  0  0  0  0
  126.1050  122.6430   56.2580 C   0  0  0  0  0  0  0  0  0  0  0  0
  126.8510  123.6160   56.9190 C   0  0  0  0  0  0  0  0  0  0  0  0
  129.6990  124.9680   57.6220 C   0  0  2  0  0  0  0  0  0  0  0  0
  129.8700  124.4960   58.9570 O   0  0  0  0  0  0  0  0  0  0  0  0
  129.4850  123.1500   59.1870 C   0  0  0  0  0  0  0  0  0  0  0  0
  129.9310  122.7600   60.5850 C   0  0  0  0  0  0  0  0  0  0  0  0
  131.0870  121.9960   60.7700 C   0  0  0  0  0  0  0  0  0  0  0  0
  131.4750  121.6280   62.0560 C   0  0  0  0  0  0  0  0  0  0  0  0
  130.7090  122.0230   63.1490 C   0  0  0  0  0  0  0  0  0  0  0  0
  129.5560  122.7860   62.9720 C   0  0  0  0  0  0  0  0  0  0  0  0
  129.1670  123.1550   61.6870 C   0  0  0  0  0  0  0  0  0  0  0  0
  132.7830  124.9960   59.8900 C   0  0  0  0  0  0  0  0  0  0  0  0
  131.8330  125.7650   60.5800 C   0  0  0  0  0  0  0  0  0  0  0  0
  131.8020  125.7690   61.9690 C   0  0  0  0  0  0  0  0  0  0  0  0
  132.7240  125.0150   62.7060 C   0  0  0  0  0  0  0  0  0  0  0  0
  132.7060  125.0410   64.1900 N   0  0  0  0  0  0  0  0  0  0  0  0
  133.7290  125.3690   64.7850 O   0  0  0  0  0  0  0  0  0  0  0  0
  131.6660  124.7400   64.7710 O   0  0  0  0  0  0  0  0  0  0  0  0
  133.6680  124.2430   62.0170 C   0  0  0  0  0  0  0  0  0  0  0  0
  133.6960  124.2320   60.6260 C   0  0  0  0  0  0  0  0  0  0  0  0
  131.4941  124.3814   56.4725 H   0  0  0  0  0  0  0  0  0  0  0  0
  128.6621  126.8654   55.5701 H   0  0  0  0  0  0  0  0  0  0  0  0
  130.6899  128.6306   56.9501 H   0  0  0  0  0  0  0  0  0  0  0  0
  130.1331  128.7546   55.2487 H   0  0  0  0  0  0  0  0  0  0  0  0
  128.1504  130.9113   57.6765 H   0  0  0  0  0  0  0  0  0  0  0  0
  129.0987  129.7378   58.6473 H   0  0  0  0  0  0  0  0  0  0  0  0
  131.4336  129.9673   58.8336 H   0  0  0  0  0  0  0  0  0  0  0  0
  133.5308  131.1833   58.2441 H   0  0  0  0  0  0  0  0  0  0  0  0
  133.5312  132.8047   56.3537 H   0  0  0  0  0  0  0  0  0  0  0  0
  131.4573  133.2103   55.0388 H   0  0  0  0  0  0  0  0  0  0  0  0
  129.3542  132.0049   55.6314 H   0  0  0  0  0  0  0  0  0  0  0  0
  129.4374  126.9445   58.4941 H   0  0  0  0  0  0  0  0  0  0  0  0
  127.8901  124.9615   59.2362 H   0  0  0  0  0  0  0  0  0  0  0  0
  126.4004  125.9993   59.3129 H   0  0  0  0  0  0  0  0  0  0  0  0
  124.4981  124.6877   59.1555 H   0  0  0  0  0  0  0  0  0  0  0  0
  123.1597  122.9510   57.9644 H   0  0  0  0  0  0  0  0  0  0  0  0
  124.1936  121.6464   56.1113 H   0  0  0  0  0  0  0  0  0  0  0  0
  126.5565  122.0600   55.4418 H   0  0  0  0  0  0  0  0  0  0  0  0
  127.8936  123.8051   56.6236 H   0  0  0  0  0  0  0  0  0  0  0  0
  129.1095  124.1705   57.1461 H   0  0  0  0  0  0  0  0  0  0  0  0
  128.3920  123.0564   59.1054 H   0  0  0  0  0  0  0  0  0  0  0  0
  129.9517  122.4892   58.4416 H   0  0  0  0  0  0  0  0  0  0  0  0
  131.6884  121.6864   59.9025 H   0  0  0  0  0  0  0  0  0  0  0  0
  132.3839  121.0271   62.2074 H   0  0  0  0  0  0  0  0  0  0  0  0
  131.0169  121.7298   64.1635 H   0  0  0  0  0  0  0  0  0  0  0  0
  128.9574  123.0946   63.8417 H   0  0  0  0  0  0  0  0  0  0  0  0
  128.2585  123.7573   61.5390 H   0  0  0  0  0  0  0  0  0  0  0  0
  131.1071  126.3695   60.0164 H   0  0  0  0  0  0  0  0  0  0  0  0
  131.0459  126.3703   62.4951 H   0  0  0  0  0  0  0  0  0  0  0  0
  134.3943  123.6395   62.5811 H   0  0  0  0  0  0  0  0  0  0  0  0
  134.4419  123.6177   60.1003 H   0  0  0  0  0  0  0  0  0  0  0  0
  1  2  2  0
  2  3  1  0
  3  4  1  0
  4  5  1  0
  5  6  1  0
  6  7  1  0
  7  8  1  0
  8  9  1  0
  9 10  1  0
 10 11  2  0
 11 12  1  0
 12 13  2  0
 13 14  1  0
 14 15  2  0
  6 16  1  0
 16 17  1  0
 17 18  1  0
 18 19  1  0
 19 20  2  0
 20 21  1  0
 21 22  2  0
 22 23  1  0
 23 24  2  0
 16 25  1  0
 25 26  1  0
 26 27  1  0
 27 28  1  0
 28 29  2  0
 29 30  1  0
 30 31  2  0
 31 32  1  0
 32 33  2  0
  2 34  1  0
 34 35  2  0
 35 36  1  0
 36 37  2  0
 37 38  1  0
 38 39  2  0
 38 40  1  0
 37 41  1  0
 41 42  2  0
 25  4  1  0
 33 28  1  0
 42 34  1  0
 15 10  1  0
 24 19  1  0
  4 43  1  6
  6 44  1  6
  7 45  1  0
  7 46  1  0
  9 47  1  0
  9 48  1  0
 11 49  1  0
 12 50  1  0
 13 51  1  0
 14 52  1  0
 15 53  1  0
 16 54  1  1
 18 55  1  0
 18 56  1  0
 20 57  1  0
 21 58  1  0
 22 59  1  0
 23 60  1  0
 24 61  1  0
 25 62  1  6
 27 63  1  0
 27 64  1  0
 29 65  1  0
 30 66  1  0
 31 67  1  0
 32 68  1  0
 33 69  1  0
 35 70  1  0
 36 71  1  0
 41 72  1  0
 42 73  1  0
M  CHG  2  38   1  40  -1
M  END
>  <Binding energies>  (1) 
[-10.21]

>  <Ligand effiencies>  (1) 
[-0.24309523809523811]

>  <Interactions>  (1) 
["V-A:LEU:475:CD2:4256, H-A:TYR:484:OH:4345, V-B:TYR:539:CD1:9845, V-B:ASP:366:CG:8184, V-B:TYR:539:CE1:9847, V-B:PRO:540:CB:9857, V-A:ARG:545:CZ:4924, V-B:PRO:540:CA:9855, V-B:ALA:541:CB:9864, V-A:ASP:366:CG:3210, V-B:PRO:540:N:9856, H-B:TYR:531:OH:9767, H-A:ARG:545:NH2:4926, V-A:ILE:369:CD1:3236, H-A:ARG:545:NE:4922, V-A:PRO:540:CB:4883, V-A:LEU:363:CD1:3186, V-A:ILE:538:CA:4858, V-A:ILE:538:CB:4860, V-B:ILE:538:CB:9834, V-A:MET:535:CE:4833, V-B:PRO:540:CD:9859, V-B:TYR:539:CZ:9849, V-A:ILE:538:CG2:4861, V-B:ILE:538:CG2:9835, V-A:TYR:531:CE2:4791, V-A:PRO:540:CD:4885, V-B:ILE:538:CA:9832, V-B:MET:535:CE:9807, H-A:TYR:531:OH:4793, V-A:ASP:366:CB:3209, V-A:ASP:366:CA:3207, H-B:TYR:539:OH:9850, V-B:PRO:540:CG:9858, V-B:LEU:363:CD1:8160, H-A:GLY:454:N:4047, V-B:LEU:363:CA:8156, V-B:LEU:363:CB:8158"]

$$$$
RR9_Rahimova_2017
     RDKit          3D

 64 68  0  0  0  0  0  0  0  0999 V2000
  124.8620  133.5560   62.2240 C   0  0  0  0  0  0  0  0  0  0  0  0
  123.8870  132.3880   62.4000 C   0  0  0  0  0  0  0  0  0  0  0  0
  124.3440  131.5690   63.4730 O   0  0  0  0  0  0  0  0  0  0  0  0
  125.1970  130.5160   63.2070 C   0  0  0  0  0  0  0  0  0  0  0  0
  125.9650  130.0520   64.2730 C   0  0  0  0  0  0  0  0  0  0  0  0
  126.8550  128.9960   64.0990 C   0  0  0  0  0  0  0  0  0  0  0  0
  127.0020  128.3740   62.8500 C   0  0  0  0  0  0  0  0  0  0  0  0
  127.9630  127.2390   62.6560 C   0  0  0  0  0  0  0  0  0  0  0  0
  127.6230  126.1080   61.8970 C   0  0  0  0  0  0  0  0  0  0  0  0
  128.5320  125.0530   61.7070 C   0  0  0  0  0  0  0  0  0  0  0  0
  128.1450  123.9160   60.8000 C   0  0  0  0  0  0  0  0  0  0  0  0
  127.2450  123.1410   61.1240 O   0  0  0  0  0  0  0  0  0  0  0  0
  128.8560  123.8080   59.6600 N   0  0  0  0  0  0  0  0  0  0  0  0
  128.7560  122.7160   58.6860 C   0  0  0  0  0  0  0  0  0  0  0  0
  128.2080  123.1760   57.3150 C   0  0  0  0  0  0  0  0  0  0  0  0
  126.6960  123.3670   57.2660 C   0  0  0  0  0  0  0  0  0  0  0  0
  125.9880  123.6710   58.4330 C   0  0  0  0  0  0  0  0  0  0  0  0
  124.6120  123.8790   58.3780 C   0  0  0  0  0  0  0  0  0  0  0  0
  123.9480  123.7760   57.1580 C   0  0  0  0  0  0  0  0  0  0  0  0
  124.6460  123.4680   55.9910 C   0  0  0  0  0  0  0  0  0  0  0  0
  126.0220  123.2620   56.0460 C   0  0  0  0  0  0  0  0  0  0  0  0
  129.7880  125.1830   62.3500 C   0  0  0  0  0  0  0  0  0  0  0  0
  131.0080  124.4280   62.5140 C   0  0  0  0  0  0  0  0  0  0  0  0
  131.3410  123.0500   62.0470 C   0  0  0  0  0  0  0  0  0  0  0  0
  132.6340  122.7480   61.6100 C   0  0  0  0  0  0  0  0  0  0  0  0
  132.9390  121.4660   61.1600 C   0  0  0  0  0  0  0  0  0  0  0  0
  131.9520  120.4790   61.1500 C   0  0  0  0  0  0  0  0  0  0  0  0
  132.2780  119.0860   60.6420 C   0  0  0  0  0  0  0  0  0  0  0  0
  130.6590  120.7760   61.5840 C   0  0  0  0  0  0  0  0  0  0  0  0
  130.3570  122.0580   62.0350 C   0  0  0  0  0  0  0  0  0  0  0  0
  131.8880  125.1190   63.2030 N   0  0  0  0  0  0  0  0  0  0  0  0
  131.3130  126.2770   63.5650 N   0  0  0  0  0  0  0  0  0  0  0  0
  130.0280  126.3690   63.0840 C   0  0  0  0  0  0  0  0  0  0  0  0
  129.1760  127.3780   63.2600 N   0  0  0  0  0  0  0  0  0  0  0  0
  126.2280  128.8490   61.7820 C   0  0  0  0  0  0  0  0  0  0  0  0
  125.3350  129.9040   61.9540 C   0  0  0  0  0  0  0  0  0  0  0  0
  125.1718  133.9271   63.2121 H   0  0  0  0  0  0  0  0  0  0  0  0
  125.7467  133.2143   61.6668 H   0  0  0  0  0  0  0  0  0  0  0  0
  124.3677  134.3654   61.6668 H   0  0  0  0  0  0  0  0  0  0  0  0
  122.8836  132.7750   62.6312 H   0  0  0  0  0  0  0  0  0  0  0  0
  123.8377  131.7980   61.4729 H   0  0  0  0  0  0  0  0  0  0  0  0
  125.8670  130.5247   65.2614 H   0  0  0  0  0  0  0  0  0  0  0  0
  127.4519  128.6440   64.9533 H   0  0  0  0  0  0  0  0  0  0  0  0
  126.6238  126.0462   61.4412 H   0  0  0  0  0  0  0  0  0  0  0  0
  129.5150  124.5390   59.4390 H   0  0  0  0  0  0  0  0  0  0  0  0
  129.7578  122.2869   58.5368 H   0  0  0  0  0  0  0  0  0  0  0  0
  128.0486  121.9777   59.0916 H   0  0  0  0  0  0  0  0  0  0  0  0
  128.6831  124.1348   57.0600 H   0  0  0  0  0  0  0  0  0  0  0  0
  128.4436  122.3735   56.6006 H   0  0  0  0  0  0  0  0  0  0  0  0
  126.5177  123.7458   59.3941 H   0  0  0  0  0  0  0  0  0  0  0  0
  124.0526  124.1233   59.2931 H   0  0  0  0  0  0  0  0  0  0  0  0
  122.8611  123.9394   57.1147 H   0  0  0  0  0  0  0  0  0  0  0  0
  124.1127  123.3882   55.0323 H   0  0  0  0  0  0  0  0  0  0  0  0
  126.5785  123.0167   55.1294 H   0  0  0  0  0  0  0  0  0  0  0  0
  133.4125  123.5250   61.6216 H   0  0  0  0  0  0  0  0  0  0  0  0
  133.9561  121.2315   60.8130 H   0  0  0  0  0  0  0  0  0  0  0  0
  132.4358  118.4117   61.4966 H   0  0  0  0  0  0  0  0  0  0  0  0
  131.4427  118.7138   60.0307 H   0  0  0  0  0  0  0  0  0  0  0  0
  133.1917  119.1232   60.0307 H   0  0  0  0  0  0  0  0  0  0  0  0
  129.8805  119.9990   61.5697 H   0  0  0  0  0  0  0  0  0  0  0  0
  129.3399  122.2909   62.3832 H   0  0  0  0  0  0  0  0  0  0  0  0
  131.8210  126.9530   64.1180 H   0  0  0  0  0  0  0  0  0  0  0  0
  126.3276  128.3807   60.7916 H   0  0  0  0  0  0  0  0  0  0  0  0
  124.7355  130.2583   61.1025 H   0  0  0  0  0  0  0  0  0  0  0  0
  1  2  1  0
  2  3  1  0
  3  4  1  0
  4  5  2  0
  5  6  1  0
  6  7  2  0
  7  8  1  0
  8  9  2  0
  9 10  1  0
 10 11  1  0
 11 12  2  0
 11 13  1  0
 13 14  1  0
 14 15  1  0
 15 16  1  0
 16 17  2  0
 17 18  1  0
 18 19  2  0
 19 20  1  0
 20 21  2  0
 10 22  2  0
 22 23  1  0
 23 24  1  0
 24 25  2  0
 25 26  1  0
 26 27  2  0
 27 28  1  0
 27 29  1  0
 29 30  2  0
 23 31  2  0
 31 32  1  0
 32 33  1  0
 33 34  2  0
  7 35  1  0
 35 36  2  0
 36  4  1  0
 34  8  1  0
 21 16  1  0
 33 22  1  0
 30 24  1  0
  1 37  1  0
  1 38  1  0
  1 39  1  0
  2 40  1  0
  2 41  1  0
  5 42  1  0
  6 43  1  0
  9 44  1  0
 13 45  1  0
 14 46  1  0
 14 47  1  0
 15 48  1  0
 15 49  1  0
 17 50  1  0
 18 51  1  0
 19 52  1  0
 20 53  1  0
 21 54  1  0
 25 55  1  0
 26 56  1  0
 28 57  1  0
 28 58  1  0
 28 59  1  0
 29 60  1  0
 30 61  1  0
 32 62  1  0
 35 63  1  0
 36 64  1  0
M  END
>  <Binding energies>  (1) 
[-9.1]

>  <Ligand effiencies>  (1) 
[-0.2394736842105263]

>  <Interactions>  (1) 
["V-A:LEU:475:CD2:4256, V-B:TYR:539:CD1:9845, V-B:TYR:539:C:9839, V-B:ASP:366:CG:8184, V-B:TYR:539:CE1:9847, V-B:GLU:543:CD:9880, V-B:PRO:540:CB:9857, V-A:ARG:545:CZ:4924, V-B:PRO:540:CA:9855, V-B:ALA:541:CB:9864, V-B:ARG:545:CZ:9898, H-A:GLU:543:OE2:4908, V-B:PRO:540:N:9856, H-A:ARG:545:NH2:4926, V-B:LEU:475:CD2:9230, V-B:ILE:369:CD1:8210, V-B:TYR:539:CG:9844, V-B:ILE:538:CB:9834, V-B:ILE:538:CG2:9835, V-B:MET:535:CE:9807, V-A:ILE:369:CG2:3234, H-B:GLY:454:N:9021, V-A:LEU:373:CD1:3277, V-B:TYR:531:CZ:9766, H-B:ALA:541:N:9863, V-B:TYR:531:CE2:9765, V-B:LEU:363:CD1:8160, V-B:GLY:454:CA:9020, V-B:LEU:363:CA:8156"]

$$$$
