1a_Grossjean_2025
     RDKit          3D

 26 27  0  0  0  0  0  0  0  0999 V2000
  132.5960  132.4950   56.6270 C   0  0  0  0  0  0  0  0  0  0  0  0
  131.2620  132.2770   55.9080 C   0  0  0  0  0  0  0  0  0  0  0  0
  130.2170  132.8950   56.6500 O   0  0  0  0  0  0  0  0  0  0  0  0
  129.6750  132.2860   57.7370 C   0  0  0  0  0  0  0  0  0  0  0  0
  129.2150  132.9040   58.7020 O   0  0  0  0  0  0  0  0  0  0  0  0
  129.7070  130.7870   57.6560 C   0  0  0  0  0  0  0  0  0  0  0  0
  128.6730  130.1170   56.9890 C   0  0  0  0  0  0  0  0  0  0  0  0
  128.6720  128.7280   56.9000 C   0  0  0  0  0  0  0  0  0  0  0  0
  129.7000  127.9810   57.4760 C   0  0  0  0  0  0  0  0  0  0  0  0
  129.5960  126.5840   57.3280 N   0  0  0  0  0  0  0  0  0  0  0  0
  130.1270  125.7680   56.3930 C   0  0  0  0  0  0  0  0  0  0  0  0
  130.8380  126.1240   55.4540 O   0  0  0  0  0  0  0  0  0  0  0  0
  129.7920  124.2830   56.5520 C   0  0  0  0  0  0  0  0  0  0  0  0
  128.0030  123.9950   56.6860 S   0  0  0  0  0  0  0  0  0  0  0  0
  127.5840  124.0290   58.4150 C   0  0  0  0  0  0  0  0  0  0  0  0
  128.6210  124.3650   59.2230 N   0  0  0  0  0  0  0  0  0  0  0  0
  128.4140  124.4170   60.5600 C   0  0  0  0  0  0  0  0  0  0  0  0
  129.6230  124.7870   61.4000 C   0  0  0  0  0  0  0  0  0  0  0  0
  127.1770  124.1480   61.1400 C   0  0  0  0  0  0  0  0  0  0  0  0
  126.0960  123.8210   60.3150 C   0  0  0  0  0  0  0  0  0  0  0  0
  124.7450  123.5460   60.9720 C   0  0  0  0  0  0  0  0  0  0  0  0
  126.2870  123.7640   58.9150 C   0  0  0  0  0  0  0  0  0  0  0  0
  125.1580  123.4720   58.0270 C   0  0  0  0  0  0  0  0  0  0  0  0
  124.2650  123.2400   57.3290 N   0  0  0  0  0  0  0  0  0  0  0  0
  130.7440  128.6440   58.1390 C   0  0  0  0  0  0  0  0  0  0  0  0
  130.7430  130.0330   58.2270 C   0  0  0  0  0  0  0  0  0  0  0  0
  1  2  1  0
  2  3  1  0
  3  4  1  0
  4  5  2  0
  4  6  1  0
  6  7  2  0
  7  8  1  0
  8  9  2  0
  9 10  1  0
 10 11  1  0
 11 12  2  0
 11 13  1  0
 13 14  1  0
 14 15  1  0
 15 16  2  0
 16 17  1  0
 17 18  1  0
 17 19  2  0
 19 20  1  0
 20 21  1  0
 20 22  2  0
 22 23  1  0
 23 24  3  0
  9 25  1  0
 25 26  2  0
 26  6  1  0
 22 15  1  0
M  END
>  <Binding energies>  (1) 
[-7.28]

>  <Ligand effiencies>  (1) 
[-0.26962962962962966]

>  <Interactions>  (1) 
["V-B:TYR:539:CE1:9847, V-B:PRO:540:CB:9857, V-B:PRO:540:CA:9855, V-B:ASN:362:CB:8147, V-A:ASP:366:CG:3210, V-B:PRO:540:N:9856, V-A:TYR:539:C:4865, V-A:PRO:540:CB:4883, V-A:PRO:540:N:4882, V-A:LEU:363:CD1:3186, V-A:ILE:538:CA:4858, V-B:TYR:539:CE2:9848, V-A:ILE:538:CB:4860, V-A:MET:535:CE:4833, V-B:TYR:539:CZ:9849, V-A:ILE:538:CG2:4861, V-A:PRO:540:CD:4885, V-B:MET:535:CE:9807, H-A:TYR:531:OH:4793, H-A:TYR:539:N:4868"]

$$$$
1aa_Ghoteimi_2023
     RDKit          3D

 40 43  0  0  0  0  0  0  0  0999 V2000
  133.0040  116.7460   60.3520 C   0  0  0  0  0  0  0  0  0  0  0  0
  132.2250  118.0450   60.5780 C   0  0  0  0  0  0  0  0  0  0  0  0
  133.0690  119.1560   60.3040 O   0  0  0  0  0  0  0  0  0  0  0  0
  133.0750  120.2480   61.1110 C   0  0  0  0  0  0  0  0  0  0  0  0
  134.0070  120.5260   61.8730 O   0  0  0  0  0  0  0  0  0  0  0  0
  131.8360  121.0860   60.9860 C   0  0  0  0  0  0  0  0  0  0  0  0
  130.5750  120.6090   61.3750 C   0  0  0  0  0  0  0  0  0  0  0  0
  129.4420  121.4100   61.2480 C   0  0  0  0  0  0  0  0  0  0  0  0
  129.5520  122.7080   60.7300 C   0  0  0  0  0  0  0  0  0  0  0  0
  128.4810  123.6040   60.5550 N   0  0  0  0  0  0  0  0  0  0  0  0
  127.3510  123.7720   61.2800 C   0  0  0  0  0  0  0  0  0  0  0  0
  127.0590  123.1250   62.2860 O   0  0  0  0  0  0  0  0  0  0  0  0
  126.3660  124.8530   60.8090 C   0  0  0  0  0  0  0  0  0  0  0  0
  126.9470  125.6380   59.7590 O   0  0  0  0  0  0  0  0  0  0  0  0
  128.0770  126.4060   60.0010 C   0  0  0  0  0  0  0  0  0  0  0  0
  128.9510  125.9770   60.9530 N   0  0  0  0  0  0  0  0  0  0  0  0
  130.0630  126.7090   61.2280 C   0  0  0  0  0  0  0  0  0  0  0  0
  130.9770  126.1680   62.2900 C   0  0  0  0  0  0  0  0  0  0  0  0
  132.2670  125.7200   61.9710 C   0  0  0  0  0  0  0  0  0  0  0  0
  133.1160  125.2160   62.9530 C   0  0  0  0  0  0  0  0  0  0  0  0
  132.7030  125.1460   64.2820 C   0  0  0  0  0  0  0  0  0  0  0  0
  133.6110  124.6310   65.1860 O   0  0  0  0  0  0  0  0  0  0  0  0
  133.9060  125.3660   66.3690 C   0  0  0  0  0  0  0  0  0  0  0  0
  131.4180  125.5940   64.6160 C   0  0  0  0  0  0  0  0  0  0  0  0
  130.5720  126.0980   63.6330 C   0  0  0  0  0  0  0  0  0  0  0  0
  130.3300  127.8920   60.5270 C   0  0  0  0  0  0  0  0  0  0  0  0
  129.4530  128.3490   59.5350 C   0  0  0  0  0  0  0  0  0  0  0  0
  129.7990  129.6110   58.8160 C   0  0  0  0  0  0  0  0  0  0  0  0
  130.8450  129.6270   57.8880 C   0  0  0  0  0  0  0  0  0  0  0  0
  131.1690  130.7980   57.2070 C   0  0  0  0  0  0  0  0  0  0  0  0
  130.4520  131.9720   57.4340 C   0  0  0  0  0  0  0  0  0  0  0  0
  130.8430  133.0840   56.7140 O   0  0  0  0  0  0  0  0  0  0  0  0
  132.2000  133.2020   56.3020 C   0  0  0  0  0  0  0  0  0  0  0  0
  129.3960  131.9580   58.3590 C   0  0  0  0  0  0  0  0  0  0  0  0
  129.0750  130.7870   59.0400 C   0  0  0  0  0  0  0  0  0  0  0  0
  128.2900  127.5880   59.2720 C   0  0  0  0  0  0  0  0  0  0  0  0
  127.2940  128.0090   58.2840 C   0  0  0  0  0  0  0  0  0  0  0  0
  126.5060  128.3400   57.5040 N   0  0  0  0  0  0  0  0  0  0  0  0
  130.8050  123.1850   60.3400 C   0  0  0  0  0  0  0  0  0  0  0  0
  131.9350  122.3840   60.4660 C   0  0  0  0  0  0  0  0  0  0  0  0
  1  2  1  0
  2  3  1  0
  3  4  1  0
  4  5  2  0
  4  6  1  0
  6  7  2  0
  7  8  1  0
  8  9  2  0
  9 10  1  0
 10 11  1  0
 11 12  2  0
 11 13  1  0
 13 14  1  0
 14 15  1  0
 15 16  2  0
 16 17  1  0
 17 18  1  0
 18 19  2  0
 19 20  1  0
 20 21  2  0
 21 22  1  0
 22 23  1  0
 21 24  1  0
 24 25  2  0
 17 26  2  0
 26 27  1  0
 27 28  1  0
 28 29  2  0
 29 30  1  0
 30 31  2  0
 31 32  1  0
 32 33  1  0
 31 34  1  0
 34 35  2  0
 27 36  2  0
 36 37  1  0
 37 38  3  0
  9 39  1  0
 39 40  2  0
 40  6  1  0
 36 15  1  0
 25 18  1  0
 35 28  1  0
M  END
>  <Binding energies>  (2) 
[-8.0]

>  <Ligand effiencies>  (2) 
[-0.1951219512195122]

>  <Interactions>  (2) 
["V-A:HIS:456:CE1:4066, V-A:LEU:475:CD2:4256, H-A:TYR:484:OH:4345, V-A:GLY:454:CA:4046, V-B:TYR:539:CD1:9845, V-B:TYR:539:C:9839, V-B:TYR:539:CE1:9847, V-B:GLU:543:CD:9880, V-A:ARG:545:CZ:4924, V-B:PRO:540:CA:9855, V-B:ALA:541:CB:9864, V-A:TYR:484:CZ:4344, V-A:ASP:366:CG:3210, H-B:TYR:531:OH:9767, V-A:ARG:545:CD:4921, V-A:ARG:545:CG:4920, V-A:PRO:540:CB:4883, V-A:PRO:540:N:4882, V-A:LEU:363:CD1:3186, V-A:ILE:538:CA:4858, V-A:ILE:538:C:4856, V-A:ILE:538:CB:4860, V-A:PRO:540:CG:4884, V-A:ILE:538:CG2:4861, V-A:PRO:540:CD:4885, V-A:ILE:369:CG2:3234, V-A:LEU:373:CD1:3277, V-A:SER:385:CA:3404, V-A:SER:385:CB:3406, H-B:ALA:541:N:9863, H-A:GLY:454:N:4047, H-A:TYR:539:N:4868"]

$$$$
1b_Grossjean_2025
     RDKit          3D

 25 26  0  0  0  0  0  0  0  0999 V2000
  125.5130  122.5230   56.6110 C   0  0  0  0  0  0  0  0  0  0  0  0
  126.9220  122.3580   56.5200 O   0  0  0  0  0  0  0  0  0  0  0  0
  127.7500  122.9090   57.4430 C   0  0  0  0  0  0  0  0  0  0  0  0
  128.3980  122.2460   58.2590 O   0  0  0  0  0  0  0  0  0  0  0  0
  127.8080  124.4080   57.3690 C   0  0  0  0  0  0  0  0  0  0  0  0
  126.8020  125.2180   57.9200 C   0  0  0  0  0  0  0  0  0  0  0  0
  126.8850  126.6040   57.8330 C   0  0  0  0  0  0  0  0  0  0  0  0
  127.9690  127.2110   57.1980 C   0  0  0  0  0  0  0  0  0  0  0  0
  127.9480  128.6180   57.1690 N   0  0  0  0  0  0  0  0  0  0  0  0
  127.2330  129.4620   56.3920 C   0  0  0  0  0  0  0  0  0  0  0  0
  126.4240  129.1270   55.5280 O   0  0  0  0  0  0  0  0  0  0  0  0
  127.4720  130.9500   56.6500 C   0  0  0  0  0  0  0  0  0  0  0  0
  129.2390  131.3770   56.6140 S   0  0  0  0  0  0  0  0  0  0  0  0
  129.8620  131.1990   58.2720 C   0  0  0  0  0  0  0  0  0  0  0  0
  128.9460  130.7210   59.1510 N   0  0  0  0  0  0  0  0  0  0  0  0
  129.3140  130.5450   60.4420 C   0  0  0  0  0  0  0  0  0  0  0  0
  128.2420  129.9930   61.3640 C   0  0  0  0  0  0  0  0  0  0  0  0
  130.5930  130.8450   60.9070 C   0  0  0  0  0  0  0  0  0  0  0  0
  131.5370  131.3590   60.0130 C   0  0  0  0  0  0  0  0  0  0  0  0
  132.9280  131.6950   60.5490 C   0  0  0  0  0  0  0  0  0  0  0  0
  131.1760  131.5510   58.6600 C   0  0  0  0  0  0  0  0  0  0  0  0
  132.1350  132.1290   57.7150 C   0  0  0  0  0  0  0  0  0  0  0  0
  132.8940  132.5860   56.9720 N   0  0  0  0  0  0  0  0  0  0  0  0
  128.9790  126.4080   56.6460 C   0  0  0  0  0  0  0  0  0  0  0  0
  128.8950  125.0220   56.7330 C   0  0  0  0  0  0  0  0  0  0  0  0
  1  2  1  0
  2  3  1  0
  3  4  2  0
  3  5  1  0
  5  6  2  0
  6  7  1  0
  7  8  2  0
  8  9  1  0
  9 10  1  0
 10 11  2  0
 10 12  1  0
 12 13  1  0
 13 14  1  0
 14 15  2  0
 15 16  1  0
 16 17  1  0
 16 18  2  0
 18 19  1  0
 19 20  1  0
 19 21  2  0
 21 22  1  0
 22 23  3  0
  8 24  1  0
 24 25  2  0
 25  5  1  0
 21 14  1  0
M  END
>  <Binding energies>  (3) 
[-6.86]

>  <Ligand effiencies>  (3) 
[-0.26384615384615384]

>  <Interactions>  (3) 
["V-B:TYR:539:C:9839, V-B:PRO:540:CB:9857, V-B:PRO:540:N:9856, H-B:TYR:531:OH:9767, V-A:TYR:539:CE1:4873, V-A:PRO:540:CA:4881, V-A:PRO:540:CB:4883, V-A:PRO:540:N:4882, V-B:ILE:538:CB:9834, H-B:TYR:539:N:9842, V-A:MET:535:CE:4833, V-B:PRO:540:CD:9859, V-B:ILE:538:CG2:9835, V-A:PRO:540:CD:4885, V-B:ILE:538:CA:9832, V-B:MET:535:CE:9807, V-A:TYR:539:CE2:4874, V-A:TYR:539:CZ:4875"]

$$$$
1c_Grossjean_2025
     RDKit          3D

 23 24  0  0  0  0  0  0  0  0999 V2000
  124.6310  122.8780   56.9660 C   0  0  0  0  0  0  0  0  0  0  0  0
  125.8040  122.1880   56.5480 O   0  0  0  0  0  0  0  0  0  0  0  0
  127.0410  122.7520   56.7920 C   0  0  0  0  0  0  0  0  0  0  0  0
  127.3100  123.1140   58.1120 C   0  0  0  0  0  0  0  0  0  0  0  0
  128.5290  123.6880   58.4590 C   0  0  0  0  0  0  0  0  0  0  0  0
  129.5070  123.9030   57.4760 C   0  0  0  0  0  0  0  0  0  0  0  0
  130.7680  124.4850   57.7140 N   0  0  0  0  0  0  0  0  0  0  0  0
  131.4890  125.3160   56.9320 C   0  0  0  0  0  0  0  0  0  0  0  0
  131.1430  125.7400   55.8290 O   0  0  0  0  0  0  0  0  0  0  0  0
  132.8410  125.7460   57.5050 C   0  0  0  0  0  0  0  0  0  0  0  0
  133.5110  124.5130   58.6590 S   0  0  0  0  0  0  0  0  0  0  0  0
  132.5620  124.5770   60.1640 C   0  0  0  0  0  0  0  0  0  0  0  0
  131.7370  125.6530   60.2370 N   0  0  0  0  0  0  0  0  0  0  0  0
  130.9650  125.8090   61.3370 C   0  0  0  0  0  0  0  0  0  0  0  0
  130.0620  127.0280   61.3410 C   0  0  0  0  0  0  0  0  0  0  0  0
  130.9890  124.9150   62.4050 C   0  0  0  0  0  0  0  0  0  0  0  0
  131.8530  123.8170   62.3530 C   0  0  0  0  0  0  0  0  0  0  0  0
  131.8740  122.8600   63.5430 C   0  0  0  0  0  0  0  0  0  0  0  0
  132.6710  123.6340   61.2130 C   0  0  0  0  0  0  0  0  0  0  0  0
  133.6210  122.5200   61.1640 C   0  0  0  0  0  0  0  0  0  0  0  0
  134.3710  121.6400   61.1250 N   0  0  0  0  0  0  0  0  0  0  0  0
  129.2380  123.5530   56.1520 C   0  0  0  0  0  0  0  0  0  0  0  0
  128.0170  122.9790   55.8100 C   0  0  0  0  0  0  0  0  0  0  0  0
  1  2  1  0
  2  3  1  0
  3  4  2  0
  4  5  1  0
  5  6  2  0
  6  7  1  0
  7  8  1  0
  8  9  2  0
  8 10  1  0
 10 11  1  0
 11 12  1  0
 12 13  2  0
 13 14  1  0
 14 15  1  0
 14 16  2  0
 16 17  1  0
 17 18  1  0
 17 19  2  0
 19 20  1  0
 20 21  3  0
  6 22  1  0
 22 23  2  0
 23  3  1  0
 19 12  1  0
M  END
>  <Binding energies>  (4) 
[-6.52]

>  <Ligand effiencies>  (4) 
[-0.27166666666666667]

>  <Interactions>  (4) 
["V-A:LEU:475:CD2:4256, V-B:TYR:539:CD1:9845, V-B:TYR:539:C:9839, V-B:TYR:539:CE1:9847, V-B:PRO:540:CB:9857, V-B:PRO:540:CA:9855, V-A:ASP:366:CG:3210, V-B:PRO:540:N:9856, V-A:ILE:369:CD1:3236, V-B:TYR:539:CE2:9848, V-B:ILE:538:CB:9834, H-B:TYR:539:N:9842, V-B:PRO:540:CD:9859, V-B:TYR:539:CZ:9849, V-B:ILE:538:CA:9832, V-B:MET:535:CE:9807, V-A:ILE:369:CG2:3234, H-A:TYR:531:OH:4793, V-A:ASP:366:C:3205, H-A:ASN:370:ND2:3245, V-A:ASP:366:CB:3209, V-A:ASP:366:CA:3207, H-B:TYR:539:OH:9850, V-B:PRO:540:CG:9858, V-B:LEU:363:CD1:8160"]

$$$$
1d_Grossjean_2025
     RDKit          3D

 21 22  0  0  0  0  0  0  0  0999 V2000
  124.9860  123.7990   62.2650 C   0  0  0  0  0  0  0  0  0  0  0  0
  125.6270  123.5290   60.9180 C   0  0  0  0  0  0  0  0  0  0  0  0
  124.8750  123.5010   59.7450 C   0  0  0  0  0  0  0  0  0  0  0  0
  125.5220  123.2570   58.5290 C   0  0  0  0  0  0  0  0  0  0  0  0
  124.6800  123.2470   57.2550 C   0  0  0  0  0  0  0  0  0  0  0  0
  126.9190  123.0360   58.5200 C   0  0  0  0  0  0  0  0  0  0  0  0
  127.6240  122.8260   57.2540 C   0  0  0  0  0  0  0  0  0  0  0  0
  128.1780  122.6610   56.2520 N   0  0  0  0  0  0  0  0  0  0  0  0
  127.5970  123.0580   59.7620 C   0  0  0  0  0  0  0  0  0  0  0  0
  129.3490  122.8010   59.9370 S   0  0  0  0  0  0  0  0  0  0  0  0
  129.6270  122.0520   61.5710 C   0  0  0  0  0  0  0  0  0  0  0  0
  130.7480  121.0130   61.5450 C   0  0  0  0  0  0  0  0  0  0  0  0
  131.7970  121.2450   62.1470 O   0  0  0  0  0  0  0  0  0  0  0  0
  130.4720  119.8810   60.8620 N   0  0  0  0  0  0  0  0  0  0  0  0
  131.2740  118.7490   60.6300 C   0  0  0  0  0  0  0  0  0  0  0  0
  130.5860  117.5600   60.3710 C   0  0  0  0  0  0  0  0  0  0  0  0
  131.2840  116.3820   60.1220 C   0  0  0  0  0  0  0  0  0  0  0  0
  132.6770  116.3920   60.1250 C   0  0  0  0  0  0  0  0  0  0  0  0
  133.3760  117.5710   60.3720 C   0  0  0  0  0  0  0  0  0  0  0  0
  132.6800  118.7510   60.6220 C   0  0  0  0  0  0  0  0  0  0  0  0
  126.9640  123.3180   60.9340 N   0  0  0  0  0  0  0  0  0  0  0  0
  1  2  1  0
  2  3  2  0
  3  4  1  0
  4  5  1  0
  4  6  2  0
  6  7  1  0
  7  8  3  0
  6  9  1  0
  9 10  1  0
 10 11  1  0
 11 12  1  0
 12 13  2  0
 12 14  1  0
 14 15  1  0
 15 16  2  0
 16 17  1  0
 17 18  2  0
 18 19  1  0
 19 20  2  0
  9 21  2  0
 21  2  1  0
 20 15  1  0
M  END
>  <Binding energies>  (5) 
[-8.44]

>  <Ligand effiencies>  (5) 
[-0.3836363636363636]

>  <Interactions>  (5) 
["V-A:LEU:475:CD2:4256, V-B:TYR:539:CD1:9845, V-B:TYR:539:C:9839, V-B:PRO:540:C:9853, H-B:TYR:539:O:9840, V-B:TYR:539:CE1:9847, V-B:PRO:540:CB:9857, V-B:PRO:540:CA:9855, V-B:ALA:541:CB:9864, V-B:ARG:545:CZ:9898, V-B:ASN:362:CB:8147, V-B:PRO:540:N:9856, V-B:TYR:539:CG:9844, H-B:TYR:539:N:9842, V-B:PRO:540:CD:9859, V-A:LEU:373:CD1:3277, V-A:PRO:482:CG:4324, V-A:SER:385:CA:3404, V-A:SER:385:CB:3406, V-A:PRO:482:CB:4323, V-A:VAL:384:C:3394, H-B:ALA:541:N:9863, V-B:TYR:531:CE2:9765, V-B:LEU:363:CD1:8160, V-B:TYR:539:CB:9843, V-B:VAL:344:CG1:7972"]

$$$$
1e_Grossjean_2025
     RDKit          3D

 22 23  0  0  0  0  0  0  0  0999 V2000
  134.3030  125.3430   66.7150 C   0  0  0  0  0  0  0  0  0  0  0  0
  133.2570  125.3710   65.6170 C   0  0  0  0  0  0  0  0  0  0  0  0
  131.9060  125.5940   65.8990 C   0  0  0  0  0  0  0  0  0  0  0  0
  131.0000  125.6030   64.8390 C   0  0  0  0  0  0  0  0  0  0  0  0
  131.4580  125.3900   63.5360 C   0  0  0  0  0  0  0  0  0  0  0  0
  132.8250  125.1780   63.3230 C   0  0  0  0  0  0  0  0  0  0  0  0
  133.2250  124.9580   61.9930 N   0  0  0  0  0  0  0  0  0  0  0  0
  133.3540  123.7840   61.3370 C   0  0  0  0  0  0  0  0  0  0  0  0
  133.1420  122.6740   61.8270 O   0  0  0  0  0  0  0  0  0  0  0  0
  133.8290  123.8810   59.8860 C   0  0  0  0  0  0  0  0  0  0  0  0
  132.7870  125.0010   58.9020 S   0  0  0  0  0  0  0  0  0  0  0  0
  131.1500  124.3060   58.7900 C   0  0  0  0  0  0  0  0  0  0  0  0
  130.8100  123.5500   59.8650 N   0  0  0  0  0  0  0  0  0  0  0  0
  129.5890  122.9660   59.8920 C   0  0  0  0  0  0  0  0  0  0  0  0
  129.2770  122.1450   61.1280 C   0  0  0  0  0  0  0  0  0  0  0  0
  128.6700  123.1000   58.8540 C   0  0  0  0  0  0  0  0  0  0  0  0
  129.0190  123.8550   57.7310 C   0  0  0  0  0  0  0  0  0  0  0  0
  127.9990  123.9710   56.5980 C   0  0  0  0  0  0  0  0  0  0  0  0
  130.2900  124.4720   57.6780 C   0  0  0  0  0  0  0  0  0  0  0  0
  130.6930  125.2170   56.4840 C   0  0  0  0  0  0  0  0  0  0  0  0
  131.0090  125.8060   55.5390 N   0  0  0  0  0  0  0  0  0  0  0  0
  133.7170  125.1630   64.3570 N   0  0  0  0  0  0  0  0  0  0  0  0
  1  2  1  0
  2  3  2  0
  3  4  1  0
  4  5  2  0
  5  6  1  0
  6  7  1  0
  7  8  1  0
  8  9  2  0
  8 10  1  0
 10 11  1  0
 11 12  1  0
 12 13  2  0
 13 14  1  0
 14 15  1  0
 14 16  2  0
 16 17  1  0
 17 18  1  0
 17 19  2  0
 19 20  1  0
 20 21  3  0
  6 22  2  0
 22  2  1  0
 19 12  1  0
M  END
>  <Binding energies>  (6) 
[-7.59]

>  <Ligand effiencies>  (6) 
[-0.33]

>  <Interactions>  (6) 
["V-A:HIS:456:CE1:4066, H-A:TYR:484:OH:4345, V-A:GLY:454:CA:4046, V-B:TYR:539:CD1:9845, V-B:TYR:539:CE1:9847, V-B:GLU:543:CD:9880, V-A:ARG:545:CZ:4924, V-B:ALA:541:CB:9864, H-A:ASP:366:OD2:3212, H-A:ASP:366:OD1:3211, V-A:ARG:545:CD:4921, H-A:ARG:545:NH2:4926, V-A:ILE:369:CD1:3236, V-A:ARG:545:CG:4920, H-A:ARG:545:NE:4922, V-B:TYR:539:CZ:9849, V-B:MET:535:CE:9807, V-A:ILE:369:CG2:3234, V-A:ILE:369:CB:3233, H-A:TYR:531:OH:4793, H-A:ASN:370:ND2:3245, H-B:TYR:539:OH:9850, H-A:GLY:454:N:4047, V-A:ILE:455:C:4049, V-A:ARG:545:CB:4919"]

$$$$
1f_Grossjean_2025
     RDKit          3D

 21 22  0  0  0  0  0  0  0  0999 V2000
  125.1070  123.8180   62.6360 C   0  0  0  0  0  0  0  0  0  0  0  0
  125.5980  123.5880   61.2190 C   0  0  0  0  0  0  0  0  0  0  0  0
  124.7520  123.7300   60.1220 C   0  0  0  0  0  0  0  0  0  0  0  0
  125.2570  123.4920   58.8390 C   0  0  0  0  0  0  0  0  0  0  0  0
  124.3050  123.6360   57.6530 C   0  0  0  0  0  0  0  0  0  0  0  0
  126.6140  123.1230   58.6880 C   0  0  0  0  0  0  0  0  0  0  0  0
  127.1470  122.8160   57.3580 C   0  0  0  0  0  0  0  0  0  0  0  0
  127.5660  122.5740   56.3070 N   0  0  0  0  0  0  0  0  0  0  0  0
  127.4070  123.0310   59.8550 C   0  0  0  0  0  0  0  0  0  0  0  0
  129.1310  122.5810   59.8610 S   0  0  0  0  0  0  0  0  0  0  0  0
  129.5750  122.0210   61.5410 C   0  0  0  0  0  0  0  0  0  0  0  0
  130.7470  121.0300   61.6030 C   0  0  0  0  0  0  0  0  0  0  0  0
  131.7710  121.3120   62.2260 O   0  0  0  0  0  0  0  0  0  0  0  0
  130.5510  119.8850   60.9140 N   0  0  0  0  0  0  0  0  0  0  0  0
  131.3980  118.7710   60.7630 C   0  0  0  0  0  0  0  0  0  0  0  0
  131.0660  117.4400   61.0760 C   0  0  0  0  0  0  0  0  0  0  0  0
  132.0060  116.4260   60.8730 C   0  0  0  0  0  0  0  0  0  0  0  0
  133.2560  116.7680   60.3570 C   0  0  0  0  0  0  0  0  0  0  0  0
  133.6000  118.0420   60.0420 N   0  0  0  0  0  0  0  0  0  0  0  0
  132.6760  119.0160   60.2460 C   0  0  0  0  0  0  0  0  0  0  0  0
  126.9000  123.2390   61.0960 N   0  0  0  0  0  0  0  0  0  0  0  0
  1  2  1  0
  2  3  2  0
  3  4  1  0
  4  5  1  0
  4  6  2  0
  6  7  1  0
  7  8  3  0
  6  9  1  0
  9 10  1  0
 10 11  1  0
 11 12  1  0
 12 13  2  0
 12 14  1  0
 14 15  1  0
 15 16  2  0
 16 17  1  0
 17 18  2  0
 18 19  1  0
 19 20  2  0
  9 21  2  0
 21  2  1  0
 20 15  1  0
M  END
>  <Binding energies>  (7) 
[-8.2]

>  <Ligand effiencies>  (7) 
[-0.3727272727272727]

>  <Interactions>  (7) 
["V-A:LEU:475:CD2:4256, V-B:TYR:539:CD1:9845, V-B:TYR:539:C:9839, V-B:ASP:366:CG:8184, V-B:PRO:540:C:9853, H-B:TYR:539:O:9840, V-B:TYR:539:CE1:9847, V-B:GLU:543:CD:9880, V-B:PRO:540:CB:9857, V-B:PRO:540:CA:9855, V-B:ALA:541:CB:9864, V-B:ARG:545:CZ:9898, V-B:ASN:362:CB:8147, V-B:PRO:540:N:9856, H-B:TYR:539:N:9842, V-A:LEU:373:CD1:3277, V-A:PRO:482:CG:4324, V-A:SER:385:CA:3404, V-A:SER:385:CB:3406, V-A:PRO:482:CB:4323, V-A:VAL:384:C:3394, H-B:ALA:541:N:9863, V-B:TYR:531:CE2:9765, V-B:LEU:363:CD1:8160, V-B:LEU:363:CA:8156"]

$$$$
1g_Grossjean_2025
     RDKit          3D

 22 23  0  0  0  0  0  0  0  0999 V2000
  128.7500  122.0790   60.4880 C   0  0  0  0  0  0  0  0  0  0  0  0
  129.2470  122.9780   59.3720 C   0  0  0  0  0  0  0  0  0  0  0  0
  130.1620  124.0020   59.6130 C   0  0  0  0  0  0  0  0  0  0  0  0
  130.5730  124.8100   58.5470 C   0  0  0  0  0  0  0  0  0  0  0  0
  131.5650  125.9360   58.8380 C   0  0  0  0  0  0  0  0  0  0  0  0
  130.0590  124.5640   57.2540 C   0  0  0  0  0  0  0  0  0  0  0  0
  130.4340  125.4300   56.1340 C   0  0  0  0  0  0  0  0  0  0  0  0
  130.7320  126.1170   55.2510 N   0  0  0  0  0  0  0  0  0  0  0  0
  129.1540  123.4880   57.0980 C   0  0  0  0  0  0  0  0  0  0  0  0
  128.4190  123.0320   55.5430 S   0  0  0  0  0  0  0  0  0  0  0  0
  126.7300  123.7040   55.5270 C   0  0  0  0  0  0  0  0  0  0  0  0
  125.8880  123.1630   56.6830 C   0  0  0  0  0  0  0  0  0  0  0  0
  126.0490  122.0060   57.0750 O   0  0  0  0  0  0  0  0  0  0  0  0
  124.9900  124.0110   57.2140 N   0  0  0  0  0  0  0  0  0  0  0  0
  124.1260  123.7250   58.3580 C   0  0  0  0  0  0  0  0  0  0  0  0
  124.8180  123.8380   59.7130 C   0  0  0  0  0  0  0  0  0  0  0  0
  124.1240  123.5090   60.8820 C   0  0  0  0  0  0  0  0  0  0  0  0
  124.7570  123.6110   62.1180 C   0  0  0  0  0  0  0  0  0  0  0  0
  126.0820  124.0380   62.1810 C   0  0  0  0  0  0  0  0  0  0  0  0
  126.7800  124.3630   61.0210 C   0  0  0  0  0  0  0  0  0  0  0  0
  126.1480  124.2620   59.7840 C   0  0  0  0  0  0  0  0  0  0  0  0
  128.7440  122.7230   58.1410 N   0  0  0  0  0  0  0  0  0  0  0  0
  1  2  1  0
  2  3  2  0
  3  4  1  0
  4  5  1  0
  4  6  2  0
  6  7  1  0
  7  8  3  0
  6  9  1  0
  9 10  1  0
 10 11  1  0
 11 12  1  0
 12 13  2  0
 12 14  1  0
 14 15  1  0
 15 16  1  0
 16 17  2  0
 17 18  1  0
 18 19  2  0
 19 20  1  0
 20 21  2  0
  9 22  2  0
 22  2  1  0
 21 16  1  0
M  END
>  <Binding energies>  (8) 
[-7.9]

>  <Ligand effiencies>  (8) 
[-0.34347826086956523]

>  <Interactions>  (8) 
["V-B:TYR:539:CD1:9845, V-B:TYR:539:C:9839, V-B:ASP:366:CG:8184, V-B:PRO:540:C:9853, V-B:TYR:539:CE1:9847, V-B:GLU:543:CD:9880, V-B:PRO:540:CB:9857, V-B:PRO:540:CA:9855, H-B:ASP:366:OD2:8186, V-B:ARG:545:CZ:9898, V-B:ASN:362:CB:8147, V-A:ASP:366:CG:3210, V-B:PRO:540:N:9856, H-B:TYR:531:OH:9767, V-B:TYR:539:CE2:9848, V-B:ILE:538:CB:9834, H-B:TYR:539:N:9842, V-B:TYR:539:CZ:9849, V-B:ILE:538:CG2:9835, V-B:MET:535:CE:9807, H-A:TYR:531:OH:4793, V-B:TYR:531:CZ:9766, V-A:ASP:366:CB:3209, V-B:TYR:531:CE2:9765, V-B:LEU:363:CD1:8160, V-B:ASN:362:C:8143, V-B:LEU:363:CA:8156"]

$$$$
1h_Grossjean_2025
     RDKit          3D

 28 29  0  0  0  0  0  0  0  0999 V2000
  126.0880  124.1000   56.7800 C   0  0  0  0  0  0  0  0  0  0  0  0
  126.8660  124.8310   57.7220 O   0  0  0  0  0  0  0  0  0  0  0  0
  127.6580  125.8760   57.2820 C   0  0  0  0  0  0  0  0  0  0  0  0
  127.2810  127.2270   57.3480 C   0  0  0  0  0  0  0  0  0  0  0  0
  128.1260  128.2290   56.8720 C   0  0  0  0  0  0  0  0  0  0  0  0
  127.7140  129.6950   56.9710 C   0  0  0  0  0  0  0  0  0  0  0  0
  127.8550  130.2630   58.3120 N   0  0  0  0  0  0  0  0  0  0  0  0
  126.8760  130.8710   59.0050 C   0  0  0  0  0  0  0  0  0  0  0  0
  125.7230  130.9970   58.5910 O   0  0  0  0  0  0  0  0  0  0  0  0
  127.2570  131.4300   60.3760 C   0  0  0  0  0  0  0  0  0  0  0  0
  128.3220  132.8970   60.2410 S   0  0  0  0  0  0  0  0  0  0  0  0
  130.0150  132.3440   60.1210 C   0  0  0  0  0  0  0  0  0  0  0  0
  130.6260  132.0540   61.3000 N   0  0  0  0  0  0  0  0  0  0  0  0
  131.9090  131.6240   61.2810 C   0  0  0  0  0  0  0  0  0  0  0  0
  132.5200  131.3170   62.6350 C   0  0  0  0  0  0  0  0  0  0  0  0
  132.6330  131.4690   60.1010 C   0  0  0  0  0  0  0  0  0  0  0  0
  132.0160  131.7660   58.8810 C   0  0  0  0  0  0  0  0  0  0  0  0
  132.8270  131.5870   57.5990 C   0  0  0  0  0  0  0  0  0  0  0  0
  130.6760  132.2160   58.8770 C   0  0  0  0  0  0  0  0  0  0  0  0
  130.0050  132.5370   57.6150 C   0  0  0  0  0  0  0  0  0  0  0  0
  129.4760  132.7910   56.6170 N   0  0  0  0  0  0  0  0  0  0  0  0
  129.3770  127.8880   56.3560 C   0  0  0  0  0  0  0  0  0  0  0  0
  129.7830  126.5460   56.2820 C   0  0  0  0  0  0  0  0  0  0  0  0
  131.0050  126.1350   55.7820 O   0  0  0  0  0  0  0  0  0  0  0  0
  132.0360  125.7490   56.6850 C   0  0  0  0  0  0  0  0  0  0  0  0
  128.9090  125.5480   56.7390 C   0  0  0  0  0  0  0  0  0  0  0  0
  129.2940  124.2310   56.6780 O   0  0  0  0  0  0  0  0  0  0  0  0
  129.4380  123.6120   57.9490 C   0  0  0  0  0  0  0  0  0  0  0  0
  1  2  1  0
  2  3  1  0
  3  4  2  0
  4  5  1  0
  5  6  1  0
  6  7  1  0
  7  8  1  0
  8  9  2  0
  8 10  1  0
 10 11  1  0
 11 12  1  0
 12 13  2  0
 13 14  1  0
 14 15  1  0
 14 16  2  0
 16 17  1  0
 17 18  1  0
 17 19  2  0
 19 20  1  0
 20 21  3  0
  5 22  2  0
 22 23  1  0
 23 24  1  0
 24 25  1  0
 23 26  2  0
 26 27  1  0
 27 28  1  0
 26  3  1  0
 19 12  1  0
M  END
>  <Binding energies>  (9) 
[-6.58]

>  <Ligand effiencies>  (9) 
[-0.22689655172413795]

>  <Interactions>  (9) 
["V-B:TYR:539:CD1:9845, V-B:TYR:539:CE1:9847, V-A:ARG:545:CZ:4924, H-B:TYR:531:OH:9767, V-A:GLU:543:CD:4906, V-A:TYR:539:CE1:4873, V-A:TYR:539:C:4865, V-A:PRO:540:CA:4881, V-A:PRO:540:CB:4883, V-A:PRO:540:N:4882, V-A:LEU:363:CD1:3186, V-A:MET:535:CE:4833, V-B:TYR:539:CZ:9849, V-A:TYR:531:CZ:4792, V-B:MET:535:CE:9807, H-A:TYR:531:OH:4793, V-A:TYR:539:CZ:4875, V-A:ASP:366:CB:3209, V-A:TYR:531:CE1:4790, V-A:PRO:540:C:4879, H-A:TYR:539:OH:4876, H-A:TYR:539:N:4868, V-A:ASN:362:CB:3173, H-A:ALA:541:N:4889, V-A:ALA:541:C:4886"]

$$$$
1i_Grossjean_2025
     RDKit          3D

 20 21  0  0  0  0  0  0  0  0999 V2000
  124.9780  123.8560   62.2560 C   0  0  0  0  0  0  0  0  0  0  0  0
  125.6490  123.5140   60.9390 C   0  0  0  0  0  0  0  0  0  0  0  0
  124.9500  123.5450   59.7350 C   0  0  0  0  0  0  0  0  0  0  0  0
  125.6240  123.2290   58.5500 C   0  0  0  0  0  0  0  0  0  0  0  0
  124.8410  123.2870   57.2390 C   0  0  0  0  0  0  0  0  0  0  0  0
  126.9940  122.8820   58.6050 C   0  0  0  0  0  0  0  0  0  0  0  0
  127.7310  122.5970   57.3710 C   0  0  0  0  0  0  0  0  0  0  0  0
  128.3110  122.3740   56.3950 N   0  0  0  0  0  0  0  0  0  0  0  0
  127.6160  122.8530   59.8750 C   0  0  0  0  0  0  0  0  0  0  0  0
  129.3280  122.4370   60.1280 S   0  0  0  0  0  0  0  0  0  0  0  0
  129.5240  121.9520   61.8700 C   0  0  0  0  0  0  0  0  0  0  0  0
  130.7900  122.5440   62.4930 C   0  0  0  0  0  0  0  0  0  0  0  0
  131.8890  122.0910   62.1710 O   0  0  0  0  0  0  0  0  0  0  0  0
  130.5900  123.5510   63.3710 N   0  0  0  0  0  0  0  0  0  0  0  0
  131.5560  124.2550   64.0770 C   0  0  0  0  0  0  0  0  0  0  0  0
  131.2470  125.2400   65.0130 C   0  0  0  0  0  0  0  0  0  0  0  0
  132.4620  125.6860   65.4780 C   0  0  0  0  0  0  0  0  0  0  0  0
  133.4520  125.0060   64.8530 O   0  0  0  0  0  0  0  0  0  0  0  0
  132.8650  124.1030   63.9650 N   0  0  0  0  0  0  0  0  0  0  0  0
  126.9590  123.1790   61.0160 N   0  0  0  0  0  0  0  0  0  0  0  0
  1  2  1  0
  2  3  2  0
  3  4  1  0
  4  5  1  0
  4  6  2  0
  6  7  1  0
  7  8  3  0
  6  9  1  0
  9 10  1  0
 10 11  1  0
 11 12  1  0
 12 13  2  0
 12 14  1  0
 14 15  1  0
 15 16  1  0
 16 17  2  0
 17 18  1  0
 18 19  1  0
  9 20  2  0
 20  2  1  0
 19 15  2  0
M  END
>  <Binding energies>  (10) 
[-7.95]

>  <Ligand effiencies>  (10) 
[-0.37857142857142856]

>  <Interactions>  (10) 
["V-A:LEU:475:CD2:4256, H-A:TYR:484:OH:4345, V-B:TYR:539:CD1:9845, V-B:TYR:539:C:9839, V-B:PRO:540:C:9853, V-B:GLU:543:CD:9880, V-B:PRO:540:CB:9857, V-A:ARG:545:CZ:4924, V-B:PRO:540:CA:9855, V-B:ALA:541:CB:9864, V-B:ARG:545:CZ:9898, V-B:ASN:362:CB:8147, H-B:GLU:543:OE1:9881, V-B:PRO:540:N:9856, V-A:ARG:545:CD:4921, V-A:ARG:545:CG:4920, H-A:ARG:545:NE:4922, H-B:TYR:539:N:9842, V-B:PRO:540:CD:9859, V-B:TYR:539:CA:9841, H-B:ALA:541:N:9863, V-B:LEU:363:CD1:8160, H-A:GLY:454:N:4047"]

$$$$
1k_Grossjean_2025
     RDKit          3D

 25 25  0  0  0  0  0  0  0  0999 V2000
  131.4470  132.2500   56.6400 C   0  0  0  0  0  0  0  0  0  0  0  0
  130.2390  132.9790   56.4990 O   0  0  0  0  0  0  0  0  0  0  0  0
  129.3830  132.8830   57.6300 C   0  0  0  0  0  0  0  0  0  0  0  0
  129.3060  131.4210   58.0910 C   0  0  0  0  0  0  0  0  0  0  0  0
  127.9960  130.9200   57.8570 O   0  0  0  0  0  0  0  0  0  0  0  0
  127.6570  130.8300   56.4790 C   0  0  0  0  0  0  0  0  0  0  0  0
  126.4350  129.9190   56.3140 C   0  0  0  0  0  0  0  0  0  0  0  0
  126.8650  128.5730   56.1510 O   0  0  0  0  0  0  0  0  0  0  0  0
  128.2720  128.4060   56.2650 C   0  0  0  0  0  0  0  0  0  0  0  0
  128.5840  127.4270   57.4130 C   0  0  0  0  0  0  0  0  0  0  0  0
  128.6620  126.0270   56.9970 N   0  0  0  0  0  0  0  0  0  0  0  0
  129.6520  125.4910   56.2610 C   0  0  0  0  0  0  0  0  0  0  0  0
  130.6180  126.1410   55.8580 O   0  0  0  0  0  0  0  0  0  0  0  0
  129.5030  123.9950   55.9400 C   0  0  0  0  0  0  0  0  0  0  0  0
  127.8960  123.2470   56.3820 S   0  0  0  0  0  0  0  0  0  0  0  0
  127.7330  123.2170   58.1610 C   0  0  0  0  0  0  0  0  0  0  0  0
  128.8370  122.8310   58.8520 N   0  0  0  0  0  0  0  0  0  0  0  0
  128.7780  122.7770   60.2020 C   0  0  0  0  0  0  0  0  0  0  0  0
  130.0480  122.3290   60.9000 C   0  0  0  0  0  0  0  0  0  0  0  0
  127.6300  123.1090   60.9180 C   0  0  0  0  0  0  0  0  0  0  0  0
  126.4880  123.5150   60.2200 C   0  0  0  0  0  0  0  0  0  0  0  0
  125.2410  123.8740   61.0230 C   0  0  0  0  0  0  0  0  0  0  0  0
  126.5280  123.5740   58.8090 C   0  0  0  0  0  0  0  0  0  0  0  0
  125.3450  123.9930   58.0510 C   0  0  0  0  0  0  0  0  0  0  0  0
  124.4100  124.3230   57.4530 N   0  0  0  0  0  0  0  0  0  0  0  0
  1  2  1  0
  2  3  1  0
  3  4  1  0
  4  5  1  0
  5  6  1  0
  6  7  1  0
  7  8  1  0
  8  9  1  0
  9 10  1  0
 10 11  1  0
 11 12  1  0
 12 13  2  0
 12 14  1  0
 14 15  1  0
 15 16  1  0
 16 17  2  0
 17 18  1  0
 18 19  1  0
 18 20  2  0
 20 21  1  0
 21 22  1  0
 21 23  2  0
 23 24  1  0
 24 25  3  0
 23 16  1  0
M  END
>  <Binding energies>  (11) 
[-5.94]

>  <Ligand effiencies>  (11) 
[-0.22846153846153847]

>  <Interactions>  (11) 
["V-B:TYR:539:CD1:9845, V-B:TYR:539:C:9839, V-B:PRO:540:C:9853, V-B:TYR:539:CE1:9847, V-B:PRO:540:CB:9857, V-B:PRO:540:CA:9855, V-B:PRO:540:N:9856, H-B:TYR:531:OH:9767, V-A:TYR:539:CE1:4873, V-A:TYR:539:C:4865, V-A:TYR:539:CD1:4871, V-A:PRO:540:N:4882, V-A:TYR:539:CA:4867, V-B:TYR:539:CE2:9848, V-A:TYR:539:CG:4870, V-A:ILE:538:CB:4860, V-A:MET:535:CE:4833, V-B:TYR:539:CZ:9849, V-B:MET:535:CE:9807, H-A:TYR:531:OH:4793, V-A:TYR:539:CZ:4875, H-A:TYR:539:N:4868"]

$$$$
1l_Grossjean_2025
     RDKit          3D

 17 17  0  0  0  0  0  0  0  0999 V2000
  131.0690  117.3200   60.0110 C   0  0  0  0  0  0  0  0  0  0  0  0
  131.0780  118.0910   61.2050 O   0  0  0  0  0  0  0  0  0  0  0  0
  130.2550  119.2070   61.0560 N   0  0  0  0  0  0  0  0  0  0  0  0
  130.7570  120.4280   61.3220 C   0  0  0  0  0  0  0  0  0  0  0  0
  131.9600  120.6560   61.4710 O   0  0  0  0  0  0  0  0  0  0  0  0
  129.7170  121.5530   61.4150 C   0  0  0  0  0  0  0  0  0  0  0  0
  129.3320  122.3820   59.8350 S   0  0  0  0  0  0  0  0  0  0  0  0
  127.6290  122.9120   59.8850 C   0  0  0  0  0  0  0  0  0  0  0  0
  127.1300  123.1790   61.1200 N   0  0  0  0  0  0  0  0  0  0  0  0
  125.8430  123.5850   61.2320 C   0  0  0  0  0  0  0  0  0  0  0  0
  125.3600  123.8630   62.6430 C   0  0  0  0  0  0  0  0  0  0  0  0
  125.0070  123.7420   60.1300 C   0  0  0  0  0  0  0  0  0  0  0  0
  125.5090  123.4720   58.8520 C   0  0  0  0  0  0  0  0  0  0  0  0
  124.5740  123.6530   57.6570 C   0  0  0  0  0  0  0  0  0  0  0  0
  126.8480  123.0470   58.7130 C   0  0  0  0  0  0  0  0  0  0  0  0
  127.4010  122.7560   57.3860 C   0  0  0  0  0  0  0  0  0  0  0  0
  127.8360  122.5280   56.3390 N   0  0  0  0  0  0  0  0  0  0  0  0
  1  2  1  0
  2  3  1  0
  3  4  1  0
  4  5  2  0
  4  6  1  0
  6  7  1  0
  7  8  1  0
  8  9  2  0
  9 10  1  0
 10 11  1  0
 10 12  2  0
 12 13  1  0
 13 14  1  0
 13 15  2  0
 15 16  1  0
 16 17  3  0
 15  8  1  0
M  END
>  <Binding energies>  (12) 
[-6.66]

>  <Ligand effiencies>  (12) 
[-0.37]

>  <Interactions>  (12) 
["V-A:LEU:475:CD2:4256, V-B:TYR:539:CD1:9845, V-B:TYR:539:C:9839, V-B:ASP:366:CG:8184, V-B:PRO:540:C:9853, H-B:TYR:539:O:9840, V-B:TYR:539:CE1:9847, V-B:GLU:543:CD:9880, V-B:PRO:540:CB:9857, V-B:PRO:540:CA:9855, V-B:ALA:541:CB:9864, V-B:ARG:545:CZ:9898, V-B:ASN:362:CB:8147, V-B:PRO:540:N:9856, V-B:TYR:539:CG:9844, H-B:TYR:539:N:9842, V-A:PRO:482:CG:4324, V-A:PRO:482:CB:4323, H-B:ALA:541:N:9863, V-B:LEU:363:CD1:8160, V-B:TYR:539:CB:9843"]

$$$$
1m_Grossjean_2025
     RDKit          3D

 20 20  0  0  0  0  0  0  0  0999 V2000
  124.8900  122.6590   56.7780 C   0  0  0  0  0  0  0  0  0  0  0  0
  126.2260  122.3450   56.4090 O   0  0  0  0  0  0  0  0  0  0  0  0
  127.2270  122.4420   57.3080 C   0  0  0  0  0  0  0  0  0  0  0  0
  128.3860  122.0530   57.1360 O   0  0  0  0  0  0  0  0  0  0  0  0
  126.7540  123.1210   58.6100 C   0  0  0  0  0  0  0  0  0  0  0  0
  127.7640  123.0730   59.6780 N   0  0  0  0  0  0  0  0  0  0  0  0
  127.5140  123.1230   61.0000 C   0  0  0  0  0  0  0  0  0  0  0  0
  126.3770  123.2340   61.4640 O   0  0  0  0  0  0  0  0  0  0  0  0
  128.7460  123.0410   61.9100 C   0  0  0  0  0  0  0  0  0  0  0  0
  130.1340  122.0700   61.2290 S   0  0  0  0  0  0  0  0  0  0  0  0
  131.0930  123.1410   60.1800 C   0  0  0  0  0  0  0  0  0  0  0  0
  130.3400  123.8890   59.3340 N   0  0  0  0  0  0  0  0  0  0  0  0
  130.9630  124.7460   58.4930 C   0  0  0  0  0  0  0  0  0  0  0  0
  130.0550  125.5620   57.5920 C   0  0  0  0  0  0  0  0  0  0  0  0
  132.3480  124.8850   58.4500 C   0  0  0  0  0  0  0  0  0  0  0  0
  133.1360  124.1000   59.2980 C   0  0  0  0  0  0  0  0  0  0  0  0
  134.6530  124.2570   59.2230 C   0  0  0  0  0  0  0  0  0  0  0  0
  132.5080  123.1960   60.1860 C   0  0  0  0  0  0  0  0  0  0  0  0
  133.3160  122.3290   61.0480 C   0  0  0  0  0  0  0  0  0  0  0  0
  133.9530  121.6450   61.7280 N   0  0  0  0  0  0  0  0  0  0  0  0
  1  2  1  0
  2  3  1  0
  3  4  2  0
  3  5  1  0
  5  6  1  0
  6  7  1  0
  7  8  2  0
  7  9  1  0
  9 10  1  0
 10 11  1  0
 11 12  2  0
 12 13  1  0
 13 14  1  0
 13 15  2  0
 15 16  1  0
 16 17  1  0
 16 18  2  0
 18 19  1  0
 19 20  3  0
 18 11  1  0
M  END
>  <Binding energies>  (13) 
[-5.86]

>  <Ligand effiencies>  (13) 
[-0.27904761904761904]

>  <Interactions>  (13) 
["V-B:TYR:539:CD1:9845, V-B:TYR:539:C:9839, V-B:PRO:540:C:9853, H-B:TYR:539:O:9840, V-B:TYR:539:CE1:9847, V-B:PRO:540:CB:9857, V-B:PRO:540:CA:9855, V-B:ALA:541:CB:9864, V-A:ASP:366:CG:3210, V-B:PRO:540:N:9856, V-A:ILE:369:CD1:3236, V-B:ILE:538:CB:9834, H-B:TYR:539:N:9842, V-B:PRO:540:CD:9859, V-B:TYR:539:CZ:9849, V-B:TYR:539:CA:9841, V-B:ILE:538:CG2:9835, V-A:ILE:369:CG2:3234, V-A:ILE:369:CB:3233, H-B:ALA:541:N:9863, V-A:ASP:366:C:3205, V-A:ASP:366:CB:3209, V-A:ASP:366:CA:3207, V-B:PRO:540:CG:9858, V-B:LEU:363:CD1:8160, V-A:ILE:369:CG1:3235"]

$$$$
1n_Grossjean_2025
     RDKit          3D

 27 28  0  0  0  0  0  0  0  0999 V2000
  124.3450  122.7900   57.2460 C   0  0  0  0  0  0  0  0  0  0  0  0
  125.2970  123.0520   56.0750 C   0  0  0  0  0  0  0  0  0  0  0  0
  126.5070  122.3340   56.2800 O   0  0  0  0  0  0  0  0  0  0  0  0
  127.4400  122.7710   57.1650 C   0  0  0  0  0  0  0  0  0  0  0  0
  128.2560  122.0270   57.7170 O   0  0  0  0  0  0  0  0  0  0  0  0
  127.3900  124.2550   57.3950 C   0  0  0  0  0  0  0  0  0  0  0  0
  126.5570  124.8270   58.3700 C   0  0  0  0  0  0  0  0  0  0  0  0
  126.5320  126.2060   58.5560 C   0  0  0  0  0  0  0  0  0  0  0  0
  127.3280  127.0410   57.7700 C   0  0  0  0  0  0  0  0  0  0  0  0
  127.2200  128.4190   58.0390 N   0  0  0  0  0  0  0  0  0  0  0  0
  126.8330  129.4290   57.2300 C   0  0  0  0  0  0  0  0  0  0  0  0
  126.4820  129.3090   56.0570 O   0  0  0  0  0  0  0  0  0  0  0  0
  126.8420  130.8270   57.8640 C   0  0  0  0  0  0  0  0  0  0  0  0
  127.5500  130.8650   59.2350 C   0  0  0  0  0  0  0  0  0  0  0  0
  128.3940  132.4330   59.6040 S   0  0  0  0  0  0  0  0  0  0  0  0
  130.1460  132.1250   59.5630 C   0  0  0  0  0  0  0  0  0  0  0  0
  130.6830  131.8800   60.7840 N   0  0  0  0  0  0  0  0  0  0  0  0
  132.0080  131.6160   60.8720 C   0  0  0  0  0  0  0  0  0  0  0  0
  132.5350  131.3420   62.2670 C   0  0  0  0  0  0  0  0  0  0  0  0
  132.8450  131.5920   59.7580 C   0  0  0  0  0  0  0  0  0  0  0  0
  132.3050  131.8640   58.4960 C   0  0  0  0  0  0  0  0  0  0  0  0
  133.2440  131.8450   57.2920 C   0  0  0  0  0  0  0  0  0  0  0  0
  130.9240  132.1470   58.3820 C   0  0  0  0  0  0  0  0  0  0  0  0
  130.3480  132.4850   57.0790 C   0  0  0  0  0  0  0  0  0  0  0  0
  129.8950  132.7530   56.0480 N   0  0  0  0  0  0  0  0  0  0  0  0
  128.1700  126.4760   56.8020 C   0  0  0  0  0  0  0  0  0  0  0  0
  128.1970  125.0960   56.6190 C   0  0  0  0  0  0  0  0  0  0  0  0
  1  2  1  0
  2  3  1  0
  3  4  1  0
  4  5  2  0
  4  6  1  0
  6  7  2  0
  7  8  1  0
  8  9  2  0
  9 10  1  0
 10 11  1  0
 11 12  2  0
 11 13  1  0
 13 14  1  0
 14 15  1  0
 15 16  1  0
 16 17  2  0
 17 18  1  0
 18 19  1  0
 18 20  2  0
 20 21  1  0
 21 22  1  0
 21 23  2  0
 23 24  1  0
 24 25  3  0
  9 26  1  0
 26 27  2  0
 27  6  1  0
 23 16  1  0
M  END
>  <Binding energies>  (14) 
[-8.68]

>  <Ligand effiencies>  (14) 
[-0.31]

>  <Interactions>  (14) 
["V-B:TYR:539:C:9839, V-B:ASP:366:CG:8184, V-B:PRO:540:CB:9857, V-A:ARG:545:CZ:4924, V-B:PRO:540:CA:9855, V-A:ASP:366:CG:3210, V-B:PRO:540:N:9856, H-B:TYR:531:OH:9767, V-A:GLU:543:CD:4906, V-A:TYR:539:CE1:4873, V-A:TYR:539:C:4865, V-A:PRO:540:CA:4881, V-A:PRO:540:CB:4883, V-A:PRO:540:N:4882, V-A:LEU:363:CD1:3186, V-B:ILE:538:CB:9834, H-B:TYR:539:N:9842, V-B:PRO:540:CD:9859, V-B:ILE:538:CG2:9835, V-A:TYR:531:CE2:4791, V-B:MET:535:CE:9807, V-A:TYR:539:CZ:4875, V-B:TYR:531:CE2:9765, V-B:PRO:540:CG:9858, V-B:LEU:363:CD1:8160, V-A:PRO:540:C:4879, H-A:TYR:539:N:4868, V-A:LEU:363:CA:3182, V-A:ASN:362:CB:3173, H-A:ALA:541:N:4889"]

$$$$
1q_Grossjean_2025
     RDKit          3D

 21 21  0  0  0  0  0  0  0  0999 V2000
  128.9030  126.7110   57.0120 C   0  0  0  0  0  0  0  0  0  0  0  0
  129.6720  125.5870   56.6090 O   0  0  0  0  0  0  0  0  0  0  0  0
  130.8360  125.7560   55.9350 C   0  0  0  0  0  0  0  0  0  0  0  0
  130.9390  126.1350   54.7670 O   0  0  0  0  0  0  0  0  0  0  0  0
  132.0940  125.3960   56.7540 C   0  0  0  0  0  0  0  0  0  0  0  0
  131.7880  125.0180   58.1420 N   0  0  0  0  0  0  0  0  0  0  0  0
  132.5670  124.2710   58.9470 C   0  0  0  0  0  0  0  0  0  0  0  0
  133.6550  123.8120   58.5950 O   0  0  0  0  0  0  0  0  0  0  0  0
  132.0290  124.0260   60.3640 C   0  0  0  0  0  0  0  0  0  0  0  0
  130.4910  124.0530   60.4720 C   0  0  0  0  0  0  0  0  0  0  0  0
  129.7030  122.4770   60.0250 S   0  0  0  0  0  0  0  0  0  0  0  0
  128.3930  122.8080   58.8640 C   0  0  0  0  0  0  0  0  0  0  0  0
  128.7550  122.6070   57.5710 N   0  0  0  0  0  0  0  0  0  0  0  0
  127.8430  122.8280   56.5970 C   0  0  0  0  0  0  0  0  0  0  0  0
  128.3260  122.5980   55.1770 C   0  0  0  0  0  0  0  0  0  0  0  0
  126.5410  123.2450   56.8660 C   0  0  0  0  0  0  0  0  0  0  0  0
  126.1490  123.4310   58.1950 C   0  0  0  0  0  0  0  0  0  0  0  0
  124.7100  123.8710   58.4650 C   0  0  0  0  0  0  0  0  0  0  0  0
  127.0830  123.2030   59.2310 C   0  0  0  0  0  0  0  0  0  0  0  0
  126.6740  123.3380   60.6300 C   0  0  0  0  0  0  0  0  0  0  0  0
  126.3460  123.4460   61.7350 N   0  0  0  0  0  0  0  0  0  0  0  0
  1  2  1  0
  2  3  1  0
  3  4  2  0
  3  5  1  0
  5  6  1  0
  6  7  1  0
  7  8  2  0
  7  9  1  0
  9 10  1  0
 10 11  1  0
 11 12  1  0
 12 13  2  0
 13 14  1  0
 14 15  1  0
 14 16  2  0
 16 17  1  0
 17 18  1  0
 17 19  2  0
 19 20  1  0
 20 21  3  0
 19 12  1  0
M  END
>  <Binding energies>  (15) 
[-6.59]

>  <Ligand effiencies>  (15) 
[-0.29954545454545456]

>  <Interactions>  (15) 
["V-B:TYR:539:CD1:9845, V-B:TYR:539:C:9839, V-B:PRO:540:C:9853, V-B:TYR:539:CE1:9847, V-B:PRO:540:CB:9857, V-B:PRO:540:CA:9855, V-B:PRO:540:N:9856, V-B:TYR:539:CE2:9848, V-B:TYR:539:CD2:9846, V-B:TYR:539:CZ:9849, V-B:ILE:538:CA:9832, V-B:MET:535:CE:9807, H-A:TYR:531:OH:4793, H-B:ALA:541:N:9863, H-A:ASN:370:ND2:3245, V-A:ASP:366:CB:3209, H-B:TYR:539:OH:9850, V-A:TYR:531:CE1:4790, V-B:ILE:538:C:9830"]

$$$$
2a_Grossjean_2025
     RDKit          3D

 29 30  0  0  0  0  0  0  0  0999 V2000
  125.3260  123.4960   55.8880 C   0  0  0  0  0  0  0  0  0  0  0  0
  125.7230  122.4400   56.9250 C   0  0  0  0  0  0  0  0  0  0  0  0
  127.1400  122.3230   56.9570 O   0  0  0  0  0  0  0  0  0  0  0  0
  127.8750  122.9710   57.8970 C   0  0  0  0  0  0  0  0  0  0  0  0
  128.5730  122.3920   58.7350 O   0  0  0  0  0  0  0  0  0  0  0  0
  127.7710  124.4670   57.8000 C   0  0  0  0  0  0  0  0  0  0  0  0
  126.8890  125.2030   58.6040 C   0  0  0  0  0  0  0  0  0  0  0  0
  126.8160  126.5880   58.4880 C   0  0  0  0  0  0  0  0  0  0  0  0
  127.6140  127.2640   57.5650 C   0  0  0  0  0  0  0  0  0  0  0  0
  127.4470  128.6610   57.5240 N   0  0  0  0  0  0  0  0  0  0  0  0
  126.9290  129.4450   56.5550 C   0  0  0  0  0  0  0  0  0  0  0  0
  126.5120  129.0530   55.4640 O   0  0  0  0  0  0  0  0  0  0  0  0
  126.8760  130.9430   56.8750 C   0  0  0  0  0  0  0  0  0  0  0  0
  127.3620  131.3320   58.5890 S   0  0  0  0  0  0  0  0  0  0  0  0
  129.1460  131.3750   58.7150 C   0  0  0  0  0  0  0  0  0  0  0  0
  129.6690  130.8490   59.8530 N   0  0  0  0  0  0  0  0  0  0  0  0
  131.0100  130.8590   60.0210 C   0  0  0  0  0  0  0  0  0  0  0  0
  131.5160  130.2780   61.3290 C   0  0  0  0  0  0  0  0  0  0  0  0
  131.8830  131.3810   59.0710 C   0  0  0  0  0  0  0  0  0  0  0  0
  131.3660  131.9220   57.8840 C   0  0  0  0  0  0  0  0  0  0  0  0
  132.3450  132.4950   56.8410 C   0  0  0  0  0  0  0  0  0  0  0  0
  133.5050  132.7990   57.4220 F   0  0  0  0  0  0  0  0  0  0  0  0
  132.5630  131.5960   55.8800 F   0  0  0  0  0  0  0  0  0  0  0  0
  131.8850  133.6040   56.2570 F   0  0  0  0  0  0  0  0  0  0  0  0
  129.9600  131.9210   57.6960 C   0  0  0  0  0  0  0  0  0  0  0  0
  129.3660  132.4770   56.4750 C   0  0  0  0  0  0  0  0  0  0  0  0
  128.8970  132.9160   55.5120 N   0  0  0  0  0  0  0  0  0  0  0  0
  128.5050  126.5360   56.7640 C   0  0  0  0  0  0  0  0  0  0  0  0
  128.5800  125.1510   56.8840 C   0  0  0  0  0  0  0  0  0  0  0  0
  1  2  1  0
  2  3  1  0
  3  4  1  0
  4  5  2  0
  4  6  1  0
  6  7  2  0
  7  8  1  0
  8  9  2  0
  9 10  1  0
 10 11  1  0
 11 12  2  0
 11 13  1  0
 13 14  1  0
 14 15  1  0
 15 16  2  0
 16 17  1  0
 17 18  1  0
 17 19  2  0
 19 20  1  0
 20 21  1  0
 21 22  1  0
 21 23  1  0
 21 24  1  0
 20 25  2  0
 25 26  1  0
 26 27  3  0
  9 28  1  0
 28 29  2  0
 29  6  1  0
 25 15  1  0
M  END
>  <Binding energies>  (16) 
[-7.37]

>  <Ligand effiencies>  (16) 
[-0.24566666666666667]

>  <Interactions>  (16) 
["V-B:TYR:539:C:9839, V-B:ASP:366:CG:8184, V-B:PRO:540:CB:9857, V-B:PRO:540:CA:9855, V-B:PRO:540:N:9856, H-B:TYR:531:OH:9767, V-A:TYR:539:CE1:4873, V-A:TYR:539:C:4865, V-A:PRO:540:CA:4881, V-A:PRO:540:CB:4883, V-A:PRO:540:N:4882, V-A:LEU:363:CD1:3186, V-A:TYR:539:CA:4867, V-A:ILE:538:CA:4858, V-A:ILE:538:C:4856, V-A:ILE:538:CB:4860, V-B:ILE:538:CB:9834, H-B:TYR:539:N:9842, V-A:MET:535:CE:4833, V-B:PRO:540:CD:9859, V-A:PRO:540:CG:4884, V-A:ILE:538:CG2:4861, V-B:ILE:538:CG2:9835, V-A:TYR:531:CE2:4791, V-A:PRO:540:CD:4885, V-A:TYR:531:CZ:4792, V-B:MET:535:CE:9807, V-B:TYR:531:CZ:9766, V-A:TYR:539:CE2:4874, V-A:TYR:539:CZ:4875, V-B:TYR:531:CE2:9765, V-B:LEU:363:CD1:8160, H-A:TYR:539:OH:4876, H-A:TYR:539:N:4868, V-A:LEU:363:CA:3182, V-A:LEU:363:CB:3184, V-A:LEU:363:CG:3185, V-A:ILE:538:CG1:4862"]

$$$$
2b_Grossjean_2025
     RDKit          3D

 28 29  0  0  0  0  0  0  0  0999 V2000
  131.7480  132.5030   56.2810 C   0  0  0  0  0  0  0  0  0  0  0  0
  130.5560  132.9680   56.8970 O   0  0  0  0  0  0  0  0  0  0  0  0
  130.0060  132.3050   57.9460 C   0  0  0  0  0  0  0  0  0  0  0  0
  129.5810  132.8680   58.9600 O   0  0  0  0  0  0  0  0  0  0  0  0
  129.9680  130.8160   57.7530 C   0  0  0  0  0  0  0  0  0  0  0  0
  130.9510  129.9730   58.2920 C   0  0  0  0  0  0  0  0  0  0  0  0
  130.8880  128.5970   58.0930 C   0  0  0  0  0  0  0  0  0  0  0  0
  129.8440  128.0350   57.3590 C   0  0  0  0  0  0  0  0  0  0  0  0
  129.8800  126.6350   57.2140 N   0  0  0  0  0  0  0  0  0  0  0  0
  130.3170  125.8870   56.1790 C   0  0  0  0  0  0  0  0  0  0  0  0
  130.7590  126.3280   55.1170 O   0  0  0  0  0  0  0  0  0  0  0  0
  130.2200  124.3720   56.3810 C   0  0  0  0  0  0  0  0  0  0  0  0
  129.9690  123.8960   58.1230 S   0  0  0  0  0  0  0  0  0  0  0  0
  128.2220  123.8610   58.5020 C   0  0  0  0  0  0  0  0  0  0  0  0
  127.8720  124.3600   59.7140 N   0  0  0  0  0  0  0  0  0  0  0  0
  126.5670  124.3600   60.0690 C   0  0  0  0  0  0  0  0  0  0  0  0
  126.2610  124.9220   61.4440 C   0  0  0  0  0  0  0  0  0  0  0  0
  125.5630  123.8760   59.2360 C   0  0  0  0  0  0  0  0  0  0  0  0
  125.9000  123.3630   57.9750 C   0  0  0  0  0  0  0  0  0  0  0  0
  124.7760  122.8360   57.0630 C   0  0  0  0  0  0  0  0  0  0  0  0
  125.1040  121.6360   56.5820 F   0  0  0  0  0  0  0  0  0  0  0  0
  123.6390  122.7300   57.7520 F   0  0  0  0  0  0  0  0  0  0  0  0
  124.5390  123.6350   56.0200 F   0  0  0  0  0  0  0  0  0  0  0  0
  127.2660  123.3500   57.5920 C   0  0  0  0  0  0  0  0  0  0  0  0
  127.6770  122.8200   56.2880 C   0  0  0  0  0  0  0  0  0  0  0  0
  128.0010  122.4020   55.2590 N   0  0  0  0  0  0  0  0  0  0  0  0
  128.8610  128.8720   56.8100 C   0  0  0  0  0  0  0  0  0  0  0  0
  128.9260  130.2480   57.0090 C   0  0  0  0  0  0  0  0  0  0  0  0
  1  2  1  0
  2  3  1  0
  3  4  2  0
  3  5  1  0
  5  6  2  0
  6  7  1  0
  7  8  2  0
  8  9  1  0
  9 10  1  0
 10 11  2  0
 10 12  1  0
 12 13  1  0
 13 14  1  0
 14 15  2  0
 15 16  1  0
 16 17  1  0
 16 18  2  0
 18 19  1  0
 19 20  1  0
 20 21  1  0
 20 22  1  0
 20 23  1  0
 19 24  2  0
 24 25  1  0
 25 26  3  0
  8 27  1  0
 27 28  2  0
 28  5  1  0
 24 14  1  0
M  END
>  <Binding energies>  (17) 
[-7.3]

>  <Ligand effiencies>  (17) 
[-0.2517241379310345]

>  <Interactions>  (17) 
["V-B:TYR:539:C:9839, V-B:TYR:539:CE1:9847, V-B:PRO:540:CB:9857, V-B:PRO:540:CA:9855, V-A:ASP:366:CG:3210, V-B:PRO:540:N:9856, V-A:TYR:539:C:4865, V-A:PRO:540:CA:4881, V-A:PRO:540:N:4882, V-A:ILE:538:CA:4858, V-B:TYR:539:CE2:9848, V-A:ILE:538:CB:4860, V-B:ILE:538:CB:9834, H-B:TYR:539:N:9842, V-A:MET:535:CE:4833, V-B:PRO:540:CD:9859, V-B:TYR:539:CZ:9849, V-A:ILE:538:CG2:4861, V-B:ILE:538:CG2:9835, V-A:PRO:540:CD:4885, V-B:ILE:538:CA:9832, V-B:MET:535:CE:9807, H-A:TYR:531:OH:4793, V-B:TYR:531:CZ:9766, V-B:TYR:531:CE2:9765, H-B:TYR:539:OH:9850, V-B:ILE:538:C:9830, V-B:PRO:540:CG:9858, V-B:LEU:363:CD1:8160, H-A:TYR:539:N:4868, V-B:LEU:363:CA:8156, V-B:LEU:363:CB:8158, V-B:LEU:363:CG:8159, V-B:ILE:538:CG1:9836"]

$$$$
2c_Grossjean_2025
     RDKit          3D

 26 27  0  0  0  0  0  0  0  0999 V2000
  132.6780  125.4030   65.5650 C   0  0  0  0  0  0  0  0  0  0  0  0
  133.3100  124.6270   64.5520 O   0  0  0  0  0  0  0  0  0  0  0  0
  132.9720  124.8420   63.2290 C   0  0  0  0  0  0  0  0  0  0  0  0
  131.8640  125.6550   62.9940 C   0  0  0  0  0  0  0  0  0  0  0  0
  131.4450  125.9290   61.6950 C   0  0  0  0  0  0  0  0  0  0  0  0
  132.1340  125.3740   60.6060 C   0  0  0  0  0  0  0  0  0  0  0  0
  131.7970  125.6070   59.2610 N   0  0  0  0  0  0  0  0  0  0  0  0
  132.3380  125.0620   58.1500 C   0  0  0  0  0  0  0  0  0  0  0  0
  133.2900  124.2790   58.1460 O   0  0  0  0  0  0  0  0  0  0  0  0
  131.7010  125.5190   56.8290 C   0  0  0  0  0  0  0  0  0  0  0  0
  130.2330  124.5710   56.2950 S   0  0  0  0  0  0  0  0  0  0  0  0
  128.8920  124.8540   57.4440 C   0  0  0  0  0  0  0  0  0  0  0  0
  129.1270  125.7870   58.4030 N   0  0  0  0  0  0  0  0  0  0  0  0
  128.1620  126.0470   59.3110 C   0  0  0  0  0  0  0  0  0  0  0  0
  128.5070  127.0880   60.3590 C   0  0  0  0  0  0  0  0  0  0  0  0
  126.9270  125.4030   59.3000 C   0  0  0  0  0  0  0  0  0  0  0  0
  126.6590  124.4420   58.3150 C   0  0  0  0  0  0  0  0  0  0  0  0
  125.2870  123.7400   58.3150 C   0  0  0  0  0  0  0  0  0  0  0  0
  124.8380  123.6160   59.5640 F   0  0  0  0  0  0  0  0  0  0  0  0
  124.4090  124.4500   57.6060 F   0  0  0  0  0  0  0  0  0  0  0  0
  125.3360  122.5150   57.7830 F   0  0  0  0  0  0  0  0  0  0  0  0
  127.6650  124.1550   57.3580 C   0  0  0  0  0  0  0  0  0  0  0  0
  127.4410  123.1580   56.3060 C   0  0  0  0  0  0  0  0  0  0  0  0
  127.2630  122.3710   55.4760 N   0  0  0  0  0  0  0  0  0  0  0  0
  133.2530  124.5720   60.8360 C   0  0  0  0  0  0  0  0  0  0  0  0
  133.6690  124.3020   62.1360 C   0  0  0  0  0  0  0  0  0  0  0  0
  1  2  1  0
  2  3  1  0
  3  4  2  0
  4  5  1  0
  5  6  2  0
  6  7  1  0
  7  8  1  0
  8  9  2  0
  8 10  1  0
 10 11  1  0
 11 12  1  0
 12 13  2  0
 13 14  1  0
 14 15  1  0
 14 16  2  0
 16 17  1  0
 17 18  1  0
 18 19  1  0
 18 20  1  0
 18 21  1  0
 17 22  2  0
 22 23  1  0
 23 24  3  0
  6 25  1  0
 25 26  2  0
 26  3  1  0
 22 12  1  0
M  END
>  <Binding energies>  (18) 
[-6.3]

>  <Ligand effiencies>  (18) 
[-0.23333333333333334]

>  <Interactions>  (18) 
["V-A:HIS:456:CE1:4066, H-A:TYR:484:OH:4345, V-B:TYR:539:C:9839, V-B:ASP:366:CG:8184, V-B:TYR:539:CE1:9847, V-B:PRO:540:CB:9857, V-A:ARG:545:CZ:4924, V-B:PRO:540:CA:9855, H-A:ASP:366:OD2:3212, V-A:ASP:366:CG:3210, V-B:ASP:366:CB:8183, V-B:PRO:540:N:9856, V-A:ARG:545:CD:4921, V-A:ARG:545:CG:4920, H-B:TYR:539:N:9842, V-B:PRO:540:CD:9859, V-B:TYR:539:CZ:9849, V-B:MET:535:CE:9807, V-B:TYR:531:CZ:9766, V-A:ASP:366:CB:3209, V-B:TYR:531:CE2:9765, H-B:TYR:539:OH:9850, V-B:PRO:540:CG:9858, V-B:LEU:363:CD1:8160, H-A:GLY:454:N:4047"]

$$$$
2d_Ghoteimi_2023
     RDKit          3D

 38 42  0  0  0  0  0  0  0  0999 V2000
  133.2360  119.8580   60.7110 C   0  0  0  0  0  0  0  0  0  0  0  0
  132.7260  121.0790   61.2250 O   0  0  0  0  0  0  0  0  0  0  0  0
  133.4050  122.2320   61.0550 C   0  0  0  0  0  0  0  0  0  0  0  0
  133.2920  122.9950   60.0910 O   0  0  0  0  0  0  0  0  0  0  0  0
  134.3560  122.4980   62.2320 C   0  0  0  0  0  0  0  0  0  0  0  0
  134.4070  124.2740   62.6510 S   0  0  0  0  0  0  0  0  0  0  0  0
  132.8190  124.7400   63.3110 C   0  0  0  0  0  0  0  0  0  0  0  0
  131.8000  124.5520   62.4370 N   0  0  0  0  0  0  0  0  0  0  0  0
  130.5340  124.8720   62.8050 C   0  0  0  0  0  0  0  0  0  0  0  0
  129.4660  124.6540   61.7820 C   0  0  0  0  0  0  0  0  0  0  0  0
  129.2920  123.3990   61.1890 C   0  0  0  0  0  0  0  0  0  0  0  0
  128.2990  123.1890   60.2360 C   0  0  0  0  0  0  0  0  0  0  0  0
  127.4360  124.2250   59.8500 C   0  0  0  0  0  0  0  0  0  0  0  0
  126.4440  124.0360   58.8800 N   0  0  0  0  0  0  0  0  0  0  0  0
  126.7240  123.3210   57.6190 C   0  0  0  0  0  0  0  0  0  0  0  0
  125.6460  123.5330   56.5360 C   0  0  0  0  0  0  0  0  0  0  0  0
  124.3710  123.1780   57.0460 O   0  0  0  0  0  0  0  0  0  0  0  0
  124.0190  123.9690   58.1690 C   0  0  0  0  0  0  0  0  0  0  0  0
  125.0520  123.7750   59.2990 C   0  0  0  0  0  0  0  0  0  0  0  0
  127.6220  125.4850   60.4360 C   0  0  0  0  0  0  0  0  0  0  0  0
  128.6160  125.6950   61.3870 C   0  0  0  0  0  0  0  0  0  0  0  0
  130.2600  125.3880   64.0740 C   0  0  0  0  0  0  0  0  0  0  0  0
  131.2900  125.5600   65.0070 C   0  0  0  0  0  0  0  0  0  0  0  0
  130.9190  126.0900   66.3540 C   0  0  0  0  0  0  0  0  0  0  0  0
  129.7560  125.6490   66.9870 C   0  0  0  0  0  0  0  0  0  0  0  0
  129.4080  126.1270   68.2460 C   0  0  0  0  0  0  0  0  0  0  0  0
  130.2140  127.0660   68.9090 C   0  0  0  0  0  0  0  0  0  0  0  0
  129.8910  127.5510   70.1800 N   0  0  0  0  0  0  0  0  0  0  0  0
  130.9010  127.6270   71.2540 C   0  0  0  0  0  0  0  0  0  0  0  0
  130.4650  128.5060   72.4460 C   0  0  0  0  0  0  0  0  0  0  0  0
  129.2190  128.0530   72.9530 O   0  0  0  0  0  0  0  0  0  0  0  0
  128.2000  128.1110   71.9670 C   0  0  0  0  0  0  0  0  0  0  0  0
  128.5770  127.2200   70.7640 C   0  0  0  0  0  0  0  0  0  0  0  0
  131.3900  127.4900   68.2740 C   0  0  0  0  0  0  0  0  0  0  0  0
  131.7380  127.0110   67.0150 C   0  0  0  0  0  0  0  0  0  0  0  0
  132.6120  125.2230   64.6240 C   0  0  0  0  0  0  0  0  0  0  0  0
  133.7200  125.3680   65.5720 C   0  0  0  0  0  0  0  0  0  0  0  0
  134.5930  125.4830   66.3240 N   0  0  0  0  0  0  0  0  0  0  0  0
  1  2  1  0
  2  3  1  0
  3  4  2  0
  3  5  1  0
  5  6  1  0
  6  7  1  0
  7  8  2  0
  8  9  1  0
  9 10  1  0
 10 11  2  0
 11 12  1  0
 12 13  2  0
 13 14  1  0
 14 15  1  0
 15 16  1  0
 16 17  1  0
 17 18  1  0
 18 19  1  0
 13 20  1  0
 20 21  2  0
  9 22  2  0
 22 23  1  0
 23 24  1  0
 24 25  2  0
 25 26  1  0
 26 27  2  0
 27 28  1  0
 28 29  1  0
 29 30  1  0
 30 31  1  0
 31 32  1  0
 32 33  1  0
 27 34  1  0
 34 35  2  0
 23 36  2  0
 36 37  1  0
 37 38  3  0
 36  7  1  0
 21 10  1  0
 35 24  1  0
 19 14  1  0
 33 28  1  0
M  END
>  <Binding energies>  (19) 
[-6.05]

>  <Ligand effiencies>  (19) 
[-0.15921052631578947]

>  <Interactions>  (19) 
["V-B:HIS:456:CE1:9040, V-A:HIS:456:CD2:4065, V-A:LYS:547:CE:4948, H-A:LYS:547:NZ:4949, V-B:HIS:456:CD2:9039, V-B:HIS:456:CG:9037, V-A:HIS:456:CE1:4066, V-A:HIS:456:CG:4063, V-A:GLY:544:C:4910, V-B:GLU:543:CG:9879, V-A:LEU:475:CD2:4256, H-A:TYR:484:OH:4345, V-A:GLY:454:CA:4046, V-B:TYR:539:CD1:9845, V-B:ASP:366:CG:8184, V-B:GLU:543:CB:9878, V-B:TYR:539:CE1:9847, V-B:GLU:543:CD:9880, V-B:PRO:540:CB:9857, V-A:ARG:545:CZ:4924, V-B:PRO:540:CA:9855, V-B:ASP:366:CB:8183, V-B:PRO:540:N:9856, V-A:GLU:543:CD:4906, V-A:ARG:545:CD:4921, V-A:GLY:453:CA:4041, V-A:ILE:369:CD1:3236, V-A:ARG:545:CG:4920, H-A:ARG:545:NE:4922, V-A:GLY:453:C:4039, V-A:ILE:369:CG2:3234, V-A:LEU:373:CD1:3277, V-A:SER:385:CA:3404, V-B:TYR:531:CE2:9765, V-B:LEU:363:CD1:8160, V-B:GLU:543:C:9874, V-A:GLU:543:C:4900, V-A:GLY:544:CA:4912, H-A:GLY:454:N:4047, V-A:GLU:543:CG:4905, H-A:ILE:455:N:4052, V-B:LEU:363:CA:8156"]

$$$$
2d_Grossjean_2025
     RDKit          3D

 24 25  0  0  0  0  0  0  0  0999 V2000
  130.8150  128.2830   58.1820 C   0  0  0  0  0  0  0  0  0  0  0  0
  129.4340  128.9060   58.2680 C   0  0  0  0  0  0  0  0  0  0  0  0
  128.6140  129.0200   57.1480 C   0  0  0  0  0  0  0  0  0  0  0  0
  127.3430  129.5990   57.2810 C   0  0  0  0  0  0  0  0  0  0  0  0
  126.4450  129.7070   56.0330 C   0  0  0  0  0  0  0  0  0  0  0  0
  126.8140  128.8020   55.1260 F   0  0  0  0  0  0  0  0  0  0  0  0
  125.1720  129.4910   56.3660 F   0  0  0  0  0  0  0  0  0  0  0  0
  126.5090  130.9060   55.4520 F   0  0  0  0  0  0  0  0  0  0  0  0
  126.9380  130.0610   58.5590 C   0  0  0  0  0  0  0  0  0  0  0  0
  125.6030  130.6320   58.7590 C   0  0  0  0  0  0  0  0  0  0  0  0
  124.5480  131.0810   58.9160 N   0  0  0  0  0  0  0  0  0  0  0  0
  127.8480  129.9270   59.6340 C   0  0  0  0  0  0  0  0  0  0  0  0
  127.5150  130.4800   61.2960 S   0  0  0  0  0  0  0  0  0  0  0  0
  128.4690  132.0020   61.6090 C   0  0  0  0  0  0  0  0  0  0  0  0
  129.7860  132.0540   60.8290 C   0  0  0  0  0  0  0  0  0  0  0  0
  130.8470  132.1210   61.4510 O   0  0  0  0  0  0  0  0  0  0  0  0
  129.6700  132.0530   59.4850 N   0  0  0  0  0  0  0  0  0  0  0  0
  130.6800  132.0890   58.5050 C   0  0  0  0  0  0  0  0  0  0  0  0
  130.2810  132.4950   57.2290 C   0  0  0  0  0  0  0  0  0  0  0  0
  131.2080  132.5560   56.1910 C   0  0  0  0  0  0  0  0  0  0  0  0
  132.5340  132.2030   56.4290 C   0  0  0  0  0  0  0  0  0  0  0  0
  132.9400  131.7850   57.6930 C   0  0  0  0  0  0  0  0  0  0  0  0
  132.0170  131.7230   58.7330 C   0  0  0  0  0  0  0  0  0  0  0  0
  129.0640  129.3450   59.4930 N   0  0  0  0  0  0  0  0  0  0  0  0
  1  2  1  0
  2  3  2  0
  3  4  1  0
  4  5  1  0
  5  6  1  0
  5  7  1  0
  5  8  1  0
  4  9  2  0
  9 10  1  0
 10 11  3  0
  9 12  1  0
 12 13  1  0
 13 14  1  0
 14 15  1  0
 15 16  2  0
 15 17  1  0
 17 18  1  0
 18 19  2  0
 19 20  1  0
 20 21  2  0
 21 22  1  0
 22 23  2  0
 12 24  2  0
 24  2  1  0
 23 18  1  0
M  END
>  <Binding energies>  (20) 
[-6.23]

>  <Ligand effiencies>  (20) 
[-0.2492]

>  <Interactions>  (20) 
["V-A:ASP:366:CG:3210, V-B:ASP:366:CB:8183, V-A:TYR:539:CE1:4873, V-A:TYR:539:C:4865, V-A:PRO:540:CA:4881, V-A:PRO:540:CB:4883, V-A:PRO:540:N:4882, V-A:LEU:363:CD1:3186, V-A:ILE:538:CA:4858, V-A:ILE:538:CB:4860, V-A:MET:535:CE:4833, V-A:ILE:538:CG2:4861, V-A:TYR:531:CE2:4791, V-B:MET:535:CE:9807, V-B:TYR:531:CZ:9766, V-A:TYR:539:CE2:4874, V-B:TYR:531:CE1:9764, V-A:TYR:539:CZ:4875, V-B:ASN:370:CG:8217, H-A:TYR:539:OH:4876, V-B:ASN:370:CB:8216, H-A:ALA:541:N:4889"]

$$$$
2e_Grossjean_2025
     RDKit          3D

 25 26  0  0  0  0  0  0  0  0999 V2000
  124.0800  123.6720   57.7660 C   0  0  0  0  0  0  0  0  0  0  0  0
  125.4970  123.2840   57.3880 C   0  0  0  0  0  0  0  0  0  0  0  0
  125.8840  123.1390   56.0540 C   0  0  0  0  0  0  0  0  0  0  0  0
  127.2080  122.7910   55.7810 C   0  0  0  0  0  0  0  0  0  0  0  0
  128.1030  122.5990   56.8370 C   0  0  0  0  0  0  0  0  0  0  0  0
  127.6460  122.7520   58.1510 C   0  0  0  0  0  0  0  0  0  0  0  0
  128.5970  122.5900   59.1720 N   0  0  0  0  0  0  0  0  0  0  0  0
  128.4030  122.6400   60.5090 C   0  0  0  0  0  0  0  0  0  0  0  0
  127.3070  122.7680   61.0590 O   0  0  0  0  0  0  0  0  0  0  0  0
  129.6680  122.5730   61.3700 C   0  0  0  0  0  0  0  0  0  0  0  0
  130.6520  124.1010   61.2590 S   0  0  0  0  0  0  0  0  0  0  0  0
  130.0880  124.9240   59.7870 C   0  0  0  0  0  0  0  0  0  0  0  0
  128.8370  125.4410   59.8720 N   0  0  0  0  0  0  0  0  0  0  0  0
  128.3130  126.0450   58.7810 C   0  0  0  0  0  0  0  0  0  0  0  0
  126.9120  126.6000   58.9460 C   0  0  0  0  0  0  0  0  0  0  0  0
  129.0030  126.1510   57.5750 C   0  0  0  0  0  0  0  0  0  0  0  0
  130.2950  125.6140   57.4680 C   0  0  0  0  0  0  0  0  0  0  0  0
  131.0360  125.7210   56.1220 C   0  0  0  0  0  0  0  0  0  0  0  0
  130.9900  124.5530   55.4800 F   0  0  0  0  0  0  0  0  0  0  0  0
  130.4660  126.6560   55.3610 F   0  0  0  0  0  0  0  0  0  0  0  0
  132.3220  126.0490   56.2670 F   0  0  0  0  0  0  0  0  0  0  0  0
  130.8600  124.9830   58.6040 C   0  0  0  0  0  0  0  0  0  0  0  0
  132.1930  124.3750   58.5470 C   0  0  0  0  0  0  0  0  0  0  0  0
  133.2460  123.8950   58.5020 N   0  0  0  0  0  0  0  0  0  0  0  0
  126.3540  123.1000   58.4250 N   0  0  0  0  0  0  0  0  0  0  0  0
  1  2  1  0
  2  3  2  0
  3  4  1  0
  4  5  2  0
  5  6  1  0
  6  7  1  0
  7  8  1  0
  8  9  2  0
  8 10  1  0
 10 11  1  0
 11 12  1  0
 12 13  2  0
 13 14  1  0
 14 15  1  0
 14 16  2  0
 16 17  1  0
 17 18  1  0
 18 19  1  0
 18 20  1  0
 18 21  1  0
 17 22  2  0
 22 23  1  0
 23 24  3  0
  6 25  2  0
 25  2  1  0
 22 12  1  0
M  END
>  <Binding energies>  (21) 
[-6.48]

>  <Ligand effiencies>  (21) 
[-0.24923076923076926]

>  <Interactions>  (21) 
["V-B:TYR:539:CD1:9845, V-B:TYR:539:C:9839, V-B:ASP:366:CG:8184, H-B:TYR:539:O:9840, V-B:TYR:539:CE1:9847, V-B:PRO:540:CB:9857, V-B:PRO:540:CA:9855, V-B:ALA:541:CB:9864, V-B:PRO:540:N:9856, V-B:TYR:539:CE2:9848, V-B:TYR:539:CG:9844, V-B:ILE:538:CB:9834, V-A:MET:535:CE:4833, V-B:TYR:539:CD2:9846, V-B:PRO:540:CD:9859, V-B:TYR:539:CZ:9849, V-B:ILE:538:CG2:9835, V-A:TYR:531:CZ:4792, V-B:ILE:538:CA:9832, V-B:MET:535:CE:9807, H-B:ALA:541:N:9863, V-A:ASP:366:CB:3209, V-B:TYR:531:CE2:9765, H-B:TYR:539:OH:9850, V-A:ASN:370:CG:3243, V-A:TYR:531:CE1:4790, V-B:ILE:538:C:9830, V-B:LEU:363:CD1:8160, V-B:LEU:363:CA:8156, V-B:LEU:363:CB:8158"]

$$$$
2f_Grossjean_2025
     RDKit          3D

 24 25  0  0  0  0  0  0  0  0999 V2000
  132.6090  131.3430   62.6070 C   0  0  0  0  0  0  0  0  0  0  0  0
  131.9910  131.6280   61.2520 C   0  0  0  0  0  0  0  0  0  0  0  0
  132.7240  131.5050   60.0740 C   0  0  0  0  0  0  0  0  0  0  0  0
  132.1090  131.7880   58.8450 C   0  0  0  0  0  0  0  0  0  0  0  0
  132.9400  131.6570   57.5540 C   0  0  0  0  0  0  0  0  0  0  0  0
  133.2310  132.8670   57.0720 F   0  0  0  0  0  0  0  0  0  0  0  0
  134.0770  131.0100   57.8100 F   0  0  0  0  0  0  0  0  0  0  0  0
  132.3020  130.9860   56.5930 F   0  0  0  0  0  0  0  0  0  0  0  0
  130.7470  132.1870   58.8440 C   0  0  0  0  0  0  0  0  0  0  0  0
  130.0770  132.5480   57.5920 C   0  0  0  0  0  0  0  0  0  0  0  0
  129.5480  132.8320   56.6030 N   0  0  0  0  0  0  0  0  0  0  0  0
  130.0740  132.2600   60.0870 C   0  0  0  0  0  0  0  0  0  0  0  0
  128.3660  132.7300   60.2720 S   0  0  0  0  0  0  0  0  0  0  0  0
  128.1580  133.4680   61.9280 C   0  0  0  0  0  0  0  0  0  0  0  0
  127.0750  132.8170   62.8000 C   0  0  0  0  0  0  0  0  0  0  0  0
  125.9250  133.2590   62.8090 O   0  0  0  0  0  0  0  0  0  0  0  0
  127.5030  131.7690   63.5370 N   0  0  0  0  0  0  0  0  0  0  0  0
  126.7850  130.9460   64.4250 C   0  0  0  0  0  0  0  0  0  0  0  0
  127.3250  130.2840   65.5430 C   0  0  0  0  0  0  0  0  0  0  0  0
  126.4980  129.4990   66.3480 C   0  0  0  0  0  0  0  0  0  0  0  0
  125.1460  129.3970   66.0170 C   0  0  0  0  0  0  0  0  0  0  0  0
  124.5990  130.0320   64.9500 N   0  0  0  0  0  0  0  0  0  0  0  0
  125.4160  130.7920   64.1770 C   0  0  0  0  0  0  0  0  0  0  0  0
  130.6920  132.0040   61.2660 N   0  0  0  0  0  0  0  0  0  0  0  0
  1  2  1  0
  2  3  2  0
  3  4  1  0
  4  5  1  0
  5  6  1  0
  5  7  1  0
  5  8  1  0
  4  9  2  0
  9 10  1  0
 10 11  3  0
  9 12  1  0
 12 13  1  0
 13 14  1  0
 14 15  1  0
 15 16  2  0
 15 17  1  0
 17 18  1  0
 18 19  2  0
 19 20  1  0
 20 21  2  0
 21 22  1  0
 22 23  2  0
 12 24  2  0
 24  2  1  0
 23 18  1  0
M  END
>  <Binding energies>  (22) 
[-8.18]

>  <Ligand effiencies>  (22) 
[-0.3272]

>  <Interactions>  (22) 
["V-B:HIS:456:CE1:9040, V-A:ARG:545:CZ:4924, V-B:ARG:545:CZ:9898, V-A:ASP:366:CG:3210, H-A:GLU:543:OE1:4907, V-A:GLU:543:CD:4906, V-B:LEU:475:CD2:9230, V-A:TYR:539:C:4865, H-B:ARG:545:NE:9896, V-A:ALA:541:CB:4890, V-A:PRO:540:CA:4881, V-B:ARG:545:CD:9895, V-B:ARG:545:CG:9894, V-A:PRO:540:CB:4883, V-A:PRO:540:N:4882, V-A:LEU:363:CD1:3186, V-A:PRO:540:CG:4884, V-A:TYR:531:CE2:4791, V-A:PRO:540:CD:4885, V-A:TYR:531:CZ:4792, H-B:TYR:484:OH:9319, H-B:GLY:454:N:9021, V-B:TYR:484:CZ:9318, V-A:GLU:543:CB:4904, V-A:ASP:366:CB:3209, V-A:PRO:540:C:4879, H-A:TYR:539:N:4868, V-A:LEU:363:CA:3182, V-A:LEU:363:CB:3184, V-A:LEU:363:C:3180, V-A:ASN:362:CB:3173, H-A:ALA:541:N:4889, V-A:ALA:541:C:4886, V-A:LEU:363:CG:3185"]

$$$$
2g_Grossjean_2025
     RDKit          3D

 25 26  0  0  0  0  0  0  0  0999 V2000
  132.2980  131.3320   62.6630 C   0  0  0  0  0  0  0  0  0  0  0  0
  131.8200  131.6280   61.2540 C   0  0  0  0  0  0  0  0  0  0  0  0
  132.6490  131.4480   60.1500 C   0  0  0  0  0  0  0  0  0  0  0  0
  132.1620  131.7440   58.8670 C   0  0  0  0  0  0  0  0  0  0  0  0
  133.0970  131.5470   57.6570 C   0  0  0  0  0  0  0  0  0  0  0  0
  133.3090  132.7120   57.0420 F   0  0  0  0  0  0  0  0  0  0  0  0
  134.2680  131.0550   58.0660 F   0  0  0  0  0  0  0  0  0  0  0  0
  132.5990  130.7030   56.7510 F   0  0  0  0  0  0  0  0  0  0  0  0
  130.8290  132.2100   58.7370 C   0  0  0  0  0  0  0  0  0  0  0  0
  130.2910  132.5870   57.4280 C   0  0  0  0  0  0  0  0  0  0  0  0
  129.8670  132.8840   56.3930 N   0  0  0  0  0  0  0  0  0  0  0  0
  130.0500  132.3330   59.9140 C   0  0  0  0  0  0  0  0  0  0  0  0
  128.3560  132.8790   59.9300 S   0  0  0  0  0  0  0  0  0  0  0  0
  127.3540  131.5340   60.6490 C   0  0  0  0  0  0  0  0  0  0  0  0
  126.8890  131.7790   62.0910 C   0  0  0  0  0  0  0  0  0  0  0  0
  125.6950  131.9000   62.3690 O   0  0  0  0  0  0  0  0  0  0  0  0
  127.8700  131.8580   63.0090 N   0  0  0  0  0  0  0  0  0  0  0  0
  127.6760  132.0780   64.4430 C   0  0  0  0  0  0  0  0  0  0  0  0
  126.9600  130.9390   65.1620 C   0  0  0  0  0  0  0  0  0  0  0  0
  125.6440  130.6170   64.8170 C   0  0  0  0  0  0  0  0  0  0  0  0
  125.0010  129.5530   65.4460 C   0  0  0  0  0  0  0  0  0  0  0  0
  125.6790  128.8090   66.4080 C   0  0  0  0  0  0  0  0  0  0  0  0
  126.9960  129.1170   66.7470 C   0  0  0  0  0  0  0  0  0  0  0  0
  127.6390  130.1800   66.1190 C   0  0  0  0  0  0  0  0  0  0  0  0
  130.5450  132.0650   61.1480 N   0  0  0  0  0  0  0  0  0  0  0  0
  1  2  1  0
  2  3  2  0
  3  4  1  0
  4  5  1  0
  5  6  1  0
  5  7  1  0
  5  8  1  0
  4  9  2  0
  9 10  1  0
 10 11  3  0
  9 12  1  0
 12 13  1  0
 13 14  1  0
 14 15  1  0
 15 16  2  0
 15 17  1  0
 17 18  1  0
 18 19  1  0
 19 20  2  0
 20 21  1  0
 21 22  2  0
 22 23  1  0
 23 24  2  0
 12 25  2  0
 25  2  1  0
 24 19  1  0
M  END
>  <Binding energies>  (23) 
[-7.0]

>  <Ligand effiencies>  (23) 
[-0.2692307692307692]

>  <Interactions>  (23) 
["V-B:HIS:456:CE1:9040, V-A:ARG:545:CZ:4924, V-B:ARG:545:CZ:9898, V-A:ASP:366:CG:3210, H-A:GLU:543:OE1:4907, V-A:GLU:543:CD:4906, V-A:TYR:539:CE1:4873, V-A:TYR:539:C:4865, V-A:ALA:541:CB:4890, V-A:PRO:540:CA:4881, V-B:ARG:545:CD:9895, V-B:ARG:545:CG:9894, V-A:PRO:540:CB:4883, V-A:PRO:540:N:4882, V-A:LEU:363:CD1:3186, V-A:PRO:540:CG:4884, V-A:TYR:531:CE2:4791, V-A:PRO:540:CD:4885, V-A:TYR:531:CZ:4792, V-B:TYR:484:CZ:9318, V-A:GLU:543:CB:4904, V-B:TYR:484:CE2:9317, V-A:ASP:366:CB:3209, V-A:PRO:540:C:4879, H-A:TYR:539:N:4868, V-A:LEU:363:CA:3182, V-A:LEU:363:CB:3184, V-A:LEU:363:C:3180, V-A:GLU:543:CG:4905, V-A:ASN:362:CB:3173, H-A:ALA:541:N:4889, V-A:ASN:362:C:3169, V-A:ALA:541:C:4886, V-A:LEU:363:CG:3185"]

$$$$
2h_Grossjean_2025
     RDKit          3D

 31 32  0  0  0  0  0  0  0  0999 V2000
  128.3810  132.4410   55.4530 C   0  0  0  0  0  0  0  0  0  0  0  0
  129.3120  133.2400   56.1760 O   0  0  0  0  0  0  0  0  0  0  0  0
  129.8820  132.7380   57.3320 C   0  0  0  0  0  0  0  0  0  0  0  0
  129.1650  132.4850   58.5130 C   0  0  0  0  0  0  0  0  0  0  0  0
  129.8070  131.9710   59.6370 C   0  0  0  0  0  0  0  0  0  0  0  0
  131.1760  131.6990   59.6090 C   0  0  0  0  0  0  0  0  0  0  0  0
  131.8540  131.1160   60.8470 C   0  0  0  0  0  0  0  0  0  0  0  0
  131.4560  129.7390   61.1420 N   0  0  0  0  0  0  0  0  0  0  0  0
  130.2480  129.3680   61.6020 C   0  0  0  0  0  0  0  0  0  0  0  0
  129.3640  130.1730   61.9050 O   0  0  0  0  0  0  0  0  0  0  0  0
  130.0210  127.8550   61.7230 C   0  0  0  0  0  0  0  0  0  0  0  0
  131.1760  126.8230   60.7590 S   0  0  0  0  0  0  0  0  0  0  0  0
  130.7200  127.0010   59.0490 C   0  0  0  0  0  0  0  0  0  0  0  0
  129.8440  128.0110   58.8200 N   0  0  0  0  0  0  0  0  0  0  0  0
  129.4160  128.2230   57.5560 C   0  0  0  0  0  0  0  0  0  0  0  0
  128.4320  129.3640   57.3760 C   0  0  0  0  0  0  0  0  0  0  0  0
  129.8410  127.4510   56.4770 C   0  0  0  0  0  0  0  0  0  0  0  0
  130.7630  126.4150   56.6910 C   0  0  0  0  0  0  0  0  0  0  0  0
  131.2290  125.5770   55.4850 C   0  0  0  0  0  0  0  0  0  0  0  0
  132.5470  125.3840   55.5470 F   0  0  0  0  0  0  0  0  0  0  0  0
  130.6500  124.3740   55.4370 F   0  0  0  0  0  0  0  0  0  0  0  0
  130.9370  126.2090   54.3480 F   0  0  0  0  0  0  0  0  0  0  0  0
  131.2280  126.1840   58.0110 C   0  0  0  0  0  0  0  0  0  0  0  0
  132.2350  125.1530   58.2780 C   0  0  0  0  0  0  0  0  0  0  0  0
  133.0320  124.3410   58.4860 N   0  0  0  0  0  0  0  0  0  0  0  0
  131.9090  131.9690   58.4440 C   0  0  0  0  0  0  0  0  0  0  0  0
  133.2590  131.7070   58.4090 O   0  0  0  0  0  0  0  0  0  0  0  0
  133.6440  130.7450   57.4350 C   0  0  0  0  0  0  0  0  0  0  0  0
  131.2560  132.4700   57.3040 C   0  0  0  0  0  0  0  0  0  0  0  0
  131.9690  132.7180   56.1550 O   0  0  0  0  0  0  0  0  0  0  0  0
  131.7880  131.7440   55.1370 C   0  0  0  0  0  0  0  0  0  0  0  0
  1  2  1  0
  2  3  1  0
  3  4  2  0
  4  5  1  0
  5  6  2  0
  6  7  1  0
  7  8  1  0
  8  9  1  0
  9 10  2  0
  9 11  1  0
 11 12  1  0
 12 13  1  0
 13 14  2  0
 14 15  1  0
 15 16  1  0
 15 17  2  0
 17 18  1  0
 18 19  1  0
 19 20  1  0
 19 21  1  0
 19 22  1  0
 18 23  2  0
 23 24  1  0
 24 25  3  0
  6 26  1  0
 26 27  1  0
 27 28  1  0
 26 29  2  0
 29 30  1  0
 30 31  1  0
 29  3  1  0
 23 13  1  0
M  END
>  <Binding energies>  (24) 
[-6.36]

>  <Ligand effiencies>  (24) 
[-0.19875]

>  <Interactions>  (24) 
["V-B:TYR:539:CE1:9847, H-A:ASP:366:OD2:3212, H-A:ASP:366:OD1:3211, V-A:ASP:366:CG:3210, V-A:GLU:543:CD:4906, H-A:ARG:545:NH2:4926, V-A:TYR:539:CE1:4873, V-A:TYR:539:C:4865, V-A:PRO:540:CA:4881, V-A:TYR:539:CD1:4871, V-A:PRO:540:CB:4883, V-A:PRO:540:N:4882, V-A:LEU:363:CD1:3186, V-A:TYR:539:CA:4867, V-A:ILE:538:CA:4858, V-B:TYR:539:CE2:9848, V-A:ILE:538:CB:4860, V-A:MET:535:CG:4831, V-A:MET:535:CE:4833, V-B:TYR:539:CZ:9849, V-A:ILE:538:CG2:4861, V-A:TYR:531:CE2:4791, V-A:PRO:540:CD:4885, V-A:TYR:531:CZ:4792, V-B:MET:535:CE:9807, V-A:TYR:539:CD2:4872, V-A:TYR:539:CE2:4874, V-A:TYR:539:CZ:4875, V-A:ASP:366:CB:3209, H-B:TYR:539:OH:9850, V-A:ASN:370:CG:3243, V-A:ASN:370:CB:3242, V-A:TYR:531:CE1:4790, H-A:TYR:539:N:4868, V-A:LEU:363:CA:3182"]

$$$$
2i_Grossjean_2025
     RDKit          3D

 23 24  0  0  0  0  0  0  0  0999 V2000
  132.5970  131.3650   62.6150 C   0  0  0  0  0  0  0  0  0  0  0  0
  131.9680  131.6780   61.2700 C   0  0  0  0  0  0  0  0  0  0  0  0
  132.6810  131.5410   60.0820 C   0  0  0  0  0  0  0  0  0  0  0  0
  132.0540  131.8400   58.8630 C   0  0  0  0  0  0  0  0  0  0  0  0
  132.8580  131.6830   57.5580 C   0  0  0  0  0  0  0  0  0  0  0  0
  133.1340  132.8840   57.0460 F   0  0  0  0  0  0  0  0  0  0  0  0
  134.0020  131.0420   57.7990 F   0  0  0  0  0  0  0  0  0  0  0  0
  132.1990  130.9920   56.6250 F   0  0  0  0  0  0  0  0  0  0  0  0
  130.7050  132.2760   58.8850 C   0  0  0  0  0  0  0  0  0  0  0  0
  130.0010  132.6010   57.6400 C   0  0  0  0  0  0  0  0  0  0  0  0
  129.4440  132.8580   56.6580 N   0  0  0  0  0  0  0  0  0  0  0  0
  130.0570  132.3900   60.1360 C   0  0  0  0  0  0  0  0  0  0  0  0
  128.3640  132.9360   60.2870 S   0  0  0  0  0  0  0  0  0  0  0  0
  127.3360  131.4880   60.6770 C   0  0  0  0  0  0  0  0  0  0  0  0
  126.9580  131.4270   62.1580 C   0  0  0  0  0  0  0  0  0  0  0  0
  127.3200  132.3360   62.9070 O   0  0  0  0  0  0  0  0  0  0  0  0
  126.2590  130.3370   62.5430 N   0  0  0  0  0  0  0  0  0  0  0  0
  125.8190  130.0460   63.8230 C   0  0  0  0  0  0  0  0  0  0  0  0
  126.5250  129.5580   64.9320 C   0  0  0  0  0  0  0  0  0  0  0  0
  125.5850  129.4640   65.9320 C   0  0  0  0  0  0  0  0  0  0  0  0
  124.3870  129.8780   65.4540 O   0  0  0  0  0  0  0  0  0  0  0  0
  124.5530  130.2480   64.1180 N   0  0  0  0  0  0  0  0  0  0  0  0
  130.6820  132.0930   61.3050 N   0  0  0  0  0  0  0  0  0  0  0  0
  1  2  1  0
  2  3  2  0
  3  4  1  0
  4  5  1  0
  5  6  1  0
  5  7  1  0
  5  8  1  0
  4  9  2  0
  9 10  1  0
 10 11  3  0
  9 12  1  0
 12 13  1  0
 13 14  1  0
 14 15  1  0
 15 16  2  0
 15 17  1  0
 17 18  1  0
 18 19  1  0
 19 20  2  0
 20 21  1  0
 21 22  1  0
 12 23  2  0
 23  2  1  0
 22 18  2  0
M  END
>  <Binding energies>  (25) 
[-7.47]

>  <Ligand effiencies>  (25) 
[-0.31124999999999997]

>  <Interactions>  (25) 
["V-B:HIS:456:CE1:9040, H-B:ASP:366:OD1:8185, V-A:ARG:545:CZ:4924, V-B:ARG:545:CZ:9898, V-A:ASP:366:CG:3210, V-A:GLU:543:CD:4906, V-A:TYR:539:CE1:4873, V-A:TYR:539:C:4865, H-B:ARG:545:NE:9896, V-A:PRO:540:CA:4881, V-B:ARG:545:CD:9895, V-B:ARG:545:CG:9894, V-A:PRO:540:CB:4883, V-A:PRO:540:N:4882, V-A:LEU:363:CD1:3186, V-A:ILE:538:CB:4860, V-A:PRO:540:CG:4884, V-A:TYR:531:CE2:4791, V-A:PRO:540:CD:4885, V-A:TYR:531:CZ:4792, H-B:TYR:484:OH:9319, H-B:GLY:454:N:9021, V-A:ASP:366:CB:3209, V-A:PRO:540:C:4879, H-A:TYR:539:N:4868, V-A:LEU:363:CA:3182, V-A:LEU:363:CB:3184, V-A:LEU:363:C:3180, V-A:ASN:362:CB:3173, H-A:ALA:541:N:4889, V-A:ALA:541:C:4886"]

$$$$
2k_Grossjean_2025
     RDKit          3D

 28 28  0  0  0  0  0  0  0  0999 V2000
  132.8080  119.0310   60.7040 C   0  0  0  0  0  0  0  0  0  0  0  0
  133.2290  120.3430   60.3660 O   0  0  0  0  0  0  0  0  0  0  0  0
  133.6040  121.1260   61.4920 C   0  0  0  0  0  0  0  0  0  0  0  0
  133.9350  122.5550   61.0430 C   0  0  0  0  0  0  0  0  0  0  0  0
  132.7280  123.2950   60.9280 O   0  0  0  0  0  0  0  0  0  0  0  0
  132.8030  124.6190   61.4440 C   0  0  0  0  0  0  0  0  0  0  0  0
  133.8890  124.6560   62.5280 C   0  0  0  0  0  0  0  0  0  0  0  0
  133.2520  124.4980   63.7860 O   0  0  0  0  0  0  0  0  0  0  0  0
  132.1860  125.4010   64.0410 C   0  0  0  0  0  0  0  0  0  0  0  0
  131.0090  124.6230   64.6590 C   0  0  0  0  0  0  0  0  0  0  0  0
  130.3120  123.7760   63.6880 N   0  0  0  0  0  0  0  0  0  0  0  0
  130.7530  122.5920   63.2210 C   0  0  0  0  0  0  0  0  0  0  0  0
  131.8050  122.0670   63.5920 O   0  0  0  0  0  0  0  0  0  0  0  0
  129.8680  121.9220   62.1600 C   0  0  0  0  0  0  0  0  0  0  0  0
  129.6140  122.8860   60.6300 S   0  0  0  0  0  0  0  0  0  0  0  0
  127.8640  123.1380   60.3690 C   0  0  0  0  0  0  0  0  0  0  0  0
  127.1190  123.3060   61.4920 N   0  0  0  0  0  0  0  0  0  0  0  0
  125.7870  123.4970   61.3700 C   0  0  0  0  0  0  0  0  0  0  0  0
  125.0250  123.6650   62.6700 C   0  0  0  0  0  0  0  0  0  0  0  0
  125.1440  123.5400   60.1360 C   0  0  0  0  0  0  0  0  0  0  0  0
  125.8950  123.3770   58.9620 C   0  0  0  0  0  0  0  0  0  0  0  0
  125.1680  123.4330   57.6040 C   0  0  0  0  0  0  0  0  0  0  0  0
  125.6560  124.3750   56.7950 F   0  0  0  0  0  0  0  0  0  0  0  0
  125.2870  122.2630   56.9740 F   0  0  0  0  0  0  0  0  0  0  0  0
  123.8740  123.6940   57.7890 F   0  0  0  0  0  0  0  0  0  0  0  0
  127.2930  123.1680   59.0750 C   0  0  0  0  0  0  0  0  0  0  0  0
  128.1250  122.9870   57.8810 C   0  0  0  0  0  0  0  0  0  0  0  0
  128.7820  122.8460   56.9380 N   0  0  0  0  0  0  0  0  0  0  0  0
  1  2  1  0
  2  3  1  0
  3  4  1  0
  4  5  1  0
  5  6  1  0
  6  7  1  0
  7  8  1  0
  8  9  1  0
  9 10  1  0
 10 11  1  0
 11 12  1  0
 12 13  2  0
 12 14  1  0
 14 15  1  0
 15 16  1  0
 16 17  2  0
 17 18  1  0
 18 19  1  0
 18 20  2  0
 20 21  1  0
 21 22  1  0
 22 23  1  0
 22 24  1  0
 22 25  1  0
 21 26  2  0
 26 27  1  0
 27 28  3  0
 26 16  1  0
M  END
>  <Binding energies>  (26) 
[-6.07]

>  <Ligand effiencies>  (26) 
[-0.2093103448275862]

>  <Interactions>  (26) 
["V-A:LEU:475:CD2:4256, H-A:TYR:484:OH:4345, V-B:TYR:539:CD1:9845, V-B:TYR:539:C:9839, V-B:PRO:540:C:9853, V-B:TYR:539:CE1:9847, V-B:GLU:543:CD:9880, V-B:PRO:540:CB:9857, V-A:ARG:545:CZ:4924, V-B:PRO:540:CA:9855, V-B:ALA:541:CB:9864, V-B:ARG:545:CZ:9898, V-B:ASN:362:CB:8147, H-B:GLU:543:OE1:9881, V-B:PRO:540:N:9856, V-A:GLY:453:CA:4041, V-A:ILE:369:CD1:3236, V-A:GLY:453:C:4039, V-B:ILE:538:CB:9834, V-B:PRO:540:CD:9859, V-B:ILE:538:CG2:9835, V-A:ILE:369:CG2:3234, V-A:LEU:373:CD1:3277, V-A:SER:385:CA:3404, V-A:SER:385:CB:3406, V-B:TYR:531:CZ:9766, H-B:ALA:541:N:9863, V-B:TYR:531:CE2:9765, V-B:PRO:540:CG:9858, V-B:LEU:363:CD1:8160, H-A:GLY:454:N:4047, V-B:ALA:541:C:9860, V-B:LEU:363:CA:8156, V-B:LEU:363:CB:8158"]

$$$$
3aa_Grossjean_2025
     RDKit          3D

 34 36  0  0  0  0  0  0  0  0999 V2000
  124.5450  122.9990   57.3720 C   0  0  0  0  0  0  0  0  0  0  0  0
  125.5470  122.8810   56.2190 C   0  0  0  0  0  0  0  0  0  0  0  0
  126.7540  122.3000   56.6980 O   0  0  0  0  0  0  0  0  0  0  0  0
  127.8330  123.0710   56.9900 C   0  0  0  0  0  0  0  0  0  0  0  0
  128.9800  122.8050   56.6200 O   0  0  0  0  0  0  0  0  0  0  0  0
  127.4940  124.2740   57.8240 C   0  0  0  0  0  0  0  0  0  0  0  0
  127.2160  124.1730   59.1950 C   0  0  0  0  0  0  0  0  0  0  0  0
  126.9100  125.3090   59.9400 C   0  0  0  0  0  0  0  0  0  0  0  0
  126.8830  126.5660   59.3340 C   0  0  0  0  0  0  0  0  0  0  0  0
  126.5670  127.6500   60.1780 N   0  0  0  0  0  0  0  0  0  0  0  0
  127.3840  128.4400   60.9070 C   0  0  0  0  0  0  0  0  0  0  0  0
  128.6090  128.3280   60.9800 O   0  0  0  0  0  0  0  0  0  0  0  0
  126.6930  129.5470   61.7040 C   0  0  0  0  0  0  0  0  0  0  0  0
  127.1260  131.1990   61.0800 S   0  0  0  0  0  0  0  0  0  0  0  0
  127.6090  131.0040   59.3790 C   0  0  0  0  0  0  0  0  0  0  0  0
  128.9130  131.2860   59.1490 N   0  0  0  0  0  0  0  0  0  0  0  0
  129.4130  131.1800   57.8900 C   0  0  0  0  0  0  0  0  0  0  0  0
  130.8680  131.4940   57.7190 C   0  0  0  0  0  0  0  0  0  0  0  0
  131.8060  131.0850   58.6810 C   0  0  0  0  0  0  0  0  0  0  0  0
  133.1600  131.3730   58.5290 C   0  0  0  0  0  0  0  0  0  0  0  0
  133.5950  132.0750   57.4100 C   0  0  0  0  0  0  0  0  0  0  0  0
  132.6860  132.4890   56.4420 C   0  0  0  0  0  0  0  0  0  0  0  0
  131.3340  132.1980   56.5950 C   0  0  0  0  0  0  0  0  0  0  0  0
  128.6010  130.7740   56.8270 C   0  0  0  0  0  0  0  0  0  0  0  0
  127.2420  130.4940   57.0380 C   0  0  0  0  0  0  0  0  0  0  0  0
  126.3770  130.0610   55.8380 C   0  0  0  0  0  0  0  0  0  0  0  0
  125.0690  130.2000   56.0650 F   0  0  0  0  0  0  0  0  0  0  0  0
  126.6750  130.7980   54.7670 F   0  0  0  0  0  0  0  0  0  0  0  0
  126.6020  128.7780   55.5560 F   0  0  0  0  0  0  0  0  0  0  0  0
  126.7210  130.6230   58.3480 C   0  0  0  0  0  0  0  0  0  0  0  0
  125.2980  130.3990   58.6170 C   0  0  0  0  0  0  0  0  0  0  0  0
  124.1730  130.2220   58.8290 N   0  0  0  0  0  0  0  0  0  0  0  0
  127.1470  126.6730   57.9600 C   0  0  0  0  0  0  0  0  0  0  0  0
  127.4500  125.5360   57.2180 C   0  0  0  0  0  0  0  0  0  0  0  0
  1  2  1  0
  2  3  1  0
  3  4  1  0
  4  5  2  0
  4  6  1  0
  6  7  2  0
  7  8  1  0
  8  9  2  0
  9 10  1  0
 10 11  1  0
 11 12  2  0
 11 13  1  0
 13 14  1  0
 14 15  1  0
 15 16  2  0
 16 17  1  0
 17 18  1  0
 18 19  2  0
 19 20  1  0
 20 21  2  0
 21 22  1  0
 22 23  2  0
 17 24  2  0
 24 25  1  0
 25 26  1  0
 26 27  1  0
 26 28  1  0
 26 29  1  0
 25 30  2  0
 30 31  1  0
 31 32  3  0
  9 33  1  0
 33 34  2  0
 34  6  1  0
 30 15  1  0
 23 18  1  0
M  END
>  <Binding energies>  (27) 
[-7.68]

>  <Ligand effiencies>  (27) 
[-0.21942857142857142]

>  <Interactions>  (27) 
["V-B:ASP:366:CG:8184, V-B:PRO:540:CB:9857, H-B:ASP:366:OD1:8185, V-B:PRO:540:CA:9855, H-B:ASP:366:OD2:8186, V-A:ASP:366:CG:3210, V-B:ASP:366:CB:8183, V-B:PRO:540:N:9856, V-A:TYR:539:CE1:4873, V-A:PRO:540:CA:4881, V-A:PRO:540:CB:4883, V-A:LEU:363:CD1:3186, V-A:ILE:538:CB:4860, V-B:ILE:538:CB:9834, H-B:TYR:539:N:9842, V-A:MET:535:CE:4833, V-B:PRO:540:CD:9859, V-A:PRO:540:CG:4884, V-A:ILE:538:CG2:4861, V-B:ILE:538:CG2:9835, V-A:TYR:531:CE2:4791, V-A:PRO:540:CD:4885, V-B:ILE:538:CA:9832, V-B:MET:535:CE:9807, V-B:TYR:531:CZ:9766, V-A:TYR:539:CE2:4874, V-B:TYR:531:CE1:9764, V-A:TYR:539:CZ:4875, V-B:ASN:370:CG:8217, V-B:PRO:540:CG:9858, V-B:LEU:363:CD1:8160, H-A:TYR:539:OH:4876, V-A:LEU:363:CA:3182, V-A:LEU:363:CB:3184, V-B:ASN:370:CB:8216, V-A:LEU:363:CG:3185"]

$$$$
3ad_Grossjean_2025
     RDKit          3D

 29 31  0  0  0  0  0  0  0  0999 V2000
  130.7750  125.8840   62.1520 N   0  0  0  0  0  0  0  0  0  0  0  0
  130.9650  124.7610   61.9440 C   0  0  0  0  0  0  0  0  0  0  0  0
  131.2100  123.3400   61.6800 C   0  0  0  0  0  0  0  0  0  0  0  0
  132.5310  122.8430   61.5610 C   0  0  0  0  0  0  0  0  0  0  0  0
  133.7750  123.7340   61.7420 C   0  0  0  0  0  0  0  0  0  0  0  0
  133.5610  124.7620   62.5650 F   0  0  0  0  0  0  0  0  0  0  0  0
  134.7790  123.0150   62.2490 F   0  0  0  0  0  0  0  0  0  0  0  0
  134.1540  124.2360   60.5660 F   0  0  0  0  0  0  0  0  0  0  0  0
  132.7100  121.4840   61.2620 C   0  0  0  0  0  0  0  0  0  0  0  0
  131.6040  120.6460   61.0830 C   0  0  0  0  0  0  0  0  0  0  0  0
  131.7390  119.1910   60.7470 C   0  0  0  0  0  0  0  0  0  0  0  0
  130.6020  118.3890   60.5620 C   0  0  0  0  0  0  0  0  0  0  0  0
  130.7190  117.0380   60.2490 C   0  0  0  0  0  0  0  0  0  0  0  0
  131.9820  116.4680   60.1160 C   0  0  0  0  0  0  0  0  0  0  0  0
  133.1240  117.2410   60.2920 C   0  0  0  0  0  0  0  0  0  0  0  0
  133.0020  118.5930   60.6040 C   0  0  0  0  0  0  0  0  0  0  0  0
  130.3410  121.1290   61.1920 N   0  0  0  0  0  0  0  0  0  0  0  0
  130.1420  122.4320   61.5000 C   0  0  0  0  0  0  0  0  0  0  0  0
  128.4260  122.8850   61.6140 S   0  0  0  0  0  0  0  0  0  0  0  0
  127.7000  122.6690   59.9620 C   0  0  0  0  0  0  0  0  0  0  0  0
  128.6910  123.0080   58.8460 C   0  0  0  0  0  0  0  0  0  0  0  0
  128.6770  122.3420   57.8110 O   0  0  0  0  0  0  0  0  0  0  0  0
  129.5210  124.0420   59.1030 N   0  0  0  0  0  0  0  0  0  0  0  0
  130.5250  124.6120   58.2990 C   0  0  0  0  0  0  0  0  0  0  0  0
  130.1290  124.9900   57.0120 C   0  0  0  0  0  0  0  0  0  0  0  0
  131.0460  125.5600   56.1330 C   0  0  0  0  0  0  0  0  0  0  0  0
  132.3640  125.7500   56.5380 C   0  0  0  0  0  0  0  0  0  0  0  0
  132.7740  125.3720   57.8140 C   0  0  0  0  0  0  0  0  0  0  0  0
  131.8600  124.8000   58.6960 C   0  0  0  0  0  0  0  0  0  0  0  0
  1  2  3  0
  2  3  1  0
  3  4  2  0
  4  5  1  0
  5  6  1  0
  5  7  1  0
  5  8  1  0
  4  9  1  0
  9 10  2  0
 10 11  1  0
 11 12  2  0
 12 13  1  0
 13 14  2  0
 14 15  1  0
 15 16  2  0
 10 17  1  0
 17 18  2  0
 18 19  1  0
 19 20  1  0
 20 21  1  0
 21 22  2  0
 21 23  1  0
 23 24  1  0
 24 25  2  0
 25 26  1  0
 26 27  2  0
 27 28  1  0
 28 29  2  0
 18  3  1  0
 29 24  1  0
 16 11  1  0
M  END
>  <Binding energies>  (28) 
[-7.34]

>  <Ligand effiencies>  (28) 
[-0.24466666666666667]

>  <Interactions>  (28) 
["V-A:LEU:475:CD2:4256, V-A:GLY:454:CA:4046, V-B:TYR:539:CD1:9845, V-B:TYR:539:C:9839, V-B:PRO:540:C:9853, V-B:TYR:539:CE1:9847, V-A:ARG:545:CZ:4924, V-B:PRO:540:CA:9855, V-B:ALA:541:CB:9864, V-A:ASP:366:CG:3210, V-B:PRO:540:N:9856, V-A:GLY:453:CA:4041, H-A:ARG:545:NH2:4926, V-A:ILE:369:CD1:3236, V-A:GLY:453:C:4039, V-B:TYR:539:CG:9844, H-B:TYR:539:N:9842, V-B:TYR:539:CZ:9849, V-A:TYR:531:CZ:4792, V-B:MET:535:CE:9807, V-A:ILE:369:CG2:3234, V-A:LEU:373:CD1:3277, V-A:PRO:482:CG:4324, V-A:SER:385:CA:3404, V-A:SER:385:CB:3406, V-A:PRO:482:CB:4323, H-B:ALA:541:N:9863, V-A:ASP:366:CB:3209, V-A:ASP:366:CA:3207, V-A:TYR:531:CE1:4790, V-B:TYR:539:CB:9843, V-B:VAL:344:CG1:7972"]

$$$$
3ai_Grossjean_2025
     RDKit          3D

 28 30  0  0  0  0  0  0  0  0999 V2000
  133.9630  123.9720   58.7870 N   0  0  0  0  0  0  0  0  0  0  0  0
  132.8580  123.8990   59.1220 C   0  0  0  0  0  0  0  0  0  0  0  0
  131.4580  123.8070   59.5490 C   0  0  0  0  0  0  0  0  0  0  0  0
  131.0390  122.7890   60.4400 C   0  0  0  0  0  0  0  0  0  0  0  0
  132.0130  121.7600   61.0440 C   0  0  0  0  0  0  0  0  0  0  0  0
  132.7110  122.2490   62.0720 F   0  0  0  0  0  0  0  0  0  0  0  0
  131.3370  120.6980   61.4860 F   0  0  0  0  0  0  0  0  0  0  0  0
  132.8900  121.3610   60.1220 F   0  0  0  0  0  0  0  0  0  0  0  0
  129.6790  122.7140   60.7800 C   0  0  0  0  0  0  0  0  0  0  0  0
  128.7650  123.6260   60.2440 C   0  0  0  0  0  0  0  0  0  0  0  0
  127.3010  123.5860   60.5640 C   0  0  0  0  0  0  0  0  0  0  0  0
  126.8590  123.5480   61.8970 C   0  0  0  0  0  0  0  0  0  0  0  0
  125.5020  123.5150   62.2020 C   0  0  0  0  0  0  0  0  0  0  0  0
  124.5630  123.5210   61.1750 C   0  0  0  0  0  0  0  0  0  0  0  0
  124.9740  123.5610   59.8460 C   0  0  0  0  0  0  0  0  0  0  0  0
  126.3330  123.5940   59.5450 C   0  0  0  0  0  0  0  0  0  0  0  0
  129.1700  124.5950   59.3840 N   0  0  0  0  0  0  0  0  0  0  0  0
  130.4810  124.7030   59.0590 C   0  0  0  0  0  0  0  0  0  0  0  0
  130.8260  126.0440   57.9390 S   0  0  0  0  0  0  0  0  0  0  0  0
  130.9100  125.3550   56.2510 C   0  0  0  0  0  0  0  0  0  0  0  0
  129.8100  124.3400   55.9090 C   0  0  0  0  0  0  0  0  0  0  0  0
  129.9770  123.5060   55.0150 O   0  0  0  0  0  0  0  0  0  0  0  0
  128.6870  124.4520   56.6540 N   0  0  0  0  0  0  0  0  0  0  0  0
  127.5410  123.6730   56.5710 C   0  0  0  0  0  0  0  0  0  0  0  0
  126.2930  124.1860   56.2210 C   0  0  0  0  0  0  0  0  0  0  0  0
  125.4390  123.1090   56.2560 C   0  0  0  0  0  0  0  0  0  0  0  0
  126.1350  122.0020   56.6090 O   0  0  0  0  0  0  0  0  0  0  0  0
  127.4670  122.3720   56.8050 N   0  0  0  0  0  0  0  0  0  0  0  0
  1  2  3  0
  2  3  1  0
  3  4  2  0
  4  5  1  0
  5  6  1  0
  5  7  1  0
  5  8  1  0
  4  9  1  0
  9 10  2  0
 10 11  1  0
 11 12  2  0
 12 13  1  0
 13 14  2  0
 14 15  1  0
 15 16  2  0
 10 17  1  0
 17 18  2  0
 18 19  1  0
 19 20  1  0
 20 21  1  0
 21 22  2  0
 21 23  1  0
 23 24  1  0
 24 25  1  0
 25 26  2  0
 26 27  1  0
 27 28  1  0
 18  3  1  0
 28 24  2  0
 16 11  1  0
M  END
>  <Binding energies>  (29) 
[-7.79]

>  <Ligand effiencies>  (29) 
[-0.26862068965517244]

>  <Interactions>  (29) 
["V-A:LEU:475:CD2:4256, V-B:TYR:539:CD1:9845, V-B:PRO:540:C:9853, V-B:TYR:539:CE1:9847, V-B:GLU:543:CD:9880, V-B:PRO:540:CB:9857, V-B:PRO:540:CA:9855, V-B:ASN:362:CB:8147, V-B:PRO:540:N:9856, V-B:TYR:539:CE2:9848, V-B:ILE:538:CB:9834, H-B:TYR:539:N:9842, V-B:TYR:539:CZ:9849, V-B:ILE:538:CG2:9835, V-B:MET:535:CE:9807, V-A:ILE:369:CG2:3234, V-B:TYR:531:CZ:9766, H-A:ASN:370:ND2:3245, V-B:TYR:531:CE2:9765, H-B:TYR:539:OH:9850, V-B:LEU:363:CD1:8160"]

$$$$
3aj_Grossjean_2025
     RDKit          3D

 28 30  0  0  0  0  0  0  0  0999 V2000
  133.6870  123.9100   58.8430 N   0  0  0  0  0  0  0  0  0  0  0  0
  132.5960  123.8530   59.2240 C   0  0  0  0  0  0  0  0  0  0  0  0
  131.2140  123.7810   59.7090 C   0  0  0  0  0  0  0  0  0  0  0  0
  130.8720  122.9410   60.7970 C   0  0  0  0  0  0  0  0  0  0  0  0
  131.9150  122.0990   61.5570 C   0  0  0  0  0  0  0  0  0  0  0  0
  131.4510  121.6260   62.7170 F   0  0  0  0  0  0  0  0  0  0  0  0
  132.2850  121.0540   60.8160 F   0  0  0  0  0  0  0  0  0  0  0  0
  132.9890  122.8390   61.8300 F   0  0  0  0  0  0  0  0  0  0  0  0
  129.5270  122.8710   61.1920 C   0  0  0  0  0  0  0  0  0  0  0  0
  128.5520  123.6140   60.5180 C   0  0  0  0  0  0  0  0  0  0  0  0
  127.1020  123.5690   60.8920 C   0  0  0  0  0  0  0  0  0  0  0  0
  126.7100  123.5530   62.2400 C   0  0  0  0  0  0  0  0  0  0  0  0
  125.3640  123.5150   62.5950 C   0  0  0  0  0  0  0  0  0  0  0  0
  124.3890  123.4910   61.6020 C   0  0  0  0  0  0  0  0  0  0  0  0
  124.7520  123.5070   60.2600 C   0  0  0  0  0  0  0  0  0  0  0  0
  126.0980  123.5470   59.9100 C   0  0  0  0  0  0  0  0  0  0  0  0
  128.8840  124.4120   59.4710 N   0  0  0  0  0  0  0  0  0  0  0  0
  130.1790  124.5150   59.0860 C   0  0  0  0  0  0  0  0  0  0  0  0
  130.4250  125.6220   57.7140 S   0  0  0  0  0  0  0  0  0  0  0  0
  130.4410  124.6240   56.1860 C   0  0  0  0  0  0  0  0  0  0  0  0
  129.1660  123.8070   55.9310 C   0  0  0  0  0  0  0  0  0  0  0  0
  129.1190  122.9790   55.0190 O   0  0  0  0  0  0  0  0  0  0  0  0
  128.1450  124.0770   56.7750 N   0  0  0  0  0  0  0  0  0  0  0  0
  126.8890  123.4830   56.7730 C   0  0  0  0  0  0  0  0  0  0  0  0
  126.5930  122.2200   56.5540 N   0  0  0  0  0  0  0  0  0  0  0  0
  125.2950  122.0040   56.6340 C   0  0  0  0  0  0  0  0  0  0  0  0
  124.5040  123.1120   56.9260 C   0  0  0  0  0  0  0  0  0  0  0  0
  125.5270  124.5060   57.0990 S   0  0  0  0  0  0  0  0  0  0  0  0
  1  2  3  0
  2  3  1  0
  3  4  2  0
  4  5  1  0
  5  6  1  0
  5  7  1  0
  5  8  1  0
  4  9  1  0
  9 10  2  0
 10 11  1  0
 11 12  2  0
 12 13  1  0
 13 14  2  0
 14 15  1  0
 15 16  2  0
 10 17  1  0
 17 18  2  0
 18 19  1  0
 19 20  1  0
 20 21  1  0
 21 22  2  0
 21 23  1  0
 23 24  1  0
 24 25  2  0
 25 26  1  0
 26 27  2  0
 27 28  1  0
 18  3  1  0
 28 24  1  0
 16 11  1  0
M  END
>  <Binding energies>  (30) 
[-7.02]

>  <Ligand effiencies>  (30) 
[-0.24206896551724136]

>  <Interactions>  (30) 
["V-A:LEU:475:CD2:4256, V-B:TYR:539:CD1:9845, V-B:TYR:539:C:9839, V-B:TYR:539:CE1:9847, V-B:GLU:543:CD:9880, V-B:PRO:540:CB:9857, V-B:PRO:540:CA:9855, V-B:ALA:541:CB:9864, V-B:ARG:545:CZ:9898, V-B:ASN:362:CB:8147, V-B:PRO:540:N:9856, V-B:TYR:539:CE2:9848, V-B:ILE:538:CB:9834, H-B:TYR:539:N:9842, V-B:PRO:540:CD:9859, V-B:TYR:539:CZ:9849, V-B:ILE:538:CG2:9835, V-B:ILE:538:CA:9832, V-B:MET:535:CE:9807, V-B:TYR:531:CZ:9766, V-B:TYR:531:CE2:9765, H-B:TYR:539:OH:9850, V-B:ILE:538:C:9830, V-B:PRO:540:CG:9858, V-B:ALA:541:CA:9862, V-B:LEU:363:CD1:8160, V-B:ASN:362:C:8143, V-B:ALA:541:C:9860"]

$$$$
3ak_Grossjean_2025
     RDKit          3D

 33 34  0  0  0  0  0  0  0  0999 V2000
  132.2210  132.5470   56.6410 C   0  0  0  0  0  0  0  0  0  0  0  0
  130.9810  133.1740   56.3530 O   0  0  0  0  0  0  0  0  0  0  0  0
  129.8870  132.2700   56.3120 C   0  0  0  0  0  0  0  0  0  0  0  0
  129.0750  132.4080   57.6050 C   0  0  0  0  0  0  0  0  0  0  0  0
  127.8390  131.7180   57.4530 O   0  0  0  0  0  0  0  0  0  0  0  0
  127.9420  130.3560   57.0440 C   0  0  0  0  0  0  0  0  0  0  0  0
  126.8110  129.9050   56.1020 C   0  0  0  0  0  0  0  0  0  0  0  0
  126.9220  128.5060   55.8770 O   0  0  0  0  0  0  0  0  0  0  0  0
  128.2530  128.0140   55.9500 C   0  0  0  0  0  0  0  0  0  0  0  0
  128.2950  126.7160   56.7770 C   0  0  0  0  0  0  0  0  0  0  0  0
  129.6400  126.3520   57.2270 N   0  0  0  0  0  0  0  0  0  0  0  0
  130.6970  126.0970   56.4320 C   0  0  0  0  0  0  0  0  0  0  0  0
  130.6390  126.1650   55.2040 O   0  0  0  0  0  0  0  0  0  0  0  0
  132.0350  125.7040   57.0820 C   0  0  0  0  0  0  0  0  0  0  0  0
  132.0400  125.5360   58.9050 S   0  0  0  0  0  0  0  0  0  0  0  0
  130.9380  124.2070   59.3610 C   0  0  0  0  0  0  0  0  0  0  0  0
  129.7670  124.1560   58.6790 N   0  0  0  0  0  0  0  0  0  0  0  0
  128.8600  123.1860   58.9590 C   0  0  0  0  0  0  0  0  0  0  0  0
  127.5940  123.2040   58.1550 C   0  0  0  0  0  0  0  0  0  0  0  0
  127.6120  122.9180   56.7820 C   0  0  0  0  0  0  0  0  0  0  0  0
  126.4380  122.9290   56.0310 C   0  0  0  0  0  0  0  0  0  0  0  0
  125.2280  123.2270   56.6480 C   0  0  0  0  0  0  0  0  0  0  0  0
  125.1820  123.5110   58.0080 C   0  0  0  0  0  0  0  0  0  0  0  0
  126.3570  123.4980   58.7560 C   0  0  0  0  0  0  0  0  0  0  0  0
  129.1230  122.2200   59.9360 C   0  0  0  0  0  0  0  0  0  0  0  0
  130.3260  122.2480   60.6550 C   0  0  0  0  0  0  0  0  0  0  0  0
  130.5790  121.1690   61.7260 C   0  0  0  0  0  0  0  0  0  0  0  0
  131.7520  120.5750   61.5080 F   0  0  0  0  0  0  0  0  0  0  0  0
  130.5920  121.7220   62.9390 F   0  0  0  0  0  0  0  0  0  0  0  0
  129.6430  120.2160   61.7320 F   0  0  0  0  0  0  0  0  0  0  0  0
  131.2630  123.2690   60.3650 C   0  0  0  0  0  0  0  0  0  0  0  0
  132.5380  123.3490   61.0860 C   0  0  0  0  0  0  0  0  0  0  0  0
  133.5440  123.4130   61.6550 N   0  0  0  0  0  0  0  0  0  0  0  0
  1  2  1  0
  2  3  1  0
  3  4  1  0
  4  5  1  0
  5  6  1  0
  6  7  1  0
  7  8  1  0
  8  9  1  0
  9 10  1  0
 10 11  1  0
 11 12  1  0
 12 13  2  0
 12 14  1  0
 14 15  1  0
 15 16  1  0
 16 17  2  0
 17 18  1  0
 18 19  1  0
 19 20  2  0
 20 21  1  0
 21 22  2  0
 22 23  1  0
 23 24  2  0
 18 25  2  0
 25 26  1  0
 26 27  1  0
 27 28  1  0
 27 29  1  0
 27 30  1  0
 26 31  2  0
 31 32  1  0
 32 33  3  0
 31 16  1  0
 24 19  1  0
M  END
>  <Binding energies>  (31) 
[-7.32]

>  <Ligand effiencies>  (31) 
[-0.21529411764705883]

>  <Interactions>  (31) 
["V-A:LEU:475:CD2:4256, V-B:TYR:539:CD1:9845, V-B:TYR:539:C:9839, V-B:PRO:540:C:9853, V-B:TYR:539:CE1:9847, V-B:PRO:540:CB:9857, V-B:PRO:540:CA:9855, V-B:ALA:541:CB:9864, V-B:PRO:540:N:9856, H-B:TYR:531:OH:9767, V-A:TYR:539:CE1:4873, V-A:TYR:539:C:4865, V-A:TYR:539:CD1:4871, V-A:PRO:540:CB:4883, V-A:PRO:540:N:4882, V-A:LEU:363:CD1:3186, V-A:ILE:538:CA:4858, V-A:TYR:539:CG:4870, V-A:ILE:538:CB:4860, V-B:ILE:538:CB:9834, V-A:MET:535:CE:4833, V-A:ILE:538:CG2:4861, V-B:ILE:538:CG2:9835, V-A:PRO:540:CD:4885, V-B:ILE:538:CA:9832, V-B:MET:535:CE:9807, H-A:TYR:531:OH:4793, V-A:TYR:539:CZ:4875, V-A:ASP:366:CB:3209, V-B:TYR:531:CE2:9765, V-B:ALA:541:CA:9862, V-B:LEU:363:CD1:8160, H-A:TYR:539:OH:4876, H-A:TYR:539:N:4868"]

$$$$
3bk_Grossjean_2025
     RDKit          3D

 30 31  0  0  0  0  0  0  0  0999 V2000
  125.0140  122.7880   56.7490 C   0  0  0  0  0  0  0  0  0  0  0  0
  126.1600  122.0360   56.3830 O   0  0  0  0  0  0  0  0  0  0  0  0
  127.3700  122.7780   56.4560 C   0  0  0  0  0  0  0  0  0  0  0  0
  127.8380  122.8590   57.9150 C   0  0  0  0  0  0  0  0  0  0  0  0
  128.5500  124.0720   58.1150 O   0  0  0  0  0  0  0  0  0  0  0  0
  128.8160  124.7870   56.9150 C   0  0  0  0  0  0  0  0  0  0  0  0
  130.2840  124.5850   56.5190 C   0  0  0  0  0  0  0  0  0  0  0  0
  130.9370  125.8470   56.4690 O   0  0  0  0  0  0  0  0  0  0  0  0
  131.6460  126.1750   57.6570 C   0  0  0  0  0  0  0  0  0  0  0  0
  131.2590  125.1920   58.7710 C   0  0  0  0  0  0  0  0  0  0  0  0
  132.3410  124.9880   59.7350 N   0  0  0  0  0  0  0  0  0  0  0  0
  133.4880  124.3310   59.4940 C   0  0  0  0  0  0  0  0  0  0  0  0
  133.7730  123.8300   58.4050 O   0  0  0  0  0  0  0  0  0  0  0  0
  134.4820  124.2440   60.6540 C   0  0  0  0  0  0  0  0  0  0  0  0
  133.6840  123.6930   62.1950 S   0  0  0  0  0  0  0  0  0  0  0  0
  132.2300  122.7420   61.7880 C   0  0  0  0  0  0  0  0  0  0  0  0
  132.4440  121.4460   61.4480 N   0  0  0  0  0  0  0  0  0  0  0  0
  131.3950  120.6470   61.1190 C   0  0  0  0  0  0  0  0  0  0  0  0
  131.7180  119.2240   60.7770 C   0  0  0  0  0  0  0  0  0  0  0  0
  133.0490  118.8080   60.6180 C   0  0  0  0  0  0  0  0  0  0  0  0
  133.3540  117.4880   60.2940 C   0  0  0  0  0  0  0  0  0  0  0  0
  132.3290  116.5630   60.1250 C   0  0  0  0  0  0  0  0  0  0  0  0
  131.0020  116.9490   60.2800 C   0  0  0  0  0  0  0  0  0  0  0  0
  130.7010  118.2690   60.6050 C   0  0  0  0  0  0  0  0  0  0  0  0
  130.0850  121.1400   61.1320 C   0  0  0  0  0  0  0  0  0  0  0  0
  129.8460  122.4750   61.4790 C   0  0  0  0  0  0  0  0  0  0  0  0
  128.4020  122.9730   61.4800 C   0  0  0  0  0  0  0  0  0  0  0  0
  130.9350  123.3050   61.8170 C   0  0  0  0  0  0  0  0  0  0  0  0
  130.7150  124.7060   62.1870 C   0  0  0  0  0  0  0  0  0  0  0  0
  130.5400  125.8120   62.4790 N   0  0  0  0  0  0  0  0  0  0  0  0
  1  2  1  0
  2  3  1  0
  3  4  1  0
  4  5  1  0
  5  6  1  0
  6  7  1  0
  7  8  1  0
  8  9  1  0
  9 10  1  0
 10 11  1  0
 11 12  1  0
 12 13  2  0
 12 14  1  0
 14 15  1  0
 15 16  1  0
 16 17  2  0
 17 18  1  0
 18 19  1  0
 19 20  2  0
 20 21  1  0
 21 22  2  0
 22 23  1  0
 23 24  2  0
 18 25  2  0
 25 26  1  0
 26 27  1  0
 26 28  2  0
 28 29  1  0
 29 30  3  0
 28 16  1  0
 24 19  1  0
M  END
>  <Binding energies>  (32) 
[-7.75]

>  <Ligand effiencies>  (32) 
[-0.25]

>  <Interactions>  (32) 
["V-A:LEU:475:CD2:4256, V-B:TYR:539:CD1:9845, V-B:TYR:539:C:9839, V-B:TYR:539:CE1:9847, V-B:PRO:540:CB:9857, V-B:PRO:540:CA:9855, V-B:ALA:541:CB:9864, H-A:ASP:366:OD1:3211, V-A:ASP:366:CG:3210, V-B:PRO:540:N:9856, V-A:ILE:369:CD1:3236, V-B:TYR:539:CG:9844, V-B:ILE:538:CB:9834, H-B:TYR:539:N:9842, V-B:PRO:540:CD:9859, V-B:TYR:539:CZ:9849, V-B:ILE:538:CG2:9835, V-B:ILE:538:CA:9832, V-B:MET:535:CE:9807, V-A:ILE:369:CG2:3234, V-A:ILE:369:CB:3233, H-A:TYR:531:OH:4793, V-A:LEU:373:CD1:3277, V-A:PRO:482:CG:4324, V-A:SER:385:CA:3404, V-A:SER:385:CB:3406, V-A:PRO:482:CB:4323, V-A:VAL:384:C:3394, V-A:ASP:366:CB:3209, V-A:ASP:366:CA:3207, H-B:TYR:539:OH:9850, V-B:LEU:363:CD1:8160, V-B:TYR:539:CB:9843, H-A:GLY:454:N:4047, V-B:VAL:344:CG1:7972"]

$$$$
3cb_Grossjean_2025
     RDKit          3D

 30 32  0  0  0  0  0  0  0  0999 V2000
  125.1720  122.9080   57.0460 C   0  0  0  0  0  0  0  0  0  0  0  0
  126.2530  122.0130   57.2630 O   0  0  0  0  0  0  0  0  0  0  0  0
  127.5400  122.4210   57.1160 C   0  0  0  0  0  0  0  0  0  0  0  0
  128.1580  122.3510   56.0500 O   0  0  0  0  0  0  0  0  0  0  0  0
  128.1380  122.9660   58.3820 C   0  0  0  0  0  0  0  0  0  0  0  0
  129.3430  123.6840   58.3860 C   0  0  0  0  0  0  0  0  0  0  0  0
  129.8690  124.1770   59.5760 C   0  0  0  0  0  0  0  0  0  0  0  0
  129.2080  123.9610   60.7860 C   0  0  0  0  0  0  0  0  0  0  0  0
  129.8270  124.5070   61.9280 N   0  0  0  0  0  0  0  0  0  0  0  0
  130.2890  125.7570   62.1510 C   0  0  0  0  0  0  0  0  0  0  0  0
  130.2230  126.6870   61.3470 O   0  0  0  0  0  0  0  0  0  0  0  0
  130.9140  125.9660   63.5390 C   0  0  0  0  0  0  0  0  0  0  0  0
  132.5590  125.2070   63.7640 S   0  0  0  0  0  0  0  0  0  0  0  0
  132.8090  124.0450   62.4380 C   0  0  0  0  0  0  0  0  0  0  0  0
  133.5580  124.5390   61.4220 N   0  0  0  0  0  0  0  0  0  0  0  0
  133.8130  123.7440   60.3590 C   0  0  0  0  0  0  0  0  0  0  0  0
  134.6670  124.3580   59.2660 C   0  0  0  0  0  0  0  0  0  0  0  0
  133.3330  122.4410   60.2650 C   0  0  0  0  0  0  0  0  0  0  0  0
  132.5440  121.9150   61.2960 C   0  0  0  0  0  0  0  0  0  0  0  0
  132.0480  120.5130   61.1450 C   0  0  0  0  0  0  0  0  0  0  0  0
  132.9310  119.4890   60.7760 C   0  0  0  0  0  0  0  0  0  0  0  0
  132.4800  118.1780   60.6440 C   0  0  0  0  0  0  0  0  0  0  0  0
  131.1410  117.8830   60.8840 C   0  0  0  0  0  0  0  0  0  0  0  0
  130.2510  118.8860   61.2580 C   0  0  0  0  0  0  0  0  0  0  0  0
  130.7050  120.1960   61.3920 C   0  0  0  0  0  0  0  0  0  0  0  0
  132.2560  122.7410   62.4120 C   0  0  0  0  0  0  0  0  0  0  0  0
  131.3590  122.2760   63.4750 C   0  0  0  0  0  0  0  0  0  0  0  0
  130.6520  121.9080   64.3140 N   0  0  0  0  0  0  0  0  0  0  0  0
  128.0000  123.2470   60.7900 C   0  0  0  0  0  0  0  0  0  0  0  0
  127.4740  122.7550   59.5980 C   0  0  0  0  0  0  0  0  0  0  0  0
  1  2  1  0
  2  3  1  0
  3  4  2  0
  3  5  1  0
  5  6  2  0
  6  7  1  0
  7  8  2  0
  8  9  1  0
  9 10  1  0
 10 11  2  0
 10 12  1  0
 12 13  1  0
 13 14  1  0
 14 15  2  0
 15 16  1  0
 16 17  1  0
 16 18  2  0
 18 19  1  0
 19 20  1  0
 20 21  2  0
 21 22  1  0
 22 23  2  0
 23 24  1  0
 24 25  2  0
 19 26  2  0
 26 27  1  0
 27 28  3  0
  8 29  1  0
 29 30  2  0
 30  5  1  0
 26 14  1  0
 25 20  1  0
M  END
>  <Binding energies>  (33) 
[-8.57]

>  <Ligand effiencies>  (33) 
[-0.27645161290322584]

>  <Interactions>  (33) 
["V-A:LEU:475:CD2:4256, H-A:TYR:484:OH:4345, V-B:TYR:539:CD1:9845, V-B:TYR:539:C:9839, V-B:PRO:540:C:9853, V-B:TYR:539:CE1:9847, V-B:PRO:540:CB:9857, V-B:PRO:540:CA:9855, V-B:ALA:541:CB:9864, V-A:ASP:366:CG:3210, H-B:GLU:543:OE1:9881, V-B:PRO:540:N:9856, H-A:ARG:545:NH2:4926, V-A:ILE:369:CD1:3236, V-B:TYR:539:CG:9844, H-B:TYR:539:N:9842, V-B:PRO:540:CD:9859, V-B:TYR:539:CZ:9849, V-B:TYR:539:CA:9841, V-A:ILE:369:CG2:3234, V-A:ILE:369:CB:3233, V-A:LEU:373:CD1:3277, V-A:PRO:482:CG:4324, V-A:SER:385:CA:3404, V-A:SER:385:CB:3406, V-A:PRO:482:CB:4323, V-A:ASP:366:C:3205, V-A:ASP:366:CB:3209, V-A:ASP:366:CA:3207, V-B:LEU:363:CD1:8160, V-A:ILE:369:CG1:3235"]

$$$$
3ch_Grossjean_2025
     RDKit          3D

 32 34  0  0  0  0  0  0  0  0999 V2000
  128.6810  123.0250   56.0800 C   0  0  0  0  0  0  0  0  0  0  0  0
  128.6840  122.2910   57.3000 O   0  0  0  0  0  0  0  0  0  0  0  0
  128.1470  122.8610   58.4400 C   0  0  0  0  0  0  0  0  0  0  0  0
  128.9140  123.3410   59.5140 C   0  0  0  0  0  0  0  0  0  0  0  0
  128.2990  123.9160   60.6360 C   0  0  0  0  0  0  0  0  0  0  0  0
  128.9820  124.4290   61.7550 N   0  0  0  0  0  0  0  0  0  0  0  0
  129.8180  125.4860   61.8460 C   0  0  0  0  0  0  0  0  0  0  0  0
  130.1320  126.2300   60.9170 O   0  0  0  0  0  0  0  0  0  0  0  0
  130.3650  125.7750   63.2430 C   0  0  0  0  0  0  0  0  0  0  0  0
  132.1440  125.4250   63.3690 S   0  0  0  0  0  0  0  0  0  0  0  0
  132.4970  124.2050   62.1230 C   0  0  0  0  0  0  0  0  0  0  0  0
  133.2330  124.6750   61.0860 N   0  0  0  0  0  0  0  0  0  0  0  0
  133.5490  123.8270   60.0810 C   0  0  0  0  0  0  0  0  0  0  0  0
  134.3700  124.4190   58.9510 C   0  0  0  0  0  0  0  0  0  0  0  0
  133.1470  122.4940   60.0680 C   0  0  0  0  0  0  0  0  0  0  0  0
  132.3910  121.9870   61.1350 C   0  0  0  0  0  0  0  0  0  0  0  0
  131.9730  120.5530   61.0740 C   0  0  0  0  0  0  0  0  0  0  0  0
  130.6510  120.1930   61.3610 C   0  0  0  0  0  0  0  0  0  0  0  0
  130.2560  118.8590   61.3140 C   0  0  0  0  0  0  0  0  0  0  0  0
  131.1860  117.8760   60.9830 C   0  0  0  0  0  0  0  0  0  0  0  0
  132.5060  118.2170   60.7020 C   0  0  0  0  0  0  0  0  0  0  0  0
  132.8970  119.5530   60.7510 C   0  0  0  0  0  0  0  0  0  0  0  0
  132.0680  122.8590   62.2060 C   0  0  0  0  0  0  0  0  0  0  0  0
  131.3620  122.3600   63.3900 C   0  0  0  0  0  0  0  0  0  0  0  0
  130.8030  121.9660   64.3240 N   0  0  0  0  0  0  0  0  0  0  0  0
  126.9060  123.9890   60.6850 C   0  0  0  0  0  0  0  0  0  0  0  0
  126.1180  123.5130   59.6250 C   0  0  0  0  0  0  0  0  0  0  0  0
  124.7340  123.5630   59.6080 O   0  0  0  0  0  0  0  0  0  0  0  0
  124.0180  123.5490   60.8380 C   0  0  0  0  0  0  0  0  0  0  0  0
  126.7510  122.9500   58.5100 C   0  0  0  0  0  0  0  0  0  0  0  0
  125.9910  122.4960   57.4570 O   0  0  0  0  0  0  0  0  0  0  0  0
  125.3220  123.5250   56.7410 C   0  0  0  0  0  0  0  0  0  0  0  0
  1  2  1  0
  2  3  1  0
  3  4  2  0
  4  5  1  0
  5  6  1  0
  6  7  1  0
  7  8  2  0
  7  9  1  0
  9 10  1  0
 10 11  1  0
 11 12  2  0
 12 13  1  0
 13 14  1  0
 13 15  2  0
 15 16  1  0
 16 17  1  0
 17 18  2  0
 18 19  1  0
 19 20  2  0
 20 21  1  0
 21 22  2  0
 16 23  2  0
 23 24  1  0
 24 25  3  0
  5 26  2  0
 26 27  1  0
 27 28  1  0
 28 29  1  0
 27 30  2  0
 30 31  1  0
 31 32  1  0
 30  3  1  0
 23 11  1  0
 22 17  1  0
M  END
>  <Binding energies>  (34) 
[-8.02]

>  <Ligand effiencies>  (34) 
[-0.243030303030303]

>  <Interactions>  (34) 
["V-A:LEU:475:CD2:4256, H-A:TYR:484:OH:4345, V-B:TYR:539:CD1:9845, V-B:TYR:539:C:9839, V-B:ASP:366:CG:8184, V-B:TYR:539:CE1:9847, V-B:GLU:543:CD:9880, V-B:PRO:540:CB:9857, V-B:PRO:540:CA:9855, V-B:ALA:541:CB:9864, V-B:ASN:362:CB:8147, V-A:ASP:366:CG:3210, H-B:GLU:543:OE1:9881, V-B:PRO:540:N:9856, H-A:ARG:545:NH2:4926, V-A:ILE:369:CD1:3236, V-B:TYR:539:CE2:9848, V-B:TYR:539:CG:9844, H-B:TYR:539:N:9842, V-B:TYR:539:CD2:9846, V-B:TYR:539:CZ:9849, V-B:MET:535:CE:9807, V-A:ILE:369:CG2:3234, V-A:ILE:369:CB:3233, V-A:LEU:373:CD1:3277, V-A:PRO:482:CG:4324, V-A:SER:385:CA:3404, V-A:SER:385:CB:3406, V-A:PRO:482:CB:4323, V-A:ASP:366:C:3205, V-A:ASP:366:CB:3209, V-A:ASP:366:CA:3207, V-B:TYR:531:CE2:9765, V-B:ASN:362:C:8143, V-B:LEU:363:CA:8156"]

$$$$
3ci_Grossjean_2025
     RDKit          3D

 25 27  0  0  0  0  0  0  0  0999 V2000
  130.1140  121.9630   61.6990 C   0  0  0  0  0  0  0  0  0  0  0  0
  130.0560  122.7410   60.3980 C   0  0  0  0  0  0  0  0  0  0  0  0
  128.9150  122.7490   59.6020 C   0  0  0  0  0  0  0  0  0  0  0  0
  128.9030  123.4970   58.4160 C   0  0  0  0  0  0  0  0  0  0  0  0
  127.6510  123.4890   57.6010 C   0  0  0  0  0  0  0  0  0  0  0  0
  127.6780  123.1160   56.2500 C   0  0  0  0  0  0  0  0  0  0  0  0
  126.5090  123.1180   55.4930 C   0  0  0  0  0  0  0  0  0  0  0  0
  125.3080  123.5000   56.0820 C   0  0  0  0  0  0  0  0  0  0  0  0
  125.2660  123.8820   57.4210 C   0  0  0  0  0  0  0  0  0  0  0  0
  126.4350  123.8780   58.1750 C   0  0  0  0  0  0  0  0  0  0  0  0
  130.0730  124.2170   58.0610 C   0  0  0  0  0  0  0  0  0  0  0  0
  130.1340  124.9820   56.8110 C   0  0  0  0  0  0  0  0  0  0  0  0
  130.1810  125.5860   55.8250 N   0  0  0  0  0  0  0  0  0  0  0  0
  131.1880  124.1580   58.9320 C   0  0  0  0  0  0  0  0  0  0  0  0
  132.7050  125.0430   58.5940 S   0  0  0  0  0  0  0  0  0  0  0  0
  134.0910  124.2220   59.4480 C   0  0  0  0  0  0  0  0  0  0  0  0
  133.8090  123.9360   60.9280 C   0  0  0  0  0  0  0  0  0  0  0  0
  133.9470  122.7880   61.3560 O   0  0  0  0  0  0  0  0  0  0  0  0
  133.4060  124.9950   61.6640 N   0  0  0  0  0  0  0  0  0  0  0  0
  133.1160  125.0140   63.0210 C   0  0  0  0  0  0  0  0  0  0  0  0
  131.8150  124.9800   63.5210 C   0  0  0  0  0  0  0  0  0  0  0  0
  131.9560  125.0170   64.8900 C   0  0  0  0  0  0  0  0  0  0  0  0
  133.2750  125.0710   65.1970 O   0  0  0  0  0  0  0  0  0  0  0  0
  134.0000  125.0700   64.0040 N   0  0  0  0  0  0  0  0  0  0  0  0
  131.1750  123.4250   60.0740 N   0  0  0  0  0  0  0  0  0  0  0  0
  1  2  1  0
  2  3  2  0
  3  4  1  0
  4  5  1  0
  5  6  2  0
  6  7  1  0
  7  8  2  0
  8  9  1  0
  9 10  2  0
  4 11  2  0
 11 12  1  0
 12 13  3  0
 11 14  1  0
 14 15  1  0
 15 16  1  0
 16 17  1  0
 17 18  2  0
 17 19  1  0
 19 20  1  0
 20 21  1  0
 21 22  2  0
 22 23  1  0
 23 24  1  0
 14 25  2  0
 25  2  1  0
 10  5  1  0
 24 20  2  0
M  END
>  <Binding energies>  (35) 
[-8.78]

>  <Ligand effiencies>  (35) 
[-0.3376923076923077]

>  <Interactions>  (35) 
["H-A:TYR:484:OH:4345, V-B:TYR:539:CD1:9845, V-B:TYR:539:C:9839, V-B:TYR:539:CE1:9847, V-A:ARG:545:CZ:4924, V-B:ALA:541:CB:9864, H-A:ASP:366:OD2:3212, H-A:ASP:366:OD1:3211, V-A:ASP:366:CG:3210, H-A:ARG:545:NH2:4926, V-A:ILE:369:CD1:3236, H-A:ARG:545:NE:4922, V-B:ILE:538:CB:9834, V-B:TYR:539:CZ:9849, V-B:ILE:538:CG2:9835, V-B:ILE:538:CA:9832, V-B:MET:535:CE:9807, V-A:ILE:369:CG2:3234, V-A:ILE:369:CB:3233, V-B:TYR:531:CZ:9766, V-A:ASP:366:CB:3209, V-A:ASP:366:CA:3207, V-B:TYR:531:CE2:9765, H-B:TYR:539:OH:9850, V-B:LEU:363:CD1:8160, H-A:GLY:454:N:4047, H-A:ARG:545:NH1:4925"]

$$$$
3ck_Grossjean_2025
     RDKit          3D

 30 31  0  0  0  0  0  0  0  0999 V2000
  129.8500  126.5910   56.5610 C   0  0  0  0  0  0  0  0  0  0  0  0
  130.8900  126.4520   55.6060 O   0  0  0  0  0  0  0  0  0  0  0  0
  131.7770  125.3790   55.8880 C   0  0  0  0  0  0  0  0  0  0  0  0
  132.1490  125.3980   57.3760 C   0  0  0  0  0  0  0  0  0  0  0  0
  133.5340  125.1090   57.5190 O   0  0  0  0  0  0  0  0  0  0  0  0
  133.8350  124.2460   58.6080 C   0  0  0  0  0  0  0  0  0  0  0  0
  132.6160  124.1700   59.5370 C   0  0  0  0  0  0  0  0  0  0  0  0
  132.7090  122.9750   60.2980 O   0  0  0  0  0  0  0  0  0  0  0  0
  133.9450  122.7900   60.9700 C   0  0  0  0  0  0  0  0  0  0  0  0
  134.0170  123.7330   62.1860 C   0  0  0  0  0  0  0  0  0  0  0  0
  132.7070  124.2040   62.6450 N   0  0  0  0  0  0  0  0  0  0  0  0
  132.4640  124.8360   63.8080 C   0  0  0  0  0  0  0  0  0  0  0  0
  133.3460  125.1170   64.6210 O   0  0  0  0  0  0  0  0  0  0  0  0
  130.9930  125.2010   64.0680 C   0  0  0  0  0  0  0  0  0  0  0  0
  130.0490  125.7390   62.6000 S   0  0  0  0  0  0  0  0  0  0  0  0
  129.6410  124.3090   61.6100 C   0  0  0  0  0  0  0  0  0  0  0  0
  130.1770  123.1350   62.0280 N   0  0  0  0  0  0  0  0  0  0  0  0
  129.9140  122.0120   61.3230 C   0  0  0  0  0  0  0  0  0  0  0  0
  130.5490  120.7400   61.8490 C   0  0  0  0  0  0  0  0  0  0  0  0
  129.1140  122.0120   60.1830 C   0  0  0  0  0  0  0  0  0  0  0  0
  128.5550  123.2140   59.7300 C   0  0  0  0  0  0  0  0  0  0  0  0
  127.7230  123.1710   58.4900 C   0  0  0  0  0  0  0  0  0  0  0  0
  128.3250  122.9450   57.2460 C   0  0  0  0  0  0  0  0  0  0  0  0
  127.5570  122.9130   56.0840 C   0  0  0  0  0  0  0  0  0  0  0  0
  126.1820  123.1130   56.1630 C   0  0  0  0  0  0  0  0  0  0  0  0
  125.5690  123.3470   57.3910 C   0  0  0  0  0  0  0  0  0  0  0  0
  126.3390  123.3780   58.5500 C   0  0  0  0  0  0  0  0  0  0  0  0
  128.8130  124.3980   60.4670 C   0  0  0  0  0  0  0  0  0  0  0  0
  128.2200  125.6780   60.0630 C   0  0  0  0  0  0  0  0  0  0  0  0
  127.7520  126.6880   59.7440 N   0  0  0  0  0  0  0  0  0  0  0  0
  1  2  1  0
  2  3  1  0
  3  4  1  0
  4  5  1  0
  5  6  1  0
  6  7  1  0
  7  8  1  0
  8  9  1  0
  9 10  1  0
 10 11  1  0
 11 12  1  0
 12 13  2  0
 12 14  1  0
 14 15  1  0
 15 16  1  0
 16 17  2  0
 17 18  1  0
 18 19  1  0
 18 20  2  0
 20 21  1  0
 21 22  1  0
 22 23  2  0
 23 24  1  0
 24 25  2  0
 25 26  1  0
 26 27  2  0
 21 28  2  0
 28 29  1  0
 29 30  3  0
 28 16  1  0
 27 22  1  0
M  END
>  <Binding energies>  (36) 
[-6.73]

>  <Ligand effiencies>  (36) 
[-0.2170967741935484]

>  <Interactions>  (36) 
["V-A:LEU:475:CD2:4256, H-A:TYR:484:OH:4345, V-A:GLY:454:CA:4046, V-B:TYR:539:CD1:9845, V-B:TYR:539:C:9839, V-B:TYR:539:CE1:9847, V-B:GLU:543:CD:9880, V-B:PRO:540:CB:9857, V-A:ARG:545:CZ:4924, V-B:PRO:540:CA:9855, V-B:ALA:541:CB:9864, V-A:ASP:366:CG:3210, V-B:PRO:540:N:9856, V-A:ILE:369:CD1:3236, H-A:ARG:545:NE:4922, V-A:GLY:453:C:4039, V-B:TYR:539:CG:9844, V-B:ILE:538:CB:9834, V-B:TYR:539:CZ:9849, V-B:ILE:538:CG2:9835, V-A:TYR:531:CZ:4792, V-B:ILE:538:CA:9832, V-B:MET:535:CE:9807, V-A:ILE:369:CG2:3234, V-A:ILE:369:CB:3233, H-A:TYR:531:OH:4793, V-A:ASP:366:CB:3209, V-A:ASP:366:CA:3207, H-B:TYR:539:OH:9850, V-A:ASN:370:CG:3243, V-A:ASN:370:CB:3242, V-A:TYR:531:CE1:4790, H-A:GLY:454:N:4047"]

$$$$
4aa_Grossjean_2025
     RDKit          3D

 26 28  0  0  0  0  0  0  0  0999 V2000
  127.9570  127.6220   68.1160 C   0  0  0  0  0  0  0  0  0  0  0  0
  127.4230  128.6600   67.1240 C   0  0  0  0  0  0  0  0  0  0  0  0
  126.0020  128.6560   67.1560 O   0  0  0  0  0  0  0  0  0  0  0  0
  125.2800  129.4950   66.3680 C   0  0  0  0  0  0  0  0  0  0  0  0
  124.1190  129.8350   66.6200 O   0  0  0  0  0  0  0  0  0  0  0  0
  126.0320  129.9640   65.1570 C   0  0  0  0  0  0  0  0  0  0  0  0
  125.8270  129.3170   63.9310 C   0  0  0  0  0  0  0  0  0  0  0  0
  126.5120  129.7250   62.7900 C   0  0  0  0  0  0  0  0  0  0  0  0
  127.4100  130.7930   62.8490 C   0  0  0  0  0  0  0  0  0  0  0  0
  128.0540  131.1160   61.6400 N   0  0  0  0  0  0  0  0  0  0  0  0
  129.2520  131.7110   61.4200 C   0  0  0  0  0  0  0  0  0  0  0  0
  129.9920  132.1270   62.3120 O   0  0  0  0  0  0  0  0  0  0  0  0
  129.6250  131.8630   60.0120 C   0  0  0  0  0  0  0  0  0  0  0  0
  128.3920  132.2050   58.7960 S   0  0  0  0  0  0  0  0  0  0  0  0
  129.5820  132.1820   57.5150 C   0  0  0  0  0  0  0  0  0  0  0  0
  129.2510  132.3930   56.2400 N   0  0  0  0  0  0  0  0  0  0  0  0
  130.2680  132.3440   55.3460 C   0  0  0  0  0  0  0  0  0  0  0  0
  129.8700  132.5820   53.9010 C   0  0  0  0  0  0  0  0  0  0  0  0
  131.5940  132.0950   55.6930 C   0  0  0  0  0  0  0  0  0  0  0  0
  131.9380  131.8750   57.0310 C   0  0  0  0  0  0  0  0  0  0  0  0
  133.3990  131.6080   57.3610 C   0  0  0  0  0  0  0  0  0  0  0  0
  130.8980  131.9150   57.9980 C   0  0  0  0  0  0  0  0  0  0  0  0
  130.8930  131.7330   59.4260 C   0  0  0  0  0  0  0  0  0  0  0  0
  132.0380  131.4600   60.1320 N   0  0  0  0  0  0  0  0  0  0  0  0
  127.6260  131.4430   64.0720 C   0  0  0  0  0  0  0  0  0  0  0  0
  126.9420  131.0310   65.2130 C   0  0  0  0  0  0  0  0  0  0  0  0
  1  2  1  0
  2  3  1  0
  3  4  1  0
  4  5  2  0
  4  6  1  0
  6  7  2  0
  7  8  1  0
  8  9  2  0
  9 10  1  0
 10 11  1  0
 11 12  2  0
 11 13  1  0
 13 14  1  0
 14 15  1  0
 15 16  2  0
 16 17  1  0
 17 18  1  0
 17 19  2  0
 19 20  1  0
 20 21  1  0
 20 22  2  0
 22 23  1  0
 23 24  1  0
  9 25  1  0
 25 26  2  0
 26  6  1  0
 23 13  2  0
 22 15  1  0
M  END
>  <Binding energies>  (37) 
[-6.85]

>  <Ligand effiencies>  (37) 
[-0.23620689655172414]

>  <Interactions>  (37) 
["V-B:HIS:456:CE1:9040, V-B:GLU:543:CG:9879, V-B:GLU:543:CD:9880, H-A:ASP:366:OD2:3212, V-B:ARG:545:CZ:9898, V-A:GLU:543:CD:4906, V-A:TYR:539:CE1:4873, H-B:ARG:545:NE:9896, V-A:PRO:540:CA:4881, V-B:ARG:545:CD:9895, V-A:TYR:539:CD1:4871, V-B:ARG:545:CG:9894, V-A:PRO:540:CB:4883, V-A:PRO:540:N:4882, V-A:LEU:363:CD1:3186, V-A:ILE:538:CA:4858, V-A:ILE:538:CB:4860, V-A:MET:535:CG:4831, V-A:MET:535:CE:4833, V-A:ILE:538:CG2:4861, V-A:TYR:531:CE2:4791, H-B:TYR:484:OH:9319, H-B:GLY:454:N:9021, V-B:TYR:484:CZ:9318, V-B:TYR:484:CE2:9317, V-A:TYR:539:CZ:4875, V-A:MET:535:CB:4830, V-A:VAL:537:C:4848, H-A:TYR:539:N:4868, V-A:LEU:363:CA:3182, V-A:LEU:363:CB:3184, H-A:ALA:541:N:4889, H-B:ILE:455:N:9026"]

$$$$
4ab_Grossjean_2025
     RDKit          3D

 25 27  0  0  0  0  0  0  0  0999 V2000
  132.5810  132.5850   56.5000 C   0  0  0  0  0  0  0  0  0  0  0  0
  131.4000  133.3630   56.6360 O   0  0  0  0  0  0  0  0  0  0  0  0
  130.2020  132.7760   56.8850 C   0  0  0  0  0  0  0  0  0  0  0  0
  129.1230  133.2430   56.5050 O   0  0  0  0  0  0  0  0  0  0  0  0
  130.3170  131.5040   57.6750 C   0  0  0  0  0  0  0  0  0  0  0  0
  130.1780  130.2750   57.0150 C   0  0  0  0  0  0  0  0  0  0  0  0
  130.2780  129.0780   57.7200 C   0  0  0  0  0  0  0  0  0  0  0  0
  130.5260  129.0850   59.0930 C   0  0  0  0  0  0  0  0  0  0  0  0
  130.6000  127.8190   59.7050 N   0  0  0  0  0  0  0  0  0  0  0  0
  130.6160  127.4830   61.0180 C   0  0  0  0  0  0  0  0  0  0  0  0
  130.6060  128.2980   61.9420 O   0  0  0  0  0  0  0  0  0  0  0  0
  130.6710  126.0470   61.2940 C   0  0  0  0  0  0  0  0  0  0  0  0
  130.9060  124.8950   59.9770 S   0  0  0  0  0  0  0  0  0  0  0  0
  130.8090  123.5410   61.0800 C   0  0  0  0  0  0  0  0  0  0  0  0
  130.9210  122.2800   60.6610 N   0  0  0  0  0  0  0  0  0  0  0  0
  130.8240  121.3240   61.6170 C   0  0  0  0  0  0  0  0  0  0  0  0
  130.9490  119.8960   61.1190 C   0  0  0  0  0  0  0  0  0  0  0  0
  130.6240  121.5970   62.9690 C   0  0  0  0  0  0  0  0  0  0  0  0
  130.5070  122.9220   63.4050 C   0  0  0  0  0  0  0  0  0  0  0  0
  130.2870  123.1690   64.8900 C   0  0  0  0  0  0  0  0  0  0  0  0
  130.5980  123.9530   62.4300 C   0  0  0  0  0  0  0  0  0  0  0  0
  130.5170  125.3850   62.5230 C   0  0  0  0  0  0  0  0  0  0  0  0
  130.3120  126.0310   63.7160 N   0  0  0  0  0  0  0  0  0  0  0  0
  130.6610  130.3100   59.7630 C   0  0  0  0  0  0  0  0  0  0  0  0
  130.5590  131.5060   59.0570 C   0  0  0  0  0  0  0  0  0  0  0  0
  1  2  1  0
  2  3  1  0
  3  4  2  0
  3  5  1  0
  5  6  2  0
  6  7  1  0
  7  8  2  0
  8  9  1  0
  9 10  1  0
 10 11  2  0
 10 12  1  0
 12 13  1  0
 13 14  1  0
 14 15  2  0
 15 16  1  0
 16 17  1  0
 16 18  2  0
 18 19  1  0
 19 20  1  0
 19 21  2  0
 21 22  1  0
 22 23  1  0
  8 24  1  0
 24 25  2  0
 25  5  1  0
 22 12  2  0
 21 14  1  0
M  END
>  <Binding energies>  (38) 
[-6.28]

>  <Ligand effiencies>  (38) 
[-0.22428571428571428]

>  <Interactions>  (38) 
["V-A:LEU:475:CD2:4256, V-B:TYR:539:CD1:9845, V-A:TYR:484:CE2:4343, V-B:GLU:543:CB:9878, V-B:TYR:539:CE1:9847, V-B:GLU:543:CD:9880, V-B:ALA:541:CB:9864, V-A:TYR:484:CZ:4344, H-A:ASP:366:OD2:3212, H-B:GLU:543:OE2:9882, V-A:ASP:366:CG:3210, H-B:GLU:543:OE1:9881, H-A:GLU:543:OE2:4908, H-A:GLU:543:OE1:4907, H-A:ARG:545:NH2:4926, V-A:TYR:539:C:4865, V-A:PRO:540:CA:4881, V-A:PRO:540:CB:4883, V-A:PRO:540:N:4882, V-A:LEU:363:CD1:3186, V-A:TYR:539:CA:4867, V-A:ILE:538:CA:4858, V-A:ILE:538:CB:4860, V-A:MET:535:CE:4833, V-A:ILE:538:CG2:4861, V-A:PRO:540:CD:4885, H-A:TYR:539:N:4868"]

$$$$
4ac_Grossjean_2025
     RDKit          3D

 23 25  0  0  0  0  0  0  0  0999 V2000
  134.2860  125.3740   66.8940 C   0  0  0  0  0  0  0  0  0  0  0  0
  134.3800  125.4040   65.4730 O   0  0  0  0  0  0  0  0  0  0  0  0
  133.2500  125.1570   64.7170 C   0  0  0  0  0  0  0  0  0  0  0  0
  133.4580  124.8320   63.3770 C   0  0  0  0  0  0  0  0  0  0  0  0
  132.3800  124.5660   62.5370 C   0  0  0  0  0  0  0  0  0  0  0  0
  131.0760  124.6130   63.0320 C   0  0  0  0  0  0  0  0  0  0  0  0
  130.0500  124.3420   62.1070 N   0  0  0  0  0  0  0  0  0  0  0  0
  129.6950  123.1640   61.5410 C   0  0  0  0  0  0  0  0  0  0  0  0
  130.2810  122.0980   61.7430 O   0  0  0  0  0  0  0  0  0  0  0  0
  128.5450  123.2240   60.6360 C   0  0  0  0  0  0  0  0  0  0  0  0
  128.7740  123.1010   58.8910 S   0  0  0  0  0  0  0  0  0  0  0  0
  127.0560  123.2570   58.6050 C   0  0  0  0  0  0  0  0  0  0  0  0
  126.5400  123.2380   57.3760 N   0  0  0  0  0  0  0  0  0  0  0  0
  125.1940  123.3680   57.2930 C   0  0  0  0  0  0  0  0  0  0  0  0
  124.6260  123.3430   55.8860 C   0  0  0  0  0  0  0  0  0  0  0  0
  124.3600  123.5180   58.4010 C   0  0  0  0  0  0  0  0  0  0  0  0
  124.9050  123.5380   59.6890 C   0  0  0  0  0  0  0  0  0  0  0  0
  123.9550  123.7040   60.8650 C   0  0  0  0  0  0  0  0  0  0  0  0
  126.3140  123.4020   59.8150 C   0  0  0  0  0  0  0  0  0  0  0  0
  127.1870  123.3780   60.9580 C   0  0  0  0  0  0  0  0  0  0  0  0
  126.7160  123.4980   62.2410 N   0  0  0  0  0  0  0  0  0  0  0  0
  130.8580  124.9520   64.3750 C   0  0  0  0  0  0  0  0  0  0  0  0
  131.9390  125.2180   65.2120 C   0  0  0  0  0  0  0  0  0  0  0  0
  1  2  1  0
  2  3  1  0
  3  4  2  0
  4  5  1  0
  5  6  2  0
  6  7  1  0
  7  8  1  0
  8  9  2  0
  8 10  1  0
 10 11  1  0
 11 12  1  0
 12 13  2  0
 13 14  1  0
 14 15  1  0
 14 16  2  0
 16 17  1  0
 17 18  1  0
 17 19  2  0
 19 20  1  0
 20 21  1  0
  6 22  1  0
 22 23  2  0
 23  3  1  0
 20 10  2  0
 19 12  1  0
M  END
>  <Binding energies>  (39) 
[-6.89]

>  <Ligand effiencies>  (39) 
[-0.265]

>  <Interactions>  (39) 
["V-A:HIS:456:CE1:4066, H-A:TYR:484:OH:4345, V-A:GLY:454:CA:4046, V-B:TYR:539:CD1:9845, V-B:TYR:539:C:9839, V-B:ASP:366:CG:8184, V-B:TYR:539:CE1:9847, V-B:GLU:543:CD:9880, V-B:PRO:540:CB:9857, V-A:ARG:545:CZ:4924, V-B:PRO:540:CA:9855, V-B:ALA:541:CB:9864, H-B:GLU:543:OE2:9882, V-B:ASN:362:CB:8147, H-B:GLU:543:OE1:9881, V-B:PRO:540:N:9856, V-A:ARG:545:CD:4921, V-A:GLY:453:CA:4041, V-A:ARG:545:CG:4920, H-A:ARG:545:NE:4922, V-B:ILE:538:CB:9834, V-B:ILE:538:CG2:9835, V-B:TYR:531:CZ:9766, V-B:TYR:531:CE2:9765, V-B:ALA:541:CA:9862, V-B:LEU:363:CD1:8160, V-B:ASN:362:C:8143, H-A:GLY:454:N:4047, H-B:ALA:541:O:9861, V-B:LEU:363:CA:8156, V-A:ILE:455:C:4049, V-A:ARG:545:CB:4919"]

$$$$
4ad_Grossjean_2025
     RDKit          3D

 21 23  0  0  0  0  0  0  0  0999 V2000
  125.9430  117.1150   71.6170 C   0  0  0  0  0  0  0  0  0  0  0  0
  126.8130  118.0100   72.4800 C   0  0  0  0  0  0  0  0  0  0  0  0
  127.2410  117.5970   73.7400 C   0  0  0  0  0  0  0  0  0  0  0  0
  128.0410  118.4410   74.5190 C   0  0  0  0  0  0  0  0  0  0  0  0
  128.4810  117.9470   75.8890 C   0  0  0  0  0  0  0  0  0  0  0  0
  128.3890  119.7090   73.9800 C   0  0  0  0  0  0  0  0  0  0  0  0
  129.1760  120.7980   74.4920 C   0  0  0  0  0  0  0  0  0  0  0  0
  129.7760  120.7490   75.7260 N   0  0  0  0  0  0  0  0  0  0  0  0
  129.2690  121.8950   73.6210 C   0  0  0  0  0  0  0  0  0  0  0  0
  129.9680  123.1650   73.8260 C   0  0  0  0  0  0  0  0  0  0  0  0
  129.4460  124.2300   73.4930 O   0  0  0  0  0  0  0  0  0  0  0  0
  131.1910  123.0680   74.4040 N   0  0  0  0  0  0  0  0  0  0  0  0
  132.1260  124.0800   74.6960 C   0  0  0  0  0  0  0  0  0  0  0  0
  131.7690  125.3730   74.3050 C   0  0  0  0  0  0  0  0  0  0  0  0
  132.6220  126.4440   74.5580 C   0  0  0  0  0  0  0  0  0  0  0  0
  133.8310  126.2230   75.2120 C   0  0  0  0  0  0  0  0  0  0  0  0
  134.1920  124.9410   75.6190 C   0  0  0  0  0  0  0  0  0  0  0  0
  133.3420  123.8680   75.3660 C   0  0  0  0  0  0  0  0  0  0  0  0
  128.3770  121.5980   72.1280 S   0  0  0  0  0  0  0  0  0  0  0  0
  127.8860  120.0130   72.6790 C   0  0  0  0  0  0  0  0  0  0  0  0
  127.1240  119.2100   71.9340 N   0  0  0  0  0  0  0  0  0  0  0  0
  1  2  1  0
  2  3  2  0
  3  4  1  0
  4  5  1  0
  4  6  2  0
  6  7  1  0
  7  8  1  0
  7  9  2  0
  9 10  1  0
 10 11  2  0
 10 12  1  0
 12 13  1  0
 13 14  2  0
 14 15  1  0
 15 16  2  0
 16 17  1  0
 17 18  2  0
  9 19  1  0
 19 20  1  0
 20 21  2  0
 21  2  1  0
 20  6  1  0
 18 13  1  0
M  END
>  <Binding energies>  (40) 
[-6.83]

>  <Ligand effiencies>  (40) 
[-0.28458333333333335]

>  <Interactions>  (40) 
["V-B:LYS:547:CE:9922, V-A:VAL:458:CG2:4084, H-B:LYS:547:NZ:9923, V-A:HIS:456:CD2:4065, V-A:LYS:547:CE:4948, V-A:LYS:547:CD:4947, V-A:LYS:471:CD:4216, V-A:HIS:456:CB:4062, V-A:ASP:473:CG:4237, V-A:HIS:456:CG:4063, V-A:HIS:456:C:4058, V-B:GLY:544:CA:9886, V-B:GLU:543:C:9874, V-A:TYR:484:CD2:4341, H-A:ASP:473:OD2:4239, V-A:TYR:484:CB:4338, V-A:TYR:484:CG:4339, V-B:GLU:543:CA:9876, H-A:TYR:484:N:4337, V-A:SER:483:CB:4330, V-B:VAL:542:CG1:9871"]

$$$$
4ae_Grossjean_2025
     RDKit          3D

 22 24  0  0  0  0  0  0  0  0999 V2000
  131.1470  126.0270   66.7510 C   0  0  0  0  0  0  0  0  0  0  0  0
  131.5760  125.4900   65.4000 C   0  0  0  0  0  0  0  0  0  0  0  0
  132.9240  125.3150   65.0760 C   0  0  0  0  0  0  0  0  0  0  0  0
  133.2440  124.8230   63.8100 C   0  0  0  0  0  0  0  0  0  0  0  0
  132.2210  124.5240   62.9080 C   0  0  0  0  0  0  0  0  0  0  0  0
  130.8910  124.7150   63.2990 C   0  0  0  0  0  0  0  0  0  0  0  0
  129.9080  124.4150   62.3410 N   0  0  0  0  0  0  0  0  0  0  0  0
  129.8390  123.3530   61.4990 C   0  0  0  0  0  0  0  0  0  0  0  0
  130.6850  122.4580   61.4540 O   0  0  0  0  0  0  0  0  0  0  0  0
  128.6720  123.3290   60.6150 C   0  0  0  0  0  0  0  0  0  0  0  0
  128.8790  123.1550   58.8710 S   0  0  0  0  0  0  0  0  0  0  0  0
  127.1530  123.2570   58.6080 C   0  0  0  0  0  0  0  0  0  0  0  0
  126.6210  123.1890   57.3870 N   0  0  0  0  0  0  0  0  0  0  0  0
  125.2720  123.2870   57.3200 C   0  0  0  0  0  0  0  0  0  0  0  0
  124.6870  123.2150   55.9210 C   0  0  0  0  0  0  0  0  0  0  0  0
  124.4490  123.4470   58.4350 C   0  0  0  0  0  0  0  0  0  0  0  0
  125.0120  123.5160   59.7150 C   0  0  0  0  0  0  0  0  0  0  0  0
  124.0740  123.6950   60.8990 C   0  0  0  0  0  0  0  0  0  0  0  0
  126.4250  123.4190   59.8240 C   0  0  0  0  0  0  0  0  0  0  0  0
  127.3150  123.4550   60.9550 C   0  0  0  0  0  0  0  0  0  0  0  0
  126.8610  123.6020   62.2410 N   0  0  0  0  0  0  0  0  0  0  0  0
  130.5710  125.2020   64.5340 N   0  0  0  0  0  0  0  0  0  0  0  0
  1  2  1  0
  2  3  2  0
  3  4  1  0
  4  5  2  0
  5  6  1  0
  6  7  1  0
  7  8  1  0
  8  9  2  0
  8 10  1  0
 10 11  1  0
 11 12  1  0
 12 13  2  0
 13 14  1  0
 14 15  1  0
 14 16  2  0
 16 17  1  0
 17 18  1  0
 17 19  2  0
 19 20  1  0
 20 21  1  0
  6 22  2  0
 22  2  1  0
 20 10  2  0
 19 12  1  0
M  END
>  <Binding energies>  (41) 
[-6.66]

>  <Ligand effiencies>  (41) 
[-0.2664]

>  <Interactions>  (41) 
["V-A:HIS:456:CE1:4066, V-A:GLY:454:CA:4046, V-B:TYR:539:CD1:9845, V-B:TYR:539:C:9839, V-B:ASP:366:CG:8184, V-B:TYR:539:CE1:9847, V-B:GLU:543:CD:9880, V-B:PRO:540:CB:9857, V-A:ARG:545:CZ:4924, V-B:PRO:540:CA:9855, V-B:ALA:541:CB:9864, H-B:GLU:543:OE2:9882, V-B:ASN:362:CB:8147, H-B:GLU:543:OE1:9881, V-B:PRO:540:N:9856, V-A:ARG:545:CD:4921, V-B:ILE:538:CB:9834, V-B:PRO:540:CD:9859, V-B:ILE:538:CG2:9835, V-B:TYR:531:CZ:9766, V-B:TYR:531:CE2:9765, V-B:LEU:363:CD1:8160, V-B:ASN:362:C:8143, H-B:ALA:541:O:9861, V-B:LEU:363:CA:8156"]

$$$$
4af_Grossjean_2025
     RDKit          3D

 21 23  0  0  0  0  0  0  0  0999 V2000
  124.9410  123.1280   56.0410 C   0  0  0  0  0  0  0  0  0  0  0  0
  125.5700  123.3020   57.4110 C   0  0  0  0  0  0  0  0  0  0  0  0
  124.7810  123.4320   58.5520 C   0  0  0  0  0  0  0  0  0  0  0  0
  125.3830  123.5940   59.8050 C   0  0  0  0  0  0  0  0  0  0  0  0
  124.4790  123.7330   61.0200 C   0  0  0  0  0  0  0  0  0  0  0  0
  126.8030  123.6210   59.8600 C   0  0  0  0  0  0  0  0  0  0  0  0
  127.7280  123.7700   60.9520 C   0  0  0  0  0  0  0  0  0  0  0  0
  127.3100  123.9240   62.2500 N   0  0  0  0  0  0  0  0  0  0  0  0
  129.0770  123.7420   60.5640 C   0  0  0  0  0  0  0  0  0  0  0  0
  130.2690  123.8940   61.4010 C   0  0  0  0  0  0  0  0  0  0  0  0
  131.3510  123.4300   61.0390 O   0  0  0  0  0  0  0  0  0  0  0  0
  130.0830  124.5780   62.5560 N   0  0  0  0  0  0  0  0  0  0  0  0
  130.9980  124.8550   63.5900 C   0  0  0  0  0  0  0  0  0  0  0  0
  130.6570  125.2560   64.8940 C   0  0  0  0  0  0  0  0  0  0  0  0
  131.6670  125.5170   65.8220 C   0  0  0  0  0  0  0  0  0  0  0  0
  132.9960  125.3740   65.4220 C   0  0  0  0  0  0  0  0  0  0  0  0
  133.3510  124.9960   64.1690 N   0  0  0  0  0  0  0  0  0  0  0  0
  132.3590  124.7460   63.2780 C   0  0  0  0  0  0  0  0  0  0  0  0
  129.2330  123.5300   58.8180 S   0  0  0  0  0  0  0  0  0  0  0  0
  127.4960  123.4770   58.6220 C   0  0  0  0  0  0  0  0  0  0  0  0
  126.9260  123.3220   57.4260 N   0  0  0  0  0  0  0  0  0  0  0  0
  1  2  1  0
  2  3  2  0
  3  4  1  0
  4  5  1  0
  4  6  2  0
  6  7  1  0
  7  8  1  0
  7  9  2  0
  9 10  1  0
 10 11  2  0
 10 12  1  0
 12 13  1  0
 13 14  2  0
 14 15  1  0
 15 16  2  0
 16 17  1  0
 17 18  2  0
  9 19  1  0
 19 20  1  0
 20 21  2  0
 21  2  1  0
 20  6  1  0
 18 13  1  0
M  END
>  <Binding energies>  (42) 
[-7.16]

>  <Ligand effiencies>  (42) 
[-0.29833333333333334]

>  <Interactions>  (42) 
["V-A:HIS:456:CE1:4066, H-A:TYR:484:OH:4345, V-B:TYR:539:CD1:9845, V-B:ASP:366:CG:8184, V-B:TYR:539:CE1:9847, V-B:GLU:543:CD:9880, V-B:PRO:540:CB:9857, V-A:ARG:545:CZ:4924, V-B:PRO:540:CA:9855, H-B:GLU:543:OE2:9882, V-B:ASN:362:CB:8147, H-B:GLU:543:OE1:9881, V-B:PRO:540:N:9856, V-A:ARG:545:CD:4921, H-A:ARG:545:NH2:4926, V-A:ARG:545:CG:4920, H-A:ARG:545:NE:4922, V-B:ILE:538:CB:9834, V-B:ILE:538:CG2:9835, V-B:TYR:531:CE2:9765, V-B:LEU:363:CD1:8160, V-B:ASN:362:C:8143, H-A:GLY:454:N:4047, H-B:ALA:541:O:9861"]

$$$$
4ag_Grossjean_2025
     RDKit          3D

 22 24  0  0  0  0  0  0  0  0999 V2000
  127.6390  122.7500   54.2080 C   0  0  0  0  0  0  0  0  0  0  0  0
  127.2170  122.9830   55.6470 C   0  0  0  0  0  0  0  0  0  0  0  0
  125.9480  123.4730   55.9520 C   0  0  0  0  0  0  0  0  0  0  0  0
  125.5780  123.6790   57.2850 C   0  0  0  0  0  0  0  0  0  0  0  0
  124.1820  124.2140   57.5670 C   0  0  0  0  0  0  0  0  0  0  0  0
  126.5330  123.3750   58.2920 C   0  0  0  0  0  0  0  0  0  0  0  0
  126.4900  123.4640   59.7270 C   0  0  0  0  0  0  0  0  0  0  0  0
  125.3810  123.9110   60.4020 N   0  0  0  0  0  0  0  0  0  0  0  0
  127.6750  123.0590   60.3580 C   0  0  0  0  0  0  0  0  0  0  0  0
  127.9720  123.0110   61.7890 C   0  0  0  0  0  0  0  0  0  0  0  0
  127.0810  123.1250   62.6340 O   0  0  0  0  0  0  0  0  0  0  0  0
  129.2710  122.8560   62.1220 N   0  0  0  0  0  0  0  0  0  0  0  0
  129.7910  122.7570   63.4850 C   0  0  0  0  0  0  0  0  0  0  0  0
  130.9780  123.6710   63.7630 C   0  0  0  0  0  0  0  0  0  0  0  0
  130.9550  124.5240   64.8700 C   0  0  0  0  0  0  0  0  0  0  0  0
  132.0490  125.3420   65.1410 C   0  0  0  0  0  0  0  0  0  0  0  0
  133.1670  125.2970   64.3100 C   0  0  0  0  0  0  0  0  0  0  0  0
  133.2030  124.4380   63.2140 C   0  0  0  0  0  0  0  0  0  0  0  0
  132.1100  123.6190   62.9440 C   0  0  0  0  0  0  0  0  0  0  0  0
  128.8820  122.5410   59.1810 S   0  0  0  0  0  0  0  0  0  0  0  0
  127.7960  122.8790   57.8510 C   0  0  0  0  0  0  0  0  0  0  0  0
  128.1510  122.6800   56.5810 N   0  0  0  0  0  0  0  0  0  0  0  0
  1  2  1  0
  2  3  2  0
  3  4  1  0
  4  5  1  0
  4  6  2  0
  6  7  1  0
  7  8  1  0
  7  9  2  0
  9 10  1  0
 10 11  2  0
 10 12  1  0
 12 13  1  0
 13 14  1  0
 14 15  2  0
 15 16  1  0
 16 17  2  0
 17 18  1  0
 18 19  2  0
  9 20  1  0
 20 21  1  0
 21 22  2  0
 22  2  1  0
 21  6  1  0
 19 14  1  0
M  END
>  <Binding energies>  (43) 
[-7.34]

>  <Ligand effiencies>  (43) 
[-0.29359999999999997]

>  <Interactions>  (43) 
["V-A:GLY:454:CA:4046, V-B:TYR:539:CD1:9845, V-B:TYR:539:C:9839, V-B:ASP:366:CG:8184, V-B:TYR:539:CE1:9847, V-B:GLU:543:CD:9880, V-B:PRO:540:CB:9857, V-A:ARG:545:CZ:4924, V-B:PRO:540:CA:9855, H-B:ASP:366:OD2:8186, V-B:ALA:541:CB:9864, V-B:ASP:366:CB:8183, V-B:PRO:540:N:9856, V-B:ILE:538:CB:9834, H-B:TYR:539:N:9842, V-B:ILE:538:CG2:9835, V-B:ILE:538:CA:9832, V-B:MET:535:CE:9807, V-B:TYR:531:CZ:9766, H-B:ALA:541:N:9863, V-B:MET:535:CB:9804, V-B:TYR:531:CE2:9765, V-B:MET:535:CG:9805, V-B:ILE:538:C:9830, V-B:VAL:537:C:9822, V-B:ALA:541:CA:9862, V-B:LEU:363:CD1:8160, V-B:LEU:363:CA:8156"]

$$$$
4ah_Grossjean_2025
     RDKit          3D

 28 30  0  0  0  0  0  0  0  0999 V2000
  128.7580  132.5510   55.8290 C   0  0  0  0  0  0  0  0  0  0  0  0
  129.1210  133.2400   57.0200 O   0  0  0  0  0  0  0  0  0  0  0  0
  129.8740  132.5870   57.9790 C   0  0  0  0  0  0  0  0  0  0  0  0
  129.3380  132.0260   59.1490 C   0  0  0  0  0  0  0  0  0  0  0  0
  130.1600  131.3820   60.0750 C   0  0  0  0  0  0  0  0  0  0  0  0
  129.5530  130.7370   61.3160 C   0  0  0  0  0  0  0  0  0  0  0  0
  130.1120  129.4220   61.6260 N   0  0  0  0  0  0  0  0  0  0  0  0
  129.9510  128.3080   60.8800 C   0  0  0  0  0  0  0  0  0  0  0  0
  129.2640  128.2880   59.8570 O   0  0  0  0  0  0  0  0  0  0  0  0
  130.6080  127.1010   61.3800 C   0  0  0  0  0  0  0  0  0  0  0  0
  131.7400  126.2190   60.3540 S   0  0  0  0  0  0  0  0  0  0  0  0
  131.9920  125.0110   61.5950 C   0  0  0  0  0  0  0  0  0  0  0  0
  132.8190  123.9810   61.4200 N   0  0  0  0  0  0  0  0  0  0  0  0
  132.9250  123.1180   62.4590 C   0  0  0  0  0  0  0  0  0  0  0  0
  133.8690  121.9510   62.2380 C   0  0  0  0  0  0  0  0  0  0  0  0
  132.2310  123.2610   63.6580 C   0  0  0  0  0  0  0  0  0  0  0  0
  131.3600  124.3430   63.8400 C   0  0  0  0  0  0  0  0  0  0  0  0
  130.6240  124.4550   65.1660 C   0  0  0  0  0  0  0  0  0  0  0  0
  131.2220  125.2680   62.7700 C   0  0  0  0  0  0  0  0  0  0  0  0
  130.4320  126.4600   62.6150 C   0  0  0  0  0  0  0  0  0  0  0  0
  129.5950  126.9190   63.6000 N   0  0  0  0  0  0  0  0  0  0  0  0
  131.5270  131.2700   59.8210 C   0  0  0  0  0  0  0  0  0  0  0  0
  132.0920  131.8260   58.6620 C   0  0  0  0  0  0  0  0  0  0  0  0
  133.4400  131.7660   58.3550 O   0  0  0  0  0  0  0  0  0  0  0  0
  133.9100  130.7500   57.4760 C   0  0  0  0  0  0  0  0  0  0  0  0
  131.2550  132.4880   57.7530 C   0  0  0  0  0  0  0  0  0  0  0  0
  131.7920  133.0210   56.6050 O   0  0  0  0  0  0  0  0  0  0  0  0
  131.9070  132.0930   55.5350 C   0  0  0  0  0  0  0  0  0  0  0  0
  1  2  1  0
  2  3  1  0
  3  4  2  0
  4  5  1  0
  5  6  1  0
  6  7  1  0
  7  8  1  0
  8  9  2  0
  8 10  1  0
 10 11  1  0
 11 12  1  0
 12 13  2  0
 13 14  1  0
 14 15  1  0
 14 16  2  0
 16 17  1  0
 17 18  1  0
 17 19  2  0
 19 20  1  0
 20 21  1  0
  5 22  2  0
 22 23  1  0
 23 24  1  0
 24 25  1  0
 23 26  2  0
 26 27  1  0
 27 28  1  0
 26  3  1  0
 20 10  2  0
 19 12  1  0
M  END
>  <Binding energies>  (44) 
[-6.94]

>  <Ligand effiencies>  (44) 
[-0.2238709677419355]

>  <Interactions>  (44) 
["V-A:LEU:475:CD2:4256, V-A:GLY:454:CA:4046, V-B:GLU:543:CB:9878, V-B:GLU:543:CD:9880, V-A:TYR:484:CZ:4344, H-B:GLU:543:OE2:9882, V-A:ASP:366:CG:3210, H-B:GLU:543:OE1:9881, H-A:GLU:543:OE2:4908, H-A:GLU:543:OE1:4907, V-A:GLU:543:CD:4906, V-A:ILE:369:CD1:3236, V-A:TYR:539:CE1:4873, V-A:TYR:539:C:4865, V-A:PRO:540:CA:4881, V-A:PRO:540:CB:4883, V-A:PRO:540:N:4882, V-A:LEU:363:CD1:3186, V-A:ILE:538:CA:4858, V-A:TYR:539:CG:4870, V-A:ILE:538:CB:4860, V-A:MET:535:CE:4833, V-A:ILE:538:CG2:4861, V-A:TYR:531:CE2:4791, V-A:PRO:540:CD:4885, V-A:TYR:531:CZ:4792, V-A:TYR:539:CD2:4872, V-A:TYR:539:CE2:4874, V-A:TYR:539:CZ:4875, V-A:ASP:366:CB:3209, H-A:TYR:539:N:4868, V-A:LEU:363:CA:3182"]

$$$$
4ai_Grossjean_2025
     RDKit          3D

 20 22  0  0  0  0  0  0  0  0999 V2000
  131.0020  132.4880   55.9380 C   0  0  0  0  0  0  0  0  0  0  0  0
  130.5430  132.1150   57.3360 C   0  0  0  0  0  0  0  0  0  0  0  0
  131.4600  131.9700   58.3760 C   0  0  0  0  0  0  0  0  0  0  0  0
  131.0140  131.6310   59.6590 C   0  0  0  0  0  0  0  0  0  0  0  0
  132.0520  131.4870   60.7610 C   0  0  0  0  0  0  0  0  0  0  0  0
  129.6180  131.4470   59.8490 C   0  0  0  0  0  0  0  0  0  0  0  0
  128.8340  131.1040   61.0050 C   0  0  0  0  0  0  0  0  0  0  0  0
  129.4020  130.8740   62.2330 N   0  0  0  0  0  0  0  0  0  0  0  0
  127.4540  131.0360   60.7590 C   0  0  0  0  0  0  0  0  0  0  0  0
  126.3770  130.7070   61.6950 C   0  0  0  0  0  0  0  0  0  0  0  0
  125.2140  130.5920   61.3020 O   0  0  0  0  0  0  0  0  0  0  0  0
  126.7610  130.5290   62.9840 N   0  0  0  0  0  0  0  0  0  0  0  0
  125.9560  130.2040   64.0680 C   0  0  0  0  0  0  0  0  0  0  0  0
  126.4590  129.6920   65.2640 C   0  0  0  0  0  0  0  0  0  0  0  0
  125.3560  129.5030   66.0650 C   0  0  0  0  0  0  0  0  0  0  0  0
  124.2470  129.8810   65.3870 O   0  0  0  0  0  0  0  0  0  0  0  0
  124.6390  130.3250   64.1230 N   0  0  0  0  0  0  0  0  0  0  0  0
  127.0920  131.3730   59.0650 S   0  0  0  0  0  0  0  0  0  0  0  0
  128.7850  131.6240   58.7030 C   0  0  0  0  0  0  0  0  0  0  0  0
  129.2060  131.9460   57.4800 N   0  0  0  0  0  0  0  0  0  0  0  0
  1  2  1  0
  2  3  2  0
  3  4  1  0
  4  5  1  0
  4  6  2  0
  6  7  1  0
  7  8  1  0
  7  9  2  0
  9 10  1  0
 10 11  2  0
 10 12  1  0
 12 13  1  0
 13 14  1  0
 14 15  2  0
 15 16  1  0
 16 17  1  0
  9 18  1  0
 18 19  1  0
 19 20  2  0
 20  2  1  0
 19  6  1  0
 17 13  2  0
M  END
>  <Binding energies>  (45) 
[-6.84]

>  <Ligand effiencies>  (45) 
[-0.29739130434782607]

>  <Interactions>  (45) 
["V-B:HIS:456:CE1:9040, V-B:ARG:545:CZ:9898, H-A:GLU:543:OE2:4908, H-A:GLU:543:OE1:4907, V-A:GLU:543:CD:4906, V-A:TYR:539:CE1:4873, H-B:ARG:545:NE:9896, V-A:PRO:540:CA:4881, V-B:ARG:545:CD:9895, V-A:TYR:539:CD1:4871, V-B:ARG:545:CG:9894, V-A:PRO:540:CB:4883, V-A:PRO:540:N:4882, V-A:ILE:538:CA:4858, V-A:ILE:538:CB:4860, V-A:MET:535:CE:4833, V-A:ILE:538:CG2:4861, H-B:TYR:484:OH:9319, H-B:GLY:454:N:9021, V-A:TYR:539:CZ:4875"]

$$$$
4aj_Grossjean_2025
     RDKit          3D

 20 22  0  0  0  0  0  0  0  0999 V2000
  126.1220  117.4980   71.2430 C   0  0  0  0  0  0  0  0  0  0  0  0
  126.9520  118.3400   72.1950 C   0  0  0  0  0  0  0  0  0  0  0  0
  127.2290  117.8970   73.4870 C   0  0  0  0  0  0  0  0  0  0  0  0
  127.9920  118.6920   74.3500 C   0  0  0  0  0  0  0  0  0  0  0  0
  128.2680  118.1650   75.7500 C   0  0  0  0  0  0  0  0  0  0  0  0
  128.4610  119.9410   73.8620 C   0  0  0  0  0  0  0  0  0  0  0  0
  129.2490  120.9830   74.4640 C   0  0  0  0  0  0  0  0  0  0  0  0
  129.7100  120.9010   75.7530 N   0  0  0  0  0  0  0  0  0  0  0  0
  129.5010  122.0700   73.6120 C   0  0  0  0  0  0  0  0  0  0  0  0
  130.2520  123.2950   73.8970 C   0  0  0  0  0  0  0  0  0  0  0  0
  129.7390  124.4020   73.7220 O   0  0  0  0  0  0  0  0  0  0  0  0
  131.5100  123.1100   74.3660 N   0  0  0  0  0  0  0  0  0  0  0  0
  132.4200  124.0960   74.7210 C   0  0  0  0  0  0  0  0  0  0  0  0
  133.5530  123.9520   75.3740 N   0  0  0  0  0  0  0  0  0  0  0  0
  134.1710  125.1060   75.5350 C   0  0  0  0  0  0  0  0  0  0  0  0
  133.5330  126.2250   75.0050 C   0  0  0  0  0  0  0  0  0  0  0  0
  132.0460  125.7240   74.2560 S   0  0  0  0  0  0  0  0  0  0  0  0
  128.7450  121.8330   72.0350 S   0  0  0  0  0  0  0  0  0  0  0  0
  128.1100  120.2770   72.5200 C   0  0  0  0  0  0  0  0  0  0  0  0
  127.3830  119.5230   71.6950 N   0  0  0  0  0  0  0  0  0  0  0  0
  1  2  1  0
  2  3  2  0
  3  4  1  0
  4  5  1  0
  4  6  2  0
  6  7  1  0
  7  8  1  0
  7  9  2  0
  9 10  1  0
 10 11  2  0
 10 12  1  0
 12 13  1  0
 13 14  2  0
 14 15  1  0
 15 16  2  0
 16 17  1  0
  9 18  1  0
 18 19  1  0
 19 20  2  0
 20  2  1  0
 19  6  1  0
 17 13  1  0
M  END
>  <Binding energies>  (46) 
[-6.38]

>  <Ligand effiencies>  (46) 
[-0.2773913043478261]

>  <Interactions>  (46) 
["V-B:LYS:547:CE:9922, V-A:VAL:458:CG2:4084, H-B:LYS:547:NZ:9923, V-A:HIS:456:CD2:4065, V-A:LYS:547:CD:4947, V-A:LYS:471:CD:4216, V-A:HIS:456:CB:4062, V-A:ASP:473:CG:4237, V-A:HIS:456:CG:4063, V-A:HIS:456:C:4058, V-B:GLY:544:CA:9886, V-B:GLU:543:C:9874, V-A:TYR:484:CD2:4341, H-A:ASP:473:OD2:4239, V-A:TYR:484:CB:4338, V-A:TYR:484:CG:4339, V-B:GLU:543:CA:9876, V-A:SER:483:CA:4328, H-A:TYR:484:N:4337, V-A:SER:483:CB:4330, V-B:VAL:542:CG1:9871, V-B:VAL:542:CB:9870"]

$$$$
4ak_Grossjean_2025
     RDKit          3D

 25 26  0  0  0  0  0  0  0  0999 V2000
  130.2800  124.9500   56.1710 C   0  0  0  0  0  0  0  0  0  0  0  0
  131.3960  125.7790   55.8840 O   0  0  0  0  0  0  0  0  0  0  0  0
  132.4000  125.7450   56.8910 C   0  0  0  0  0  0  0  0  0  0  0  0
  131.8440  125.0560   58.1440 C   0  0  0  0  0  0  0  0  0  0  0  0
  132.6830  123.9620   58.4910 O   0  0  0  0  0  0  0  0  0  0  0  0
  134.0700  124.2290   58.3320 C   0  0  0  0  0  0  0  0  0  0  0  0
  134.7400  124.2670   59.7110 C   0  0  0  0  0  0  0  0  0  0  0  0
  133.7760  123.9620   60.7100 O   0  0  0  0  0  0  0  0  0  0  0  0
  133.7730  122.5960   61.1060 C   0  0  0  0  0  0  0  0  0  0  0  0
  132.4920  122.3030   61.9080 C   0  0  0  0  0  0  0  0  0  0  0  0
  131.2610  122.5320   61.1500 N   0  0  0  0  0  0  0  0  0  0  0  0
  130.0230  122.6100   61.6780 C   0  0  0  0  0  0  0  0  0  0  0  0
  129.8140  122.5130   62.8890 O   0  0  0  0  0  0  0  0  0  0  0  0
  128.9320  122.8270   60.7300 C   0  0  0  0  0  0  0  0  0  0  0  0
  129.2340  122.7540   58.9940 S   0  0  0  0  0  0  0  0  0  0  0  0
  127.5520  123.0810   58.6420 C   0  0  0  0  0  0  0  0  0  0  0  0
  127.0970  123.1660   57.3910 N   0  0  0  0  0  0  0  0  0  0  0  0
  125.7730  123.4270   57.2560 C   0  0  0  0  0  0  0  0  0  0  0  0
  125.2750  123.5190   55.8260 C   0  0  0  0  0  0  0  0  0  0  0  0
  124.9040  123.6000   58.3310 C   0  0  0  0  0  0  0  0  0  0  0  0
  125.3850  123.5100   59.6430 C   0  0  0  0  0  0  0  0  0  0  0  0
  124.3980  123.7110   60.7820 C   0  0  0  0  0  0  0  0  0  0  0  0
  126.7680  123.2390   59.8240 C   0  0  0  0  0  0  0  0  0  0  0  0
  127.5790  123.0830   61.0010 C   0  0  0  0  0  0  0  0  0  0  0  0
  127.0600  123.1830   62.2680 N   0  0  0  0  0  0  0  0  0  0  0  0
  1  2  1  0
  2  3  1  0
  3  4  1  0
  4  5  1  0
  5  6  1  0
  6  7  1  0
  7  8  1  0
  8  9  1  0
  9 10  1  0
 10 11  1  0
 11 12  1  0
 12 13  2  0
 12 14  1  0
 14 15  1  0
 15 16  1  0
 16 17  2  0
 17 18  1  0
 18 19  1  0
 18 20  2  0
 20 21  1  0
 21 22  1  0
 21 23  2  0
 23 24  1  0
 24 25  1  0
 24 14  2  0
 23 16  1  0
M  END
>  <Binding energies>  (47) 
[-5.52]

>  <Ligand effiencies>  (47) 
[-0.19714285714285712]

>  <Interactions>  (47) 
["V-A:LEU:475:CD2:4256, V-B:TYR:539:CD1:9845, V-B:TYR:539:C:9839, V-B:ASP:366:CG:8184, V-B:PRO:540:C:9853, V-B:TYR:539:CE1:9847, V-B:GLU:543:CD:9880, V-B:PRO:540:CB:9857, V-B:PRO:540:CA:9855, V-B:ALA:541:CB:9864, V-B:ASN:362:CB:8147, V-A:ASP:366:CG:3210, H-B:GLU:543:OE1:9881, V-B:PRO:540:N:9856, V-A:ILE:369:CD1:3236, V-B:ILE:538:CB:9834, V-B:TYR:539:CZ:9849, V-B:ILE:538:CG2:9835, V-A:TYR:531:CZ:4792, V-B:MET:535:CE:9807, V-A:ILE:369:CG2:3234, V-A:ILE:369:CB:3233, H-A:TYR:531:OH:4793, V-B:TYR:531:CZ:9766, V-A:ASP:366:C:3205, H-A:ASN:370:ND2:3245, V-A:ASP:366:CB:3209, V-A:ASP:366:CA:3207, V-B:TYR:531:CE2:9765, H-B:TYR:539:OH:9850, V-A:TYR:531:CE1:4790, V-B:ALA:541:CA:9862, V-B:LEU:363:CD1:8160, V-B:ASN:362:C:8143, V-A:ILE:369:CG1:3235, H-B:ALA:541:O:9861"]

$$$$
4al_Grossjean_2025
     RDKit          3D

 16 17  0  0  0  0  0  0  0  0999 V2000
  129.6210  123.8650   62.3780 C   0  0  0  0  0  0  0  0  0  0  0  0
  128.5760  122.9040   62.3720 O   0  0  0  0  0  0  0  0  0  0  0  0
  127.3510  123.2100   61.8700 C   0  0  0  0  0  0  0  0  0  0  0  0
  126.3790  123.5190   62.5630 O   0  0  0  0  0  0  0  0  0  0  0  0
  127.2990  123.1340   60.3930 C   0  0  0  0  0  0  0  0  0  0  0  0
  128.7160  122.5980   59.4870 S   0  0  0  0  0  0  0  0  0  0  0  0
  127.8680  122.7880   57.9700 C   0  0  0  0  0  0  0  0  0  0  0  0
  128.4490  122.5180   56.8000 N   0  0  0  0  0  0  0  0  0  0  0  0
  127.6820  122.7070   55.6970 C   0  0  0  0  0  0  0  0  0  0  0  0
  128.3620  122.3940   54.3760 C   0  0  0  0  0  0  0  0  0  0  0  0
  126.3640  123.1550   55.7380 C   0  0  0  0  0  0  0  0  0  0  0  0
  125.7580  123.4370   56.9660 C   0  0  0  0  0  0  0  0  0  0  0  0
  124.3170  123.9240   56.9600 C   0  0  0  0  0  0  0  0  0  0  0  0
  126.5310  123.2510   58.1440 C   0  0  0  0  0  0  0  0  0  0  0  0
  126.2340  123.4400   59.5370 C   0  0  0  0  0  0  0  0  0  0  0  0
  125.0130  123.8800   59.9800 N   0  0  0  0  0  0  0  0  0  0  0  0
  1  2  1  0
  2  3  1  0
  3  4  2  0
  3  5  1  0
  5  6  1  0
  6  7  1  0
  7  8  2  0
  8  9  1  0
  9 10  1  0
  9 11  2  0
 11 12  1  0
 12 13  1  0
 12 14  2  0
 14 15  1  0
 15 16  1  0
 15  5  2  0
 14  7  1  0
M  END
>  <Binding energies>  (48) 
[-5.69]

>  <Ligand effiencies>  (48) 
[-0.3161111111111111]

>  <Interactions>  (48) 
["V-B:TYR:539:CD1:9845, V-B:TYR:539:C:9839, V-B:ASP:366:CG:8184, V-B:PRO:540:C:9853, V-B:TYR:539:CE1:9847, V-B:PRO:540:CB:9857, V-B:PRO:540:CA:9855, H-B:ASP:366:OD2:8186, V-B:ALA:541:CB:9864, V-B:PRO:540:N:9856, H-B:ARG:545:NH2:9900, V-B:TYR:539:CE2:9848, V-B:ILE:538:CB:9834, H-B:TYR:539:N:9842, V-B:TYR:539:CD2:9846, V-B:ILE:538:CG2:9835, V-B:ILE:538:CA:9832, V-B:MET:535:CE:9807, V-B:TYR:531:CZ:9766, H-B:ALA:541:N:9863, V-B:TYR:531:CE2:9765, V-B:ILE:538:C:9830, V-B:VAL:537:C:9822, V-B:ALA:541:CA:9862, V-B:LEU:363:CD1:8160"]

$$$$
4bc_Grossjean_2025
     RDKit          3D

 26 28  0  0  0  0  0  0  0  0999 V2000
  123.8770  129.8140   67.5850 C   0  0  0  0  0  0  0  0  0  0  0  0
  123.7330  129.4960   66.2050 O   0  0  0  0  0  0  0  0  0  0  0  0
  124.8000  129.7040   65.3510 C   0  0  0  0  0  0  0  0  0  0  0  0
  124.4870  129.9740   64.0190 C   0  0  0  0  0  0  0  0  0  0  0  0
  125.4960  130.1960   63.0850 C   0  0  0  0  0  0  0  0  0  0  0  0
  126.8360  130.1590   63.4750 C   0  0  0  0  0  0  0  0  0  0  0  0
  127.7840  130.3800   62.4600 N   0  0  0  0  0  0  0  0  0  0  0  0
  127.7150  130.0760   61.1410 C   0  0  0  0  0  0  0  0  0  0  0  0
  126.7630  129.4940   60.6190 O   0  0  0  0  0  0  0  0  0  0  0  0
  128.8740  130.4810   60.3400 C   0  0  0  0  0  0  0  0  0  0  0  0
  128.7400  130.6110   58.5880 S   0  0  0  0  0  0  0  0  0  0  0  0
  130.4140  131.0950   58.4490 C   0  0  0  0  0  0  0  0  0  0  0  0
  130.9630  131.3660   57.2660 N   0  0  0  0  0  0  0  0  0  0  0  0
  132.2670  131.7280   57.2850 C   0  0  0  0  0  0  0  0  0  0  0  0
  132.8720  132.0370   55.9280 C   0  0  0  0  0  0  0  0  0  0  0  0
  133.0270  131.8240   58.4490 C   0  0  0  0  0  0  0  0  0  0  0  0
  132.4530  131.5400   59.6970 C   0  0  0  0  0  0  0  0  0  0  0  0
  133.3300  131.6570   60.9490 C   0  0  0  0  0  0  0  0  0  0  0  0
  132.8260  132.4880   61.8630 F   0  0  0  0  0  0  0  0  0  0  0  0
  133.4580  130.4610   61.5230 F   0  0  0  0  0  0  0  0  0  0  0  0
  134.5360  132.1160   60.6140 F   0  0  0  0  0  0  0  0  0  0  0  0
  131.0790  131.1560   59.7120 C   0  0  0  0  0  0  0  0  0  0  0  0
  130.1690  130.8010   60.7750 C   0  0  0  0  0  0  0  0  0  0  0  0
  130.5450  130.7820   62.0940 N   0  0  0  0  0  0  0  0  0  0  0  0
  127.1590  129.8740   64.8110 C   0  0  0  0  0  0  0  0  0  0  0  0
  126.1480  129.6520   65.7410 C   0  0  0  0  0  0  0  0  0  0  0  0
  1  2  1  0
  2  3  1  0
  3  4  2  0
  4  5  1  0
  5  6  2  0
  6  7  1  0
  7  8  1  0
  8  9  2  0
  8 10  1  0
 10 11  1  0
 11 12  1  0
 12 13  2  0
 13 14  1  0
 14 15  1  0
 14 16  2  0
 16 17  1  0
 17 18  1  0
 18 19  1  0
 18 20  1  0
 18 21  1  0
 17 22  2  0
 22 23  1  0
 23 24  1  0
  6 25  1  0
 25 26  2  0
 26  3  1  0
 23 10  2  0
 22 12  1  0
M  END
>  <Binding energies>  (49) 
[-5.86]

>  <Ligand effiencies>  (49) 
[-0.20206896551724138]

>  <Interactions>  (49) 
["V-B:HIS:456:CE1:9040, V-A:ARG:545:CZ:4924, V-B:ARG:545:CZ:9898, V-A:ASP:366:CG:3210, H-A:GLU:543:OE2:4908, H-A:GLU:543:OE1:4907, V-A:GLU:543:CD:4906, H-B:ARG:545:NE:9896, V-B:GLY:453:CA:9015, V-A:PRO:540:CA:4881, V-B:ARG:545:CD:9895, V-B:ARG:545:CG:9894, V-A:PRO:540:CB:4883, V-A:LEU:363:CD1:3186, V-A:ILE:538:CB:4860, V-A:ILE:538:CG2:4861, V-A:TYR:531:CE2:4791, V-A:TYR:531:CZ:4792, H-B:TYR:484:OH:9319, H-B:GLY:454:N:9021, H-A:TYR:531:OH:4793, V-B:TYR:484:CZ:9318, V-A:PRO:540:C:4879, V-B:GLY:454:CA:9020, V-A:LEU:363:CA:3182, V-A:LEU:363:CB:3184, V-A:ALA:541:CA:4888, V-A:ASN:362:CB:3173, V-A:ASN:362:C:3169, H-A:ALA:541:O:4887, V-A:ALA:541:C:4886, V-B:GLY:454:C:9018, V-B:ARG:545:CB:9893, V-A:ASN:362:CA:3171, V-B:ILE:455:C:9023, V-B:TYR:484:CE1:9316"]

$$$$
4bf_Grossjean_2025
     RDKit          3D

 24 26  0  0  0  0  0  0  0  0999 V2000
  132.2230  132.3040   55.9110 C   0  0  0  0  0  0  0  0  0  0  0  0
  131.7090  132.0530   57.3190 C   0  0  0  0  0  0  0  0  0  0  0  0
  132.5900  131.8840   58.3840 C   0  0  0  0  0  0  0  0  0  0  0  0
  132.1020  131.6500   59.6780 C   0  0  0  0  0  0  0  0  0  0  0  0
  133.1090  131.4670   60.8190 C   0  0  0  0  0  0  0  0  0  0  0  0
  133.1060  132.4840   61.6860 F   0  0  0  0  0  0  0  0  0  0  0  0
  132.8220  130.3590   61.5020 F   0  0  0  0  0  0  0  0  0  0  0  0
  134.3420  131.3720   60.3210 F   0  0  0  0  0  0  0  0  0  0  0  0
  130.6860  131.5940   59.8420 C   0  0  0  0  0  0  0  0  0  0  0  0
  129.8380  131.3760   60.9880 C   0  0  0  0  0  0  0  0  0  0  0  0
  130.3380  131.1690   62.2490 N   0  0  0  0  0  0  0  0  0  0  0  0
  128.4630  131.4000   60.7000 C   0  0  0  0  0  0  0  0  0  0  0  0
  127.3340  131.1860   61.6100 C   0  0  0  0  0  0  0  0  0  0  0  0
  126.2100  131.5990   61.3240 O   0  0  0  0  0  0  0  0  0  0  0  0
  127.6260  130.5050   62.7460 N   0  0  0  0  0  0  0  0  0  0  0  0
  126.7940  130.1800   63.8340 C   0  0  0  0  0  0  0  0  0  0  0  0
  127.2360  129.7520   65.0990 C   0  0  0  0  0  0  0  0  0  0  0  0
  126.3020  129.4460   66.0900 C   0  0  0  0  0  0  0  0  0  0  0  0
  124.9450  129.5700   65.7910 C   0  0  0  0  0  0  0  0  0  0  0  0
  124.4920  129.9730   64.5770 N   0  0  0  0  0  0  0  0  0  0  0  0
  125.4130  130.2670   63.6230 C   0  0  0  0  0  0  0  0  0  0  0  0
  128.1780  131.6900   58.9850 S   0  0  0  0  0  0  0  0  0  0  0  0
  129.8940  131.7840   58.6670 C   0  0  0  0  0  0  0  0  0  0  0  0
  130.3620  132.0070   57.4400 N   0  0  0  0  0  0  0  0  0  0  0  0
  1  2  1  0
  2  3  2  0
  3  4  1  0
  4  5  1  0
  5  6  1  0
  5  7  1  0
  5  8  1  0
  4  9  2  0
  9 10  1  0
 10 11  1  0
 10 12  2  0
 12 13  1  0
 13 14  2  0
 13 15  1  0
 15 16  1  0
 16 17  2  0
 17 18  1  0
 18 19  2  0
 19 20  1  0
 20 21  2  0
 12 22  1  0
 22 23  1  0
 23 24  2  0
 24  2  1  0
 23  9  1  0
 21 16  1  0
M  END
>  <Binding energies>  (50) 
[-6.81]

>  <Ligand effiencies>  (50) 
[-0.2522222222222222]

>  <Interactions>  (50) 
["V-B:HIS:456:CE1:9040, V-A:ARG:545:CZ:4924, V-B:ARG:545:CZ:9898, V-A:ASP:366:CG:3210, H-A:GLU:543:OE2:4908, H-A:GLU:543:OE1:4907, V-A:GLU:543:CD:4906, H-B:ARG:545:NH2:9900, V-A:TYR:539:CE1:4873, H-B:ARG:545:NE:9896, V-A:PRO:540:CA:4881, V-B:ARG:545:CD:9895, V-A:TYR:539:CD1:4871, V-B:ARG:545:CG:9894, V-A:PRO:540:CB:4883, V-A:PRO:540:N:4882, V-A:LEU:363:CD1:3186, V-A:ILE:538:CB:4860, V-A:ILE:538:CG2:4861, V-A:TYR:531:CE2:4791, H-B:TYR:484:OH:9319, H-B:GLY:454:N:9021, V-A:PRO:540:C:4879, V-A:LEU:363:CA:3182, V-A:ALA:541:CA:4888, V-A:ASN:362:CB:3173, V-A:ASN:362:C:3169, H-A:ALA:541:O:4887, V-A:ALA:541:C:4886, V-A:ASN:362:CA:3171"]

$$$$
4bh_Grossjean_2025
     RDKit          3D

 31 33  0  0  0  0  0  0  0  0999 V2000
  129.8970  121.0170   61.4270 C   0  0  0  0  0  0  0  0  0  0  0  0
  131.2640  121.1170   61.8100 O   0  0  0  0  0  0  0  0  0  0  0  0
  131.9270  122.3200   61.6560 C   0  0  0  0  0  0  0  0  0  0  0  0
  132.1590  122.9350   60.4160 C   0  0  0  0  0  0  0  0  0  0  0  0
  132.8380  124.1510   60.3350 C   0  0  0  0  0  0  0  0  0  0  0  0
  133.0400  124.8260   58.9840 C   0  0  0  0  0  0  0  0  0  0  0  0
  131.9660  125.7520   58.6270 N   0  0  0  0  0  0  0  0  0  0  0  0
  131.6480  126.1350   57.3720 C   0  0  0  0  0  0  0  0  0  0  0  0
  132.2810  125.7580   56.3840 O   0  0  0  0  0  0  0  0  0  0  0  0
  130.5280  127.0690   57.2500 C   0  0  0  0  0  0  0  0  0  0  0  0
  128.9430  126.4840   56.7550 S   0  0  0  0  0  0  0  0  0  0  0  0
  128.2810  128.1010   56.8120 C   0  0  0  0  0  0  0  0  0  0  0  0
  127.0040  128.3400   56.5190 N   0  0  0  0  0  0  0  0  0  0  0  0
  126.6070  129.6310   56.6010 C   0  0  0  0  0  0  0  0  0  0  0  0
  125.1480  129.8810   56.2620 C   0  0  0  0  0  0  0  0  0  0  0  0
  127.4480  130.6790   56.9680 C   0  0  0  0  0  0  0  0  0  0  0  0
  128.7950  130.4330   57.2760 C   0  0  0  0  0  0  0  0  0  0  0  0
  129.6820  131.6170   57.6760 C   0  0  0  0  0  0  0  0  0  0  0  0
  130.1960  131.4950   58.9020 F   0  0  0  0  0  0  0  0  0  0  0  0
  130.7020  131.7250   56.8260 F   0  0  0  0  0  0  0  0  0  0  0  0
  128.9690  132.7430   57.6530 F   0  0  0  0  0  0  0  0  0  0  0  0
  129.2470  129.0830   57.1960 C   0  0  0  0  0  0  0  0  0  0  0  0
  130.5280  128.4610   57.4270 C   0  0  0  0  0  0  0  0  0  0  0  0
  131.6420  129.1710   57.7940 N   0  0  0  0  0  0  0  0  0  0  0  0
  133.2670  124.7780   61.5070 C   0  0  0  0  0  0  0  0  0  0  0  0
  133.0550  124.1840   62.7600 C   0  0  0  0  0  0  0  0  0  0  0  0
  133.4650  124.7410   63.9580 O   0  0  0  0  0  0  0  0  0  0  0  0
  132.5020  125.3590   64.8050 C   0  0  0  0  0  0  0  0  0  0  0  0
  132.3890  122.9510   62.8210 C   0  0  0  0  0  0  0  0  0  0  0  0
  132.1590  122.3660   64.0440 O   0  0  0  0  0  0  0  0  0  0  0  0
  130.8060  122.4360   64.4720 C   0  0  0  0  0  0  0  0  0  0  0  0
  1  2  1  0
  2  3  1  0
  3  4  2  0
  4  5  1  0
  5  6  1  0
  6  7  1  0
  7  8  1  0
  8  9  2  0
  8 10  1  0
 10 11  1  0
 11 12  1  0
 12 13  2  0
 13 14  1  0
 14 15  1  0
 14 16  2  0
 16 17  1  0
 17 18  1  0
 18 19  1  0
 18 20  1  0
 18 21  1  0
 17 22  2  0
 22 23  1  0
 23 24  1  0
  5 25  2  0
 25 26  1  0
 26 27  1  0
 27 28  1  0
 26 29  2  0
 29 30  1  0
 30 31  1  0
 29  3  1  0
 23 10  2  0
 22 12  1  0
M  END
>  <Binding energies>  (51) 
[-6.19]

>  <Ligand effiencies>  (51) 
[-0.18205882352941177]

>  <Interactions>  (51) 
["V-A:LEU:475:CD2:4256, H-A:TYR:484:OH:4345, V-B:TYR:539:CD1:9845, V-A:TYR:484:CE2:4343, V-B:TYR:539:CE1:9847, V-A:ARG:545:CZ:4924, V-B:ALA:541:CB:9864, V-A:TYR:484:CZ:4344, H-A:ASP:366:OD2:3212, H-A:ASP:366:OD1:3211, V-A:ASP:366:CG:3210, H-B:TYR:531:OH:9767, V-A:TYR:539:CE1:4873, V-A:TYR:539:C:4865, V-A:PRO:540:CA:4881, V-A:TYR:539:CD1:4871, V-A:TYR:539:CG:4870, V-A:MET:535:CE:4833, V-A:TYR:531:CZ:4792, V-B:MET:535:CE:9807, H-A:TYR:531:OH:4793, V-B:TYR:531:CZ:9766, V-A:TYR:539:CD2:4872, V-A:TYR:539:CE2:4874, V-B:TYR:531:CE1:9764, V-A:TYR:539:CZ:4875, V-B:ASN:370:CG:8217, V-A:ASP:366:CB:3209, V-A:ASP:366:CA:3207, H-B:TYR:539:OH:9850, H-A:GLY:454:N:4047, V-B:ASN:370:CB:8216"]

$$$$
4bi_Grossjean_2025
     RDKit          3D

 23 25  0  0  0  0  0  0  0  0999 V2000
  132.1070  132.1830   55.9190 C   0  0  0  0  0  0  0  0  0  0  0  0
  131.5670  131.9750   57.3220 C   0  0  0  0  0  0  0  0  0  0  0  0
  132.4260  131.8080   58.4050 C   0  0  0  0  0  0  0  0  0  0  0  0
  131.9120  131.6210   59.6990 C   0  0  0  0  0  0  0  0  0  0  0  0
  132.8960  131.4500   60.8600 C   0  0  0  0  0  0  0  0  0  0  0  0
  134.1690  131.3910   60.4610 F   0  0  0  0  0  0  0  0  0  0  0  0
  132.7890  132.4810   61.6980 F   0  0  0  0  0  0  0  0  0  0  0  0
  132.6310  130.3200   61.5150 F   0  0  0  0  0  0  0  0  0  0  0  0
  130.4920  131.6070   59.8400 C   0  0  0  0  0  0  0  0  0  0  0  0
  129.6210  131.4410   60.9780 C   0  0  0  0  0  0  0  0  0  0  0  0
  130.0930  131.2390   62.2500 N   0  0  0  0  0  0  0  0  0  0  0  0
  128.2520  131.5110   60.6690 C   0  0  0  0  0  0  0  0  0  0  0  0
  127.1040  131.3720   61.5690 C   0  0  0  0  0  0  0  0  0  0  0  0
  126.0150  131.8740   61.2820 O   0  0  0  0  0  0  0  0  0  0  0  0
  127.3320  130.6530   62.6960 N   0  0  0  0  0  0  0  0  0  0  0  0
  126.4270  130.3570   63.7070 C   0  0  0  0  0  0  0  0  0  0  0  0
  126.7790  129.6680   64.8670 C   0  0  0  0  0  0  0  0  0  0  0  0
  125.6170  129.5810   65.5990 C   0  0  0  0  0  0  0  0  0  0  0  0
  124.6160  130.1870   64.9150 O   0  0  0  0  0  0  0  0  0  0  0  0
  125.1430  130.6740   63.7170 N   0  0  0  0  0  0  0  0  0  0  0  0
  128.0010  131.7610   58.9430 S   0  0  0  0  0  0  0  0  0  0  0  0
  129.7240  131.7900   58.6490 C   0  0  0  0  0  0  0  0  0  0  0  0
  130.2180  131.9690   57.4240 N   0  0  0  0  0  0  0  0  0  0  0  0
  1  2  1  0
  2  3  2  0
  3  4  1  0
  4  5  1  0
  5  6  1  0
  5  7  1  0
  5  8  1  0
  4  9  2  0
  9 10  1  0
 10 11  1  0
 10 12  2  0
 12 13  1  0
 13 14  2  0
 13 15  1  0
 15 16  1  0
 16 17  1  0
 17 18  2  0
 18 19  1  0
 19 20  1  0
 12 21  1  0
 21 22  1  0
 22 23  2  0
 23  2  1  0
 22  9  1  0
 20 16  2  0
M  END
>  <Binding energies>  (52) 
[-6.5]

>  <Ligand effiencies>  (52) 
[-0.25]

>  <Interactions>  (52) 
["V-A:ARG:545:CZ:4924, V-B:ARG:545:CZ:9898, V-A:ASP:366:CG:3210, H-A:GLU:543:OE2:4908, H-A:GLU:543:OE1:4907, V-A:GLU:543:CD:4906, V-A:TYR:539:CE1:4873, H-B:ARG:545:NE:9896, V-A:PRO:540:CA:4881, V-A:TYR:539:CD1:4871, V-A:PRO:540:CB:4883, V-A:PRO:540:N:4882, V-A:LEU:363:CD1:3186, V-A:ILE:538:CB:4860, V-A:ILE:538:CG2:4861, V-A:TYR:531:CE2:4791, H-B:TYR:484:OH:9319, H-B:GLY:454:N:9021, V-A:TYR:539:CZ:4875, V-A:PRO:540:C:4879, V-A:LEU:363:CA:3182, V-A:ALA:541:CA:4888, V-A:ASN:362:CB:3173, V-A:ASN:362:C:3169, H-A:ALA:541:O:4887, V-A:ALA:541:C:4886, V-A:ASN:362:CA:3171"]

$$$$
4bj_Grossjean_2025
     RDKit          3D

 23 25  0  0  0  0  0  0  0  0999 V2000
  126.1270  117.4930   71.2680 C   0  0  0  0  0  0  0  0  0  0  0  0
  126.9630  118.3280   72.2210 C   0  0  0  0  0  0  0  0  0  0  0  0
  127.2480  117.8790   73.5080 C   0  0  0  0  0  0  0  0  0  0  0  0
  128.0180  118.6640   74.3800 C   0  0  0  0  0  0  0  0  0  0  0  0
  128.3030  118.1290   75.7880 C   0  0  0  0  0  0  0  0  0  0  0  0
  127.7250  116.9500   76.0250 F   0  0  0  0  0  0  0  0  0  0  0  0
  129.6160  117.9720   75.9540 F   0  0  0  0  0  0  0  0  0  0  0  0
  127.8430  118.9890   76.6980 F   0  0  0  0  0  0  0  0  0  0  0  0
  128.4840  119.9190   73.8880 C   0  0  0  0  0  0  0  0  0  0  0  0
  129.2760  120.9720   74.4780 C   0  0  0  0  0  0  0  0  0  0  0  0
  129.7510  120.9110   75.7630 N   0  0  0  0  0  0  0  0  0  0  0  0
  129.5200  122.0550   73.6190 C   0  0  0  0  0  0  0  0  0  0  0  0
  130.2700  123.2840   73.8900 C   0  0  0  0  0  0  0  0  0  0  0  0
  129.7610  124.3900   73.6930 O   0  0  0  0  0  0  0  0  0  0  0  0
  131.5230  123.1080   74.3750 N   0  0  0  0  0  0  0  0  0  0  0  0
  132.4310  124.0990   74.7220 C   0  0  0  0  0  0  0  0  0  0  0  0
  133.5680  123.9630   75.3690 N   0  0  0  0  0  0  0  0  0  0  0  0
  134.1810  125.1200   75.5210 C   0  0  0  0  0  0  0  0  0  0  0  0
  133.5360  126.2330   74.9900 C   0  0  0  0  0  0  0  0  0  0  0  0
  132.0440  125.7250   74.2560 S   0  0  0  0  0  0  0  0  0  0  0  0
  128.7530  121.8130   72.0510 S   0  0  0  0  0  0  0  0  0  0  0  0
  128.1250  120.2590   72.5480 C   0  0  0  0  0  0  0  0  0  0  0  0
  127.3920  119.5110   71.7240 N   0  0  0  0  0  0  0  0  0  0  0  0
  1  2  1  0
  2  3  2  0
  3  4  1  0
  4  5  1  0
  5  6  1  0
  5  7  1  0
  5  8  1  0
  4  9  2  0
  9 10  1  0
 10 11  1  0
 10 12  2  0
 12 13  1  0
 13 14  2  0
 13 15  1  0
 15 16  1  0
 16 17  2  0
 17 18  1  0
 18 19  2  0
 19 20  1  0
 12 21  1  0
 21 22  1  0
 22 23  2  0
 23  2  1  0
 22  9  1  0
 20 16  1  0
M  END
>  <Binding energies>  (53) 
[-6.04]

>  <Ligand effiencies>  (53) 
[-0.2323076923076923]

>  <Interactions>  (53) 
["V-B:LYS:547:CE:9922, V-A:VAL:458:CG2:4084, H-B:LYS:547:NZ:9923, V-A:HIS:456:CD2:4065, V-A:LYS:547:CD:4947, V-A:LYS:471:CD:4216, V-A:HIS:456:CB:4062, V-A:ASP:473:CG:4237, V-A:HIS:456:CG:4063, V-A:HIS:456:C:4058, V-B:GLY:544:CA:9886, V-B:GLU:543:C:9874, V-A:TYR:484:CD2:4341, H-A:ASP:473:OD2:4239, V-A:TYR:484:CB:4338, V-A:TYR:484:CG:4339, V-B:GLU:543:CA:9876, V-A:SER:483:CA:4328, H-A:TYR:484:N:4337, V-A:SER:483:CB:4330, V-B:VAL:542:CG1:9871, V-B:VAL:542:CB:9870"]

$$$$
4bk_Grossjean_2025
     RDKit          3D

 28 29  0  0  0  0  0  0  0  0999 V2000
  132.2490  125.7260   56.9300 C   0  0  0  0  0  0  0  0  0  0  0  0
  131.3100  125.8000   55.8680 O   0  0  0  0  0  0  0  0  0  0  0  0
  130.3880  124.7180   55.8530 C   0  0  0  0  0  0  0  0  0  0  0  0
  129.8460  124.4860   57.2690 C   0  0  0  0  0  0  0  0  0  0  0  0
  128.9860  123.3550   57.2660 O   0  0  0  0  0  0  0  0  0  0  0  0
  128.7440  122.8210   55.9720 C   0  0  0  0  0  0  0  0  0  0  0  0
  127.2360  122.8310   55.6890 C   0  0  0  0  0  0  0  0  0  0  0  0
  126.5440  122.3050   56.8120 O   0  0  0  0  0  0  0  0  0  0  0  0
  125.3140  122.9640   57.0900 C   0  0  0  0  0  0  0  0  0  0  0  0
  125.3690  123.5730   58.5020 C   0  0  0  0  0  0  0  0  0  0  0  0
  126.6840  123.4650   59.1370 N   0  0  0  0  0  0  0  0  0  0  0  0
  126.9080  123.4530   60.4680 C   0  0  0  0  0  0  0  0  0  0  0  0
  125.9940  123.5130   61.2920 O   0  0  0  0  0  0  0  0  0  0  0  0
  128.3070  123.3530   60.8840 C   0  0  0  0  0  0  0  0  0  0  0  0
  129.2830  121.9750   60.3810 S   0  0  0  0  0  0  0  0  0  0  0  0
  130.6850  122.6110   61.2080 C   0  0  0  0  0  0  0  0  0  0  0  0
  131.8500  121.9630   61.2010 N   0  0  0  0  0  0  0  0  0  0  0  0
  132.8630  122.5550   61.8750 C   0  0  0  0  0  0  0  0  0  0  0  0
  134.1810  121.8010   61.8520 C   0  0  0  0  0  0  0  0  0  0  0  0
  132.7410  123.7670   62.5490 C   0  0  0  0  0  0  0  0  0  0  0  0
  131.5170  124.4540   62.5620 C   0  0  0  0  0  0  0  0  0  0  0  0
  131.4300  125.7820   63.3210 C   0  0  0  0  0  0  0  0  0  0  0  0
  130.4210  125.8190   64.1940 F   0  0  0  0  0  0  0  0  0  0  0  0
  132.5570  125.9870   64.0020 F   0  0  0  0  0  0  0  0  0  0  0  0
  131.2490  126.7820   62.4600 F   0  0  0  0  0  0  0  0  0  0  0  0
  130.4270  123.8580   61.8590 C   0  0  0  0  0  0  0  0  0  0  0  0
  129.0580  124.2570   61.6510 C   0  0  0  0  0  0  0  0  0  0  0  0
  128.5380  125.4190   62.1620 N   0  0  0  0  0  0  0  0  0  0  0  0
  1  2  1  0
  2  3  1  0
  3  4  1  0
  4  5  1  0
  5  6  1  0
  6  7  1  0
  7  8  1  0
  8  9  1  0
  9 10  1  0
 10 11  1  0
 11 12  1  0
 12 13  2  0
 12 14  1  0
 14 15  1  0
 15 16  1  0
 16 17  2  0
 17 18  1  0
 18 19  1  0
 18 20  2  0
 20 21  1  0
 21 22  1  0
 22 23  1  0
 22 24  1  0
 22 25  1  0
 21 26  2  0
 26 27  1  0
 27 28  1  0
 27 14  2  0
 26 16  1  0
M  END
>  <Binding energies>  (54) 
[-5.55]

>  <Ligand effiencies>  (54) 
[-0.17903225806451611]

>  <Interactions>  (54) 
["V-A:LEU:475:CD2:4256, V-A:GLY:454:CA:4046, V-B:TYR:539:CD1:9845, V-B:TYR:539:C:9839, V-B:TYR:539:CE1:9847, V-B:GLU:543:CD:9880, V-B:PRO:540:CB:9857, V-A:ARG:545:CZ:4924, V-B:PRO:540:CA:9855, H-B:GLU:543:OE2:9882, H-B:GLU:543:OE1:9881, V-B:PRO:540:N:9856, V-A:ILE:369:CD1:3236, V-B:TYR:539:CE2:9848, V-B:TYR:539:CG:9844, V-B:ILE:538:CB:9834, H-B:TYR:539:N:9842, V-B:TYR:539:CD2:9846, V-B:PRO:540:CD:9859, V-B:TYR:539:CZ:9849, V-B:ILE:538:CG2:9835, V-A:TYR:531:CZ:4792, V-B:ILE:538:CA:9832, V-B:MET:535:CE:9807, V-A:ILE:369:CG2:3234, H-A:TYR:531:OH:4793, H-B:ALA:541:N:9863, V-A:ASP:366:CB:3209, H-B:TYR:539:OH:9850, V-A:TYR:531:CE1:4790, V-B:ILE:538:C:9830, V-B:LEU:363:CD1:8160, V-A:SER:385:C:3402"]

$$$$
4cd_Grossjean_2025
     RDKit          3D

 29 32  0  0  0  0  0  0  0  0999 V2000
  129.9940  126.9160   63.6410 N   0  0  0  0  0  0  0  0  0  0  0  0
  129.5590  125.9700   62.7470 C   0  0  0  0  0  0  0  0  0  0  0  0
  128.4600  126.1640   61.8960 C   0  0  0  0  0  0  0  0  0  0  0  0
  127.5790  127.3320   61.7920 C   0  0  0  0  0  0  0  0  0  0  0  0
  127.1200  127.6770   60.7030 O   0  0  0  0  0  0  0  0  0  0  0  0
  127.3200  127.9690   62.9590 N   0  0  0  0  0  0  0  0  0  0  0  0
  126.5680  129.1350   63.1970 C   0  0  0  0  0  0  0  0  0  0  0  0
  127.0480  129.9790   64.2020 C   0  0  0  0  0  0  0  0  0  0  0  0
  126.3810  131.1630   64.5020 C   0  0  0  0  0  0  0  0  0  0  0  0
  125.2340  131.5090   63.7910 C   0  0  0  0  0  0  0  0  0  0  0  0
  124.7520  130.6840   62.7790 C   0  0  0  0  0  0  0  0  0  0  0  0
  125.4170  129.4980   62.4750 C   0  0  0  0  0  0  0  0  0  0  0  0
  128.1890  124.7530   60.8760 S   0  0  0  0  0  0  0  0  0  0  0  0
  129.5390  123.9130   61.6010 C   0  0  0  0  0  0  0  0  0  0  0  0
  129.8760  122.6820   61.2230 N   0  0  0  0  0  0  0  0  0  0  0  0
  130.9320  122.1060   61.8540 C   0  0  0  0  0  0  0  0  0  0  0  0
  131.2860  120.7170   61.4080 C   0  0  0  0  0  0  0  0  0  0  0  0
  132.5590  120.4330   60.8860 C   0  0  0  0  0  0  0  0  0  0  0  0
  132.8940  119.1470   60.4710 C   0  0  0  0  0  0  0  0  0  0  0  0
  131.9590  118.1230   60.5740 C   0  0  0  0  0  0  0  0  0  0  0  0
  130.6930  118.3760   61.0910 C   0  0  0  0  0  0  0  0  0  0  0  0
  130.3620  119.6620   61.5060 C   0  0  0  0  0  0  0  0  0  0  0  0
  131.6550  122.7740   62.8460 C   0  0  0  0  0  0  0  0  0  0  0  0
  131.3100  124.0750   63.2500 C   0  0  0  0  0  0  0  0  0  0  0  0
  132.1430  124.7480   64.3470 C   0  0  0  0  0  0  0  0  0  0  0  0
  132.5500  125.9760   64.0160 F   0  0  0  0  0  0  0  0  0  0  0  0
  131.4210  124.8530   65.4620 F   0  0  0  0  0  0  0  0  0  0  0  0
  133.2330  124.0220   64.5940 F   0  0  0  0  0  0  0  0  0  0  0  0
  130.1970  124.6840   62.6040 C   0  0  0  0  0  0  0  0  0  0  0  0
  1  2  1  0
  2  3  2  0
  3  4  1  0
  4  5  2  0
  4  6  1  0
  6  7  1  0
  7  8  2  0
  8  9  1  0
  9 10  2  0
 10 11  1  0
 11 12  2  0
  3 13  1  0
 13 14  1  0
 14 15  2  0
 15 16  1  0
 16 17  1  0
 17 18  2  0
 18 19  1  0
 19 20  2  0
 20 21  1  0
 21 22  2  0
 16 23  2  0
 23 24  1  0
 24 25  1  0
 25 26  1  0
 25 27  1  0
 25 28  1  0
 24 29  2  0
 29  2  1  0
 12  7  1  0
 29 14  1  0
 22 17  1  0
M  END
>  <Binding energies>  (55) 
[-7.5]

>  <Ligand effiencies>  (55) 
[-0.234375]

>  <Interactions>  (55) 
["V-A:LEU:475:CD2:4256, V-A:GLY:454:CA:4046, V-B:TYR:539:CD1:9845, V-B:TYR:539:CE1:9847, V-B:GLU:543:CD:9880, V-A:ARG:545:CZ:4924, V-B:ALA:541:CB:9864, V-A:TYR:484:CZ:4344, H-B:GLU:543:OE2:9882, V-B:ARG:545:CZ:9898, H-B:GLU:543:OE1:9881, H-A:GLU:543:OE2:4908, H-A:GLU:543:OE1:4907, V-A:GLU:543:CD:4906, V-A:GLY:453:C:4039, V-A:ILE:369:CG2:3234, V-A:LEU:373:CD1:3277, V-A:PRO:482:CG:4324, V-A:SER:385:CA:3404, V-A:PRO:482:CB:4323, V-B:GLY:454:CA:9020"]

$$$$
4cg_Grossjean_2025
     RDKit          3D

 30 33  0  0  0  0  0  0  0  0999 V2000
  130.3060  127.9660   62.9920 N   0  0  0  0  0  0  0  0  0  0  0  0
  130.4240  127.1340   61.9090 C   0  0  0  0  0  0  0  0  0  0  0  0
  130.2320  127.5630   60.5870 C   0  0  0  0  0  0  0  0  0  0  0  0
  129.9340  128.9090   60.0990 C   0  0  0  0  0  0  0  0  0  0  0  0
  128.8550  129.1740   59.5640 O   0  0  0  0  0  0  0  0  0  0  0  0
  130.9210  129.8200   60.2350 N   0  0  0  0  0  0  0  0  0  0  0  0
  130.8370  131.2250   59.8400 C   0  0  0  0  0  0  0  0  0  0  0  0
  131.3480  131.4900   58.4280 C   0  0  0  0  0  0  0  0  0  0  0  0
  130.4560  131.8970   57.4320 C   0  0  0  0  0  0  0  0  0  0  0  0
  130.9240  132.1710   56.1490 C   0  0  0  0  0  0  0  0  0  0  0  0
  132.2820  132.0440   55.8700 C   0  0  0  0  0  0  0  0  0  0  0  0
  133.1790  131.6540   56.8620 C   0  0  0  0  0  0  0  0  0  0  0  0
  132.7120  131.3830   58.1460 C   0  0  0  0  0  0  0  0  0  0  0  0
  130.4810  126.2480   59.4430 S   0  0  0  0  0  0  0  0  0  0  0  0
  130.8170  125.1270   60.7420 C   0  0  0  0  0  0  0  0  0  0  0  0
  131.1030  123.8510   60.5000 N   0  0  0  0  0  0  0  0  0  0  0  0
  131.3550  123.0550   61.5720 C   0  0  0  0  0  0  0  0  0  0  0  0
  131.6730  121.6190   61.2660 C   0  0  0  0  0  0  0  0  0  0  0  0
  130.6970  120.6190   61.4050 C   0  0  0  0  0  0  0  0  0  0  0  0
  130.9870  119.2870   61.1240 C   0  0  0  0  0  0  0  0  0  0  0  0
  132.2640  118.9330   60.6990 C   0  0  0  0  0  0  0  0  0  0  0  0
  133.2510  119.9020   60.5560 C   0  0  0  0  0  0  0  0  0  0  0  0
  132.9560  121.2330   60.8380 C   0  0  0  0  0  0  0  0  0  0  0  0
  131.3000  123.5430   62.8830 C   0  0  0  0  0  0  0  0  0  0  0  0
  130.9990  124.8880   63.1490 C   0  0  0  0  0  0  0  0  0  0  0  0
  130.9540  125.3560   64.6080 C   0  0  0  0  0  0  0  0  0  0  0  0
  130.9010  124.3470   65.4800 F   0  0  0  0  0  0  0  0  0  0  0  0
  132.0470  126.0670   64.8860 F   0  0  0  0  0  0  0  0  0  0  0  0
  129.8750  126.1110   64.8060 F   0  0  0  0  0  0  0  0  0  0  0  0
  130.7470  125.7340   62.0300 C   0  0  0  0  0  0  0  0  0  0  0  0
  1  2  1  0
  2  3  2  0
  3  4  1  0
  4  5  2  0
  4  6  1  0
  6  7  1  0
  7  8  1  0
  8  9  2  0
  9 10  1  0
 10 11  2  0
 11 12  1  0
 12 13  2  0
  3 14  1  0
 14 15  1  0
 15 16  2  0
 16 17  1  0
 17 18  1  0
 18 19  2  0
 19 20  1  0
 20 21  2  0
 21 22  1  0
 22 23  2  0
 17 24  2  0
 24 25  1  0
 25 26  1  0
 26 27  1  0
 26 28  1  0
 26 29  1  0
 25 30  2  0
 30  2  1  0
 13  8  1  0
 30 15  1  0
 23 18  1  0
M  END
>  <Binding energies>  (56) 
[-7.69]

>  <Ligand effiencies>  (56) 
[-0.23303030303030303]

>  <Interactions>  (56) 
["V-B:GLU:543:CG:9879, V-A:LEU:475:CD2:4256, V-B:TYR:539:CD1:9845, V-A:TYR:484:CE2:4343, V-B:GLU:543:CB:9878, V-B:TYR:539:CE1:9847, V-B:GLU:543:CD:9880, V-A:ARG:545:CZ:4924, V-B:ALA:541:CB:9864, V-A:TYR:484:CZ:4344, H-A:ASP:366:OD2:3212, H-B:GLU:543:OE2:9882, H-A:GLU:543:OE2:4908, H-A:GLU:543:OE1:4907, V-A:GLU:543:CD:4906, V-A:PRO:540:CA:4881, V-A:PRO:540:CB:4883, V-A:LEU:363:CD1:3186, V-A:ILE:538:CA:4858, V-A:ILE:538:CB:4860, V-A:MET:535:CE:4833, V-A:ILE:538:CG2:4861, V-A:TYR:531:CE2:4791, V-A:TYR:531:CZ:4792, V-A:ILE:369:CG2:3234, V-A:LEU:373:CD1:3277, V-A:SER:385:CA:3404"]

$$$$
4ch_Grossjean_2025
     RDKit          3D

 36 39  0  0  0  0  0  0  0  0999 V2000
  128.7250  132.5170   56.0090 C   0  0  0  0  0  0  0  0  0  0  0  0
  129.2980  133.2260   57.1030 O   0  0  0  0  0  0  0  0  0  0  0  0
  130.0880  132.5470   58.0120 C   0  0  0  0  0  0  0  0  0  0  0  0
  129.6040  131.9800   59.2020 C   0  0  0  0  0  0  0  0  0  0  0  0
  130.4600  131.3050   60.0740 C   0  0  0  0  0  0  0  0  0  0  0  0
  129.9210  130.7200   61.3740 C   0  0  0  0  0  0  0  0  0  0  0  0
  130.1660  129.2860   61.5340 N   0  0  0  0  0  0  0  0  0  0  0  0
  130.0490  128.3570   60.5620 C   0  0  0  0  0  0  0  0  0  0  0  0
  129.7420  128.6450   59.4030 O   0  0  0  0  0  0  0  0  0  0  0  0
  130.3470  126.9790   60.9530 C   0  0  0  0  0  0  0  0  0  0  0  0
  130.5800  125.7430   59.7210 S   0  0  0  0  0  0  0  0  0  0  0  0
  130.8910  124.5280   60.9360 C   0  0  0  0  0  0  0  0  0  0  0  0
  131.1520  123.2660   60.6060 N   0  0  0  0  0  0  0  0  0  0  0  0
  131.3870  122.3920   61.6200 C   0  0  0  0  0  0  0  0  0  0  0  0
  131.6720  120.9750   61.2140 C   0  0  0  0  0  0  0  0  0  0  0  0
  130.6620  119.9990   61.2500 C   0  0  0  0  0  0  0  0  0  0  0  0
  130.9210  118.6830   60.8750 C   0  0  0  0  0  0  0  0  0  0  0  0
  132.1980  118.3220   60.4600 C   0  0  0  0  0  0  0  0  0  0  0  0
  133.2180  119.2670   60.4190 C   0  0  0  0  0  0  0  0  0  0  0  0
  132.9550  120.5820   60.7960 C   0  0  0  0  0  0  0  0  0  0  0  0
  131.3400  122.7880   62.9610 C   0  0  0  0  0  0  0  0  0  0  0  0
  131.0630  124.1170   63.3220 C   0  0  0  0  0  0  0  0  0  0  0  0
  131.0270  124.4820   64.8090 C   0  0  0  0  0  0  0  0  0  0  0  0
  130.2120  125.5040   65.0790 F   0  0  0  0  0  0  0  0  0  0  0  0
  130.6050  123.4380   65.5210 F   0  0  0  0  0  0  0  0  0  0  0  0
  132.2480  124.8280   65.2190 F   0  0  0  0  0  0  0  0  0  0  0  0
  130.8290  125.0430   62.2650 C   0  0  0  0  0  0  0  0  0  0  0  0
  130.5270  126.4540   62.2420 C   0  0  0  0  0  0  0  0  0  0  0  0
  130.4160  127.2090   63.3820 N   0  0  0  0  0  0  0  0  0  0  0  0
  131.8180  131.2090   59.7670 C   0  0  0  0  0  0  0  0  0  0  0  0
  132.3300  131.7680   58.5850 C   0  0  0  0  0  0  0  0  0  0  0  0
  133.6620  131.7090   58.2180 O   0  0  0  0  0  0  0  0  0  0  0  0
  134.1080  130.6530   57.3730 C   0  0  0  0  0  0  0  0  0  0  0  0
  131.4530  132.4290   57.7130 C   0  0  0  0  0  0  0  0  0  0  0  0
  131.9430  132.9940   56.5610 O   0  0  0  0  0  0  0  0  0  0  0  0
  132.0610  132.0850   55.4750 C   0  0  0  0  0  0  0  0  0  0  0  0
  1  2  1  0
  2  3  1  0
  3  4  2  0
  4  5  1  0
  5  6  1  0
  6  7  1  0
  7  8  1  0
  8  9  2  0
  8 10  1  0
 10 11  1  0
 11 12  1  0
 12 13  2  0
 13 14  1  0
 14 15  1  0
 15 16  2  0
 16 17  1  0
 17 18  2  0
 18 19  1  0
 19 20  2  0
 14 21  2  0
 21 22  1  0
 22 23  1  0
 23 24  1  0
 23 25  1  0
 23 26  1  0
 22 27  2  0
 27 28  1  0
 28 29  1  0
  5 30  2  0
 30 31  1  0
 31 32  1  0
 32 33  1  0
 31 34  2  0
 34 35  1  0
 35 36  1  0
 34  3  1  0
 28 10  2  0
 27 12  1  0
 20 15  1  0
M  END
>  <Binding energies>  (57) 
[-8.19]

>  <Ligand effiencies>  (57) 
[-0.21]

>  <Interactions>  (57) 
["V-B:GLU:543:CG:9879, V-A:LEU:475:CD2:4256, V-B:TYR:539:CD1:9845, V-A:TYR:484:CE2:4343, V-B:GLU:543:CB:9878, V-B:TYR:539:CE1:9847, V-B:GLU:543:CD:9880, V-B:ALA:541:CB:9864, V-A:TYR:484:CZ:4344, H-B:GLU:543:OE2:9882, V-A:ASP:366:CG:3210, H-A:GLU:543:OE2:4908, H-A:GLU:543:OE1:4907, V-A:GLU:543:CD:4906, V-A:TYR:539:CE1:4873, V-A:TYR:539:C:4865, V-A:PRO:540:CA:4881, V-A:PRO:540:CB:4883, V-A:PRO:540:N:4882, V-A:LEU:363:CD1:3186, V-A:ILE:538:CA:4858, V-A:TYR:539:CG:4870, V-A:ILE:538:CB:4860, V-A:MET:535:CE:4833, V-A:ILE:538:CG2:4861, V-A:TYR:531:CE2:4791, V-A:PRO:540:CD:4885, V-A:TYR:531:CZ:4792, V-A:ILE:369:CG2:3234, V-A:LEU:373:CD1:3277, V-A:PRO:482:CG:4324, V-A:SER:385:CA:3404, V-A:SER:385:CB:3406, V-A:PRO:482:CB:4323, V-A:TYR:539:CD2:4872, V-A:TYR:539:CE2:4874, V-A:TYR:539:CZ:4875, V-A:ASP:366:CB:3209, H-A:TYR:539:N:4868, V-A:LEU:363:CA:3182, V-A:LEU:363:CB:3184, V-A:LEU:363:C:3180"]

$$$$
4cj_Grossjean_2025
     RDKit          3D

 28 31  0  0  0  0  0  0  0  0999 V2000
  130.1190  126.8840   63.6080 N   0  0  0  0  0  0  0  0  0  0  0  0
  129.6320  125.9250   62.7560 C   0  0  0  0  0  0  0  0  0  0  0  0
  128.4960  126.1160   61.9520 C   0  0  0  0  0  0  0  0  0  0  0  0
  127.6410  127.3010   61.8450 C   0  0  0  0  0  0  0  0  0  0  0  0
  127.2350  127.6880   60.7470 O   0  0  0  0  0  0  0  0  0  0  0  0
  127.3550  127.9200   63.0170 N   0  0  0  0  0  0  0  0  0  0  0  0
  126.5720  129.0540   63.1910 C   0  0  0  0  0  0  0  0  0  0  0  0
  125.9680  129.7670   62.2650 N   0  0  0  0  0  0  0  0  0  0  0  0
  125.3060  130.7800   62.7890 C   0  0  0  0  0  0  0  0  0  0  0  0
  125.3640  130.9030   64.1740 C   0  0  0  0  0  0  0  0  0  0  0  0
  126.3420  129.6170   64.8160 S   0  0  0  0  0  0  0  0  0  0  0  0
  128.1610  124.6890   60.9740 S   0  0  0  0  0  0  0  0  0  0  0  0
  129.5380  123.8500   61.6480 C   0  0  0  0  0  0  0  0  0  0  0  0
  129.8500  122.6130   61.2700 N   0  0  0  0  0  0  0  0  0  0  0  0
  130.9420  122.0440   61.8420 C   0  0  0  0  0  0  0  0  0  0  0  0
  131.2730  120.6520   61.3840 C   0  0  0  0  0  0  0  0  0  0  0  0
  130.3300  119.6170   61.4910 C   0  0  0  0  0  0  0  0  0  0  0  0
  130.6330  118.3230   61.0740 C   0  0  0  0  0  0  0  0  0  0  0  0
  131.8890  118.0460   60.5430 C   0  0  0  0  0  0  0  0  0  0  0  0
  132.8410  119.0520   60.4280 C   0  0  0  0  0  0  0  0  0  0  0  0
  132.5340  120.3440   60.8460 C   0  0  0  0  0  0  0  0  0  0  0  0
  131.7010  122.7110   62.8090 C   0  0  0  0  0  0  0  0  0  0  0  0
  131.3800  124.0160   63.2170 C   0  0  0  0  0  0  0  0  0  0  0  0
  132.2570  124.6900   64.2780 C   0  0  0  0  0  0  0  0  0  0  0  0
  132.8100  125.8280   63.8560 F   0  0  0  0  0  0  0  0  0  0  0  0
  131.5220  124.9770   65.3520 F   0  0  0  0  0  0  0  0  0  0  0  0
  133.2490  123.8720   64.6310 F   0  0  0  0  0  0  0  0  0  0  0  0
  130.2480  124.6290   62.6080 C   0  0  0  0  0  0  0  0  0  0  0  0
  1  2  1  0
  2  3  2  0
  3  4  1  0
  4  5  2  0
  4  6  1  0
  6  7  1  0
  7  8  2  0
  8  9  1  0
  9 10  2  0
 10 11  1  0
  3 12  1  0
 12 13  1  0
 13 14  2  0
 14 15  1  0
 15 16  1  0
 16 17  2  0
 17 18  1  0
 18 19  2  0
 19 20  1  0
 20 21  2  0
 15 22  2  0
 22 23  1  0
 23 24  1  0
 24 25  1  0
 24 26  1  0
 24 27  1  0
 23 28  2  0
 28  2  1  0
 11  7  1  0
 28 13  1  0
 21 16  1  0
M  END
>  <Binding energies>  (58) 
[-6.96]

>  <Ligand effiencies>  (58) 
[-0.22451612903225807]

>  <Interactions>  (58) 
["V-A:LEU:475:CD2:4256, V-A:GLY:454:CA:4046, V-B:TYR:539:CD1:9845, V-B:TYR:539:CE1:9847, V-B:GLU:543:CD:9880, V-A:ARG:545:CZ:4924, V-B:ALA:541:CB:9864, V-A:TYR:484:CZ:4344, H-B:GLU:543:OE2:9882, V-B:ARG:545:CZ:9898, H-B:GLU:543:OE1:9881, H-A:GLU:543:OE2:4908, H-A:GLU:543:OE1:4907, V-A:GLU:543:CD:4906, V-A:GLY:453:C:4039, H-B:ARG:545:NH2:9900, V-A:ILE:369:CG2:3234, V-A:LEU:373:CD1:3277, V-A:PRO:482:CG:4324, V-A:SER:385:CA:3404, V-A:PRO:482:CB:4323, V-B:GLY:454:CA:9020"]

$$$$
4ck_Grossjean_2025
     RDKit          3D

 33 35  0  0  0  0  0  0  0  0999 V2000
  124.7980  130.1710   58.4450 C   0  0  0  0  0  0  0  0  0  0  0  0
  124.0340  131.2650   58.9280 O   0  0  0  0  0  0  0  0  0  0  0  0
  123.6370  131.1220   60.2840 C   0  0  0  0  0  0  0  0  0  0  0  0
  124.2470  132.2640   61.1070 C   0  0  0  0  0  0  0  0  0  0  0  0
  123.8810  132.1000   62.4700 O   0  0  0  0  0  0  0  0  0  0  0  0
  124.7060  132.8270   63.3710 C   0  0  0  0  0  0  0  0  0  0  0  0
  125.3710  131.8480   64.3460 C   0  0  0  0  0  0  0  0  0  0  0  0
  124.7470  130.5780   64.2160 O   0  0  0  0  0  0  0  0  0  0  0  0
  125.6580  129.4860   64.2270 C   0  0  0  0  0  0  0  0  0  0  0  0
  126.0830  129.1560   62.7880 C   0  0  0  0  0  0  0  0  0  0  0  0
  126.9750  127.9970   62.7300 N   0  0  0  0  0  0  0  0  0  0  0  0
  127.5200  127.4750   61.6120 C   0  0  0  0  0  0  0  0  0  0  0  0
  127.3350  127.9580   60.4930 O   0  0  0  0  0  0  0  0  0  0  0  0
  128.3640  126.2950   61.8030 C   0  0  0  0  0  0  0  0  0  0  0  0
  128.1420  124.8750   60.7840 S   0  0  0  0  0  0  0  0  0  0  0  0
  129.4680  124.0510   61.5700 C   0  0  0  0  0  0  0  0  0  0  0  0
  129.8310  122.8220   61.2130 N   0  0  0  0  0  0  0  0  0  0  0  0
  130.8730  122.2620   61.8820 C   0  0  0  0  0  0  0  0  0  0  0  0
  131.2700  120.8820   61.4430 C   0  0  0  0  0  0  0  0  0  0  0  0
  130.3520  119.8200   61.4900 C   0  0  0  0  0  0  0  0  0  0  0  0
  130.7150  118.5370   61.0870 C   0  0  0  0  0  0  0  0  0  0  0  0
  132.0060  118.2980   60.6280 C   0  0  0  0  0  0  0  0  0  0  0  0
  132.9330  119.3320   60.5650 C   0  0  0  0  0  0  0  0  0  0  0  0
  132.5660  120.6140   60.9690 C   0  0  0  0  0  0  0  0  0  0  0  0
  131.5500  122.9420   62.8990 C   0  0  0  0  0  0  0  0  0  0  0  0
  131.1730  124.2390   63.2850 C   0  0  0  0  0  0  0  0  0  0  0  0
  131.9560  124.9260   64.4110 C   0  0  0  0  0  0  0  0  0  0  0  0
  131.2860  124.9670   65.5640 F   0  0  0  0  0  0  0  0  0  0  0  0
  133.0950  124.2700   64.6330 F   0  0  0  0  0  0  0  0  0  0  0  0
  132.2320  126.1830   64.0650 F   0  0  0  0  0  0  0  0  0  0  0  0
  130.0810  124.8350   62.5920 C   0  0  0  0  0  0  0  0  0  0  0  0
  129.4320  126.1190   62.6970 C   0  0  0  0  0  0  0  0  0  0  0  0
  129.8230  127.0790   63.5950 N   0  0  0  0  0  0  0  0  0  0  0  0
  1  2  1  0
  2  3  1  0
  3  4  1  0
  4  5  1  0
  5  6  1  0
  6  7  1  0
  7  8  1  0
  8  9  1  0
  9 10  1  0
 10 11  1  0
 11 12  1  0
 12 13  2  0
 12 14  1  0
 14 15  1  0
 15 16  1  0
 16 17  2  0
 17 18  1  0
 18 19  1  0
 19 20  2  0
 20 21  1  0
 21 22  2  0
 22 23  1  0
 23 24  2  0
 18 25  2  0
 25 26  1  0
 26 27  1  0
 27 28  1  0
 27 29  1  0
 27 30  1  0
 26 31  2  0
 31 32  1  0
 32 33  1  0
 32 14  2  0
 31 16  1  0
 24 19  1  0
M  END
>  <Binding energies>  (59) 
[-7.06]

>  <Ligand effiencies>  (59) 
[-0.1961111111111111]

>  <Interactions>  (59) 
["V-A:HIS:456:CE1:4066, V-A:LEU:475:CD2:4256, V-A:GLY:454:CA:4046, V-B:TYR:539:CD1:9845, V-B:ASP:366:CG:8184, V-B:TYR:539:CE1:9847, V-B:GLU:543:CD:9880, V-A:ARG:545:CZ:4924, V-B:ALA:541:CB:9864, V-A:TYR:484:CZ:4344, H-B:GLU:543:OE2:9882, V-B:ARG:545:CZ:9898, H-B:GLU:543:OE1:9881, V-B:ASP:366:CB:8183, H-A:GLU:543:OE2:4908, H-A:GLU:543:OE1:4907, V-A:GLU:543:CD:4906, V-A:TYR:539:CE1:4873, V-B:LEU:475:CD2:9230, V-B:ILE:369:CD1:8210, V-B:ILE:369:CG2:8208, H-B:TYR:484:OH:9319, V-A:ILE:369:CG2:3234, H-B:GLY:454:N:9021, V-A:LEU:373:CD1:3277, V-A:PRO:482:CG:4324, V-A:SER:385:CA:3404, V-A:PRO:482:CB:4323, V-A:TYR:539:CZ:4875, H-A:TYR:539:OH:4876, V-B:GLY:454:CA:9020, V-B:ASP:366:CA:8181, V-B:ILE:369:CB:8207"]

$$$$
4dd_Grossjean_2025
     RDKit          3D

 26 29  0  0  0  0  0  0  0  0999 V2000
  130.7640  125.5750   64.3130 C   0  0  0  0  0  0  0  0  0  0  0  0
  130.9900  125.0680   62.8970 C   0  0  0  0  0  0  0  0  0  0  0  0
  131.2440  123.7030   62.7170 C   0  0  0  0  0  0  0  0  0  0  0  0
  131.4610  123.1730   61.4390 C   0  0  0  0  0  0  0  0  0  0  0  0
  131.7410  121.7160   61.2180 C   0  0  0  0  0  0  0  0  0  0  0  0
  130.7160  120.7620   61.3230 C   0  0  0  0  0  0  0  0  0  0  0  0
  130.9680  119.4080   61.1160 C   0  0  0  0  0  0  0  0  0  0  0  0
  132.2550  118.9880   60.8010 C   0  0  0  0  0  0  0  0  0  0  0  0
  133.2900  119.9100   60.6890 C   0  0  0  0  0  0  0  0  0  0  0  0
  133.0320  121.2640   60.8940 C   0  0  0  0  0  0  0  0  0  0  0  0
  131.4460  123.9550   60.3250 N   0  0  0  0  0  0  0  0  0  0  0  0
  131.1980  125.2530   60.4940 C   0  0  0  0  0  0  0  0  0  0  0  0
  131.1320  126.3680   59.1480 S   0  0  0  0  0  0  0  0  0  0  0  0
  130.7790  127.7210   60.2250 C   0  0  0  0  0  0  0  0  0  0  0  0
  130.5730  129.0660   59.6830 C   0  0  0  0  0  0  0  0  0  0  0  0
  129.7400  129.8230   60.1830 O   0  0  0  0  0  0  0  0  0  0  0  0
  131.3580  129.3920   58.6270 N   0  0  0  0  0  0  0  0  0  0  0  0
  131.3740  130.5660   57.8520 C   0  0  0  0  0  0  0  0  0  0  0  0
  132.6380  131.0890   57.5630 C   0  0  0  0  0  0  0  0  0  0  0  0
  132.7610  132.2410   56.7900 C   0  0  0  0  0  0  0  0  0  0  0  0
  131.6190  132.8660   56.2980 C   0  0  0  0  0  0  0  0  0  0  0  0
  130.3550  132.3490   56.5670 C   0  0  0  0  0  0  0  0  0  0  0  0
  130.2280  131.1980   57.3400 C   0  0  0  0  0  0  0  0  0  0  0  0
  130.7250  127.3010   61.5630 C   0  0  0  0  0  0  0  0  0  0  0  0
  130.4730  128.1420   62.6180 N   0  0  0  0  0  0  0  0  0  0  0  0
  130.9590  125.8930   61.7430 C   0  0  0  0  0  0  0  0  0  0  0  0
  1  2  1  0
  2  3  2  0
  3  4  1  0
  4  5  1  0
  5  6  2  0
  6  7  1  0
  7  8  2  0
  8  9  1  0
  9 10  2  0
  4 11  2  0
 11 12  1  0
 12 13  1  0
 13 14  1  0
 14 15  1  0
 15 16  2  0
 15 17  1  0
 17 18  1  0
 18 19  2  0
 19 20  1  0
 20 21  2  0
 21 22  1  0
 22 23  2  0
 14 24  2  0
 24 25  1  0
 24 26  1  0
 26  2  1  0
 10  5  1  0
 26 12  2  0
 23 18  1  0
M  END
>  <Binding energies>  (60) 
[-7.6]

>  <Ligand effiencies>  (60) 
[-0.26206896551724135]

>  <Interactions>  (60) 
["V-A:LEU:475:CD2:4256, V-B:TYR:539:CD1:9845, V-B:TYR:539:CE1:9847, V-B:GLU:543:CD:9880, V-B:ALA:541:CB:9864, H-A:ASP:366:OD2:3212, H-A:ASP:366:OD1:3211, V-A:ASP:366:CG:3210, H-A:GLU:543:OE2:4908, H-A:GLU:543:OE1:4907, V-A:GLU:543:CD:4906, V-A:PRO:540:CB:4883, V-A:PRO:540:N:4882, V-A:LEU:363:CD1:3186, V-A:ILE:538:CA:4858, V-A:ILE:538:CB:4860, V-A:ILE:538:CG2:4861, V-A:TYR:531:CE2:4791, V-A:PRO:540:CD:4885, V-A:ILE:369:CG2:3234, H-A:TYR:531:OH:4793, V-A:LEU:373:CD1:3277, V-A:SER:385:CA:3404, V-A:ASP:366:CB:3209"]

$$$$
4dg_Grossjean_2025
     RDKit          3D

 27 30  0  0  0  0  0  0  0  0999 V2000
  130.6860  125.3590   64.5690 C   0  0  0  0  0  0  0  0  0  0  0  0
  130.9120  124.9230   63.1300 C   0  0  0  0  0  0  0  0  0  0  0  0
  131.1990  123.5750   62.8850 C   0  0  0  0  0  0  0  0  0  0  0  0
  131.4170  123.1100   61.5820 C   0  0  0  0  0  0  0  0  0  0  0  0
  131.7250  121.6690   61.2890 C   0  0  0  0  0  0  0  0  0  0  0  0
  130.7320  120.6820   61.4010 C   0  0  0  0  0  0  0  0  0  0  0  0
  131.0140  119.3440   61.1340 C   0  0  0  0  0  0  0  0  0  0  0  0
  132.2970  118.9730   60.7490 C   0  0  0  0  0  0  0  0  0  0  0  0
  133.3020  119.9290   60.6340 C   0  0  0  0  0  0  0  0  0  0  0  0
  133.0160  121.2640   60.9020 C   0  0  0  0  0  0  0  0  0  0  0  0
  131.3420  123.9360   60.5040 N   0  0  0  0  0  0  0  0  0  0  0  0
  131.0690  125.2200   60.7350 C   0  0  0  0  0  0  0  0  0  0  0  0
  130.9510  126.3890   59.4400 S   0  0  0  0  0  0  0  0  0  0  0  0
  130.5920  127.6830   60.5830 C   0  0  0  0  0  0  0  0  0  0  0  0
  130.4070  129.0530   60.1070 C   0  0  0  0  0  0  0  0  0  0  0  0
  129.4420  129.3640   59.4050 O   0  0  0  0  0  0  0  0  0  0  0  0
  131.3710  129.9320   60.4500 N   0  0  0  0  0  0  0  0  0  0  0  0
  131.3830  131.3530   60.1060 C   0  0  0  0  0  0  0  0  0  0  0  0
  131.5220  131.6130   58.6100 C   0  0  0  0  0  0  0  0  0  0  0  0
  130.4180  132.0620   57.8780 C   0  0  0  0  0  0  0  0  0  0  0  0
  130.5490  132.3300   56.5190 C   0  0  0  0  0  0  0  0  0  0  0  0
  131.7840  132.1590   55.8970 C   0  0  0  0  0  0  0  0  0  0  0  0
  132.8920  131.7280   56.6240 C   0  0  0  0  0  0  0  0  0  0  0  0
  132.7620  131.4610   57.9840 C   0  0  0  0  0  0  0  0  0  0  0  0
  130.5860  127.2100   61.9030 C   0  0  0  0  0  0  0  0  0  0  0  0
  130.3490  128.0030   62.9970 N   0  0  0  0  0  0  0  0  0  0  0  0
  130.8440  125.7990   62.0160 C   0  0  0  0  0  0  0  0  0  0  0  0
  1  2  1  0
  2  3  2  0
  3  4  1  0
  4  5  1  0
  5  6  2  0
  6  7  1  0
  7  8  2  0
  8  9  1  0
  9 10  2  0
  4 11  2  0
 11 12  1  0
 12 13  1  0
 13 14  1  0
 14 15  1  0
 15 16  2  0
 15 17  1  0
 17 18  1  0
 18 19  1  0
 19 20  2  0
 20 21  1  0
 21 22  2  0
 22 23  1  0
 23 24  2  0
 14 25  2  0
 25 26  1  0
 25 27  1  0
 27  2  1  0
 10  5  1  0
 27 12  2  0
 24 19  1  0
M  END
>  <Binding energies>  (61) 
[-8.16]

>  <Ligand effiencies>  (61) 
[-0.272]

>  <Interactions>  (61) 
["V-A:LEU:475:CD2:4256, V-B:TYR:539:CD1:9845, V-B:TYR:539:CE1:9847, V-B:GLU:543:CD:9880, V-B:ALA:541:CB:9864, H-A:ASP:366:OD2:3212, H-B:GLU:543:OE2:9882, H-A:ASP:366:OD1:3211, V-A:ASP:366:CG:3210, H-A:GLU:543:OE2:4908, H-A:GLU:543:OE1:4907, V-A:GLU:543:CD:4906, V-A:PRO:540:CA:4881, V-A:PRO:540:CB:4883, V-A:PRO:540:N:4882, V-A:LEU:363:CD1:3186, V-A:ILE:538:CB:4860, V-A:ILE:538:CG2:4861, V-A:TYR:531:CE2:4791, V-A:TYR:531:CZ:4792, V-A:ILE:369:CG2:3234, V-A:LEU:373:CD1:3277, V-A:SER:385:CA:3404"]

$$$$
4dj_Grossjean_2025
     RDKit          3D

 25 28  0  0  0  0  0  0  0  0999 V2000
  134.1780  123.7210   60.3340 C   0  0  0  0  0  0  0  0  0  0  0  0
  133.1670  122.8190   61.0250 C   0  0  0  0  0  0  0  0  0  0  0  0
  133.0670  121.4900   60.5970 C   0  0  0  0  0  0  0  0  0  0  0  0
  132.1540  120.6100   61.1900 C   0  0  0  0  0  0  0  0  0  0  0  0
  132.0280  119.1770   60.7550 C   0  0  0  0  0  0  0  0  0  0  0  0
  133.1660  118.4190   60.4350 C   0  0  0  0  0  0  0  0  0  0  0  0
  133.0570  117.0910   60.0310 C   0  0  0  0  0  0  0  0  0  0  0  0
  131.8010  116.5010   59.9360 C   0  0  0  0  0  0  0  0  0  0  0  0
  130.6570  117.2290   60.2420 C   0  0  0  0  0  0  0  0  0  0  0  0
  130.7710  118.5550   60.6470 C   0  0  0  0  0  0  0  0  0  0  0  0
  131.3420  120.9970   62.2120 N   0  0  0  0  0  0  0  0  0  0  0  0
  131.4360  122.2610   62.6200 C   0  0  0  0  0  0  0  0  0  0  0  0
  130.4470  122.8940   63.9170 S   0  0  0  0  0  0  0  0  0  0  0  0
  131.1930  124.4870   63.7730 C   0  0  0  0  0  0  0  0  0  0  0  0
  130.7710  125.5830   64.6460 C   0  0  0  0  0  0  0  0  0  0  0  0
  130.0660  126.4980   64.2120 O   0  0  0  0  0  0  0  0  0  0  0  0
  131.2140  125.5150   65.9250 N   0  0  0  0  0  0  0  0  0  0  0  0
  130.9620  126.4200   66.9450 C   0  0  0  0  0  0  0  0  0  0  0  0
  131.7960  127.2850   67.4830 N   0  0  0  0  0  0  0  0  0  0  0  0
  131.2160  127.9920   68.4330 C   0  0  0  0  0  0  0  0  0  0  0  0
  129.8770  127.7060   68.6830 C   0  0  0  0  0  0  0  0  0  0  0  0
  129.3600  126.4400   67.6100 S   0  0  0  0  0  0  0  0  0  0  0  0
  132.1590  124.5020   62.7550 C   0  0  0  0  0  0  0  0  0  0  0  0
  132.8960  125.6100   62.4190 N   0  0  0  0  0  0  0  0  0  0  0  0
  132.3190  123.2410   62.0820 C   0  0  0  0  0  0  0  0  0  0  0  0
  1  2  1  0
  2  3  2  0
  3  4  1  0
  4  5  1  0
  5  6  2  0
  6  7  1  0
  7  8  2  0
  8  9  1  0
  9 10  2  0
  4 11  2  0
 11 12  1  0
 12 13  1  0
 13 14  1  0
 14 15  1  0
 15 16  2  0
 15 17  1  0
 17 18  1  0
 18 19  2  0
 19 20  1  0
 20 21  2  0
 21 22  1  0
 14 23  2  0
 23 24  1  0
 23 25  1  0
 25  2  1  0
 10  5  1  0
 25 12  2  0
 22 18  1  0
M  END
>  <Binding energies>  (62) 
[-7.39]

>  <Ligand effiencies>  (62) 
[-0.2639285714285714]

>  <Interactions>  (62) 
["V-A:HIS:456:CE1:4066, V-B:GLU:543:CG:9879, V-A:LEU:475:CD2:4256, H-A:TYR:484:OH:4345, V-B:TYR:539:CD1:9845, V-B:GLU:543:CB:9878, V-B:TYR:539:CE1:9847, V-B:GLU:543:CD:9880, V-A:ARG:545:CZ:4924, V-B:ALA:541:CB:9864, H-A:ASP:366:OD1:3211, H-A:GLU:543:OE2:4908, V-A:GLU:543:CD:4906, V-A:ILE:369:CD1:3236, V-A:ARG:545:CG:4920, H-A:ARG:545:NE:4922, V-B:TYR:539:CG:9844, V-A:ILE:369:CG2:3234, V-A:ILE:369:CB:3233, V-A:LEU:373:CD1:3277, V-A:GLU:543:CB:4904, V-A:PRO:482:CG:4324, V-A:SER:385:CA:3404, V-A:SER:385:CB:3406, V-A:PRO:482:CB:4323, V-B:TYR:539:CB:9843, V-A:GLU:543:C:4900, V-A:GLU:543:CG:4905, V-A:ILE:369:CG1:3235, V-B:VAL:344:CG1:7972"]

$$$$
4ea_Grossjean_2025
     RDKit          3D

 31 34  0  0  0  0  0  0  0  0999 V2000
  131.4800  117.2470   59.7430 C   0  0  0  0  0  0  0  0  0  0  0  0
  132.1990  117.8900   60.9320 C   0  0  0  0  0  0  0  0  0  0  0  0
  132.0210  119.3000   60.8850 O   0  0  0  0  0  0  0  0  0  0  0  0
  133.0840  120.1400   60.7950 C   0  0  0  0  0  0  0  0  0  0  0  0
  134.2560  119.7510   60.7650 O   0  0  0  0  0  0  0  0  0  0  0  0
  132.6920  121.5880   60.7360 C   0  0  0  0  0  0  0  0  0  0  0  0
  131.3340  121.9300   60.7740 C   0  0  0  0  0  0  0  0  0  0  0  0
  130.9380  123.2630   60.7200 C   0  0  0  0  0  0  0  0  0  0  0  0
  131.8880  124.2810   60.6280 C   0  0  0  0  0  0  0  0  0  0  0  0
  131.3720  125.5900   60.5810 N   0  0  0  0  0  0  0  0  0  0  0  0
  130.5430  126.1760   59.6820 C   0  0  0  0  0  0  0  0  0  0  0  0
  130.0800  125.6070   58.6930 O   0  0  0  0  0  0  0  0  0  0  0  0
  130.2130  127.5770   59.9580 C   0  0  0  0  0  0  0  0  0  0  0  0
  129.2050  128.0010   61.3440 S   0  0  0  0  0  0  0  0  0  0  0  0
  129.3060  129.7030   60.9580 C   0  0  0  0  0  0  0  0  0  0  0  0
  128.6990  130.6310   61.6990 N   0  0  0  0  0  0  0  0  0  0  0  0
  128.8550  131.9150   61.2930 C   0  0  0  0  0  0  0  0  0  0  0  0
  128.1560  132.9540   62.1500 C   0  0  0  0  0  0  0  0  0  0  0  0
  129.5980  132.2890   60.1750 C   0  0  0  0  0  0  0  0  0  0  0  0
  130.2330  131.3130   59.4010 C   0  0  0  0  0  0  0  0  0  0  0  0
  131.0180  131.7250   58.2160 C   0  0  0  0  0  0  0  0  0  0  0  0
  132.4160  131.7020   58.2550 C   0  0  0  0  0  0  0  0  0  0  0  0
  133.1560  132.0870   57.1400 C   0  0  0  0  0  0  0  0  0  0  0  0
  132.4960  132.5010   55.9850 C   0  0  0  0  0  0  0  0  0  0  0  0
  131.1040  132.5330   55.9360 C   0  0  0  0  0  0  0  0  0  0  0  0
  130.3670  132.1470   57.0520 C   0  0  0  0  0  0  0  0  0  0  0  0
  130.0930  129.9530   59.7940 C   0  0  0  0  0  0  0  0  0  0  0  0
  130.5980  128.7220   59.2430 C   0  0  0  0  0  0  0  0  0  0  0  0
  131.3840  128.6910   58.1190 N   0  0  0  0  0  0  0  0  0  0  0  0
  133.2510  123.9470   60.5900 C   0  0  0  0  0  0  0  0  0  0  0  0
  133.6450  122.6130   60.6430 C   0  0  0  0  0  0  0  0  0  0  0  0
  1  2  1  0
  2  3  1  0
  3  4  1  0
  4  5  2  0
  4  6  1  0
  6  7  2  0
  7  8  1  0
  8  9  2  0
  9 10  1  0
 10 11  1  0
 11 12  2  0
 11 13  1  0
 13 14  1  0
 14 15  1  0
 15 16  2  0
 16 17  1  0
 17 18  1  0
 17 19  2  0
 19 20  1  0
 20 21  1  0
 21 22  2  0
 22 23  1  0
 23 24  2  0
 24 25  1  0
 25 26  2  0
 20 27  2  0
 27 28  1  0
 28 29  1  0
  9 30  1  0
 30 31  2  0
 31  6  1  0
 28 13  2  0
 27 15  1  0
 26 21  1  0
M  END
>  <Binding energies>  (63) 
[-7.33]

>  <Ligand effiencies>  (63) 
[-0.21558823529411764]

>  <Interactions>  (63) 
["V-A:LEU:475:CD2:4256, V-B:TYR:539:CD1:9845, V-B:TYR:539:CE1:9847, H-A:ASP:366:OD2:3212, H-A:ASP:366:OD1:3211, V-A:ASP:366:CG:3210, V-A:ILE:369:CD1:3236, V-A:TYR:539:C:4865, V-A:ALA:541:CB:4890, V-A:PRO:540:CA:4881, V-A:PRO:540:CB:4883, V-A:PRO:540:N:4882, V-A:LEU:363:CD1:3186, V-A:ILE:538:CA:4858, V-B:TYR:539:CG:9844, V-A:ILE:538:CB:4860, V-A:ILE:538:CG2:4861, V-A:TYR:531:CE2:4791, V-A:PRO:540:CD:4885, V-A:ILE:369:CG2:3234, V-A:ILE:369:CB:3233, H-A:TYR:531:OH:4793, V-A:LEU:373:CD1:3277, V-A:SER:385:CA:3404, V-A:SER:385:CB:3406, V-A:ASP:366:CB:3209, V-B:TYR:539:CB:9843, V-A:LEU:363:CA:3182"]

$$$$
4eb_Grossjean_2025
     RDKit          3D

 30 33  0  0  0  0  0  0  0  0999 V2000
  128.6270  132.8400   54.7230 C   0  0  0  0  0  0  0  0  0  0  0  0
  129.1260  133.2560   55.9860 O   0  0  0  0  0  0  0  0  0  0  0  0
  130.3410  132.8380   56.4290 C   0  0  0  0  0  0  0  0  0  0  0  0
  131.3720  133.5060   56.3170 O   0  0  0  0  0  0  0  0  0  0  0  0
  130.3030  131.4800   57.0690 C   0  0  0  0  0  0  0  0  0  0  0  0
  131.5080  130.8490   57.4060 C   0  0  0  0  0  0  0  0  0  0  0  0
  131.5070  129.5910   58.0000 C   0  0  0  0  0  0  0  0  0  0  0  0
  130.3040  128.9360   58.2700 C   0  0  0  0  0  0  0  0  0  0  0  0
  130.4240  127.6690   58.8720 N   0  0  0  0  0  0  0  0  0  0  0  0
  131.2540  126.6360   58.5860 C   0  0  0  0  0  0  0  0  0  0  0  0
  132.0940  126.6500   57.6860 O   0  0  0  0  0  0  0  0  0  0  0  0
  131.0950  125.4530   59.4360 C   0  0  0  0  0  0  0  0  0  0  0  0
  130.5670  123.9190   58.7400 S   0  0  0  0  0  0  0  0  0  0  0  0
  130.6400  123.1310   60.3000 C   0  0  0  0  0  0  0  0  0  0  0  0
  130.3280  121.8430   60.4540 N   0  0  0  0  0  0  0  0  0  0  0  0
  130.4260  121.3540   61.7140 C   0  0  0  0  0  0  0  0  0  0  0  0
  130.0670  119.8860   61.8660 C   0  0  0  0  0  0  0  0  0  0  0  0
  130.8230  122.1130   62.8120 C   0  0  0  0  0  0  0  0  0  0  0  0
  131.1490  123.4640   62.6460 C   0  0  0  0  0  0  0  0  0  0  0  0
  131.5690  124.2580   63.8230 C   0  0  0  0  0  0  0  0  0  0  0  0
  132.9070  124.6340   63.9750 C   0  0  0  0  0  0  0  0  0  0  0  0
  133.3030  125.3830   65.0810 C   0  0  0  0  0  0  0  0  0  0  0  0
  132.3600  125.7520   66.0360 C   0  0  0  0  0  0  0  0  0  0  0  0
  131.0250  125.3800   65.8950 C   0  0  0  0  0  0  0  0  0  0  0  0
  130.6310  124.6320   64.7890 C   0  0  0  0  0  0  0  0  0  0  0  0
  131.0590  124.0160   61.3390 C   0  0  0  0  0  0  0  0  0  0  0  0
  131.3120  125.3330   60.8180 C   0  0  0  0  0  0  0  0  0  0  0  0
  131.7280  126.3690   61.6160 N   0  0  0  0  0  0  0  0  0  0  0  0
  129.0920  129.5600   57.9360 C   0  0  0  0  0  0  0  0  0  0  0  0
  129.0950  130.8190   57.3420 C   0  0  0  0  0  0  0  0  0  0  0  0
  1  2  1  0
  2  3  1  0
  3  4  2  0
  3  5  1  0
  5  6  2  0
  6  7  1  0
  7  8  2  0
  8  9  1  0
  9 10  1  0
 10 11  2  0
 10 12  1  0
 12 13  1  0
 13 14  1  0
 14 15  2  0
 15 16  1  0
 16 17  1  0
 16 18  2  0
 18 19  1  0
 19 20  1  0
 20 21  2  0
 21 22  1  0
 22 23  2  0
 23 24  1  0
 24 25  2  0
 19 26  2  0
 26 27  1  0
 27 28  1  0
  8 29  1  0
 29 30  2  0
 30  5  1  0
 27 12  2  0
 26 14  1  0
 25 20  1  0
M  END
>  <Binding energies>  (64) 
[-7.19]

>  <Ligand effiencies>  (64) 
[-0.2178787878787879]

>  <Interactions>  (64) 
["V-A:HIS:456:CE1:4066, V-A:LEU:475:CD2:4256, V-A:GLY:454:CA:4046, V-B:TYR:539:CD1:9845, V-B:GLU:543:CB:9878, V-B:TYR:539:CE1:9847, V-B:GLU:543:CD:9880, V-A:ARG:545:CZ:4924, V-B:ALA:541:CB:9864, H-A:ASP:366:OD2:3212, H-A:ASP:366:OD1:3211, V-A:ASP:366:CG:3210, H-A:GLU:543:OE2:4908, V-A:ARG:545:CD:4921, V-A:ARG:545:CG:4920, V-A:TYR:539:C:4865, V-A:PRO:540:N:4882, V-A:ILE:538:CA:4858, V-A:ILE:538:C:4856, V-A:ILE:538:CB:4860, V-A:MET:535:CE:4833, V-B:TYR:539:CZ:9849, H-A:TYR:531:OH:4793, V-A:PRO:482:CB:4323, V-A:TYR:539:CD2:4872, V-A:TYR:539:CE2:4874, V-A:TYR:539:CZ:4875, V-A:ASP:366:CB:3209, V-B:ALA:541:CA:9862, V-A:VAL:537:C:4848, H-A:TYR:539:N:4868"]

$$$$
8b_Ghoteimi_2023
     RDKit          3D

 34 38  0  0  0  0  0  0  0  0999 V2000
  132.1630  116.8750   60.0280 C   0  0  0  0  0  0  0  0  0  0  0  0
  133.2140  117.7200   60.4830 O   0  0  0  0  0  0  0  0  0  0  0  0
  132.9540  119.0590   60.7030 C   0  0  0  0  0  0  0  0  0  0  0  0
  131.6170  119.4160   60.8660 C   0  0  0  0  0  0  0  0  0  0  0  0
  131.2600  120.7410   61.0910 C   0  0  0  0  0  0  0  0  0  0  0  0
  132.2340  121.7480   61.1590 C   0  0  0  0  0  0  0  0  0  0  0  0
  131.8560  123.1750   61.3990 C   0  0  0  0  0  0  0  0  0  0  0  0
  131.7300  123.6970   62.6900 C   0  0  0  0  0  0  0  0  0  0  0  0
  131.3760  125.0350   62.8870 C   0  0  0  0  0  0  0  0  0  0  0  0
  131.2410  125.5540   64.2680 C   0  0  0  0  0  0  0  0  0  0  0  0
  129.9980  125.9740   64.7440 C   0  0  0  0  0  0  0  0  0  0  0  0
  129.8720  126.4520   66.0450 C   0  0  0  0  0  0  0  0  0  0  0  0
  130.9830  126.5200   66.8870 C   0  0  0  0  0  0  0  0  0  0  0  0
  130.7630  127.0060   68.1620 O   0  0  0  0  0  0  0  0  0  0  0  0
  129.5020  127.5890   68.4750 C   0  0  0  0  0  0  0  0  0  0  0  0
  132.2320  126.1010   66.4050 C   0  0  0  0  0  0  0  0  0  0  0  0
  132.3570  125.6220   65.1040 C   0  0  0  0  0  0  0  0  0  0  0  0
  131.1570  125.8450   61.7410 C   0  0  0  0  0  0  0  0  0  0  0  0
  130.7950  127.2290   61.5770 C   0  0  0  0  0  0  0  0  0  0  0  0
  130.5860  128.0640   62.6450 N   0  0  0  0  0  0  0  0  0  0  0  0
  130.6820  127.6320   60.2370 C   0  0  0  0  0  0  0  0  0  0  0  0
  130.3390  128.9540   59.7100 C   0  0  0  0  0  0  0  0  0  0  0  0
  129.2980  129.5190   60.0550 O   0  0  0  0  0  0  0  0  0  0  0  0
  131.2340  129.4830   58.8370 N   0  0  0  0  0  0  0  0  0  0  0  0
  131.1630  130.7110   58.1930 C   0  0  0  0  0  0  0  0  0  0  0  0
  132.1860  131.2090   57.3880 C   0  0  0  0  0  0  0  0  0  0  0  0
  131.7340  132.4320   56.9500 C   0  0  0  0  0  0  0  0  0  0  0  0
  130.5010  132.6580   57.4610 O   0  0  0  0  0  0  0  0  0  0  0  0
  130.1480  131.5590   58.2470 N   0  0  0  0  0  0  0  0  0  0  0  0
  131.0260  126.2950   59.1380 S   0  0  0  0  0  0  0  0  0  0  0  0
  131.3180  125.2090   60.4770 C   0  0  0  0  0  0  0  0  0  0  0  0
  131.6530  123.9330   60.2870 N   0  0  0  0  0  0  0  0  0  0  0  0
  133.5770  121.3830   60.9970 C   0  0  0  0  0  0  0  0  0  0  0  0
  133.9370  120.0570   60.7710 C   0  0  0  0  0  0  0  0  0  0  0  0
  1  2  1  0
  2  3  1  0
  3  4  2  0
  4  5  1  0
  5  6  2  0
  6  7  1  0
  7  8  2  0
  8  9  1  0
  9 10  1  0
 10 11  2  0
 11 12  1  0
 12 13  2  0
 13 14  1  0
 14 15  1  0
 13 16  1  0
 16 17  2  0
  9 18  2  0
 18 19  1  0
 19 20  1  0
 19 21  2  0
 21 22  1  0
 22 23  2  0
 22 24  1  0
 24 25  1  0
 25 26  1  0
 26 27  2  0
 27 28  1  0
 28 29  1  0
 21 30  1  0
 30 31  1  0
 31 32  2  0
  6 33  1  0
 33 34  2  0
 34  3  1  0
 32  7  1  0
 17 10  1  0
 31 18  1  0
 29 25  2  0
M  END
>  <Binding energies>  (65) 
[-6.62]

>  <Ligand effiencies>  (65) 
[-0.17891891891891892]

>  <Interactions>  (65) 
["V-A:HIS:456:CE1:4066, V-B:GLU:543:CG:9879, V-A:LEU:475:CD2:4256, V-B:TYR:539:CD1:9845, V-B:GLU:543:CB:9878, V-B:TYR:539:CE1:9847, V-B:GLU:543:CD:9880, V-A:ARG:545:CZ:4924, H-A:ASP:366:OD2:3212, H-A:ASP:366:OD1:3211, V-A:ASP:366:CG:3210, H-A:GLU:543:OE2:4908, H-A:GLU:543:OE1:4907, V-A:GLU:543:CD:4906, V-A:ARG:545:CD:4921, V-A:ILE:369:CD1:3236, V-A:ARG:545:CG:4920, V-A:PRO:540:CA:4881, V-A:PRO:540:CB:4883, V-A:PRO:540:N:4882, V-A:PRO:540:CD:4885, V-A:ILE:369:CG2:3234, H-A:TYR:531:OH:4793, V-A:LEU:373:CD1:3277, V-A:SER:385:CA:3404, V-A:SER:385:CB:3406, H-A:HIS:456:NE2:4067, H-A:TYR:539:N:4868, V-A:GLU:543:CG:4905, V-A:SER:385:C:3402"]

$$$$
9d_Ghoteimi_2023
     RDKit          3D

 38 43  0  0  0  0  0  0  0  0999 V2000
  134.3670  123.9650   59.7250 C   0  0  0  0  0  0  0  0  0  0  0  0
  133.5370  122.8460   59.9980 O   0  0  0  0  0  0  0  0  0  0  0  0
  133.4120  122.3630   61.2620 C   0  0  0  0  0  0  0  0  0  0  0  0
  133.8790  121.2840   61.6370 O   0  0  0  0  0  0  0  0  0  0  0  0
  132.6480  123.2660   62.1510 C   0  0  0  0  0  0  0  0  0  0  0  0
  132.8400  123.1440   63.8990 S   0  0  0  0  0  0  0  0  0  0  0  0
  131.7180  124.4600   64.1530 C   0  0  0  0  0  0  0  0  0  0  0  0
  131.4360  124.9100   65.3750 N   0  0  0  0  0  0  0  0  0  0  0  0
  130.5640  125.9490   65.4640 C   0  0  0  0  0  0  0  0  0  0  0  0
  130.2820  126.4540   66.8430 C   0  0  0  0  0  0  0  0  0  0  0  0
  131.2120  127.2600   67.5080 C   0  0  0  0  0  0  0  0  0  0  0  0
  130.9600  127.7330   68.7930 C   0  0  0  0  0  0  0  0  0  0  0  0
  129.7610  127.4270   69.4560 C   0  0  0  0  0  0  0  0  0  0  0  0
  129.5010  127.8810   70.7540 N   0  0  0  0  0  0  0  0  0  0  0  0
  128.2840  127.4680   71.4830 C   0  0  0  0  0  0  0  0  0  0  0  0
  127.9880  128.3200   72.7350 C   0  0  0  0  0  0  0  0  0  0  0  0
  129.1160  128.3310   73.5930 O   0  0  0  0  0  0  0  0  0  0  0  0
  130.2510  128.8870   72.9520 C   0  0  0  0  0  0  0  0  0  0  0  0
  130.6190  128.0550   71.7050 C   0  0  0  0  0  0  0  0  0  0  0  0
  128.8390  126.6060   68.7910 C   0  0  0  0  0  0  0  0  0  0  0  0
  129.0930  126.1300   67.5070 C   0  0  0  0  0  0  0  0  0  0  0  0
  129.9550  126.5100   64.3390 C   0  0  0  0  0  0  0  0  0  0  0  0
  130.2330  126.0280   63.0550 C   0  0  0  0  0  0  0  0  0  0  0  0
  129.5360  126.6420   61.8950 C   0  0  0  0  0  0  0  0  0  0  0  0
  128.2460  126.2400   61.5430 C   0  0  0  0  0  0  0  0  0  0  0  0
  127.5900  126.8320   60.4670 C   0  0  0  0  0  0  0  0  0  0  0  0
  128.2020  127.8540   59.7240 C   0  0  0  0  0  0  0  0  0  0  0  0
  127.5690  128.4570   58.6340 N   0  0  0  0  0  0  0  0  0  0  0  0
  126.0960  128.4240   58.5520 C   0  0  0  0  0  0  0  0  0  0  0  0
  125.5200  129.4370   57.5410 C   0  0  0  0  0  0  0  0  0  0  0  0
  126.1030  129.2350   56.2620 O   0  0  0  0  0  0  0  0  0  0  0  0
  127.5130  129.4000   56.2970 C   0  0  0  0  0  0  0  0  0  0  0  0
  128.1380  128.3820   57.2750 C   0  0  0  0  0  0  0  0  0  0  0  0
  129.4980  128.2490   60.0850 C   0  0  0  0  0  0  0  0  0  0  0  0
  130.1540  127.6560   61.1600 C   0  0  0  0  0  0  0  0  0  0  0  0
  131.1750  124.9680   62.9360 C   0  0  0  0  0  0  0  0  0  0  0  0
  131.7420  124.2770   61.8070 C   0  0  0  0  0  0  0  0  0  0  0  0
  131.4380  124.5960   60.5090 N   0  0  0  0  0  0  0  0  0  0  0  0
  1  2  1  0
  2  3  1  0
  3  4  2  0
  3  5  1  0
  5  6  1  0
  6  7  1  0
  7  8  2  0
  8  9  1  0
  9 10  1  0
 10 11  2  0
 11 12  1  0
 12 13  2  0
 13 14  1  0
 14 15  1  0
 15 16  1  0
 16 17  1  0
 17 18  1  0
 18 19  1  0
 13 20  1  0
 20 21  2  0
  9 22  2  0
 22 23  1  0
 23 24  1  0
 24 25  2  0
 25 26  1  0
 26 27  2  0
 27 28  1  0
 28 29  1  0
 29 30  1  0
 30 31  1  0
 31 32  1  0
 32 33  1  0
 27 34  1  0
 34 35  2  0
 23 36  2  0
 36 37  1  0
 37 38  1  0
 37  5  2  0
 36  7  1  0
 21 10  1  0
 35 24  1  0
 19 14  1  0
 33 28  1  0
M  END
>  <Binding energies>  (66) 
[-5.72]

>  <Ligand effiencies>  (66) 
[-0.143]

>  <Interactions>  (66) 
["V-B:HIS:456:CE1:9040, V-A:LYS:547:CE:4948, H-A:LYS:547:NZ:4949, V-B:HIS:456:CD2:9039, V-B:HIS:456:CG:9037, V-A:HIS:456:CE1:4066, V-A:GLY:544:C:4910, V-B:GLU:543:CG:9879, V-A:LEU:475:CD2:4256, H-A:TYR:484:OH:4345, V-A:GLY:454:CA:4046, V-B:ASP:366:CG:8184, V-B:GLU:543:CB:9878, V-B:GLU:543:CD:9880, H-A:ASP:366:OD1:3211, V-A:ASP:366:CG:3210, V-B:ASP:366:CB:8183, H-B:TYR:531:OH:9767, V-A:GLU:543:CD:4906, V-A:ILE:369:CD1:3236, V-A:ARG:545:CG:4920, V-A:MET:535:CE:4833, V-A:ILE:369:CG2:3234, V-A:ILE:369:CB:3233, V-A:ASP:366:CA:3207, V-B:GLU:543:C:9874, V-A:GLU:543:C:4900, V-A:GLY:544:CA:4912, V-B:GLY:544:C:9884, V-A:GLU:543:CG:4905, V-A:ILE:369:CG1:3235"]

$$$$
RR10_Rahimova_2017
     RDKit          3D

 34 38  0  0  0  0  0  0  0  0999 V2000
  134.2500  124.2440   59.0030 C   0  0  0  0  0  0  0  0  0  0  0  0
  133.9020  123.7260   60.4090 C   0  0  1  0  0  0  0  0  0  0  0  0
  132.9750  124.7020   61.1700 C   0  0  0  0  0  0  0  0  0  0  0  0
  132.6670  124.1790   62.5920 C   0  0  0  0  0  0  0  0  0  0  0  0
  132.0150  122.7720   62.5680 C   0  0  1  0  0  0  0  0  0  0  0  0
  130.6630  122.8350   61.9970 N   0  0  0  0  0  0  0  0  0  0  0  0
  129.8960  121.7720   61.6910 C   0  0  0  0  0  0  0  0  0  0  0  0
  130.2530  120.6080   61.8850 O   0  0  0  0  0  0  0  0  0  0  0  0
  128.5210  122.0690   61.0580 C   0  0  1  0  0  0  0  0  0  0  0  0
  127.7760  123.1240   61.9160 C   0  0  0  0  0  0  0  0  0  0  0  0
  126.4360  123.4930   61.2350 C   0  0  0  0  0  0  0  0  0  0  0  0
  126.6170  123.9000   59.7540 C   0  0  0  0  0  0  0  0  0  0  0  0
  127.3940  122.8680   59.0160 N   0  0  0  0  0  0  0  0  0  0  0  0
  127.4080  123.0780   57.2570 S   0  0  0  0  0  0  0  0  0  0  0  0
  126.0270  123.3070   56.8140 O   0  0  0  0  0  0  0  0  0  0  0  0
  128.1990  121.9840   56.6790 O   0  0  0  0  0  0  0  0  0  0  0  0
  128.2980  124.6090   56.9780 C   0  0  0  0  0  0  0  0  0  0  0  0
  129.5000  124.5820   56.2620 C   0  0  0  0  0  0  0  0  0  0  0  0
  130.2430  125.7390   56.0120 C   0  0  0  0  0  0  0  0  0  0  0  0
  129.7230  126.9350   56.5140 C   0  0  0  0  0  0  0  0  0  0  0  0
  130.1440  128.2430   56.4850 N   0  0  0  0  0  0  0  0  0  0  0  0
  129.2120  129.0050   57.1580 C   0  0  0  0  0  0  0  0  0  0  0  0
  129.3320  130.4900   57.3460 C   0  0  0  0  0  0  0  0  0  0  0  0
  130.1130  131.0130   58.3850 C   0  0  0  0  0  0  0  0  0  0  0  0
  130.2280  132.3890   58.5580 C   0  0  0  0  0  0  0  0  0  0  0  0
  129.5600  133.2520   57.6930 C   0  0  0  0  0  0  0  0  0  0  0  0
  128.7800  132.7490   56.6560 C   0  0  0  0  0  0  0  0  0  0  0  0
  128.6660  131.3710   56.4840 C   0  0  0  0  0  0  0  0  0  0  0  0
  128.2160  128.2760   57.6130 N   0  0  0  0  0  0  0  0  0  0  0  0
  128.5050  126.9920   57.2330 C   0  0  0  0  0  0  0  0  0  0  0  0
  127.7800  125.8140   57.4660 C   0  0  0  0  0  0  0  0  0  0  0  0
  128.7250  122.5900   59.6140 C   0  0  0  0  0  0  0  0  0  0  0  0
  132.9480  121.8080   61.7870 C   0  0  0  0  0  0  0  0  0  0  0  0
  133.2520  122.3240   60.3620 C   0  0  0  0  0  0  0  0  0  0  0  0
  2  1  1  6
  2  3  1  0
  3  4  1  0
  4  5  1  0
  5  6  1  6
  6  7  1  0
  7  8  2  0
  9  7  1  1
  9 10  1  0
 10 11  1  0
 11 12  1  0
 12 13  1  0
 13 14  1  0
 14 15  2  0
 14 16  2  0
 14 17  1  0
 17 18  2  0
 18 19  1  0
 19 20  2  0
 20 21  1  0
 21 22  1  0
 22 23  1  0
 23 24  2  0
 24 25  1  0
 25 26  2  0
 26 27  1  0
 27 28  2  0
 22 29  2  0
 29 30  1  0
 30 31  2  0
 13 32  1  0
  5 33  1  0
 33 34  1  0
 34  2  1  0
 32  9  1  0
 31 17  1  0
 30 20  1  0
 28 23  1  0
M  END
>  <Binding energies>  (67) 
[-9.96]

>  <Ligand effiencies>  (67) 
[-0.27666666666666667]

>  <Interactions>  (67) 
["V-A:LEU:475:CD2:4256, V-B:TYR:539:CD1:9845, V-B:TYR:539:C:9839, V-B:PRO:540:C:9853, V-B:TYR:539:CE1:9847, V-B:PRO:540:CB:9857, V-B:PRO:540:CA:9855, V-B:ALA:541:CB:9864, V-A:ASP:366:CG:3210, V-B:PRO:540:N:9856, V-A:ILE:369:CD1:3236, V-A:TYR:539:CE1:4873, V-A:TYR:539:C:4865, V-A:PRO:540:CA:4881, V-A:TYR:539:CD1:4871, V-A:PRO:540:N:4882, V-A:TYR:539:CA:4867, V-A:TYR:539:CG:4870, H-B:TYR:539:N:9842, V-A:MET:535:CE:4833, V-B:TYR:539:CZ:9849, V-A:TYR:531:CZ:4792, V-B:MET:535:CE:9807, V-A:ILE:369:CG2:3234, V-A:ILE:369:CB:3233, H-A:TYR:531:OH:4793, V-A:TYR:539:CD2:4872, V-A:TYR:539:CE2:4874, V-A:TYR:539:CZ:4875, V-A:ASP:366:CB:3209, V-A:ASP:366:CA:3207, V-B:ALA:541:CA:9862, V-A:TYR:539:CB:4869"]

$$$$
RR12_Rahimova_2017
     RDKit          3D

 26 28  0  0  0  0  0  0  0  0999 V2000
  131.2220  122.7730   63.7070 C   0  0  0  0  0  0  0  0  0  0  0  0
  129.9780  122.7380   62.8100 C   0  0  0  0  0  0  0  0  0  0  0  0
  130.3270  122.7790   61.3110 C   0  0  0  0  0  0  0  0  0  0  0  0
  131.4870  121.9370   61.0270 N   0  0  0  0  0  0  0  0  0  0  0  0
  132.7800  122.3500   60.7450 C   0  0  0  0  0  0  0  0  0  0  0  0
  133.2010  123.8060   60.6380 C   0  0  0  0  0  0  0  0  0  0  0  0
  133.3290  124.2740   59.1770 C   0  0  0  0  0  0  0  0  0  0  0  0
  132.2390  125.2880   58.7800 C   0  0  0  0  0  0  0  0  0  0  0  0
  131.1700  124.7170   57.9610 N   0  0  0  0  0  0  0  0  0  0  0  0
  130.9370  125.0230   56.6720 C   0  0  0  0  0  0  0  0  0  0  0  0
  131.6130  125.8360   56.0380 O   0  0  0  0  0  0  0  0  0  0  0  0
  129.7620  124.2860   56.0170 C   0  0  0  0  0  0  0  0  0  0  0  0
  129.2060  123.3550   56.9460 O   0  0  0  0  0  0  0  0  0  0  0  0
  127.8330  123.2810   57.0910 C   0  0  0  0  0  0  0  0  0  0  0  0
  127.3270  123.5760   58.3590 C   0  0  0  0  0  0  0  0  0  0  0  0
  125.9560  123.5320   58.6010 C   0  0  0  0  0  0  0  0  0  0  0  0
  125.0850  123.1910   57.5700 C   0  0  0  0  0  0  0  0  0  0  0  0
  125.5730  122.8920   56.3000 C   0  0  0  0  0  0  0  0  0  0  0  0
  126.9440  122.9360   56.0590 C   0  0  0  0  0  0  0  0  0  0  0  0
  133.6140  121.3570   60.5590 N   0  0  0  0  0  0  0  0  0  0  0  0
  132.8640  120.2290   60.7470 C   0  0  0  0  0  0  0  0  0  0  0  0
  133.2590  118.8840   60.6800 C   0  0  0  0  0  0  0  0  0  0  0  0
  132.2960  117.9040   60.9210 C   0  0  0  0  0  0  0  0  0  0  0  0
  130.9760  118.2420   61.2200 C   0  0  0  0  0  0  0  0  0  0  0  0
  130.5510  119.5700   61.2930 C   0  0  0  0  0  0  0  0  0  0  0  0
  131.5180  120.5550   61.0500 C   0  0  0  0  0  0  0  0  0  0  0  0
  1  2  1  0
  2  3  1  0
  3  4  1  0
  4  5  1  0
  5  6  1  0
  6  7  1  0
  7  8  1  0
  8  9  1  0
  9 10  1  0
 10 11  2  0
 10 12  1  0
 12 13  1  0
 13 14  1  0
 14 15  2  0
 15 16  1  0
 16 17  2  0
 17 18  1  0
 18 19  2  0
  5 20  2  0
 20 21  1  0
 21 22  2  0
 22 23  1  0
 23 24  2  0
 24 25  1  0
 25 26  2  0
 26  4  1  0
 19 14  1  0
 26 21  1  0
M  END
>  <Binding energies>  (68) 
[-7.26]

>  <Ligand effiencies>  (68) 
[-0.2688888888888889]

>  <Interactions>  (68) 
["V-A:LEU:475:CD2:4256, V-B:TYR:539:CD1:9845, V-B:TYR:539:CE1:9847, V-B:PRO:540:CB:9857, V-B:PRO:540:CA:9855, V-B:ALA:541:CB:9864, V-A:ASP:366:CG:3210, V-B:PRO:540:N:9856, V-B:TYR:539:CE2:9848, V-B:ILE:538:CB:9834, V-B:PRO:540:CD:9859, V-B:TYR:539:CZ:9849, V-B:ILE:538:CG2:9835, V-B:ILE:538:CA:9832, V-B:MET:535:CE:9807, V-A:ILE:369:CG2:3234, H-A:TYR:531:OH:4793, V-A:LEU:373:CD1:3277, V-A:PRO:482:CG:4324, V-A:SER:385:CA:3404, V-A:SER:385:CB:3406, V-A:PRO:482:CB:4323, V-A:ASP:366:CB:3209, V-A:ASP:366:CA:3207, H-B:TYR:539:OH:9850, V-B:LEU:363:CD1:8160"]

$$$$
RR13_Rahimova_2017
     RDKit          3D

 48 54  0  0  0  0  0  0  0  0999 V2000
  128.3600  123.1100   60.7000 Cl  0  0  0  0  0  0  0  0  0  0  0  0
  128.6270  123.3750   59.0100 C   0  0  0  0  0  0  0  0  0  0  0  0
  127.7590  122.7550   58.1080 C   0  0  0  0  0  0  0  0  0  0  0  0
  127.9340  122.9110   56.7360 C   0  0  0  0  0  0  0  0  0  0  0  0
  128.9840  123.6900   56.2550 C   0  0  0  0  0  0  0  0  0  0  0  0
  129.8540  124.3120   57.1480 C   0  0  0  0  0  0  0  0  0  0  0  0
  129.6860  124.1760   58.5360 C   0  0  0  0  0  0  0  0  0  0  0  0
  130.6800  124.8560   59.5040 C   0  0  1  0  0  0  0  0  0  0  0  0
  132.1290  124.4800   59.1610 C   0  0  0  0  0  0  0  0  0  0  0  0
  132.7380  124.6690   58.0110 N   0  0  0  0  0  0  0  0  0  0  0  0
  134.0190  124.1480   58.1680 N   0  0  0  0  0  0  0  0  0  0  0  0
  134.1640  123.6220   59.4360 N   0  0  0  0  0  0  0  0  0  0  0  0
  132.9780  123.8160   60.0210 N   0  0  0  0  0  0  0  0  0  0  0  0
  132.7630  123.4150   61.4060 C   0  0  0  0  0  0  0  0  0  0  0  0
  131.4670  122.5920   61.5290 C   0  0  0  0  0  0  0  0  0  0  0  0
  131.6880  121.1200   61.2170 C   0  0  0  0  0  0  0  0  0  0  0  0
  132.9370  120.6830   60.7680 C   0  0  0  0  0  0  0  0  0  0  0  0
  133.1370  119.3370   60.4750 C   0  0  0  0  0  0  0  0  0  0  0  0
  132.0880  118.4330   60.6320 C   0  0  0  0  0  0  0  0  0  0  0  0
  130.8410  118.8630   61.0780 C   0  0  0  0  0  0  0  0  0  0  0  0
  130.6400  120.2100   61.3710 C   0  0  0  0  0  0  0  0  0  0  0  0
  130.4870  126.3210   59.6140 N   0  0  0  0  0  0  0  0  0  0  0  0
  130.8950  126.7980   60.9490 C   0  0  0  0  0  0  0  0  0  0  0  0
  130.8230  128.3400   61.0270 C   0  0  0  0  0  0  0  0  0  0  0  0
  129.4460  128.8080   60.7980 N   0  0  0  0  0  0  0  0  0  0  0  0
  129.3140  130.2760   60.9450 C   0  0  1  0  0  0  0  0  0  0  0  0
  128.3190  130.7500   62.0270 C   0  0  0  0  0  0  0  0  0  0  0  0
  127.8330  129.7830   62.9180 C   0  0  0  0  0  0  0  0  0  0  0  0
  126.9450  130.1240   63.9370 C   0  0  0  0  0  0  0  0  0  0  0  0
  126.5230  131.4420   64.0780 C   0  0  0  0  0  0  0  0  0  0  0  0
  126.9800  132.4150   63.1940 C   0  0  0  0  0  0  0  0  0  0  0  0
  127.8680  132.0840   62.1660 C   0  0  0  0  0  0  0  0  0  0  0  0
  128.3240  133.3510   61.0770 Cl  0  0  0  0  0  0  0  0  0  0  0  0
  130.6580  130.9860   61.1190 C   0  0  0  0  0  0  0  0  0  0  0  0
  131.0740  131.5700   62.2190 N   0  0  0  0  0  0  0  0  0  0  0  0
  132.3440  132.0630   61.9340 N   0  0  0  0  0  0  0  0  0  0  0  0
  132.6920  131.7490   60.6360 N   0  0  0  0  0  0  0  0  0  0  0  0
  131.6450  131.0650   60.1590 N   0  0  0  0  0  0  0  0  0  0  0  0
  131.6540  130.5820   58.7830 C   0  0  0  0  0  0  0  0  0  0  0  0
  131.6910  131.7660   57.7990 C   0  0  0  0  0  0  0  0  0  0  0  0
  130.3980  131.8960   57.0090 C   0  0  0  0  0  0  0  0  0  0  0  0
  130.3730  132.6450   55.8290 C   0  0  0  0  0  0  0  0  0  0  0  0
  129.1910  132.7580   55.1020 C   0  0  0  0  0  0  0  0  0  0  0  0
  128.0360  132.1230   55.5580 C   0  0  0  0  0  0  0  0  0  0  0  0
  128.0560  131.3740   56.7350 C   0  0  0  0  0  0  0  0  0  0  0  0
  129.2370  131.2600   57.4610 C   0  0  0  0  0  0  0  0  0  0  0  0
  129.0440  128.3350   59.4610 C   0  0  0  0  0  0  0  0  0  0  0  0
  129.1080  126.7910   59.3920 C   0  0  0  0  0  0  0  0  0  0  0  0
  1  2  1  0
  2  3  2  0
  3  4  1  0
  4  5  2  0
  5  6  1  0
  6  7  2  0
  7  8  1  0
  8  9  1  0
  9 10  2  0
 10 11  1  0
 11 12  2  0
 12 13  1  0
 13 14  1  0
 14 15  1  0
 15 16  1  0
 16 17  2  0
 17 18  1  0
 18 19  2  0
 19 20  1  0
 20 21  2  0
  8 22  1  6
 22 23  1  0
 23 24  1  0
 24 25  1  0
 26 25  1  1
 26 27  1  0
 27 28  2  0
 28 29  1  0
 29 30  2  0
 30 31  1  0
 31 32  2  0
 32 33  1  0
 26 34  1  0
 34 35  2  0
 35 36  1  0
 36 37  2  0
 37 38  1  0
 38 39  1  0
 39 40  1  0
 40 41  1  0
 41 42  2  0
 42 43  1  0
 43 44  2  0
 44 45  1  0
 45 46  2  0
 25 47  1  0
 47 48  1  0
  7  2  1  0
 13  9  1  0
 21 16  1  0
 48 22  1  0
 32 27  1  0
 38 34  1  0
 46 41  1  0
M  END
>  <Binding energies>  (69) 
[-14.07]

>  <Ligand effiencies>  (69) 
[-0.293125]

>  <Interactions>  (69) 
["V-A:LEU:475:CD2:4256, V-B:TYR:539:CD1:9845, V-B:TYR:539:C:9839, V-B:TYR:539:CE1:9847, V-B:PRO:540:CA:9855, V-B:ALA:541:CB:9864, V-A:ASP:366:CG:3210, V-B:PRO:540:N:9856, V-A:GLU:543:CD:4906, V-A:TYR:539:CE1:4873, V-B:LEU:475:CD2:9230, V-A:TYR:539:C:4865, V-A:ALA:541:CB:4890, V-A:PRO:540:CA:4881, V-A:TYR:539:CD1:4871, V-A:PRO:540:CB:4883, V-A:PRO:540:N:4882, V-A:ILE:538:CA:4858, V-A:ILE:538:C:4856, V-B:TYR:539:CE2:9848, V-A:ILE:538:CB:4860, V-A:MET:535:CE:4833, V-B:TYR:539:CZ:9849, V-A:ILE:538:CG2:4861, V-B:MET:535:CE:9807, V-A:ILE:369:CG2:3234, V-A:LEU:373:CD1:3277, V-A:PRO:482:CG:4324, V-A:SER:385:CA:3404, V-A:SER:385:CB:3406, V-A:PRO:482:CB:4323, V-A:TYR:539:CD2:4872, V-A:TYR:539:CE2:4874, V-A:TYR:539:CZ:4875, H-B:TYR:539:OH:9850, H-A:ALA:541:N:4889"]

$$$$
RR14_Rahimova_2017
     RDKit          3D

 39 43  0  0  0  0  0  0  0  0999 V2000
  128.7480  122.6940   54.8210 C   0  0  0  0  0  0  0  0  0  0  0  0
  127.3420  122.8940   54.7300 O   0  0  0  0  0  0  0  0  0  0  0  0
  126.6070  123.0440   55.8900 C   0  0  0  0  0  0  0  0  0  0  0  0
  125.2960  123.4980   55.7420 C   0  0  0  0  0  0  0  0  0  0  0  0
  124.4870  123.7030   56.8560 C   0  0  0  0  0  0  0  0  0  0  0  0
  124.9890  123.4590   58.1370 C   0  0  0  0  0  0  0  0  0  0  0  0
  124.1280  123.7440   59.3620 C   0  0  0  0  0  0  0  0  0  0  0  0
  124.8810  123.7200   60.6160 N   0  0  0  0  0  0  0  0  0  0  0  0
  124.5200  122.8960   61.6060 N   0  0  0  0  0  0  0  0  0  0  0  0
  125.4150  123.1590   62.6250 N   0  0  0  0  0  0  0  0  0  0  0  0
  126.3070  124.1520   62.2340 N   0  0  0  0  0  0  0  0  0  0  0  0
  125.9590  124.4830   61.0120 C   0  0  0  0  0  0  0  0  0  0  0  0
  126.6330  125.5550   60.1680 C   0  0  0  0  0  0  0  0  0  0  0  0
  128.0240  125.2120   59.8290 N   0  0  0  0  0  0  0  0  0  0  0  0
  128.6630  126.2530   59.0130 C   0  0  0  0  0  0  0  0  0  0  0  0
  127.9300  126.5240   57.6810 C   0  0  0  0  0  0  0  0  0  0  0  0
  127.7010  128.0230   57.3930 C   0  0  0  0  0  0  0  0  0  0  0  0
  126.4680  128.5470   57.9910 N   0  0  0  0  0  0  0  0  0  0  0  0
  125.7120  129.3250   57.0020 C   0  0  0  0  0  0  0  0  0  0  0  0
  124.4330  129.9350   57.6140 C   0  0  0  0  0  0  0  0  0  0  0  0
  124.7610  130.7010   58.7680 O   0  0  0  0  0  0  0  0  0  0  0  0
  125.3930  129.9180   59.7740 C   0  0  0  0  0  0  0  0  0  0  0  0
  126.7020  129.3090   59.2270 C   0  0  0  0  0  0  0  0  0  0  0  0
  128.7990  124.9720   61.0550 C   0  0  0  0  0  0  0  0  0  0  0  0
  129.6280  123.6890   61.0840 C   0  0  0  0  0  0  0  0  0  0  0  0
  130.9820  123.7320   61.1290 C   0  0  0  0  0  0  0  0  0  0  0  0
  131.8080  122.5080   61.1170 C   0  0  0  0  0  0  0  0  0  0  0  0
  133.2110  122.5150   61.1830 C   0  0  0  0  0  0  0  0  0  0  0  0
  134.0000  123.8150   61.2730 C   0  0  0  0  0  0  0  0  0  0  0  0
  133.8990  121.2980   61.1680 C   0  0  0  0  0  0  0  0  0  0  0  0
  133.2070  120.0910   61.0900 C   0  0  0  0  0  0  0  0  0  0  0  0
  131.8100  120.0730   61.0260 C   0  0  0  0  0  0  0  0  0  0  0  0
  131.0830  118.7370   60.9440 C   0  0  0  0  0  0  0  0  0  0  0  0
  131.1100  121.2890   61.0410 C   0  0  0  0  0  0  0  0  0  0  0  0
  129.7010  121.3200   60.9760 N   0  0  0  0  0  0  0  0  0  0  0  0
  128.9040  122.4180   60.9830 C   0  0  0  0  0  0  0  0  0  0  0  0
  127.6810  122.3010   60.9060 O   0  0  0  0  0  0  0  0  0  0  0  0
  126.2890  122.9760   58.2930 C   0  0  0  0  0  0  0  0  0  0  0  0
  127.0970  122.7730   57.1780 C   0  0  0  0  0  0  0  0  0  0  0  0
  1  2  1  0
  2  3  1  0
  3  4  2  0
  4  5  1  0
  5  6  2  0
  6  7  1  0
  7  8  1  0
  8  9  1  0
  9 10  2  0
 10 11  1  0
 11 12  2  0
 12 13  1  0
 13 14  1  0
 14 15  1  0
 15 16  1  0
 16 17  1  0
 17 18  1  0
 18 19  1  0
 19 20  1  0
 20 21  1  0
 21 22  1  0
 22 23  1  0
 14 24  1  0
 24 25  1  0
 25 26  2  0
 26 27  1  0
 27 28  2  0
 28 29  1  0
 28 30  1  0
 30 31  2  0
 31 32  1  0
 32 33  1  0
 32 34  2  0
 34 35  1  0
 35 36  1  0
 36 37  2  0
  6 38  1  0
 38 39  2  0
 39  3  1  0
 12  8  1  0
 23 18  1  0
 36 25  1  0
 34 27  1  0
M  END
>  <Binding energies>  (70) 
[-10.38]

>  <Ligand effiencies>  (70) 
[-0.2595]

>  <Interactions>  (70) 
["V-A:LEU:475:CD2:4256, V-B:TYR:539:CD1:9845, V-B:TYR:539:C:9839, V-B:ASP:366:CG:8184, H-B:TYR:539:O:9840, V-B:TYR:539:CE1:9847, V-B:PRO:540:CB:9857, V-B:PRO:540:CA:9855, V-B:ALA:541:CB:9864, V-B:ASP:366:CB:8183, V-B:PRO:540:N:9856, H-B:TYR:531:OH:9767, V-A:ILE:369:CD1:3236, H-B:ARG:545:NH2:9900, V-B:TYR:539:CE2:9848, V-B:ILE:538:CB:9834, V-B:TYR:539:CD2:9846, V-B:PRO:540:CD:9859, V-B:TYR:539:CZ:9849, V-B:ILE:538:CG2:9835, V-B:ILE:538:CA:9832, V-B:MET:535:CE:9807, V-A:ILE:369:CG2:3234, V-A:PRO:482:CG:4324, V-A:SER:385:CA:3404, V-B:TYR:531:CZ:9766, V-B:TYR:531:CE1:9764, H-B:ALA:541:N:9863, V-B:TYR:531:CE2:9765, V-B:LEU:363:CD1:8160, H-A:TYR:539:OH:4876, V-B:ASP:366:CA:8181, V-B:ASP:366:C:8179, V-B:LEU:363:CA:8156"]

$$$$
RR15_Rahimova_2017
     RDKit          3D

 45 49  0  0  0  0  0  0  0  0999 V2000
  133.5100  118.8550   60.3890 C   0  0  0  0  0  0  0  0  0  0  0  0
  133.5180  120.2340   60.7450 O   0  0  0  0  0  0  0  0  0  0  0  0
  132.3170  120.9060   60.8920 C   0  0  0  0  0  0  0  0  0  0  0  0
  131.0980  120.2690   61.1720 C   0  0  0  0  0  0  0  0  0  0  0  0
  129.9240  121.0060   61.3060 C   0  0  0  0  0  0  0  0  0  0  0  0
  129.9320  122.3970   61.1630 C   0  0  0  0  0  0  0  0  0  0  0  0
  128.6620  123.1910   61.3010 C   0  0  0  0  0  0  0  0  0  0  0  0
  127.6020  122.7460   61.9610 N   0  0  0  0  0  0  0  0  0  0  0  0
  126.6470  123.7370   61.8620 N   0  0  0  0  0  0  0  0  0  0  0  0
  127.2640  124.7010   61.1760 N   0  0  0  0  0  0  0  0  0  0  0  0
  126.5550  125.8870   60.7000 C   0  0  0  0  0  0  0  0  0  0  0  0
  127.2970  127.2260   60.9390 C   0  0  0  0  0  0  0  0  0  0  0  0
  128.0160  127.3240   61.9360 O   0  0  0  0  0  0  0  0  0  0  0  0
  127.1650  128.2440   60.0340 N   0  0  0  0  0  0  0  0  0  0  0  0
  126.9050  127.9740   58.6060 C   0  0  0  0  0  0  0  0  0  0  0  0
  128.0800  127.2770   57.8860 C   0  0  0  0  0  0  0  0  0  0  0  0
  127.6620  126.2230   56.8320 C   0  0  0  0  0  0  0  0  0  0  0  0
  127.3810  124.9010   57.4000 N   0  0  0  0  0  0  0  0  0  0  0  0
  126.1790  124.2650   56.8400 C   0  0  0  0  0  0  0  0  0  0  0  0
  125.9770  122.8420   57.4060 C   0  0  0  0  0  0  0  0  0  0  0  0
  127.1480  122.0600   57.1980 O   0  0  0  0  0  0  0  0  0  0  0  0
  128.2940  122.6210   57.8270 C   0  0  0  0  0  0  0  0  0  0  0  0
  128.5610  124.0360   57.2700 C   0  0  0  0  0  0  0  0  0  0  0  0
  127.0770  129.6850   60.4250 C   0  0  2  0  0  0  0  0  0  0  0  0
  128.3890  130.4930   60.1770 C   0  0  0  0  0  0  0  0  0  0  0  0
  129.4680  130.1080   60.6270 O   0  0  0  0  0  0  0  0  0  0  0  0
  128.2580  131.5950   59.4170 N   0  0  0  0  0  0  0  0  0  0  0  0
  129.3550  132.4460   58.9700 C   0  0  0  0  0  0  0  0  0  0  0  0
  129.9100  131.9720   57.6140 C   0  0  2  0  0  0  0  0  0  0  0  0
  131.0590  130.9510   57.6910 C   0  0  0  0  0  0  0  0  0  0  0  0
  132.3050  131.7640   57.4360 C   0  0  0  0  0  0  0  0  0  0  0  0
  131.7880  132.8100   56.4640 C   0  0  0  0  0  0  0  0  0  0  0  0
  130.5080  133.1240   57.0030 O   0  0  0  0  0  0  0  0  0  0  0  0
  126.4080  129.8330   61.7860 C   0  0  0  0  0  0  0  0  0  0  0  0
  127.2270  129.9220   62.9180 C   0  0  0  0  0  0  0  0  0  0  0  0
  126.6720  130.0570   64.1870 C   0  0  0  0  0  0  0  0  0  0  0  0
  125.2890  130.1070   64.3340 C   0  0  0  0  0  0  0  0  0  0  0  0
  124.7490  130.2400   65.5660 F   0  0  0  0  0  0  0  0  0  0  0  0
  124.4580  130.0220   63.2200 C   0  0  0  0  0  0  0  0  0  0  0  0
  125.0140  129.8850   61.9510 C   0  0  0  0  0  0  0  0  0  0  0  0
  128.5020  124.3900   60.7730 N   0  0  0  0  0  0  0  0  0  0  0  0
  131.1500  123.0310   60.8860 C   0  0  0  0  0  0  0  0  0  0  0  0
  132.3440  122.3020   60.7510 C   0  0  0  0  0  0  0  0  0  0  0  0
  133.5710  122.8820   60.4810 O   0  0  0  0  0  0  0  0  0  0  0  0
  133.6280  124.0890   59.7280 C   0  0  0  0  0  0  0  0  0  0  0  0
  1  2  1  0
  2  3  1  0
  3  4  2  0
  4  5  1  0
  5  6  2  0
  6  7  1  0
  7  8  1  0
  8  9  2  0
  9 10  1  0
 10 11  1  0
 11 12  1  0
 12 13  2  0
 12 14  1  0
 14 15  1  0
 15 16  1  0
 16 17  1  0
 17 18  1  0
 18 19  1  0
 19 20  1  0
 20 21  1  0
 21 22  1  0
 22 23  1  0
 24 14  1  1
 24 25  1  0
 25 26  2  0
 25 27  1  0
 27 28  1  0
 29 28  1  1
 29 30  1  0
 30 31  1  0
 31 32  1  0
 32 33  1  0
 24 34  1  0
 34 35  2  0
 35 36  1  0
 36 37  2  0
 37 38  1  0
 37 39  1  0
 39 40  2  0
 10 41  1  0
  6 42  1  0
 42 43  2  0
 43 44  1  0
 44 45  1  0
 43  3  1  0
 41  7  2  0
 23 18  1  0
 33 29  1  0
 40 34  1  0
M  END
>  <Binding energies>  (71) 
[-9.24]

>  <Ligand effiencies>  (71) 
[-0.2008695652173913]

>  <Interactions>  (71) 
["V-A:LEU:475:CD2:4256, V-B:TYR:539:CD1:9845, V-B:TYR:539:C:9839, V-B:ASP:366:CG:8184, V-B:TYR:539:CE1:9847, V-B:PRO:540:CB:9857, V-B:PRO:540:CA:9855, V-B:ALA:541:CB:9864, V-B:ARG:545:CZ:9898, V-A:ASP:366:CG:3210, V-B:PRO:540:N:9856, H-B:TYR:531:OH:9767, V-A:ILE:369:CD1:3236, V-A:TYR:539:CE1:4873, V-A:TYR:539:C:4865, V-A:PRO:540:CA:4881, V-A:TYR:539:CD1:4871, V-A:PRO:540:CB:4883, V-A:PRO:540:N:4882, V-A:ILE:538:CA:4858, V-B:TYR:539:CG:9844, V-A:ILE:538:CB:4860, H-B:TYR:539:N:9842, V-B:PRO:540:CD:9859, V-B:TYR:539:CZ:9849, V-A:ILE:538:CG2:4861, V-A:PRO:540:CD:4885, V-B:MET:535:CE:9807, V-A:ILE:369:CG2:3234, V-A:ILE:369:CB:3233, V-B:TYR:484:CZ:9318, V-A:LEU:373:CD1:3277, V-A:SER:385:CA:3404, V-A:SER:385:CB:3406, H-B:ALA:541:N:9863, H-A:TYR:539:N:4868, V-B:GLY:454:CA:9020"]

$$$$
RR17_Rahimova_2017
     RDKit          3D

 38 41  0  0  0  0  0  0  0  0999 V2000
  132.6870  132.1380   55.6690 C   0  0  0  0  0  0  0  0  0  0  0  0
  132.5180  132.9210   56.9750 C   0  0  0  0  0  0  0  0  0  0  0  0
  131.1330  133.1920   57.1700 O   0  0  0  0  0  0  0  0  0  0  0  0
  130.2180  132.1610   57.0590 C   0  0  0  0  0  0  0  0  0  0  0  0
  130.6030  130.9290   57.5850 C   0  0  0  0  0  0  0  0  0  0  0  0
  129.7500  129.8320   57.5190 C   0  0  0  0  0  0  0  0  0  0  0  0
  128.4870  129.9460   56.9200 C   0  0  0  0  0  0  0  0  0  0  0  0
  127.5870  128.7450   56.8650 C   0  0  0  0  0  0  0  0  0  0  0  0
  126.5030  128.7580   56.2740 O   0  0  0  0  0  0  0  0  0  0  0  0
  128.0670  127.4740   57.6000 C   0  0  0  0  0  0  0  0  0  0  0  0
  128.0210  127.6710   59.4180 S   0  0  0  0  0  0  0  0  0  0  0  0
  129.4950  126.7940   59.8570 C   0  0  0  0  0  0  0  0  0  0  0  0
  130.4870  127.2810   60.5640 N   0  0  0  0  0  0  0  0  0  0  0  0
  131.4460  126.2840   60.6960 N   0  0  0  0  0  0  0  0  0  0  0  0
  130.9940  125.2290   60.0660 C   0  0  0  0  0  0  0  0  0  0  0  0
  131.7290  123.9000   59.9710 C   0  0  0  0  0  0  0  0  0  0  0  0
  131.4860  123.0090   61.1030 N   0  0  0  0  0  0  0  0  0  0  0  0
  131.6040  121.6090   61.0340 C   0  0  0  0  0  0  0  0  0  0  0  0
  132.8640  121.0840   60.7520 C   0  0  0  0  0  0  0  0  0  0  0  0
  133.0500  119.7070   60.6640 C   0  0  0  0  0  0  0  0  0  0  0  0
  131.9740  118.8370   60.8630 C   0  0  0  0  0  0  0  0  0  0  0  0
  132.1930  117.3290   60.7570 C   0  0  0  0  0  0  0  0  0  0  0  0
  133.3640  117.0260   60.1910 F   0  0  0  0  0  0  0  0  0  0  0  0
  132.1640  116.7680   61.9670 F   0  0  0  0  0  0  0  0  0  0  0  0
  131.2200  116.7970   60.0160 F   0  0  0  0  0  0  0  0  0  0  0  0
  130.7100  119.3620   61.1550 C   0  0  0  0  0  0  0  0  0  0  0  0
  130.5260  120.7390   61.2430 C   0  0  0  0  0  0  0  0  0  0  0  0
  129.7640  125.4880   59.4990 N   0  0  0  0  0  0  0  0  0  0  0  0
  128.9570  124.6120   58.7560 C   0  0  0  0  0  0  0  0  0  0  0  0
  129.3200  124.2840   57.4500 C   0  0  0  0  0  0  0  0  0  0  0  0
  128.5180  123.4180   56.7120 C   0  0  0  0  0  0  0  0  0  0  0  0
  127.3510  122.8780   57.2790 C   0  0  0  0  0  0  0  0  0  0  0  0
  126.4970  122.0120   56.6240 O   0  0  0  0  0  0  0  0  0  0  0  0
  125.1230  122.3600   56.4910 C   0  0  0  0  0  0  0  0  0  0  0  0
  127.0030  123.2200   58.5870 C   0  0  0  0  0  0  0  0  0  0  0  0
  127.8010  124.0840   59.3310 C   0  0  0  0  0  0  0  0  0  0  0  0
  128.1010  131.1860   56.3920 C   0  0  0  0  0  0  0  0  0  0  0  0
  128.9560  132.2830   56.4600 C   0  0  0  0  0  0  0  0  0  0  0  0
  1  2  1  0
  2  3  1  0
  3  4  1  0
  4  5  2  0
  5  6  1  0
  6  7  2  0
  7  8  1  0
  8  9  2  0
  8 10  1  0
 10 11  1  0
 11 12  1  0
 12 13  2  0
 13 14  1  0
 14 15  2  0
 15 16  1  0
 16 17  1  0
 17 18  1  0
 18 19  2  0
 19 20  1  0
 20 21  2  0
 21 22  1  0
 22 23  1  0
 22 24  1  0
 22 25  1  0
 21 26  1  0
 26 27  2  0
 15 28  1  0
 28 29  1  0
 29 30  2  0
 30 31  1  0
 31 32  2  0
 32 33  1  0
 33 34  1  0
 32 35  1  0
 35 36  2  0
  7 37  1  0
 37 38  2  0
 38  4  1  0
 28 12  1  0
 36 29  1  0
 27 18  1  0
M  END
>  <Binding energies>  (72) 
[-8.45]

>  <Ligand effiencies>  (72) 
[-0.21666666666666665]

>  <Interactions>  (72) 
["V-A:LEU:475:CD2:4256, V-B:TYR:539:CD1:9845, V-B:TYR:539:C:9839, V-B:TYR:539:CE1:9847, V-B:PRO:540:CB:9857, V-B:PRO:540:CA:9855, V-B:ALA:541:CB:9864, V-B:PRO:540:N:9856, H-B:TYR:531:OH:9767, H-A:ARG:545:NH2:4926, V-A:TYR:539:CE1:4873, V-A:PRO:540:CA:4881, V-A:PRO:540:CB:4883, V-A:PRO:540:N:4882, V-A:LEU:363:CD1:3186, V-A:ILE:538:CB:4860, V-B:ILE:538:CB:9834, H-B:TYR:539:N:9842, V-A:MET:535:CE:4833, V-B:PRO:540:CD:9859, V-A:PRO:540:CG:4884, V-B:TYR:539:CZ:9849, V-A:ILE:538:CG2:4861, V-B:ILE:538:CG2:9835, V-A:TYR:531:CE2:4791, V-A:PRO:540:CD:4885, V-A:TYR:531:CZ:4792, V-B:ILE:538:CA:9832, V-B:MET:535:CE:9807, V-A:ILE:369:CG2:3234, V-A:LEU:373:CD1:3277, V-A:PRO:482:CG:4324, V-A:SER:385:CA:3404, V-A:SER:385:CB:3406, V-A:PRO:482:CB:4323, V-A:VAL:384:C:3394, V-A:TYR:539:CD2:4872, V-A:TYR:539:CE2:4874, V-A:TYR:539:CZ:4875, V-A:LEU:475:CG:4254, V-B:PRO:540:CG:9858, V-B:LEU:363:CD1:8160, V-B:TYR:539:CB:9843, H-A:TYR:539:N:4868, V-B:VAL:344:CG1:7972"]

$$$$
RR19_Rahimova_2017
     RDKit          3D

 46 51  0  0  0  0  0  0  0  0999 V2000
  131.6530  125.6830   56.1820 O   0  0  0  0  0  0  0  0  0  0  0  0
  130.9810  125.6860   57.2170 C   0  0  0  0  0  0  0  0  0  0  0  0
  131.3020  125.0600   58.3770 N   0  0  0  0  0  0  0  0  0  0  0  0
  132.4540  124.4690   58.8340 C   0  0  0  0  0  0  0  0  0  0  0  0
  133.9750  124.5760   58.0990 S   0  0  0  0  0  0  0  0  0  0  0  0
  132.1670  123.7780   59.9860 N   0  0  0  0  0  0  0  0  0  0  0  0
  132.9430  123.1470   60.9030 C   0  0  0  0  0  0  0  0  0  0  0  0
  134.1710  123.2140   60.9920 O   0  0  0  0  0  0  0  0  0  0  0  0
  132.1490  122.2560   61.8910 C   0  0  2  0  0  0  0  0  0  0  0  0
  132.6150  122.3500   63.3730 C   0  0  0  0  0  0  0  0  0  0  0  0
  132.1100  123.5650   64.1350 C   0  0  0  0  0  0  0  0  0  0  0  0
  130.8640  123.5380   64.7980 C   0  0  0  0  0  0  0  0  0  0  0  0
  130.4560  124.6280   65.5540 C   0  0  0  0  0  0  0  0  0  0  0  0
  131.2770  125.7420   65.6780 C   0  0  0  0  0  0  0  0  0  0  0  0
  132.5190  125.7710   65.0560 C   0  0  0  0  0  0  0  0  0  0  0  0
  132.9470  124.6900   64.2970 C   0  0  0  0  0  0  0  0  0  0  0  0
  132.0960  120.8440   61.4230 N   0  0  0  0  0  0  0  0  0  0  0  0
  130.9070  120.2000   61.2470 C   0  0  0  0  0  0  0  0  0  0  0  0
  129.7780  120.6450   61.4620 O   0  0  0  0  0  0  0  0  0  0  0  0
  131.2590  118.8510   60.7380 C   0  0  0  0  0  0  0  0  0  0  0  0
  130.4530  117.7670   60.3880 C   0  0  0  0  0  0  0  0  0  0  0  0
  131.0670  116.5990   59.9220 C   0  0  0  0  0  0  0  0  0  0  0  0
  132.4630  116.5310   59.8110 C   0  0  0  0  0  0  0  0  0  0  0  0
  133.2530  117.6300   60.1660 C   0  0  0  0  0  0  0  0  0  0  0  0
  132.6210  118.7850   60.6300 C   0  0  0  0  0  0  0  0  0  0  0  0
  133.1780  120.0900   61.0650 C   0  0  0  0  0  0  0  0  0  0  0  0
  134.3640  120.4200   61.0890 O   0  0  0  0  0  0  0  0  0  0  0  0
  129.6290  126.4480   57.2500 C   0  0  2  0  0  0  0  0  0  0  0  0
  129.5320  127.5100   58.3830 C   0  0  0  0  0  0  0  0  0  0  0  0
  129.7310  126.9440   59.7770 C   0  0  0  0  0  0  0  0  0  0  0  0
  130.8660  127.3080   60.5330 C   0  0  0  0  0  0  0  0  0  0  0  0
  130.9950  126.8700   61.8450 C   0  0  0  0  0  0  0  0  0  0  0  0
  129.9990  126.0970   62.4270 C   0  0  0  0  0  0  0  0  0  0  0  0
  128.8580  125.7640   61.7080 C   0  0  0  0  0  0  0  0  0  0  0  0
  128.7100  126.1910   60.3940 C   0  0  0  0  0  0  0  0  0  0  0  0
  128.4420  125.5470   57.2430 N   0  0  0  0  0  0  0  0  0  0  0  0
  127.2080  125.9830   57.6210 C   0  0  0  0  0  0  0  0  0  0  0  0
  126.9040  127.1090   58.0180 O   0  0  0  0  0  0  0  0  0  0  0  0
  126.3090  124.8150   57.4510 C   0  0  0  0  0  0  0  0  0  0  0  0
  124.9410  124.6720   57.6900 C   0  0  0  0  0  0  0  0  0  0  0  0
  124.3420  123.4330   57.4330 C   0  0  0  0  0  0  0  0  0  0  0  0
  125.1080  122.3660   56.9460 C   0  0  0  0  0  0  0  0  0  0  0  0
  126.4780  122.5300   56.7110 C   0  0  0  0  0  0  0  0  0  0  0  0
  127.0560  123.7730   56.9750 C   0  0  0  0  0  0  0  0  0  0  0  0
  128.4540  124.2450   56.8270 C   0  0  0  0  0  0  0  0  0  0  0  0
  129.4200  123.6010   56.4150 O   0  0  0  0  0  0  0  0  0  0  0  0
  1  2  2  0
  2  3  1  0
  3  4  1  0
  4  5  2  0
  4  6  1  0
  6  7  1  0
  7  8  2  0
  7  9  1  0
  9 10  1  1
 10 11  1  0
 11 12  2  0
 12 13  1  0
 13 14  2  0
 14 15  1  0
 15 16  2  0
  9 17  1  0
 17 18  1  0
 18 19  2  0
 18 20  1  0
 20 21  2  0
 21 22  1  0
 22 23  2  0
 23 24  1  0
 24 25  2  0
 25 26  1  0
 26 27  2  0
  2 28  1  0
 28 29  1  1
 29 30  1  0
 30 31  2  0
 31 32  1  0
 32 33  2  0
 33 34  1  0
 34 35  2  0
 28 36  1  0
 36 37  1  0
 37 38  2  0
 37 39  1  0
 39 40  2  0
 40 41  1  0
 41 42  2  0
 42 43  1  0
 43 44  2  0
 44 45  1  0
 45 46  2  0
 16 11  1  0
 26 17  1  0
 35 30  1  0
 45 36  1  0
 25 20  1  0
 44 39  1  0
M  END
>  <Binding energies>  (73) 
[-11.78]

>  <Ligand effiencies>  (73) 
[-0.24541666666666664]

>  <Interactions>  (73) 
["V-A:HIS:456:CE1:4066, V-B:GLU:543:CG:9879, V-A:LEU:475:CD2:4256, V-A:GLY:454:CA:4046, V-B:TYR:539:CD1:9845, V-B:TYR:539:C:9839, V-B:ASP:366:CG:8184, V-A:TYR:484:CE2:4343, V-B:GLU:543:CB:9878, V-B:TYR:539:CE1:9847, V-B:GLU:543:CD:9880, V-B:PRO:540:CB:9857, V-A:ARG:545:CZ:4924, V-B:PRO:540:CA:9855, V-B:ALA:541:CB:9864, V-A:TYR:484:CZ:4344, V-A:ASP:366:CG:3210, V-B:ASP:366:CB:8183, V-B:PRO:540:N:9856, H-B:TYR:531:OH:9767, V-A:ARG:545:CD:4921, V-B:TYR:539:CG:9844, V-B:ILE:538:CB:9834, V-B:PRO:540:CD:9859, V-B:TYR:539:CZ:9849, V-B:ILE:538:CG2:9835, V-B:ILE:538:CA:9832, V-B:MET:535:CE:9807, V-A:ILE:369:CG2:3234, V-A:ILE:369:CB:3233, H-A:TYR:531:OH:4793, V-A:LEU:373:CD1:3277, V-A:PRO:482:CG:4324, V-A:SER:385:CA:3404, V-A:SER:385:CB:3406, V-A:PRO:482:CB:4323, V-B:TYR:531:CZ:9766, H-B:ALA:541:N:9863, V-A:ASP:366:C:3205, V-A:ASP:366:CB:3209, V-A:ASP:366:CA:3207, V-B:TYR:531:CE2:9765, H-B:TYR:539:OH:9850, V-B:PRO:540:CG:9858, V-B:LEU:363:CD1:8160, V-B:TYR:539:CB:9843, V-B:LEU:363:CA:8156, V-B:VAL:344:CG1:7972"]

$$$$
RR1_Rahimova_2017
     RDKit          3D

 41 44  0  0  0  0  0  0  0  0999 V2000
  126.0510  122.9430   56.3010 C   0  0  0  0  0  0  0  0  0  0  0  0
  127.3030  122.3740   56.6670 O   0  0  0  0  0  0  0  0  0  0  0  0
  127.9440  122.8300   57.8020 C   0  0  0  0  0  0  0  0  0  0  0  0
  129.2630  123.3110   57.8270 C   0  0  0  0  0  0  0  0  0  0  0  0
  129.8300  123.7440   59.0220 C   0  0  0  0  0  0  0  0  0  0  0  0
  129.0920  123.7100   60.2070 C   0  0  0  0  0  0  0  0  0  0  0  0
  129.7680  124.1250   61.3700 N   0  0  0  0  0  0  0  0  0  0  0  0
  130.1690  123.3960   62.4330 C   0  0  0  0  0  0  0  0  0  0  0  0
  129.9320  122.1980   62.5910 O   0  0  0  0  0  0  0  0  0  0  0  0
  130.9660  124.1820   63.4850 C   0  0  0  0  0  0  0  0  0  0  0  0
  132.7830  124.0240   63.3700 S   0  0  0  0  0  0  0  0  0  0  0  0
  132.8380  122.7660   62.1390 C   0  0  0  0  0  0  0  0  0  0  0  0
  132.3530  121.5600   62.2970 N   0  0  0  0  0  0  0  0  0  0  0  0
  132.5970  120.9640   61.1350 C   0  0  0  0  0  0  0  0  0  0  0  0
  132.1900  119.5440   60.8580 C   0  0  0  0  0  0  0  0  0  0  0  0
  133.1230  118.5810   60.4430 C   0  0  0  0  0  0  0  0  0  0  0  0
  132.7150  117.2700   60.1900 C   0  0  0  0  0  0  0  0  0  0  0  0
  131.3700  116.9490   60.3600 C   0  0  0  0  0  0  0  0  0  0  0  0
  130.4410  117.8540   60.7600 N   0  0  0  0  0  0  0  0  0  0  0  0
  130.8590  119.1230   61.0010 C   0  0  0  0  0  0  0  0  0  0  0  0
  133.2180  121.7070   60.2380 N   0  0  0  0  0  0  0  0  0  0  0  0
  133.3750  122.8670   60.8820 N   0  0  0  0  0  0  0  0  0  0  0  0
  134.0150  124.0040   60.2210 C   0  0  0  0  0  0  0  0  0  0  0  0
  133.1500  124.7120   59.1630 C   0  0  0  0  0  0  0  0  0  0  0  0
  133.1940  124.3690   57.9770 O   0  0  0  0  0  0  0  0  0  0  0  0
  132.3730  125.7050   59.6370 N   0  0  0  0  0  0  0  0  0  0  0  0
  131.4590  126.2900   58.7720 N   0  0  0  0  0  0  0  0  0  0  0  0
  130.3230  126.7940   59.3010 C   0  0  0  0  0  0  0  0  0  0  0  0
  130.0940  126.8600   60.5140 O   0  0  0  0  0  0  0  0  0  0  0  0
  129.3120  127.3220   58.3030 C   0  0  0  0  0  0  0  0  0  0  0  0
  129.6070  127.3060   56.9360 C   0  0  0  0  0  0  0  0  0  0  0  0
  128.6990  127.7960   56.0030 C   0  0  0  0  0  0  0  0  0  0  0  0
  127.4660  128.3270   56.4130 C   0  0  0  0  0  0  0  0  0  0  0  0
  126.5250  128.8430   55.5390 O   0  0  0  0  0  0  0  0  0  0  0  0
  126.3000  130.2480   55.5000 C   0  0  0  0  0  0  0  0  0  0  0  0
  127.1540  128.3600   57.7790 C   0  0  0  0  0  0  0  0  0  0  0  0
  125.9340  128.9120   58.1320 O   0  0  0  0  0  0  0  0  0  0  0  0
  125.7700  129.4890   59.4220 C   0  0  0  0  0  0  0  0  0  0  0  0
  128.0780  127.8540   58.7110 C   0  0  0  0  0  0  0  0  0  0  0  0
  127.7740  123.2310   60.1860 C   0  0  0  0  0  0  0  0  0  0  0  0
  127.2100  122.8000   58.9890 C   0  0  0  0  0  0  0  0  0  0  0  0
  1  2  1  0
  2  3  1  0
  3  4  2  0
  4  5  1  0
  5  6  2  0
  6  7  1  0
  7  8  1  0
  8  9  2  0
  8 10  1  0
 10 11  1  0
 11 12  1  0
 12 13  2  0
 13 14  1  0
 14 15  1  0
 15 16  2  0
 16 17  1  0
 17 18  2  0
 18 19  1  0
 19 20  2  0
 14 21  2  0
 21 22  1  0
 22 23  1  0
 23 24  1  0
 24 25  2  0
 24 26  1  0
 26 27  1  0
 27 28  1  0
 28 29  2  0
 28 30  1  0
 30 31  2  0
 31 32  1  0
 32 33  2  0
 33 34  1  0
 34 35  1  0
 33 36  1  0
 36 37  1  0
 37 38  1  0
 36 39  2  0
  6 40  1  0
 40 41  2  0
 41  3  1  0
 22 12  1  0
 39 30  1  0
 20 15  1  0
M  END
>  <Binding energies>  (74) 
[-8.08]

>  <Ligand effiencies>  (74) 
[-0.18363636363636363]

>  <Interactions>  (74) 
["V-A:LEU:475:CD2:4256, H-A:TYR:484:OH:4345, V-B:TYR:539:CD1:9845, V-B:TYR:539:C:9839, V-B:ASP:366:CG:8184, V-B:TYR:539:CE1:9847, V-B:PRO:540:CB:9857, V-B:PRO:540:CA:9855, H-A:ASP:366:OD2:3212, H-A:ASP:366:OD1:3211, V-A:ASP:366:CG:3210, V-B:ASP:366:CB:8183, V-B:PRO:540:N:9856, H-B:TYR:531:OH:9767, V-A:ILE:369:CD1:3236, V-B:ILE:538:CB:9834, H-B:TYR:539:N:9842, V-A:MET:535:CE:4833, V-B:TYR:539:CZ:9849, V-B:ILE:538:CG2:9835, V-B:ILE:538:CA:9832, V-B:MET:535:CE:9807, V-A:ILE:369:CG2:3234, V-A:ILE:369:CB:3233, V-A:LEU:373:CD1:3277, V-A:PRO:482:CG:4324, V-A:SER:385:CA:3404, V-A:SER:385:CB:3406, V-B:TYR:531:CE1:9764, V-A:TYR:539:CZ:4875, V-B:ASN:370:CG:8217, V-A:ASP:366:CB:3209, V-A:ASP:366:CA:3207, H-B:TYR:539:OH:9850, H-A:GLY:454:N:4047"]

$$$$
RR22_Rahimova_2017
     RDKit          3D

 31 36  0  0  0  0  0  0  0  0999 V2000
  126.1310  122.8730   61.0970 O   0  0  0  0  0  0  0  0  0  0  0  0
  127.3060  123.1710   60.8960 C   0  0  0  0  0  0  0  0  0  0  0  0
  128.2960  123.3850   61.8390 N   0  0  0  0  0  0  0  0  0  0  0  0
  129.6400  123.6660   61.4340 C   0  0  1  0  0  0  0  0  0  0  0  0
  129.9720  124.9030   62.0720 O   0  0  0  0  0  0  0  0  0  0  0  0
  131.0550  124.9250   62.9510 C   0  0  0  0  0  0  0  0  0  0  0  0
  131.1270  126.0130   63.8210 C   0  0  0  0  0  0  0  0  0  0  0  0
  132.2030  126.1260   64.7020 C   0  0  0  0  0  0  0  0  0  0  0  0
  133.2070  125.1560   64.7070 C   0  0  0  0  0  0  0  0  0  0  0  0
  133.1340  124.0680   63.8360 C   0  0  0  0  0  0  0  0  0  0  0  0
  132.0500  123.9290   62.9640 C   0  0  0  0  0  0  0  0  0  0  0  0
  131.9000  122.8130   61.9550 C   0  0  1  0  0  0  0  0  0  0  0  0
  132.4320  121.4160   62.2000 C   0  0  0  0  0  0  0  0  0  0  0  0
  131.4200  120.6040   61.3870 C   0  0  0  0  0  0  0  0  0  0  0  0
  131.6740  119.2150   60.9550 C   0  0  0  0  0  0  0  0  0  0  0  0
  130.6080  118.3290   60.7390 C   0  0  0  0  0  0  0  0  0  0  0  0
  130.8530  117.0210   60.3310 C   0  0  0  0  0  0  0  0  0  0  0  0
  132.1630  116.5910   60.1360 C   0  0  0  0  0  0  0  0  0  0  0  0
  133.2320  117.4580   60.3450 C   0  0  0  0  0  0  0  0  0  0  0  0
  132.9890  118.7670   60.7520 C   0  0  0  0  0  0  0  0  0  0  0  0
  130.3540  121.2780   61.1700 N   0  0  0  0  0  0  0  0  0  0  0  0
  130.5060  122.5320   61.7860 N   0  0  0  0  0  0  0  0  0  0  0  0
  129.5950  123.9340   59.9370 C   0  0  0  0  0  0  0  0  0  0  0  0
  130.5940  124.5590   59.2700 C   0  0  0  0  0  0  0  0  0  0  0  0
  130.6890  124.8620   57.8290 C   0  0  0  0  0  0  0  0  0  0  0  0
  129.8670  124.2640   56.8630 C   0  0  0  0  0  0  0  0  0  0  0  0
  130.0140  124.5990   55.5170 C   0  0  0  0  0  0  0  0  0  0  0  0
  130.9930  125.5290   55.1660 C   0  0  0  0  0  0  0  0  0  0  0  0
  131.8070  126.1180   56.0770 N   0  0  0  0  0  0  0  0  0  0  0  0
  131.6480  125.7790   57.3820 C   0  0  0  0  0  0  0  0  0  0  0  0
  128.0490  123.4120   59.2530 S   0  0  0  0  0  0  0  0  0  0  0  0
  1  2  2  0
  2  3  1  0
  4  3  1  1
  4  5  1  0
  5  6  1  0
  6  7  2  0
  7  8  1  0
  8  9  2  0
  9 10  1  0
 10 11  2  0
 11 12  1  0
 12 13  1  1
 13 14  1  0
 14 15  1  0
 15 16  2  0
 16 17  1  0
 17 18  2  0
 18 19  1  0
 19 20  2  0
 14 21  2  0
 21 22  1  0
  4 23  1  0
 23 24  2  0
 24 25  1  0
 25 26  2  0
 26 27  1  0
 27 28  2  0
 28 29  1  0
 29 30  2  0
 23 31  1  0
 31  2  1  0
 22  4  1  0
 30 25  1  0
 11  6  1  0
 22 12  1  0
 20 15  1  0
M  END
>  <Binding energies>  (75) 
[-9.35]

>  <Ligand effiencies>  (75) 
[-0.2921875]

>  <Interactions>  (75) 
["V-A:LEU:475:CD2:4256, V-A:GLY:454:CA:4046, V-B:TYR:539:CD1:9845, V-B:PRO:540:C:9853, V-B:TYR:539:CE1:9847, V-A:ARG:545:CZ:4924, V-B:PRO:540:CA:9855, V-B:ALA:541:CB:9864, H-B:GLU:543:OE1:9881, V-A:ARG:545:CD:4921, V-B:TYR:539:CE2:9848, V-B:TYR:539:CZ:9849, V-A:TYR:531:CZ:4792, V-B:MET:535:CE:9807, H-A:TYR:531:OH:4793, V-A:LEU:373:CD1:3277, V-A:PRO:482:CG:4324, V-A:SER:385:CA:3404, V-A:SER:385:CB:3406, V-A:PRO:482:CB:4323, H-B:ALA:541:N:9863, V-A:ASP:366:CB:3209, H-B:TYR:539:OH:9850, V-A:ASN:370:CG:3243, V-A:TYR:531:CE1:4790, V-B:TYR:539:CB:9843, V-B:VAL:344:CG1:7972"]

$$$$
RR24_Rahimova_2017
     RDKit          3D

 43 49  0  0  0  0  0  0  0  0999 V2000
  124.7770  122.7090   56.7160 C   0  0  0  0  0  0  0  0  0  0  0  0
  125.9670  123.6210   56.3840 C   0  0  2  0  0  0  0  0  0  0  0  0
  127.2140  122.8410   55.8700 C   0  0  0  0  0  0  0  0  0  0  0  0
  127.4820  122.7530   54.6680 O   0  0  0  0  0  0  0  0  0  0  0  0
  127.9260  122.2680   56.8840 O   0  0  0  0  0  0  0  0  0  0  0  0
  128.7230  123.0550   57.6840 C   0  0  0  0  0  0  0  0  0  0  0  0
  129.5660  123.9990   57.0930 C   0  0  0  0  0  0  0  0  0  0  0  0
  130.3700  124.8070   57.8930 C   0  0  0  0  0  0  0  0  0  0  0  0
  130.3290  124.6810   59.2840 C   0  0  0  0  0  0  0  0  0  0  0  0
  131.2300  125.5610   60.1580 C   0  0  1  0  0  0  0  0  0  0  0  0
  130.9610  127.0670   59.9340 C   0  0  0  0  0  0  0  0  0  0  0  0
  130.7300  127.9240   60.9460 C   0  0  0  0  0  0  0  0  0  0  0  0
  130.7150  127.5210   62.2580 N   0  0  0  0  0  0  0  0  0  0  0  0
  130.9360  126.2090   62.6050 C   0  0  0  0  0  0  0  0  0  0  0  0
  130.8970  125.9770   63.9420 N   0  0  0  0  0  0  0  0  0  0  0  0
  131.0150  124.7270   64.4680 C   0  0  0  0  0  0  0  0  0  0  0  0
  130.6600  124.5270   65.6310 O   0  0  0  0  0  0  0  0  0  0  0  0
  131.3830  123.7590   63.5470 N   0  0  0  0  0  0  0  0  0  0  0  0
  131.6130  122.4010   64.0820 C   0  0  0  0  0  0  0  0  0  0  0  0
  131.4510  123.8850   62.1700 C   0  0  0  0  0  0  0  0  0  0  0  0
  131.7370  122.9610   61.4020 O   0  0  0  0  0  0  0  0  0  0  0  0
  131.1750  125.2400   61.6820 C   0  0  0  0  0  0  0  0  0  0  0  0
  130.5100  129.2700   60.4430 C   0  0  0  0  0  0  0  0  0  0  0  0
  130.2320  130.4860   61.0700 C   0  0  0  0  0  0  0  0  0  0  0  0
  130.0690  131.6330   60.2890 C   0  0  0  0  0  0  0  0  0  0  0  0
  130.1850  131.5610   58.8980 C   0  0  0  0  0  0  0  0  0  0  0  0
  130.4630  130.3400   58.2760 C   0  0  0  0  0  0  0  0  0  0  0  0
  130.6230  129.1970   59.0610 C   0  0  0  0  0  0  0  0  0  0  0  0
  130.9210  127.8010   58.6740 C   0  0  0  0  0  0  0  0  0  0  0  0
  131.1010  127.3160   57.5590 O   0  0  0  0  0  0  0  0  0  0  0  0
  129.4700  123.7470   59.8730 C   0  0  0  0  0  0  0  0  0  0  0  0
  128.6640  122.9410   59.0750 C   0  0  0  0  0  0  0  0  0  0  0  0
  126.2990  124.5430   57.5100 N   0  0  0  0  0  0  0  0  0  0  0  0
  126.0400  124.2080   58.8060 C   0  0  0  0  0  0  0  0  0  0  0  0
  125.5200  123.1710   59.2210 O   0  0  0  0  0  0  0  0  0  0  0  0
  126.5150  125.3590   59.6130 C   0  0  0  0  0  0  0  0  0  0  0  0
  126.5040  125.5740   60.9920 C   0  0  0  0  0  0  0  0  0  0  0  0
  127.0300  126.7730   61.4870 C   0  0  0  0  0  0  0  0  0  0  0  0
  127.5560  127.7290   60.6090 C   0  0  0  0  0  0  0  0  0  0  0  0
  127.5580  127.4950   59.2300 C   0  0  0  0  0  0  0  0  0  0  0  0
  127.0270  126.2940   58.7550 C   0  0  0  0  0  0  0  0  0  0  0  0
  126.8940  125.7670   57.3750 C   0  0  0  0  0  0  0  0  0  0  0  0
  127.2500  126.3150   56.3300 O   0  0  0  0  0  0  0  0  0  0  0  0
  2  1  1  1
  2  3  1  0
  3  4  2  0
  3  5  1  0
  5  6  1  0
  6  7  2  0
  7  8  1  0
  8  9  2  0
 10  9  1  6
 10 11  1  0
 11 12  2  0
 12 13  1  0
 13 14  1  0
 14 15  1  0
 15 16  1  0
 16 17  2  0
 16 18  1  0
 18 19  1  0
 18 20  1  0
 20 21  2  0
 20 22  1  0
 12 23  1  0
 23 24  2  0
 24 25  1  0
 25 26  2  0
 26 27  1  0
 27 28  2  0
 28 29  1  0
 29 30  2  0
  9 31  1  0
 31 32  2  0
  2 33  1  0
 33 34  1  0
 34 35  2  0
 34 36  1  0
 36 37  2  0
 37 38  1  0
 38 39  2  0
 39 40  1  0
 40 41  2  0
 41 42  1  0
 42 43  2  0
 32  6  1  0
 42 33  1  0
 22 10  1  0
 28 23  1  0
 41 36  1  0
 29 11  1  0
 22 14  2  0
M  END
>  <Binding energies>  (76) 
[-10.0]

>  <Ligand effiencies>  (76) 
[-0.2222222222222222]

>  <Interactions>  (76) 
["V-A:LEU:475:CD2:4256, H-A:TYR:484:OH:4345, V-B:TYR:539:CD1:9845, V-B:TYR:539:C:9839, V-B:ASP:366:CG:8184, V-A:TYR:484:CE2:4343, V-B:TYR:539:CE1:9847, V-B:GLU:543:CD:9880, V-B:PRO:540:CB:9857, V-A:TYR:484:CZ:4344, V-A:ASP:366:CG:3210, H-A:GLU:543:OE2:4908, H-A:GLU:543:OE1:4907, V-B:PRO:540:N:9856, H-B:TYR:531:OH:9767, V-A:GLU:543:CD:4906, V-A:PRO:540:CA:4881, V-B:TYR:539:CG:9844, V-B:ILE:538:CB:9834, H-B:TYR:539:N:9842, V-B:PRO:540:CD:9859, V-B:TYR:539:CZ:9849, V-B:ILE:538:CG2:9835, V-B:ILE:538:CA:9832, V-B:MET:535:CE:9807, H-A:TYR:531:OH:4793, V-B:LEU:363:CD1:8160"]

$$$$
RR25_Rahimova_2017
     RDKit          3D

 39 44  0  0  0  0  0  0  0  0999 V2000
  132.7510  125.3640   56.2420 O   0  0  0  0  0  0  0  0  0  0  0  0
  132.4390  125.1260   57.4090 C   0  0  0  0  0  0  0  0  0  0  0  0
  133.3030  124.3260   58.1160 O   0  0  0  0  0  0  0  0  0  0  0  0
  133.2000  124.1890   59.4890 C   0  0  0  0  0  0  0  0  0  0  0  0
  134.3660  123.8530   60.1740 C   0  0  0  0  0  0  0  0  0  0  0  0
  134.3330  123.6910   61.5580 C   0  0  0  0  0  0  0  0  0  0  0  0
  133.1370  123.8580   62.2730 C   0  0  0  0  0  0  0  0  0  0  0  0
  133.1070  123.6930   63.7470 N   0  0  0  0  0  0  0  0  0  0  0  0
  133.5290  124.6080   64.4500 O   0  0  0  0  0  0  0  0  0  0  0  0
  132.6610  122.6480   64.2120 O   0  0  0  0  0  0  0  0  0  0  0  0
  131.9710  124.1850   61.5620 C   0  0  0  0  0  0  0  0  0  0  0  0
  131.9860  124.3430   60.1730 C   0  0  0  0  0  0  0  0  0  0  0  0
  130.7560  124.7070   59.3610 C   0  0  0  0  0  0  0  0  0  0  0  0
  131.1670  125.6110   58.1640 C   0  0  2  0  0  0  0  0  0  0  0  0
  129.9460  125.9230   57.2520 C   0  0  0  0  0  0  0  0  0  0  0  0
  129.5830  125.0130   56.5010 O   0  0  0  0  0  0  0  0  0  0  0  0
  129.2340  127.0850   57.3610 N   0  0  0  0  0  0  0  0  0  0  0  0
  129.7830  128.3040   57.9920 C   0  0  0  0  0  0  0  0  0  0  0  0
  128.6550  129.0210   58.7630 C   0  0  0  0  0  0  0  0  0  0  0  0
  127.5060  129.2980   57.8960 N   0  0  0  0  0  0  0  0  0  0  0  0
  126.4880  130.0970   58.5920 C   0  0  0  0  0  0  0  0  0  0  0  0
  127.0700  131.3800   59.2430 C   0  0  0  0  0  0  0  0  0  0  0  0
  128.5540  131.5270   59.1910 N   0  0  0  0  0  0  0  0  0  0  0  0
  129.2020  131.3820   60.3990 C   0  0  0  0  0  0  0  0  0  0  0  0
  128.6090  131.1820   61.4660 O   0  0  0  0  0  0  0  0  0  0  0  0
  130.7140  131.4680   60.3190 C   0  0  0  0  0  0  0  0  0  0  0  0
  131.4750  131.3090   61.4850 C   0  0  0  0  0  0  0  0  0  0  0  0
  132.8670  131.3750   61.4460 C   0  0  0  0  0  0  0  0  0  0  0  0
  133.5410  131.5960   60.2460 C   0  0  0  0  0  0  0  0  0  0  0  0
  132.8140  131.7630   59.0430 C   0  0  0  0  0  0  0  0  0  0  0  0
  133.4340  131.9900   57.7920 C   0  0  0  0  0  0  0  0  0  0  0  0
  132.6580  132.1420   56.6440 C   0  0  0  0  0  0  0  0  0  0  0  0
  131.2680  132.0760   56.7060 C   0  0  0  0  0  0  0  0  0  0  0  0
  130.6100  131.8540   57.9230 C   0  0  0  0  0  0  0  0  0  0  0  0
  131.3930  131.6960   59.0950 C   0  0  0  0  0  0  0  0  0  0  0  0
  129.0960  131.7790   57.9480 C   0  0  0  0  0  0  0  0  0  0  0  0
  128.4160  131.9200   56.9260 O   0  0  0  0  0  0  0  0  0  0  0  0
  126.9530  128.0410   57.3880 C   0  0  0  0  0  0  0  0  0  0  0  0
  127.9970  127.2500   56.5640 C   0  0  0  0  0  0  0  0  0  0  0  0
  1  2  2  0
  2  3  1  0
  3  4  1  0
  4  5  2  0
  5  6  1  0
  6  7  2  0
  7  8  1  0
  8  9  2  0
  8 10  1  0
  7 11  1  0
 11 12  2  0
 12 13  1  0
 13 14  1  0
 14 15  1  6
 15 16  2  0
 15 17  1  0
 17 18  1  0
 18 19  1  0
 19 20  1  0
 20 21  1  0
 21 22  1  0
 22 23  1  0
 23 24  1  0
 24 25  2  0
 24 26  1  0
 26 27  2  0
 27 28  1  0
 28 29  2  0
 29 30  1  0
 30 31  2  0
 31 32  1  0
 32 33  2  0
 33 34  1  0
 34 35  2  0
 34 36  1  0
 36 37  2  0
 20 38  1  0
 38 39  1  0
 14  2  1  0
 39 17  1  0
 12  4  1  0
 36 23  1  0
 35 26  1  0
 35 30  1  0
M  CHG  2   8   1  10  -1
M  END
>  <Binding energies>  (77) 
[-10.47]

>  <Ligand effiencies>  (77) 
[-0.2684615384615385]

>  <Interactions>  (77) 
["H-A:TYR:484:OH:4345, V-A:GLY:454:CA:4046, V-B:TYR:539:CE1:9847, V-A:ASP:366:CG:3210, V-A:ILE:369:CD1:3236, V-A:TYR:539:CE1:4873, V-A:PRO:540:CA:4881, V-A:TYR:539:CD1:4871, V-A:PRO:540:CB:4883, V-A:PRO:540:N:4882, V-A:LEU:363:CD1:3186, V-A:PRO:540:CG:4884, V-B:TYR:539:CZ:9849, V-A:ILE:538:CG2:4861, V-A:TYR:531:CE2:4791, V-A:PRO:540:CD:4885, V-B:MET:535:CE:9807, V-A:ILE:369:CG2:3234, V-A:ILE:369:CB:3233, H-A:TYR:531:OH:4793, V-A:TYR:539:CZ:4875, H-A:ASN:370:ND2:3245, V-A:ASP:366:CB:3209, H-B:TYR:539:OH:9850, H-A:GLY:454:N:4047, V-A:LEU:363:CA:3182, V-A:LEU:363:CB:3184, V-A:ILE:369:CG1:3235, V-A:ASN:362:CB:3173, V-A:ASN:362:C:3169"]

$$$$
RR27_Rahimova_2017
     RDKit          3D

 39 44  0  0  0  0  0  0  0  0999 V2000
  129.1520  122.6560   60.7340 O   0  0  0  0  0  0  0  0  0  0  0  0
  130.2140  123.0580   60.2500 C   0  0  0  0  0  0  0  0  0  0  0  0
  131.5460  122.4790   60.8100 C   0  0  0  0  0  0  0  0  0  0  0  0
  131.5260  120.9460   60.9570 C   0  0  0  0  0  0  0  0  0  0  0  0
  130.3810  120.2600   61.3910 C   0  0  0  0  0  0  0  0  0  0  0  0
  130.3960  118.8730   61.5110 C   0  0  0  0  0  0  0  0  0  0  0  0
  131.5540  118.1670   61.1990 C   0  0  0  0  0  0  0  0  0  0  0  0
  132.6980  118.8340   60.7700 C   0  0  0  0  0  0  0  0  0  0  0  0
  132.6830  120.2210   60.6500 C   0  0  0  0  0  0  0  0  0  0  0  0
  132.0220  123.2450   62.0590 C   0  0  0  0  0  0  0  0  0  0  0  0
  131.3180  123.1900   63.2700 C   0  0  0  0  0  0  0  0  0  0  0  0
  131.7690  123.9040   64.3770 C   0  0  0  0  0  0  0  0  0  0  0  0
  132.9210  124.6790   64.2770 C   0  0  0  0  0  0  0  0  0  0  0  0
  133.6240  124.7520   63.0770 C   0  0  0  0  0  0  0  0  0  0  0  0
  133.1720  124.0400   61.9710 C   0  0  0  0  0  0  0  0  0  0  0  0
  130.2390  123.8670   59.1530 N   0  0  0  0  0  0  0  0  0  0  0  0
  131.4440  124.5730   58.6930 C   0  0  0  0  0  0  0  0  0  0  0  0
  131.4920  125.9180   59.4520 C   0  0  0  0  0  0  0  0  0  0  0  0
  130.1850  126.7550   59.2790 C   0  0  0  0  0  0  0  0  0  0  0  0
  130.1360  128.0530   60.1060 C   0  0  0  0  0  0  0  0  0  0  0  0
  129.2270  128.0910   61.1240 N   0  0  0  0  0  0  0  0  0  0  0  0
  129.1620  129.2060   61.9030 C   0  0  0  0  0  0  0  0  0  0  0  0
  128.2960  129.3600   62.9540 O   0  0  0  0  0  0  0  0  0  0  0  0
  130.0340  130.2760   61.6250 C   0  0  0  0  0  0  0  0  0  0  0  0
  130.2320  131.5010   62.1930 N   0  0  0  0  0  0  0  0  0  0  0  0
  131.2330  132.1290   61.4770 N   0  0  0  0  0  0  0  0  0  0  0  0
  131.6480  131.3040   60.4930 N   0  0  0  0  0  0  0  0  0  0  0  0
  132.6900  131.7270   59.5600 C   0  0  0  0  0  0  0  0  0  0  0  0
  132.2030  131.8790   58.1260 C   0  0  0  0  0  0  0  0  0  0  0  0
  133.1010  131.7600   57.0610 C   0  0  0  0  0  0  0  0  0  0  0  0
  132.6520  131.8880   55.7450 C   0  0  0  0  0  0  0  0  0  0  0  0
  131.3040  132.1310   55.4880 C   0  0  0  0  0  0  0  0  0  0  0  0
  130.4000  132.2410   56.5460 C   0  0  0  0  0  0  0  0  0  0  0  0
  128.7250  132.5150   56.2290 Cl  0  0  0  0  0  0  0  0  0  0  0  0
  130.8500  132.1210   57.8610 C   0  0  0  0  0  0  0  0  0  0  0  0
  130.9220  130.1250   60.5390 C   0  0  0  0  0  0  0  0  0  0  0  0
  131.0020  129.0470   59.7550 N   0  0  0  0  0  0  0  0  0  0  0  0
  128.9060  125.8750   59.4330 C   0  0  0  0  0  0  0  0  0  0  0  0
  129.0050  124.5200   58.6880 C   0  0  0  0  0  0  0  0  0  0  0  0
  1  2  2  0
  2  3  1  0
  3  4  1  0
  4  5  2  0
  5  6  1  0
  6  7  2  0
  7  8  1  0
  8  9  2  0
  3 10  1  0
 10 11  2  0
 11 12  1  0
 12 13  2  0
 13 14  1  0
 14 15  2  0
  2 16  1  0
 16 17  1  0
 17 18  1  0
 18 19  1  0
 19 20  1  0
 20 21  2  0
 21 22  1  0
 22 23  1  0
 22 24  2  0
 24 25  1  0
 25 26  2  0
 26 27  1  0
 27 28  1  0
 28 29  1  0
 29 30  2  0
 30 31  1  0
 31 32  2  0
 32 33  1  0
 33 34  1  0
 33 35  2  0
 27 36  1  0
 36 37  2  0
 19 38  1  0
 38 39  1  0
  9  4  1  0
 15 10  1  0
 39 16  1  0
 37 20  1  0
 36 24  1  0
 35 29  1  0
M  END
>  <Binding energies>  (78) 
[-10.64]

>  <Ligand effiencies>  (78) 
[-0.266]

>  <Interactions>  (78) 
["V-A:LEU:475:CD2:4256, V-A:GLY:454:CA:4046, V-B:TYR:539:CD1:9845, V-B:TYR:539:CE1:9847, V-A:ARG:545:CZ:4924, V-B:ALA:541:CB:9864, V-A:TYR:484:CZ:4344, V-A:ASP:366:CG:3210, H-A:GLU:543:OE2:4908, H-A:GLU:543:OE1:4907, V-A:GLU:543:CD:4906, V-A:GLY:453:CA:4041, V-A:GLY:453:C:4039, V-A:TYR:539:CE1:4873, V-A:TYR:539:C:4865, V-A:PRO:540:CA:4881, V-A:TYR:539:CD1:4871, V-A:PRO:540:CB:4883, V-A:PRO:540:N:4882, V-A:LEU:363:CD1:3186, V-A:ILE:538:CA:4858, V-A:TYR:539:CG:4870, V-A:ILE:538:CB:4860, V-A:MET:535:CE:4833, V-B:TYR:539:CZ:9849, V-A:ILE:538:CG2:4861, V-A:TYR:531:CE2:4791, V-A:TYR:531:CZ:4792, V-A:ILE:369:CG2:3234, V-A:LEU:373:CD1:3277, V-A:PRO:482:CG:4324, V-A:SER:385:CA:3404, V-A:SER:385:CB:3406, V-A:PRO:482:CB:4323, V-A:TYR:539:CD2:4872, V-A:TYR:539:CE2:4874, V-A:TYR:539:CZ:4875, H-A:ALA:541:N:4889"]

$$$$
RR28_Rahimova_2017
     RDKit          3D

 46 49  0  0  0  0  0  0  0  0999 V2000
  127.3880  129.4960   66.0660 C   0  0  0  0  0  0  0  0  0  0  0  0
  126.9610  129.1030   64.6560 C   0  0  0  0  0  0  0  0  0  0  0  0
  125.7720  128.9010   64.4160 O   0  0  0  0  0  0  0  0  0  0  0  0
  127.9450  129.0010   63.7400 N   0  0  0  0  0  0  0  0  0  0  0  0
  127.8320  128.6340   62.3100 C   0  0  0  0  0  0  0  0  0  0  0  0
  128.2650  127.1480   62.1540 C   0  0  0  0  0  0  0  0  0  0  0  0
  127.3720  126.2270   61.5850 C   0  0  0  0  0  0  0  0  0  0  0  0
  127.7240  124.8890   61.4340 C   0  0  0  0  0  0  0  0  0  0  0  0
  128.9780  124.4400   61.8500 C   0  0  0  0  0  0  0  0  0  0  0  0
  129.3450  122.9660   61.6800 C   0  0  0  0  0  0  0  0  0  0  0  0
  129.9430  122.4650   62.7630 F   0  0  0  0  0  0  0  0  0  0  0  0
  128.2520  122.2420   61.4400 F   0  0  0  0  0  0  0  0  0  0  0  0
  130.1790  122.8390   60.6470 F   0  0  0  0  0  0  0  0  0  0  0  0
  129.8760  125.3470   62.4190 C   0  0  0  0  0  0  0  0  0  0  0  0
  129.5230  126.6850   62.5700 C   0  0  0  0  0  0  0  0  0  0  0  0
  128.6570  129.6290   61.4190 C   0  0  0  0  0  0  0  0  0  0  0  0
  128.0990  131.0750   61.4360 C   0  0  0  0  0  0  0  0  0  0  0  0
  126.7100  130.9910   60.9560 N   0  0  0  0  0  0  0  0  0  0  0  0
  126.4240  131.1810   59.6390 C   0  0  0  0  0  0  0  0  0  0  0  0
  127.2690  131.5910   58.8400 O   0  0  0  0  0  0  0  0  0  0  0  0
  124.9590  131.0370   59.1630 C   0  0  0  0  0  0  0  0  0  0  0  0
  124.6770  129.8720   58.1750 C   0  0  0  0  0  0  0  0  0  0  0  0
  125.7480  129.6690   57.0780 C   0  0  0  0  0  0  0  0  0  0  0  0
  125.5100  130.1060   55.9480 O   0  0  0  0  0  0  0  0  0  0  0  0
  126.9640  129.1470   57.4080 N   0  0  0  0  0  0  0  0  0  0  0  0
  127.1950  128.3400   58.6120 C   0  0  0  0  0  0  0  0  0  0  0  0
  126.8280  126.8860   58.2450 C   0  0  0  0  0  0  0  0  0  0  0  0
  127.6070  126.3020   57.0150 C   0  0  0  0  0  0  0  0  0  0  0  0
  126.9040  125.0980   56.5230 N   0  0  0  0  0  0  0  0  0  0  0  0
  126.9410  123.8490   57.0290 C   0  0  0  0  0  0  0  0  0  0  0  0
  126.1200  122.7960   56.2910 C   0  0  0  0  0  0  0  0  0  0  0  0
  127.5880  123.5270   58.0250 O   0  0  0  0  0  0  0  0  0  0  0  0
  129.0150  125.8520   57.5230 C   0  0  0  0  0  0  0  0  0  0  0  0
  129.3690  125.8500   58.8830 C   0  0  0  0  0  0  0  0  0  0  0  0
  130.6350  125.4410   59.2940 C   0  0  0  0  0  0  0  0  0  0  0  0
  131.5810  125.0240   58.3550 C   0  0  0  0  0  0  0  0  0  0  0  0
  132.9730  124.5680   58.7910 C   0  0  0  0  0  0  0  0  0  0  0  0
  133.2710  125.0550   59.9970 F   0  0  0  0  0  0  0  0  0  0  0  0
  132.9970  123.2370   58.8500 F   0  0  0  0  0  0  0  0  0  0  0  0
  133.9210  124.9660   57.9410 F   0  0  0  0  0  0  0  0  0  0  0  0
  131.2470  125.0280   57.0000 C   0  0  0  0  0  0  0  0  0  0  0  0
  129.9810  125.4380   56.5920 C   0  0  0  0  0  0  0  0  0  0  0  0
  127.6760  127.4000   55.8830 C   0  0  0  0  0  0  0  0  0  0  0  0
  127.9480  128.8520   56.3590 C   0  0  0  0  0  0  0  0  0  0  0  0
  125.8270  130.2360   61.8570 C   0  0  0  0  0  0  0  0  0  0  0  0
  126.3370  128.7720   61.8730 C   0  0  0  0  0  0  0  0  0  0  0  0
  1  2  1  0
  2  3  2  0
  2  4  1  0
  4  5  1  0
  5  6  1  0
  6  7  2  0
  7  8  1  0
  8  9  2  0
  9 10  1  0
 10 11  1  0
 10 12  1  0
 10 13  1  0
  9 14  1  0
 14 15  2  0
  5 16  1  0
 16 17  1  0
 17 18  1  0
 18 19  1  0
 19 20  2  0
 19 21  1  0
 21 22  1  0
 22 23  1  0
 23 24  2  0
 23 25  1  0
 25 26  1  0
 26 27  1  0
 27 28  1  0
 28 29  1  0
 29 30  1  0
 30 31  1  0
 30 32  2  0
 28 33  1  0
 33 34  2  0
 34 35  1  0
 35 36  2  0
 36 37  1  0
 37 38  1  0
 37 39  1  0
 37 40  1  0
 36 41  1  0
 41 42  2  0
 28 43  1  0
 43 44  1  0
 18 45  1  0
 45 46  1  0
 46  5  1  0
 15  6  1  0
 44 25  1  0
 42 33  1  0
M  END
>  <Binding energies>  (79) 
[-7.66]

>  <Ligand effiencies>  (79) 
[-0.15958333333333333]

>  <Interactions>  (79) 
["V-B:HIS:456:CE1:9040, V-B:TYR:539:CD1:9845, V-B:ASP:366:CG:8184, V-B:PRO:540:C:9853, V-B:TYR:539:CE1:9847, V-B:GLU:543:CD:9880, V-B:PRO:540:CA:9855, V-B:ALA:541:CB:9864, H-B:GLU:543:OE2:9882, V-A:ASP:366:CG:3210, V-B:ASP:366:CB:8183, H-A:GLU:543:OE2:4908, H-A:GLU:543:OE1:4907, H-B:TYR:531:OH:9767, V-A:GLU:543:CD:4906, H-B:ARG:545:NH2:9900, V-A:TYR:539:CE1:4873, H-B:ARG:545:NE:9896, V-B:ILE:538:CB:9834, V-A:MET:535:CE:4833, V-B:TYR:539:CZ:9849, V-B:ILE:538:CG2:9835, V-B:ILE:538:CA:9832, V-B:MET:535:CE:9807, V-A:ILE:369:CG2:3234, V-A:ILE:369:CB:3233, V-A:GLU:543:CB:4904, V-B:TYR:531:CZ:9766, V-A:TYR:539:CZ:4875, V-A:ASP:366:C:3205, V-A:ASP:366:CB:3209, V-A:ASP:366:CA:3207, V-B:ALA:541:CA:9862, H-A:TYR:539:OH:4876, H-B:ASN:370:ND2:8219, V-B:ASP:366:CA:8181, V-B:ASP:366:C:8179, H-B:MET:535:SD:9806"]

$$$$
RR29_Rahimova_2017
     RDKit          3D

 18 19  0  0  0  0  0  0  0  0999 V2000
  131.1690  121.5150   61.8590 C   0  0  0  0  0  0  0  0  0  0  0  0
  130.2520  122.6600   62.2620 C   0  0  0  0  0  0  0  0  0  0  0  0
  128.7890  122.4460   61.8150 C   0  0  0  0  0  0  0  0  0  0  0  0
  128.2440  123.6660   61.0430 C   0  0  0  0  0  0  0  0  0  0  0  0
  127.7600  123.2970   59.6490 C   0  0  0  0  0  0  0  0  0  0  0  0
  128.6600  122.7460   58.7150 C   0  0  0  0  0  0  0  0  0  0  0  0
  128.2350  122.3980   57.4250 C   0  0  0  0  0  0  0  0  0  0  0  0
  126.9020  122.6290   57.1040 C   0  0  0  0  0  0  0  0  0  0  0  0
  126.0260  123.1660   58.0040 C   0  0  0  0  0  0  0  0  0  0  0  0
  126.4170  123.5110   59.2940 C   0  0  0  0  0  0  0  0  0  0  0  0
  124.7930  123.2490   57.4370 O   0  0  0  0  0  0  0  0  0  0  0  0
  124.9790  122.9440   56.0810 C   0  0  0  0  0  0  0  0  0  0  0  0
  126.2460  122.3570   55.9440 O   0  0  0  0  0  0  0  0  0  0  0  0
  130.7530  123.6540   62.8970 N   0  0  0  0  0  0  0  0  0  0  0  0
  129.9440  124.7300   63.1880 N   0  0  0  0  0  0  0  0  0  0  0  0
  130.3780  125.8640   63.7620 C   0  0  0  0  0  0  0  0  0  0  0  0
  131.6430  126.1070   64.1070 N   0  0  0  0  0  0  0  0  0  0  0  0
  129.4860  126.8130   64.0030 N   0  0  0  0  0  0  0  0  0  0  0  0
  1  2  1  0
  2  3  1  0
  3  4  1  0
  4  5  1  0
  5  6  2  0
  6  7  1  0
  7  8  2  0
  8  9  1  0
  9 10  2  0
  9 11  1  0
 11 12  1  0
 12 13  1  0
  2 14  2  0
 14 15  1  0
 15 16  1  0
 16 17  1  0
 16 18  2  0
 10  5  1  0
 13  8  1  0
M  CHG  1  18   1
M  END
>  <Binding energies>  (80) 
[-7.52]

>  <Ligand effiencies>  (80) 
[-0.3269565217391304]

>  <Interactions>  (80) 
["V-A:LEU:475:CD2:4256, H-A:TYR:484:OH:4345, V-B:TYR:539:CD1:9845, V-B:TYR:539:C:9839, V-B:TYR:539:CE1:9847, V-B:GLU:543:CD:9880, V-B:PRO:540:CB:9857, V-A:ARG:545:CZ:4924, V-B:PRO:540:CA:9855, V-B:ALA:541:CB:9864, H-B:GLU:543:OE2:9882, H-B:GLU:543:OE1:9881, H-A:GLU:543:OE2:4908, H-A:GLU:543:OE1:4907, V-B:PRO:540:N:9856, V-A:GLU:543:CD:4906, V-B:TYR:539:CG:9844, V-B:ILE:538:CB:9834, H-B:TYR:539:N:9842, V-B:TYR:539:CD2:9846, V-B:PRO:540:CD:9859, V-B:TYR:539:CZ:9849, V-B:TYR:539:CA:9841, V-B:ILE:538:CG2:9835, V-B:TYR:531:CE2:9765, V-B:ALA:541:CA:9862, V-B:LEU:363:CD1:8160"]

$$$$
RR30_Rahimova_2017
     RDKit          3D

 18 19  0  0  0  0  0  0  0  0999 V2000
  131.0170  125.6150   55.9970 C   0  0  0  0  0  0  0  0  0  0  0  0
  131.6120  126.1340   57.3140 C   0  0  0  0  0  0  0  0  0  0  0  0
  132.1900  125.0200   58.1600 C   0  0  0  0  0  0  0  0  0  0  0  0
  133.3970  124.5120   58.1150 N   0  0  0  0  0  0  0  0  0  0  0  0
  133.4260  123.5110   59.0830 N   0  0  0  0  0  0  0  0  0  0  0  0
  132.2340  123.4950   59.6220 C   0  0  0  0  0  0  0  0  0  0  0  0
  131.6550  122.4510   60.9210 S   0  0  0  0  0  0  0  0  0  0  0  0
  130.1520  123.3590   61.4060 C   0  0  0  0  0  0  0  0  0  0  0  0
  128.9320  122.9380   60.5830 C   0  0  0  0  0  0  0  0  0  0  0  0
  127.9960  122.3640   61.1430 O   0  0  0  0  0  0  0  0  0  0  0  0
  128.9900  123.2080   59.2590 N   0  0  0  0  0  0  0  0  0  0  0  0
  128.0140  122.9210   58.3160 C   0  0  0  0  0  0  0  0  0  0  0  0
  128.0370  122.0050   57.3750 N   0  0  0  0  0  0  0  0  0  0  0  0
  126.8780  122.0050   56.6090 N   0  0  0  0  0  0  0  0  0  0  0  0
  126.0070  122.9150   56.9830 C   0  0  0  0  0  0  0  0  0  0  0  0
  124.6730  123.1130   56.3020 C   0  0  0  0  0  0  0  0  0  0  0  0
  126.5560  123.8620   58.3390 S   0  0  0  0  0  0  0  0  0  0  0  0
  131.4010  124.4260   59.0900 O   0  0  0  0  0  0  0  0  0  0  0  0
  1  2  1  0
  2  3  1  0
  3  4  2  0
  4  5  1  0
  5  6  2  0
  6  7  1  0
  7  8  1  0
  8  9  1  0
  9 10  2  0
  9 11  1  0
 11 12  1  0
 12 13  2  0
 13 14  1  0
 14 15  2  0
 15 16  1  0
 15 17  1  0
  6 18  1  0
 18  3  1  0
 17 12  1  0
M  END
>  <Binding energies>  (81) 
[-6.76]

>  <Ligand effiencies>  (81) 
[-0.3557894736842105]

>  <Interactions>  (81) 
["V-B:TYR:539:CD1:9845, V-B:TYR:539:C:9839, V-B:TYR:539:CE1:9847, V-B:PRO:540:CA:9855, V-A:ASP:366:CG:3210, V-B:PRO:540:N:9856, V-B:ILE:538:CB:9834, H-B:TYR:539:N:9842, V-B:PRO:540:CD:9859, V-B:TYR:539:CZ:9849, V-B:ILE:538:CG2:9835, V-B:MET:535:CE:9807, H-B:ALA:541:N:9863, V-A:ASP:366:CB:3209, V-B:TYR:531:CE2:9765, H-B:TYR:539:OH:9850, V-A:TYR:531:CE1:4790, V-B:LEU:363:CD1:8160"]

$$$$
RR31_Rahimova_2017
     RDKit          3D

 18 19  0  0  0  0  0  0  0  0999 V2000
  132.2980  132.2840   55.9460 C   0  0  0  0  0  0  0  0  0  0  0  0
  131.3780  132.1590   57.1530 C   0  0  0  0  0  0  0  0  0  0  0  0
  131.9130  131.7620   58.3790 C   0  0  0  0  0  0  0  0  0  0  0  0
  131.0980  131.6420   59.5030 C   0  0  0  0  0  0  0  0  0  0  0  0
  129.7240  131.9240   59.4360 C   0  0  0  0  0  0  0  0  0  0  0  0
  128.8920  131.7980   60.5510 N   0  0  0  0  0  0  0  0  0  0  0  0
  127.7260  130.8930   60.5590 C   0  0  0  0  0  0  0  0  0  0  0  0
  126.7080  131.1850   61.6870 C   0  0  0  0  0  0  0  0  0  0  0  0
  127.3590  131.1570   62.9990 N   0  0  0  0  0  0  0  0  0  0  0  0
  126.4120  131.3960   64.0930 C   0  0  0  0  0  0  0  0  0  0  0  0
  126.0620  130.1150   64.8770 C   0  0  0  0  0  0  0  0  0  0  0  0
  127.2950  129.4830   65.5420 C   0  0  0  0  0  0  0  0  0  0  0  0
  128.1420  128.7570   64.4910 N   0  0  0  0  0  0  0  0  0  0  0  0
  128.3860  132.1990   63.0010 C   0  0  0  0  0  0  0  0  0  0  0  0
  129.4490  131.9240   61.9130 C   0  0  0  0  0  0  0  0  0  0  0  0
  129.1970  132.3130   58.1960 C   0  0  0  0  0  0  0  0  0  0  0  0
  130.0050  132.4370   57.0590 C   0  0  0  0  0  0  0  0  0  0  0  0
  129.3720  132.8610   55.7400 C   0  0  0  0  0  0  0  0  0  0  0  0
  1  2  1  0
  2  3  2  0
  3  4  1  0
  4  5  2  0
  5  6  1  0
  6  7  1  0
  7  8  1  0
  8  9  1  0
  9 10  1  0
 10 11  1  0
 11 12  1  0
 12 13  1  0
  9 14  1  0
 14 15  1  0
  5 16  1  0
 16 17  2  0
 17 18  1  0
 17  2  1  0
 15  6  1  0
M  CHG  1  13   1
M  END
>  <Binding energies>  (82) 
[-7.31]

>  <Ligand effiencies>  (82) 
[-0.34809523809523807]

>  <Interactions>  (82) 
["V-B:GLU:543:CD:9880, H-B:GLU:543:OE2:9882, H-B:GLU:543:OE1:9881, H-A:GLU:543:OE2:4908, H-A:GLU:543:OE1:4907, V-A:GLU:543:CD:4906, V-A:TYR:539:CE1:4873, V-A:TYR:539:C:4865, V-A:ALA:541:CB:4890, V-A:PRO:540:CA:4881, V-A:TYR:539:CD1:4871, V-A:PRO:540:CB:4883, V-A:PRO:540:N:4882, V-A:LEU:363:CD1:3186, V-A:ILE:538:CA:4858, V-A:ILE:538:C:4856, V-A:TYR:539:CG:4870, V-A:ILE:538:CB:4860, V-A:MET:535:CE:4833, V-A:ILE:538:CG2:4861, V-A:TYR:531:CE2:4791, V-A:TYR:539:CD2:4872, V-A:TYR:539:CE2:4874"]

$$$$
RR32_Rahimova_2017
     RDKit          3D

 18 20  0  0  0  0  0  0  0  0999 V2000
  125.2790  123.9150   61.4920 C   0  0  0  0  0  0  0  0  0  0  0  0
  126.2290  123.5130   60.3690 C   0  0  0  0  0  0  0  0  0  0  0  0
  127.5320  123.1460   60.7070 C   0  0  0  0  0  0  0  0  0  0  0  0
  128.4260  122.7690   59.7100 C   0  0  0  0  0  0  0  0  0  0  0  0
  129.7180  122.4060   60.0490 N   0  0  0  0  0  0  0  0  0  0  0  0
  130.6940  123.4910   60.2520 C   0  0  0  0  0  0  0  0  0  0  0  0
  132.1420  122.9820   60.4470 C   0  0  0  0  0  0  0  0  0  0  0  0
  132.2080  122.0760   61.5930 N   0  0  0  0  0  0  0  0  0  0  0  0
  133.5790  121.6210   61.7970 C   0  0  0  0  0  0  0  0  0  0  0  0
  131.3320  120.9380   61.3200 C   0  0  0  0  0  0  0  0  0  0  0  0
  129.8730  121.4170   61.1330 C   0  0  0  0  0  0  0  0  0  0  0  0
  128.0880  122.7440   58.3950 N   0  0  0  0  0  0  0  0  0  0  0  0
  126.8250  123.0990   58.0330 C   0  0  0  0  0  0  0  0  0  0  0  0
  126.5000  123.0660   56.6550 C   0  0  0  0  0  0  0  0  0  0  0  0
  125.2250  123.4190   56.2270 C   0  0  0  0  0  0  0  0  0  0  0  0
  124.2560  123.8070   57.1440 C   0  0  0  0  0  0  0  0  0  0  0  0
  124.5430  123.8510   58.5050 C   0  0  0  0  0  0  0  0  0  0  0  0
  125.8360  123.4990   58.9900 C   0  0  0  0  0  0  0  0  0  0  0  0
  1  2  1  0
  2  3  2  0
  3  4  1  0
  4  5  1  0
  5  6  1  0
  6  7  1  0
  7  8  1  0
  8  9  1  0
  8 10  1  0
 10 11  1  0
  4 12  2  0
 12 13  1  0
 13 14  2  0
 14 15  1  0
 15 16  2  0
 16 17  1  0
 17 18  2  0
 18  2  1  0
 11  5  1  0
 18 13  1  0
M  END
>  <Binding energies>  (83) 
[-6.67]

>  <Ligand effiencies>  (83) 
[-0.3705555555555555]

>  <Interactions>  (83) 
["V-A:LEU:475:CD2:4256, V-A:GLY:454:CA:4046, V-B:TYR:539:CD1:9845, V-B:TYR:539:C:9839, V-B:ASP:366:CG:8184, V-B:PRO:540:C:9853, V-B:TYR:539:CE1:9847, V-B:PRO:540:CB:9857, V-B:PRO:540:CA:9855, V-B:ALA:541:CB:9864, V-B:PRO:540:N:9856, V-A:ILE:369:CD1:3236, V-B:ILE:538:CB:9834, V-B:ILE:538:CG2:9835, V-A:ILE:369:CG2:3234, V-B:TYR:531:CZ:9766, V-B:TYR:531:CE2:9765, V-B:LEU:363:CD1:8160, V-B:LEU:363:CA:8156"]

$$$$
RR5_Rahimova_2017
     RDKit          3D

 45 50  0  0  0  0  0  0  0  0999 V2000
  128.5900  127.3180   59.9530 O   0  0  0  0  0  0  0  0  0  0  0  0
  127.4690  126.8440   60.1290 C   0  0  0  0  0  0  0  0  0  0  0  0
  126.4030  127.6670   60.8790 C   0  0  0  0  0  0  0  0  0  0  0  0
  126.7110  129.2050   60.9430 C   0  0  2  0  0  0  0  0  0  0  0  0
  127.5480  129.7190   59.8400 N   0  0  0  0  0  0  0  0  0  0  0  0
  127.0060  130.0400   58.6030 C   0  0  0  0  0  0  0  0  0  0  0  0
  125.8140  129.9900   58.2860 O   0  0  0  0  0  0  0  0  0  0  0  0
  128.0060  130.4080   57.7840 O   0  0  0  0  0  0  0  0  0  0  0  0
  128.0230  131.6890   57.1610 C   0  0  0  0  0  0  0  0  0  0  0  0
  129.1330  132.5780   57.7640 C   0  0  0  0  0  0  0  0  0  0  0  0
  129.2380  132.4790   59.2750 C   0  0  0  0  0  0  0  0  0  0  0  0
  128.2720  132.7320   60.2530 C   0  0  0  0  0  0  0  0  0  0  0  0
  128.5840  132.5520   61.6020 C   0  0  0  0  0  0  0  0  0  0  0  0
  129.8580  132.1220   61.9750 C   0  0  0  0  0  0  0  0  0  0  0  0
  130.8260  131.8710   61.0010 C   0  0  0  0  0  0  0  0  0  0  0  0
  130.5120  132.0520   59.6530 C   0  0  0  0  0  0  0  0  0  0  0  0
  131.3230  131.8740   58.4380 C   0  0  0  0  0  0  0  0  0  0  0  0
  132.6520  131.4780   58.2690 C   0  0  0  0  0  0  0  0  0  0  0  0
  133.1940  131.4110   56.9850 C   0  0  0  0  0  0  0  0  0  0  0  0
  132.4100  131.7350   55.8750 C   0  0  0  0  0  0  0  0  0  0  0  0
  131.0820  132.1260   56.0480 C   0  0  0  0  0  0  0  0  0  0  0  0
  130.5340  132.1920   57.3310 C   0  0  0  0  0  0  0  0  0  0  0  0
  127.3510  129.5810   62.3020 C   0  0  0  0  0  0  0  0  0  0  0  0
  126.7270  129.8710   63.3040 O   0  0  0  0  0  0  0  0  0  0  0  0
  128.7110  129.5180   62.2030 O   0  0  0  0  0  0  0  0  0  0  0  0
  127.0630  125.6350   59.6820 N   0  0  0  0  0  0  0  0  0  0  0  0
  127.7400  124.5380   58.9270 C   0  0  0  0  0  0  0  0  0  0  0  0
  126.5370  123.8550   58.1930 C   0  0  0  0  0  0  0  0  0  0  0  0
  126.7330  123.0430   57.0640 C   0  0  0  0  0  0  0  0  0  0  0  0
  125.6560  122.4400   56.4200 C   0  0  0  0  0  0  0  0  0  0  0  0
  124.3640  122.6460   56.8890 C   0  0  0  0  0  0  0  0  0  0  0  0
  124.1400  123.4440   58.0050 C   0  0  0  0  0  0  0  0  0  0  0  0
  125.2180  124.0380   58.6540 C   0  0  0  0  0  0  0  0  0  0  0  0
  128.7490  125.2080   57.9350 C   0  0  0  0  0  0  0  0  0  0  0  0
  130.0830  124.7820   57.8400 C   0  0  0  0  0  0  0  0  0  0  0  0
  130.9690  125.4060   56.9630 C   0  0  0  0  0  0  0  0  0  0  0  0
  130.5320  126.4640   56.1730 C   0  0  0  0  0  0  0  0  0  0  0  0
  129.2130  126.9010   56.2470 C   0  0  0  0  0  0  0  0  0  0  0  0
  128.3280  126.2720   57.1160 C   0  0  0  0  0  0  0  0  0  0  0  0
  128.4010  123.6130   60.0040 C   0  0  0  0  0  0  0  0  0  0  0  0
  128.2940  123.9080   61.3760 C   0  0  0  0  0  0  0  0  0  0  0  0
  128.8860  123.0940   62.3370 C   0  0  0  0  0  0  0  0  0  0  0  0
  129.5920  121.9630   61.9440 C   0  0  0  0  0  0  0  0  0  0  0  0
  129.7030  121.6380   60.5970 C   0  0  0  0  0  0  0  0  0  0  0  0
  129.1100  122.4550   59.6390 C   0  0  0  0  0  0  0  0  0  0  0  0
  1  2  2  0
  2  3  1  0
  4  3  1  6
  4  5  1  0
  5  6  1  0
  6  7  2  0
  6  8  1  0
  8  9  1  0
  9 10  1  0
 10 11  1  0
 11 12  2  0
 12 13  1  0
 13 14  2  0
 14 15  1  0
 15 16  2  0
 16 17  1  0
 17 18  2  0
 18 19  1  0
 19 20  2  0
 20 21  1  0
 21 22  2  0
  4 23  1  0
 23 24  2  0
 23 25  1  0
  2 26  1  0
 26 27  1  0
 27 28  1  0
 28 29  2  0
 29 30  1  0
 30 31  2  0
 31 32  1  0
 32 33  2  0
 27 34  1  0
 34 35  2  0
 35 36  1  0
 36 37  2  0
 37 38  1  0
 38 39  2  0
 27 40  1  0
 40 41  2  0
 41 42  1  0
 42 43  2  0
 43 44  1  0
 44 45  2  0
 22 10  1  0
 33 28  1  0
 39 34  1  0
 45 40  1  0
 16 11  1  0
 22 17  1  0
M  END
>  <Binding energies>  (84) 
[-10.41]

>  <Ligand effiencies>  (84) 
[-0.216875]

>  <Interactions>  (84) 
["V-B:TYR:539:CD1:9845, V-B:TYR:539:C:9839, V-B:ASP:366:CG:8184, V-B:TYR:539:CE1:9847, V-B:PRO:540:CB:9857, V-B:PRO:540:CA:9855, H-B:ASP:366:OD2:8186, V-B:ALA:541:CB:9864, H-A:GLU:543:OE2:4908, H-A:GLU:543:OE1:4907, V-B:PRO:540:N:9856, V-A:TYR:539:CE1:4873, V-A:TYR:539:C:4865, V-A:ALA:541:CB:4890, V-A:PRO:540:CA:4881, V-A:TYR:539:CD1:4871, V-A:PRO:540:CB:4883, V-A:PRO:540:N:4882, V-A:LEU:363:CD1:3186, V-A:ILE:538:CA:4858, V-A:TYR:539:CG:4870, V-A:ILE:538:CB:4860, V-B:ILE:538:CB:9834, V-A:MET:535:CE:4833, V-B:PRO:540:CD:9859, V-B:TYR:539:CZ:9849, V-A:ILE:538:CG2:4861, V-B:ILE:538:CG2:9835, V-A:TYR:531:CE2:4791, V-A:TYR:531:CZ:4792, V-B:ILE:538:CA:9832, V-B:MET:535:CE:9807, V-A:TYR:539:CE2:4874, V-A:TYR:539:CZ:4875, V-B:PRO:540:CG:9858, V-B:LEU:363:CD1:8160, V-A:PRO:540:C:4879, H-A:TYR:539:OH:4876, V-A:ALA:541:CA:4888, V-B:LEU:363:CA:8156, V-B:LEU:363:CB:8158"]

$$$$
