1a_Ghoteimi_2023
     RDKit          3D

 40 43  0  0  0  0  0  0  0  0999 V2000
  132.7260  131.8430   57.4230 C   0  0  0  0  0  0  0  0  0  0  0  0
  131.8010  132.7950   56.6580 C   0  0  0  0  0  0  0  0  0  0  0  0
  130.5030  132.7600   57.2400 O   0  0  0  0  0  0  0  0  0  0  0  0
  129.4090  132.4620   56.4940 C   0  0  0  0  0  0  0  0  0  0  0  0
  128.8320  133.2830   55.7730 O   0  0  0  0  0  0  0  0  0  0  0  0
  128.9700  131.0320   56.6290 C   0  0  0  0  0  0  0  0  0  0  0  0
  129.8840  129.9960   56.8730 C   0  0  0  0  0  0  0  0  0  0  0  0
  129.4480  128.6790   56.9900 C   0  0  0  0  0  0  0  0  0  0  0  0
  128.0840  128.3740   56.8700 C   0  0  0  0  0  0  0  0  0  0  0  0
  127.5350  127.0810   56.9660 N   0  0  0  0  0  0  0  0  0  0  0  0
  128.0660  125.9520   57.4820 C   0  0  0  0  0  0  0  0  0  0  0  0
  129.1790  125.8550   57.9990 O   0  0  0  0  0  0  0  0  0  0  0  0
  127.1760  124.7110   57.4030 C   0  0  0  0  0  0  0  0  0  0  0  0
  126.8720  123.9960   59.0450 S   0  0  0  0  0  0  0  0  0  0  0  0
  127.6020  125.1170   60.2170 C   0  0  0  0  0  0  0  0  0  0  0  0
  126.9520  126.3000   60.3230 N   0  0  0  0  0  0  0  0  0  0  0  0
  127.4060  127.2450   61.1890 C   0  0  0  0  0  0  0  0  0  0  0  0
  126.6200  128.5220   61.2640 C   0  0  0  0  0  0  0  0  0  0  0  0
  126.1470  129.1570   60.1040 C   0  0  0  0  0  0  0  0  0  0  0  0
  125.4170  130.3400   60.1780 C   0  0  0  0  0  0  0  0  0  0  0  0
  125.1390  130.9260   61.4100 C   0  0  0  0  0  0  0  0  0  0  0  0
  124.4070  132.0980   61.3880 O   0  0  0  0  0  0  0  0  0  0  0  0
  124.1700  132.7910   62.6080 C   0  0  0  0  0  0  0  0  0  0  0  0
  125.6070  130.3070   62.5770 C   0  0  0  0  0  0  0  0  0  0  0  0
  126.3370  129.1240   62.5000 C   0  0  0  0  0  0  0  0  0  0  0  0
  128.5420  127.0060   61.9720 C   0  0  0  0  0  0  0  0  0  0  0  0
  129.2450  125.7990   61.8610 C   0  0  0  0  0  0  0  0  0  0  0  0
  130.4670  125.6260   62.7040 C   0  0  0  0  0  0  0  0  0  0  0  0
  130.4000  125.7480   64.0960 C   0  0  0  0  0  0  0  0  0  0  0  0
  131.5400  125.5710   64.8760 C   0  0  0  0  0  0  0  0  0  0  0  0
  132.7640  125.2620   64.2830 C   0  0  0  0  0  0  0  0  0  0  0  0
  133.8380  125.1040   65.1360 O   0  0  0  0  0  0  0  0  0  0  0  0
  133.6710  125.3770   66.5230 C   0  0  0  0  0  0  0  0  0  0  0  0
  132.8330  125.1310   62.8880 C   0  0  0  0  0  0  0  0  0  0  0  0
  131.6920  125.3090   62.1100 C   0  0  0  0  0  0  0  0  0  0  0  0
  128.7640  124.8180   60.9600 C   0  0  0  0  0  0  0  0  0  0  0  0
  129.4480  123.5300   60.8120 C   0  0  0  0  0  0  0  0  0  0  0  0
  129.9890  122.5130   60.6960 N   0  0  0  0  0  0  0  0  0  0  0  0
  127.1730  129.4020   56.6240 C   0  0  0  0  0  0  0  0  0  0  0  0
  127.6110  130.7190   56.5060 C   0  0  0  0  0  0  0  0  0  0  0  0
  1  2  1  0
  2  3  1  0
  3  4  1  0
  4  5  2  0
  4  6  1  0
  6  7  2  0
  7  8  1  0
  8  9  2  0
  9 10  1  0
 10 11  1  0
 11 12  2  0
 11 13  1  0
 13 14  1  0
 14 15  1  0
 15 16  2  0
 16 17  1  0
 17 18  1  0
 18 19  2  0
 19 20  1  0
 20 21  2  0
 21 22  1  0
 22 23  1  0
 21 24  1  0
 24 25  2  0
 17 26  2  0
 26 27  1  0
 27 28  1  0
 28 29  2  0
 29 30  1  0
 30 31  2  0
 31 32  1  0
 32 33  1  0
 31 34  1  0
 34 35  2  0
 27 36  2  0
 36 37  1  0
 37 38  3  0
  9 39  1  0
 39 40  2  0
 40  6  1  0
 36 15  1  0
 25 18  1  0
 35 28  1  0
M  END
>  <Binding energies>  (1) 
[-7.89]

>  <Ligand effiencies>  (1) 
[-0.1924390243902439]

>  <Interactions>  (1) 
["V-A:HIS:456:CE1:4066, H-A:TYR:484:OH:4345, V-B:ASP:366:CG:8184, V-B:GLU:543:CD:9880, V-A:ARG:545:CZ:4924, V-A:TYR:484:CZ:4344, V-B:ARG:545:CZ:9898, H-B:TYR:531:OH:9767, V-A:ARG:545:CD:4921, V-A:ARG:545:CG:4920, H-A:ARG:545:NE:4922, V-B:LEU:475:CD2:9230, V-A:PRO:540:CA:4881, V-B:ILE:369:CD1:8210, V-A:PRO:540:CB:4883, V-A:PRO:540:N:4882, V-A:LEU:363:CD1:3186, V-A:ILE:538:CA:4858, V-A:ILE:538:CB:4860, V-A:MET:535:CE:4833, V-A:ILE:538:CG2:4861, V-A:PRO:540:CD:4885, V-B:MET:535:CE:9807, V-A:TYR:539:CZ:4875, H-A:GLY:454:N:4047, H-A:TYR:539:N:4868, V-B:GLY:454:CA:9020"]

$$$$
1b_Ghoteimi_2023
     RDKit          3D

 34 37  0  0  0  0  0  0  0  0999 V2000
  129.0300  133.1300   55.3230 C   0  0  0  0  0  0  0  0  0  0  0  0
  129.5940  132.8030   56.5880 O   0  0  0  0  0  0  0  0  0  0  0  0
  129.6070  131.4840   56.9990 C   0  0  0  0  0  0  0  0  0  0  0  0
  130.6820  131.0870   57.7920 C   0  0  0  0  0  0  0  0  0  0  0  0
  130.7800  129.7770   58.2510 C   0  0  0  0  0  0  0  0  0  0  0  0
  129.8010  128.8230   57.9340 C   0  0  0  0  0  0  0  0  0  0  0  0
  129.9110  127.4080   58.4310 C   0  0  0  0  0  0  0  0  0  0  0  0
  130.5960  127.0640   59.6010 C   0  0  0  0  0  0  0  0  0  0  0  0
  130.6650  125.7300   60.0230 C   0  0  0  0  0  0  0  0  0  0  0  0
  131.4170  125.4340   61.2790 C   0  0  0  0  0  0  0  0  0  0  0  0
  130.8530  125.7270   62.5240 C   0  0  0  0  0  0  0  0  0  0  0  0
  131.5530  125.4620   63.6970 C   0  0  0  0  0  0  0  0  0  0  0  0
  132.8310  124.9030   63.6500 C   0  0  0  0  0  0  0  0  0  0  0  0
  133.4500  124.6750   64.8640 O   0  0  0  0  0  0  0  0  0  0  0  0
  133.1140  125.4940   65.9790 C   0  0  0  0  0  0  0  0  0  0  0  0
  133.4040  124.6160   62.4030 C   0  0  0  0  0  0  0  0  0  0  0  0
  132.7010  124.8830   61.2310 C   0  0  0  0  0  0  0  0  0  0  0  0
  130.0160  124.7410   59.2420 C   0  0  0  0  0  0  0  0  0  0  0  0
  129.9780  123.3460   59.6900 C   0  0  0  0  0  0  0  0  0  0  0  0
  129.9480  122.2440   60.0450 N   0  0  0  0  0  0  0  0  0  0  0  0
  129.3610  125.1540   58.0610 C   0  0  0  0  0  0  0  0  0  0  0  0
  128.5020  124.0530   56.9560 S   0  0  0  0  0  0  0  0  0  0  0  0
  126.7160  124.4010   57.0920 C   0  0  0  0  0  0  0  0  0  0  0  0
  126.0400  123.8440   58.3530 C   0  0  0  0  0  0  0  0  0  0  0  0
  125.0270  123.1450   58.2680 O   0  0  0  0  0  0  0  0  0  0  0  0
  126.6420  124.1880   59.5130 N   0  0  0  0  0  0  0  0  0  0  0  0
  126.2550  123.8290   60.7990 C   0  0  0  0  0  0  0  0  0  0  0  0
  124.9440  123.9450   61.2600 C   0  0  0  0  0  0  0  0  0  0  0  0
  124.9800  123.4940   62.5600 C   0  0  0  0  0  0  0  0  0  0  0  0
  126.2470  123.1230   62.8650 O   0  0  0  0  0  0  0  0  0  0  0  0
  127.0450  123.3400   61.7410 N   0  0  0  0  0  0  0  0  0  0  0  0
  129.2970  126.4540   57.6840 N   0  0  0  0  0  0  0  0  0  0  0  0
  128.7240  129.2330   57.1330 C   0  0  0  0  0  0  0  0  0  0  0  0
  128.6230  130.5410   56.6710 C   0  0  0  0  0  0  0  0  0  0  0  0
  1  2  1  0
  2  3  1  0
  3  4  2  0
  4  5  1  0
  5  6  2  0
  6  7  1  0
  7  8  2  0
  8  9  1  0
  9 10  1  0
 10 11  2  0
 11 12  1  0
 12 13  2  0
 13 14  1  0
 14 15  1  0
 13 16  1  0
 16 17  2  0
  9 18  2  0
 18 19  1  0
 19 20  3  0
 18 21  1  0
 21 22  1  0
 22 23  1  0
 23 24  1  0
 24 25  2  0
 24 26  1  0
 26 27  1  0
 27 28  1  0
 28 29  2  0
 29 30  1  0
 30 31  1  0
 21 32  2  0
  6 33  1  0
 33 34  2  0
 34  3  1  0
 32  7  1  0
 17 10  1  0
 31 27  2  0
M  END
>  <Binding energies>  (2) 
[-7.88]

>  <Ligand effiencies>  (2) 
[-0.22514285714285714]

>  <Interactions>  (2) 
["V-A:HIS:456:CE1:4066, H-A:TYR:484:OH:4345, V-B:TYR:539:CD1:9845, V-B:ASP:366:CG:8184, V-B:TYR:539:CE1:9847, V-B:PRO:540:CB:9857, V-A:ARG:545:CZ:4924, V-B:PRO:540:CA:9855, V-B:ARG:545:CZ:9898, V-B:ASN:362:CB:8147, V-A:ASP:366:CG:3210, V-A:ARG:545:CD:4921, V-A:ARG:545:CG:4920, V-A:ILE:538:CA:4858, V-A:ILE:538:C:4856, V-A:TYR:539:CG:4870, V-A:ILE:538:CB:4860, V-A:MET:535:CE:4833, V-B:MET:535:CE:9807, V-A:TYR:539:CD2:4872, V-A:TYR:539:CE2:4874, V-A:TYR:539:CZ:4875, H-B:ALA:541:N:9863, H-A:GLY:454:N:4047, H-A:TYR:539:N:4868, V-B:ALA:541:C:9860"]

$$$$
1c_Ghoteimi_2023
     RDKit          3D

 34 37  0  0  0  0  0  0  0  0999 V2000
  134.3780  124.1450   59.6440 C   0  0  0  0  0  0  0  0  0  0  0  0
  133.5720  124.2090   58.4730 O   0  0  0  0  0  0  0  0  0  0  0  0
  132.4660  125.0370   58.4580 C   0  0  0  0  0  0  0  0  0  0  0  0
  131.8570  125.2900   59.6850 C   0  0  0  0  0  0  0  0  0  0  0  0
  130.7360  126.1110   59.7640 C   0  0  0  0  0  0  0  0  0  0  0  0
  130.1880  126.7040   58.6160 C   0  0  0  0  0  0  0  0  0  0  0  0
  128.9760  127.5860   58.6950 C   0  0  0  0  0  0  0  0  0  0  0  0
  128.3430  127.8940   59.9040 C   0  0  0  0  0  0  0  0  0  0  0  0
  127.2300  128.7430   59.9320 C   0  0  0  0  0  0  0  0  0  0  0  0
  126.6460  129.0820   61.2630 C   0  0  0  0  0  0  0  0  0  0  0  0
  125.3560  129.6120   61.3610 C   0  0  0  0  0  0  0  0  0  0  0  0
  124.8220  129.9470   62.6000 C   0  0  0  0  0  0  0  0  0  0  0  0
  125.5670  129.7650   63.7650 C   0  0  0  0  0  0  0  0  0  0  0  0
  124.9560  130.1260   64.9510 O   0  0  0  0  0  0  0  0  0  0  0  0
  125.3590  129.4910   66.1610 C   0  0  0  0  0  0  0  0  0  0  0  0
  126.8650  129.2400   63.6710 C   0  0  0  0  0  0  0  0  0  0  0  0
  127.3980  128.9050   62.4300 C   0  0  0  0  0  0  0  0  0  0  0  0
  126.7450  129.2570   58.7060 C   0  0  0  0  0  0  0  0  0  0  0  0
  125.5640  130.1260   58.6640 C   0  0  0  0  0  0  0  0  0  0  0  0
  124.6310  130.8110   58.6320 N   0  0  0  0  0  0  0  0  0  0  0  0
  127.4410  128.9210   57.5270 C   0  0  0  0  0  0  0  0  0  0  0  0
  127.0470  129.6280   55.9420 S   0  0  0  0  0  0  0  0  0  0  0  0
  127.2570  131.4240   56.1680 C   0  0  0  0  0  0  0  0  0  0  0  0
  128.7340  131.8310   56.2290 C   0  0  0  0  0  0  0  0  0  0  0  0
  129.1070  132.8540   55.6540 O   0  0  0  0  0  0  0  0  0  0  0  0
  129.5230  131.0230   56.9710 N   0  0  0  0  0  0  0  0  0  0  0  0
  130.8480  131.2460   57.3120 C   0  0  0  0  0  0  0  0  0  0  0  0
  131.4110  131.1120   58.4940 N   0  0  0  0  0  0  0  0  0  0  0  0
  132.7030  131.3700   58.4450 C   0  0  0  0  0  0  0  0  0  0  0  0
  133.2150  131.7200   57.1990 C   0  0  0  0  0  0  0  0  0  0  0  0
  131.9240  131.7110   56.0350 S   0  0  0  0  0  0  0  0  0  0  0  0
  128.5300  128.1150   57.5260 N   0  0  0  0  0  0  0  0  0  0  0  0
  130.8130  126.4470   57.3860 C   0  0  0  0  0  0  0  0  0  0  0  0
  131.9330  125.6260   57.3030 C   0  0  0  0  0  0  0  0  0  0  0  0
  1  2  1  0
  2  3  1  0
  3  4  2  0
  4  5  1  0
  5  6  2  0
  6  7  1  0
  7  8  2  0
  8  9  1  0
  9 10  1  0
 10 11  2  0
 11 12  1  0
 12 13  2  0
 13 14  1  0
 14 15  1  0
 13 16  1  0
 16 17  2  0
  9 18  2  0
 18 19  1  0
 19 20  3  0
 18 21  1  0
 21 22  1  0
 22 23  1  0
 23 24  1  0
 24 25  2  0
 24 26  1  0
 26 27  1  0
 27 28  2  0
 28 29  1  0
 29 30  2  0
 30 31  1  0
 21 32  2  0
  6 33  1  0
 33 34  2  0
 34  3  1  0
 32  7  1  0
 17 10  1  0
 31 27  1  0
M  END
>  <Binding energies>  (3) 
[-8.0]

>  <Ligand effiencies>  (3) 
[-0.22857142857142856]

>  <Interactions>  (3) 
["V-B:HIS:456:CE1:9040, V-B:ASP:366:CG:8184, V-B:TYR:539:CE1:9847, V-B:ARG:545:CZ:9898, V-A:ASP:366:CG:3210, V-B:ASP:366:CB:8183, H-B:TYR:531:OH:9767, V-A:ILE:369:CD1:3236, V-A:TYR:539:CE1:4873, H-B:ARG:545:NE:9896, V-A:PRO:540:CA:4881, V-B:ARG:545:CD:9895, V-B:ARG:545:CG:9894, V-A:PRO:540:CB:4883, V-A:LEU:363:CD1:3186, V-A:ILE:538:CB:4860, V-A:MET:535:CE:4833, V-A:ILE:538:CG2:4861, V-A:TYR:531:CE2:4791, V-A:TYR:531:CZ:4792, H-B:TYR:484:OH:9319, V-A:ILE:369:CG2:3234, H-B:GLY:454:N:9021, V-A:ILE:369:CB:3233, V-A:TYR:539:CE2:4874, V-A:TYR:539:CZ:4875, V-A:ASP:366:CB:3209, V-A:ASP:366:CA:3207, H-B:TYR:539:OH:9850, H-A:TYR:539:OH:4876, H-A:TYR:539:N:4868, V-A:LEU:363:CA:3182, V-A:ILE:369:CG1:3235"]

$$$$
1d_Ghoteimi_2023
     RDKit          3D

 30 32  0  0  0  0  0  0  0  0999 V2000
  124.3030  124.0200   57.7540 C   0  0  0  0  0  0  0  0  0  0  0  0
  125.0010  122.7920   57.6070 O   0  0  0  0  0  0  0  0  0  0  0  0
  126.3290  122.7830   57.3720 C   0  0  0  0  0  0  0  0  0  0  0  0
  126.9290  122.0310   56.6020 O   0  0  0  0  0  0  0  0  0  0  0  0
  127.0700  123.8390   58.1900 C   0  0  0  0  0  0  0  0  0  0  0  0
  128.5730  124.2870   57.2720 S   0  0  0  0  0  0  0  0  0  0  0  0
  129.5130  125.3800   58.3140 C   0  0  0  0  0  0  0  0  0  0  0  0
  129.5470  126.6600   57.8730 N   0  0  0  0  0  0  0  0  0  0  0  0
  130.2330  127.6000   58.5720 C   0  0  0  0  0  0  0  0  0  0  0  0
  130.2160  128.9960   58.0180 C   0  0  0  0  0  0  0  0  0  0  0  0
  129.0450  129.5510   57.4790 C   0  0  0  0  0  0  0  0  0  0  0  0
  129.0320  130.8420   56.9600 C   0  0  0  0  0  0  0  0  0  0  0  0
  130.1890  131.6180   56.9610 C   0  0  0  0  0  0  0  0  0  0  0  0
  130.0840  132.8860   56.4230 O   0  0  0  0  0  0  0  0  0  0  0  0
  129.1250  133.1280   55.3990 C   0  0  0  0  0  0  0  0  0  0  0  0
  131.3670  131.0780   57.4950 C   0  0  0  0  0  0  0  0  0  0  0  0
  131.3750  129.7860   58.0140 C   0  0  0  0  0  0  0  0  0  0  0  0
  130.9010  127.2620   59.7540 C   0  0  0  0  0  0  0  0  0  0  0  0
  130.8960  125.9430   60.2260 C   0  0  0  0  0  0  0  0  0  0  0  0
  131.6360  125.6510   61.4910 C   0  0  0  0  0  0  0  0  0  0  0  0
  131.0870  126.0100   62.7260 C   0  0  0  0  0  0  0  0  0  0  0  0
  131.7700  125.7400   63.9090 C   0  0  0  0  0  0  0  0  0  0  0  0
  133.0100  125.1030   63.8820 C   0  0  0  0  0  0  0  0  0  0  0  0
  133.6190  124.8830   65.1030 O   0  0  0  0  0  0  0  0  0  0  0  0
  133.1800  125.6170   66.2410 C   0  0  0  0  0  0  0  0  0  0  0  0
  133.5590  124.7300   62.6460 C   0  0  0  0  0  0  0  0  0  0  0  0
  132.8730  124.9990   61.4650 C   0  0  0  0  0  0  0  0  0  0  0  0
  130.1990  124.9620   59.4770 C   0  0  0  0  0  0  0  0  0  0  0  0
  130.2470  123.5500   59.8670 C   0  0  0  0  0  0  0  0  0  0  0  0
  130.2850  122.4350   60.1750 N   0  0  0  0  0  0  0  0  0  0  0  0
  1  2  1  0
  2  3  1  0
  3  4  2  0
  3  5  1  0
  5  6  1  0
  6  7  1  0
  7  8  2  0
  8  9  1  0
  9 10  1  0
 10 11  2  0
 11 12  1  0
 12 13  2  0
 13 14  1  0
 14 15  1  0
 13 16  1  0
 16 17  2  0
  9 18  2  0
 18 19  1  0
 19 20  1  0
 20 21  2  0
 21 22  1  0
 22 23  2  0
 23 24  1  0
 24 25  1  0
 23 26  1  0
 26 27  2  0
 19 28  2  0
 28 29  1  0
 29 30  3  0
 28  7  1  0
 17 10  1  0
 27 20  1  0
M  END
>  <Binding energies>  (4) 
[-7.29]

>  <Ligand effiencies>  (4) 
[-0.243]

>  <Interactions>  (4) 
["V-A:HIS:456:CE1:4066, H-A:TYR:484:OH:4345, V-B:TYR:539:CD1:9845, V-B:TYR:539:C:9839, V-B:TYR:539:CE1:9847, V-B:PRO:540:CB:9857, V-A:ARG:545:CZ:4924, V-B:PRO:540:CA:9855, V-A:ASP:366:CG:3210, V-B:PRO:540:N:9856, V-A:ARG:545:CD:4921, V-A:ARG:545:CG:4920, H-A:ARG:545:NE:4922, V-A:ILE:538:CA:4858, V-A:ILE:538:C:4856, V-A:TYR:539:CG:4870, V-A:ILE:538:CB:4860, H-B:TYR:539:N:9842, V-A:MET:535:CE:4833, V-B:PRO:540:CD:9859, V-A:ILE:538:CG2:4861, V-A:TYR:539:CD2:4872, V-A:TYR:539:CE2:4874, V-A:TYR:539:CZ:4875, V-B:TYR:531:CE2:9765, V-B:LEU:363:CD1:8160, H-A:GLY:454:N:4047, H-A:TYR:539:N:4868, V-B:LEU:363:CA:8156"]

$$$$
1j_Grossjean_2025
     RDKit          3D

 20 21  0  0  0  0  0  0  0  0999 V2000
  132.6460  131.3580   62.4480 C   0  0  0  0  0  0  0  0  0  0  0  0
  132.0000  131.6720   61.1110 C   0  0  0  0  0  0  0  0  0  0  0  0
  132.7020  131.5420   59.9140 C   0  0  0  0  0  0  0  0  0  0  0  0
  132.0510  131.8330   58.7110 C   0  0  0  0  0  0  0  0  0  0  0  0
  132.8350  131.6660   57.4100 C   0  0  0  0  0  0  0  0  0  0  0  0
  130.7040  132.2580   58.7390 C   0  0  0  0  0  0  0  0  0  0  0  0
  129.9870  132.5170   57.4880 C   0  0  0  0  0  0  0  0  0  0  0  0
  129.4230  132.7200   56.4980 N   0  0  0  0  0  0  0  0  0  0  0  0
  130.0780  132.3870   60.0020 C   0  0  0  0  0  0  0  0  0  0  0  0
  128.3920  132.9110   60.2240 S   0  0  0  0  0  0  0  0  0  0  0  0
  128.1760  133.3500   61.9740 C   0  0  0  0  0  0  0  0  0  0  0  0
  127.2430  132.3780   62.6990 C   0  0  0  0  0  0  0  0  0  0  0  0
  126.1150  132.1740   62.2490 O   0  0  0  0  0  0  0  0  0  0  0  0
  127.7520  131.8010   63.8090 N   0  0  0  0  0  0  0  0  0  0  0  0
  127.1100  130.8950   64.6410 C   0  0  0  0  0  0  0  0  0  0  0  0
  127.6260  130.2050   65.6350 N   0  0  0  0  0  0  0  0  0  0  0  0
  126.7230  129.4380   66.2120 C   0  0  0  0  0  0  0  0  0  0  0  0
  125.4360  129.4980   65.6850 C   0  0  0  0  0  0  0  0  0  0  0  0
  125.4200  130.6240   64.3610 S   0  0  0  0  0  0  0  0  0  0  0  0
  130.7110  132.0820   61.1620 N   0  0  0  0  0  0  0  0  0  0  0  0
  1  2  1  0
  2  3  2  0
  3  4  1  0
  4  5  1  0
  4  6  2  0
  6  7  1  0
  7  8  3  0
  6  9  1  0
  9 10  1  0
 10 11  1  0
 11 12  1  0
 12 13  2  0
 12 14  1  0
 14 15  1  0
 15 16  2  0
 16 17  1  0
 17 18  2  0
 18 19  1  0
  9 20  2  0
 20  2  1  0
 19 15  1  0
M  END
>  <Binding energies>  (5) 
[-7.03]

>  <Ligand effiencies>  (5) 
[-0.33476190476190476]

>  <Interactions>  (5) 
["V-B:HIS:456:CE1:9040, V-A:ARG:545:CZ:4924, V-B:ARG:545:CZ:9898, H-A:GLU:543:OE1:4907, V-A:GLU:543:CD:4906, V-A:TYR:539:C:4865, V-A:ALA:541:CB:4890, V-A:PRO:540:CA:4881, V-B:ARG:545:CD:9895, V-A:PRO:540:CB:4883, V-A:PRO:540:N:4882, V-A:LEU:363:CD1:3186, V-A:TYR:531:CE2:4791, H-B:TYR:484:OH:9319, V-A:PRO:540:C:4879, H-A:TYR:539:N:4868, V-A:ASN:362:CB:3173, H-A:ALA:541:N:4889"]

$$$$
1o_Grossjean_2025
     RDKit          3D

 26 27  0  0  0  0  0  0  0  0999 V2000
  125.0820  122.7400   56.2870 C   0  0  0  0  0  0  0  0  0  0  0  0
  126.4450  122.3550   56.1830 O   0  0  0  0  0  0  0  0  0  0  0  0
  127.3600  122.7690   57.0980 C   0  0  0  0  0  0  0  0  0  0  0  0
  128.1150  122.0000   57.7010 O   0  0  0  0  0  0  0  0  0  0  0  0
  127.3660  124.2570   57.3000 C   0  0  0  0  0  0  0  0  0  0  0  0
  128.2530  125.0970   56.6120 C   0  0  0  0  0  0  0  0  0  0  0  0
  128.2310  126.4740   56.8210 C   0  0  0  0  0  0  0  0  0  0  0  0
  127.3290  127.0380   57.7240 C   0  0  0  0  0  0  0  0  0  0  0  0
  127.3860  128.4390   57.8520 N   0  0  0  0  0  0  0  0  0  0  0  0
  127.0160  129.4040   56.9810 C   0  0  0  0  0  0  0  0  0  0  0  0
  126.4950  129.2070   55.8820 O   0  0  0  0  0  0  0  0  0  0  0  0
  127.2530  130.8460   57.4510 C   0  0  0  0  0  0  0  0  0  0  0  0
  127.5030  130.9600   58.9680 C   0  0  0  0  0  0  0  0  0  0  0  0
  128.4030  132.4620   59.4570 S   0  0  0  0  0  0  0  0  0  0  0  0
  130.1510  132.1300   59.3580 C   0  0  0  0  0  0  0  0  0  0  0  0
  130.7180  131.8600   60.5610 N   0  0  0  0  0  0  0  0  0  0  0  0
  132.0430  131.5840   60.6090 C   0  0  0  0  0  0  0  0  0  0  0  0
  132.6030  131.2780   61.9850 C   0  0  0  0  0  0  0  0  0  0  0  0
  132.8500  131.5770   59.4740 C   0  0  0  0  0  0  0  0  0  0  0  0
  132.2810  131.8780   58.2320 C   0  0  0  0  0  0  0  0  0  0  0  0
  133.1910  131.8780   57.0050 C   0  0  0  0  0  0  0  0  0  0  0  0
  130.9010  132.1740   58.1580 C   0  0  0  0  0  0  0  0  0  0  0  0
  130.3000  132.5510   56.8760 C   0  0  0  0  0  0  0  0  0  0  0  0
  129.8260  132.8460   55.8620 N   0  0  0  0  0  0  0  0  0  0  0  0
  126.4340  126.2040   58.4130 C   0  0  0  0  0  0  0  0  0  0  0  0
  126.4580  124.8280   58.2010 C   0  0  0  0  0  0  0  0  0  0  0  0
  1  2  1  0
  2  3  1  0
  3  4  2  0
  3  5  1  0
  5  6  2  0
  6  7  1  0
  7  8  2  0
  8  9  1  0
  9 10  1  0
 10 11  2  0
 10 12  1  0
 12 13  1  0
 13 14  1  0
 14 15  1  0
 15 16  2  0
 16 17  1  0
 17 18  1  0
 17 19  2  0
 19 20  1  0
 20 21  1  0
 20 22  2  0
 22 23  1  0
 23 24  3  0
  8 25  1  0
 25 26  2  0
 26  5  1  0
 22 15  1  0
M  END
>  <Binding energies>  (6) 
[-8.53]

>  <Ligand effiencies>  (6) 
[-0.3159259259259259]

>  <Interactions>  (6) 
["V-B:TYR:539:C:9839, V-B:ASP:366:CG:8184, V-A:ARG:545:CZ:4924, V-A:ASP:366:CG:3210, V-B:PRO:540:N:9856, H-B:TYR:531:OH:9767, V-A:TYR:539:CE1:4873, V-A:TYR:539:C:4865, V-A:PRO:540:CA:4881, V-A:PRO:540:CB:4883, V-A:PRO:540:N:4882, V-A:LEU:363:CD1:3186, V-B:ILE:538:CB:9834, H-B:TYR:539:N:9842, V-A:MET:535:CE:4833, V-B:PRO:540:CD:9859, V-B:ILE:538:CG2:9835, V-A:TYR:531:CE2:4791, V-B:MET:535:CE:9807, V-A:TYR:539:CZ:4875, V-B:LEU:363:CD1:8160, H-A:TYR:539:N:4868, V-A:LEU:363:CA:3182, V-A:ASN:362:CB:3173, H-A:ALA:541:N:4889"]

$$$$
1p_Grossjean_2025
     RDKit          3D

 21 22  0  0  0  0  0  0  0  0999 V2000
  132.4820  131.3830   62.6020 C   0  0  0  0  0  0  0  0  0  0  0  0
  131.9720  131.6570   61.2000 C   0  0  0  0  0  0  0  0  0  0  0  0
  132.7860  131.4840   60.0820 C   0  0  0  0  0  0  0  0  0  0  0  0
  132.2670  131.7640   58.8130 C   0  0  0  0  0  0  0  0  0  0  0  0
  133.1810  131.5820   57.6040 C   0  0  0  0  0  0  0  0  0  0  0  0
  130.9300  132.2070   58.6960 C   0  0  0  0  0  0  0  0  0  0  0  0
  130.3780  132.5520   57.3850 C   0  0  0  0  0  0  0  0  0  0  0  0
  129.9430  132.8250   56.3480 N   0  0  0  0  0  0  0  0  0  0  0  0
  130.1690  132.3320   59.8840 C   0  0  0  0  0  0  0  0  0  0  0  0
  128.4730  132.8650   59.9140 S   0  0  0  0  0  0  0  0  0  0  0  0
  128.1490  133.4930   61.5880 C   0  0  0  0  0  0  0  0  0  0  0  0
  128.4290  132.4660   62.7020 C   0  0  0  0  0  0  0  0  0  0  0  0
  127.1810  132.0850   63.5120 C   0  0  0  0  0  0  0  0  0  0  0  0
  126.2370  132.8750   63.5800 O   0  0  0  0  0  0  0  0  0  0  0  0
  127.2120  130.8660   64.0960 N   0  0  0  0  0  0  0  0  0  0  0  0
  126.2230  130.2820   64.8760 C   0  0  0  0  0  0  0  0  0  0  0  0
  126.4980  129.5300   66.0190 C   0  0  0  0  0  0  0  0  0  0  0  0
  125.2680  129.1380   66.4940 C   0  0  0  0  0  0  0  0  0  0  0  0
  124.3020  129.6260   65.6810 O   0  0  0  0  0  0  0  0  0  0  0  0
  124.9200  130.3490   64.6580 N   0  0  0  0  0  0  0  0  0  0  0  0
  130.6890  132.0780   61.1110 N   0  0  0  0  0  0  0  0  0  0  0  0
  1  2  1  0
  2  3  2  0
  3  4  1  0
  4  5  1  0
  4  6  2  0
  6  7  1  0
  7  8  3  0
  6  9  1  0
  9 10  1  0
 10 11  1  0
 11 12  1  0
 12 13  1  0
 13 14  2  0
 13 15  1  0
 15 16  1  0
 16 17  1  0
 17 18  2  0
 18 19  1  0
 19 20  1  0
  9 21  2  0
 21  2  1  0
 20 16  2  0
M  END
>  <Binding energies>  (7) 
[-8.44]

>  <Ligand effiencies>  (7) 
[-0.3836363636363636]

>  <Interactions>  (7) 
["V-B:HIS:456:CE1:9040, V-A:ARG:545:CZ:4924, V-B:ARG:545:CZ:9898, V-A:ASP:366:CG:3210, H-A:GLU:543:OE2:4908, H-A:GLU:543:OE1:4907, V-A:GLU:543:CD:4906, V-A:TYR:539:C:4865, H-B:ARG:545:NE:9896, V-A:ALA:541:CB:4890, V-A:PRO:540:CA:4881, V-B:ARG:545:CD:9895, V-A:TYR:539:CD1:4871, V-B:ARG:545:CG:9894, V-A:PRO:540:CB:4883, V-A:PRO:540:N:4882, V-A:LEU:363:CD1:3186, V-A:TYR:531:CE2:4791, H-B:TYR:484:OH:9319, H-B:GLY:454:N:9021, V-A:PRO:540:C:4879, H-A:TYR:539:N:4868, V-A:LEU:363:CA:3182, V-A:ASN:362:CB:3173, H-A:ALA:541:N:4889, V-A:ALA:541:C:4886"]

$$$$
2a_Ghoteimi_2023
     RDKit          3D

 48 53  0  0  0  0  0  0  0  0999 V2000
  131.9410  126.0650   57.4300 C   0  0  0  0  0  0  0  0  0  0  0  0
  130.8520  126.9000   58.1090 C   0  0  0  0  0  0  0  0  0  0  0  0
  129.6590  126.1330   58.2030 O   0  0  0  0  0  0  0  0  0  0  0  0
  128.5160  126.5350   57.5910 C   0  0  0  0  0  0  0  0  0  0  0  0
  128.2290  126.2430   56.4260 O   0  0  0  0  0  0  0  0  0  0  0  0
  127.6300  127.3650   58.4760 C   0  0  0  0  0  0  0  0  0  0  0  0
  126.9940  128.5260   58.0110 C   0  0  0  0  0  0  0  0  0  0  0  0
  126.1790  129.2720   58.8570 C   0  0  0  0  0  0  0  0  0  0  0  0
  125.9770  128.8730   60.1790 C   0  0  0  0  0  0  0  0  0  0  0  0
  125.1370  129.7040   60.9460 N   0  0  0  0  0  0  0  0  0  0  0  0
  124.9600  131.0420   60.8920 C   0  0  0  0  0  0  0  0  0  0  0  0
  125.5750  131.8090   60.1500 O   0  0  0  0  0  0  0  0  0  0  0  0
  123.9300  131.6040   61.8800 C   0  0  0  0  0  0  0  0  0  0  0  0
  123.7100  130.6060   63.3890 S   0  0  0  0  0  0  0  0  0  0  0  0
  125.3490  130.1520   63.9070 C   0  0  0  0  0  0  0  0  0  0  0  0
  126.2970  130.3480   62.9610 N   0  0  0  0  0  0  0  0  0  0  0  0
  127.5870  130.0300   63.2330 C   0  0  0  0  0  0  0  0  0  0  0  0
  128.5770  130.2640   62.1380 C   0  0  0  0  0  0  0  0  0  0  0  0
  128.7090  131.5210   61.5360 C   0  0  0  0  0  0  0  0  0  0  0  0
  129.6240  131.7310   60.5080 C   0  0  0  0  0  0  0  0  0  0  0  0
  130.4480  130.6930   60.0490 C   0  0  0  0  0  0  0  0  0  0  0  0
  131.3420  130.9110   58.9950 N   0  0  0  0  0  0  0  0  0  0  0  0
  132.7190  131.3860   59.2390 C   0  0  0  0  0  0  0  0  0  0  0  0
  133.6580  131.2230   58.0250 C   0  0  0  0  0  0  0  0  0  0  0  0
  133.0970  131.8560   56.8870 O   0  0  0  0  0  0  0  0  0  0  0  0
  131.8440  131.2870   56.5430 C   0  0  0  0  0  0  0  0  0  0  0  0
  130.8480  131.4500   57.7110 C   0  0  0  0  0  0  0  0  0  0  0  0
  130.3030  129.4310   60.6480 C   0  0  0  0  0  0  0  0  0  0  0  0
  129.3900  129.2230   61.6770 C   0  0  0  0  0  0  0  0  0  0  0  0
  127.9570  129.5170   64.4790 C   0  0  0  0  0  0  0  0  0  0  0  0
  126.9930  129.3060   65.4750 C   0  0  0  0  0  0  0  0  0  0  0  0
  127.4570  128.7480   66.7820 C   0  0  0  0  0  0  0  0  0  0  0  0
  128.6830  129.1480   67.3210 C   0  0  0  0  0  0  0  0  0  0  0  0
  129.1330  128.6200   68.5270 C   0  0  0  0  0  0  0  0  0  0  0  0
  128.3690  127.6780   69.2330 C   0  0  0  0  0  0  0  0  0  0  0  0
  128.8100  127.1220   70.4370 N   0  0  0  0  0  0  0  0  0  0  0  0
  127.8270  126.8120   71.4940 C   0  0  0  0  0  0  0  0  0  0  0  0
  128.3790  125.8640   72.5800 C   0  0  0  0  0  0  0  0  0  0  0  0
  129.5670  126.4030   73.1390 O   0  0  0  0  0  0  0  0  0  0  0  0
  130.5760  126.5780   72.1570 C   0  0  0  0  0  0  0  0  0  0  0  0
  130.0820  127.5410   71.0580 C   0  0  0  0  0  0  0  0  0  0  0  0
  127.1450  127.2740   68.6790 C   0  0  0  0  0  0  0  0  0  0  0  0
  126.6960  127.8010   67.4720 C   0  0  0  0  0  0  0  0  0  0  0  0
  125.6460  129.6360   65.1880 C   0  0  0  0  0  0  0  0  0  0  0  0
  124.6030  129.4910   66.2080 C   0  0  0  0  0  0  0  0  0  0  0  0
  123.7800  129.3730   67.0140 N   0  0  0  0  0  0  0  0  0  0  0  0
  126.6150  127.7180   60.6530 C   0  0  0  0  0  0  0  0  0  0  0  0
  127.4300  126.9720   59.8060 C   0  0  0  0  0  0  0  0  0  0  0  0
  1  2  1  0
  2  3  1  0
  3  4  1  0
  4  5  2  0
  4  6  1  0
  6  7  2  0
  7  8  1  0
  8  9  2  0
  9 10  1  0
 10 11  1  0
 11 12  2  0
 11 13  1  0
 13 14  1  0
 14 15  1  0
 15 16  2  0
 16 17  1  0
 17 18  1  0
 18 19  2  0
 19 20  1  0
 20 21  2  0
 21 22  1  0
 22 23  1  0
 23 24  1  0
 24 25  1  0
 25 26  1  0
 26 27  1  0
 21 28  1  0
 28 29  2  0
 17 30  2  0
 30 31  1  0
 31 32  1  0
 32 33  2  0
 33 34  1  0
 34 35  2  0
 35 36  1  0
 36 37  1  0
 37 38  1  0
 38 39  1  0
 39 40  1  0
 40 41  1  0
 35 42  1  0
 42 43  2  0
 31 44  2  0
 44 45  1  0
 45 46  3  0
  9 47  1  0
 47 48  2  0
 48  6  1  0
 44 15  1  0
 29 18  1  0
 43 32  1  0
 27 22  1  0
 41 36  1  0
M  END
>  <Binding energies>  (8) 
[-6.7]

>  <Ligand effiencies>  (8) 
[-0.13673469387755102]

>  <Interactions>  (8) 
["V-B:LYS:547:CE:9922, H-B:LYS:547:NZ:9923, V-B:HIS:456:CE1:9040, V-A:HIS:456:CD2:4065, V-A:HIS:456:CE1:4066, V-A:HIS:456:CG:4063, V-A:GLY:544:C:4910, V-B:GLU:543:CG:9879, V-B:ASP:366:CG:8184, V-B:GLU:543:CD:9880, H-B:ASP:366:OD1:8185, H-B:ASP:366:OD2:8186, V-B:ARG:545:CZ:9898, V-A:ASP:366:CG:3210, H-B:TYR:531:OH:9767, V-A:GLU:543:CD:4906, H-B:ARG:545:NE:9896, V-A:PRO:540:CA:4881, V-B:ARG:545:CD:9895, V-B:ILE:369:CD1:8210, V-B:ARG:545:CG:9894, V-A:PRO:540:CB:4883, V-A:LEU:363:CD1:3186, V-A:TYR:531:CE2:4791, V-A:TYR:531:CZ:4792, H-B:TYR:484:OH:9319, H-B:GLY:454:N:9021, H-A:TYR:531:OH:4793, V-A:GLU:543:CB:4904, V-A:ASP:366:CB:3209, V-B:GLY:544:CA:9886, V-B:GLU:543:C:9874, V-A:GLU:543:C:4900, V-B:GLY:544:C:9884, V-A:LEU:363:CA:3182, V-A:LEU:363:CB:3184, V-A:GLU:543:CG:4905, H-B:ILE:455:N:9026"]

$$$$
2aa_Ghoteimi_2023
     RDKit          3D

 48 53  0  0  0  0  0  0  0  0999 V2000
  133.9330  130.9000   57.4170 C   0  0  0  0  0  0  0  0  0  0  0  0
  132.4570  130.7910   57.8130 C   0  0  0  0  0  0  0  0  0  0  0  0
  132.0690  131.9670   58.5130 O   0  0  0  0  0  0  0  0  0  0  0  0
  130.8620  132.5490   58.2920 C   0  0  0  0  0  0  0  0  0  0  0  0
  130.5380  133.0560   57.2120 O   0  0  0  0  0  0  0  0  0  0  0  0
  129.9540  132.5030   59.4870 C   0  0  0  0  0  0  0  0  0  0  0  0
  128.5890  132.8130   59.3930 C   0  0  0  0  0  0  0  0  0  0  0  0
  127.7720  132.7580   60.5180 C   0  0  0  0  0  0  0  0  0  0  0  0
  128.3020  132.4000   61.7590 C   0  0  0  0  0  0  0  0  0  0  0  0
  127.3860  132.3730   62.8290 N   0  0  0  0  0  0  0  0  0  0  0  0
  126.1620  132.9340   62.9350 C   0  0  0  0  0  0  0  0  0  0  0  0
  125.5990  133.5780   62.0470 O   0  0  0  0  0  0  0  0  0  0  0  0
  125.4630  132.6930   64.2790 C   0  0  0  0  0  0  0  0  0  0  0  0
  125.0830  131.3170   64.3850 O   0  0  0  0  0  0  0  0  0  0  0  0
  126.0540  130.3240   64.3890 C   0  0  0  0  0  0  0  0  0  0  0  0
  126.4800  129.8510   65.5940 N   0  0  0  0  0  0  0  0  0  0  0  0
  127.4250  128.8790   65.6350 C   0  0  0  0  0  0  0  0  0  0  0  0
  127.8470  128.4120   66.9920 C   0  0  0  0  0  0  0  0  0  0  0  0
  129.1170  128.7200   67.4900 C   0  0  0  0  0  0  0  0  0  0  0  0
  129.5130  128.2940   68.7550 C   0  0  0  0  0  0  0  0  0  0  0  0
  128.6470  127.5550   69.5760 C   0  0  0  0  0  0  0  0  0  0  0  0
  129.0330  127.1080   70.8450 N   0  0  0  0  0  0  0  0  0  0  0  0
  130.2800  127.5800   71.4810 C   0  0  0  0  0  0  0  0  0  0  0  0
  130.7210  126.7320   72.6920 C   0  0  0  0  0  0  0  0  0  0  0  0
  129.6680  126.6510   73.6390 O   0  0  0  0  0  0  0  0  0  0  0  0
  128.5130  126.0430   73.0800 C   0  0  0  0  0  0  0  0  0  0  0  0
  128.0060  126.8710   71.8810 C   0  0  0  0  0  0  0  0  0  0  0  0
  127.3820  127.2310   69.0630 C   0  0  0  0  0  0  0  0  0  0  0  0
  126.9890  127.6550   67.7970 C   0  0  0  0  0  0  0  0  0  0  0  0
  127.9820  128.3640   64.4600 C   0  0  0  0  0  0  0  0  0  0  0  0
  127.5700  128.8400   63.2100 C   0  0  0  0  0  0  0  0  0  0  0  0
  128.2210  128.2700   61.9910 C   0  0  0  0  0  0  0  0  0  0  0  0
  127.7590  127.0720   61.4400 C   0  0  0  0  0  0  0  0  0  0  0  0
  128.3730  126.5250   60.3170 C   0  0  0  0  0  0  0  0  0  0  0  0
  129.4780  127.1520   59.7210 C   0  0  0  0  0  0  0  0  0  0  0  0
  130.1080  126.6230   58.5910 N   0  0  0  0  0  0  0  0  0  0  0  0
  131.5430  126.8490   58.3340 C   0  0  0  0  0  0  0  0  0  0  0  0
  132.1300  125.9120   57.2570 C   0  0  0  0  0  0  0  0  0  0  0  0
  131.3780  126.0200   56.0580 O   0  0  0  0  0  0  0  0  0  0  0  0
  130.0190  125.6630   56.2590 C   0  0  0  0  0  0  0  0  0  0  0  0
  129.3770  126.5930   57.3080 C   0  0  0  0  0  0  0  0  0  0  0  0
  129.9300  128.3570   60.2770 C   0  0  0  0  0  0  0  0  0  0  0  0
  129.3160  128.9050   61.3990 C   0  0  0  0  0  0  0  0  0  0  0  0
  126.5680  129.8380   63.1740 C   0  0  0  0  0  0  0  0  0  0  0  0
  126.0410  130.3600   61.9120 C   0  0  0  0  0  0  0  0  0  0  0  0
  125.6240  130.7710   60.9130 N   0  0  0  0  0  0  0  0  0  0  0  0
  129.6630  132.0820   61.8610 C   0  0  0  0  0  0  0  0  0  0  0  0
  130.4780  132.1350   60.7330 C   0  0  0  0  0  0  0  0  0  0  0  0
  1  2  1  0
  2  3  1  0
  3  4  1  0
  4  5  2  0
  4  6  1  0
  6  7  2  0
  7  8  1  0
  8  9  2  0
  9 10  1  0
 10 11  1  0
 11 12  2  0
 11 13  1  0
 13 14  1  0
 14 15  1  0
 15 16  2  0
 16 17  1  0
 17 18  1  0
 18 19  2  0
 19 20  1  0
 20 21  2  0
 21 22  1  0
 22 23  1  0
 23 24  1  0
 24 25  1  0
 25 26  1  0
 26 27  1  0
 21 28  1  0
 28 29  2  0
 17 30  2  0
 30 31  1  0
 31 32  1  0
 32 33  2  0
 33 34  1  0
 34 35  2  0
 35 36  1  0
 36 37  1  0
 37 38  1  0
 38 39  1  0
 39 40  1  0
 40 41  1  0
 35 42  1  0
 42 43  2  0
 31 44  2  0
 44 45  1  0
 45 46  3  0
  9 47  1  0
 47 48  2  0
 48  6  1  0
 44 15  1  0
 29 18  1  0
 43 32  1  0
 27 22  1  0
 41 36  1  0
M  END
>  <Binding energies>  (9) 
[-7.36]

>  <Ligand effiencies>  (9) 
[-0.15020408163265306]

>  <Interactions>  (9) 
["V-B:LYS:547:CE:9922, H-B:LYS:547:NZ:9923, V-B:HIS:456:CE1:9040, V-A:HIS:456:CD2:4065, H-A:LYS:547:NZ:4949, V-A:HIS:456:CE1:4066, V-A:HIS:456:CG:4063, V-A:GLY:544:C:4910, V-B:GLU:543:CG:9879, V-B:GLU:543:CD:9880, V-A:ASP:366:CG:3210, H-A:GLU:543:OE1:4907, V-A:GLU:543:CD:4906, V-A:TYR:539:CE1:4873, V-B:LEU:475:CD2:9230, V-A:TYR:539:C:4865, V-A:ALA:541:CB:4890, V-A:PRO:540:CA:4881, V-A:TYR:539:CD1:4871, V-B:ARG:545:CG:9894, V-A:PRO:540:CB:4883, V-A:PRO:540:N:4882, V-A:LEU:363:CD1:3186, V-A:TYR:539:CG:4870, V-A:TYR:531:CE2:4791, V-A:PRO:540:CD:4885, V-A:TYR:531:CZ:4792, H-B:TYR:484:OH:9319, V-B:MET:535:CE:9807, H-B:GLY:454:N:9021, H-A:TYR:531:OH:4793, V-A:GLU:543:CB:4904, V-A:ASP:366:CB:3209, H-B:TYR:539:OH:9850, V-A:PRO:540:C:4879, V-B:GLY:544:CA:9886, V-B:GLU:543:C:9874, V-A:GLU:543:C:4900, V-A:GLY:544:CA:4912, V-B:GLY:544:C:9884, H-A:TYR:539:N:4868, V-B:GLY:454:CA:9020, V-A:LEU:363:CA:3182, V-A:LEU:363:CB:3184, V-A:GLU:543:CG:4905"]

$$$$
2b_Ghoteimi_2023
     RDKit          3D

 42 47  0  0  0  0  0  0  0  0999 V2000
  134.5660  125.5700   66.2610 N   0  0  0  0  0  0  0  0  0  0  0  0
  133.6930  125.4130   65.5170 C   0  0  0  0  0  0  0  0  0  0  0  0
  132.5840  125.2170   64.5790 C   0  0  0  0  0  0  0  0  0  0  0  0
  131.2540  125.5240   64.9620 C   0  0  0  0  0  0  0  0  0  0  0  0
  130.8790  126.0560   66.3050 C   0  0  0  0  0  0  0  0  0  0  0  0
  131.7290  126.9380   66.9760 C   0  0  0  0  0  0  0  0  0  0  0  0
  131.3840  127.4360   68.2290 C   0  0  0  0  0  0  0  0  0  0  0  0
  130.1870  127.0520   68.8540 C   0  0  0  0  0  0  0  0  0  0  0  0
  129.8130  127.5480   70.1040 N   0  0  0  0  0  0  0  0  0  0  0  0
  128.5460  127.0920   70.7090 C   0  0  0  0  0  0  0  0  0  0  0  0
  128.0730  127.9800   71.8790 C   0  0  0  0  0  0  0  0  0  0  0  0
  129.0960  128.0870   72.8570 O   0  0  0  0  0  0  0  0  0  0  0  0
  130.2780  128.6610   72.3190 C   0  0  0  0  0  0  0  0  0  0  0  0
  130.8100  127.7840   71.1680 C   0  0  0  0  0  0  0  0  0  0  0  0
  129.3420  126.1640   68.1740 C   0  0  0  0  0  0  0  0  0  0  0  0
  129.6850  125.6680   66.9190 C   0  0  0  0  0  0  0  0  0  0  0  0
  130.2290  125.3250   64.0290 C   0  0  0  0  0  0  0  0  0  0  0  0
  130.5220  124.8640   62.7420 C   0  0  0  0  0  0  0  0  0  0  0  0
  129.4680  124.6640   61.7010 C   0  0  0  0  0  0  0  0  0  0  0  0
  129.3790  123.4570   60.9980 C   0  0  0  0  0  0  0  0  0  0  0  0
  128.3900  123.2570   60.0390 C   0  0  0  0  0  0  0  0  0  0  0  0
  127.4590  124.2630   59.7360 C   0  0  0  0  0  0  0  0  0  0  0  0
  126.4410  124.0660   58.7960 N   0  0  0  0  0  0  0  0  0  0  0  0
  126.7190  123.3110   57.5570 C   0  0  0  0  0  0  0  0  0  0  0  0
  125.6490  123.5060   56.4610 C   0  0  0  0  0  0  0  0  0  0  0  0
  124.3650  123.1870   56.9740 O   0  0  0  0  0  0  0  0  0  0  0  0
  124.0200  124.0230   58.0660 C   0  0  0  0  0  0  0  0  0  0  0  0
  125.0420  123.8480   59.2100 C   0  0  0  0  0  0  0  0  0  0  0  0
  127.5470  125.4690   60.4470 C   0  0  0  0  0  0  0  0  0  0  0  0
  128.5350  125.6660   61.4080 C   0  0  0  0  0  0  0  0  0  0  0  0
  131.7970  124.5730   62.3770 N   0  0  0  0  0  0  0  0  0  0  0  0
  132.8010  124.7260   63.2720 C   0  0  0  0  0  0  0  0  0  0  0  0
  134.4020  124.2930   62.6270 S   0  0  0  0  0  0  0  0  0  0  0  0
  134.1640  122.9510   61.4230 C   0  0  0  0  0  0  0  0  0  0  0  0
  133.2070  123.3500   60.2990 C   0  0  0  0  0  0  0  0  0  0  0  0
  132.2080  122.6600   60.0830 O   0  0  0  0  0  0  0  0  0  0  0  0
  133.5490  124.4590   59.6090 N   0  0  0  0  0  0  0  0  0  0  0  0
  132.8590  125.0430   58.5570 C   0  0  0  0  0  0  0  0  0  0  0  0
  131.6490  125.7170   58.7220 C   0  0  0  0  0  0  0  0  0  0  0  0
  131.3000  126.1390   57.4610 C   0  0  0  0  0  0  0  0  0  0  0  0
  132.2500  125.7410   56.5820 O   0  0  0  0  0  0  0  0  0  0  0  0
  133.2350  125.0480   57.2890 N   0  0  0  0  0  0  0  0  0  0  0  0
  1  2  3  0
  2  3  1  0
  3  4  2  0
  4  5  1  0
  5  6  2  0
  6  7  1  0
  7  8  2  0
  8  9  1  0
  9 10  1  0
 10 11  1  0
 11 12  1  0
 12 13  1  0
 13 14  1  0
  8 15  1  0
 15 16  2  0
  4 17  1  0
 17 18  2  0
 18 19  1  0
 19 20  2  0
 20 21  1  0
 21 22  2  0
 22 23  1  0
 23 24  1  0
 24 25  1  0
 25 26  1  0
 26 27  1  0
 27 28  1  0
 22 29  1  0
 29 30  2  0
 18 31  1  0
 31 32  2  0
 32 33  1  0
 33 34  1  0
 34 35  1  0
 35 36  2  0
 35 37  1  0
 37 38  1  0
 38 39  1  0
 39 40  2  0
 40 41  1  0
 41 42  1  0
 32  3  1  0
 42 38  2  0
 16  5  1  0
 30 19  1  0
 14  9  1  0
 28 23  1  0
M  END
>  <Binding energies>  (10) 
[-7.57]

>  <Ligand effiencies>  (10) 
[-0.176046511627907]

>  <Interactions>  (10) 
["V-B:HIS:456:CE1:9040, V-A:HIS:456:CD2:4065, V-A:LYS:547:CE:4948, H-A:LYS:547:NZ:4949, V-B:HIS:456:CD2:9039, V-B:HIS:456:CG:9037, V-A:HIS:456:CE1:4066, V-A:GLY:544:C:4910, V-B:GLU:543:CG:9879, H-A:TYR:484:OH:4345, V-A:GLY:454:CA:4046, V-B:ASP:366:CG:8184, V-B:GLU:543:CB:9878, V-B:TYR:539:CE1:9847, V-B:GLU:543:CD:9880, V-B:PRO:540:CB:9857, V-A:ARG:545:CZ:4924, V-B:PRO:540:CA:9855, H-A:ASP:366:OD1:3211, V-A:ASP:366:CG:3210, V-B:ASP:366:CB:8183, V-B:PRO:540:N:9856, V-A:GLU:543:CD:4906, V-A:ARG:545:CD:4921, V-A:ILE:369:CD1:3236, V-A:ARG:545:CG:4920, H-A:ARG:545:NE:4922, V-B:ILE:538:CG2:9835, V-A:ILE:369:CG2:3234, H-A:TYR:531:OH:4793, V-A:ASP:366:CB:3209, V-A:ASP:366:CA:3207, V-B:TYR:531:CE2:9765, H-B:TYR:539:OH:9850, V-B:LEU:363:CD1:8160, V-B:GLU:543:C:9874, V-A:GLU:543:C:4900, V-A:GLY:544:CA:4912, H-A:GLY:454:N:4047, V-A:GLU:543:CG:4905, H-A:ILE:455:N:4052, V-B:LEU:363:CA:8156"]

$$$$
2c_Ghoteimi_2023
     RDKit          3D

 42 47  0  0  0  0  0  0  0  0999 V2000
  134.6580  125.5180   66.1080 N   0  0  0  0  0  0  0  0  0  0  0  0
  133.7930  125.3450   65.3600 C   0  0  0  0  0  0  0  0  0  0  0  0
  132.6930  125.1290   64.4140 C   0  0  0  0  0  0  0  0  0  0  0  0
  131.3560  125.4190   64.7840 C   0  0  0  0  0  0  0  0  0  0  0  0
  130.9600  125.9490   66.1230 C   0  0  0  0  0  0  0  0  0  0  0  0
  131.7690  126.8810   66.7770 C   0  0  0  0  0  0  0  0  0  0  0  0
  131.4040  127.3840   68.0230 C   0  0  0  0  0  0  0  0  0  0  0  0
  130.2270  126.9570   68.6580 C   0  0  0  0  0  0  0  0  0  0  0  0
  129.8320  127.4630   69.8980 N   0  0  0  0  0  0  0  0  0  0  0  0
  128.5420  127.0350   70.4760 C   0  0  0  0  0  0  0  0  0  0  0  0
  128.0580  127.9420   71.6270 C   0  0  0  0  0  0  0  0  0  0  0  0
  129.0580  128.0310   72.6300 O   0  0  0  0  0  0  0  0  0  0  0  0
  130.2650  128.5770   72.1210 C   0  0  0  0  0  0  0  0  0  0  0  0
  130.8070  127.6870   70.9830 C   0  0  0  0  0  0  0  0  0  0  0  0
  129.4240  126.0180   67.9950 C   0  0  0  0  0  0  0  0  0  0  0  0
  129.7880  125.5180   66.7480 C   0  0  0  0  0  0  0  0  0  0  0  0
  130.3420  125.1980   63.8440 C   0  0  0  0  0  0  0  0  0  0  0  0
  130.6520  124.7280   62.5640 C   0  0  0  0  0  0  0  0  0  0  0  0
  129.6080  124.4930   61.5200 C   0  0  0  0  0  0  0  0  0  0  0  0
  128.3540  123.9790   61.8670 C   0  0  0  0  0  0  0  0  0  0  0  0
  127.3750  123.7630   60.8990 C   0  0  0  0  0  0  0  0  0  0  0  0
  127.6190  124.0440   59.5460 C   0  0  0  0  0  0  0  0  0  0  0  0
  126.6390  123.8560   58.5660 N   0  0  0  0  0  0  0  0  0  0  0  0
  126.8980  122.9460   57.4310 C   0  0  0  0  0  0  0  0  0  0  0  0
  125.9170  123.1300   56.2540 C   0  0  0  0  0  0  0  0  0  0  0  0
  124.5810  123.0000   56.7100 O   0  0  0  0  0  0  0  0  0  0  0  0
  124.2680  123.9780   57.6890 C   0  0  0  0  0  0  0  0  0  0  0  0
  125.2020  123.8250   58.9080 C   0  0  0  0  0  0  0  0  0  0  0  0
  128.8730  124.5710   59.2050 C   0  0  0  0  0  0  0  0  0  0  0  0
  129.8500  124.7880   60.1730 C   0  0  0  0  0  0  0  0  0  0  0  0
  131.9330  124.4530   62.2120 N   0  0  0  0  0  0  0  0  0  0  0  0
  132.9290  124.6280   63.1140 C   0  0  0  0  0  0  0  0  0  0  0  0
  134.5390  124.2090   62.4870 S   0  0  0  0  0  0  0  0  0  0  0  0
  134.3590  123.8520   60.7130 C   0  0  0  0  0  0  0  0  0  0  0  0
  133.4010  122.6870   60.4570 C   0  0  0  0  0  0  0  0  0  0  0  0
  132.3540  122.8900   59.8390 O   0  0  0  0  0  0  0  0  0  0  0  0
  133.7920  121.4920   60.9490 N   0  0  0  0  0  0  0  0  0  0  0  0
  133.1140  120.2870   60.8370 C   0  0  0  0  0  0  0  0  0  0  0  0
  133.6120  119.1040   60.5490 N   0  0  0  0  0  0  0  0  0  0  0  0
  132.6780  118.1750   60.5320 C   0  0  0  0  0  0  0  0  0  0  0  0
  131.3820  118.6010   60.8110 C   0  0  0  0  0  0  0  0  0  0  0  0
  131.4020  120.3130   61.1100 S   0  0  0  0  0  0  0  0  0  0  0  0
  1  2  3  0
  2  3  1  0
  3  4  2  0
  4  5  1  0
  5  6  2  0
  6  7  1  0
  7  8  2  0
  8  9  1  0
  9 10  1  0
 10 11  1  0
 11 12  1  0
 12 13  1  0
 13 14  1  0
  8 15  1  0
 15 16  2  0
  4 17  1  0
 17 18  2  0
 18 19  1  0
 19 20  2  0
 20 21  1  0
 21 22  2  0
 22 23  1  0
 23 24  1  0
 24 25  1  0
 25 26  1  0
 26 27  1  0
 27 28  1  0
 22 29  1  0
 29 30  2  0
 18 31  1  0
 31 32  2  0
 32 33  1  0
 33 34  1  0
 34 35  1  0
 35 36  2  0
 35 37  1  0
 37 38  1  0
 38 39  2  0
 39 40  1  0
 40 41  2  0
 41 42  1  0
 32  3  1  0
 42 38  1  0
 16  5  1  0
 30 19  1  0
 14  9  1  0
 28 23  1  0
M  END
>  <Binding energies>  (11) 
[-7.51]

>  <Ligand effiencies>  (11) 
[-0.17465116279069767]

>  <Interactions>  (11) 
["V-B:HIS:456:CE1:9040, V-A:HIS:456:CD2:4065, V-A:LYS:547:CE:4948, V-B:HIS:456:CD2:9039, V-B:HIS:456:CG:9037, V-A:HIS:456:CE1:4066, V-A:GLY:544:C:4910, V-B:GLU:543:CG:9879, V-A:LEU:475:CD2:4256, H-A:TYR:484:OH:4345, V-A:GLY:454:CA:4046, V-B:TYR:539:CD1:9845, V-B:TYR:539:C:9839, V-B:GLU:543:CB:9878, V-B:TYR:539:CE1:9847, V-B:GLU:543:CD:9880, V-B:PRO:540:CB:9857, V-A:ARG:545:CZ:4924, V-B:PRO:540:CA:9855, V-B:PRO:540:N:9856, V-A:GLU:543:CD:4906, V-A:ARG:545:CD:4921, V-A:GLY:453:CA:4041, V-A:ILE:369:CD1:3236, V-A:ARG:545:CG:4920, H-A:ARG:545:NE:4922, V-A:GLY:453:C:4039, V-B:ILE:538:CB:9834, V-B:ILE:538:CG2:9835, V-A:ILE:369:CG2:3234, V-A:ILE:369:CB:3233, V-A:LEU:373:CD1:3277, V-A:SER:385:CA:3404, V-A:SER:385:CB:3406, V-B:TYR:531:CE2:9765, V-B:LEU:363:CD1:8160, V-B:GLU:543:C:9874, V-A:GLU:543:C:4900, V-A:GLY:544:CA:4912, V-B:GLY:544:C:9884, H-A:GLY:454:N:4047, V-A:GLU:543:CG:4905, V-B:GLU:543:CA:9876, V-A:ILE:369:CG1:3235, H-A:SER:385:O:3403, H-A:ILE:455:N:4052, V-B:LEU:363:CA:8156"]

$$$$
2j_Grossjean_2025
     RDKit          3D

 23 24  0  0  0  0  0  0  0  0999 V2000
  129.4460  122.1090   61.2730 C   0  0  0  0  0  0  0  0  0  0  0  0
  129.7280  122.8910   60.0040 C   0  0  0  0  0  0  0  0  0  0  0  0
  128.7990  122.9610   58.9690 C   0  0  0  0  0  0  0  0  0  0  0  0
  129.1040  123.6990   57.8150 C   0  0  0  0  0  0  0  0  0  0  0  0
  128.0640  123.7670   56.6810 C   0  0  0  0  0  0  0  0  0  0  0  0
  127.0080  123.0110   56.9840 F   0  0  0  0  0  0  0  0  0  0  0  0
  127.6590  125.0260   56.5070 F   0  0  0  0  0  0  0  0  0  0  0  0
  128.5460  123.3360   55.5130 F   0  0  0  0  0  0  0  0  0  0  0  0
  130.3600  124.3520   57.7430 C   0  0  0  0  0  0  0  0  0  0  0  0
  130.7320  125.1370   56.5620 C   0  0  0  0  0  0  0  0  0  0  0  0
  131.0250  125.7570   55.6300 N   0  0  0  0  0  0  0  0  0  0  0  0
  131.2440  124.2270   58.8410 C   0  0  0  0  0  0  0  0  0  0  0  0
  132.8510  125.0080   58.8600 S   0  0  0  0  0  0  0  0  0  0  0  0
  133.9770  123.9830   59.8680 C   0  0  0  0  0  0  0  0  0  0  0  0
  133.5680  123.8330   61.3410 C   0  0  0  0  0  0  0  0  0  0  0  0
  133.5300  122.7210   61.8730 O   0  0  0  0  0  0  0  0  0  0  0  0
  133.2560  124.9910   61.9630 N   0  0  0  0  0  0  0  0  0  0  0  0
  132.8590  125.1420   63.2850 C   0  0  0  0  0  0  0  0  0  0  0  0
  133.6230  125.2640   64.3490 N   0  0  0  0  0  0  0  0  0  0  0  0
  132.9080  125.3920   65.4490 C   0  0  0  0  0  0  0  0  0  0  0  0
  131.5250  125.3740   65.2900 C   0  0  0  0  0  0  0  0  0  0  0  0
  131.1540  125.1790   63.6020 S   0  0  0  0  0  0  0  0  0  0  0  0
  130.9290  123.5100   59.9500 N   0  0  0  0  0  0  0  0  0  0  0  0
  1  2  1  0
  2  3  2  0
  3  4  1  0
  4  5  1  0
  5  6  1  0
  5  7  1  0
  5  8  1  0
  4  9  2  0
  9 10  1  0
 10 11  3  0
  9 12  1  0
 12 13  1  0
 13 14  1  0
 14 15  1  0
 15 16  2  0
 15 17  1  0
 17 18  1  0
 18 19  2  0
 19 20  1  0
 20 21  2  0
 21 22  1  0
 12 23  2  0
 23  2  1  0
 22 18  1  0
M  END
>  <Binding energies>  (12) 
[-6.59]

>  <Ligand effiencies>  (12) 
[-0.27458333333333335]

>  <Interactions>  (12) 
["H-A:TYR:484:OH:4345, V-B:TYR:539:CD1:9845, V-B:TYR:539:C:9839, V-B:TYR:539:CE1:9847, V-A:ARG:545:CZ:4924, V-B:ALA:541:CB:9864, H-A:ASP:366:OD2:3212, H-A:ASP:366:OD1:3211, V-A:ASP:366:CG:3210, V-B:PRO:540:N:9856, V-A:ARG:545:CD:4921, H-A:ARG:545:NH2:4926, V-A:ILE:369:CD1:3236, V-A:ARG:545:CG:4920, H-A:ARG:545:NE:4922, V-B:TYR:539:CE2:9848, V-B:TYR:539:CZ:9849, V-B:MET:535:CE:9807, V-A:ILE:369:CG2:3234, V-A:ILE:369:CB:3233, H-A:TYR:531:OH:4793, H-A:ASN:370:ND2:3245, H-B:TYR:539:OH:9850, H-A:GLY:454:N:4047, H-A:ARG:545:NH1:4925"]

$$$$
3ab_Grossjean_2025
     RDKit          3D

 33 35  0  0  0  0  0  0  0  0999 V2000
  131.1380  125.1280   65.2670 C   0  0  0  0  0  0  0  0  0  0  0  0
  131.9560  125.9400   64.4360 O   0  0  0  0  0  0  0  0  0  0  0  0
  132.8490  125.3840   63.5780 C   0  0  0  0  0  0  0  0  0  0  0  0
  133.9720  125.0000   63.9190 O   0  0  0  0  0  0  0  0  0  0  0  0
  132.3350  125.2790   62.1710 C   0  0  0  0  0  0  0  0  0  0  0  0
  132.9420  124.4460   61.2180 C   0  0  0  0  0  0  0  0  0  0  0  0
  132.4430  124.3680   59.9210 C   0  0  0  0  0  0  0  0  0  0  0  0
  131.3210  125.1270   59.5520 C   0  0  0  0  0  0  0  0  0  0  0  0
  130.7290  125.1220   58.2740 N   0  0  0  0  0  0  0  0  0  0  0  0
  131.3040  125.1450   57.0530 C   0  0  0  0  0  0  0  0  0  0  0  0
  132.5140  125.1920   56.8330 O   0  0  0  0  0  0  0  0  0  0  0  0
  130.3330  125.1130   55.8710 C   0  0  0  0  0  0  0  0  0  0  0  0
  129.4650  123.5210   55.7410 S   0  0  0  0  0  0  0  0  0  0  0  0
  128.3850  123.3850   57.1490 C   0  0  0  0  0  0  0  0  0  0  0  0
  129.0330  123.0970   58.3030 N   0  0  0  0  0  0  0  0  0  0  0  0
  128.3310  122.9700   59.4590 C   0  0  0  0  0  0  0  0  0  0  0  0
  129.1230  122.6530   60.6930 C   0  0  0  0  0  0  0  0  0  0  0  0
  128.9400  123.3900   61.8740 C   0  0  0  0  0  0  0  0  0  0  0  0
  129.6720  123.1000   63.0220 C   0  0  0  0  0  0  0  0  0  0  0  0
  130.6020  122.0660   63.0050 C   0  0  0  0  0  0  0  0  0  0  0  0
  130.8070  121.3230   61.8470 C   0  0  0  0  0  0  0  0  0  0  0  0
  130.0730  121.6170   60.7010 C   0  0  0  0  0  0  0  0  0  0  0  0
  126.9390  123.1110   59.4710 C   0  0  0  0  0  0  0  0  0  0  0  0
  126.2430  123.3900   58.2860 C   0  0  0  0  0  0  0  0  0  0  0  0
  124.7100  123.5330   58.3410 C   0  0  0  0  0  0  0  0  0  0  0  0
  124.2770  124.6750   57.8040 F   0  0  0  0  0  0  0  0  0  0  0  0
  124.1300  122.5340   57.6740 F   0  0  0  0  0  0  0  0  0  0  0  0
  124.2960  123.5030   59.6090 F   0  0  0  0  0  0  0  0  0  0  0  0
  126.9800  123.5250   57.0830 C   0  0  0  0  0  0  0  0  0  0  0  0
  126.2970  123.7590   55.8080 C   0  0  0  0  0  0  0  0  0  0  0  0
  125.7550  123.9450   54.8020 N   0  0  0  0  0  0  0  0  0  0  0  0
  130.7120  125.9520   60.4990 C   0  0  0  0  0  0  0  0  0  0  0  0
  131.2140  126.0300   61.7940 C   0  0  0  0  0  0  0  0  0  0  0  0
  1  2  1  0
  2  3  1  0
  3  4  2  0
  3  5  1  0
  5  6  2  0
  6  7  1  0
  7  8  2  0
  8  9  1  0
  9 10  1  0
 10 11  2  0
 10 12  1  0
 12 13  1  0
 13 14  1  0
 14 15  2  0
 15 16  1  0
 16 17  1  0
 17 18  2  0
 18 19  1  0
 19 20  2  0
 20 21  1  0
 21 22  2  0
 16 23  2  0
 23 24  1  0
 24 25  1  0
 25 26  1  0
 25 27  1  0
 25 28  1  0
 24 29  2  0
 29 30  1  0
 30 31  3  0
  8 32  1  0
 32 33  2  0
 33  5  1  0
 29 14  1  0
 22 17  1  0
M  END
>  <Binding energies>  (13) 
[-7.43]

>  <Ligand effiencies>  (13) 
[-0.21852941176470586]

>  <Interactions>  (13) 
["V-A:LEU:475:CD2:4256, V-B:TYR:539:CD1:9845, V-B:TYR:539:C:9839, V-B:ASP:366:CG:8184, V-B:TYR:539:CE1:9847, V-B:GLU:543:CD:9880, V-B:PRO:540:CB:9857, V-A:ARG:545:CZ:4924, V-B:PRO:540:CA:9855, V-B:ALA:541:CB:9864, V-B:ASP:366:CB:8183, V-B:PRO:540:N:9856, H-B:TYR:531:OH:9767, H-A:ARG:545:NH2:4926, H-A:ARG:545:NE:4922, V-B:PRO:540:CD:9859, V-B:TYR:539:CZ:9849, V-B:ILE:538:CG2:9835, V-B:MET:535:CE:9807, H-A:TYR:531:OH:4793, V-B:TYR:531:CZ:9766, V-B:TYR:531:CE2:9765, H-B:TYR:539:OH:9850, V-B:PRO:540:CG:9858, V-B:LEU:363:CD1:8160, H-A:GLY:454:N:4047, H-A:ARG:545:NH1:4925, V-B:LEU:363:CA:8156, V-B:LEU:363:CB:8158, V-B:LEU:363:CG:8159"]

$$$$
3ac_Grossjean_2025
     RDKit          3D

 31 33  0  0  0  0  0  0  0  0999 V2000
  132.7980  125.0420   64.5190 C   0  0  0  0  0  0  0  0  0  0  0  0
  133.6240  124.9230   63.3650 O   0  0  0  0  0  0  0  0  0  0  0  0
  133.0350  124.8680   62.1160 C   0  0  0  0  0  0  0  0  0  0  0  0
  131.9770  125.7470   61.8880 C   0  0  0  0  0  0  0  0  0  0  0  0
  131.3250  125.7670   60.6590 C   0  0  0  0  0  0  0  0  0  0  0  0
  131.7180  124.8980   59.6390 C   0  0  0  0  0  0  0  0  0  0  0  0
  131.0130  125.0060   58.4260 N   0  0  0  0  0  0  0  0  0  0  0  0
  131.4890  125.2320   57.1820 C   0  0  0  0  0  0  0  0  0  0  0  0
  132.6790  125.3440   56.8850 O   0  0  0  0  0  0  0  0  0  0  0  0
  130.4320  125.3470   56.0830 C   0  0  0  0  0  0  0  0  0  0  0  0
  129.5090  123.7970   55.8500 S   0  0  0  0  0  0  0  0  0  0  0  0
  128.4090  123.5720   57.2340 C   0  0  0  0  0  0  0  0  0  0  0  0
  129.0540  123.2550   58.3830 N   0  0  0  0  0  0  0  0  0  0  0  0
  128.3460  123.0590   59.5250 C   0  0  0  0  0  0  0  0  0  0  0  0
  129.1350  122.7040   60.7500 C   0  0  0  0  0  0  0  0  0  0  0  0
  129.9250  121.5430   60.7840 C   0  0  0  0  0  0  0  0  0  0  0  0
  130.6650  121.2110   61.9150 C   0  0  0  0  0  0  0  0  0  0  0  0
  130.6230  122.0370   63.0340 C   0  0  0  0  0  0  0  0  0  0  0  0
  129.8450  123.1890   63.0290 C   0  0  0  0  0  0  0  0  0  0  0  0
  129.1070  123.5180   61.8950 C   0  0  0  0  0  0  0  0  0  0  0  0
  126.9520  123.1640   59.5300 C   0  0  0  0  0  0  0  0  0  0  0  0
  126.2580  123.4690   58.3510 C   0  0  0  0  0  0  0  0  0  0  0  0
  124.7200  123.5700   58.4000 C   0  0  0  0  0  0  0  0  0  0  0  0
  124.2580  124.7050   57.8730 F   0  0  0  0  0  0  0  0  0  0  0  0
  124.1700  122.5630   57.7190 F   0  0  0  0  0  0  0  0  0  0  0  0
  124.3040  123.5130   59.6660 F   0  0  0  0  0  0  0  0  0  0  0  0
  127.0000  123.6670   57.1590 C   0  0  0  0  0  0  0  0  0  0  0  0
  126.3150  123.9120   55.8890 C   0  0  0  0  0  0  0  0  0  0  0  0
  125.7720  124.1040   54.8840 N   0  0  0  0  0  0  0  0  0  0  0  0
  132.7870  124.0160   59.8590 C   0  0  0  0  0  0  0  0  0  0  0  0
  133.4370  123.9990   61.0900 C   0  0  0  0  0  0  0  0  0  0  0  0
  1  2  1  0
  2  3  1  0
  3  4  2  0
  4  5  1  0
  5  6  2  0
  6  7  1  0
  7  8  1  0
  8  9  2  0
  8 10  1  0
 10 11  1  0
 11 12  1  0
 12 13  2  0
 13 14  1  0
 14 15  1  0
 15 16  2  0
 16 17  1  0
 17 18  2  0
 18 19  1  0
 19 20  2  0
 14 21  2  0
 21 22  1  0
 22 23  1  0
 23 24  1  0
 23 25  1  0
 23 26  1  0
 22 27  2  0
 27 28  1  0
 28 29  3  0
  6 30  1  0
 30 31  2  0
 31  3  1  0
 27 12  1  0
 20 15  1  0
M  END
>  <Binding energies>  (14) 
[-7.34]

>  <Ligand effiencies>  (14) 
[-0.229375]

>  <Interactions>  (14) 
["V-A:LEU:475:CD2:4256, V-B:TYR:539:CD1:9845, V-B:TYR:539:C:9839, V-B:ASP:366:CG:8184, V-B:TYR:539:CE1:9847, V-B:PRO:540:CB:9857, V-A:ARG:545:CZ:4924, V-B:PRO:540:CA:9855, V-B:ALA:541:CB:9864, V-A:ASP:366:CG:3210, V-B:ASP:366:CB:8183, V-B:PRO:540:N:9856, H-B:TYR:531:OH:9767, H-A:ARG:545:NH2:4926, V-A:ILE:369:CD1:3236, V-B:PRO:540:CD:9859, V-B:TYR:539:CZ:9849, V-B:ILE:538:CG2:9835, V-B:MET:535:CE:9807, H-A:TYR:531:OH:4793, V-B:TYR:531:CZ:9766, V-B:TYR:531:CE2:9765, H-B:TYR:539:OH:9850, V-B:PRO:540:CG:9858, V-B:LEU:363:CD1:8160, H-A:GLY:454:N:4047, V-B:LEU:363:CA:8156, V-B:LEU:363:CB:8158"]

$$$$
3af_Grossjean_2025
     RDKit          3D

 29 31  0  0  0  0  0  0  0  0999 V2000
  134.0480  123.7000   59.4630 N   0  0  0  0  0  0  0  0  0  0  0  0
  132.9200  123.6550   59.7170 C   0  0  0  0  0  0  0  0  0  0  0  0
  131.4920  123.5980   60.0400 C   0  0  0  0  0  0  0  0  0  0  0  0
  130.9430  122.4650   60.6880 C   0  0  0  0  0  0  0  0  0  0  0  0
  131.8000  121.2640   61.1330 C   0  0  0  0  0  0  0  0  0  0  0  0
  132.6730  120.8760   60.2010 F   0  0  0  0  0  0  0  0  0  0  0  0
  132.4930  121.5810   62.2270 F   0  0  0  0  0  0  0  0  0  0  0  0
  131.0180  120.2180   61.4040 F   0  0  0  0  0  0  0  0  0  0  0  0
  129.5600  122.4330   60.9260 C   0  0  0  0  0  0  0  0  0  0  0  0
  128.7490  123.5000   60.5270 C   0  0  0  0  0  0  0  0  0  0  0  0
  127.2650  123.5100   60.7400 C   0  0  0  0  0  0  0  0  0  0  0  0
  126.3830  123.5160   59.6470 C   0  0  0  0  0  0  0  0  0  0  0  0
  125.0040  123.5220   59.8380 C   0  0  0  0  0  0  0  0  0  0  0  0
  124.4870  123.5220   61.1290 C   0  0  0  0  0  0  0  0  0  0  0  0
  125.3380  123.5130   62.2290 C   0  0  0  0  0  0  0  0  0  0  0  0
  126.7170  123.5060   62.0340 C   0  0  0  0  0  0  0  0  0  0  0  0
  129.2790  124.5830   59.9030 N   0  0  0  0  0  0  0  0  0  0  0  0
  130.6140  124.6470   59.6820 C   0  0  0  0  0  0  0  0  0  0  0  0
  131.1240  126.1470   58.8670 S   0  0  0  0  0  0  0  0  0  0  0  0
  131.4520  125.7560   57.1220 C   0  0  0  0  0  0  0  0  0  0  0  0
  130.3600  124.8700   56.5230 C   0  0  0  0  0  0  0  0  0  0  0  0
  130.6040  124.2240   55.5040 O   0  0  0  0  0  0  0  0  0  0  0  0
  129.1800  124.8810   57.1810 N   0  0  0  0  0  0  0  0  0  0  0  0
  127.9840  124.1940   56.8930 C   0  0  0  0  0  0  0  0  0  0  0  0
  126.7420  124.7910   56.6120 C   0  0  0  0  0  0  0  0  0  0  0  0
  125.6330  123.9860   56.3450 C   0  0  0  0  0  0  0  0  0  0  0  0
  125.7930  122.6000   56.3650 C   0  0  0  0  0  0  0  0  0  0  0  0
  126.9800  122.0000   56.6310 N   0  0  0  0  0  0  0  0  0  0  0  0
  128.0480  122.7970   56.8890 C   0  0  0  0  0  0  0  0  0  0  0  0
  1  2  3  0
  2  3  1  0
  3  4  2  0
  4  5  1  0
  5  6  1  0
  5  7  1  0
  5  8  1  0
  4  9  1  0
  9 10  2  0
 10 11  1  0
 11 12  2  0
 12 13  1  0
 13 14  2  0
 14 15  1  0
 15 16  2  0
 10 17  1  0
 17 18  2  0
 18 19  1  0
 19 20  1  0
 20 21  1  0
 21 22  2  0
 21 23  1  0
 23 24  1  0
 24 25  2  0
 25 26  1  0
 26 27  2  0
 27 28  1  0
 28 29  2  0
 18  3  1  0
 29 24  1  0
 16 11  1  0
M  END
>  <Binding energies>  (15) 
[-7.31]

>  <Ligand effiencies>  (15) 
[-0.24366666666666664]

>  <Interactions>  (15) 
["V-A:LEU:475:CD2:4256, V-B:TYR:539:CD1:9845, V-B:TYR:539:C:9839, V-B:PRO:540:C:9853, V-B:TYR:539:CE1:9847, V-B:GLU:543:CD:9880, V-B:PRO:540:CB:9857, V-B:PRO:540:CA:9855, V-B:ALA:541:CB:9864, V-B:ASN:362:CB:8147, V-B:PRO:540:N:9856, V-B:TYR:539:CG:9844, V-B:ILE:538:CB:9834, H-B:TYR:539:N:9842, V-B:PRO:540:CD:9859, V-B:TYR:539:CZ:9849, V-B:ILE:538:CG2:9835, V-B:ILE:538:CA:9832, V-B:MET:535:CE:9807, V-A:ILE:369:CG2:3234, V-B:TYR:531:CZ:9766, H-A:ASN:370:ND2:3245, V-B:TYR:531:CE2:9765, H-B:TYR:539:OH:9850, V-B:ASN:362:C:8143"]

$$$$
3ag_Grossjean_2025
     RDKit          3D

 30 32  0  0  0  0  0  0  0  0999 V2000
  127.6100  127.4470   57.0460 N   0  0  0  0  0  0  0  0  0  0  0  0
  128.4070  126.8470   57.6330 C   0  0  0  0  0  0  0  0  0  0  0  0
  129.4170  126.0860   58.3730 C   0  0  0  0  0  0  0  0  0  0  0  0
  130.4720  125.4300   57.6920 C   0  0  0  0  0  0  0  0  0  0  0  0
  130.6580  125.5190   56.1650 C   0  0  0  0  0  0  0  0  0  0  0  0
  130.2200  126.6720   55.6560 F   0  0  0  0  0  0  0  0  0  0  0  0
  131.9510  125.4100   55.8590 F   0  0  0  0  0  0  0  0  0  0  0  0
  129.9860  124.5370   55.5620 F   0  0  0  0  0  0  0  0  0  0  0  0
  131.3830  124.6700   58.4400 C   0  0  0  0  0  0  0  0  0  0  0  0
  131.2390  124.5570   59.8270 C   0  0  0  0  0  0  0  0  0  0  0  0
  132.1810  123.7570   60.6750 C   0  0  0  0  0  0  0  0  0  0  0  0
  132.0650  122.3610   60.7530 C   0  0  0  0  0  0  0  0  0  0  0  0
  132.9370  121.6110   61.5380 C   0  0  0  0  0  0  0  0  0  0  0  0
  133.9400  122.2510   62.2590 C   0  0  0  0  0  0  0  0  0  0  0  0
  134.0760  123.6340   62.2000 C   0  0  0  0  0  0  0  0  0  0  0  0
  133.2020  124.3800   61.4150 C   0  0  0  0  0  0  0  0  0  0  0  0
  130.2350  125.1980   60.4790 N   0  0  0  0  0  0  0  0  0  0  0  0
  129.3540  125.9540   59.7780 C   0  0  0  0  0  0  0  0  0  0  0  0
  128.1100  126.7200   60.7940 S   0  0  0  0  0  0  0  0  0  0  0  0
  127.4210  125.4290   61.8730 C   0  0  0  0  0  0  0  0  0  0  0  0
  126.9050  124.2270   61.0790 C   0  0  0  0  0  0  0  0  0  0  0  0
  127.2080  123.0840   61.4280 O   0  0  0  0  0  0  0  0  0  0  0  0
  126.1240  124.5010   60.0200 N   0  0  0  0  0  0  0  0  0  0  0  0
  125.4970  123.5090   59.1480 C   0  0  0  0  0  0  0  0  0  0  0  0
  126.2930  123.2000   57.8840 C   0  0  0  0  0  0  0  0  0  0  0  0
  125.7200  123.4250   56.6300 C   0  0  0  0  0  0  0  0  0  0  0  0
  126.4540  123.1720   55.4740 C   0  0  0  0  0  0  0  0  0  0  0  0
  127.7620  122.7040   55.5760 C   0  0  0  0  0  0  0  0  0  0  0  0
  128.3450  122.4910   56.8240 C   0  0  0  0  0  0  0  0  0  0  0  0
  127.6120  122.7450   57.9800 C   0  0  0  0  0  0  0  0  0  0  0  0
  1  2  3  0
  2  3  1  0
  3  4  2  0
  4  5  1  0
  5  6  1  0
  5  7  1  0
  5  8  1  0
  4  9  1  0
  9 10  2  0
 10 11  1  0
 11 12  2  0
 12 13  1  0
 13 14  2  0
 14 15  1  0
 15 16  2  0
 10 17  1  0
 17 18  2  0
 18 19  1  0
 19 20  1  0
 20 21  1  0
 21 22  2  0
 21 23  1  0
 23 24  1  0
 24 25  1  0
 25 26  2  0
 26 27  1  0
 27 28  2  0
 28 29  1  0
 29 30  2  0
 18  3  1  0
 30 25  1  0
 16 11  1  0
M  END
>  <Binding energies>  (16) 
[-7.31]

>  <Ligand effiencies>  (16) 
[-0.2358064516129032]

>  <Interactions>  (16) 
["V-A:LEU:475:CD2:4256, V-A:GLY:454:CA:4046, V-B:TYR:539:CD1:9845, V-B:TYR:539:C:9839, V-B:TYR:539:CE1:9847, V-B:GLU:543:CD:9880, V-B:PRO:540:CB:9857, V-B:PRO:540:CA:9855, H-B:ASP:366:OD2:8186, V-B:PRO:540:N:9856, H-B:TYR:531:OH:9767, V-A:GLY:453:CA:4041, V-A:ILE:369:CD1:3236, V-A:GLY:453:C:4039, V-B:TYR:539:CE2:9848, V-B:TYR:539:CG:9844, V-B:ILE:538:CB:9834, V-B:TYR:539:CD2:9846, V-B:TYR:539:CZ:9849, V-B:TYR:539:CA:9841, V-B:ILE:538:CG2:9835, V-A:TYR:531:CZ:4792, V-B:ILE:538:CA:9832, V-B:MET:535:CE:9807, H-B:ALA:541:N:9863, V-A:ASN:370:CG:3243, V-A:ASN:370:CB:3242, V-A:TYR:531:CE1:4790, V-B:ILE:538:C:9830"]

$$$$
3bc_Grossjean_2025
     RDKit          3D

 28 30  0  0  0  0  0  0  0  0999 V2000
  127.1990  129.0420   74.6440 C   0  0  0  0  0  0  0  0  0  0  0  0
  128.4790  128.4900   74.3540 O   0  0  0  0  0  0  0  0  0  0  0  0
  128.7580  128.0800   73.0630 C   0  0  0  0  0  0  0  0  0  0  0  0
  127.6700  127.6740   72.2910 C   0  0  0  0  0  0  0  0  0  0  0  0
  127.8520  127.2440   70.9790 C   0  0  0  0  0  0  0  0  0  0  0  0
  129.1320  127.2070   70.4230 C   0  0  0  0  0  0  0  0  0  0  0  0
  129.2170  126.7700   69.0880 N   0  0  0  0  0  0  0  0  0  0  0  0
  130.0390  127.1920   68.1040 C   0  0  0  0  0  0  0  0  0  0  0  0
  130.9170  128.0460   68.2410 O   0  0  0  0  0  0  0  0  0  0  0  0
  129.8380  126.4890   66.7540 C   0  0  0  0  0  0  0  0  0  0  0  0
  130.6910  124.8860   66.5800 S   0  0  0  0  0  0  0  0  0  0  0  0
  131.2680  124.7560   64.9020 C   0  0  0  0  0  0  0  0  0  0  0  0
  130.2760  124.5640   63.9980 N   0  0  0  0  0  0  0  0  0  0  0  0
  130.5770  124.4500   62.6780 C   0  0  0  0  0  0  0  0  0  0  0  0
  129.4250  124.2170   61.7450 C   0  0  0  0  0  0  0  0  0  0  0  0
  128.5010  125.2390   61.4790 C   0  0  0  0  0  0  0  0  0  0  0  0
  127.4290  125.0300   60.6140 C   0  0  0  0  0  0  0  0  0  0  0  0
  127.2670  123.7910   60.0040 C   0  0  0  0  0  0  0  0  0  0  0  0
  128.1670  122.7600   60.2530 C   0  0  0  0  0  0  0  0  0  0  0  0
  129.2370  122.9730   61.1190 C   0  0  0  0  0  0  0  0  0  0  0  0
  131.9010  124.5270   62.2330 C   0  0  0  0  0  0  0  0  0  0  0  0
  132.9340  124.7490   63.1500 C   0  0  0  0  0  0  0  0  0  0  0  0
  134.3620  124.8440   62.6180 C   0  0  0  0  0  0  0  0  0  0  0  0
  132.6240  124.8790   64.5220 C   0  0  0  0  0  0  0  0  0  0  0  0
  133.6820  125.1600   65.4930 C   0  0  0  0  0  0  0  0  0  0  0  0
  134.5210  125.3810   66.2590 N   0  0  0  0  0  0  0  0  0  0  0  0
  130.2310  127.6260   71.1890 C   0  0  0  0  0  0  0  0  0  0  0  0
  130.0440  128.0560   72.5010 C   0  0  0  0  0  0  0  0  0  0  0  0
  1  2  1  0
  2  3  1  0
  3  4  2  0
  4  5  1  0
  5  6  2  0
  6  7  1  0
  7  8  1  0
  8  9  2  0
  8 10  1  0
 10 11  1  0
 11 12  1  0
 12 13  2  0
 13 14  1  0
 14 15  1  0
 15 16  2  0
 16 17  1  0
 17 18  2  0
 18 19  1  0
 19 20  2  0
 14 21  2  0
 21 22  1  0
 22 23  1  0
 22 24  2  0
 24 25  1  0
 25 26  3  0
  6 27  1  0
 27 28  2  0
 28  3  1  0
 24 12  1  0
 20 15  1  0
M  END
>  <Binding energies>  (17) 
[-8.12]

>  <Ligand effiencies>  (17) 
[-0.27999999999999997]

>  <Interactions>  (17) 
["H-B:LYS:547:NZ:9923, V-B:HIS:456:CE1:9040, V-A:LYS:547:CE:4948, H-A:LYS:547:NZ:4949, V-B:HIS:456:CD2:9039, V-B:HIS:456:CG:9037, V-A:HIS:456:CE1:4066, V-B:HIS:456:CB:9036, V-A:GLY:544:C:4910, V-B:GLU:543:CG:9879, H-A:TYR:484:OH:4345, V-A:GLY:454:CA:4046, V-B:TYR:539:C:9839, V-B:GLU:543:CB:9878, V-B:GLU:543:CD:9880, V-A:ARG:545:CZ:4924, V-B:PRO:540:CA:9855, V-A:GLU:543:CD:4906, V-A:ARG:545:CD:4921, V-A:GLY:453:CA:4041, V-A:ILE:369:CD1:3236, V-A:ARG:545:CG:4920, H-A:ARG:545:NE:4922, V-A:GLY:453:C:4039, V-B:GLY:544:CA:9886, V-B:GLU:543:C:9874, H-A:HIS:456:NE2:4067, V-A:GLY:544:CA:4912, H-B:GLU:543:O:9875, V-B:GLY:544:C:9884, H-A:GLY:454:N:4047, V-A:GLU:543:CG:4905, H-A:ILE:455:N:4052"]

$$$$
3bd_Grossjean_2025
     RDKit          3D

 26 28  0  0  0  0  0  0  0  0999 V2000
  128.0900  122.9940   61.3730 C   0  0  0  0  0  0  0  0  0  0  0  0
  129.5580  122.5770   61.4330 C   0  0  0  0  0  0  0  0  0  0  0  0
  129.8810  121.2490   61.1330 C   0  0  0  0  0  0  0  0  0  0  0  0
  131.2150  120.8260   61.1810 C   0  0  0  0  0  0  0  0  0  0  0  0
  131.6300  119.4190   60.8670 C   0  0  0  0  0  0  0  0  0  0  0  0
  132.9830  119.0970   60.6710 C   0  0  0  0  0  0  0  0  0  0  0  0
  133.3750  117.7930   60.3780 C   0  0  0  0  0  0  0  0  0  0  0  0
  132.4160  116.7900   60.2760 C   0  0  0  0  0  0  0  0  0  0  0  0
  131.0690  117.0830   60.4630 C   0  0  0  0  0  0  0  0  0  0  0  0
  130.6810  118.3880   60.7550 C   0  0  0  0  0  0  0  0  0  0  0  0
  132.2090  121.6940   61.5020 N   0  0  0  0  0  0  0  0  0  0  0  0
  131.9140  122.9860   61.7960 C   0  0  0  0  0  0  0  0  0  0  0  0
  133.3070  124.0220   62.2130 S   0  0  0  0  0  0  0  0  0  0  0  0
  134.3520  124.1830   60.7340 C   0  0  0  0  0  0  0  0  0  0  0  0
  133.5340  124.1090   59.4440 C   0  0  0  0  0  0  0  0  0  0  0  0
  133.9970  123.5040   58.4760 O   0  0  0  0  0  0  0  0  0  0  0  0
  132.3420  124.7440   59.4690 N   0  0  0  0  0  0  0  0  0  0  0  0
  131.3640  124.8310   58.4600 C   0  0  0  0  0  0  0  0  0  0  0  0
  131.7240  125.5490   57.3160 C   0  0  0  0  0  0  0  0  0  0  0  0
  130.8190  125.6960   56.2680 C   0  0  0  0  0  0  0  0  0  0  0  0
  129.5490  125.1350   56.3680 C   0  0  0  0  0  0  0  0  0  0  0  0
  129.1740  124.4300   57.5090 C   0  0  0  0  0  0  0  0  0  0  0  0
  130.0770  124.2790   58.5580 C   0  0  0  0  0  0  0  0  0  0  0  0
  130.5900  123.4770   61.7750 C   0  0  0  0  0  0  0  0  0  0  0  0
  130.2850  124.8750   62.0930 C   0  0  0  0  0  0  0  0  0  0  0  0
  130.0430  125.9780   62.3430 N   0  0  0  0  0  0  0  0  0  0  0  0
  1  2  1  0
  2  3  2  0
  3  4  1  0
  4  5  1  0
  5  6  2  0
  6  7  1  0
  7  8  2  0
  8  9  1  0
  9 10  2  0
  4 11  2  0
 11 12  1  0
 12 13  1  0
 13 14  1  0
 14 15  1  0
 15 16  2  0
 15 17  1  0
 17 18  1  0
 18 19  2  0
 19 20  1  0
 20 21  2  0
 21 22  1  0
 22 23  2  0
 12 24  2  0
 24 25  1  0
 25 26  3  0
 24  2  1  0
 10  5  1  0
 23 18  1  0
M  END
>  <Binding energies>  (18) 
[-7.85]

>  <Ligand effiencies>  (18) 
[-0.29074074074074074]

>  <Interactions>  (18) 
["V-A:LEU:475:CD2:4256, V-B:TYR:539:CD1:9845, V-B:TYR:539:CE1:9847, V-B:PRO:540:CA:9855, V-B:ALA:541:CB:9864, H-A:ASP:366:OD1:3211, V-A:ASP:366:CG:3210, V-A:ILE:369:CD1:3236, V-B:TYR:539:CZ:9849, V-B:MET:535:CE:9807, V-A:ILE:369:CG2:3234, V-A:ILE:369:CB:3233, V-A:LEU:373:CD1:3277, V-A:PRO:482:CG:4324, V-A:SER:385:CA:3404, V-A:SER:385:CB:3406, V-A:PRO:482:CB:4323, V-A:VAL:384:C:3394, V-A:ASP:366:CB:3209, H-B:TYR:539:OH:9850, V-B:TYR:539:CB:9843, H-A:GLY:454:N:4047"]

$$$$
3be_Grossjean_2025
     RDKit          3D

 27 29  0  0  0  0  0  0  0  0999 V2000
  134.4690  124.2630   58.7250 C   0  0  0  0  0  0  0  0  0  0  0  0
  133.1050  124.6430   58.1840 C   0  0  0  0  0  0  0  0  0  0  0  0
  132.9650  125.4290   57.0370 C   0  0  0  0  0  0  0  0  0  0  0  0
  131.6790  125.7430   56.5990 C   0  0  0  0  0  0  0  0  0  0  0  0
  130.5730  125.2680   57.3100 C   0  0  0  0  0  0  0  0  0  0  0  0
  130.7830  124.4830   58.4490 C   0  0  0  0  0  0  0  0  0  0  0  0
  129.6300  124.0440   59.1260 N   0  0  0  0  0  0  0  0  0  0  0  0
  128.7440  123.0930   58.7590 C   0  0  0  0  0  0  0  0  0  0  0  0
  128.8120  122.4370   57.7180 O   0  0  0  0  0  0  0  0  0  0  0  0
  127.5970  122.8650   59.7560 C   0  0  0  0  0  0  0  0  0  0  0  0
  128.1130  122.6210   61.4900 S   0  0  0  0  0  0  0  0  0  0  0  0
  129.8560  122.2660   61.5030 C   0  0  0  0  0  0  0  0  0  0  0  0
  130.1520  120.9860   61.1650 N   0  0  0  0  0  0  0  0  0  0  0  0
  131.4480  120.5770   61.1300 C   0  0  0  0  0  0  0  0  0  0  0  0
  131.6890  119.1430   60.7610 C   0  0  0  0  0  0  0  0  0  0  0  0
  132.9950  118.6570   60.5870 C   0  0  0  0  0  0  0  0  0  0  0  0
  133.2250  117.3290   60.2410 C   0  0  0  0  0  0  0  0  0  0  0  0
  132.1490  116.4650   60.0630 C   0  0  0  0  0  0  0  0  0  0  0  0
  130.8460  116.9220   60.2270 C   0  0  0  0  0  0  0  0  0  0  0  0
  130.6200  118.2520   60.5720 C   0  0  0  0  0  0  0  0  0  0  0  0
  132.4880  121.4600   61.4440 C   0  0  0  0  0  0  0  0  0  0  0  0
  132.2010  122.7890   61.7710 C   0  0  0  0  0  0  0  0  0  0  0  0
  133.3690  123.7210   62.0890 C   0  0  0  0  0  0  0  0  0  0  0  0
  130.8570  123.2200   61.7940 C   0  0  0  0  0  0  0  0  0  0  0  0
  130.5380  124.6210   62.0810 C   0  0  0  0  0  0  0  0  0  0  0  0
  130.2880  125.7280   62.3070 N   0  0  0  0  0  0  0  0  0  0  0  0
  132.0400  124.1750   58.8840 N   0  0  0  0  0  0  0  0  0  0  0  0
  1  2  1  0
  2  3  2  0
  3  4  1  0
  4  5  2  0
  5  6  1  0
  6  7  1  0
  7  8  1  0
  8  9  2  0
  8 10  1  0
 10 11  1  0
 11 12  1  0
 12 13  2  0
 13 14  1  0
 14 15  1  0
 15 16  2  0
 16 17  1  0
 17 18  2  0
 18 19  1  0
 19 20  2  0
 14 21  2  0
 21 22  1  0
 22 23  1  0
 22 24  2  0
 24 25  1  0
 25 26  3  0
  6 27  2  0
 27  2  1  0
 24 12  1  0
 20 15  1  0
M  END
>  <Binding energies>  (19) 
[-7.8]

>  <Ligand effiencies>  (19) 
[-0.2785714285714286]

>  <Interactions>  (19) 
["V-A:LEU:475:CD2:4256, V-B:TYR:539:CD1:9845, V-B:TYR:539:C:9839, V-B:TYR:539:CE1:9847, V-B:PRO:540:CA:9855, V-B:ALA:541:CB:9864, V-A:ASP:366:CG:3210, V-B:PRO:540:N:9856, V-A:ILE:369:CD1:3236, V-B:TYR:539:CG:9844, V-B:TYR:539:CZ:9849, V-A:TYR:531:CZ:4792, V-A:ILE:369:CG2:3234, V-A:ILE:369:CB:3233, V-A:LEU:373:CD1:3277, V-A:PRO:482:CG:4324, V-A:SER:385:CA:3404, V-A:SER:385:CB:3406, V-A:PRO:482:CB:4323, V-A:VAL:384:C:3394, H-B:ALA:541:N:9863, V-A:ASP:366:C:3205, V-A:ASP:366:CB:3209, V-A:ASP:366:CA:3207, H-B:TYR:539:OH:9850, V-A:TYR:531:CE1:4790, V-B:TYR:539:CB:9843, V-A:ILE:369:CG1:3235, V-B:VAL:344:CG1:7972"]

$$$$
3bf_Grossjean_2025
     RDKit          3D

 26 28  0  0  0  0  0  0  0  0999 V2000
  133.7090  123.8090   61.4960 C   0  0  0  0  0  0  0  0  0  0  0  0
  132.5160  122.8640   61.3740 C   0  0  0  0  0  0  0  0  0  0  0  0
  132.7680  121.5130   61.1120 C   0  0  0  0  0  0  0  0  0  0  0  0
  131.7040  120.6100   61.0070 C   0  0  0  0  0  0  0  0  0  0  0  0
  131.9090  119.1470   60.7510 C   0  0  0  0  0  0  0  0  0  0  0  0
  133.1950  118.6330   60.5230 C   0  0  0  0  0  0  0  0  0  0  0  0
  133.3930  117.2760   60.2840 C   0  0  0  0  0  0  0  0  0  0  0  0
  132.3030  116.4120   60.2680 C   0  0  0  0  0  0  0  0  0  0  0  0
  131.0180  116.8970   60.4900 C   0  0  0  0  0  0  0  0  0  0  0  0
  130.8240  118.2550   60.7270 C   0  0  0  0  0  0  0  0  0  0  0  0
  130.4190  121.0270   61.1560 N   0  0  0  0  0  0  0  0  0  0  0  0
  130.1570  122.3380   61.3840 C   0  0  0  0  0  0  0  0  0  0  0  0
  128.4210  122.7000   61.5450 S   0  0  0  0  0  0  0  0  0  0  0  0
  127.7020  122.7780   59.8690 C   0  0  0  0  0  0  0  0  0  0  0  0
  128.6990  123.1000   58.7460 C   0  0  0  0  0  0  0  0  0  0  0  0
  128.7420  122.4090   57.7270 O   0  0  0  0  0  0  0  0  0  0  0  0
  129.4670  124.1890   58.9700 N   0  0  0  0  0  0  0  0  0  0  0  0
  130.4740  124.7410   58.1570 C   0  0  0  0  0  0  0  0  0  0  0  0
  131.7970  124.5830   58.5830 C   0  0  0  0  0  0  0  0  0  0  0  0
  132.8430  125.0980   57.8130 C   0  0  0  0  0  0  0  0  0  0  0  0
  132.5320  125.7570   56.6230 C   0  0  0  0  0  0  0  0  0  0  0  0
  131.2590  125.9150   56.1800 N   0  0  0  0  0  0  0  0  0  0  0  0
  130.2530  125.4100   56.9400 C   0  0  0  0  0  0  0  0  0  0  0  0
  131.1810  123.3000   61.5210 C   0  0  0  0  0  0  0  0  0  0  0  0
  130.8970  124.7010   61.8450 C   0  0  0  0  0  0  0  0  0  0  0  0
  130.6730  125.8080   62.0990 N   0  0  0  0  0  0  0  0  0  0  0  0
  1  2  1  0
  2  3  2  0
  3  4  1  0
  4  5  1  0
  5  6  2  0
  6  7  1  0
  7  8  2  0
  8  9  1  0
  9 10  2  0
  4 11  2  0
 11 12  1  0
 12 13  1  0
 13 14  1  0
 14 15  1  0
 15 16  2  0
 15 17  1  0
 17 18  1  0
 18 19  2  0
 19 20  1  0
 20 21  2  0
 21 22  1  0
 22 23  2  0
 12 24  2  0
 24 25  1  0
 25 26  3  0
 24  2  1  0
 10  5  1  0
 23 18  1  0
M  END
>  <Binding energies>  (20) 
[-7.76]

>  <Ligand effiencies>  (20) 
[-0.2874074074074074]

>  <Interactions>  (20) 
["V-A:LEU:475:CD2:4256, V-B:TYR:539:CD1:9845, V-B:TYR:539:C:9839, V-B:PRO:540:C:9853, V-B:TYR:539:CE1:9847, V-B:PRO:540:CA:9855, V-B:ALA:541:CB:9864, V-A:ASP:366:CG:3210, V-B:PRO:540:N:9856, V-A:ILE:369:CD1:3236, H-B:TYR:539:N:9842, V-B:TYR:539:CZ:9849, V-A:TYR:531:CZ:4792, V-A:ILE:369:CG2:3234, H-A:TYR:531:OH:4793, V-A:LEU:373:CD1:3277, V-A:PRO:482:CG:4324, V-A:SER:385:CA:3404, V-A:SER:385:CB:3406, V-A:PRO:482:CB:4323, V-A:VAL:384:C:3394, H-B:ALA:541:N:9863, V-A:ASP:366:C:3205, V-A:ASP:366:CB:3209, V-A:ASP:366:CA:3207, H-B:TYR:539:OH:9850, V-A:TYR:531:CE1:4790, V-B:TYR:539:CB:9843, V-B:VAL:344:CG1:7972"]

$$$$
3bg_Grossjean_2025
     RDKit          3D

 27 29  0  0  0  0  0  0  0  0999 V2000
  128.1770  122.7670   61.8300 C   0  0  0  0  0  0  0  0  0  0  0  0
  129.6400  122.3640   61.6570 C   0  0  0  0  0  0  0  0  0  0  0  0
  129.9250  121.0320   61.3410 C   0  0  0  0  0  0  0  0  0  0  0  0
  131.2530  120.6210   61.1660 C   0  0  0  0  0  0  0  0  0  0  0  0
  131.6280  119.2080   60.8140 C   0  0  0  0  0  0  0  0  0  0  0  0
  132.9740  118.8300   60.6680 C   0  0  0  0  0  0  0  0  0  0  0  0
  133.3250  117.5190   60.3610 C   0  0  0  0  0  0  0  0  0  0  0  0
  132.3330  116.5600   60.1900 C   0  0  0  0  0  0  0  0  0  0  0  0
  130.9930  116.9070   60.3160 C   0  0  0  0  0  0  0  0  0  0  0  0
  130.6460  118.2200   60.6220 C   0  0  0  0  0  0  0  0  0  0  0  0
  132.2730  121.5130   61.2830 N   0  0  0  0  0  0  0  0  0  0  0  0
  132.0130  122.8100   61.5860 C   0  0  0  0  0  0  0  0  0  0  0  0
  133.4370  123.8840   61.6760 S   0  0  0  0  0  0  0  0  0  0  0  0
  134.2610  123.8790   60.0500 C   0  0  0  0  0  0  0  0  0  0  0  0
  133.3200  124.3420   58.9330 C   0  0  0  0  0  0  0  0  0  0  0  0
  133.6750  124.2550   57.7580 O   0  0  0  0  0  0  0  0  0  0  0  0
  132.1380  124.8520   59.3200 N   0  0  0  0  0  0  0  0  0  0  0  0
  131.1720  125.5150   58.4440 C   0  0  0  0  0  0  0  0  0  0  0  0
  130.1450  124.5350   57.8880 C   0  0  0  0  0  0  0  0  0  0  0  0
  129.9970  124.3850   56.5050 C   0  0  0  0  0  0  0  0  0  0  0  0
  129.0540  123.4970   55.9980 C   0  0  0  0  0  0  0  0  0  0  0  0
  128.2670  122.7520   56.8750 C   0  0  0  0  0  0  0  0  0  0  0  0
  128.4220  122.8810   58.2530 C   0  0  0  0  0  0  0  0  0  0  0  0
  129.3670  123.7700   58.7600 C   0  0  0  0  0  0  0  0  0  0  0  0
  130.7010  123.2840   61.7920 C   0  0  0  0  0  0  0  0  0  0  0  0
  130.4320  124.6880   62.1140 C   0  0  0  0  0  0  0  0  0  0  0  0
  130.2190  125.7960   62.3690 N   0  0  0  0  0  0  0  0  0  0  0  0
  1  2  1  0
  2  3  2  0
  3  4  1  0
  4  5  1  0
  5  6  2  0
  6  7  1  0
  7  8  2  0
  8  9  1  0
  9 10  2  0
  4 11  2  0
 11 12  1  0
 12 13  1  0
 13 14  1  0
 14 15  1  0
 15 16  2  0
 15 17  1  0
 17 18  1  0
 18 19  1  0
 19 20  2  0
 20 21  1  0
 21 22  2  0
 22 23  1  0
 23 24  2  0
 12 25  2  0
 25 26  1  0
 26 27  3  0
 25  2  1  0
 10  5  1  0
 24 19  1  0
M  END
>  <Binding energies>  (21) 
[-8.2]

>  <Ligand effiencies>  (21) 
[-0.2928571428571428]

>  <Interactions>  (21) 
["V-A:LEU:475:CD2:4256, V-B:TYR:539:CD1:9845, V-B:TYR:539:C:9839, V-B:PRO:540:C:9853, V-B:TYR:539:CE1:9847, V-B:PRO:540:CA:9855, V-B:ALA:541:CB:9864, H-A:ASP:366:OD1:3211, V-A:ASP:366:CG:3210, V-A:ILE:369:CD1:3236, V-B:TYR:539:CE2:9848, V-B:TYR:539:CG:9844, V-B:TYR:539:CD2:9846, V-B:TYR:539:CZ:9849, V-B:MET:535:CE:9807, V-A:ILE:369:CG2:3234, V-A:ILE:369:CB:3233, V-A:LEU:373:CD1:3277, V-A:PRO:482:CG:4324, V-A:SER:385:CA:3404, V-A:SER:385:CB:3406, V-A:PRO:482:CB:4323, V-A:VAL:384:C:3394, V-A:ASP:366:CB:3209, V-A:ASP:366:CA:3207, H-B:TYR:539:OH:9850, V-B:ALA:541:CA:9862, V-B:TYR:539:CB:9843, V-A:ILE:369:CG1:3235, V-B:VAL:344:CG1:7972"]

$$$$
3ca_Grossjean_2025
     RDKit          3D

 31 33  0  0  0  0  0  0  0  0999 V2000
  123.8380  124.0710   57.7930 C   0  0  0  0  0  0  0  0  0  0  0  0
  124.7140  123.3490   56.7660 C   0  0  0  0  0  0  0  0  0  0  0  0
  125.5180  122.3790   57.4270 O   0  0  0  0  0  0  0  0  0  0  0  0
  126.8730  122.4440   57.3860 C   0  0  0  0  0  0  0  0  0  0  0  0
  127.5460  122.0220   56.4400 O   0  0  0  0  0  0  0  0  0  0  0  0
  127.4740  123.0890   58.6020 C   0  0  0  0  0  0  0  0  0  0  0  0
  128.6900  122.6070   59.1010 C   0  0  0  0  0  0  0  0  0  0  0  0
  129.2720  123.1840   60.2270 C   0  0  0  0  0  0  0  0  0  0  0  0
  128.6470  124.2460   60.8810 C   0  0  0  0  0  0  0  0  0  0  0  0
  129.3210  124.7550   62.0080 N   0  0  0  0  0  0  0  0  0  0  0  0
  130.1460  125.8190   62.1100 C   0  0  0  0  0  0  0  0  0  0  0  0
  130.4500  126.5770   61.1890 O   0  0  0  0  0  0  0  0  0  0  0  0
  130.7090  126.0780   63.5120 C   0  0  0  0  0  0  0  0  0  0  0  0
  132.1730  125.0620   63.8970 S   0  0  0  0  0  0  0  0  0  0  0  0
  132.5300  123.9680   62.5280 C   0  0  0  0  0  0  0  0  0  0  0  0
  133.2810  124.5010   61.5310 N   0  0  0  0  0  0  0  0  0  0  0  0
  133.6070  123.7250   60.4740 C   0  0  0  0  0  0  0  0  0  0  0  0
  134.4630  124.3860   59.4110 C   0  0  0  0  0  0  0  0  0  0  0  0
  133.1890  122.4020   60.3580 C   0  0  0  0  0  0  0  0  0  0  0  0
  132.3970  121.8350   61.3650 C   0  0  0  0  0  0  0  0  0  0  0  0
  131.9610  120.4160   61.1920 C   0  0  0  0  0  0  0  0  0  0  0  0
  132.8800  119.4440   60.7770 C   0  0  0  0  0  0  0  0  0  0  0  0
  132.4810  118.1220   60.6030 C   0  0  0  0  0  0  0  0  0  0  0  0
  131.1550  117.7660   60.8410 C   0  0  0  0  0  0  0  0  0  0  0  0
  130.2270  118.7220   61.2470 C   0  0  0  0  0  0  0  0  0  0  0  0
  130.6310  120.0440   61.4190 C   0  0  0  0  0  0  0  0  0  0  0  0
  132.0630  122.6330   62.4890 C   0  0  0  0  0  0  0  0  0  0  0  0
  131.2800  122.0780   63.5980 C   0  0  0  0  0  0  0  0  0  0  0  0
  130.6620  121.6390   64.4730 N   0  0  0  0  0  0  0  0  0  0  0  0
  127.4310  124.7400   60.3840 C   0  0  0  0  0  0  0  0  0  0  0  0
  126.8520  124.1640   59.2560 C   0  0  0  0  0  0  0  0  0  0  0  0
  1  2  1  0
  2  3  1  0
  3  4  1  0
  4  5  2  0
  4  6  1  0
  6  7  2  0
  7  8  1  0
  8  9  2  0
  9 10  1  0
 10 11  1  0
 11 12  2  0
 11 13  1  0
 13 14  1  0
 14 15  1  0
 15 16  2  0
 16 17  1  0
 17 18  1  0
 17 19  2  0
 19 20  1  0
 20 21  1  0
 21 22  2  0
 22 23  1  0
 23 24  2  0
 24 25  1  0
 25 26  2  0
 20 27  2  0
 27 28  1  0
 28 29  3  0
  9 30  1  0
 30 31  2  0
 31  6  1  0
 27 15  1  0
 26 21  1  0
M  END
>  <Binding energies>  (22) 
[-9.16]

>  <Ligand effiencies>  (22) 
[-0.28625]

>  <Interactions>  (22) 
["V-A:LEU:475:CD2:4256, H-A:TYR:484:OH:4345, V-B:TYR:539:CD1:9845, V-B:TYR:539:C:9839, V-B:ASP:366:CG:8184, V-B:TYR:539:CE1:9847, V-B:PRO:540:CB:9857, V-B:PRO:540:CA:9855, V-B:ALA:541:CB:9864, V-A:ASP:366:CG:3210, H-B:GLU:543:OE1:9881, V-B:ASP:366:CB:8183, V-B:PRO:540:N:9856, H-A:ARG:545:NH2:4926, V-A:ILE:369:CD1:3236, H-B:TYR:539:N:9842, V-B:PRO:540:CD:9859, V-B:TYR:539:CA:9841, V-A:ILE:369:CG2:3234, V-A:ILE:369:CB:3233, V-A:LEU:373:CD1:3277, V-A:PRO:482:CG:4324, V-A:SER:385:CA:3404, V-A:SER:385:CB:3406, V-A:PRO:482:CB:4323, V-A:ASP:366:CB:3209, V-A:ASP:366:CA:3207, V-B:TYR:531:CE2:9765, V-B:LEU:363:CD1:8160, V-A:ILE:369:CG1:3235, V-B:LEU:363:CA:8156, V-B:LEU:363:CB:8158"]

$$$$
3ce_Grossjean_2025
     RDKit          3D

 27 29  0  0  0  0  0  0  0  0999 V2000
  134.3250  125.3590   66.5530 C   0  0  0  0  0  0  0  0  0  0  0  0
  133.1610  125.3800   65.5810 C   0  0  0  0  0  0  0  0  0  0  0  0
  131.8700  125.7210   65.9940 C   0  0  0  0  0  0  0  0  0  0  0  0
  130.8500  125.7290   65.0440 C   0  0  0  0  0  0  0  0  0  0  0  0
  131.1390  125.3990   63.7180 C   0  0  0  0  0  0  0  0  0  0  0  0
  132.4510  125.0570   63.3730 C   0  0  0  0  0  0  0  0  0  0  0  0
  132.6870  124.7530   62.0220 N   0  0  0  0  0  0  0  0  0  0  0  0
  133.8010  124.2270   61.4660 C   0  0  0  0  0  0  0  0  0  0  0  0
  134.8200  123.9150   62.0850 O   0  0  0  0  0  0  0  0  0  0  0  0
  133.7480  124.0110   59.9540 C   0  0  0  0  0  0  0  0  0  0  0  0
  132.4340  124.9930   59.1730 S   0  0  0  0  0  0  0  0  0  0  0  0
  130.9510  124.0260   59.3280 C   0  0  0  0  0  0  0  0  0  0  0  0
  130.9310  123.2190   60.4170 N   0  0  0  0  0  0  0  0  0  0  0  0
  129.8360  122.4530   60.6340 C   0  0  0  0  0  0  0  0  0  0  0  0
  129.8750  121.5850   61.8770 C   0  0  0  0  0  0  0  0  0  0  0  0
  128.7390  122.4530   59.7770 C   0  0  0  0  0  0  0  0  0  0  0  0
  128.7520  123.2600   58.6320 C   0  0  0  0  0  0  0  0  0  0  0  0
  127.5640  123.2060   57.7290 C   0  0  0  0  0  0  0  0  0  0  0  0
  127.7190  122.8550   56.3830 C   0  0  0  0  0  0  0  0  0  0  0  0
  126.6160  122.8090   55.5340 C   0  0  0  0  0  0  0  0  0  0  0  0
  125.3520  123.1210   56.0270 C   0  0  0  0  0  0  0  0  0  0  0  0
  125.1820  123.4820   57.3610 C   0  0  0  0  0  0  0  0  0  0  0  0
  126.2860  123.5270   58.2080 C   0  0  0  0  0  0  0  0  0  0  0  0
  129.8870  124.0770   58.3960 C   0  0  0  0  0  0  0  0  0  0  0  0
  129.9510  124.9550   57.2230 C   0  0  0  0  0  0  0  0  0  0  0  0
  130.0000  125.6470   56.2970 N   0  0  0  0  0  0  0  0  0  0  0  0
  133.4570  125.0540   64.2970 N   0  0  0  0  0  0  0  0  0  0  0  0
  1  2  1  0
  2  3  2  0
  3  4  1  0
  4  5  2  0
  5  6  1  0
  6  7  1  0
  7  8  1  0
  8  9  2  0
  8 10  1  0
 10 11  1  0
 11 12  1  0
 12 13  2  0
 13 14  1  0
 14 15  1  0
 14 16  2  0
 16 17  1  0
 17 18  1  0
 18 19  2  0
 19 20  1  0
 20 21  2  0
 21 22  1  0
 22 23  2  0
 17 24  2  0
 24 25  1  0
 25 26  3  0
  6 27  2  0
 27  2  1  0
 24 12  1  0
 23 18  1  0
M  END
>  <Binding energies>  (23) 
[-8.73]

>  <Ligand effiencies>  (23) 
[-0.3117857142857143]

>  <Interactions>  (23) 
["V-A:HIS:456:CE1:4066, H-A:TYR:484:OH:4345, V-A:GLY:454:CA:4046, V-B:TYR:539:CD1:9845, V-B:TYR:539:C:9839, V-B:TYR:539:CE1:9847, V-B:GLU:543:CD:9880, V-B:PRO:540:CB:9857, V-A:ARG:545:CZ:4924, V-B:PRO:540:CA:9855, V-B:ALA:541:CB:9864, H-A:ASP:366:OD1:3211, V-A:ASP:366:CG:3210, V-B:PRO:540:N:9856, V-A:ARG:545:CD:4921, H-A:ARG:545:NH2:4926, V-A:ILE:369:CD1:3236, V-A:ARG:545:CG:4920, H-A:ARG:545:NE:4922, V-A:GLY:453:C:4039, V-B:ILE:538:CB:9834, V-B:TYR:539:CZ:9849, V-B:ILE:538:CG2:9835, V-B:ILE:538:CA:9832, V-B:MET:535:CE:9807, V-A:ILE:369:CG2:3234, V-A:ILE:369:CB:3233, V-B:TYR:531:CE2:9765, V-B:ILE:538:C:9830, V-B:LEU:363:CD1:8160, H-A:GLY:454:N:4047, V-A:ARG:545:CB:4919"]

$$$$
3cj_Grossjean_2025
     RDKit          3D

 25 27  0  0  0  0  0  0  0  0999 V2000
  131.8470  125.3340   56.9620 C   0  0  0  0  0  0  0  0  0  0  0  0
  130.7820  124.7700   57.8820 C   0  0  0  0  0  0  0  0  0  0  0  0
  129.4810  124.5460   57.4380 C   0  0  0  0  0  0  0  0  0  0  0  0
  128.5340  124.0010   58.3160 C   0  0  0  0  0  0  0  0  0  0  0  0
  127.1710  123.7170   57.7800 C   0  0  0  0  0  0  0  0  0  0  0  0
  126.9870  122.7610   56.7740 C   0  0  0  0  0  0  0  0  0  0  0  0
  125.7160  122.5070   56.2650 C   0  0  0  0  0  0  0  0  0  0  0  0
  124.6230  123.2140   56.7580 C   0  0  0  0  0  0  0  0  0  0  0  0
  124.7910  124.1750   57.7510 C   0  0  0  0  0  0  0  0  0  0  0  0
  126.0630  124.4280   58.2590 C   0  0  0  0  0  0  0  0  0  0  0  0
  128.9300  123.7250   59.6480 C   0  0  0  0  0  0  0  0  0  0  0  0
  127.9780  123.1820   60.6220 C   0  0  0  0  0  0  0  0  0  0  0  0
  127.2260  122.7510   61.3900 N   0  0  0  0  0  0  0  0  0  0  0  0
  130.2720  123.9800   60.0110 C   0  0  0  0  0  0  0  0  0  0  0  0
  130.9340  123.5550   61.6080 S   0  0  0  0  0  0  0  0  0  0  0  0
  130.2730  121.8950   61.9610 C   0  0  0  0  0  0  0  0  0  0  0  0
  131.1670  120.7910   61.3890 C   0  0  0  0  0  0  0  0  0  0  0  0
  132.3870  120.9620   61.3410 O   0  0  0  0  0  0  0  0  0  0  0  0
  130.5250  119.6670   61.0040 N   0  0  0  0  0  0  0  0  0  0  0  0
  131.1090  118.4830   60.5840 C   0  0  0  0  0  0  0  0  0  0  0  0
  130.5180  117.4350   60.0520 N   0  0  0  0  0  0  0  0  0  0  0  0
  131.3890  116.4950   59.7420 C   0  0  0  0  0  0  0  0  0  0  0  0
  132.7230  116.7730   60.0240 C   0  0  0  0  0  0  0  0  0  0  0  0
  132.8320  118.3560   60.7360 S   0  0  0  0  0  0  0  0  0  0  0  0
  131.1830  124.4830   59.1400 N   0  0  0  0  0  0  0  0  0  0  0  0
  1  2  1  0
  2  3  2  0
  3  4  1  0
  4  5  1  0
  5  6  2  0
  6  7  1  0
  7  8  2  0
  8  9  1  0
  9 10  2  0
  4 11  2  0
 11 12  1  0
 12 13  3  0
 11 14  1  0
 14 15  1  0
 15 16  1  0
 16 17  1  0
 17 18  2  0
 17 19  1  0
 19 20  1  0
 20 21  2  0
 21 22  1  0
 22 23  2  0
 23 24  1  0
 14 25  2  0
 25  2  1  0
 10  5  1  0
 24 20  1  0
M  END
>  <Binding energies>  (24) 
[-8.54]

>  <Ligand effiencies>  (24) 
[-0.3284615384615384]

>  <Interactions>  (24) 
["V-A:LEU:475:CD2:4256, V-B:TYR:539:CD1:9845, V-B:TYR:539:C:9839, H-B:TYR:539:O:9840, V-B:TYR:539:CE1:9847, V-B:PRO:540:CA:9855, V-B:ALA:541:CB:9864, V-B:PRO:540:N:9856, V-B:TYR:539:CG:9844, V-B:ILE:538:CB:9834, V-B:PRO:540:CD:9859, V-B:TYR:539:CZ:9849, V-B:ILE:538:CG2:9835, V-B:ILE:538:CA:9832, V-A:LEU:373:CD1:3277, V-A:PRO:482:CG:4324, V-A:SER:385:CA:3404, V-A:SER:385:CB:3406, H-B:ALA:541:N:9863, V-B:TYR:531:CE2:9765, V-B:LEU:363:CD1:8160, V-B:TYR:539:CB:9843, V-B:VAL:344:CG1:7972"]

$$$$
4ba_Grossjean_2025
     RDKit          3D

 28 30  0  0  0  0  0  0  0  0999 V2000
  127.2420  128.3210   73.8380 C   0  0  0  0  0  0  0  0  0  0  0  0
  127.6370  127.6390   72.5140 C   0  0  0  0  0  0  0  0  0  0  0  0
  128.8240  128.2860   71.7730 C   0  0  0  0  0  0  0  0  0  0  0  0
  129.4790  129.1710   72.3300 O   0  0  0  0  0  0  0  0  0  0  0  0
  129.1340  127.7950   70.3890 C   0  0  0  0  0  0  0  0  0  0  0  0
  130.4290  127.9500   69.8780 C   0  0  0  0  0  0  0  0  0  0  0  0
  130.7430  127.5050   68.5970 C   0  0  0  0  0  0  0  0  0  0  0  0
  129.7730  126.8940   67.8020 C   0  0  0  0  0  0  0  0  0  0  0  0
  130.1960  126.4900   66.5210 N   0  0  0  0  0  0  0  0  0  0  0  0
  130.5650  125.2660   66.0700 C   0  0  0  0  0  0  0  0  0  0  0  0
  130.6280  124.2590   66.7760 O   0  0  0  0  0  0  0  0  0  0  0  0
  130.9220  125.2050   64.6510 C   0  0  0  0  0  0  0  0  0  0  0  0
  132.1530  124.0730   64.0950 S   0  0  0  0  0  0  0  0  0  0  0  0
  132.0050  124.6470   62.4510 C   0  0  0  0  0  0  0  0  0  0  0  0
  132.7450  124.1370   61.4680 N   0  0  0  0  0  0  0  0  0  0  0  0
  132.5430  124.6620   60.2380 C   0  0  0  0  0  0  0  0  0  0  0  0
  133.4040  124.0730   59.1350 C   0  0  0  0  0  0  0  0  0  0  0  0
  131.6240  125.6730   59.9690 C   0  0  0  0  0  0  0  0  0  0  0  0
  130.8400  126.2150   61.0010 C   0  0  0  0  0  0  0  0  0  0  0  0
  129.8400  127.3230   60.6560 C   0  0  0  0  0  0  0  0  0  0  0  0
  129.8120  127.6140   59.3540 F   0  0  0  0  0  0  0  0  0  0  0  0
  128.6100  126.9490   61.0080 F   0  0  0  0  0  0  0  0  0  0  0  0
  130.1640  128.4400   61.3080 F   0  0  0  0  0  0  0  0  0  0  0  0
  131.0340  125.6860   62.3120 C   0  0  0  0  0  0  0  0  0  0  0  0
  130.4380  125.9890   63.5910 C   0  0  0  0  0  0  0  0  0  0  0  0
  129.4810  126.9590   63.7500 N   0  0  0  0  0  0  0  0  0  0  0  0
  128.4720  126.7410   68.3040 C   0  0  0  0  0  0  0  0  0  0  0  0
  128.1590  127.1870   69.5850 C   0  0  0  0  0  0  0  0  0  0  0  0
  1  2  1  0
  2  3  1  0
  3  4  2  0
  3  5  1  0
  5  6  2  0
  6  7  1  0
  7  8  2  0
  8  9  1  0
  9 10  1  0
 10 11  2  0
 10 12  1  0
 12 13  1  0
 13 14  1  0
 14 15  2  0
 15 16  1  0
 16 17  1  0
 16 18  2  0
 18 19  1  0
 19 20  1  0
 20 21  1  0
 20 22  1  0
 20 23  1  0
 19 24  2  0
 24 25  1  0
 25 26  1  0
  8 27  1  0
 27 28  2  0
 28  5  1  0
 25 12  2  0
 24 14  1  0
M  END
>  <Binding energies>  (25) 
[-6.3]

>  <Ligand effiencies>  (25) 
[-0.2032258064516129]

>  <Interactions>  (25) 
["V-B:LYS:547:CE:9922, V-B:HIS:456:CE1:9040, V-B:HIS:456:CD2:9039, V-B:HIS:456:CG:9037, V-A:HIS:456:CE1:4066, V-B:HIS:456:CB:9036, V-A:GLY:544:C:4910, V-B:GLU:543:CG:9879, H-A:TYR:484:OH:4345, V-B:GLU:543:CB:9878, V-B:TYR:539:CE1:9847, V-B:GLU:543:CD:9880, H-B:GLU:543:OE2:9882, V-A:ASP:366:CG:3210, H-B:GLU:543:OE1:9881, H-A:GLU:543:OE2:4908, H-A:GLU:543:OE1:4907, V-A:GLU:543:CD:4906, V-A:ILE:369:CG2:3234, V-A:ILE:369:CB:3233, V-B:GLY:544:CA:9886, V-B:GLU:543:C:9874, V-A:GLU:543:C:4900, H-A:HIS:456:NE2:4067, V-A:GLY:544:CA:4912, V-B:GLY:544:C:9884, H-B:HIS:456:NE2:9041, V-A:GLU:543:CG:4905"]

$$$$
4bb_Grossjean_2025
     RDKit          3D

 27 29  0  0  0  0  0  0  0  0999 V2000
  131.0620  126.8790   72.4500 C   0  0  0  0  0  0  0  0  0  0  0  0
  129.6840  126.5100   71.8980 C   0  0  0  0  0  0  0  0  0  0  0  0
  128.9490  125.8070   72.5940 O   0  0  0  0  0  0  0  0  0  0  0  0
  129.3050  127.0120   70.5370 C   0  0  0  0  0  0  0  0  0  0  0  0
  127.9810  126.8840   70.1010 C   0  0  0  0  0  0  0  0  0  0  0  0
  127.6030  127.3410   68.8420 C   0  0  0  0  0  0  0  0  0  0  0  0
  128.5390  127.9430   67.9980 C   0  0  0  0  0  0  0  0  0  0  0  0
  128.0510  128.3670   66.7460 N   0  0  0  0  0  0  0  0  0  0  0  0
  127.6170  129.5880   66.3480 C   0  0  0  0  0  0  0  0  0  0  0  0
  127.5550  130.5730   67.0830 O   0  0  0  0  0  0  0  0  0  0  0  0
  127.1800  129.6700   64.9520 C   0  0  0  0  0  0  0  0  0  0  0  0
  125.8830  130.7710   64.4920 S   0  0  0  0  0  0  0  0  0  0  0  0
  125.9660  130.2470   62.8260 C   0  0  0  0  0  0  0  0  0  0  0  0
  125.1640  130.7610   61.8950 N   0  0  0  0  0  0  0  0  0  0  0  0
  125.3220  130.2760   60.6420 C   0  0  0  0  0  0  0  0  0  0  0  0
  124.3990  130.8760   59.5960 C   0  0  0  0  0  0  0  0  0  0  0  0
  126.2520  129.2980   60.3010 C   0  0  0  0  0  0  0  0  0  0  0  0
  127.1000  128.7530   61.2780 C   0  0  0  0  0  0  0  0  0  0  0  0
  128.1080  127.6790   60.8550 C   0  0  0  0  0  0  0  0  0  0  0  0
  128.0960  127.4400   59.5410 F   0  0  0  0  0  0  0  0  0  0  0  0
  129.3420  128.0670   61.1790 F   0  0  0  0  0  0  0  0  0  0  0  0
  127.8310  126.5310   61.4720 F   0  0  0  0  0  0  0  0  0  0  0  0
  126.9600  129.2430   62.6110 C   0  0  0  0  0  0  0  0  0  0  0  0
  127.6340  128.9310   63.8470 C   0  0  0  0  0  0  0  0  0  0  0  0
  128.6350  127.9970   63.9290 N   0  0  0  0  0  0  0  0  0  0  0  0
  129.8700  128.0680   68.4260 C   0  0  0  0  0  0  0  0  0  0  0  0
  130.2460  127.6080   69.6850 C   0  0  0  0  0  0  0  0  0  0  0  0
  1  2  1  0
  2  3  2  0
  2  4  1  0
  4  5  2  0
  5  6  1  0
  6  7  2  0
  7  8  1  0
  8  9  1  0
  9 10  2  0
  9 11  1  0
 11 12  1  0
 12 13  1  0
 13 14  2  0
 14 15  1  0
 15 16  1  0
 15 17  2  0
 17 18  1  0
 18 19  1  0
 19 20  1  0
 19 21  1  0
 19 22  1  0
 18 23  2  0
 23 24  1  0
 24 25  1  0
  7 26  1  0
 26 27  2  0
 27  4  1  0
 24 11  2  0
 23 13  1  0
M  END
>  <Binding energies>  (26) 
[-6.31]

>  <Ligand effiencies>  (26) 
[-0.21033333333333332]

>  <Interactions>  (26) 
["H-B:LYS:547:NZ:9923, V-B:HIS:456:CE1:9040, V-A:HIS:456:CD2:4065, V-A:HIS:456:CE1:4066, V-A:HIS:456:CG:4063, V-A:GLY:544:C:4910, V-B:GLU:543:CG:9879, V-B:ASP:366:CG:8184, V-B:GLU:543:CD:9880, H-B:GLU:543:OE2:9882, H-B:GLU:543:OE1:9881, V-B:ASP:366:CB:8183, H-A:GLU:543:OE2:4908, H-A:GLU:543:OE1:4907, V-A:GLU:543:CD:4906, V-A:TYR:539:CE1:4873, H-B:TYR:484:OH:9319, V-A:GLU:543:CB:4904, V-B:GLY:544:CA:9886, V-B:GLU:543:C:9874, V-A:GLU:543:C:4900, H-A:HIS:456:NE2:4067, V-B:GLY:544:C:9884, H-B:HIS:456:NE2:9041, V-A:GLU:543:CG:4905"]

$$$$
4bd_Grossjean_2025
     RDKit          3D

 24 26  0  0  0  0  0  0  0  0999 V2000
  125.9670  117.1460   71.5990 C   0  0  0  0  0  0  0  0  0  0  0  0
  126.8240  118.0420   72.4760 C   0  0  0  0  0  0  0  0  0  0  0  0
  127.2240  117.6340   73.7450 C   0  0  0  0  0  0  0  0  0  0  0  0
  128.0140  118.4740   74.5460 C   0  0  0  0  0  0  0  0  0  0  0  0
  128.4270  117.9830   75.9380 C   0  0  0  0  0  0  0  0  0  0  0  0
  127.9900  118.7740   76.9210 F   0  0  0  0  0  0  0  0  0  0  0  0
  127.9300  116.7660   76.1540 F   0  0  0  0  0  0  0  0  0  0  0  0
  129.7560  117.9390   76.0240 F   0  0  0  0  0  0  0  0  0  0  0  0
  128.3800  119.7410   74.0010 C   0  0  0  0  0  0  0  0  0  0  0  0
  129.1610  120.8410   74.5120 C   0  0  0  0  0  0  0  0  0  0  0  0
  129.7450  120.8190   75.7520 N   0  0  0  0  0  0  0  0  0  0  0  0
  129.2680  121.9280   73.6280 C   0  0  0  0  0  0  0  0  0  0  0  0
  129.9660  123.2020   73.8280 C   0  0  0  0  0  0  0  0  0  0  0  0
  129.4380  124.2650   73.5010 O   0  0  0  0  0  0  0  0  0  0  0  0
  131.1940  123.1090   74.3960 N   0  0  0  0  0  0  0  0  0  0  0  0
  132.1260  124.1230   74.6810 C   0  0  0  0  0  0  0  0  0  0  0  0
  131.7770  125.4110   74.2640 C   0  0  0  0  0  0  0  0  0  0  0  0
  132.6290  126.4840   74.5090 C   0  0  0  0  0  0  0  0  0  0  0  0
  133.8300  126.2730   75.1810 C   0  0  0  0  0  0  0  0  0  0  0  0
  134.1840  124.9970   75.6140 C   0  0  0  0  0  0  0  0  0  0  0  0
  133.3340  123.9210   75.3700 C   0  0  0  0  0  0  0  0  0  0  0  0
  128.4040  121.6150   72.1250 S   0  0  0  0  0  0  0  0  0  0  0  0
  127.9030  120.0380   72.6870 C   0  0  0  0  0  0  0  0  0  0  0  0
  127.1540  119.2360   71.9320 N   0  0  0  0  0  0  0  0  0  0  0  0
  1  2  1  0
  2  3  2  0
  3  4  1  0
  4  5  1  0
  5  6  1  0
  5  7  1  0
  5  8  1  0
  4  9  2  0
  9 10  1  0
 10 11  1  0
 10 12  2  0
 12 13  1  0
 13 14  2  0
 13 15  1  0
 15 16  1  0
 16 17  2  0
 17 18  1  0
 18 19  2  0
 19 20  1  0
 20 21  2  0
 12 22  1  0
 22 23  1  0
 23 24  2  0
 24  2  1  0
 23  9  1  0
 21 16  1  0
M  END
>  <Binding energies>  (27) 
[-6.51]

>  <Ligand effiencies>  (27) 
[-0.2411111111111111]

>  <Interactions>  (27) 
["V-B:LYS:547:CE:9922, V-A:VAL:458:CG2:4084, H-B:LYS:547:NZ:9923, V-A:HIS:456:CD2:4065, V-A:LYS:547:CE:4948, V-A:LYS:547:CD:4947, V-A:LYS:471:CD:4216, V-A:HIS:456:CB:4062, V-A:ASP:473:CG:4237, V-A:HIS:456:CG:4063, V-A:HIS:456:C:4058, V-B:GLY:544:CA:9886, V-B:GLU:543:C:9874, V-A:TYR:484:CD2:4341, H-A:ASP:473:OD2:4239, V-A:TYR:484:CB:4338, V-A:TYR:484:CG:4339, V-B:GLU:543:CA:9876, H-A:TYR:484:N:4337, V-A:SER:483:CB:4330, V-B:VAL:542:CG1:9871"]

$$$$
4be_Grossjean_2025
     RDKit          3D

 25 27  0  0  0  0  0  0  0  0999 V2000
  123.5210  130.9350   62.4680 C   0  0  0  0  0  0  0  0  0  0  0  0
  124.8390  130.6740   63.1720 C   0  0  0  0  0  0  0  0  0  0  0  0
  125.3700  131.5830   64.0900 C   0  0  0  0  0  0  0  0  0  0  0  0
  126.5880  131.2780   64.6980 C   0  0  0  0  0  0  0  0  0  0  0  0
  127.2400  130.0850   64.3780 C   0  0  0  0  0  0  0  0  0  0  0  0
  126.6490  129.2150   63.4540 C   0  0  0  0  0  0  0  0  0  0  0  0
  127.3580  128.0340   63.1700 N   0  0  0  0  0  0  0  0  0  0  0  0
  127.5620  127.4310   61.9720 C   0  0  0  0  0  0  0  0  0  0  0  0
  127.1310  127.8650   60.9020 O   0  0  0  0  0  0  0  0  0  0  0  0
  128.3280  126.1820   62.0190 C   0  0  0  0  0  0  0  0  0  0  0  0
  127.7280  124.7440   61.1940 S   0  0  0  0  0  0  0  0  0  0  0  0
  129.0960  123.8040   61.7420 C   0  0  0  0  0  0  0  0  0  0  0  0
  129.2320  122.5200   61.4150 N   0  0  0  0  0  0  0  0  0  0  0  0
  130.3330  121.8980   61.8960 C   0  0  0  0  0  0  0  0  0  0  0  0
  130.4680  120.4350   61.5160 C   0  0  0  0  0  0  0  0  0  0  0  0
  131.2930  122.5250   62.6860 C   0  0  0  0  0  0  0  0  0  0  0  0
  131.1560  123.8780   63.0330 C   0  0  0  0  0  0  0  0  0  0  0  0
  132.2400  124.5250   63.9010 C   0  0  0  0  0  0  0  0  0  0  0  0
  132.8340  125.5630   63.3070 F   0  0  0  0  0  0  0  0  0  0  0  0
  131.7020  124.9720   65.0360 F   0  0  0  0  0  0  0  0  0  0  0  0
  133.1870  123.6310   64.1840 F   0  0  0  0  0  0  0  0  0  0  0  0
  130.0030  124.5620   62.5450 C   0  0  0  0  0  0  0  0  0  0  0  0
  129.5300  125.9170   62.6940 C   0  0  0  0  0  0  0  0  0  0  0  0
  130.2030  126.8610   63.4270 N   0  0  0  0  0  0  0  0  0  0  0  0
  125.4600  129.5100   62.8510 N   0  0  0  0  0  0  0  0  0  0  0  0
  1  2  1  0
  2  3  2  0
  3  4  1  0
  4  5  2  0
  5  6  1  0
  6  7  1  0
  7  8  1  0
  8  9  2  0
  8 10  1  0
 10 11  1  0
 11 12  1  0
 12 13  2  0
 13 14  1  0
 14 15  1  0
 14 16  2  0
 16 17  1  0
 17 18  1  0
 18 19  1  0
 18 20  1  0
 18 21  1  0
 17 22  2  0
 22 23  1  0
 23 24  1  0
  6 25  2  0
 25  2  1  0
 23 10  2  0
 22 12  1  0
M  END
>  <Binding energies>  (28) 
[-5.68]

>  <Ligand effiencies>  (28) 
[-0.20285714285714285]

>  <Interactions>  (28) 
["V-A:LEU:475:CD2:4256, V-A:GLY:454:CA:4046, V-B:TYR:539:CD1:9845, V-B:GLU:543:CD:9880, V-A:ARG:545:CZ:4924, V-B:ALA:541:CB:9864, H-B:GLU:543:OE2:9882, V-B:ARG:545:CZ:9898, H-B:GLU:543:OE1:9881, H-A:GLU:543:OE2:4908, H-A:GLU:543:OE1:4907, V-A:GLU:543:CD:4906, V-A:GLY:453:C:4039, H-B:ARG:545:NH2:9900, V-B:GLY:453:CA:9015, V-B:ILE:369:CD1:8210, V-B:GLY:453:C:9013, V-B:TYR:484:CZ:9318, V-B:GLY:454:CA:9020"]

$$$$
4bg_Grossjean_2025
     RDKit          3D

 25 27  0  0  0  0  0  0  0  0999 V2000
  128.3020  122.5770   54.2820 C   0  0  0  0  0  0  0  0  0  0  0  0
  127.7640  122.8080   55.6820 C   0  0  0  0  0  0  0  0  0  0  0  0
  126.4590  123.2460   55.8850 C   0  0  0  0  0  0  0  0  0  0  0  0
  125.9750  123.4610   57.1860 C   0  0  0  0  0  0  0  0  0  0  0  0
  124.5320  123.9450   57.3610 C   0  0  0  0  0  0  0  0  0  0  0  0
  123.8540  123.2440   58.2730 F   0  0  0  0  0  0  0  0  0  0  0  0
  124.5280  125.2190   57.7520 F   0  0  0  0  0  0  0  0  0  0  0  0
  123.8760  123.8360   56.2060 F   0  0  0  0  0  0  0  0  0  0  0  0
  126.8740  123.2090   58.2650 C   0  0  0  0  0  0  0  0  0  0  0  0
  126.7440  123.3200   59.6980 C   0  0  0  0  0  0  0  0  0  0  0  0
  125.5920  123.7490   60.3080 N   0  0  0  0  0  0  0  0  0  0  0  0
  127.8940  122.9420   60.4070 C   0  0  0  0  0  0  0  0  0  0  0  0
  128.1200  122.9590   61.8520 C   0  0  0  0  0  0  0  0  0  0  0  0
  127.1920  123.1160   62.6470 O   0  0  0  0  0  0  0  0  0  0  0  0
  129.3920  122.7540   62.2530 N   0  0  0  0  0  0  0  0  0  0  0  0
  129.8540  122.7440   63.6410 C   0  0  0  0  0  0  0  0  0  0  0  0
  131.0470  123.6550   63.8940 C   0  0  0  0  0  0  0  0  0  0  0  0
  132.1640  123.5980   63.0540 C   0  0  0  0  0  0  0  0  0  0  0  0
  133.2370  124.4590   63.2640 C   0  0  0  0  0  0  0  0  0  0  0  0
  133.1870  125.3850   64.3040 C   0  0  0  0  0  0  0  0  0  0  0  0
  132.0710  125.4590   65.1340 C   0  0  0  0  0  0  0  0  0  0  0  0
  130.9970  124.5970   64.9250 C   0  0  0  0  0  0  0  0  0  0  0  0
  129.1950  122.4720   59.3170 S   0  0  0  0  0  0  0  0  0  0  0  0
  128.1840  122.7550   57.9200 C   0  0  0  0  0  0  0  0  0  0  0  0
  128.6390  122.5560   56.6830 N   0  0  0  0  0  0  0  0  0  0  0  0
  1  2  1  0
  2  3  2  0
  3  4  1  0
  4  5  1  0
  5  6  1  0
  5  7  1  0
  5  8  1  0
  4  9  2  0
  9 10  1  0
 10 11  1  0
 10 12  2  0
 12 13  1  0
 13 14  2  0
 13 15  1  0
 15 16  1  0
 16 17  1  0
 17 18  2  0
 18 19  1  0
 19 20  2  0
 20 21  1  0
 21 22  2  0
 12 23  1  0
 23 24  1  0
 24 25  2  0
 25  2  1  0
 24  9  1  0
 22 17  1  0
M  END
>  <Binding energies>  (29) 
[-6.7]

>  <Ligand effiencies>  (29) 
[-0.2392857142857143]

>  <Interactions>  (29) 
["V-A:GLY:454:CA:4046, V-B:TYR:539:CD1:9845, V-B:TYR:539:C:9839, V-B:ASP:366:CG:8184, V-B:TYR:539:CE1:9847, V-B:GLU:543:CD:9880, V-B:PRO:540:CB:9857, V-A:ARG:545:CZ:4924, V-B:PRO:540:CA:9855, H-B:ASP:366:OD2:8186, V-B:ALA:541:CB:9864, V-B:ASP:366:CB:8183, V-B:PRO:540:N:9856, V-A:ARG:545:CD:4921, V-B:TYR:539:CE2:9848, V-B:TYR:539:CG:9844, V-B:ILE:538:CB:9834, H-B:TYR:539:N:9842, V-B:TYR:539:CD2:9846, V-B:PRO:540:CD:9859, V-B:ILE:538:CG2:9835, V-B:ILE:538:CA:9832, V-B:MET:535:CE:9807, V-B:TYR:531:CZ:9766, H-B:ALA:541:N:9863, V-B:TYR:531:CE2:9765, V-B:ILE:538:C:9830, V-B:PRO:540:CG:9858, V-B:VAL:537:C:9822, V-B:ALA:541:CA:9862, V-B:LEU:363:CD1:8160, V-B:LEU:363:CA:8156, V-B:LEU:363:CB:8158, V-B:TYR:531:CD2:9763"]

$$$$
4ca_Grossjean_2025
     RDKit          3D

 34 37  0  0  0  0  0  0  0  0999 V2000
  133.2250  132.1640   57.4250 C   0  0  0  0  0  0  0  0  0  0  0  0
  132.4990  132.7450   56.2080 C   0  0  0  0  0  0  0  0  0  0  0  0
  131.3270  133.4270   56.6370 O   0  0  0  0  0  0  0  0  0  0  0  0
  130.1220  132.8010   56.6650 C   0  0  0  0  0  0  0  0  0  0  0  0
  129.1070  133.2560   56.1270 O   0  0  0  0  0  0  0  0  0  0  0  0
  130.1480  131.4990   57.4120 C   0  0  0  0  0  0  0  0  0  0  0  0
  130.3520  130.3080   56.7030 C   0  0  0  0  0  0  0  0  0  0  0  0
  130.3850  129.0850   57.3690 C   0  0  0  0  0  0  0  0  0  0  0  0
  130.2080  129.0280   58.7510 C   0  0  0  0  0  0  0  0  0  0  0  0
  130.2690  127.7410   59.3230 N   0  0  0  0  0  0  0  0  0  0  0  0
  129.4090  127.1190   60.1660 C   0  0  0  0  0  0  0  0  0  0  0  0
  128.3450  127.6050   60.5500 O   0  0  0  0  0  0  0  0  0  0  0  0
  129.8170  125.7810   60.6000 C   0  0  0  0  0  0  0  0  0  0  0  0
  130.0020  124.4860   59.4200 S   0  0  0  0  0  0  0  0  0  0  0  0
  130.5070  123.3650   60.6620 C   0  0  0  0  0  0  0  0  0  0  0  0
  130.8220  122.1050   60.3730 N   0  0  0  0  0  0  0  0  0  0  0  0
  131.2180  121.3120   61.4020 C   0  0  0  0  0  0  0  0  0  0  0  0
  131.5760  119.8990   61.0430 C   0  0  0  0  0  0  0  0  0  0  0  0
  130.6030  118.8870   61.0470 C   0  0  0  0  0  0  0  0  0  0  0  0
  130.9300  117.5740   60.7190 C   0  0  0  0  0  0  0  0  0  0  0  0
  132.2410  117.2520   60.3840 C   0  0  0  0  0  0  0  0  0  0  0  0
  133.2260  118.2340   60.3750 C   0  0  0  0  0  0  0  0  0  0  0  0
  132.8940  119.5460   60.7030 C   0  0  0  0  0  0  0  0  0  0  0  0
  131.2720  121.7820   62.7190 C   0  0  0  0  0  0  0  0  0  0  0  0
  130.9370  123.1070   63.0350 C   0  0  0  0  0  0  0  0  0  0  0  0
  131.0220  123.5570   64.4980 C   0  0  0  0  0  0  0  0  0  0  0  0
  130.2210  124.5870   64.7760 F   0  0  0  0  0  0  0  0  0  0  0  0
  130.6710  122.5520   65.3000 F   0  0  0  0  0  0  0  0  0  0  0  0
  132.2680  123.9330   64.7830 F   0  0  0  0  0  0  0  0  0  0  0  0
  130.5380  123.9530   61.9600 C   0  0  0  0  0  0  0  0  0  0  0  0
  130.1400  125.3380   61.8940 C   0  0  0  0  0  0  0  0  0  0  0  0
  130.0820  126.1460   63.0000 N   0  0  0  0  0  0  0  0  0  0  0  0
  130.0090  130.2150   59.4700 C   0  0  0  0  0  0  0  0  0  0  0  0
  129.9780  131.4380   58.8030 C   0  0  0  0  0  0  0  0  0  0  0  0
  1  2  1  0
  2  3  1  0
  3  4  1  0
  4  5  2  0
  4  6  1  0
  6  7  2  0
  7  8  1  0
  8  9  2  0
  9 10  1  0
 10 11  1  0
 11 12  2  0
 11 13  1  0
 13 14  1  0
 14 15  1  0
 15 16  2  0
 16 17  1  0
 17 18  1  0
 18 19  2  0
 19 20  1  0
 20 21  2  0
 21 22  1  0
 22 23  2  0
 17 24  2  0
 24 25  1  0
 25 26  1  0
 26 27  1  0
 26 28  1  0
 26 29  1  0
 25 30  2  0
 30 31  1  0
 31 32  1  0
  9 33  1  0
 33 34  2  0
 34  6  1  0
 31 13  2  0
 30 15  1  0
 23 18  1  0
M  END
>  <Binding energies>  (30) 
[-7.26]

>  <Ligand effiencies>  (30) 
[-0.1962162162162162]

>  <Interactions>  (30) 
["V-B:GLU:543:CG:9879, V-A:LEU:475:CD2:4256, V-A:GLY:454:CA:4046, V-B:TYR:539:CD1:9845, V-A:TYR:484:CE2:4343, V-B:GLU:543:CB:9878, V-B:TYR:539:CE1:9847, V-B:GLU:543:CD:9880, V-B:ALA:541:CB:9864, V-A:TYR:484:CZ:4344, H-A:ASP:366:OD2:3212, H-B:GLU:543:OE2:9882, H-B:GLU:543:OE1:9881, H-A:GLU:543:OE2:4908, V-A:TYR:539:C:4865, V-A:PRO:540:CA:4881, V-A:PRO:540:CB:4883, V-A:PRO:540:N:4882, V-A:LEU:363:CD1:3186, V-A:TYR:539:CA:4867, V-A:ILE:538:CA:4858, V-A:ILE:538:C:4856, V-A:ILE:538:CB:4860, V-A:MET:535:CE:4833, V-A:PRO:540:CG:4884, V-A:ILE:538:CG2:4861, V-A:PRO:540:CD:4885, V-A:ILE:369:CG2:3234, V-A:LEU:373:CD1:3277, V-A:PRO:482:CG:4324, V-A:SER:385:CA:3404, V-A:SER:385:CB:3406, V-A:PRO:482:CB:4323, V-B:TYR:539:CB:9843, H-A:TYR:539:N:4868, V-A:LEU:363:CA:3182, V-A:LEU:363:CB:3184"]

$$$$
4cb_Grossjean_2025
     RDKit          3D

 33 36  0  0  0  0  0  0  0  0999 V2000
  132.5130  132.5860   56.3200 C   0  0  0  0  0  0  0  0  0  0  0  0
  131.3700  133.3720   56.6290 O   0  0  0  0  0  0  0  0  0  0  0  0
  130.1560  132.7950   56.8210 C   0  0  0  0  0  0  0  0  0  0  0  0
  129.0940  133.3000   56.4450 O   0  0  0  0  0  0  0  0  0  0  0  0
  130.2330  131.4760   57.5380 C   0  0  0  0  0  0  0  0  0  0  0  0
  129.8650  130.3070   56.8600 C   0  0  0  0  0  0  0  0  0  0  0  0
  129.9320  129.0700   57.4940 C   0  0  0  0  0  0  0  0  0  0  0  0
  130.3620  128.9760   58.8180 C   0  0  0  0  0  0  0  0  0  0  0  0
  130.4050  127.6750   59.3560 N   0  0  0  0  0  0  0  0  0  0  0  0
  129.4410  126.9570   59.9820 C   0  0  0  0  0  0  0  0  0  0  0  0
  128.2840  127.3470   60.1460 O   0  0  0  0  0  0  0  0  0  0  0  0
  129.8560  125.6330   60.4560 C   0  0  0  0  0  0  0  0  0  0  0  0
  130.0430  124.3020   59.3160 S   0  0  0  0  0  0  0  0  0  0  0  0
  130.5560  123.2220   60.5910 C   0  0  0  0  0  0  0  0  0  0  0  0
  130.8740  121.9540   60.3420 N   0  0  0  0  0  0  0  0  0  0  0  0
  131.2710  121.1940   61.3960 C   0  0  0  0  0  0  0  0  0  0  0  0
  131.6290  119.7700   61.0830 C   0  0  0  0  0  0  0  0  0  0  0  0
  130.6550  118.7600   61.1260 C   0  0  0  0  0  0  0  0  0  0  0  0
  130.9810  117.4360   60.8400 C   0  0  0  0  0  0  0  0  0  0  0  0
  132.2900  117.1040   60.5060 C   0  0  0  0  0  0  0  0  0  0  0  0
  133.2750  118.0860   60.4590 C   0  0  0  0  0  0  0  0  0  0  0  0
  132.9450  119.4070   60.7470 C   0  0  0  0  0  0  0  0  0  0  0  0
  131.3250  121.7070   62.6970 C   0  0  0  0  0  0  0  0  0  0  0  0
  130.9880  123.0410   62.9710 C   0  0  0  0  0  0  0  0  0  0  0  0
  131.0720  123.5370   64.4200 C   0  0  0  0  0  0  0  0  0  0  0  0
  130.2320  124.5420   64.6770 F   0  0  0  0  0  0  0  0  0  0  0  0
  130.7710  122.5430   65.2540 F   0  0  0  0  0  0  0  0  0  0  0  0
  132.3050  123.9720   64.6780 F   0  0  0  0  0  0  0  0  0  0  0  0
  130.5860  123.8510   61.8700 C   0  0  0  0  0  0  0  0  0  0  0  0
  130.1860  125.2330   61.7610 C   0  0  0  0  0  0  0  0  0  0  0  0
  130.1320  126.0760   62.8410 N   0  0  0  0  0  0  0  0  0  0  0  0
  130.7350  130.1420   59.5040 C   0  0  0  0  0  0  0  0  0  0  0  0
  130.6690  131.3780   58.8680 C   0  0  0  0  0  0  0  0  0  0  0  0
  1  2  1  0
  2  3  1  0
  3  4  2  0
  3  5  1  0
  5  6  2  0
  6  7  1  0
  7  8  2  0
  8  9  1  0
  9 10  1  0
 10 11  2  0
 10 12  1  0
 12 13  1  0
 13 14  1  0
 14 15  2  0
 15 16  1  0
 16 17  1  0
 17 18  2  0
 18 19  1  0
 19 20  2  0
 20 21  1  0
 21 22  2  0
 16 23  2  0
 23 24  1  0
 24 25  1  0
 25 26  1  0
 25 27  1  0
 25 28  1  0
 24 29  2  0
 29 30  1  0
 30 31  1  0
  8 32  1  0
 32 33  2  0
 33  5  1  0
 30 12  2  0
 29 14  1  0
 22 17  1  0
M  END
>  <Binding energies>  (31) 
[-6.88]

>  <Ligand effiencies>  (31) 
[-0.19111111111111112]

>  <Interactions>  (31) 
["V-B:GLU:543:CG:9879, V-A:LEU:475:CD2:4256, V-A:GLY:454:CA:4046, V-B:TYR:539:CD1:9845, V-A:TYR:484:CE2:4343, V-B:GLU:543:CB:9878, V-B:TYR:539:CE1:9847, V-B:GLU:543:CD:9880, V-B:ALA:541:CB:9864, V-A:TYR:484:CZ:4344, H-A:ASP:366:OD2:3212, H-B:GLU:543:OE2:9882, H-A:ASP:366:OD1:3211, V-A:ASP:366:CG:3210, H-B:GLU:543:OE1:9881, H-A:GLU:543:OE2:4908, V-A:TYR:539:C:4865, V-A:PRO:540:CA:4881, V-A:PRO:540:N:4882, V-A:LEU:363:CD1:3186, V-A:TYR:539:CA:4867, V-A:ILE:538:CA:4858, V-A:ILE:538:CB:4860, V-A:MET:535:CE:4833, V-A:ILE:538:CG2:4861, V-A:TYR:531:CE2:4791, V-A:PRO:540:CD:4885, V-A:ILE:369:CG2:3234, V-A:LEU:373:CD1:3277, V-A:PRO:482:CG:4324, V-A:SER:385:CA:3404, V-A:SER:385:CB:3406, V-A:PRO:482:CB:4323, H-A:TYR:539:N:4868"]

$$$$
4cc_Grossjean_2025
     RDKit          3D

 31 34  0  0  0  0  0  0  0  0999 V2000
  124.0060  133.2960   62.3420 C   0  0  0  0  0  0  0  0  0  0  0  0
  124.2080  132.5530   63.5390 O   0  0  0  0  0  0  0  0  0  0  0  0
  124.9590  131.3940   63.4960 C   0  0  0  0  0  0  0  0  0  0  0  0
  125.5550  131.0840   62.2740 C   0  0  0  0  0  0  0  0  0  0  0  0
  126.3320  129.9380   62.1340 C   0  0  0  0  0  0  0  0  0  0  0  0
  126.5150  129.0760   63.2170 C   0  0  0  0  0  0  0  0  0  0  0  0
  127.3280  127.9510   62.9860 N   0  0  0  0  0  0  0  0  0  0  0  0
  127.5730  127.2950   61.8260 C   0  0  0  0  0  0  0  0  0  0  0  0
  127.1190  127.6370   60.7320 O   0  0  0  0  0  0  0  0  0  0  0  0
  128.4390  126.1180   61.9390 C   0  0  0  0  0  0  0  0  0  0  0  0
  128.1520  124.7040   60.9260 S   0  0  0  0  0  0  0  0  0  0  0  0
  129.5100  123.8640   61.6370 C   0  0  0  0  0  0  0  0  0  0  0  0
  129.8440  122.6340   61.2540 N   0  0  0  0  0  0  0  0  0  0  0  0
  130.9200  122.0660   61.8570 C   0  0  0  0  0  0  0  0  0  0  0  0
  131.2710  120.6770   61.4060 C   0  0  0  0  0  0  0  0  0  0  0  0
  132.5380  120.3940   60.8720 C   0  0  0  0  0  0  0  0  0  0  0  0
  132.8700  119.1090   60.4500 C   0  0  0  0  0  0  0  0  0  0  0  0
  131.9350  118.0850   60.5570 C   0  0  0  0  0  0  0  0  0  0  0  0
  130.6710  118.3390   61.0800 C   0  0  0  0  0  0  0  0  0  0  0  0
  130.3430  119.6250   61.4990 C   0  0  0  0  0  0  0  0  0  0  0  0
  131.6450  122.7280   62.8520 C   0  0  0  0  0  0  0  0  0  0  0  0
  131.3010  124.0260   63.2650 C   0  0  0  0  0  0  0  0  0  0  0  0
  132.1430  124.6950   64.3560 C   0  0  0  0  0  0  0  0  0  0  0  0
  132.5180  125.9380   64.0420 F   0  0  0  0  0  0  0  0  0  0  0  0
  131.4420  124.7650   65.4870 F   0  0  0  0  0  0  0  0  0  0  0  0
  133.2520  123.9860   64.5690 F   0  0  0  0  0  0  0  0  0  0  0  0
  130.1790  124.6350   62.6330 C   0  0  0  0  0  0  0  0  0  0  0  0
  129.5410  125.9190   62.7870 C   0  0  0  0  0  0  0  0  0  0  0  0
  129.9780  126.8610   63.6830 N   0  0  0  0  0  0  0  0  0  0  0  0
  125.9290  129.3880   64.4530 C   0  0  0  0  0  0  0  0  0  0  0  0
  125.1540  130.5360   64.5880 C   0  0  0  0  0  0  0  0  0  0  0  0
  1  2  1  0
  2  3  1  0
  3  4  2  0
  4  5  1  0
  5  6  2  0
  6  7  1  0
  7  8  1  0
  8  9  2  0
  8 10  1  0
 10 11  1  0
 11 12  1  0
 12 13  2  0
 13 14  1  0
 14 15  1  0
 15 16  2  0
 16 17  1  0
 17 18  2  0
 18 19  1  0
 19 20  2  0
 14 21  2  0
 21 22  1  0
 22 23  1  0
 23 24  1  0
 23 25  1  0
 23 26  1  0
 22 27  2  0
 27 28  1  0
 28 29  1  0
  6 30  1  0
 30 31  2  0
 31  3  1  0
 28 10  2  0
 27 12  1  0
 20 15  1  0
M  END
>  <Binding energies>  (32) 
[-7.36]

>  <Ligand effiencies>  (32) 
[-0.21647058823529414]

>  <Interactions>  (32) 
["V-A:LEU:475:CD2:4256, V-A:GLY:454:CA:4046, V-B:TYR:539:CD1:9845, V-B:TYR:539:CE1:9847, V-B:GLU:543:CD:9880, V-A:ARG:545:CZ:4924, V-B:ALA:541:CB:9864, V-A:TYR:484:CZ:4344, H-B:GLU:543:OE2:9882, V-B:ARG:545:CZ:9898, H-B:GLU:543:OE1:9881, H-A:GLU:543:OE2:4908, H-A:GLU:543:OE1:4907, V-A:GLU:543:CD:4906, V-A:GLY:453:C:4039, V-B:LEU:475:CD2:9230, V-B:ILE:369:CD1:8210, V-B:ILE:369:CG2:8208, V-A:ILE:369:CG2:3234, H-B:GLY:454:N:9021, V-A:LEU:373:CD1:3277, V-A:PRO:482:CG:4324, V-A:SER:385:CA:3404, V-A:PRO:482:CB:4323, V-B:GLY:454:CA:9020"]

$$$$
4ce_Grossjean_2025
     RDKit          3D

 30 33  0  0  0  0  0  0  0  0999 V2000
  123.9820  131.0660   61.4130 C   0  0  0  0  0  0  0  0  0  0  0  0
  124.9200  130.6080   62.5130 C   0  0  0  0  0  0  0  0  0  0  0  0
  124.9860  131.2740   63.7400 C   0  0  0  0  0  0  0  0  0  0  0  0
  125.8670  130.7910   64.7100 C   0  0  0  0  0  0  0  0  0  0  0  0
  126.6490  129.6690   64.4340 C   0  0  0  0  0  0  0  0  0  0  0  0
  126.5370  129.0530   63.1820 C   0  0  0  0  0  0  0  0  0  0  0  0
  127.3330  127.9120   62.9720 N   0  0  0  0  0  0  0  0  0  0  0  0
  127.6110  127.2730   61.8090 C   0  0  0  0  0  0  0  0  0  0  0  0
  127.1900  127.6380   60.7100 O   0  0  0  0  0  0  0  0  0  0  0  0
  128.4650  126.0890   61.9290 C   0  0  0  0  0  0  0  0  0  0  0  0
  128.1340  124.6560   60.9600 S   0  0  0  0  0  0  0  0  0  0  0  0
  129.5210  123.8290   61.6290 C   0  0  0  0  0  0  0  0  0  0  0  0
  129.8390  122.5920   61.2550 N   0  0  0  0  0  0  0  0  0  0  0  0
  130.9440  122.0370   61.8190 C   0  0  0  0  0  0  0  0  0  0  0  0
  131.2770  120.6450   61.3720 C   0  0  0  0  0  0  0  0  0  0  0  0
  132.5370  120.3510   60.8250 C   0  0  0  0  0  0  0  0  0  0  0  0
  132.8510  119.0620   60.4010 C   0  0  0  0  0  0  0  0  0  0  0  0
  131.9080  118.0470   60.5220 C   0  0  0  0  0  0  0  0  0  0  0  0
  130.6540  118.3110   61.0590 C   0  0  0  0  0  0  0  0  0  0  0  0
  130.3420  119.6020   61.4790 C   0  0  0  0  0  0  0  0  0  0  0  0
  131.7100  122.7190   62.7700 C   0  0  0  0  0  0  0  0  0  0  0  0
  131.3810  124.0220   63.1760 C   0  0  0  0  0  0  0  0  0  0  0  0
  132.2650  124.7110   64.2200 C   0  0  0  0  0  0  0  0  0  0  0  0
  132.8370  125.8280   63.7680 F   0  0  0  0  0  0  0  0  0  0  0  0
  131.5310  125.0410   65.2840 F   0  0  0  0  0  0  0  0  0  0  0  0
  133.2410  123.8860   64.5990 F   0  0  0  0  0  0  0  0  0  0  0  0
  130.2330  124.6190   62.5790 C   0  0  0  0  0  0  0  0  0  0  0  0
  129.6040  125.9080   62.7320 C   0  0  0  0  0  0  0  0  0  0  0  0
  130.0800  126.8700   63.5850 N   0  0  0  0  0  0  0  0  0  0  0  0
  125.6750  129.5160   62.2300 N   0  0  0  0  0  0  0  0  0  0  0  0
  1  2  1  0
  2  3  2  0
  3  4  1  0
  4  5  2  0
  5  6  1  0
  6  7  1  0
  7  8  1  0
  8  9  2  0
  8 10  1  0
 10 11  1  0
 11 12  1  0
 12 13  2  0
 13 14  1  0
 14 15  1  0
 15 16  2  0
 16 17  1  0
 17 18  2  0
 18 19  1  0
 19 20  2  0
 14 21  2  0
 21 22  1  0
 22 23  1  0
 23 24  1  0
 23 25  1  0
 23 26  1  0
 22 27  2  0
 27 28  1  0
 28 29  1  0
  6 30  2  0
 30  2  1  0
 28 10  2  0
 27 12  1  0
 20 15  1  0
M  END
>  <Binding energies>  (33) 
[-7.69]

>  <Ligand effiencies>  (33) 
[-0.23303030303030303]

>  <Interactions>  (33) 
["V-A:LEU:475:CD2:4256, V-A:GLY:454:CA:4046, V-B:TYR:539:CD1:9845, V-B:TYR:539:CE1:9847, V-B:GLU:543:CD:9880, V-A:ARG:545:CZ:4924, V-B:ALA:541:CB:9864, V-A:TYR:484:CZ:4344, H-B:GLU:543:OE2:9882, V-B:ARG:545:CZ:9898, H-B:GLU:543:OE1:9881, H-A:GLU:543:OE2:4908, H-A:GLU:543:OE1:4907, V-A:GLU:543:CD:4906, V-A:GLY:453:C:4039, H-B:ARG:545:NH2:9900, V-B:ILE:369:CD1:8210, V-A:ILE:369:CG2:3234, V-A:LEU:373:CD1:3277, V-A:PRO:482:CG:4324, V-A:SER:385:CA:3404, V-A:PRO:482:CB:4323, V-B:GLY:454:CA:9020"]

$$$$
4cf_Grossjean_2025
     RDKit          3D

 29 32  0  0  0  0  0  0  0  0999 V2000
  129.9080  126.9560   63.6900 N   0  0  0  0  0  0  0  0  0  0  0  0
  129.4700  126.0050   62.8050 C   0  0  0  0  0  0  0  0  0  0  0  0
  128.3500  126.1840   61.9750 C   0  0  0  0  0  0  0  0  0  0  0  0
  127.4410  127.3310   61.9020 C   0  0  0  0  0  0  0  0  0  0  0  0
  126.8860  127.6240   60.8420 O   0  0  0  0  0  0  0  0  0  0  0  0
  127.2630  128.0050   63.0630 N   0  0  0  0  0  0  0  0  0  0  0  0
  126.5070  129.1650   63.3220 C   0  0  0  0  0  0  0  0  0  0  0  0
  126.4690  130.3140   62.5080 C   0  0  0  0  0  0  0  0  0  0  0  0
  125.6850  131.4040   62.8900 C   0  0  0  0  0  0  0  0  0  0  0  0
  124.9580  131.3220   64.0780 C   0  0  0  0  0  0  0  0  0  0  0  0
  124.9820  130.2300   64.8830 N   0  0  0  0  0  0  0  0  0  0  0  0
  125.7500  129.1780   64.4990 C   0  0  0  0  0  0  0  0  0  0  0  0
  128.0760  124.7680   60.9630 S   0  0  0  0  0  0  0  0  0  0  0  0
  129.4530  123.9470   61.6610 C   0  0  0  0  0  0  0  0  0  0  0  0
  129.7960  122.7180   61.2800 N   0  0  0  0  0  0  0  0  0  0  0  0
  130.8710  122.1560   61.8920 C   0  0  0  0  0  0  0  0  0  0  0  0
  131.2300  120.7680   61.4470 C   0  0  0  0  0  0  0  0  0  0  0  0
  132.5220  120.4740   60.9860 C   0  0  0  0  0  0  0  0  0  0  0  0
  132.8630  119.1880   60.5720 C   0  0  0  0  0  0  0  0  0  0  0  0
  131.9120  118.1750   60.6180 C   0  0  0  0  0  0  0  0  0  0  0  0
  130.6240  118.4370   61.0740 C   0  0  0  0  0  0  0  0  0  0  0  0
  130.2890  119.7240   61.4870 C   0  0  0  0  0  0  0  0  0  0  0  0
  131.6100  122.8380   62.8630 C   0  0  0  0  0  0  0  0  0  0  0  0
  131.2590  124.1350   63.2690 C   0  0  0  0  0  0  0  0  0  0  0  0
  132.1090  124.8240   64.3430 C   0  0  0  0  0  0  0  0  0  0  0  0
  133.2020  124.1310   64.6700 F   0  0  0  0  0  0  0  0  0  0  0  0
  132.5100  126.0170   63.9050 F   0  0  0  0  0  0  0  0  0  0  0  0
  131.3910  124.9820   65.4550 F   0  0  0  0  0  0  0  0  0  0  0  0
  130.1220  124.7280   62.6470 C   0  0  0  0  0  0  0  0  0  0  0  0
  1  2  1  0
  2  3  2  0
  3  4  1  0
  4  5  2  0
  4  6  1  0
  6  7  1  0
  7  8  2  0
  8  9  1  0
  9 10  2  0
 10 11  1  0
 11 12  2  0
  3 13  1  0
 13 14  1  0
 14 15  2  0
 15 16  1  0
 16 17  1  0
 17 18  2  0
 18 19  1  0
 19 20  2  0
 20 21  1  0
 21 22  2  0
 16 23  2  0
 23 24  1  0
 24 25  1  0
 25 26  1  0
 25 27  1  0
 25 28  1  0
 24 29  2  0
 29  2  1  0
 12  7  1  0
 29 14  1  0
 22 17  1  0
M  END
>  <Binding energies>  (34) 
[-7.5]

>  <Ligand effiencies>  (34) 
[-0.234375]

>  <Interactions>  (34) 
["V-A:LEU:475:CD2:4256, V-A:GLY:454:CA:4046, V-B:TYR:539:CD1:9845, V-B:TYR:539:CE1:9847, V-B:GLU:543:CD:9880, V-A:ARG:545:CZ:4924, V-B:ALA:541:CB:9864, V-A:TYR:484:CZ:4344, H-B:GLU:543:OE2:9882, V-B:ARG:545:CZ:9898, H-B:GLU:543:OE1:9881, H-A:GLU:543:OE2:4908, H-A:GLU:543:OE1:4907, V-A:GLU:543:CD:4906, V-A:GLY:453:C:4039, H-B:ARG:545:NH2:9900, H-B:TYR:484:OH:9319, V-A:ILE:369:CG2:3234, H-B:GLY:454:N:9021, V-A:LEU:373:CD1:3277, V-A:PRO:482:CG:4324, V-A:SER:385:CA:3404, V-A:PRO:482:CB:4323, V-B:GLY:454:CA:9020"]

$$$$
4ci_Grossjean_2025
     RDKit          3D

 28 31  0  0  0  0  0  0  0  0999 V2000
  132.4150  125.8210   62.0670 N   0  0  0  0  0  0  0  0  0  0  0  0
  131.8910  124.6410   62.5260 C   0  0  0  0  0  0  0  0  0  0  0  0
  131.0850  124.5500   63.6720 C   0  0  0  0  0  0  0  0  0  0  0  0
  130.6440  125.6250   64.5650 C   0  0  0  0  0  0  0  0  0  0  0  0
  129.9050  126.5220   64.1520 O   0  0  0  0  0  0  0  0  0  0  0  0
  131.1130  125.5580   65.8360 N   0  0  0  0  0  0  0  0  0  0  0  0
  130.8590  126.4390   66.8790 C   0  0  0  0  0  0  0  0  0  0  0  0
  129.5890  126.6320   67.4220 C   0  0  0  0  0  0  0  0  0  0  0  0
  129.7620  127.5690   68.4140 C   0  0  0  0  0  0  0  0  0  0  0  0
  131.0690  127.9220   68.4670 O   0  0  0  0  0  0  0  0  0  0  0  0
  131.7530  127.1990   67.4890 N   0  0  0  0  0  0  0  0  0  0  0  0
  130.5790  122.8880   63.9650 S   0  0  0  0  0  0  0  0  0  0  0  0
  131.4540  122.3260   62.5600 C   0  0  0  0  0  0  0  0  0  0  0  0
  131.4620  121.0410   62.2140 N   0  0  0  0  0  0  0  0  0  0  0  0
  132.1670  120.6990   61.1050 C   0  0  0  0  0  0  0  0  0  0  0  0
  132.1610  119.2420   60.7420 C   0  0  0  0  0  0  0  0  0  0  0  0
  130.9580  118.5160   60.6950 C   0  0  0  0  0  0  0  0  0  0  0  0
  130.9460  117.1650   60.3590 C   0  0  0  0  0  0  0  0  0  0  0  0
  132.1410  116.5170   60.0650 C   0  0  0  0  0  0  0  0  0  0  0  0
  133.3460  117.2080   60.1090 C   0  0  0  0  0  0  0  0  0  0  0  0
  133.3540  118.5590   60.4470 C   0  0  0  0  0  0  0  0  0  0  0  0
  132.8750  121.6480   60.3600 C   0  0  0  0  0  0  0  0  0  0  0  0
  132.8740  123.0060   60.7160 C   0  0  0  0  0  0  0  0  0  0  0  0
  133.6720  123.9910   59.8540 C   0  0  0  0  0  0  0  0  0  0  0  0
  134.0800  123.4650   58.6980 F   0  0  0  0  0  0  0  0  0  0  0  0
  132.9160  125.0500   59.5650 F   0  0  0  0  0  0  0  0  0  0  0  0
  134.7580  124.3930   60.5150 F   0  0  0  0  0  0  0  0  0  0  0  0
  132.1270  123.3760   61.8700 C   0  0  0  0  0  0  0  0  0  0  0  0
  1  2  1  0
  2  3  2  0
  3  4  1  0
  4  5  2  0
  4  6  1  0
  6  7  1  0
  7  8  1  0
  8  9  2  0
  9 10  1  0
 10 11  1  0
  3 12  1  0
 12 13  1  0
 13 14  2  0
 14 15  1  0
 15 16  1  0
 16 17  2  0
 17 18  1  0
 18 19  2  0
 19 20  1  0
 20 21  2  0
 15 22  2  0
 22 23  1  0
 23 24  1  0
 24 25  1  0
 24 26  1  0
 24 27  1  0
 23 28  2  0
 28  2  1  0
 11  7  2  0
 28 13  1  0
 21 16  1  0
M  END
>  <Binding energies>  (35) 
[-7.2]

>  <Ligand effiencies>  (35) 
[-0.23225806451612904]

>  <Interactions>  (35) 
["V-A:HIS:456:CE1:4066, V-B:GLU:543:CG:9879, V-A:LEU:475:CD2:4256, H-A:TYR:484:OH:4345, V-B:TYR:539:CD1:9845, V-B:GLU:543:CB:9878, V-B:TYR:539:CE1:9847, V-B:GLU:543:CD:9880, V-A:ARG:545:CZ:4924, V-B:ALA:541:CB:9864, H-A:ASP:366:OD2:3212, H-A:ASP:366:OD1:3211, V-A:ASP:366:CG:3210, V-A:GLU:543:CD:4906, V-A:ILE:369:CD1:3236, H-A:ARG:545:NE:4922, V-B:TYR:539:CG:9844, V-B:TYR:539:CZ:9849, V-A:ILE:369:CG2:3234, V-A:ILE:369:CB:3233, V-A:LEU:373:CD1:3277, V-A:PRO:482:CG:4324, V-A:SER:385:CA:3404, V-A:SER:385:CB:3406, V-A:PRO:482:CB:4323, V-A:VAL:384:C:3394, V-A:ASP:366:CB:3209, V-A:ASP:366:CA:3207, V-B:TYR:539:CB:9843, V-A:GLU:543:CG:4905, V-A:ILE:369:CG1:3235"]

$$$$
8a_Ghoteimi_2023
     RDKit          3D

 40 44  0  0  0  0  0  0  0  0999 V2000
  131.3650  126.5000   73.5370 C   0  0  0  0  0  0  0  0  0  0  0  0
  130.0130  125.9090   73.1280 C   0  0  0  0  0  0  0  0  0  0  0  0
  129.0450  126.9480   73.0560 O   0  0  0  0  0  0  0  0  0  0  0  0
  129.2600  128.0560   72.2980 C   0  0  0  0  0  0  0  0  0  0  0  0
  129.2760  129.2020   72.7580 O   0  0  0  0  0  0  0  0  0  0  0  0
  129.4720  127.7480   70.8440 C   0  0  0  0  0  0  0  0  0  0  0  0
  128.4030  127.2510   70.0880 C   0  0  0  0  0  0  0  0  0  0  0  0
  128.5670  126.9550   68.7380 C   0  0  0  0  0  0  0  0  0  0  0  0
  129.8020  127.1460   68.1150 C   0  0  0  0  0  0  0  0  0  0  0  0
  129.8520  126.8080   66.7480 N   0  0  0  0  0  0  0  0  0  0  0  0
  130.4210  125.7440   66.1290 C   0  0  0  0  0  0  0  0  0  0  0  0
  131.0280  124.8450   66.7110 O   0  0  0  0  0  0  0  0  0  0  0  0
  130.2640  125.7130   64.6710 C   0  0  0  0  0  0  0  0  0  0  0  0
  129.4070  127.0100   63.8400 S   0  0  0  0  0  0  0  0  0  0  0  0
  129.6520  126.2420   62.2890 C   0  0  0  0  0  0  0  0  0  0  0  0
  129.1740  126.7690   61.1620 N   0  0  0  0  0  0  0  0  0  0  0  0
  129.4160  126.0880   60.0110 C   0  0  0  0  0  0  0  0  0  0  0  0
  128.8530  126.6880   58.7620 C   0  0  0  0  0  0  0  0  0  0  0  0
  127.5600  127.2290   58.7390 C   0  0  0  0  0  0  0  0  0  0  0  0
  127.0370  127.7760   57.5700 C   0  0  0  0  0  0  0  0  0  0  0  0
  127.7920  127.7970   56.3990 C   0  0  0  0  0  0  0  0  0  0  0  0
  127.1910  128.3570   55.2870 O   0  0  0  0  0  0  0  0  0  0  0  0
  126.4750  129.5790   55.4280 C   0  0  0  0  0  0  0  0  0  0  0  0
  129.0880  127.2640   56.4130 C   0  0  0  0  0  0  0  0  0  0  0  0
  129.6080  126.7150   57.5830 C   0  0  0  0  0  0  0  0  0  0  0  0
  130.1370  124.8930   59.9890 C   0  0  0  0  0  0  0  0  0  0  0  0
  130.6550  124.3440   61.1670 C   0  0  0  0  0  0  0  0  0  0  0  0
  131.4420  123.0870   61.0820 C   0  0  0  0  0  0  0  0  0  0  0  0
  130.8060  121.8500   61.2020 C   0  0  0  0  0  0  0  0  0  0  0  0
  131.5370  120.6690   61.1030 C   0  0  0  0  0  0  0  0  0  0  0  0
  132.9130  120.7040   60.8780 C   0  0  0  0  0  0  0  0  0  0  0  0
  133.5550  119.4830   60.7940 O   0  0  0  0  0  0  0  0  0  0  0  0
  132.7790  118.2940   60.7130 C   0  0  0  0  0  0  0  0  0  0  0  0
  133.5530  121.9460   60.7490 C   0  0  0  0  0  0  0  0  0  0  0  0
  132.8190  123.1260   60.8470 C   0  0  0  0  0  0  0  0  0  0  0  0
  130.3950  125.0280   62.3870 C   0  0  0  0  0  0  0  0  0  0  0  0
  130.7150  124.7410   63.7640 C   0  0  0  0  0  0  0  0  0  0  0  0
  131.3880  123.6060   64.1430 N   0  0  0  0  0  0  0  0  0  0  0  0
  130.8770  127.6480   68.8640 C   0  0  0  0  0  0  0  0  0  0  0  0
  130.7110  127.9440   70.2140 C   0  0  0  0  0  0  0  0  0  0  0  0
  1  2  1  0
  2  3  1  0
  3  4  1  0
  4  5  2  0
  4  6  1  0
  6  7  2  0
  7  8  1  0
  8  9  2  0
  9 10  1  0
 10 11  1  0
 11 12  2  0
 11 13  1  0
 13 14  1  0
 14 15  1  0
 15 16  2  0
 16 17  1  0
 17 18  1  0
 18 19  2  0
 19 20  1  0
 20 21  2  0
 21 22  1  0
 22 23  1  0
 21 24  1  0
 24 25  2  0
 17 26  2  0
 26 27  1  0
 27 28  1  0
 28 29  2  0
 29 30  1  0
 30 31  2  0
 31 32  1  0
 32 33  1  0
 31 34  1  0
 34 35  2  0
 27 36  2  0
 36 37  1  0
 37 38  1  0
  9 39  1  0
 39 40  2  0
 40  6  1  0
 37 13  2  0
 36 15  1  0
 25 18  1  0
 35 28  1  0
M  END
>  <Binding energies>  (36) 
[-7.04]

>  <Ligand effiencies>  (36) 
[-0.16372093023255815]

>  <Interactions>  (36) 
["V-B:LYS:547:CE:9922, H-B:LYS:547:NZ:9923, V-B:HIS:456:CE1:9040, V-A:HIS:456:CD2:4065, V-A:LYS:547:CE:4948, H-A:LYS:547:NZ:4949, V-B:HIS:456:CD2:9039, V-A:HIS:456:CB:4062, V-A:HIS:456:CE1:4066, V-A:HIS:456:CG:4063, V-A:GLY:544:C:4910, V-B:GLU:543:CG:9879, V-A:LEU:475:CD2:4256, H-A:TYR:484:OH:4345, V-B:TYR:539:CD1:9845, V-B:GLU:543:CB:9878, V-B:TYR:539:CE1:9847, V-B:GLU:543:CD:9880, H-B:GLU:543:OE2:9882, H-A:GLU:543:OE2:4908, H-A:GLU:543:OE1:4907, H-B:TYR:531:OH:9767, V-A:GLU:543:CD:4906, V-A:ILE:369:CD1:3236, V-A:ARG:545:CG:4920, V-A:MET:535:CE:4833, V-B:MET:535:CE:9807, V-A:ILE:369:CG2:3234, V-A:LEU:373:CD1:3277, V-A:SER:385:CA:3404, V-A:SER:385:CB:3406, V-B:TYR:531:CZ:9766, V-B:TYR:531:CE1:9764, V-B:GLU:543:C:9874, V-A:GLU:543:C:4900, H-A:HIS:456:NE2:4067, V-A:GLY:544:CA:4912, H-B:HIS:456:NE2:9041, V-A:GLU:543:CG:4905"]

$$$$
8c_Ghoteimi_2023
     RDKit          3D

 34 38  0  0  0  0  0  0  0  0999 V2000
  133.6460  116.5200   59.9120 C   0  0  0  0  0  0  0  0  0  0  0  0
  132.5060  117.0270   60.5950 O   0  0  0  0  0  0  0  0  0  0  0  0
  132.3660  118.3930   60.7520 C   0  0  0  0  0  0  0  0  0  0  0  0
  131.0830  118.8610   61.0280 C   0  0  0  0  0  0  0  0  0  0  0  0
  130.8480  120.2220   61.1990 C   0  0  0  0  0  0  0  0  0  0  0  0
  131.8920  121.1520   61.0980 C   0  0  0  0  0  0  0  0  0  0  0  0
  131.6450  122.6170   61.2760 C   0  0  0  0  0  0  0  0  0  0  0  0
  131.6650  123.2190   62.5380 C   0  0  0  0  0  0  0  0  0  0  0  0
  131.4330  124.5920   62.6770 C   0  0  0  0  0  0  0  0  0  0  0  0
  131.4520  125.1970   64.0280 C   0  0  0  0  0  0  0  0  0  0  0  0
  130.2590  125.5800   64.6450 C   0  0  0  0  0  0  0  0  0  0  0  0
  130.2780  126.1400   65.9180 C   0  0  0  0  0  0  0  0  0  0  0  0
  131.4850  126.3290   66.5930 C   0  0  0  0  0  0  0  0  0  0  0  0
  131.4080  126.8890   67.8530 O   0  0  0  0  0  0  0  0  0  0  0  0
  130.2010  127.5260   68.2570 C   0  0  0  0  0  0  0  0  0  0  0  0
  132.6840  125.9480   65.9700 C   0  0  0  0  0  0  0  0  0  0  0  0
  132.6640  125.3870   64.6960 C   0  0  0  0  0  0  0  0  0  0  0  0
  131.1840  125.3500   61.5020 C   0  0  0  0  0  0  0  0  0  0  0  0
  130.9160  126.7460   61.2800 C   0  0  0  0  0  0  0  0  0  0  0  0
  130.8580  127.6560   62.3060 N   0  0  0  0  0  0  0  0  0  0  0  0
  130.7250  127.0820   59.9300 C   0  0  0  0  0  0  0  0  0  0  0  0
  130.4410  128.3950   59.3480 C   0  0  0  0  0  0  0  0  0  0  0  0
  129.4150  129.0090   59.6490 O   0  0  0  0  0  0  0  0  0  0  0  0
  131.3720  128.8590   58.4780 N   0  0  0  0  0  0  0  0  0  0  0  0
  131.3460  130.0660   57.7940 C   0  0  0  0  0  0  0  0  0  0  0  0
  130.3780  130.5520   57.0480 N   0  0  0  0  0  0  0  0  0  0  0  0
  130.6940  131.7320   56.5520 C   0  0  0  0  0  0  0  0  0  0  0  0
  131.9470  132.2280   56.8940 C   0  0  0  0  0  0  0  0  0  0  0  0
  132.7490  131.0780   57.9220 S   0  0  0  0  0  0  0  0  0  0  0  0
  130.8780  125.6620   58.8940 S   0  0  0  0  0  0  0  0  0  0  0  0
  131.1930  124.6330   60.2710 C   0  0  0  0  0  0  0  0  0  0  0  0
  131.4120  123.3240   60.1370 N   0  0  0  0  0  0  0  0  0  0  0  0
  133.1800  120.6740   60.8220 C   0  0  0  0  0  0  0  0  0  0  0  0
  133.4190  119.3140   60.6500 C   0  0  0  0  0  0  0  0  0  0  0  0
  1  2  1  0
  2  3  1  0
  3  4  2  0
  4  5  1  0
  5  6  2  0
  6  7  1  0
  7  8  2  0
  8  9  1  0
  9 10  1  0
 10 11  2  0
 11 12  1  0
 12 13  2  0
 13 14  1  0
 14 15  1  0
 13 16  1  0
 16 17  2  0
  9 18  2  0
 18 19  1  0
 19 20  1  0
 19 21  2  0
 21 22  1  0
 22 23  2  0
 22 24  1  0
 24 25  1  0
 25 26  2  0
 26 27  1  0
 27 28  2  0
 28 29  1  0
 21 30  1  0
 30 31  1  0
 31 32  2  0
  6 33  1  0
 33 34  2  0
 34  3  1  0
 32  7  1  0
 17 10  1  0
 31 18  1  0
 29 25  1  0
M  END
>  <Binding energies>  (37) 
[-6.68]

>  <Ligand effiencies>  (37) 
[-0.18054054054054053]

>  <Interactions>  (37) 
["V-A:HIS:456:CE1:4066, V-B:GLU:543:CG:9879, V-A:LEU:475:CD2:4256, V-B:TYR:539:CD1:9845, V-B:GLU:543:CB:9878, V-B:TYR:539:CE1:9847, V-B:GLU:543:CD:9880, V-A:ARG:545:CZ:4924, V-B:ALA:541:CB:9864, H-A:ASP:366:OD2:3212, H-A:ASP:366:OD1:3211, V-A:ASP:366:CG:3210, H-A:GLU:543:OE2:4908, H-A:GLU:543:OE1:4907, V-A:GLU:543:CD:4906, V-A:ARG:545:CD:4921, V-A:ARG:545:CG:4920, V-A:PRO:540:CB:4883, V-A:PRO:540:N:4882, V-A:MET:535:CE:4833, V-A:PRO:540:CD:4885, V-A:ILE:369:CG2:3234, H-A:TYR:531:OH:4793, V-A:LEU:373:CD1:3277, V-A:SER:385:CA:3404, V-A:SER:385:CB:3406, V-A:VAL:384:C:3394, V-A:ASP:366:CB:3209, H-A:HIS:456:NE2:4067, V-A:GLU:543:CG:4905, V-A:LEU:373:CD2:3278, V-A:SER:385:C:3402"]

$$$$
8d_Ghoteimi_2023
     RDKit          3D

 30 33  0  0  0  0  0  0  0  0999 V2000
  127.8520  122.7240   55.4880 C   0  0  0  0  0  0  0  0  0  0  0  0
  126.7020  122.0310   55.9530 O   0  0  0  0  0  0  0  0  0  0  0  0
  125.9680  122.5160   56.9880 C   0  0  0  0  0  0  0  0  0  0  0  0
  124.7520  122.3480   57.1100 O   0  0  0  0  0  0  0  0  0  0  0  0
  126.7800  123.2730   57.9650 C   0  0  0  0  0  0  0  0  0  0  0  0
  128.0740  122.4630   58.8500 S   0  0  0  0  0  0  0  0  0  0  0  0
  128.4710  123.9390   59.6990 C   0  0  0  0  0  0  0  0  0  0  0  0
  129.4550  123.9920   60.5970 N   0  0  0  0  0  0  0  0  0  0  0  0
  129.6810  125.1910   61.1980 C   0  0  0  0  0  0  0  0  0  0  0  0
  130.7870  125.2210   62.2050 C   0  0  0  0  0  0  0  0  0  0  0  0
  132.0760  124.7750   61.8790 C   0  0  0  0  0  0  0  0  0  0  0  0
  133.1020  124.8050   62.8190 C   0  0  0  0  0  0  0  0  0  0  0  0
  132.8670  125.2800   64.1090 C   0  0  0  0  0  0  0  0  0  0  0  0
  133.9430  125.2730   64.9750 O   0  0  0  0  0  0  0  0  0  0  0  0
  133.7080  125.3800   66.3750 C   0  0  0  0  0  0  0  0  0  0  0  0
  131.5830  125.7300   64.4450 C   0  0  0  0  0  0  0  0  0  0  0  0
  130.5600  125.6990   63.5010 C   0  0  0  0  0  0  0  0  0  0  0  0
  128.9210  126.3270   60.9060 C   0  0  0  0  0  0  0  0  0  0  0  0
  127.8910  126.2720   59.9620 C   0  0  0  0  0  0  0  0  0  0  0  0
  127.1090  127.4960   59.6680 C   0  0  0  0  0  0  0  0  0  0  0  0
  126.4860  128.1970   60.7030 C   0  0  0  0  0  0  0  0  0  0  0  0
  125.7440  129.3410   60.4260 C   0  0  0  0  0  0  0  0  0  0  0  0
  125.6160  129.8040   59.1160 C   0  0  0  0  0  0  0  0  0  0  0  0
  124.8610  130.9460   58.9360 O   0  0  0  0  0  0  0  0  0  0  0  0
  123.5320  130.9870   59.4430 C   0  0  0  0  0  0  0  0  0  0  0  0
  126.2470  129.0990   58.0770 C   0  0  0  0  0  0  0  0  0  0  0  0
  126.9880  127.9540   58.3560 C   0  0  0  0  0  0  0  0  0  0  0  0
  127.6390  125.0310   59.3200 C   0  0  0  0  0  0  0  0  0  0  0  0
  126.6830  124.6220   58.3290 C   0  0  0  0  0  0  0  0  0  0  0  0
  125.7560  125.4810   57.7960 N   0  0  0  0  0  0  0  0  0  0  0  0
  1  2  1  0
  2  3  1  0
  3  4  2  0
  3  5  1  0
  5  6  1  0
  6  7  1  0
  7  8  2  0
  8  9  1  0
  9 10  1  0
 10 11  2  0
 11 12  1  0
 12 13  2  0
 13 14  1  0
 14 15  1  0
 13 16  1  0
 16 17  2  0
  9 18  2  0
 18 19  1  0
 19 20  1  0
 20 21  2  0
 21 22  1  0
 22 23  2  0
 23 24  1  0
 24 25  1  0
 23 26  1  0
 26 27  2  0
 19 28  2  0
 28 29  1  0
 29 30  1  0
 29  5  2  0
 28  7  1  0
 17 10  1  0
 27 20  1  0
M  END
>  <Binding energies>  (38) 
[-7.75]

>  <Ligand effiencies>  (38) 
[-0.2421875]

>  <Interactions>  (38) 
["V-A:HIS:456:CE1:4066, H-A:TYR:484:OH:4345, V-B:TYR:539:CD1:9845, V-B:TYR:539:C:9839, V-B:ASP:366:CG:8184, V-B:TYR:539:CE1:9847, V-B:GLU:543:CD:9880, V-B:PRO:540:CB:9857, V-A:ARG:545:CZ:4924, V-B:PRO:540:CA:9855, H-B:ASP:366:OD2:8186, V-A:TYR:484:CZ:4344, V-B:ASP:366:CB:8183, V-B:PRO:540:N:9856, H-B:TYR:531:OH:9767, V-A:ARG:545:CD:4921, V-A:ARG:545:CG:4920, H-A:ARG:545:NE:4922, V-B:ILE:369:CD1:8210, V-B:ILE:369:CG2:8208, V-B:TYR:539:CE2:9848, V-B:ILE:538:CB:9834, H-B:TYR:539:N:9842, V-B:TYR:539:CD2:9846, V-B:PRO:540:CD:9859, V-B:ILE:538:CG2:9835, V-B:ILE:538:CA:9832, V-B:MET:535:CE:9807, V-B:TYR:531:CZ:9766, V-B:ILE:538:C:9830, H-A:GLY:454:N:4047, H-A:TYR:539:OH:4876, V-B:ASP:366:CA:8181, V-B:ILE:369:CB:8207"]

$$$$
9a_Ghoteimi_2023
     RDKit          3D

 48 54  0  0  0  0  0  0  0  0999 V2000
  131.4020  116.3920   58.9480 C   0  0  0  0  0  0  0  0  0  0  0  0
  132.2450  117.1380   59.9870 C   0  0  0  0  0  0  0  0  0  0  0  0
  132.1430  118.5390   59.7610 O   0  0  0  0  0  0  0  0  0  0  0  0
  133.0690  119.3980   60.2600 C   0  0  0  0  0  0  0  0  0  0  0  0
  134.2730  119.3340   59.9880 O   0  0  0  0  0  0  0  0  0  0  0  0
  132.4860  120.4320   61.1800 C   0  0  0  0  0  0  0  0  0  0  0  0
  133.3010  121.0140   62.1600 C   0  0  0  0  0  0  0  0  0  0  0  0
  132.7890  121.9730   63.0290 C   0  0  0  0  0  0  0  0  0  0  0  0
  131.4560  122.3730   62.9370 C   0  0  0  0  0  0  0  0  0  0  0  0
  131.0490  123.3490   63.8670 N   0  0  0  0  0  0  0  0  0  0  0  0
  131.6150  124.5350   64.2000 C   0  0  0  0  0  0  0  0  0  0  0  0
  132.6520  124.9720   63.7000 O   0  0  0  0  0  0  0  0  0  0  0  0
  130.8990  125.3050   65.2220 C   0  0  0  0  0  0  0  0  0  0  0  0
  131.0540  124.8810   66.9280 S   0  0  0  0  0  0  0  0  0  0  0  0
  129.9910  126.1870   67.3960 C   0  0  0  0  0  0  0  0  0  0  0  0
  129.7010  126.4280   68.6740 N   0  0  0  0  0  0  0  0  0  0  0  0
  128.8740  127.4750   68.9320 C   0  0  0  0  0  0  0  0  0  0  0  0
  128.5710  127.7330   70.3720 C   0  0  0  0  0  0  0  0  0  0  0  0
  127.3250  127.3890   70.9100 C   0  0  0  0  0  0  0  0  0  0  0  0
  127.0350  127.6250   72.2510 C   0  0  0  0  0  0  0  0  0  0  0  0
  127.9850  128.2020   73.1080 C   0  0  0  0  0  0  0  0  0  0  0  0
  127.7010  128.4620   74.4530 N   0  0  0  0  0  0  0  0  0  0  0  0
  127.9800  129.7800   75.0600 C   0  0  0  0  0  0  0  0  0  0  0  0
  127.9480  129.7740   76.6020 C   0  0  0  0  0  0  0  0  0  0  0  0
  126.7110  129.2540   77.0620 O   0  0  0  0  0  0  0  0  0  0  0  0
  126.5100  127.9220   76.6160 C   0  0  0  0  0  0  0  0  0  0  0  0
  126.4950  127.8780   75.0750 C   0  0  0  0  0  0  0  0  0  0  0  0
  129.2260  128.5580   72.5610 C   0  0  0  0  0  0  0  0  0  0  0  0
  129.5150  128.3250   71.2200 C   0  0  0  0  0  0  0  0  0  0  0  0
  128.3210  128.2570   67.9150 C   0  0  0  0  0  0  0  0  0  0  0  0
  128.6070  127.9950   66.5700 C   0  0  0  0  0  0  0  0  0  0  0  0
  127.9630  128.8330   65.5270 C   0  0  0  0  0  0  0  0  0  0  0  0
  127.8620  128.3780   64.2100 C   0  0  0  0  0  0  0  0  0  0  0  0
  127.2470  129.1590   63.2370 C   0  0  0  0  0  0  0  0  0  0  0  0
  126.6980  130.4110   63.5590 C   0  0  0  0  0  0  0  0  0  0  0  0
  126.0860  131.2180   62.5970 N   0  0  0  0  0  0  0  0  0  0  0  0
  125.9570  132.6670   62.8500 C   0  0  0  0  0  0  0  0  0  0  0  0
  125.6220  133.4810   61.5820 C   0  0  0  0  0  0  0  0  0  0  0  0
  124.4490  132.9670   60.9700 O   0  0  0  0  0  0  0  0  0  0  0  0
  124.6080  131.6100   60.5890 C   0  0  0  0  0  0  0  0  0  0  0  0
  124.9160  130.7460   61.8300 C   0  0  0  0  0  0  0  0  0  0  0  0
  126.8030  130.8570   64.8840 C   0  0  0  0  0  0  0  0  0  0  0  0
  127.4230  130.0780   65.8560 C   0  0  0  0  0  0  0  0  0  0  0  0
  129.5010  126.9240   66.2790 C   0  0  0  0  0  0  0  0  0  0  0  0
  130.0550  126.4130   65.0500 C   0  0  0  0  0  0  0  0  0  0  0  0
  129.7870  126.9750   63.8290 N   0  0  0  0  0  0  0  0  0  0  0  0
  130.6330  121.7980   61.9550 C   0  0  0  0  0  0  0  0  0  0  0  0
  131.1460  120.8380   61.0870 C   0  0  0  0  0  0  0  0  0  0  0  0
  1  2  1  0
  2  3  1  0
  3  4  1  0
  4  5  2  0
  4  6  1  0
  6  7  2  0
  7  8  1  0
  8  9  2  0
  9 10  1  0
 10 11  1  0
 11 12  2  0
 11 13  1  0
 13 14  1  0
 14 15  1  0
 15 16  2  0
 16 17  1  0
 17 18  1  0
 18 19  2  0
 19 20  1  0
 20 21  2  0
 21 22  1  0
 22 23  1  0
 23 24  1  0
 24 25  1  0
 25 26  1  0
 26 27  1  0
 21 28  1  0
 28 29  2  0
 17 30  2  0
 30 31  1  0
 31 32  1  0
 32 33  2  0
 33 34  1  0
 34 35  2  0
 35 36  1  0
 36 37  1  0
 37 38  1  0
 38 39  1  0
 39 40  1  0
 40 41  1  0
 35 42  1  0
 42 43  2  0
 31 44  2  0
 44 45  1  0
 45 46  1  0
  9 47  1  0
 47 48  2  0
 48  6  1  0
 45 13  2  0
 44 15  1  0
 29 18  1  0
 43 32  1  0
 27 22  1  0
 41 36  1  0
M  END
>  <Binding energies>  (39) 
[-1.29]

>  <Ligand effiencies>  (39) 
[-0.025294117647058825]

>  <Interactions>  (39) 
["V-B:LYS:547:CE:9922, V-B:HIS:456:CE1:9040, V-A:LYS:547:CE:4948, V-B:HIS:456:CD2:9039, V-B:HIS:456:CG:9037, V-A:HIS:456:CE1:4066, V-B:VAL:458:CG2:9058, V-B:LYS:547:CD:9921, V-B:GLU:543:CG:9879, V-A:LEU:475:CD2:4256, H-A:TYR:484:OH:4345, V-A:GLY:454:CA:4046, V-B:TYR:539:CD1:9845, V-A:TYR:484:CE2:4343, V-B:GLU:543:CB:9878, V-B:TYR:539:CE1:9847, V-B:GLU:543:CD:9880, V-B:ALA:541:CB:9864, V-A:TYR:484:CZ:4344, H-B:GLU:543:OE2:9882, H-B:GLU:543:OE1:9881, H-A:GLU:543:OE2:4908, H-A:GLU:543:OE1:4907, V-A:GLU:543:CD:4906, H-A:ARG:545:NH2:4926, V-A:TYR:539:CE1:4873, V-B:LEU:475:CD2:9230, V-A:TYR:539:CD1:4871, V-B:ILE:369:CG2:8208, V-B:TYR:539:CG:9844, V-A:ILE:369:CG2:3234, V-B:TYR:484:CZ:9318, V-A:LEU:373:CD1:3277, V-A:GLU:543:CB:4904, V-A:SER:385:CA:3404, V-B:TYR:539:CB:9843, V-B:GLY:544:CA:9886, V-B:GLU:543:C:9874, V-A:GLU:543:C:4900, H-A:HIS:456:NE2:4067, V-A:GLY:544:CA:4912, V-B:GLY:544:C:9884, V-A:GLU:543:CG:4905, V-B:VAL:344:CG1:7972"]

$$$$
9b_Ghoteimi_2023
     RDKit          3D

 42 48  0  0  0  0  0  0  0  0999 V2000
  131.0050  124.1700   60.6040 N   0  0  0  0  0  0  0  0  0  0  0  0
  131.4210  123.9600   61.8940 C   0  0  0  0  0  0  0  0  0  0  0  0
  132.2740  122.9110   62.2710 C   0  0  0  0  0  0  0  0  0  0  0  0
  132.8910  121.8870   61.4240 C   0  0  0  0  0  0  0  0  0  0  0  0
  133.7980  122.1800   60.6420 O   0  0  0  0  0  0  0  0  0  0  0  0
  132.3910  120.6340   61.5670 N   0  0  0  0  0  0  0  0  0  0  0  0
  132.7780  119.4850   60.8880 C   0  0  0  0  0  0  0  0  0  0  0  0
  131.9210  118.4080   60.6650 C   0  0  0  0  0  0  0  0  0  0  0  0
  132.6740  117.4900   59.9690 C   0  0  0  0  0  0  0  0  0  0  0  0
  133.9200  117.9900   59.7840 O   0  0  0  0  0  0  0  0  0  0  0  0
  133.9730  119.2540   60.3710 N   0  0  0  0  0  0  0  0  0  0  0  0
  132.5730  122.9250   64.0090 S   0  0  0  0  0  0  0  0  0  0  0  0
  131.5440  124.3210   64.2210 C   0  0  0  0  0  0  0  0  0  0  0  0
  131.3200  124.8470   65.4230 N   0  0  0  0  0  0  0  0  0  0  0  0
  130.4890  125.9210   65.4820 C   0  0  0  0  0  0  0  0  0  0  0  0
  130.2390  126.4790   66.8460 C   0  0  0  0  0  0  0  0  0  0  0  0
  131.2080  127.2450   67.5040 C   0  0  0  0  0  0  0  0  0  0  0  0
  130.9750  127.7500   68.7790 C   0  0  0  0  0  0  0  0  0  0  0  0
  129.7690  127.4950   69.4500 C   0  0  0  0  0  0  0  0  0  0  0  0
  129.5190  127.9980   70.7320 N   0  0  0  0  0  0  0  0  0  0  0  0
  130.6220  128.3340   71.6550 C   0  0  0  0  0  0  0  0  0  0  0  0
  130.1850  129.1860   72.8640 C   0  0  0  0  0  0  0  0  0  0  0  0
  129.1250  128.5440   73.5530 O   0  0  0  0  0  0  0  0  0  0  0  0
  127.9920  128.3690   72.7180 C   0  0  0  0  0  0  0  0  0  0  0  0
  128.3610  127.4940   71.4990 C   0  0  0  0  0  0  0  0  0  0  0  0
  128.7940  126.7430   68.7790 C   0  0  0  0  0  0  0  0  0  0  0  0
  129.0260  126.2420   67.5010 C   0  0  0  0  0  0  0  0  0  0  0  0
  129.9090  126.4790   64.3410 C   0  0  0  0  0  0  0  0  0  0  0  0
  130.1570  125.9410   63.0720 C   0  0  0  0  0  0  0  0  0  0  0  0
  129.5400  126.5900   61.8870 C   0  0  0  0  0  0  0  0  0  0  0  0
  130.2250  127.5890   61.1950 C   0  0  0  0  0  0  0  0  0  0  0  0
  129.6570  128.1850   60.0730 C   0  0  0  0  0  0  0  0  0  0  0  0
  128.3890  127.7980   59.6120 C   0  0  0  0  0  0  0  0  0  0  0  0
  127.8080  128.3720   58.4790 N   0  0  0  0  0  0  0  0  0  0  0  0
  127.9180  127.6780   57.1810 C   0  0  0  0  0  0  0  0  0  0  0  0
  127.5970  128.5890   55.9760 C   0  0  0  0  0  0  0  0  0  0  0  0
  126.3070  129.1620   56.1310 O   0  0  0  0  0  0  0  0  0  0  0  0
  126.2190  129.9470   57.3110 C   0  0  0  0  0  0  0  0  0  0  0  0
  126.5100  129.0730   58.5490 C   0  0  0  0  0  0  0  0  0  0  0  0
  127.7190  126.7790   60.3050 C   0  0  0  0  0  0  0  0  0  0  0  0
  128.2870  126.1830   61.4280 C   0  0  0  0  0  0  0  0  0  0  0  0
  130.9970  124.7950   62.9910 C   0  0  0  0  0  0  0  0  0  0  0  0
  1  2  1  0
  2  3  2  0
  3  4  1  0
  4  5  2  0
  4  6  1  0
  6  7  1  0
  7  8  1  0
  8  9  2  0
  9 10  1  0
 10 11  1  0
  3 12  1  0
 12 13  1  0
 13 14  2  0
 14 15  1  0
 15 16  1  0
 16 17  2  0
 17 18  1  0
 18 19  2  0
 19 20  1  0
 20 21  1  0
 21 22  1  0
 22 23  1  0
 23 24  1  0
 24 25  1  0
 19 26  1  0
 26 27  2  0
 15 28  2  0
 28 29  1  0
 29 30  1  0
 30 31  2  0
 31 32  1  0
 32 33  2  0
 33 34  1  0
 34 35  1  0
 35 36  1  0
 36 37  1  0
 37 38  1  0
 38 39  1  0
 33 40  1  0
 40 41  2  0
 29 42  2  0
 42  2  1  0
 11  7  2  0
 42 13  1  0
 27 16  1  0
 41 30  1  0
 25 20  1  0
 39 34  1  0
M  END
>  <Binding energies>  (40) 
[-6.26]

>  <Ligand effiencies>  (40) 
[-0.1391111111111111]

>  <Interactions>  (40) 
["V-B:HIS:456:CE1:9040, V-A:LYS:547:CE:4948, H-A:LYS:547:NZ:4949, V-B:HIS:456:CD2:9039, V-B:HIS:456:CG:9037, V-A:HIS:456:CE1:4066, V-A:GLY:544:C:4910, V-B:GLU:543:CG:9879, V-A:LEU:475:CD2:4256, H-A:TYR:484:OH:4345, V-A:GLY:454:CA:4046, V-B:TYR:539:CD1:9845, V-B:ASP:366:CG:8184, V-B:GLU:543:CB:9878, V-B:TYR:539:CE1:9847, V-B:GLU:543:CD:9880, V-A:TYR:484:CZ:4344, H-B:TYR:531:OH:9767, V-A:GLU:543:CD:4906, V-A:ARG:545:CG:4920, V-A:MET:535:CE:4833, V-B:MET:535:CE:9807, V-A:LEU:373:CD1:3277, V-A:SER:385:CA:3404, V-A:TYR:539:CZ:4875, H-A:SER:385:N:3405, V-B:GLU:543:C:9874, V-A:GLU:543:C:4900, V-A:GLY:544:CA:4912, V-B:GLY:544:C:9884, V-A:GLU:543:CG:4905"]

$$$$
9c_Ghoteimi_2023
     RDKit          3D

 42 48  0  0  0  0  0  0  0  0999 V2000
  130.8450  124.0910   60.6320 N   0  0  0  0  0  0  0  0  0  0  0  0
  131.2300  123.8520   61.9260 C   0  0  0  0  0  0  0  0  0  0  0  0
  132.0100  122.7500   62.3100 C   0  0  0  0  0  0  0  0  0  0  0  0
  132.5690  121.6890   61.4670 C   0  0  0  0  0  0  0  0  0  0  0  0
  133.4870  121.9270   60.6780 O   0  0  0  0  0  0  0  0  0  0  0  0
  132.0040  120.4660   61.6200 N   0  0  0  0  0  0  0  0  0  0  0  0
  132.3340  119.3030   60.9390 C   0  0  0  0  0  0  0  0  0  0  0  0
  133.5340  118.8580   60.6320 N   0  0  0  0  0  0  0  0  0  0  0  0
  133.4740  117.7170   59.9740 C   0  0  0  0  0  0  0  0  0  0  0  0
  132.1990  117.2120   59.7320 C   0  0  0  0  0  0  0  0  0  0  0  0
  131.0230  118.2980   60.4090 S   0  0  0  0  0  0  0  0  0  0  0  0
  132.2900  122.7420   64.0510 S   0  0  0  0  0  0  0  0  0  0  0  0
  131.3480  124.1990   64.2550 C   0  0  0  0  0  0  0  0  0  0  0  0
  131.1450  124.7360   65.4570 N   0  0  0  0  0  0  0  0  0  0  0  0
  130.3830  125.8600   65.5090 C   0  0  0  0  0  0  0  0  0  0  0  0
  130.1530  126.4290   66.8720 C   0  0  0  0  0  0  0  0  0  0  0  0
  131.1280  127.2100   67.5040 C   0  0  0  0  0  0  0  0  0  0  0  0
  130.9130  127.7300   68.7770 C   0  0  0  0  0  0  0  0  0  0  0  0
  129.7180  127.4780   69.4700 C   0  0  0  0  0  0  0  0  0  0  0  0
  129.4840  127.9990   70.7480 N   0  0  0  0  0  0  0  0  0  0  0  0
  130.5990  128.3710   71.6430 C   0  0  0  0  0  0  0  0  0  0  0  0
  130.1720  129.2410   72.8440 C   0  0  0  0  0  0  0  0  0  0  0  0
  129.1360  128.5920   73.5660 O   0  0  0  0  0  0  0  0  0  0  0  0
  127.9910  128.3830   72.7560 C   0  0  0  0  0  0  0  0  0  0  0  0
  128.3510  127.4910   71.5480 C   0  0  0  0  0  0  0  0  0  0  0  0
  128.7380  126.7110   68.8240 C   0  0  0  0  0  0  0  0  0  0  0  0
  128.9530  126.1940   67.5490 C   0  0  0  0  0  0  0  0  0  0  0  0
  129.8520  126.4560   64.3630 C   0  0  0  0  0  0  0  0  0  0  0  0
  130.0820  125.9070   63.0960 C   0  0  0  0  0  0  0  0  0  0  0  0
  129.5230  126.5950   61.9060 C   0  0  0  0  0  0  0  0  0  0  0  0
  130.3010  127.5040   61.1870 C   0  0  0  0  0  0  0  0  0  0  0  0
  129.7860  128.1390   60.0590 C   0  0  0  0  0  0  0  0  0  0  0  0
  128.4770  127.8830   59.6230 C   0  0  0  0  0  0  0  0  0  0  0  0
  127.9430  128.5000   58.4880 N   0  0  0  0  0  0  0  0  0  0  0  0
  127.8490  127.7340   57.2290 C   0  0  0  0  0  0  0  0  0  0  0  0
  127.6200  128.6250   55.9890 C   0  0  0  0  0  0  0  0  0  0  0  0
  126.4640  129.4290   56.1760 O   0  0  0  0  0  0  0  0  0  0  0  0
  126.5910  130.2750   57.3080 C   0  0  0  0  0  0  0  0  0  0  0  0
  126.7990  129.4270   58.5820 C   0  0  0  0  0  0  0  0  0  0  0  0
  127.7110  126.9530   60.3410 C   0  0  0  0  0  0  0  0  0  0  0  0
  128.2260  126.3180   61.4680 C   0  0  0  0  0  0  0  0  0  0  0  0
  130.8480  124.7090   63.0200 C   0  0  0  0  0  0  0  0  0  0  0  0
  1  2  1  0
  2  3  2  0
  3  4  1  0
  4  5  2  0
  4  6  1  0
  6  7  1  0
  7  8  2  0
  8  9  1  0
  9 10  2  0
 10 11  1  0
  3 12  1  0
 12 13  1  0
 13 14  2  0
 14 15  1  0
 15 16  1  0
 16 17  2  0
 17 18  1  0
 18 19  2  0
 19 20  1  0
 20 21  1  0
 21 22  1  0
 22 23  1  0
 23 24  1  0
 24 25  1  0
 19 26  1  0
 26 27  2  0
 15 28  2  0
 28 29  1  0
 29 30  1  0
 30 31  2  0
 31 32  1  0
 32 33  2  0
 33 34  1  0
 34 35  1  0
 35 36  1  0
 36 37  1  0
 37 38  1  0
 38 39  1  0
 33 40  1  0
 40 41  2  0
 29 42  2  0
 42  2  1  0
 11  7  1  0
 42 13  1  0
 27 16  1  0
 41 30  1  0
 25 20  1  0
 39 34  1  0
M  END
>  <Binding energies>  (41) 
[-5.84]

>  <Ligand effiencies>  (41) 
[-0.12977777777777777]

>  <Interactions>  (41) 
["V-B:HIS:456:CE1:9040, V-A:LYS:547:CE:4948, H-A:LYS:547:NZ:4949, V-B:HIS:456:CD2:9039, V-B:HIS:456:CG:9037, V-A:HIS:456:CE1:4066, V-A:GLY:544:C:4910, V-B:GLU:543:CG:9879, V-A:LEU:475:CD2:4256, H-A:TYR:484:OH:4345, V-A:GLY:454:CA:4046, V-B:TYR:539:CD1:9845, V-B:GLU:543:CB:9878, V-B:TYR:539:CE1:9847, V-B:GLU:543:CD:9880, V-A:TYR:484:CZ:4344, H-B:TYR:531:OH:9767, V-A:GLU:543:CD:4906, V-A:ARG:545:CG:4920, V-A:TYR:539:CE1:4873, V-B:TYR:539:CG:9844, V-A:MET:535:CE:4833, V-B:MET:535:CE:9807, V-A:LEU:373:CD1:3277, V-A:PRO:482:CG:4324, V-A:SER:385:CA:3404, V-A:SER:385:CB:3406, V-A:VAL:384:C:3394, V-A:TYR:539:CZ:4875, V-B:TYR:539:CB:9843, V-B:GLU:543:C:9874, V-A:GLU:543:C:4900, V-A:GLY:544:CA:4912, V-B:GLY:544:C:9884, H-A:TYR:539:OH:4876, V-A:GLU:543:CG:4905"]

$$$$
RR11_Rahimova_2017
     RDKit          3D

 33 38  0  0  0  0  0  0  0  0999 V2000
  133.0580  125.0760   56.0220 N   0  0  0  0  0  0  0  0  0  0  0  0
  131.9280  125.7800   56.4340 C   0  0  0  0  0  0  0  0  0  0  0  0
  130.7910  125.8020   55.6280 C   0  0  0  0  0  0  0  0  0  0  0  0
  129.6630  126.5030   56.0420 C   0  0  0  0  0  0  0  0  0  0  0  0
  129.6590  127.1890   57.2640 C   0  0  0  0  0  0  0  0  0  0  0  0
  128.4400  127.9390   57.7110 C   0  0  0  0  0  0  0  0  0  0  0  0
  128.2440  128.3770   58.9360 N   0  0  0  0  0  0  0  0  0  0  0  0
  127.0290  129.0090   58.9050 C   0  0  0  0  0  0  0  0  0  0  0  0
  126.3430  129.6620   59.9380 C   0  0  0  0  0  0  0  0  0  0  0  0
  125.1080  130.2540   59.6480 C   0  0  0  0  0  0  0  0  0  0  0  0
  124.3370  130.9650   60.7520 C   0  0  0  0  0  0  0  0  0  0  0  0
  125.0540  130.9290   62.0940 C   0  0  0  0  0  0  0  0  0  0  0  0
  125.4930  132.1250   62.6730 C   0  0  0  0  0  0  0  0  0  0  0  0
  126.1470  132.1440   63.9060 C   0  0  0  0  0  0  0  0  0  0  0  0
  126.3520  130.9250   64.5650 C   0  0  0  0  0  0  0  0  0  0  0  0
  126.9650  130.6780   65.7650 N   0  0  0  0  0  0  0  0  0  0  0  0
  126.9000  129.3740   65.9270 C   0  0  0  0  0  0  0  0  0  0  0  0
  127.4640  128.6360   67.1070 C   0  0  0  0  0  0  0  0  0  0  0  0
  128.7400  128.9450   67.5950 C   0  0  0  0  0  0  0  0  0  0  0  0
  129.2670  128.2540   68.6830 C   0  0  0  0  0  0  0  0  0  0  0  0
  128.5210  127.2470   69.2910 C   0  0  0  0  0  0  0  0  0  0  0  0
  129.0500  126.5510   70.3770 N   0  0  0  0  0  0  0  0  0  0  0  0
  127.2490  126.9320   68.8190 C   0  0  0  0  0  0  0  0  0  0  0  0
  126.7230  127.6230   67.7320 C   0  0  0  0  0  0  0  0  0  0  0  0
  126.2570  128.7550   64.8760 N   0  0  0  0  0  0  0  0  0  0  0  0
  125.8900  129.7240   63.9730 C   0  0  0  0  0  0  0  0  0  0  0  0
  125.2310  129.6990   62.7420 C   0  0  0  0  0  0  0  0  0  0  0  0
  124.5620  130.1710   58.3620 C   0  0  0  0  0  0  0  0  0  0  0  0
  125.2180  129.5230   57.3120 C   0  0  0  0  0  0  0  0  0  0  0  0
  126.4570  128.9510   57.6120 C   0  0  0  0  0  0  0  0  0  0  0  0
  127.3880  128.2560   56.8760 N   0  0  0  0  0  0  0  0  0  0  0  0
  130.8090  127.1600   58.0640 C   0  0  0  0  0  0  0  0  0  0  0  0
  131.9390  126.4590   57.6520 C   0  0  0  0  0  0  0  0  0  0  0  0
  1  2  1  0
  2  3  2  0
  3  4  1  0
  4  5  2  0
  5  6  1  0
  6  7  2  0
  7  8  1  0
  8  9  2  0
  9 10  1  0
 10 11  1  0
 11 12  1  0
 12 13  2  0
 13 14  1  0
 14 15  2  0
 15 16  1  0
 16 17  2  0
 17 18  1  0
 18 19  2  0
 19 20  1  0
 20 21  2  0
 21 22  1  0
 21 23  1  0
 23 24  2  0
 17 25  1  0
 25 26  1  0
 26 27  2  0
 10 28  2  0
 28 29  1  0
 29 30  2  0
 30 31  1  0
  5 32  1  0
 32 33  2  0
 33  2  1  0
 31  6  1  0
 30  8  1  0
 27 12  1  0
 26 15  1  0
 24 18  1  0
M  END
>  <Binding energies>  (42) 
[-7.22]

>  <Ligand effiencies>  (42) 
[-0.18512820512820513]

>  <Interactions>  (42) 
["V-B:HIS:456:CE1:9040, V-A:HIS:456:CD2:4065, V-A:HIS:456:CE1:4066, V-B:GLU:543:CG:9879, V-B:ASP:366:CG:8184, V-B:GLU:543:CB:9878, V-B:GLU:543:CD:9880, H-B:GLU:543:OE2:9882, V-B:ARG:545:CZ:9898, V-A:ASP:366:CG:3210, H-B:GLU:543:OE1:9881, V-B:ASP:366:CB:8183, H-B:TYR:531:OH:9767, V-A:GLU:543:CD:4906, V-B:LEU:475:CD2:9230, V-B:ARG:545:CG:9894, V-B:TYR:539:CZ:9849, V-A:TYR:531:CZ:4792, H-B:TYR:484:OH:9319, V-B:MET:535:CE:9807, V-A:GLU:543:CB:4904, V-B:TYR:531:CZ:9766, V-A:ASP:366:C:3205, V-A:ASP:366:CB:3209, H-B:TYR:539:OH:9850, V-A:ASN:370:CG:3243, V-A:ASN:370:CB:3242, V-A:TYR:531:CE1:4790, H-A:ASP:366:O:3206, V-B:GLU:543:C:9874, V-A:GLU:543:C:4900, H-B:GLU:543:O:9875, V-B:GLY:544:C:9884, V-A:GLU:543:CG:4905, V-B:ASP:366:CA:8181, H-A:HIS:456:ND1:4064, V-A:ASN:370:CA:3240"]

$$$$
RR16_Rahimova_2017
     RDKit          3D

 44 49  0  0  0  0  0  0  0  0999 V2000
  132.7440  122.3150   64.0610 O   0  0  0  0  0  0  0  0  0  0  0  0
  133.2870  122.7370   62.7650 S   0  0  0  0  0  0  0  0  0  0  0  0
  134.3880  122.0000   62.1340 O   0  0  0  0  0  0  0  0  0  0  0  0
  133.7760  124.4260   62.9180 N   0  0  0  0  0  0  0  0  0  0  0  0
  133.0790  125.3390   63.8540 C   0  0  0  0  0  0  0  0  0  0  0  0
  131.5500  125.2520   63.6060 C   0  0  0  0  0  0  0  0  0  0  0  0
  130.7440  124.2780   64.4870 C   0  0  0  0  0  0  0  0  0  0  0  0
  130.5500  124.7600   65.9350 C   0  0  0  0  0  0  0  0  0  0  0  0
  131.3500  126.0090   66.3320 C   0  0  0  0  0  0  0  0  0  0  0  0
  132.8840  125.8690   66.3940 C   0  0  0  0  0  0  0  0  0  0  0  0
  133.5430  125.0130   65.2930 C   0  0  0  0  0  0  0  0  0  0  0  0
  131.9170  122.7730   61.6160 C   0  0  0  0  0  0  0  0  0  0  0  0
  132.0430  123.4280   60.3880 C   0  0  0  0  0  0  0  0  0  0  0  0
  130.9340  123.5530   59.5570 C   0  0  0  0  0  0  0  0  0  0  0  0
  129.7050  123.0240   59.9560 C   0  0  0  0  0  0  0  0  0  0  0  0
  128.2460  123.3060   58.9560 S   0  0  0  0  0  0  0  0  0  0  0  0
  127.0780  123.1890   59.8390 O   0  0  0  0  0  0  0  0  0  0  0  0
  128.3600  122.4580   57.7620 O   0  0  0  0  0  0  0  0  0  0  0  0
  128.3900  125.0000   58.4460 N   0  0  0  0  0  0  0  0  0  0  0  0
  127.4120  125.4150   57.4070 C   0  0  0  0  0  0  0  0  0  0  0  0
  127.8070  126.7800   56.8090 C   0  0  0  0  0  0  0  0  0  0  0  0
  128.0130  127.8520   57.9090 C   0  0  0  0  0  0  0  0  0  0  0  0
  128.4510  129.2030   57.3390 C   0  0  0  0  0  0  0  0  0  0  0  0
  127.5730  129.9330   56.5260 C   0  0  0  0  0  0  0  0  0  0  0  0
  127.9280  131.1730   55.9920 C   0  0  0  0  0  0  0  0  0  0  0  0
  127.0550  131.8740   55.2010 O   0  0  0  0  0  0  0  0  0  0  0  0
  129.2000  131.6830   56.2910 C   0  0  0  0  0  0  0  0  0  0  0  0
  129.8040  132.8530   55.9330 N   0  0  0  0  0  0  0  0  0  0  0  0
  131.0490  132.8760   56.5230 N   0  0  0  0  0  0  0  0  0  0  0  0
  131.2230  131.7210   57.1940 N   0  0  0  0  0  0  0  0  0  0  0  0
  132.4250  131.5090   57.9890 C   0  0  0  0  0  0  0  0  0  0  0  0
  132.1490  131.5190   59.4860 C   0  0  0  0  0  0  0  0  0  0  0  0
  133.2060  131.4020   60.3950 C   0  0  0  0  0  0  0  0  0  0  0  0
  132.9580  131.4340   61.7680 C   0  0  0  0  0  0  0  0  0  0  0  0
  131.6530  131.5850   62.2390 C   0  0  0  0  0  0  0  0  0  0  0  0
  130.5950  131.7050   61.3370 C   0  0  0  0  0  0  0  0  0  0  0  0
  128.9820  131.9030   61.9160 Cl  0  0  0  0  0  0  0  0  0  0  0  0
  130.8430  131.6690   59.9630 C   0  0  0  0  0  0  0  0  0  0  0  0
  130.0840  130.9370   57.1070 C   0  0  0  0  0  0  0  0  0  0  0  0
  129.7310  129.6930   57.6390 C   0  0  0  0  0  0  0  0  0  0  0  0
  128.9370  127.3530   59.0510 C   0  0  0  0  0  0  0  0  0  0  0  0
  128.5120  125.9640   59.5700 C   0  0  0  0  0  0  0  0  0  0  0  0
  129.5910  122.3330   61.1650 C   0  0  0  0  0  0  0  0  0  0  0  0
  130.6980  122.2100   61.9970 C   0  0  0  0  0  0  0  0  0  0  0  0
  1  2  2  0
  2  3  2  0
  2  4  1  0
  4  5  1  0
  5  6  1  0
  6  7  1  0
  7  8  1  0
  8  9  1  0
  9 10  1  0
 10 11  1  0
  2 12  1  0
 12 13  2  0
 13 14  1  0
 14 15  2  0
 15 16  1  0
 16 17  2  0
 16 18  2  0
 16 19  1  0
 19 20  1  0
 20 21  1  0
 21 22  1  0
 22 23  1  0
 23 24  2  0
 24 25  1  0
 25 26  1  0
 25 27  2  0
 27 28  1  0
 28 29  2  0
 29 30  1  0
 30 31  1  0
 31 32  1  0
 32 33  2  0
 33 34  1  0
 34 35  2  0
 35 36  1  0
 36 37  1  0
 36 38  2  0
 30 39  1  0
 39 40  2  0
 22 41  1  0
 41 42  1  0
 15 43  1  0
 43 44  2  0
 11  5  1  0
 44 12  1  0
 42 19  1  0
 40 23  1  0
 39 27  1  0
 38 32  1  0
M  END
>  <Binding energies>  (43) 
[-9.91]

>  <Ligand effiencies>  (43) 
[-0.20645833333333333]

>  <Interactions>  (43) 
["V-A:HIS:456:CE1:4066, V-B:GLU:543:CG:9879, V-A:LEU:475:CD2:4256, H-A:TYR:484:OH:4345, V-A:GLY:454:CA:4046, V-B:TYR:539:CD1:9845, V-A:TYR:484:CE2:4343, V-B:GLU:543:CB:9878, V-B:TYR:539:CE1:9847, V-B:GLU:543:CD:9880, V-A:ARG:545:CZ:4924, V-B:ALA:541:CB:9864, V-A:TYR:484:CZ:4344, H-A:ASP:366:OD1:3211, V-A:ASP:366:CG:3210, V-A:GLU:543:CD:4906, V-A:ARG:545:CD:4921, V-A:ARG:545:CG:4920, V-A:GLY:453:C:4039, V-A:ALA:541:CB:4890, V-A:PRO:540:CA:4881, V-A:PRO:540:CB:4883, H-B:TYR:539:N:9842, V-A:MET:535:CE:4833, V-B:TYR:539:CZ:9849, V-B:MET:535:CE:9807, V-A:TYR:539:CE2:4874, V-A:TYR:539:CZ:4875, H-A:GLY:454:N:4047, H-A:TYR:539:OH:4876, H-B:ASN:370:ND2:8219, H-A:TYR:539:N:4868, V-A:ALA:541:CA:4888, V-A:ASN:362:CB:3173, V-A:ASN:362:C:3169"]

$$$$
RR18_Rahimova_2017
     RDKit          3D

 36 41  0  0  0  0  0  0  0  0999 V2000
  132.8900  125.7330   56.2050 C   0  0  0  0  0  0  0  0  0  0  0  0
  132.6690  125.3110   57.6360 C   0  0  0  0  0  0  0  0  0  0  0  0
  133.4430  124.6570   58.5810 C   0  0  0  0  0  0  0  0  0  0  0  0
  132.6690  124.5580   59.7370 C   0  0  0  0  0  0  0  0  0  0  0  0
  131.4510  125.1560   59.4570 C   0  0  0  0  0  0  0  0  0  0  0  0
  130.1780  125.3930   60.2660 C   0  0  1  0  0  0  0  0  0  0  0  0
  130.0590  124.3890   61.4510 C   0  0  0  0  0  0  0  0  0  0  0  0
  129.8980  122.9610   61.1960 C   0  0  0  0  0  0  0  0  0  0  0  0
  128.8110  122.4760   60.8760 O   0  0  0  0  0  0  0  0  0  0  0  0
  131.0370  122.2420   61.3260 N   0  0  0  0  0  0  0  0  0  0  0  0
  131.2650  120.8570   61.1800 C   0  0  0  0  0  0  0  0  0  0  0  0
  130.2540  119.8870   61.3110 C   0  0  0  0  0  0  0  0  0  0  0  0
  130.5470  118.5330   61.1620 C   0  0  0  0  0  0  0  0  0  0  0  0
  131.8490  118.1260   60.8870 C   0  0  0  0  0  0  0  0  0  0  0  0
  132.8620  119.0740   60.7650 C   0  0  0  0  0  0  0  0  0  0  0  0
  132.5840  120.4370   60.9120 C   0  0  0  0  0  0  0  0  0  0  0  0
  133.7300  121.4340   60.7740 C   0  0  0  0  0  0  0  0  0  0  0  0
  130.2110  124.8600   62.7170 C   0  0  0  0  0  0  0  0  0  0  0  0
  130.3440  126.1750   63.0450 N   0  0  0  0  0  0  0  0  0  0  0  0
  130.2460  127.0670   62.1300 C   0  0  0  0  0  0  0  0  0  0  0  0
  130.2460  128.7900   62.4200 S   0  0  0  0  0  0  0  0  0  0  0  0
  130.0390  129.1370   60.6750 C   0  0  0  0  0  0  0  0  0  0  0  0
  129.9430  130.3750   60.0780 C   0  0  0  0  0  0  0  0  0  0  0  0
  129.9230  131.5950   60.8980 C   0  0  0  0  0  0  0  0  0  0  0  0
  130.0070  131.7310   62.1180 O   0  0  0  0  0  0  0  0  0  0  0  0
  129.7700  132.6320   60.0670 N   0  0  0  0  0  0  0  0  0  0  0  0
  129.7160  132.2600   58.7580 C   0  0  0  0  0  0  0  0  0  0  0  0
  129.5760  133.0830   57.6410 C   0  0  0  0  0  0  0  0  0  0  0  0
  129.5750  132.5030   56.3750 C   0  0  0  0  0  0  0  0  0  0  0  0
  129.7210  131.1230   56.2490 C   0  0  0  0  0  0  0  0  0  0  0  0
  129.8580  130.3200   57.3840 C   0  0  0  0  0  0  0  0  0  0  0  0
  129.8380  130.8840   58.6730 C   0  0  0  0  0  0  0  0  0  0  0  0
  129.9720  127.8590   59.9650 C   0  0  0  0  0  0  0  0  0  0  0  0
  129.7820  127.7010   58.7630 O   0  0  0  0  0  0  0  0  0  0  0  0
  130.1250  126.7990   60.8040 N   0  0  0  0  0  0  0  0  0  0  0  0
  131.4580  125.6110   58.1760 O   0  0  0  0  0  0  0  0  0  0  0  0
  1  2  1  0
  2  3  2  0
  3  4  1  0
  4  5  2  0
  6  5  1  1
  6  7  1  0
  7  8  1  0
  8  9  2  0
  8 10  1  0
 10 11  1  0
 11 12  2  0
 12 13  1  0
 13 14  2  0
 14 15  1  0
 15 16  2  0
 16 17  1  0
  7 18  2  0
 18 19  1  0
 19 20  2  0
 20 21  1  0
 21 22  1  0
 22 23  2  0
 23 24  1  0
 24 25  2  0
 24 26  1  0
 26 27  1  0
 27 28  2  0
 28 29  1  0
 29 30  2  0
 30 31  1  0
 31 32  2  0
 22 33  1  0
 33 34  2  0
 33 35  1  0
  5 36  1  0
 36  2  1  0
 35  6  1  0
 16 11  1  0
 35 20  1  0
 32 23  1  0
 32 27  1  0
M  END
>  <Binding energies>  (44) 
[-8.73]

>  <Ligand effiencies>  (44) 
[-0.22973684210526316]

>  <Interactions>  (44) 
["V-A:LEU:475:CD2:4256, V-B:TYR:539:CD1:9845, V-B:TYR:539:CE1:9847, V-B:ALA:541:CB:9864, V-A:ASP:366:CG:3210, V-A:GLU:543:CD:4906, V-A:ILE:369:CD1:3236, V-A:TYR:539:CE1:4873, V-A:TYR:539:C:4865, V-A:PRO:540:CA:4881, V-A:TYR:539:CD1:4871, V-A:PRO:540:N:4882, V-A:TYR:539:CA:4867, V-A:ILE:538:CA:4858, V-A:TYR:539:CG:4870, V-A:MET:535:CE:4833, V-A:TYR:531:CZ:4792, V-A:ILE:369:CG2:3234, V-A:LEU:373:CD1:3277, V-A:PRO:482:CG:4324, V-A:SER:385:CA:3404, V-A:SER:385:CB:3406, V-A:PRO:482:CB:4323, H-B:ALA:541:N:9863, V-A:ASP:366:C:3205, V-A:ASP:366:CB:3209, V-A:ASP:366:CA:3207, V-A:ASN:370:CB:3242, V-A:TYR:531:CE1:4790, V-A:PRO:540:C:4879, H-A:ALA:541:N:4889, H-A:TYR:539:O:4866"]

$$$$
RR20_Rahimova_2017
     RDKit          3D

 38 43  0  0  0  0  0  0  0  0999 V2000
  134.0190  131.7280   59.5430 C   0  0  0  0  0  0  0  0  0  0  0  0
  132.7570  131.7410   58.7000 C   0  0  0  0  0  0  0  0  0  0  0  0
  131.5070  131.7540   59.3200 C   0  0  0  0  0  0  0  0  0  0  0  0
  130.3480  131.7740   58.5490 C   0  0  0  0  0  0  0  0  0  0  0  0
  130.4290  131.7690   57.1510 C   0  0  0  0  0  0  0  0  0  0  0  0
  129.1580  131.8130   56.3320 C   0  0  0  0  0  0  0  0  0  0  0  0
  129.0410  132.7220   55.5080 O   0  0  0  0  0  0  0  0  0  0  0  0
  128.2070  130.8520   56.5210 N   0  0  0  0  0  0  0  0  0  0  0  0
  126.8640  130.9690   55.9300 C   0  0  0  0  0  0  0  0  0  0  0  0
  126.1510  129.6600   56.2240 C   0  0  0  0  0  0  0  0  0  0  0  0
  127.2720  128.7530   56.6310 C   0  0  0  0  0  0  0  0  0  0  0  0
  127.2360  127.3930   56.9360 C   0  0  0  0  0  0  0  0  0  0  0  0
  128.3640  126.7480   57.4590 C   0  0  0  0  0  0  0  0  0  0  0  0
  128.3280  125.2800   57.7800 C   0  0  0  0  0  0  0  0  0  0  0  0
  129.1310  124.8230   58.7270 N   0  0  0  0  0  0  0  0  0  0  0  0
  129.0020  123.5380   58.9360 C   0  0  0  0  0  0  0  0  0  0  0  0
  129.6810  122.7480   59.8520 N   0  0  0  0  0  0  0  0  0  0  0  0
  129.1970  122.2530   61.0170 C   0  0  0  0  0  0  0  0  0  0  0  0
  128.0440  122.4290   61.4150 O   0  0  0  0  0  0  0  0  0  0  0  0
  130.1420  121.3910   61.8880 C   0  0  0  0  0  0  0  0  0  0  0  0
  131.0140  122.1970   62.7620 N   0  0  0  0  0  0  0  0  0  0  0  0
  132.1030  122.8500   62.0190 C   0  0  0  0  0  0  0  0  0  0  0  0
  133.1310  123.4530   63.0030 C   0  0  0  0  0  0  0  0  0  0  0  0
  132.4790  124.2330   64.1450 C   0  0  0  0  0  0  0  0  0  0  0  0
  133.2370  125.0670   64.9740 C   0  0  0  0  0  0  0  0  0  0  0  0
  132.6500  125.7480   66.0380 C   0  0  0  0  0  0  0  0  0  0  0  0
  131.2880  125.6020   66.2840 C   0  0  0  0  0  0  0  0  0  0  0  0
  130.5190  124.7820   65.4610 C   0  0  0  0  0  0  0  0  0  0  0  0
  131.0970  124.0920   64.3900 C   0  0  0  0  0  0  0  0  0  0  0  0
  130.2440  123.2380   63.4520 C   0  0  0  0  0  0  0  0  0  0  0  0
  127.8410  122.7670   57.9270 S   0  0  0  0  0  0  0  0  0  0  0  0
  127.5160  124.3040   57.1630 C   0  0  0  0  0  0  0  0  0  0  0  0
  126.5220  124.4000   56.0260 C   0  0  0  0  0  0  0  0  0  0  0  0
  129.5110  127.5140   57.7200 C   0  0  0  0  0  0  0  0  0  0  0  0
  129.5440  128.8780   57.4340 C   0  0  0  0  0  0  0  0  0  0  0  0
  128.4380  129.4930   56.8330 C   0  0  0  0  0  0  0  0  0  0  0  0
  131.6870  131.7860   56.5360 C   0  0  0  0  0  0  0  0  0  0  0  0
  132.8470  131.7660   57.3070 C   0  0  0  0  0  0  0  0  0  0  0  0
  1  2  1  0
  2  3  2  0
  3  4  1  0
  4  5  2  0
  5  6  1  0
  6  7  2  0
  6  8  1  0
  8  9  1  0
  9 10  1  0
 10 11  1  0
 11 12  2  0
 12 13  1  0
 13 14  1  0
 14 15  1  0
 15 16  2  0
 16 17  1  0
 17 18  1  0
 18 19  2  0
 18 20  1  0
 20 21  1  0
 21 22  1  0
 22 23  1  0
 23 24  1  0
 24 25  2  0
 25 26  1  0
 26 27  2  0
 27 28  1  0
 28 29  2  0
 29 30  1  0
 16 31  1  0
 31 32  1  0
 32 33  1  0
 13 34  2  0
 34 35  1  0
 35 36  2  0
  5 37  1  0
 37 38  2  0
 38  2  1  0
 36  8  1  0
 36 11  1  0
 32 14  2  0
 30 21  1  0
 29 24  1  0
M  END
>  <Binding energies>  (45) 
[-10.17]

>  <Ligand effiencies>  (45) 
[-0.26076923076923075]

>  <Interactions>  (45) 
["V-A:HIS:456:CE1:4066, V-B:GLU:543:CG:9879, V-A:LEU:475:CD2:4256, V-A:GLY:454:CA:4046, V-B:TYR:539:CD1:9845, V-B:TYR:539:C:9839, V-B:GLU:543:CB:9878, V-B:TYR:539:CE1:9847, V-B:GLU:543:CD:9880, V-A:ARG:545:CZ:4924, V-B:PRO:540:CA:9855, V-B:ALA:541:CB:9864, V-A:ASP:366:CG:3210, V-B:PRO:540:N:9856, V-A:ARG:545:CD:4921, V-A:ARG:545:CG:4920, V-A:TYR:539:CE1:4873, V-A:PRO:540:CA:4881, V-A:PRO:540:CB:4883, V-A:PRO:540:N:4882, V-A:LEU:363:CD1:3186, V-A:MET:535:CE:4833, V-A:TYR:531:CE2:4791, V-B:MET:535:CE:9807, V-B:TYR:531:CZ:9766, V-A:TYR:539:CE2:4874, V-B:TYR:531:CE1:9764, V-A:TYR:539:CZ:4875, H-B:ALA:541:N:9863, H-A:TYR:539:N:4868, V-A:LEU:363:CA:3182, V-A:LEU:363:CB:3184, V-A:ASN:362:C:3169"]

$$$$
RR21_Rahimova_2017
     RDKit          3D

 40 45  0  0  0  0  0  0  0  0999 V2000
  131.4780  127.3130   67.5320 C   0  0  0  0  0  0  0  0  0  0  0  0
  132.4310  126.4940   66.8610 O   0  0  0  0  0  0  0  0  0  0  0  0
  131.9980  125.6090   65.8920 C   0  0  0  0  0  0  0  0  0  0  0  0
  130.7050  125.0590   65.8450 C   0  0  0  0  0  0  0  0  0  0  0  0
  130.3470  124.1730   64.8300 C   0  0  0  0  0  0  0  0  0  0  0  0
  131.2650  123.8170   63.8350 C   0  0  0  0  0  0  0  0  0  0  0  0
  130.8760  122.8700   62.7430 C   0  0  0  0  0  0  0  0  0  0  0  0
  131.5390  121.7400   62.5870 N   0  0  0  0  0  0  0  0  0  0  0  0
  130.9760  121.1030   61.5490 N   0  0  0  0  0  0  0  0  0  0  0  0
  131.4400  119.8320   61.1200 C   0  0  0  0  0  0  0  0  0  0  0  0
  132.7790  119.6460   60.7430 C   0  0  0  0  0  0  0  0  0  0  0  0
  133.2220  118.3930   60.3290 C   0  0  0  0  0  0  0  0  0  0  0  0
  132.3310  117.3230   60.2890 C   0  0  0  0  0  0  0  0  0  0  0  0
  130.9990  117.4960   60.6570 C   0  0  0  0  0  0  0  0  0  0  0  0
  130.5520  118.7470   61.0720 C   0  0  0  0  0  0  0  0  0  0  0  0
  129.9300  121.8390   61.0520 C   0  0  0  0  0  0  0  0  0  0  0  0
  129.8370  123.0070   61.7930 C   0  0  0  0  0  0  0  0  0  0  0  0
  128.8560  124.0750   61.6700 C   0  0  0  0  0  0  0  0  0  0  0  0
  128.5940  124.8510   60.5930 C   0  0  0  0  0  0  0  0  0  0  0  0
  129.3800  124.8070   58.9980 S   0  0  0  0  0  0  0  0  0  0  0  0
  128.3170  126.0970   58.4550 C   0  0  0  0  0  0  0  0  0  0  0  0
  128.2710  126.6490   57.2820 N   0  0  0  0  0  0  0  0  0  0  0  0
  127.3470  127.6840   56.9670 C   0  0  0  0  0  0  0  0  0  0  0  0
  127.2260  128.2420   55.8770 O   0  0  0  0  0  0  0  0  0  0  0  0
  126.4600  128.0770   58.1160 C   0  0  0  0  0  0  0  0  0  0  0  0
  125.4360  129.1990   57.9000 C   0  0  0  0  0  0  0  0  0  0  0  0
  125.2930  130.1570   59.0810 C   0  0  0  0  0  0  0  0  0  0  0  0
  126.4270  130.5770   59.7820 C   0  0  0  0  0  0  0  0  0  0  0  0
  126.2980  131.4630   60.8480 C   0  0  0  0  0  0  0  0  0  0  0  0
  125.0360  131.9340   61.2150 C   0  0  0  0  0  0  0  0  0  0  0  0
  124.9030  132.9100   62.3700 C   0  0  0  0  0  0  0  0  0  0  0  0
  123.9030  131.5250   60.5080 C   0  0  0  0  0  0  0  0  0  0  0  0
  124.0310  130.6380   59.4430 C   0  0  0  0  0  0  0  0  0  0  0  0
  126.5210  127.5220   59.2820 N   0  0  0  0  0  0  0  0  0  0  0  0
  127.4710  126.5060   59.4520 N   0  0  0  0  0  0  0  0  0  0  0  0
  127.5640  125.8780   60.6500 C   0  0  0  0  0  0  0  0  0  0  0  0
  126.8690  126.1400   61.6390 O   0  0  0  0  0  0  0  0  0  0  0  0
  132.5540  124.3590   63.8850 C   0  0  0  0  0  0  0  0  0  0  0  0
  132.9150  125.2450   64.9000 C   0  0  0  0  0  0  0  0  0  0  0  0
  134.1700  125.7520   64.9190 F   0  0  0  0  0  0  0  0  0  0  0  0
  1  2  1  0
  2  3  1  0
  3  4  2  0
  4  5  1  0
  5  6  2  0
  6  7  1  0
  7  8  2  0
  8  9  1  0
  9 10  1  0
 10 11  2  0
 11 12  1  0
 12 13  2  0
 13 14  1  0
 14 15  2  0
  9 16  1  0
 16 17  2  0
 17 18  1  0
 18 19  2  0
 19 20  1  0
 20 21  1  0
 21 22  2  0
 22 23  1  0
 23 24  2  0
 23 25  1  0
 25 26  1  0
 26 27  1  0
 27 28  2  0
 28 29  1  0
 29 30  2  0
 30 31  1  0
 30 32  1  0
 32 33  2  0
 25 34  2  0
 34 35  1  0
 35 36  1  0
 36 37  2  0
  6 38  1  0
 38 39  2  0
 39 40  1  0
 39  3  1  0
 17  7  1  0
 36 19  1  0
 15 10  1  0
 35 21  1  0
 33 27  1  0
M  END
>  <Binding energies>  (46) 
[-9.19]

>  <Ligand effiencies>  (46) 
[-0.22974999999999998]

>  <Interactions>  (46) 
["V-A:HIS:456:CE1:4066, V-A:LEU:475:CD2:4256, H-A:TYR:484:OH:4345, V-B:TYR:539:CD1:9845, V-B:ASP:366:CG:8184, V-B:GLU:543:CB:9878, V-B:TYR:539:CE1:9847, V-B:GLU:543:CD:9880, V-A:ARG:545:CZ:4924, V-B:ALA:541:CB:9864, V-A:TYR:484:CZ:4344, V-B:ASP:366:CB:8183, H-B:TYR:531:OH:9767, V-A:GLU:543:CD:4906, V-A:ARG:545:CD:4921, V-A:GLY:453:CA:4041, V-A:ARG:545:CG:4920, H-A:ARG:545:NE:4922, V-A:GLY:453:C:4039, H-B:ARG:545:NH2:9900, V-A:TYR:539:CE1:4873, V-B:LEU:475:CD2:9230, V-B:ILE:369:CD1:8210, V-B:ILE:369:CG2:8208, V-A:ILE:369:CG2:3234, V-A:LEU:373:CD1:3277, V-A:PRO:482:CG:4324, V-A:SER:385:CA:3404, V-A:SER:385:CB:3406, V-A:PRO:482:CB:4323, V-B:TYR:539:CB:9843, V-A:GLU:543:CG:4905, V-B:ASP:366:CA:8181, V-B:ILE:369:CB:8207"]

$$$$
RR23_Rahimova_2017
     RDKit          3D

 39 44  0  0  0  0  0  0  0  0999 V2000
  133.6130  131.6050   60.9260 C   0  0  0  0  0  0  0  0  0  0  0  0
  132.5090  131.6990   59.8890 C   0  0  0  0  0  0  0  0  0  0  0  0
  132.8230  131.6720   58.5300 C   0  0  0  0  0  0  0  0  0  0  0  0
  131.8080  131.7480   57.5790 C   0  0  0  0  0  0  0  0  0  0  0  0
  130.4730  131.8650   57.9800 C   0  0  0  0  0  0  0  0  0  0  0  0
  129.3840  131.9260   56.9320 C   0  0  0  0  0  0  0  0  0  0  0  0
  129.4450  132.8310   56.0970 O   0  0  0  0  0  0  0  0  0  0  0  0
  128.3950  130.9820   56.9370 N   0  0  0  0  0  0  0  0  0  0  0  0
  127.2540  131.0590   56.0110 C   0  0  0  0  0  0  0  0  0  0  0  0
  126.4570  129.7800   56.2080 C   0  0  0  0  0  0  0  0  0  0  0  0
  127.4130  128.9040   56.9590 C   0  0  0  0  0  0  0  0  0  0  0  0
  127.2670  127.5710   57.3440 C   0  0  0  0  0  0  0  0  0  0  0  0
  128.2130  126.9680   58.1870 C   0  0  0  0  0  0  0  0  0  0  0  0
  128.0900  125.5040   58.6350 C   0  0  2  0  0  0  0  0  0  0  0  0
  128.9540  125.2010   59.7550 N   0  0  0  0  0  0  0  0  0  0  0  0
  129.3650  123.9970   59.7250 C   0  0  0  0  0  0  0  0  0  0  0  0
  130.2070  123.3760   60.5940 N   0  0  0  0  0  0  0  0  0  0  0  0
  130.9160  123.9190   61.6120 C   0  0  0  0  0  0  0  0  0  0  0  0
  130.8840  125.1020   61.9570 O   0  0  0  0  0  0  0  0  0  0  0  0
  131.8310  122.9470   62.3750 C   0  0  0  0  0  0  0  0  0  0  0  0
  131.6080  121.5730   61.8690 N   0  0  0  0  0  0  0  0  0  0  0  0
  130.2930  121.1280   61.9140 N   0  0  0  0  0  0  0  0  0  0  0  0
  129.9660  119.9450   61.5010 N   0  0  0  0  0  0  0  0  0  0  0  0
  130.9480  119.0890   60.9970 C   0  0  0  0  0  0  0  0  0  0  0  0
  130.5620  117.8190   60.5620 C   0  0  0  0  0  0  0  0  0  0  0  0
  131.5200  116.9410   60.0530 C   0  0  0  0  0  0  0  0  0  0  0  0
  132.8600  117.3290   59.9790 C   0  0  0  0  0  0  0  0  0  0  0  0
  133.2480  118.5980   60.4140 C   0  0  0  0  0  0  0  0  0  0  0  0
  132.2860  119.4790   60.9220 C   0  0  0  0  0  0  0  0  0  0  0  0
  132.6860  120.8550   61.4010 C   0  0  0  0  0  0  0  0  0  0  0  0
  133.8460  121.2780   61.3840 O   0  0  0  0  0  0  0  0  0  0  0  0
  128.7900  122.9780   58.3730 S   0  0  0  0  0  0  0  0  0  0  0  0
  128.2870  124.4720   57.5000 C   0  0  2  0  0  0  0  0  0  0  0  0
  129.3490  124.8120   56.4320 C   0  0  0  0  0  0  0  0  0  0  0  0
  129.2750  127.7400   58.6710 C   0  0  0  0  0  0  0  0  0  0  0  0
  129.4100  129.0800   58.3040 C   0  0  0  0  0  0  0  0  0  0  0  0
  128.5070  129.6510   57.3980 C   0  0  0  0  0  0  0  0  0  0  0  0
  130.1620  131.8630   59.3460 C   0  0  0  0  0  0  0  0  0  0  0  0
  131.1770  131.7860   60.2960 C   0  0  0  0  0  0  0  0  0  0  0  0
  1  2  1  0
  2  3  2  0
  3  4  1  0
  4  5  2  0
  5  6  1  0
  6  7  2  0
  6  8  1  0
  8  9  1  0
  9 10  1  0
 10 11  1  0
 11 12  2  0
 12 13  1  0
 14 13  1  6
 14 15  1  0
 15 16  2  0
 16 17  1  0
 17 18  1  0
 18 19  2  0
 18 20  1  0
 20 21  1  0
 21 22  1  0
 22 23  2  0
 23 24  1  0
 24 25  2  0
 25 26  1  0
 26 27  2  0
 27 28  1  0
 28 29  2  0
 29 30  1  0
 30 31  2  0
 16 32  1  0
 32 33  1  0
 33 34  1  6
 13 35  2  0
 35 36  1  0
 36 37  2  0
  5 38  1  0
 38 39  2  0
 39  2  1  0
 37  8  1  0
 37 11  1  0
 33 14  1  0
 30 21  1  0
 29 24  1  0
M  END
>  <Binding energies>  (47) 
[-10.29]

>  <Ligand effiencies>  (47) 
[-0.25725]

>  <Interactions>  (47) 
["V-A:LEU:475:CD2:4256, V-B:TYR:539:CD1:9845, V-B:TYR:539:CE1:9847, V-A:TYR:539:CE1:4873, V-A:PRO:540:CA:4881, V-A:PRO:540:CB:4883, V-A:PRO:540:N:4882, V-A:MET:535:CE:4833, V-B:MET:535:CE:9807, V-A:ILE:369:CG2:3234, V-A:LEU:373:CD1:3277, V-A:PRO:482:CG:4324, V-A:SER:385:CA:3404, V-A:SER:385:CB:3406, V-A:PRO:482:CB:4323, V-A:TYR:539:CE2:4874, V-A:TYR:539:CZ:4875, V-B:TYR:539:CB:9843, V-A:PRO:540:C:4879, H-A:TYR:539:N:4868, V-A:ASN:362:CB:3173, V-A:ASN:362:C:3169"]

$$$$
RR26_Rahimova_2017
     RDKit          3D

 38 44  0  0  0  0  0  0  0  0999 V2000
  128.7410  131.1890   57.8010 C   0  0  0  0  0  0  0  0  0  0  0  0
  130.1830  131.5800   57.5000 C   0  0  0  0  0  0  0  0  0  0  0  0
  130.4210  132.8240   56.9060 C   0  0  0  0  0  0  0  0  0  0  0  0
  131.7220  133.2500   56.6440 C   0  0  0  0  0  0  0  0  0  0  0  0
  132.7990  132.4360   56.9830 C   0  0  0  0  0  0  0  0  0  0  0  0
  132.5740  131.1950   57.5750 C   0  0  0  0  0  0  0  0  0  0  0  0
  131.2710  130.7460   57.8380 C   0  0  0  0  0  0  0  0  0  0  0  0
  131.1170  129.3900   58.4640 C   0  0  0  0  0  0  0  0  0  0  0  0
  131.1740  128.2670   57.7530 N   0  0  0  0  0  0  0  0  0  0  0  0
  131.0080  127.3560   58.6740 C   0  0  0  0  0  0  0  0  0  0  0  0
  130.9290  125.6330   58.7090 S   0  0  0  0  0  0  0  0  0  0  0  0
  130.6920  125.7030   60.4950 C   0  0  0  0  0  0  0  0  0  0  0  0
  130.5260  124.6690   61.3490 C   0  0  0  0  0  0  0  0  0  0  0  0
  130.5030  123.2480   61.0420 C   0  0  0  0  0  0  0  0  0  0  0  0
  131.4640  122.2920   61.3380 C   0  0  0  0  0  0  0  0  0  0  0  0
  131.0010  121.0780   60.8970 N   0  0  0  0  0  0  0  0  0  0  0  0
  131.6360  119.8130   60.9860 C   0  0  0  0  0  0  0  0  0  0  0  0
  132.9800  119.6560   60.6170 C   0  0  0  0  0  0  0  0  0  0  0  0
  133.5900  118.4070   60.7060 C   0  0  0  0  0  0  0  0  0  0  0  0
  132.8600  117.3140   61.1660 C   0  0  0  0  0  0  0  0  0  0  0  0
  131.5260  117.4570   61.5380 C   0  0  0  0  0  0  0  0  0  0  0  0
  130.9120  118.7030   61.4480 C   0  0  0  0  0  0  0  0  0  0  0  0
  129.7790  121.2130   60.3600 N   0  0  0  0  0  0  0  0  0  0  0  0
  129.4740  122.4940   60.4350 C   0  0  0  0  0  0  0  0  0  0  0  0
  128.1600  122.9800   59.9040 C   0  0  0  0  0  0  0  0  0  0  0  0
  127.3480  123.8210   60.6810 C   0  0  0  0  0  0  0  0  0  0  0  0
  126.1200  124.2760   60.1970 C   0  0  0  0  0  0  0  0  0  0  0  0
  125.6930  123.8900   58.9280 C   0  0  0  0  0  0  0  0  0  0  0  0
  126.5040  123.0650   58.1350 C   0  0  0  0  0  0  0  0  0  0  0  0
  127.7270  122.6070   58.6230 C   0  0  0  0  0  0  0  0  0  0  0  0
  126.1030  122.6220   56.8900 O   0  0  0  0  0  0  0  0  0  0  0  0
  125.0500  123.3950   56.3050 C   0  0  0  0  0  0  0  0  0  0  0  0
  123.9490  123.6930   57.3510 C   0  0  0  0  0  0  0  0  0  0  0  0
  124.4960  124.4010   58.4690 O   0  0  0  0  0  0  0  0  0  0  0  0
  130.6770  127.0730   61.0000 C   0  0  0  0  0  0  0  0  0  0  0  0
  130.5320  127.4740   62.1550 O   0  0  0  0  0  0  0  0  0  0  0  0
  130.8640  127.9120   59.8900 N   0  0  0  0  0  0  0  0  0  0  0  0
  130.9380  129.2400   59.7680 N   0  0  0  0  0  0  0  0  0  0  0  0
  1  2  1  0
  2  3  2  0
  3  4  1  0
  4  5  2  0
  5  6  1  0
  6  7  2  0
  7  8  1  0
  8  9  1  0
  9 10  2  0
 10 11  1  0
 11 12  1  0
 12 13  2  0
 13 14  1  0
 14 15  2  0
 15 16  1  0
 16 17  1  0
 17 18  2  0
 18 19  1  0
 19 20  2  0
 20 21  1  0
 21 22  2  0
 16 23  1  0
 23 24  2  0
 24 25  1  0
 25 26  2  0
 26 27  1  0
 27 28  2  0
 28 29  1  0
 29 30  2  0
 29 31  1  0
 31 32  1  0
 32 33  1  0
 33 34  1  0
 12 35  1  0
 35 36  2  0
 35 37  1  0
 37 38  1  0
  7  2  1  0
 38  8  2  0
 37 10  1  0
 24 14  1  0
 30 25  1  0
 22 17  1  0
 34 28  1  0
M  END
>  <Binding energies>  (48) 
[-9.7]

>  <Ligand effiencies>  (48) 
[-0.2552631578947368]

>  <Interactions>  (48) 
["V-A:LEU:475:CD2:4256, V-B:TYR:539:CD1:9845, V-B:TYR:539:C:9839, V-B:TYR:539:CE1:9847, V-B:PRO:540:CB:9857, V-B:PRO:540:CA:9855, V-A:ASP:366:CG:3210, V-B:PRO:540:N:9856, H-B:TYR:531:OH:9767, H-A:ARG:545:NH2:4926, V-A:TYR:539:C:4865, V-A:PRO:540:CA:4881, V-A:PRO:540:CB:4883, V-A:PRO:540:N:4882, V-A:LEU:363:CD1:3186, V-A:TYR:539:CA:4867, V-A:ILE:538:CA:4858, V-A:ILE:538:C:4856, V-A:ILE:538:CB:4860, V-B:ILE:538:CB:9834, H-B:TYR:539:N:9842, V-A:PRO:540:CG:4884, V-A:ILE:538:CG2:4861, V-B:ILE:538:CG2:9835, V-A:TYR:531:CE2:4791, V-A:PRO:540:CD:4885, V-A:ILE:369:CG2:3234, H-A:TYR:531:OH:4793, V-A:LEU:373:CD1:3277, V-A:PRO:482:CG:4324, V-A:SER:385:CA:3404, V-A:SER:385:CB:3406, V-A:PRO:482:CB:4323, V-B:TYR:531:CZ:9766, V-B:TYR:531:CE2:9765, V-A:LEU:475:CG:4254, V-B:LEU:363:CD1:8160, V-A:SER:385:C:3402, V-B:LEU:363:CA:8156, V-B:LEU:363:CB:8158"]

$$$$
RR2_Rahimova_2017
     RDKit          3D

 46 50  0  0  0  0  0  0  0  0999 V2000
  133.6260  122.9520   60.5570 C   0  0  0  0  0  0  0  0  0  0  0  0
  133.6700  123.3380   59.1880 O   0  0  0  0  0  0  0  0  0  0  0  0
  132.8680  124.3770   58.7530 C   0  0  0  0  0  0  0  0  0  0  0  0
  131.7180  124.8210   59.4200 C   0  0  0  0  0  0  0  0  0  0  0  0
  130.9690  125.8750   58.9050 C   0  0  0  0  0  0  0  0  0  0  0  0
  131.3490  126.5070   57.7120 C   0  0  0  0  0  0  0  0  0  0  0  0
  130.5120  127.6490   57.1680 C   0  0  0  0  0  0  0  0  0  0  0  0
  129.4560  127.4160   56.5690 O   0  0  0  0  0  0  0  0  0  0  0  0
  131.0050  128.8920   57.3730 N   0  0  0  0  0  0  0  0  0  0  0  0
  130.3250  129.9690   56.8150 N   0  0  0  0  0  0  0  0  0  0  0  0
  130.9740  131.1450   56.7040 C   0  0  0  0  0  0  0  0  0  0  0  0
  132.0660  131.4000   57.2210 O   0  0  0  0  0  0  0  0  0  0  0  0
  130.2750  132.2080   55.8450 C   0  0  0  0  0  0  0  0  0  0  0  0
  128.6270  132.7290   56.4470 S   0  0  0  0  0  0  0  0  0  0  0  0
  127.9420  131.1680   56.9130 C   0  0  0  0  0  0  0  0  0  0  0  0
  127.0820  130.5150   56.1730 N   0  0  0  0  0  0  0  0  0  0  0  0
  126.7060  129.3780   56.8730 N   0  0  0  0  0  0  0  0  0  0  0  0
  127.3770  129.3700   58.0010 C   0  0  0  0  0  0  0  0  0  0  0  0
  127.2540  128.2860   59.0220 C   0  0  0  0  0  0  0  0  0  0  0  0
  126.5420  128.5200   60.2010 C   0  0  0  0  0  0  0  0  0  0  0  0
  126.4280  127.5200   61.1620 C   0  0  0  0  0  0  0  0  0  0  0  0
  127.0130  126.2670   60.9440 C   0  0  0  0  0  0  0  0  0  0  0  0
  126.9390  125.2260   61.8820 N   0  0  0  0  0  0  0  0  0  0  0  0
  126.5440  123.5380   61.4900 S   0  0  0  0  0  0  0  0  0  0  0  0
  125.2310  123.2800   62.0920 O   0  0  0  0  0  0  0  0  0  0  0  0
  127.7050  122.7070   61.8330 O   0  0  0  0  0  0  0  0  0  0  0  0
  126.3120  123.5100   59.7140 C   0  0  0  0  0  0  0  0  0  0  0  0
  127.3590  123.1440   58.8650 C   0  0  0  0  0  0  0  0  0  0  0  0
  127.1630  123.1440   57.4870 C   0  0  0  0  0  0  0  0  0  0  0  0
  125.9210  123.5050   56.9590 C   0  0  0  0  0  0  0  0  0  0  0  0
  125.7140  123.5190   55.4550 C   0  0  0  0  0  0  0  0  0  0  0  0
  124.8780  123.8750   57.8100 C   0  0  0  0  0  0  0  0  0  0  0  0
  125.0730  123.8760   59.1880 C   0  0  0  0  0  0  0  0  0  0  0  0
  127.7210  126.0340   59.7660 C   0  0  0  0  0  0  0  0  0  0  0  0
  127.8410  127.0360   58.8070 C   0  0  0  0  0  0  0  0  0  0  0  0
  128.1860  130.4900   58.0940 N   0  0  0  0  0  0  0  0  0  0  0  0
  129.0260  130.8790   59.1580 C   0  0  0  0  0  0  0  0  0  0  0  0
  129.0610  132.2130   59.5670 C   0  0  0  0  0  0  0  0  0  0  0  0
  129.8890  132.5880   60.6210 C   0  0  0  0  0  0  0  0  0  0  0  0
  130.6860  131.6440   61.2710 C   0  0  0  0  0  0  0  0  0  0  0  0
  131.4750  132.1120   62.3030 O   0  0  0  0  0  0  0  0  0  0  0  0
  132.6820  131.4270   62.6220 C   0  0  0  0  0  0  0  0  0  0  0  0
  130.6440  130.3040   60.8520 C   0  0  0  0  0  0  0  0  0  0  0  0
  129.8160  129.9230   59.8000 C   0  0  0  0  0  0  0  0  0  0  0  0
  132.5050  126.0610   57.0540 C   0  0  0  0  0  0  0  0  0  0  0  0
  133.2530  125.0080   57.5720 C   0  0  0  0  0  0  0  0  0  0  0  0
  1  2  1  0
  2  3  1  0
  3  4  2  0
  4  5  1  0
  5  6  2  0
  6  7  1  0
  7  8  2  0
  7  9  1  0
  9 10  1  0
 10 11  1  0
 11 12  2  0
 11 13  1  0
 13 14  1  0
 14 15  1  0
 15 16  2  0
 16 17  1  0
 17 18  2  0
 18 19  1  0
 19 20  2  0
 20 21  1  0
 21 22  2  0
 22 23  1  0
 23 24  1  0
 24 25  2  0
 24 26  2  0
 24 27  1  0
 27 28  2  0
 28 29  1  0
 29 30  2  0
 30 31  1  0
 30 32  1  0
 32 33  2  0
 22 34  1  0
 34 35  2  0
 18 36  1  0
 36 37  1  0
 37 38  2  0
 38 39  1  0
 39 40  2  0
 40 41  1  0
 41 42  1  0
 40 43  1  0
 43 44  2  0
  6 45  1  0
 45 46  2  0
 46  3  1  0
 36 15  1  0
 44 37  1  0
 35 19  1  0
 33 27  1  0
M  END
>  <Binding energies>  (49) 
[-11.34]

>  <Ligand effiencies>  (49) 
[-0.23142857142857143]

>  <Interactions>  (49) 
["V-B:TYR:539:C:9839, V-B:ASP:366:CG:8184, V-B:PRO:540:C:9853, V-B:TYR:539:CE1:9847, V-B:GLU:543:CD:9880, V-B:PRO:540:CB:9857, V-A:ARG:545:CZ:4924, V-B:PRO:540:CA:9855, H-A:ASP:366:OD2:3212, H-B:GLU:543:OE2:9882, V-A:ASP:366:CG:3210, H-B:GLU:543:OE1:9881, V-B:PRO:540:N:9856, H-B:TYR:531:OH:9767, V-A:GLU:543:CD:4906, V-A:ILE:369:CD1:3236, H-B:ARG:545:NH2:9900, V-A:TYR:539:CE1:4873, V-A:TYR:539:C:4865, V-A:PRO:540:CA:4881, V-A:TYR:539:CD1:4871, V-A:PRO:540:N:4882, V-A:ILE:538:CA:4858, V-A:ILE:538:CB:4860, V-B:ILE:538:CB:9834, V-A:MET:535:CE:4833, V-B:TYR:539:CZ:9849, V-A:ILE:538:CG2:4861, V-B:ILE:538:CG2:9835, V-A:TYR:531:CZ:4792, V-B:MET:535:CE:9807, V-A:ILE:369:CG2:3234, V-A:ILE:369:CB:3233, H-A:TYR:531:OH:4793, V-B:TYR:531:CZ:9766, V-A:TYR:539:CZ:4875, H-B:ALA:541:N:9863, V-A:ASP:366:C:3205, V-A:ASP:366:CB:3209, V-A:ASP:366:CA:3207, V-B:TYR:531:CE2:9765, H-B:TYR:539:OH:9850, V-A:TYR:531:CE1:4790, V-A:PRO:540:C:4879, H-A:TYR:539:OH:4876, H-A:TYR:539:N:4868, V-A:ASN:362:CB:3173, H-A:ALA:541:N:4889, V-A:ALA:541:C:4886"]

$$$$
RR33_Rahimova_2017
     RDKit          3D

 18 19  0  0  0  0  0  0  0  0999 V2000
  132.9190  118.8100   60.7680 C   0  0  0  0  0  0  0  0  0  0  0  0
  133.6320  120.1660   60.7430 C   0  0  0  0  0  0  0  0  0  0  0  0
  132.9890  121.0380   61.6690 O   0  0  0  0  0  0  0  0  0  0  0  0
  131.7450  121.5540   61.3630 C   0  0  0  0  0  0  0  0  0  0  0  0
  130.6430  120.7910   61.7490 C   0  0  0  0  0  0  0  0  0  0  0  0
  129.3500  121.2290   61.4790 C   0  0  0  0  0  0  0  0  0  0  0  0
  129.1380  122.4420   60.8180 C   0  0  0  0  0  0  0  0  0  0  0  0
  127.7480  122.9100   60.5280 C   0  0  0  0  0  0  0  0  0  0  0  0
  127.2090  123.1450   59.3530 N   0  0  0  0  0  0  0  0  0  0  0  0
  125.9700  123.5360   59.6080 C   0  0  0  0  0  0  0  0  0  0  0  0
  125.0180  123.8900   58.4860 C   0  0  0  0  0  0  0  0  0  0  0  0
  125.6120  123.5810   57.1930 N   0  0  0  0  0  0  0  0  0  0  0  0
  125.0250  122.3740   56.6350 C   0  0  0  0  0  0  0  0  0  0  0  0
  125.7550  123.5380   60.9810 C   0  0  0  0  0  0  0  0  0  0  0  0
  124.5920  123.8660   61.8850 C   0  0  0  0  0  0  0  0  0  0  0  0
  126.9040  123.1350   61.5690 O   0  0  0  0  0  0  0  0  0  0  0  0
  130.2400  123.2120   60.4330 C   0  0  0  0  0  0  0  0  0  0  0  0
  131.5350  122.7740   60.7010 C   0  0  0  0  0  0  0  0  0  0  0  0
  1  2  1  0
  2  3  1  0
  3  4  1  0
  4  5  2  0
  5  6  1  0
  6  7  2  0
  7  8  1  0
  8  9  2  0
  9 10  1  0
 10 11  1  0
 11 12  1  0
 12 13  1  0
 10 14  2  0
 14 15  1  0
 14 16  1  0
  7 17  1  0
 17 18  2  0
 18  4  1  0
 16  8  1  0
M  END
>  <Binding energies>  (50) 
[-4.97]

>  <Ligand effiencies>  (50) 
[-0.261578947368421]

>  <Interactions>  (50) 
["V-A:LEU:475:CD2:4256, V-B:TYR:539:CD1:9845, V-B:TYR:539:C:9839, V-B:PRO:540:C:9853, V-B:TYR:539:CE1:9847, V-B:PRO:540:CB:9857, V-B:PRO:540:CA:9855, V-B:ALA:541:CB:9864, V-B:ARG:545:CZ:9898, V-B:ASN:362:CB:8147, V-B:PRO:540:N:9856, H-B:TYR:531:OH:9767, V-B:ILE:538:CB:9834, V-B:PRO:540:CD:9859, V-B:ILE:538:CG2:9835, V-A:ILE:369:CG2:3234, V-A:LEU:373:CD1:3277, V-A:SER:385:CA:3404, V-A:SER:385:CB:3406, H-B:ALA:541:N:9863, V-B:PRO:540:CG:9858, V-B:ALA:541:CA:9862, V-B:LEU:363:CD1:8160, V-A:SER:385:C:3402"]

$$$$
RR3_Rahimova_2017
     RDKit          3D

 38 44  0  0  0  0  0  0  0  0999 V2000
  129.7390  130.9360   57.0260 C   0  0  0  0  0  0  0  0  0  0  0  0
  128.7840  129.9340   57.1630 C   0  0  0  0  0  0  0  0  0  0  0  0
  129.1250  128.7350   57.7830 C   0  0  0  0  0  0  0  0  0  0  0  0
  130.4220  128.5230   58.2750 C   0  0  0  0  0  0  0  0  0  0  0  0
  130.7880  127.2340   58.9430 C   0  0  0  0  0  0  0  0  0  0  0  0
  131.3190  126.1670   58.2070 C   0  0  0  0  0  0  0  0  0  0  0  0
  131.6560  124.9670   58.8280 C   0  0  0  0  0  0  0  0  0  0  0  0
  131.4600  124.8050   60.2020 C   0  0  0  0  0  0  0  0  0  0  0  0
  131.8150  123.5160   60.8750 C   0  0  0  0  0  0  0  0  0  0  0  0
  132.1250  122.4490   60.1460 N   0  0  0  0  0  0  0  0  0  0  0  0
  132.4300  121.4940   60.9910 C   0  0  0  0  0  0  0  0  0  0  0  0
  132.8340  120.1400   60.6210 C   0  0  0  0  0  0  0  0  0  0  0  0
  134.1280  119.7240   60.3600 C   0  0  0  0  0  0  0  0  0  0  0  0
  134.1420  118.3880   60.0520 N   0  0  0  0  0  0  0  0  0  0  0  0
  132.8620  117.8830   60.0980 C   0  0  0  0  0  0  0  0  0  0  0  0
  132.3810  116.5910   59.8630 C   0  0  0  0  0  0  0  0  0  0  0  0
  131.0060  116.3940   59.9900 C   0  0  0  0  0  0  0  0  0  0  0  0
  130.1450  117.4300   60.3350 C   0  0  0  0  0  0  0  0  0  0  0  0
  130.6240  118.7180   60.5700 C   0  0  0  0  0  0  0  0  0  0  0  0
  132.0030  118.9710   60.4550 C   0  0  0  0  0  0  0  0  0  0  0  0
  132.3150  121.9290   62.2830 N   0  0  0  0  0  0  0  0  0  0  0  0
  131.8940  123.2330   62.2490 C   0  0  0  0  0  0  0  0  0  0  0  0
  131.6010  124.0230   63.4820 C   0  0  0  0  0  0  0  0  0  0  0  0
  130.6700  123.5520   64.4090 C   0  0  0  0  0  0  0  0  0  0  0  0
  130.3840  124.2910   65.5530 C   0  0  0  0  0  0  0  0  0  0  0  0
  131.0250  125.5140   65.8000 C   0  0  0  0  0  0  0  0  0  0  0  0
  130.7010  126.3150   67.0210 C   0  0  0  0  0  0  0  0  0  0  0  0
  129.4800  126.1430   67.6920 C   0  0  0  0  0  0  0  0  0  0  0  0
  129.1810  126.8860   68.8320 C   0  0  0  0  0  0  0  0  0  0  0  0
  130.1020  127.8110   69.3140 C   0  0  0  0  0  0  0  0  0  0  0  0
  131.3180  127.9960   68.6660 C   0  0  0  0  0  0  0  0  0  0  0  0
  131.6140  127.2540   67.5260 C   0  0  0  0  0  0  0  0  0  0  0  0
  131.9710  125.9660   64.8700 C   0  0  0  0  0  0  0  0  0  0  0  0
  132.2590  125.2300   63.7240 C   0  0  0  0  0  0  0  0  0  0  0  0
  130.9430  125.8670   60.9460 C   0  0  0  0  0  0  0  0  0  0  0  0
  130.6070  127.0650   60.3220 C   0  0  0  0  0  0  0  0  0  0  0  0
  131.3690  129.5470   58.1250 C   0  0  0  0  0  0  0  0  0  0  0  0
  131.0310  130.7470   57.5050 C   0  0  0  0  0  0  0  0  0  0  0  0
  1  2  2  0
  2  3  1  0
  3  4  2  0
  4  5  1  0
  5  6  2  0
  6  7  1  0
  7  8  2  0
  8  9  1  0
  9 10  1  0
 10 11  2  0
 11 12  1  0
 12 13  2  0
 13 14  1  0
 14 15  1  0
 15 16  2  0
 16 17  1  0
 17 18  2  0
 18 19  1  0
 19 20  2  0
 11 21  1  0
 21 22  1  0
 22 23  1  0
 23 24  2  0
 24 25  1  0
 25 26  2  0
 26 27  1  0
 27 28  2  0
 28 29  1  0
 29 30  2  0
 30 31  1  0
 31 32  2  0
 26 33  1  0
 33 34  2  0
  8 35  1  0
 35 36  2  0
  4 37  1  0
 37 38  2  0
 38  1  1  0
 36  5  1  0
 22  9  2  0
 34 23  1  0
 20 12  1  0
 32 27  1  0
 20 15  1  0
M  END
>  <Binding energies>  (51) 
[-8.8]

>  <Ligand effiencies>  (51) 
[-0.22000000000000003]

>  <Interactions>  (51) 
["V-A:HIS:456:CE1:4066, V-A:GLY:544:C:4910, V-B:GLU:543:CG:9879, V-A:LEU:475:CD2:4256, V-B:TYR:539:CD1:9845, V-B:TYR:539:C:9839, V-A:TYR:484:CE2:4343, V-B:GLU:543:CB:9878, V-B:TYR:539:CE1:9847, V-B:GLU:543:CD:9880, V-A:ARG:545:CZ:4924, V-A:TYR:484:CZ:4344, V-A:ASP:366:CG:3210, V-A:GLU:543:CD:4906, V-A:ARG:545:CD:4921, V-A:ARG:545:CG:4920, V-B:TYR:539:CG:9844, V-A:MET:535:CE:4833, V-A:ILE:369:CG2:3234, V-A:LEU:373:CD1:3277, V-A:GLU:543:CB:4904, V-A:PRO:482:CG:4324, V-A:SER:385:CA:3404, V-A:SER:385:CB:3406, V-A:PRO:482:CB:4323, V-A:VAL:384:C:3394, V-A:ASP:366:CB:3209, V-B:TYR:539:CB:9843, V-B:GLU:543:C:9874, V-A:GLU:543:C:4900, V-A:GLU:543:CG:4905, V-A:SER:385:C:3402, V-B:VAL:344:CG1:7972, H-A:VAL:384:O:3395, V-A:LEU:373:CG:3276"]

$$$$
RR4_Rahimova_2017
     RDKit          3D

 40 44  0  0  0  0  0  0  0  0999 V2000
  129.5380  132.8720   55.0970 C   0  0  0  0  0  0  0  0  0  0  0  0
  128.2030  132.5510   55.4730 O   0  0  0  0  0  0  0  0  0  0  0  0
  127.9610  131.3790   56.1630 C   0  0  0  0  0  0  0  0  0  0  0  0
  128.9260  130.9870   57.0890 C   0  0  0  0  0  0  0  0  0  0  0  0
  128.7660  129.8210   57.8310 C   0  0  0  0  0  0  0  0  0  0  0  0
  127.6350  129.0080   57.6670 C   0  0  0  0  0  0  0  0  0  0  0  0
  127.4660  127.7490   58.4690 C   0  0  0  0  0  0  0  0  0  0  0  0
  128.1870  127.4940   59.6400 C   0  0  0  0  0  0  0  0  0  0  0  0
  127.9910  126.3060   60.3550 C   0  0  0  0  0  0  0  0  0  0  0  0
  128.7760  126.1150   61.6110 C   0  0  0  0  0  0  0  0  0  0  0  0
  129.5840  124.9850   61.7700 C   0  0  0  0  0  0  0  0  0  0  0  0
  130.3280  124.8050   62.9330 C   0  0  0  0  0  0  0  0  0  0  0  0
  130.2860  125.7530   63.9550 C   0  0  0  0  0  0  0  0  0  0  0  0
  131.0580  125.4910   65.0700 O   0  0  0  0  0  0  0  0  0  0  0  0
  132.4610  125.3030   64.9160 C   0  0  0  0  0  0  0  0  0  0  0  0
  129.4810  126.8920   63.7980 C   0  0  0  0  0  0  0  0  0  0  0  0
  128.7380  127.0690   62.6340 C   0  0  0  0  0  0  0  0  0  0  0  0
  127.0670  125.3590   59.8490 C   0  0  0  0  0  0  0  0  0  0  0  0
  126.8220  124.1000   60.5590 C   0  0  0  0  0  0  0  0  0  0  0  0
  126.6290  123.1060   61.1190 N   0  0  0  0  0  0  0  0  0  0  0  0
  126.3940  125.6690   58.6450 C   0  0  0  0  0  0  0  0  0  0  0  0
  125.2110  124.5940   57.8600 S   0  0  0  0  0  0  0  0  0  0  0  0
  126.1310  123.4520   56.7760 C   0  0  0  0  0  0  0  0  0  0  0  0
  127.5110  123.0410   57.3080 C   0  0  0  0  0  0  0  0  0  0  0  0
  127.8160  121.8500   57.4030 O   0  0  0  0  0  0  0  0  0  0  0  0
  128.3120  124.0730   57.6610 N   0  0  0  0  0  0  0  0  0  0  0  0
  129.6120  124.0280   58.1710 C   0  0  0  0  0  0  0  0  0  0  0  0
  130.0470  123.0960   59.5800 S   0  0  0  0  0  0  0  0  0  0  0  0
  131.7030  123.6080   59.4760 C   0  0  0  0  0  0  0  0  0  0  0  0
  131.9090  124.4730   58.3900 C   0  0  0  0  0  0  0  0  0  0  0  0
  130.7270  124.6970   57.6430 C   0  0  0  0  0  0  0  0  0  0  0  0
  130.6750  125.5420   56.4540 C   0  0  0  0  0  0  0  0  0  0  0  0
  130.6340  126.2130   55.5120 N   0  0  0  0  0  0  0  0  0  0  0  0
  133.2990  125.0320   58.0620 C   0  0  0  0  0  0  0  0  0  0  0  0
  134.3970  124.2240   58.7890 C   0  0  0  0  0  0  0  0  0  0  0  0
  134.0500  123.9710   60.2660 C   0  0  0  0  0  0  0  0  0  0  0  0
  132.7840  123.1010   60.4220 C   0  0  0  0  0  0  0  0  0  0  0  0
  126.5790  126.8390   57.9910 N   0  0  0  0  0  0  0  0  0  0  0  0
  126.6670  129.4120   56.7340 C   0  0  0  0  0  0  0  0  0  0  0  0
  126.8240  130.5780   55.9900 C   0  0  0  0  0  0  0  0  0  0  0  0
  1  2  1  0
  2  3  1  0
  3  4  2  0
  4  5  1  0
  5  6  2  0
  6  7  1  0
  7  8  2  0
  8  9  1  0
  9 10  1  0
 10 11  2  0
 11 12  1  0
 12 13  2  0
 13 14  1  0
 14 15  1  0
 13 16  1  0
 16 17  2  0
  9 18  2  0
 18 19  1  0
 19 20  3  0
 18 21  1  0
 21 22  1  0
 22 23  1  0
 23 24  1  0
 24 25  2  0
 24 26  1  0
 26 27  1  0
 27 28  1  0
 28 29  1  0
 29 30  2  0
 30 31  1  0
 31 32  1  0
 32 33  3  0
 30 34  1  0
 34 35  1  0
 35 36  1  0
 36 37  1  0
 21 38  2  0
  6 39  1  0
 39 40  2  0
 40  3  1  0
 38  7  1  0
 17 10  1  0
 31 27  2  0
 37 29  1  0
M  END
>  <Binding energies>  (52) 
[-8.56]

>  <Ligand effiencies>  (52) 
[-0.20878048780487807]

>  <Interactions>  (52) 
["H-A:TYR:484:OH:4345, V-B:TYR:539:CD1:9845, V-B:TYR:539:C:9839, V-B:ASP:366:CG:8184, V-B:TYR:539:CE1:9847, V-B:GLU:543:CD:9880, V-A:ARG:545:CZ:4924, V-B:PRO:540:CA:9855, V-A:ASP:366:CG:3210, V-B:PRO:540:N:9856, H-B:TYR:531:OH:9767, V-A:GLU:543:CD:4906, V-A:ILE:369:CD1:3236, V-A:TYR:539:CE1:4873, V-A:ILE:538:CA:4858, V-A:ILE:538:C:4856, V-A:ILE:538:CB:4860, H-B:TYR:539:N:9842, V-A:MET:535:CE:4833, V-B:TYR:539:CZ:9849, V-A:ILE:538:CG2:4861, V-B:MET:535:CE:9807, V-A:ILE:369:CG2:3234, V-A:ILE:369:CB:3233, H-A:TYR:531:OH:4793, V-A:TYR:539:CD2:4872, V-A:TYR:539:CE2:4874, V-A:TYR:539:CZ:4875, H-B:ALA:541:N:9863, V-A:ASP:366:C:3205, V-A:ASP:366:CB:3209, V-A:ASP:366:CA:3207, H-A:TYR:539:OH:4876, V-A:ILE:369:CG1:3235"]

$$$$
RR6_Rahimova_2017
     RDKit          3D

 38 41  0  0  0  0  0  0  0  0999 V2000
  129.8590  125.6730   72.9780 C   0  0  0  0  0  0  0  0  0  0  0  0
  129.3010  126.8870   73.4620 O   0  0  0  0  0  0  0  0  0  0  0  0
  129.2700  128.0000   72.6840 C   0  0  0  0  0  0  0  0  0  0  0  0
  129.1660  129.1430   73.1390 O   0  0  0  0  0  0  0  0  0  0  0  0
  129.3760  127.7020   71.2160 C   0  0  0  0  0  0  0  0  0  0  0  0
  128.2820  127.2380   70.4710 C   0  0  0  0  0  0  0  0  0  0  0  0
  128.4140  126.9640   69.1110 C   0  0  0  0  0  0  0  0  0  0  0  0
  129.6510  127.1450   68.4740 C   0  0  0  0  0  0  0  0  0  0  0  0
  129.9020  126.8720   67.1170 N   0  0  0  0  0  0  0  0  0  0  0  0
  130.2480  125.7070   66.5280 C   0  0  0  0  0  0  0  0  0  0  0  0
  130.4000  124.6310   67.1080 O   0  0  0  0  0  0  0  0  0  0  0  0
  130.5260  125.7830   65.0230 C   0  0  0  0  0  0  0  0  0  0  0  0
  131.9100  124.7270   64.4780 S   0  0  0  0  0  0  0  0  0  0  0  0
  131.5470  124.2270   62.8070 C   0  0  0  0  0  0  0  0  0  0  0  0
  131.7870  122.9180   62.5520 N   0  0  0  0  0  0  0  0  0  0  0  0
  131.5220  122.4130   61.3220 C   0  0  0  0  0  0  0  0  0  0  0  0
  131.7580  120.9420   61.1400 C   0  0  0  0  0  0  0  0  0  0  0  0
  133.0320  120.4480   60.8200 C   0  0  0  0  0  0  0  0  0  0  0  0
  133.2480  119.0850   60.6390 C   0  0  0  0  0  0  0  0  0  0  0  0
  132.1910  118.1860   60.7780 C   0  0  0  0  0  0  0  0  0  0  0  0
  132.4290  116.7020   60.5700 C   0  0  0  0  0  0  0  0  0  0  0  0
  130.9190  118.6560   61.0970 C   0  0  0  0  0  0  0  0  0  0  0  0
  130.7090  120.0190   61.2780 C   0  0  0  0  0  0  0  0  0  0  0  0
  131.0150  123.2300   60.3070 C   0  0  0  0  0  0  0  0  0  0  0  0
  130.7630  124.5890   60.5440 C   0  0  0  0  0  0  0  0  0  0  0  0
  130.2040  125.4000   59.4220 C   0  0  0  0  0  0  0  0  0  0  0  0
  131.0610  126.0010   58.4950 C   0  0  0  0  0  0  0  0  0  0  0  0
  130.5480  126.7450   57.4360 C   0  0  0  0  0  0  0  0  0  0  0  0
  129.1710  126.8990   57.2790 C   0  0  0  0  0  0  0  0  0  0  0  0
  128.7530  127.6520   56.1990 O   0  0  0  0  0  0  0  0  0  0  0  0
  127.6320  128.5160   56.3490 C   0  0  0  0  0  0  0  0  0  0  0  0
  128.3070  126.2930   58.2040 C   0  0  0  0  0  0  0  0  0  0  0  0
  128.8230  125.5490   59.2610 C   0  0  0  0  0  0  0  0  0  0  0  0
  131.0410  125.1100   61.8320 C   0  0  0  0  0  0  0  0  0  0  0  0
  130.8280  126.5280   62.1400 C   0  0  0  0  0  0  0  0  0  0  0  0
  130.6570  127.6460   62.3830 N   0  0  0  0  0  0  0  0  0  0  0  0
  130.7370  127.6220   69.2090 C   0  0  0  0  0  0  0  0  0  0  0  0
  130.6030  127.8940   70.5680 C   0  0  0  0  0  0  0  0  0  0  0  0
  1  2  1  0
  2  3  1  0
  3  4  2  0
  3  5  1  0
  5  6  2  0
  6  7  1  0
  7  8  2  0
  8  9  1  0
  9 10  1  0
 10 11  2  0
 10 12  1  0
 12 13  1  0
 13 14  1  0
 14 15  2  0
 15 16  1  0
 16 17  1  0
 17 18  2  0
 18 19  1  0
 19 20  2  0
 20 21  1  0
 20 22  1  0
 22 23  2  0
 16 24  2  0
 24 25  1  0
 25 26  1  0
 26 27  2  0
 27 28  1  0
 28 29  2  0
 29 30  1  0
 30 31  1  0
 29 32  1  0
 32 33  2  0
 25 34  2  0
 34 35  1  0
 35 36  3  0
  8 37  1  0
 37 38  2  0
 38  5  1  0
 34 14  1  0
 23 17  1  0
 33 26  1  0
M  END
>  <Binding energies>  (53) 
[-9.41]

>  <Ligand effiencies>  (53) 
[-0.2412820512820513]

>  <Interactions>  (53) 
["V-B:LYS:547:CE:9922, H-B:LYS:547:NZ:9923, V-B:HIS:456:CE1:9040, V-A:HIS:456:CD2:4065, H-A:LYS:547:NZ:4949, V-B:HIS:456:CD2:9039, V-A:HIS:456:CE1:4066, V-A:HIS:456:CG:4063, V-A:GLY:544:C:4910, V-B:GLU:543:CG:9879, V-A:LEU:475:CD2:4256, H-A:TYR:484:OH:4345, V-B:TYR:539:CD1:9845, V-B:GLU:543:CB:9878, V-B:TYR:539:CE1:9847, V-B:GLU:543:CD:9880, V-B:ALA:541:CB:9864, H-B:GLU:543:OE2:9882, V-A:ASP:366:CG:3210, H-A:GLU:543:OE2:4908, H-A:GLU:543:OE1:4907, V-A:GLU:543:CD:4906, H-A:ARG:545:NH2:4926, V-A:MET:535:CE:4833, V-A:ILE:369:CG2:3234, V-A:LEU:373:CD1:3277, V-A:PRO:482:CG:4324, V-A:SER:385:CA:3404, V-A:SER:385:CB:3406, V-A:PRO:482:CB:4323, V-B:GLU:543:C:9874, V-A:GLU:543:C:4900, H-A:HIS:456:NE2:4067, V-A:GLY:544:CA:4912, V-B:GLY:544:C:9884, H-B:HIS:456:NE2:9041, V-A:GLU:543:CG:4905"]

$$$$
RR7_Rahimova_2017
     RDKit          3D

 47 53  0  0  0  0  0  0  0  0999 V2000
  134.6140  124.1620   59.5220 C   0  0  0  0  0  0  0  0  0  0  0  0
  134.0280  124.5380   58.2790 O   0  0  0  0  0  0  0  0  0  0  0  0
  132.6670  124.7650   58.2190 C   0  0  0  0  0  0  0  0  0  0  0  0
  131.8920  124.1790   59.2180 C   0  0  0  0  0  0  0  0  0  0  0  0
  130.5130  124.3560   59.2430 C   0  0  0  0  0  0  0  0  0  0  0  0
  129.8700  125.1180   58.2560 C   0  0  0  0  0  0  0  0  0  0  0  0
  128.3290  125.3610   58.2770 C   0  0  0  0  0  0  0  0  0  0  0  0
  128.1350  126.7650   57.9930 O   0  0  0  0  0  0  0  0  0  0  0  0
  127.7950  127.1890   56.6690 C   0  0  0  0  0  0  0  0  0  0  0  0
  126.8630  128.4080   56.7570 C   0  0  1  0  0  0  0  0  0  0  0  0
  126.3650  128.4510   58.0920 O   0  0  0  0  0  0  0  0  0  0  0  0
  126.6870  129.6530   58.7310 C   0  0  1  0  0  0  0  0  0  0  0  0
  126.8980  129.4250   60.1470 N   0  0  0  0  0  0  0  0  0  0  0  0
  127.9520  128.7670   60.7560 C   0  0  0  0  0  0  0  0  0  0  0  0
  127.8700  128.6620   62.0600 N   0  0  0  0  0  0  0  0  0  0  0  0
  126.6670  129.2410   62.3590 C   0  0  0  0  0  0  0  0  0  0  0  0
  125.9900  129.4330   63.5790 C   0  0  0  0  0  0  0  0  0  0  0  0
  126.6000  128.9870   64.7670 N   0  0  0  0  0  0  0  0  0  0  0  0
  126.1410  129.0580   66.0390 C   0  0  0  0  0  0  0  0  0  0  0  0
  125.0670  129.5710   66.3620 O   0  0  0  0  0  0  0  0  0  0  0  0
  127.0580  128.4840   67.0990 C   0  0  0  0  0  0  0  0  0  0  0  0
  126.6150  127.4180   67.8970 C   0  0  0  0  0  0  0  0  0  0  0  0
  127.4430  126.8730   68.8730 C   0  0  0  0  0  0  0  0  0  0  0  0
  128.7230  127.3840   69.0570 C   0  0  0  0  0  0  0  0  0  0  0  0
  129.1840  128.4390   68.2720 C   0  0  0  0  0  0  0  0  0  0  0  0
  128.3550  128.9870   67.2960 C   0  0  0  0  0  0  0  0  0  0  0  0
  124.7650  130.0410   63.5750 N   0  0  0  0  0  0  0  0  0  0  0  0
  124.2560  130.4330   62.3780 C   0  0  0  0  0  0  0  0  0  0  0  0
  124.8220  130.3010   61.1480 N   0  0  0  0  0  0  0  0  0  0  0  0
  126.0230  129.7090   61.1840 C   0  0  0  0  0  0  0  0  0  0  0  0
  127.8960  130.1960   57.9790 C   0  0  0  0  0  0  0  0  0  0  0  0
  127.5500  129.7670   56.5630 C   0  0  2  0  0  0  0  0  0  0  0  0
  126.7150  130.7080   55.9120 O   0  0  0  0  0  0  0  0  0  0  0  0
  127.5910  124.5680   57.1650 C   0  0  0  0  0  0  0  0  0  0  0  0
  126.1970  124.6710   57.0280 C   0  0  0  0  0  0  0  0  0  0  0  0
  125.5240  123.9550   56.0450 C   0  0  0  0  0  0  0  0  0  0  0  0
  126.2380  123.1250   55.1860 C   0  0  0  0  0  0  0  0  0  0  0  0
  127.6200  123.0070   55.3040 C   0  0  0  0  0  0  0  0  0  0  0  0
  128.2930  123.7240   56.2890 C   0  0  0  0  0  0  0  0  0  0  0  0
  127.6040  124.9940   59.6030 C   0  0  0  0  0  0  0  0  0  0  0  0
  127.6560  125.8630   60.7050 C   0  0  0  0  0  0  0  0  0  0  0  0
  127.0190  125.5390   61.8980 C   0  0  0  0  0  0  0  0  0  0  0  0
  126.3280  124.3350   62.0060 C   0  0  0  0  0  0  0  0  0  0  0  0
  126.2750  123.4530   60.9310 C   0  0  0  0  0  0  0  0  0  0  0  0
  126.9130  123.7790   59.7380 C   0  0  0  0  0  0  0  0  0  0  0  0
  130.6560  125.7170   57.2600 C   0  0  0  0  0  0  0  0  0  0  0  0
  132.0360  125.5410   57.2360 C   0  0  0  0  0  0  0  0  0  0  0  0
  1  2  1  0
  2  3  1  0
  3  4  2  0
  4  5  1  0
  5  6  2  0
  6  7  1  0
  7  8  1  0
  8  9  1  0
 10  9  1  1
 10 11  1  0
 11 12  1  0
 12 13  1  1
 13 14  1  0
 14 15  2  0
 15 16  1  0
 16 17  2  0
 17 18  1  0
 18 19  1  0
 19 20  2  0
 19 21  1  0
 21 22  2  0
 22 23  1  0
 23 24  2  0
 24 25  1  0
 25 26  2  0
 17 27  1  0
 27 28  2  0
 28 29  1  0
 29 30  2  0
 12 31  1  0
 31 32  1  0
 32 33  1  1
  7 34  1  0
 34 35  2  0
 35 36  1  0
 36 37  2  0
 37 38  1  0
 38 39  2  0
  7 40  1  0
 40 41  2  0
 41 42  1  0
 42 43  2  0
 43 44  1  0
 44 45  2  0
  6 46  1  0
 46 47  2  0
 47  3  1  0
 32 10  1  0
 39 34  1  0
 45 40  1  0
 30 13  1  0
 30 16  1  0
 26 21  1  0
M  END
>  <Binding energies>  (54) 
[-9.06]

>  <Ligand effiencies>  (54) 
[-0.18489795918367347]

>  <Interactions>  (54) 
["V-B:HIS:456:CE1:9040, V-B:GLU:543:CG:9879, V-B:ASP:366:CG:8184, V-B:PRO:540:C:9853, V-B:GLU:543:CB:9878, V-B:TYR:539:CE1:9847, V-B:GLU:543:CD:9880, V-B:PRO:540:CB:9857, V-B:PRO:540:CA:9855, H-B:GLU:543:OE2:9882, V-B:ARG:545:CZ:9898, V-A:ASP:366:CG:3210, H-A:GLU:543:OE2:4908, H-A:GLU:543:OE1:4907, H-B:TYR:531:OH:9767, V-A:GLU:543:CD:4906, V-A:ILE:369:CD1:3236, H-B:ARG:545:NH2:9900, H-B:ARG:545:NE:9896, V-B:ARG:545:CD:9895, V-B:ARG:545:CG:9894, V-B:ILE:538:CB:9834, V-A:MET:535:CE:4833, V-B:TYR:539:CZ:9849, V-B:ILE:538:CG2:9835, V-B:ILE:538:CA:9832, H-B:TYR:484:OH:9319, V-B:MET:535:CE:9807, V-A:ILE:369:CG2:3234, H-B:GLY:454:N:9021, V-A:ILE:369:CB:3233, V-A:GLU:543:CB:4904, V-B:TYR:531:CZ:9766, V-A:ASP:366:CB:3209, V-A:ASP:366:CA:3207, V-B:TYR:531:CE2:9765, H-B:TYR:539:OH:9850, V-B:GLU:543:C:9874, V-A:GLU:543:C:4900, H-A:TYR:539:OH:4876, H-B:ASN:370:ND2:8219, V-A:GLU:543:CG:4905, V-A:ILE:369:CG1:3235"]

$$$$
RR8_A_Rahimova_2017
     RDKit          3D

 42 46  0  0  0  0  0  0  0  0999 V2000
  131.2800  125.7120   61.9980 O   0  0  0  0  0  0  0  0  0  0  0  0
  130.3120  126.1270   61.3520 C   0  0  0  0  0  0  0  0  0  0  0  0
  130.3460  127.2180   60.5250 O   0  0  0  0  0  0  0  0  0  0  0  0
  131.1130  127.1230   59.3570 C   0  0  1  0  0  0  0  0  0  0  0  0
  131.7590  125.8860   59.2630 O   0  0  0  0  0  0  0  0  0  0  0  0
  131.7820  125.4010   57.9240 C   0  0  2  0  0  0  0  0  0  0  0  0
  133.2430  125.1240   57.5280 C   0  0  0  0  0  0  0  0  0  0  0  0
  133.6900  123.9620   58.2120 O   0  0  0  0  0  0  0  0  0  0  0  0
  134.3650  124.2330   59.4330 C   0  0  0  0  0  0  0  0  0  0  0  0
  133.5590  123.6860   60.6010 C   0  0  0  0  0  0  0  0  0  0  0  0
  132.4750  122.8380   60.3620 C   0  0  0  0  0  0  0  0  0  0  0  0
  131.7380  122.3300   61.4310 C   0  0  0  0  0  0  0  0  0  0  0  0
  132.0920  122.6690   62.7350 C   0  0  0  0  0  0  0  0  0  0  0  0
  133.1750  123.5090   62.9820 C   0  0  0  0  0  0  0  0  0  0  0  0
  133.9120  124.0160   61.9150 C   0  0  0  0  0  0  0  0  0  0  0  0
  131.0790  126.5050   57.1230 C   0  0  1  0  0  0  0  0  0  0  0  0
  130.2360  125.9990   56.0900 O   0  0  0  0  0  0  0  0  0  0  0  0
  130.2770  124.5900   55.8960 C   0  0  0  0  0  0  0  0  0  0  0  0
  129.0960  123.9350   56.5980 C   0  0  0  0  0  0  0  0  0  0  0  0
  129.1140  123.7790   57.9870 C   0  0  0  0  0  0  0  0  0  0  0  0
  128.0420  123.1730   58.6350 C   0  0  0  0  0  0  0  0  0  0  0  0
  126.9530  122.7190   57.8910 C   0  0  0  0  0  0  0  0  0  0  0  0
  126.9300  122.8630   56.5070 C   0  0  0  0  0  0  0  0  0  0  0  0
  128.0030  123.4680   55.8580 C   0  0  0  0  0  0  0  0  0  0  0  0
  130.1820  127.1670   58.1530 C   0  0  2  0  0  0  0  0  0  0  0  0
  129.8380  128.4880   57.7440 O   0  0  0  0  0  0  0  0  0  0  0  0
  130.3030  129.5360   58.5870 C   0  0  0  0  0  0  0  0  0  0  0  0
  130.9340  130.6360   57.7470 C   0  0  0  0  0  0  0  0  0  0  0  0
  130.1290  131.4790   56.9720 C   0  0  0  0  0  0  0  0  0  0  0  0
  130.7110  132.4910   56.2120 C   0  0  0  0  0  0  0  0  0  0  0  0
  132.0930  132.6600   56.2310 C   0  0  0  0  0  0  0  0  0  0  0  0
  132.9010  131.8290   57.0040 C   0  0  0  0  0  0  0  0  0  0  0  0
  132.3200  130.8170   57.7650 C   0  0  0  0  0  0  0  0  0  0  0  0
  128.9640  125.4680   61.3870 C   0  0  0  0  0  0  0  0  0  0  0  0
  127.7920  126.1580   61.0410 C   0  0  0  0  0  0  0  0  0  0  0  0
  126.5560  125.5190   61.0840 C   0  0  0  0  0  0  0  0  0  0  0  0
  126.4590  124.1770   61.4750 C   0  0  0  0  0  0  0  0  0  0  0  0
  125.1410  123.4970   61.5190 N   0  0  0  0  0  0  0  0  0  0  0  0
  124.8030  122.9380   62.5580 O   0  0  0  0  0  0  0  0  0  0  0  0
  124.4350  123.5180   60.5150 O   0  0  0  0  0  0  0  0  0  0  0  0
  127.6290  123.4910   61.8220 C   0  0  0  0  0  0  0  0  0  0  0  0
  128.8650  124.1270   61.7800 C   0  0  0  0  0  0  0  0  0  0  0  0
  1  2  2  0
  2  3  1  0
  4  3  1  1
  4  5  1  0
  5  6  1  0
  6  7  1  6
  7  8  1  0
  8  9  1  0
  9 10  1  0
 10 11  2  0
 11 12  1  0
 12 13  2  0
 13 14  1  0
 14 15  2  0
  6 16  1  0
 16 17  1  6
 17 18  1  0
 18 19  1  0
 19 20  2  0
 20 21  1  0
 21 22  2  0
 22 23  1  0
 23 24  2  0
 16 25  1  0
 25 26  1  6
 26 27  1  0
 27 28  1  0
 28 29  2  0
 29 30  1  0
 30 31  2  0
 31 32  1  0
 32 33  2  0
  2 34  1  0
 34 35  2  0
 35 36  1  0
 36 37  2  0
 37 38  1  0
 38 39  2  0
 38 40  1  0
 37 41  1  0
 41 42  2  0
 25  4  1  0
 33 28  1  0
 42 34  1  0
 15 10  1  0
 24 19  1  0
M  CHG  2  38   1  40  -1
M  END
>  <Binding energies>  (55) 
[-9.93]

>  <Ligand effiencies>  (55) 
[-0.23642857142857143]

>  <Interactions>  (55) 
["V-A:LEU:475:CD2:4256, V-A:GLY:454:CA:4046, V-B:TYR:539:CD1:9845, V-B:TYR:539:C:9839, V-B:ASP:366:CG:8184, V-B:PRO:540:C:9853, V-B:TYR:539:CE1:9847, V-B:PRO:540:CB:9857, V-B:PRO:540:CA:9855, V-B:ALA:541:CB:9864, V-B:ASN:362:CB:8147, V-A:ASP:366:CG:3210, V-B:PRO:540:N:9856, H-A:ARG:545:NH2:4926, V-A:ILE:369:CD1:3236, V-A:PRO:540:CB:4883, V-A:PRO:540:N:4882, V-A:LEU:363:CD1:3186, V-A:ILE:538:CA:4858, V-B:TYR:539:CE2:9848, V-A:ILE:538:CB:4860, V-B:ILE:538:CB:9834, V-A:MET:535:CE:4833, V-B:PRO:540:CD:9859, V-B:TYR:539:CZ:9849, V-A:ILE:538:CG2:4861, V-A:TYR:531:CE2:4791, V-A:PRO:540:CD:4885, V-B:ILE:538:CA:9832, V-B:MET:535:CE:9807, V-A:ILE:369:CG2:3234, V-A:ILE:369:CB:3233, H-A:TYR:531:OH:4793, H-B:ALA:541:N:9863, V-A:ASP:366:C:3205, V-A:ASP:366:CB:3209, V-A:ASP:366:CA:3207, H-B:TYR:539:OH:9850, V-A:ILE:369:CG1:3235, H-B:ASN:362:ND2:8150"]

$$$$
RR8_B_Rahimova_2017
     RDKit          3D

 42 46  0  0  0  0  0  0  0  0999 V2000
  133.6630  124.2990   57.7570 O   0  0  0  0  0  0  0  0  0  0  0  0
  132.8480  124.9780   58.3900 C   0  0  0  0  0  0  0  0  0  0  0  0
  131.9320  125.8170   57.8180 O   0  0  0  0  0  0  0  0  0  0  0  0
  131.0130  125.2720   56.9030 C   0  0  2  0  0  0  0  0  0  0  0  0
  130.6640  126.1890   55.9050 O   0  0  0  0  0  0  0  0  0  0  0  0
  129.5080  126.9430   56.2690 C   0  0  2  0  0  0  0  0  0  0  0  0
  129.8500  128.4430   56.2650 C   0  0  0  0  0  0  0  0  0  0  0  0
  128.7140  129.1830   56.6920 O   0  0  0  0  0  0  0  0  0  0  0  0
  128.9840  130.1940   57.6530 C   0  0  0  0  0  0  0  0  0  0  0  0
  130.2670  130.9170   57.2710 C   0  0  0  0  0  0  0  0  0  0  0  0
  131.4380  130.6850   58.0000 C   0  0  0  0  0  0  0  0  0  0  0  0
  132.6090  131.3620   57.6710 C   0  0  0  0  0  0  0  0  0  0  0  0
  132.6070  132.2670   56.6120 C   0  0  0  0  0  0  0  0  0  0  0  0
  131.4470  132.4980   55.8770 C   0  0  0  0  0  0  0  0  0  0  0  0
  130.2740  131.8240   56.2070 C   0  0  0  0  0  0  0  0  0  0  0  0
  129.0900  126.3650   57.6260 C   0  0  1  0  0  0  0  0  0  0  0  0
  127.6640  126.3620   57.7350 O   0  0  0  0  0  0  0  0  0  0  0  0
  127.0840  125.4380   58.6590 C   0  0  0  0  0  0  0  0  0  0  0  0
  126.2740  124.3520   57.9580 C   0  0  0  0  0  0  0  0  0  0  0  0
  124.9500  124.1110   58.3350 C   0  0  0  0  0  0  0  0  0  0  0  0
  124.2030  123.1410   57.6720 C   0  0  0  0  0  0  0  0  0  0  0  0
  124.7840  122.4120   56.6360 C   0  0  0  0  0  0  0  0  0  0  0  0
  126.1050  122.6430   56.2580 C   0  0  0  0  0  0  0  0  0  0  0  0
  126.8510  123.6160   56.9190 C   0  0  0  0  0  0  0  0  0  0  0  0
  129.6990  124.9680   57.6220 C   0  0  2  0  0  0  0  0  0  0  0  0
  129.8700  124.4960   58.9570 O   0  0  0  0  0  0  0  0  0  0  0  0
  129.4850  123.1500   59.1870 C   0  0  0  0  0  0  0  0  0  0  0  0
  129.9310  122.7600   60.5850 C   0  0  0  0  0  0  0  0  0  0  0  0
  131.0870  121.9960   60.7700 C   0  0  0  0  0  0  0  0  0  0  0  0
  131.4750  121.6280   62.0560 C   0  0  0  0  0  0  0  0  0  0  0  0
  130.7090  122.0230   63.1490 C   0  0  0  0  0  0  0  0  0  0  0  0
  129.5560  122.7860   62.9720 C   0  0  0  0  0  0  0  0  0  0  0  0
  129.1670  123.1550   61.6870 C   0  0  0  0  0  0  0  0  0  0  0  0
  132.7830  124.9960   59.8900 C   0  0  0  0  0  0  0  0  0  0  0  0
  131.8330  125.7650   60.5800 C   0  0  0  0  0  0  0  0  0  0  0  0
  131.8020  125.7690   61.9690 C   0  0  0  0  0  0  0  0  0  0  0  0
  132.7240  125.0150   62.7060 C   0  0  0  0  0  0  0  0  0  0  0  0
  132.7060  125.0410   64.1900 N   0  0  0  0  0  0  0  0  0  0  0  0
  133.7290  125.3690   64.7850 O   0  0  0  0  0  0  0  0  0  0  0  0
  131.6660  124.7400   64.7710 O   0  0  0  0  0  0  0  0  0  0  0  0
  133.6680  124.2430   62.0170 C   0  0  0  0  0  0  0  0  0  0  0  0
  133.6960  124.2320   60.6260 C   0  0  0  0  0  0  0  0  0  0  0  0
  1  2  2  0
  2  3  1  0
  4  3  1  1
  4  5  1  0
  5  6  1  0
  6  7  1  1
  7  8  1  0
  8  9  1  0
  9 10  1  0
 10 11  2  0
 11 12  1  0
 12 13  2  0
 13 14  1  0
 14 15  2  0
  6 16  1  0
 16 17  1  6
 17 18  1  0
 18 19  1  0
 19 20  2  0
 20 21  1  0
 21 22  2  0
 22 23  1  0
 23 24  2  0
 16 25  1  0
 25 26  1  1
 26 27  1  0
 27 28  1  0
 28 29  2  0
 29 30  1  0
 30 31  2  0
 31 32  1  0
 32 33  2  0
  2 34  1  0
 34 35  2  0
 35 36  1  0
 36 37  2  0
 37 38  1  0
 38 39  2  0
 38 40  1  0
 37 41  1  0
 41 42  2  0
 25  4  1  0
 33 28  1  0
 42 34  1  0
 15 10  1  0
 24 19  1  0
M  CHG  2  38   1  40  -1
M  END
>  <Binding energies>  (56) 
[-10.21]

>  <Ligand effiencies>  (56) 
[-0.24309523809523811]

>  <Interactions>  (56) 
["V-A:LEU:475:CD2:4256, H-A:TYR:484:OH:4345, V-B:TYR:539:CD1:9845, V-B:ASP:366:CG:8184, V-B:TYR:539:CE1:9847, V-B:PRO:540:CB:9857, V-A:ARG:545:CZ:4924, V-B:PRO:540:CA:9855, V-B:ALA:541:CB:9864, V-A:ASP:366:CG:3210, V-B:PRO:540:N:9856, H-B:TYR:531:OH:9767, H-A:ARG:545:NH2:4926, V-A:ILE:369:CD1:3236, H-A:ARG:545:NE:4922, V-A:PRO:540:CB:4883, V-A:LEU:363:CD1:3186, V-A:ILE:538:CA:4858, V-A:ILE:538:CB:4860, V-B:ILE:538:CB:9834, V-A:MET:535:CE:4833, V-B:PRO:540:CD:9859, V-B:TYR:539:CZ:9849, V-A:ILE:538:CG2:4861, V-B:ILE:538:CG2:9835, V-A:TYR:531:CE2:4791, V-A:PRO:540:CD:4885, V-B:ILE:538:CA:9832, V-B:MET:535:CE:9807, H-A:TYR:531:OH:4793, V-A:ASP:366:CB:3209, V-A:ASP:366:CA:3207, H-B:TYR:539:OH:9850, V-B:PRO:540:CG:9858, V-B:LEU:363:CD1:8160, H-A:GLY:454:N:4047, V-B:LEU:363:CA:8156, V-B:LEU:363:CB:8158"]

$$$$
RR9_Rahimova_2017
     RDKit          3D

 36 40  0  0  0  0  0  0  0  0999 V2000
  124.8620  133.5560   62.2240 C   0  0  0  0  0  0  0  0  0  0  0  0
  123.8870  132.3880   62.4000 C   0  0  0  0  0  0  0  0  0  0  0  0
  124.3440  131.5690   63.4730 O   0  0  0  0  0  0  0  0  0  0  0  0
  125.1970  130.5160   63.2070 C   0  0  0  0  0  0  0  0  0  0  0  0
  125.9650  130.0520   64.2730 C   0  0  0  0  0  0  0  0  0  0  0  0
  126.8550  128.9960   64.0990 C   0  0  0  0  0  0  0  0  0  0  0  0
  127.0020  128.3740   62.8500 C   0  0  0  0  0  0  0  0  0  0  0  0
  127.9630  127.2390   62.6560 C   0  0  0  0  0  0  0  0  0  0  0  0
  127.6230  126.1080   61.8970 C   0  0  0  0  0  0  0  0  0  0  0  0
  128.5320  125.0530   61.7070 C   0  0  0  0  0  0  0  0  0  0  0  0
  128.1450  123.9160   60.8000 C   0  0  0  0  0  0  0  0  0  0  0  0
  127.2450  123.1410   61.1240 O   0  0  0  0  0  0  0  0  0  0  0  0
  128.8560  123.8080   59.6600 N   0  0  0  0  0  0  0  0  0  0  0  0
  128.7560  122.7160   58.6860 C   0  0  0  0  0  0  0  0  0  0  0  0
  128.2080  123.1760   57.3150 C   0  0  0  0  0  0  0  0  0  0  0  0
  126.6960  123.3670   57.2660 C   0  0  0  0  0  0  0  0  0  0  0  0
  125.9880  123.6710   58.4330 C   0  0  0  0  0  0  0  0  0  0  0  0
  124.6120  123.8790   58.3780 C   0  0  0  0  0  0  0  0  0  0  0  0
  123.9480  123.7760   57.1580 C   0  0  0  0  0  0  0  0  0  0  0  0
  124.6460  123.4680   55.9910 C   0  0  0  0  0  0  0  0  0  0  0  0
  126.0220  123.2620   56.0460 C   0  0  0  0  0  0  0  0  0  0  0  0
  129.7880  125.1830   62.3500 C   0  0  0  0  0  0  0  0  0  0  0  0
  131.0080  124.4280   62.5140 C   0  0  0  0  0  0  0  0  0  0  0  0
  131.3410  123.0500   62.0470 C   0  0  0  0  0  0  0  0  0  0  0  0
  132.6340  122.7480   61.6100 C   0  0  0  0  0  0  0  0  0  0  0  0
  132.9390  121.4660   61.1600 C   0  0  0  0  0  0  0  0  0  0  0  0
  131.9520  120.4790   61.1500 C   0  0  0  0  0  0  0  0  0  0  0  0
  132.2780  119.0860   60.6420 C   0  0  0  0  0  0  0  0  0  0  0  0
  130.6590  120.7760   61.5840 C   0  0  0  0  0  0  0  0  0  0  0  0
  130.3570  122.0580   62.0350 C   0  0  0  0  0  0  0  0  0  0  0  0
  131.8880  125.1190   63.2030 N   0  0  0  0  0  0  0  0  0  0  0  0
  131.3130  126.2770   63.5650 N   0  0  0  0  0  0  0  0  0  0  0  0
  130.0280  126.3690   63.0840 C   0  0  0  0  0  0  0  0  0  0  0  0
  129.1760  127.3780   63.2600 N   0  0  0  0  0  0  0  0  0  0  0  0
  126.2280  128.8490   61.7820 C   0  0  0  0  0  0  0  0  0  0  0  0
  125.3350  129.9040   61.9540 C   0  0  0  0  0  0  0  0  0  0  0  0
  1  2  1  0
  2  3  1  0
  3  4  1  0
  4  5  2  0
  5  6  1  0
  6  7  2  0
  7  8  1  0
  8  9  2  0
  9 10  1  0
 10 11  1  0
 11 12  2  0
 11 13  1  0
 13 14  1  0
 14 15  1  0
 15 16  1  0
 16 17  2  0
 17 18  1  0
 18 19  2  0
 19 20  1  0
 20 21  2  0
 10 22  2  0
 22 23  1  0
 23 24  1  0
 24 25  2  0
 25 26  1  0
 26 27  2  0
 27 28  1  0
 27 29  1  0
 29 30  2  0
 23 31  2  0
 31 32  1  0
 32 33  1  0
 33 34  2  0
  7 35  1  0
 35 36  2  0
 36  4  1  0
 34  8  1  0
 21 16  1  0
 33 22  1  0
 30 24  1  0
M  END
>  <Binding energies>  (57) 
[-9.1]

>  <Ligand effiencies>  (57) 
[-0.2394736842105263]

>  <Interactions>  (57) 
["V-A:LEU:475:CD2:4256, V-B:TYR:539:CD1:9845, V-B:TYR:539:C:9839, V-B:ASP:366:CG:8184, V-B:TYR:539:CE1:9847, V-B:GLU:543:CD:9880, V-B:PRO:540:CB:9857, V-A:ARG:545:CZ:4924, V-B:PRO:540:CA:9855, V-B:ALA:541:CB:9864, V-B:ARG:545:CZ:9898, H-A:GLU:543:OE2:4908, V-B:PRO:540:N:9856, H-A:ARG:545:NH2:4926, V-B:LEU:475:CD2:9230, V-B:ILE:369:CD1:8210, V-B:TYR:539:CG:9844, V-B:ILE:538:CB:9834, V-B:ILE:538:CG2:9835, V-B:MET:535:CE:9807, V-A:ILE:369:CG2:3234, H-B:GLY:454:N:9021, V-A:LEU:373:CD1:3277, V-B:TYR:531:CZ:9766, H-B:ALA:541:N:9863, V-B:TYR:531:CE2:9765, V-B:LEU:363:CD1:8160, V-B:GLY:454:CA:9020, V-B:LEU:363:CA:8156"]

$$$$
