1a_Ghoteimi_2023
     RDKit          3D

 67 70  0  0  0  0  0  0  0  0999 V2000
  133.2830  130.5680   57.3630 C   0  0  0  0  0  0  0  0  0  0  0  0
  132.4990  131.6450   56.6070 C   0  0  0  0  0  0  0  0  0  0  0  0
  131.1070  131.3690   56.7040 O   0  0  0  0  0  0  0  0  0  0  0  0
  130.2490  132.2740   57.2410 C   0  0  0  0  0  0  0  0  0  0  0  0
  129.8040  133.2430   56.6180 O   0  0  0  0  0  0  0  0  0  0  0  0
  129.8900  131.9750   58.6680 C   0  0  0  0  0  0  0  0  0  0  0  0
  128.7370  132.5010   59.2690 C   0  0  0  0  0  0  0  0  0  0  0  0
  128.4310  132.2080   60.5960 C   0  0  0  0  0  0  0  0  0  0  0  0
  129.2760  131.3760   61.3460 C   0  0  0  0  0  0  0  0  0  0  0  0
  129.0670  131.0190   62.6920 N   0  0  0  0  0  0  0  0  0  0  0  0
  127.9960  130.4420   63.2790 C   0  0  0  0  0  0  0  0  0  0  0  0
  126.9650  130.0960   62.7030 O   0  0  0  0  0  0  0  0  0  0  0  0
  128.1160  130.2110   64.7850 C   0  0  0  0  0  0  0  0  0  0  0  0
  127.0950  128.8120   65.3340 S   0  0  0  0  0  0  0  0  0  0  0  0
  128.2240  127.5860   65.9530 C   0  0  0  0  0  0  0  0  0  0  0  0
  128.1230  127.3680   67.2850 N   0  0  0  0  0  0  0  0  0  0  0  0
  128.9280  126.4500   67.8830 C   0  0  0  0  0  0  0  0  0  0  0  0
  128.7400  126.2500   69.3590 C   0  0  0  0  0  0  0  0  0  0  0  0
  127.8240  127.0250   70.0890 C   0  0  0  0  0  0  0  0  0  0  0  0
  127.6510  126.8380   71.4580 C   0  0  0  0  0  0  0  0  0  0  0  0
  128.3890  125.8730   72.1390 C   0  0  0  0  0  0  0  0  0  0  0  0
  128.1510  125.7540   73.4950 O   0  0  0  0  0  0  0  0  0  0  0  0
  127.1240  126.5400   74.0910 C   0  0  0  0  0  0  0  0  0  0  0  0
  129.3100  125.0940   71.4260 C   0  0  0  0  0  0  0  0  0  0  0  0
  129.4800  125.2850   70.0580 C   0  0  0  0  0  0  0  0  0  0  0  0
  129.8640  125.7280   67.1320 C   0  0  0  0  0  0  0  0  0  0  0  0
  130.0050  125.9550   65.7570 C   0  0  0  0  0  0  0  0  0  0  0  0
  131.0470  125.1710   65.0260 C   0  0  0  0  0  0  0  0  0  0  0  0
  130.6880  124.2460   64.0400 C   0  0  0  0  0  0  0  0  0  0  0  0
  131.6650  123.5310   63.3540 C   0  0  0  0  0  0  0  0  0  0  0  0
  133.0170  123.7300   63.6330 C   0  0  0  0  0  0  0  0  0  0  0  0
  133.9140  122.9770   62.9020 O   0  0  0  0  0  0  0  0  0  0  0  0
  134.4710  123.5230   61.7110 C   0  0  0  0  0  0  0  0  0  0  0  0
  133.3810  124.6630   64.6160 C   0  0  0  0  0  0  0  0  0  0  0  0
  132.4020  125.3770   65.3020 C   0  0  0  0  0  0  0  0  0  0  0  0
  129.1600  126.9090   65.1410 C   0  0  0  0  0  0  0  0  0  0  0  0
  129.2500  127.1780   63.7020 C   0  0  0  0  0  0  0  0  0  0  0  0
  129.3210  127.3900   62.5670 N   0  0  0  0  0  0  0  0  0  0  0  0
  130.4250  130.8550   60.7520 C   0  0  0  0  0  0  0  0  0  0  0  0
  130.7290  131.1480   59.4250 C   0  0  0  0  0  0  0  0  0  0  0  0
  133.1694  130.7240   58.4459 H   0  0  0  0  0  0  0  0  0  0  0  0
  132.8952  129.5747   57.0930 H   0  0  0  0  0  0  0  0  0  0  0  0
  134.3474  130.6318   57.0930 H   0  0  0  0  0  0  0  0  0  0  0  0
  132.7097  132.6304   57.0480 H   0  0  0  0  0  0  0  0  0  0  0  0
  132.8013  131.6465   55.5494 H   0  0  0  0  0  0  0  0  0  0  0  0
  128.0677  133.1514   58.6867 H   0  0  0  0  0  0  0  0  0  0  0  0
  127.5254  132.6296   61.0567 H   0  0  0  0  0  0  0  0  0  0  0  0
  129.8590  131.1990   63.2930 H   0  0  0  0  0  0  0  0  0  0  0  0
  129.1677  130.0029   65.0310 H   0  0  0  0  0  0  0  0  0  0  0  0
  127.7623  131.1164   65.2999 H   0  0  0  0  0  0  0  0  0  0  0  0
  127.2326  127.7936   69.5699 H   0  0  0  0  0  0  0  0  0  0  0  0
  126.9257  127.4574   72.0059 H   0  0  0  0  0  0  0  0  0  0  0  0
  127.2043  126.4786   75.1863 H   0  0  0  0  0  0  0  0  0  0  0  0
  127.2331  127.5875   73.7735 H   0  0  0  0  0  0  0  0  0  0  0  0
  126.1413  126.1611   73.7735 H   0  0  0  0  0  0  0  0  0  0  0  0
  129.9011  124.3283   71.9497 H   0  0  0  0  0  0  0  0  0  0  0  0
  130.2093  124.6668   69.5140 H   0  0  0  0  0  0  0  0  0  0  0  0
  130.4949  124.9750   67.6270 H   0  0  0  0  0  0  0  0  0  0  0  0
  129.6258  124.0826   63.8052 H   0  0  0  0  0  0  0  0  0  0  0  0
  131.3685  122.8025   62.5850 H   0  0  0  0  0  0  0  0  0  0  0  0
  135.2340  124.2710   61.9724 H   0  0  0  0  0  0  0  0  0  0  0  0
  134.9334  122.7186   61.1202 H   0  0  0  0  0  0  0  0  0  0  0  0
  133.6760  124.0013   61.1202 H   0  0  0  0  0  0  0  0  0  0  0  0
  134.4436  124.8309   64.8454 H   0  0  0  0  0  0  0  0  0  0  0  0
  132.6973  126.1095   66.0677 H   0  0  0  0  0  0  0  0  0  0  0  0
  131.0961  130.2079   61.3359 H   0  0  0  0  0  0  0  0  0  0  0  0
  131.6360  130.7262   58.9675 H   0  0  0  0  0  0  0  0  0  0  0  0
  1  2  1  0
  2  3  1  0
  3  4  1  0
  4  5  2  0
  4  6  1  0
  6  7  2  0
  7  8  1  0
  8  9  2  0
  9 10  1  0
 10 11  1  0
 11 12  2  0
 11 13  1  0
 13 14  1  0
 14 15  1  0
 15 16  2  0
 16 17  1  0
 17 18  1  0
 18 19  2  0
 19 20  1  0
 20 21  2  0
 21 22  1  0
 22 23  1  0
 21 24  1  0
 24 25  2  0
 17 26  2  0
 26 27  1  0
 27 28  1  0
 28 29  2  0
 29 30  1  0
 30 31  2  0
 31 32  1  0
 32 33  1  0
 31 34  1  0
 34 35  2  0
 27 36  2  0
 36 37  1  0
 37 38  3  0
  9 39  1  0
 39 40  2  0
 40  6  1  0
 36 15  1  0
 25 18  1  0
 35 28  1  0
  1 41  1  0
  1 42  1  0
  1 43  1  0
  2 44  1  0
  2 45  1  0
  7 46  1  0
  8 47  1  0
 10 48  1  0
 13 49  1  0
 13 50  1  0
 19 51  1  0
 20 52  1  0
 23 53  1  0
 23 54  1  0
 23 55  1  0
 24 56  1  0
 25 57  1  0
 26 58  1  0
 29 59  1  0
 30 60  1  0
 33 61  1  0
 33 62  1  0
 33 63  1  0
 34 64  1  0
 35 65  1  0
 39 66  1  0
 40 67  1  0
M  END
>  <Binding energies>  (1) 
[-10.15]

>  <Ligand effiencies>  (1) 
[-0.2475609756097561]

>  <Interactions>  (1) 
["V-A:GLU:543:CD:4908, V-A:HIS:456:CD2:4068, V-B:HIS:456:CE1:9040, V-A:HIS:456:CE1:4069, V-A:PRO:540:CA:4883, V-A:TYR:539:CD2:4874, V-A:TYR:539:CE2:4876, V-A:GLU:543:CB:4906, V-A:PRO:540:CB:4885, V-A:TYR:539:C:4867, V-A:ARG:545:CZ:4926, V-B:GLY:544:C:9884, H-B:LYS:547:NZ:9923, V-A:ILE:369:CD1:3239, V-A:GLY:454:CA:4049, H-A:GLY:454:N:4050, H-A:GLU:543:OE1:4909, V-A:PRO:540:N:4884, V-A:LEU:363:CA:3185, V-B:LYS:547:CD:9921, V-B:LYS:547:CE:9922, H-A:TYR:539:N:4870, V-A:LEU:363:CD1:3189"]

$$$$
1a_Grossjean_2025
     RDKit          3D

 45 46  0  0  0  0  0  0  0  0999 V2000
  124.6400  127.2380   73.6670 C   0  0  0  0  0  0  0  0  0  0  0  0
  126.1130  127.3200   74.0780 C   0  0  0  0  0  0  0  0  0  0  0  0
  126.9340  127.2230   72.9220 O   0  0  0  0  0  0  0  0  0  0  0  0
  127.9700  126.3460   72.8690 C   0  0  0  0  0  0  0  0  0  0  0  0
  128.4880  125.8450   73.8720 O   0  0  0  0  0  0  0  0  0  0  0  0
  128.4350  126.0590   71.4700 C   0  0  0  0  0  0  0  0  0  0  0  0
  129.3520  125.0220   71.2530 C   0  0  0  0  0  0  0  0  0  0  0  0
  129.8040  124.7350   69.9690 C   0  0  0  0  0  0  0  0  0  0  0  0
  129.3530  125.4760   68.8770 C   0  0  0  0  0  0  0  0  0  0  0  0
  129.8790  125.1010   67.6250 N   0  0  0  0  0  0  0  0  0  0  0  0
  129.5470  125.5160   66.3840 C   0  0  0  0  0  0  0  0  0  0  0  0
  128.6770  126.3460   66.1160 O   0  0  0  0  0  0  0  0  0  0  0  0
  130.3430  124.8770   65.2440 C   0  0  0  0  0  0  0  0  0  0  0  0
  130.1720  123.0680   65.2190 S   0  0  0  0  0  0  0  0  0  0  0  0
  131.0360  122.4700   63.7840 C   0  0  0  0  0  0  0  0  0  0  0  0
  130.3030  121.6250   63.0160 N   0  0  0  0  0  0  0  0  0  0  0  0
  130.8660  121.1060   61.8990 C   0  0  0  0  0  0  0  0  0  0  0  0
  129.9920  120.1590   61.0980 C   0  0  0  0  0  0  0  0  0  0  0  0
  132.1660  121.4110   61.5010 C   0  0  0  0  0  0  0  0  0  0  0  0
  132.9230  122.2980   62.2740 C   0  0  0  0  0  0  0  0  0  0  0  0
  134.3400  122.6300   61.8090 C   0  0  0  0  0  0  0  0  0  0  0  0
  132.3540  122.8550   63.4430 C   0  0  0  0  0  0  0  0  0  0  0  0
  133.1110  123.8240   64.2410 C   0  0  0  0  0  0  0  0  0  0  0  0
  133.7100  124.5870   64.8700 N   0  0  0  0  0  0  0  0  0  0  0  0
  128.4280  126.5110   69.0830 C   0  0  0  0  0  0  0  0  0  0  0  0
  127.9770  126.7980   70.3680 C   0  0  0  0  0  0  0  0  0  0  0  0
  124.0094  127.2029   74.5676 H   0  0  0  0  0  0  0  0  0  0  0  0
  124.3764  128.1229   73.0691 H   0  0  0  0  0  0  0  0  0  0  0  0
  124.4762  126.3293   73.0691 H   0  0  0  0  0  0  0  0  0  0  0  0
  126.3003  128.2801   74.5811 H   0  0  0  0  0  0  0  0  0  0  0  0
  126.3483  126.4937   74.7650 H   0  0  0  0  0  0  0  0  0  0  0  0
  129.7175  124.4299   72.1050 H   0  0  0  0  0  0  0  0  0  0  0  0
  130.5229  123.9170   69.8138 H   0  0  0  0  0  0  0  0  0  0  0  0
  130.6400  124.4410   67.6820 H   0  0  0  0  0  0  0  0  0  0  0  0
  129.9789  125.2807   64.2877 H   0  0  0  0  0  0  0  0  0  0  0  0
  131.4059  125.1141   65.3993 H   0  0  0  0  0  0  0  0  0  0  0  0
  129.4095  119.5278   61.7852 H   0  0  0  0  0  0  0  0  0  0  0  0
  129.3064  120.7405   60.4640 H   0  0  0  0  0  0  0  0  0  0  0  0
  130.6265  119.5222   60.4640 H   0  0  0  0  0  0  0  0  0  0  0  0
  132.5911  120.9607   60.5919 H   0  0  0  0  0  0  0  0  0  0  0  0
  134.9874  122.7817   62.6853 H   0  0  0  0  0  0  0  0  0  0  0  0
  134.7313  121.7992   61.2035 H   0  0  0  0  0  0  0  0  0  0  0  0
  134.3215  123.5481   61.2035 H   0  0  0  0  0  0  0  0  0  0  0  0
  128.0589  127.0962   68.2278 H   0  0  0  0  0  0  0  0  0  0  0  0
  127.2540  127.6126   70.5217 H   0  0  0  0  0  0  0  0  0  0  0  0
  1  2  1  0
  2  3  1  0
  3  4  1  0
  4  5  2  0
  4  6  1  0
  6  7  2  0
  7  8  1  0
  8  9  2  0
  9 10  1  0
 10 11  1  0
 11 12  2  0
 11 13  1  0
 13 14  1  0
 14 15  1  0
 15 16  2  0
 16 17  1  0
 17 18  1  0
 17 19  2  0
 19 20  1  0
 20 21  1  0
 20 22  2  0
 22 23  1  0
 23 24  3  0
  9 25  1  0
 25 26  2  0
 26  6  1  0
 22 15  1  0
  1 27  1  0
  1 28  1  0
  1 29  1  0
  2 30  1  0
  2 31  1  0
  7 32  1  0
  8 33  1  0
 10 34  1  0
 13 35  1  0
 13 36  1  0
 18 37  1  0
 18 38  1  0
 18 39  1  0
 19 40  1  0
 21 41  1  0
 21 42  1  0
 21 43  1  0
 25 44  1  0
 26 45  1  0
M  END
>  <Binding energies>  (1) 
[-8.06]

>  <Ligand effiencies>  (1) 
[-0.2985185185185185]

>  <Interactions>  (1) 
["V-A:HIS:456:CD2:4068, V-B:TYR:539:CD2:9846, V-A:LEU:475:CD1:4258, V-B:GLU:543:CB:9878, H-A:TYR:484:OH:4348, V-A:TYR:484:CZ:4347, V-B:GLU:543:C:9874, V-A:TYR:484:CE1:4345, V-B:HIS:456:CE1:9040, V-A:HIS:456:CE1:4069, V-B:ARG:545:CA:9891, V-B:GLY:544:C:9884, V-B:ALA:541:CB:9864, H-B:LYS:547:NZ:9923, V-A:ILE:369:CD1:3239, V-A:GLY:454:CA:4049, H-A:GLY:454:N:4050, V-A:PRO:482:CG:4327, H-B:GLU:543:O:9875, V-B:HIS:456:CG:9037, V-A:HIS:456:CG:4066, H-A:HIS:456:ND1:4067, V-B:HIS:456:CB:9036, V-B:ARG:545:C:9889, V-B:HIS:456:CA:9034"]

$$$$
1aa_Ghoteimi_2023
     RDKit          3D

 67 70  0  0  0  0  0  0  0  0999 V2000
  132.8230  131.0180   57.3700 C   0  0  0  0  0  0  0  0  0  0  0  0
  131.4770  131.5080   56.8300 C   0  0  0  0  0  0  0  0  0  0  0  0
  130.9500  132.5030   57.7000 O   0  0  0  0  0  0  0  0  0  0  0  0
  129.6530  132.4690   58.0990 C   0  0  0  0  0  0  0  0  0  0  0  0
  128.7160  132.8720   57.4030 O   0  0  0  0  0  0  0  0  0  0  0  0
  129.4700  131.8920   59.4740 C   0  0  0  0  0  0  0  0  0  0  0  0
  130.5460  131.3750   60.2110 C   0  0  0  0  0  0  0  0  0  0  0  0
  130.3460  130.8470   61.4850 C   0  0  0  0  0  0  0  0  0  0  0  0
  129.0600  130.8290   62.0450 C   0  0  0  0  0  0  0  0  0  0  0  0
  128.7380  130.3210   63.3170 N   0  0  0  0  0  0  0  0  0  0  0  0
  128.0170  130.8690   64.3230 C   0  0  0  0  0  0  0  0  0  0  0  0
  127.4830  131.9770   64.2830 O   0  0  0  0  0  0  0  0  0  0  0  0
  127.8570  130.0390   65.6070 C   0  0  0  0  0  0  0  0  0  0  0  0
  127.6310  128.6600   65.2880 O   0  0  0  0  0  0  0  0  0  0  0  0
  128.4070  127.6690   65.8710 C   0  0  0  0  0  0  0  0  0  0  0  0
  128.2590  127.4410   67.2050 N   0  0  0  0  0  0  0  0  0  0  0  0
  129.0120  126.4880   67.8160 C   0  0  0  0  0  0  0  0  0  0  0  0
  128.7870  126.2970   69.2880 C   0  0  0  0  0  0  0  0  0  0  0  0
  127.8720  127.0960   69.9890 C   0  0  0  0  0  0  0  0  0  0  0  0
  127.6630  126.9220   71.3540 C   0  0  0  0  0  0  0  0  0  0  0  0
  128.3590  125.9440   72.0610 C   0  0  0  0  0  0  0  0  0  0  0  0
  128.0880  125.8440   73.4120 O   0  0  0  0  0  0  0  0  0  0  0  0
  127.0510  126.6430   73.9720 C   0  0  0  0  0  0  0  0  0  0  0  0
  129.2730  125.1340   71.3740 C   0  0  0  0  0  0  0  0  0  0  0  0
  129.4790  125.3090   70.0090 C   0  0  0  0  0  0  0  0  0  0  0  0
  129.9260  125.7220   67.0820 C   0  0  0  0  0  0  0  0  0  0  0  0
  130.0900  125.9290   65.7060 C   0  0  0  0  0  0  0  0  0  0  0  0
  131.0740  125.0730   64.9780 C   0  0  0  0  0  0  0  0  0  0  0  0
  132.4400  125.3700   65.0330 C   0  0  0  0  0  0  0  0  0  0  0  0
  133.3640  124.5710   64.3660 C   0  0  0  0  0  0  0  0  0  0  0  0
  132.9450  123.4580   63.6360 C   0  0  0  0  0  0  0  0  0  0  0  0
  133.9320  122.7250   63.0070 O   0  0  0  0  0  0  0  0  0  0  0  0
  134.4190  123.1580   61.7420 C   0  0  0  0  0  0  0  0  0  0  0  0
  131.5760  123.1530   63.5860 C   0  0  0  0  0  0  0  0  0  0  0  0
  130.6530  123.9530   64.2530 C   0  0  0  0  0  0  0  0  0  0  0  0
  129.3150  126.9370   65.0860 C   0  0  0  0  0  0  0  0  0  0  0  0
  129.4490  127.2550   63.6640 C   0  0  0  0  0  0  0  0  0  0  0  0
  129.5540  127.5070   62.5390 N   0  0  0  0  0  0  0  0  0  0  0  0
  127.9870  131.3400   61.3120 C   0  0  0  0  0  0  0  0  0  0  0  0
  128.1890  131.8670   60.0410 C   0  0  0  0  0  0  0  0  0  0  0  0
  132.8016  131.0258   58.4698 H   0  0  0  0  0  0  0  0  0  0  0  0
  133.0100  129.9941   57.0141 H   0  0  0  0  0  0  0  0  0  0  0  0
  133.6245  131.6820   57.0141 H   0  0  0  0  0  0  0  0  0  0  0  0
  131.6185  131.9361   55.8266 H   0  0  0  0  0  0  0  0  0  0  0  0
  130.7755  130.6626   56.7727 H   0  0  0  0  0  0  0  0  0  0  0  0
  131.5575  131.3865   59.7789 H   0  0  0  0  0  0  0  0  0  0  0  0
  131.1978  130.4438   62.0523 H   0  0  0  0  0  0  0  0  0  0  0  0
  129.1050  129.3970   63.4960 H   0  0  0  0  0  0  0  0  0  0  0  0
  128.7725  130.1257   66.2106 H   0  0  0  0  0  0  0  0  0  0  0  0
  126.9933  130.4199   66.1717 H   0  0  0  0  0  0  0  0  0  0  0  0
  127.3099  127.8735   69.4508 H   0  0  0  0  0  0  0  0  0  0  0  0
  126.9407  127.5635   71.8801 H   0  0  0  0  0  0  0  0  0  0  0  0
  127.1071  126.5998   75.0697 H   0  0  0  0  0  0  0  0  0  0  0  0
  127.1706  127.6847   73.6395 H   0  0  0  0  0  0  0  0  0  0  0  0
  126.0742  126.2618   73.6395 H   0  0  0  0  0  0  0  0  0  0  0  0
  129.8303  124.3560   71.9164 H   0  0  0  0  0  0  0  0  0  0  0  0
  130.1971  124.6617   69.4844 H   0  0  0  0  0  0  0  0  0  0  0  0
  130.5214  124.9497   67.5910 H   0  0  0  0  0  0  0  0  0  0  0  0
  132.7864  126.2416   65.6077 H   0  0  0  0  0  0  0  0  0  0  0  0
  134.4345  124.8192   64.4147 H   0  0  0  0  0  0  0  0  0  0  0  0
  135.2335  123.8822   61.8910 H   0  0  0  0  0  0  0  0  0  0  0  0
  134.7968  122.2921   61.1786 H   0  0  0  0  0  0  0  0  0  0  0  0
  133.6032  123.6345   61.1786 H   0  0  0  0  0  0  0  0  0  0  0  0
  131.2308  122.2773   63.0168 H   0  0  0  0  0  0  0  0  0  0  0  0
  129.5828  123.7024   64.2098 H   0  0  0  0  0  0  0  0  0  0  0  0
  126.9750  131.3256   61.7429 H   0  0  0  0  0  0  0  0  0  0  0  0
  127.3350  132.2680   59.4755 H   0  0  0  0  0  0  0  0  0  0  0  0
  1  2  1  0
  2  3  1  0
  3  4  1  0
  4  5  2  0
  4  6  1  0
  6  7  2  0
  7  8  1  0
  8  9  2  0
  9 10  1  0
 10 11  1  0
 11 12  2  0
 11 13  1  0
 13 14  1  0
 14 15  1  0
 15 16  2  0
 16 17  1  0
 17 18  1  0
 18 19  2  0
 19 20  1  0
 20 21  2  0
 21 22  1  0
 22 23  1  0
 21 24  1  0
 24 25  2  0
 17 26  2  0
 26 27  1  0
 27 28  1  0
 28 29  2  0
 29 30  1  0
 30 31  2  0
 31 32  1  0
 32 33  1  0
 31 34  1  0
 34 35  2  0
 27 36  2  0
 36 37  1  0
 37 38  3  0
  9 39  1  0
 39 40  2  0
 40  6  1  0
 36 15  1  0
 25 18  1  0
 35 28  1  0
  1 41  1  0
  1 42  1  0
  1 43  1  0
  2 44  1  0
  2 45  1  0
  7 46  1  0
  8 47  1  0
 10 48  1  0
 13 49  1  0
 13 50  1  0
 19 51  1  0
 20 52  1  0
 23 53  1  0
 23 54  1  0
 23 55  1  0
 24 56  1  0
 25 57  1  0
 26 58  1  0
 29 59  1  0
 30 60  1  0
 33 61  1  0
 33 62  1  0
 33 63  1  0
 34 64  1  0
 35 65  1  0
 39 66  1  0
 40 67  1  0
M  END
>  <Binding energies>  (1) 
[-8.55]

>  <Ligand effiencies>  (1) 
[-0.20853658536585368]

>  <Interactions>  (1) 
["V-A:GLU:543:CD:4908, V-A:HIS:456:CD2:4068, V-A:LEU:475:CD1:4258, V-B:HIS:456:CE1:9040, V-A:HIS:456:CE1:4069, H-B:TYR:484:OH:9319, V-A:PRO:540:CA:4883, V-A:GLU:543:CB:4906, V-A:PRO:540:CB:4885, V-A:TYR:539:C:4867, V-A:ARG:545:CZ:4926, V-B:GLY:544:C:9884, H-B:LYS:547:NZ:9923, V-A:ILE:369:CD1:3239, V-A:GLY:454:CA:4049, H-A:GLY:454:N:4050, H-A:GLU:543:OE1:4909, H-A:GLU:543:OE2:4910, V-A:PRO:540:N:4884, V-B:LYS:547:CD:9921, V-B:LYS:547:CE:9922, V-A:LEU:363:CD1:3189"]

$$$$
1b_Ghoteimi_2023
     RDKit          3D

 54 57  0  0  0  0  0  0  0  0999 V2000
  134.1770  124.2080   62.4740 C   0  0  0  0  0  0  0  0  0  0  0  0
  133.7790  124.1830   63.8400 O   0  0  0  0  0  0  0  0  0  0  0  0
  132.6090  124.8170   64.2120 C   0  0  0  0  0  0  0  0  0  0  0  0
  132.4540  125.0950   65.5690 C   0  0  0  0  0  0  0  0  0  0  0  0
  131.3080  125.7300   66.0370 C   0  0  0  0  0  0  0  0  0  0  0  0
  130.2810  126.1110   65.1610 C   0  0  0  0  0  0  0  0  0  0  0  0
  129.0430  126.7950   65.6700 C   0  0  0  0  0  0  0  0  0  0  0  0
  128.4230  127.8500   64.9930 C   0  0  0  0  0  0  0  0  0  0  0  0
  127.2680  128.4510   65.5090 C   0  0  0  0  0  0  0  0  0  0  0  0
  126.6620  129.5750   64.7350 C   0  0  0  0  0  0  0  0  0  0  0  0
  125.3810  129.4470   64.1900 C   0  0  0  0  0  0  0  0  0  0  0  0
  124.8160  130.4890   63.4610 C   0  0  0  0  0  0  0  0  0  0  0  0
  125.5200  131.6760   63.2580 C   0  0  0  0  0  0  0  0  0  0  0  0
  124.8810  132.6550   62.5210 O   0  0  0  0  0  0  0  0  0  0  0  0
  123.8560  132.2780   61.6080 C   0  0  0  0  0  0  0  0  0  0  0  0
  126.8090  131.8060   63.7950 C   0  0  0  0  0  0  0  0  0  0  0  0
  127.3720  130.7620   64.5240 C   0  0  0  0  0  0  0  0  0  0  0  0
  126.7370  127.9570   66.7260 C   0  0  0  0  0  0  0  0  0  0  0  0
  125.4780  128.4860   67.2580 C   0  0  0  0  0  0  0  0  0  0  0  0
  124.4840  128.9050   67.6780 N   0  0  0  0  0  0  0  0  0  0  0  0
  127.4240  126.9030   67.3700 C   0  0  0  0  0  0  0  0  0  0  0  0
  126.9090  126.1640   68.9060 S   0  0  0  0  0  0  0  0  0  0  0  0
  127.9810  126.8160   70.2300 C   0  0  0  0  0  0  0  0  0  0  0  0
  128.4270  125.7820   71.2740 C   0  0  0  0  0  0  0  0  0  0  0  0
  128.2320  125.9760   72.4760 O   0  0  0  0  0  0  0  0  0  0  0  0
  129.0300  124.6870   70.7600 N   0  0  0  0  0  0  0  0  0  0  0  0
  129.5310  123.5960   71.4600 C   0  0  0  0  0  0  0  0  0  0  0  0
  130.7660  123.6080   72.1080 C   0  0  0  0  0  0  0  0  0  0  0  0
  130.8870  122.3590   72.6710 C   0  0  0  0  0  0  0  0  0  0  0  0
  129.7810  121.6320   72.3800 O   0  0  0  0  0  0  0  0  0  0  0  0
  128.9290  122.4270   71.6120 N   0  0  0  0  0  0  0  0  0  0  0  0
  128.5320  126.3300   66.8400 N   0  0  0  0  0  0  0  0  0  0  0  0
  130.4470  125.8240   63.7960 C   0  0  0  0  0  0  0  0  0  0  0  0
  131.5910  125.1880   63.3240 C   0  0  0  0  0  0  0  0  0  0  0  0
  135.2731  124.2769   62.4127 H   0  0  0  0  0  0  0  0  0  0  0  0
  133.8391  123.2869   61.9767 H   0  0  0  0  0  0  0  0  0  0  0  0
  133.7265  125.0796   61.9767 H   0  0  0  0  0  0  0  0  0  0  0  0
  133.2458  124.8094   66.2771 H   0  0  0  0  0  0  0  0  0  0  0  0
  131.2056  125.9368   67.1125 H   0  0  0  0  0  0  0  0  0  0  0  0
  128.8472  128.2118   64.0447 H   0  0  0  0  0  0  0  0  0  0  0  0
  124.8153  128.5154   64.3386 H   0  0  0  0  0  0  0  0  0  0  0  0
  123.8056  130.3757   63.0412 H   0  0  0  0  0  0  0  0  0  0  0  0
  122.9677  131.9513   62.1685 H   0  0  0  0  0  0  0  0  0  0  0  0
  123.5941  133.1386   60.9750 H   0  0  0  0  0  0  0  0  0  0  0  0
  124.2142  131.4528   60.9750 H   0  0  0  0  0  0  0  0  0  0  0  0
  127.3767  132.7353   63.6398 H   0  0  0  0  0  0  0  0  0  0  0  0
  128.3851  130.8715   64.9382 H   0  0  0  0  0  0  0  0  0  0  0  0
  128.8823  127.2385   69.7619 H   0  0  0  0  0  0  0  0  0  0  0  0
  127.3800  127.5604   70.7728 H   0  0  0  0  0  0  0  0  0  0  0  0
  129.1220  124.6380   69.7560 H   0  0  0  0  0  0  0  0  0  0  0  0
  131.4872  124.4371   72.1580 H   0  0  0  0  0  0  0  0  0  0  0  0
  131.7445  122.0065   73.2629 H   0  0  0  0  0  0  0  0  0  0  0  0
  129.6565  126.1078   63.0857 H   0  0  0  0  0  0  0  0  0  0  0  0
  131.6964  124.9758   62.2498 H   0  0  0  0  0  0  0  0  0  0  0  0
  1  2  1  0
  2  3  1  0
  3  4  2  0
  4  5  1  0
  5  6  2  0
  6  7  1  0
  7  8  2  0
  8  9  1  0
  9 10  1  0
 10 11  2  0
 11 12  1  0
 12 13  2  0
 13 14  1  0
 14 15  1  0
 13 16  1  0
 16 17  2  0
  9 18  2  0
 18 19  1  0
 19 20  3  0
 18 21  1  0
 21 22  1  0
 22 23  1  0
 23 24  1  0
 24 25  2  0
 24 26  1  0
 26 27  1  0
 27 28  1  0
 28 29  2  0
 29 30  1  0
 30 31  1  0
 21 32  2  0
  6 33  1  0
 33 34  2  0
 34  3  1  0
 32  7  1  0
 17 10  1  0
 31 27  2  0
  1 35  1  0
  1 36  1  0
  1 37  1  0
  4 38  1  0
  5 39  1  0
  8 40  1  0
 11 41  1  0
 12 42  1  0
 15 43  1  0
 15 44  1  0
 15 45  1  0
 16 46  1  0
 17 47  1  0
 23 48  1  0
 23 49  1  0
 26 50  1  0
 28 51  1  0
 29 52  1  0
 33 53  1  0
 34 54  1  0
M  END
>  <Binding energies>  (1) 
[-9.96]

>  <Ligand effiencies>  (1) 
[-0.2845714285714286]

>  <Interactions>  (1) 
["V-A:GLU:543:CD:4908, V-A:HIS:456:CD2:4068, V-B:GLU:543:CB:9878, V-B:GLU:543:C:9874, V-B:HIS:456:CE1:9040, V-A:HIS:456:CE1:4069, V-B:ARG:545:CD:9895, V-B:ARG:545:CZ:9898, H-B:TYR:484:OH:9319, V-B:ARG:545:CG:9894, H-B:ARG:545:N:9892, V-B:GLY:544:C:9884, H-B:LYS:547:NZ:9923, V-B:ILE:369:CD1:8210, V-B:LEU:475:CD1:9229, V-A:GLY:453:CA:4044, V-A:GLY:453:C:4042, H-A:GLY:454:N:4050, H-B:ARG:545:NE:9896, H-B:GLU:543:O:9875, V-A:TYR:484:CG:4342, V-A:TYR:484:CE2:4346, V-A:HIS:456:CG:4066, V-A:TYR:484:CD1:4343, V-A:TYR:484:CD2:4344, V-A:HIS:456:CB:4065, V-A:ASP:473:CB:4239, V-A:TYR:484:CB:4341"]

$$$$
1b_Grossjean_2025
     RDKit          3D

 42 43  0  0  0  0  0  0  0  0999 V2000
  127.1330  126.5780   73.9210 C   0  0  0  0  0  0  0  0  0  0  0  0
  128.3560  125.8580   73.9910 O   0  0  0  0  0  0  0  0  0  0  0  0
  129.4590  126.2890   73.3270 C   0  0  0  0  0  0  0  0  0  0  0  0
  130.3940  126.8820   73.8740 O   0  0  0  0  0  0  0  0  0  0  0  0
  129.4330  125.9660   71.8600 C   0  0  0  0  0  0  0  0  0  0  0  0
  129.9000  124.7410   71.3620 C   0  0  0  0  0  0  0  0  0  0  0  0
  129.8630  124.4730   69.9970 C   0  0  0  0  0  0  0  0  0  0  0  0
  129.3620  125.4190   69.1030 C   0  0  0  0  0  0  0  0  0  0  0  0
  129.3750  125.0420   67.7460 N   0  0  0  0  0  0  0  0  0  0  0  0
  129.9640  125.6330   66.6840 C   0  0  0  0  0  0  0  0  0  0  0  0
  130.6370  126.6620   66.7200 O   0  0  0  0  0  0  0  0  0  0  0  0
  129.7610  124.9230   65.3440 C   0  0  0  0  0  0  0  0  0  0  0  0
  130.0960  123.1400   65.4550 S   0  0  0  0  0  0  0  0  0  0  0  0
  130.9180  122.6600   63.9510 C   0  0  0  0  0  0  0  0  0  0  0  0
  130.1850  121.8300   63.1680 N   0  0  0  0  0  0  0  0  0  0  0  0
  130.7150  121.4040   61.9980 C   0  0  0  0  0  0  0  0  0  0  0  0
  129.8310  120.4910   61.1670 C   0  0  0  0  0  0  0  0  0  0  0  0
  131.9880  121.7730   61.5700 C   0  0  0  0  0  0  0  0  0  0  0  0
  132.7610  122.6100   62.3820 C   0  0  0  0  0  0  0  0  0  0  0  0
  134.1600  122.9880   61.9000 C   0  0  0  0  0  0  0  0  0  0  0  0
  132.2280  123.0680   63.6080 C   0  0  0  0  0  0  0  0  0  0  0  0
  133.0360  123.9100   64.4950 C   0  0  0  0  0  0  0  0  0  0  0  0
  133.6760  124.5740   65.1930 N   0  0  0  0  0  0  0  0  0  0  0  0
  128.8930  126.6470   69.5930 C   0  0  0  0  0  0  0  0  0  0  0  0
  128.9290  126.9130   70.9590 C   0  0  0  0  0  0  0  0  0  0  0  0
  126.7734  126.7897   74.9388 H   0  0  0  0  0  0  0  0  0  0  0  0
  127.2951  127.5248   73.3850 H   0  0  0  0  0  0  0  0  0  0  0  0
  126.3838  125.9769   73.3850 H   0  0  0  0  0  0  0  0  0  0  0  0
  130.2986  123.9862   72.0558 H   0  0  0  0  0  0  0  0  0  0  0  0
  130.2317  123.5076   69.6202 H   0  0  0  0  0  0  0  0  0  0  0  0
  128.8470  124.2030   67.5500 H   0  0  0  0  0  0  0  0  0  0  0  0
  128.7199  125.0685   65.0200 H   0  0  0  0  0  0  0  0  0  0  0  0
  130.4689  125.3556   64.6216 H   0  0  0  0  0  0  0  0  0  0  0  0
  129.2227  119.8628   61.8343 H   0  0  0  0  0  0  0  0  0  0  0  0
  129.1697  121.0992   60.5323 H   0  0  0  0  0  0  0  0  0  0  0  0
  130.4602  119.8497   60.5323 H   0  0  0  0  0  0  0  0  0  0  0  0
  132.3799  121.4117   60.6078 H   0  0  0  0  0  0  0  0  0  0  0  0
  134.8119  123.1641   62.7684 H   0  0  0  0  0  0  0  0  0  0  0  0
  134.5722  122.1690   61.2922 H   0  0  0  0  0  0  0  0  0  0  0  0
  134.1036  123.9031   61.2922 H   0  0  0  0  0  0  0  0  0  0  0  0
  128.4963  127.4007   68.8969 H   0  0  0  0  0  0  0  0  0  0  0  0
  128.5575  127.8776   71.3351 H   0  0  0  0  0  0  0  0  0  0  0  0
  1  2  1  0
  2  3  1  0
  3  4  2  0
  3  5  1  0
  5  6  2  0
  6  7  1  0
  7  8  2  0
  8  9  1  0
  9 10  1  0
 10 11  2  0
 10 12  1  0
 12 13  1  0
 13 14  1  0
 14 15  2  0
 15 16  1  0
 16 17  1  0
 16 18  2  0
 18 19  1  0
 19 20  1  0
 19 21  2  0
 21 22  1  0
 22 23  3  0
  8 24  1  0
 24 25  2  0
 25  5  1  0
 21 14  1  0
  1 26  1  0
  1 27  1  0
  1 28  1  0
  6 29  1  0
  7 30  1  0
  9 31  1  0
 12 32  1  0
 12 33  1  0
 17 34  1  0
 17 35  1  0
 17 36  1  0
 18 37  1  0
 20 38  1  0
 20 39  1  0
 20 40  1  0
 24 41  1  0
 25 42  1  0
M  END
>  <Binding energies>  (1) 
[-7.85]

>  <Ligand effiencies>  (1) 
[-0.3019230769230769]

>  <Interactions>  (1) 
["H-A:HIS:456:NE2:4070, V-B:GLU:543:CA:9876, V-A:HIS:456:CD2:4068, V-B:TYR:539:CD2:9846, V-A:LEU:475:CD1:4258, V-B:GLU:543:CB:9878, H-A:TYR:484:OH:4348, V-A:TYR:484:CZ:4347, V-B:GLU:543:C:9874, V-A:TYR:484:CE1:4345, V-B:HIS:456:CE1:9040, V-A:HIS:456:CE1:4069, V-B:GLU:543:CG:9879, V-B:ALA:541:CB:9864, H-B:LYS:547:NZ:9923, V-A:ILE:369:CD1:3239, V-A:GLY:454:CA:4049, H-A:GLY:454:N:4050, H-B:GLU:543:O:9875, V-B:LYS:547:CD:9921, V-A:HIS:456:CG:4066, V-B:LYS:547:CE:9922, H-A:LYS:547:NZ:4951"]

$$$$
1c_Ghoteimi_2023
     RDKit          3D

 54 57  0  0  0  0  0  0  0  0999 V2000
  127.5470  126.6000   74.8850 C   0  0  0  0  0  0  0  0  0  0  0  0
  128.3720  125.7540   74.0910 O   0  0  0  0  0  0  0  0  0  0  0  0
  128.4440  125.9660   72.7280 C   0  0  0  0  0  0  0  0  0  0  0  0
  129.3310  125.1630   72.0160 C   0  0  0  0  0  0  0  0  0  0  0  0
  129.4700  125.3110   70.6390 C   0  0  0  0  0  0  0  0  0  0  0  0
  128.7260  126.2680   69.9320 C   0  0  0  0  0  0  0  0  0  0  0  0
  128.8760  126.4330   68.4470 C   0  0  0  0  0  0  0  0  0  0  0  0
  129.7430  125.6450   67.6820 C   0  0  0  0  0  0  0  0  0  0  0  0
  129.8300  125.8190   66.2960 C   0  0  0  0  0  0  0  0  0  0  0  0
  130.7250  124.8980   65.5340 C   0  0  0  0  0  0  0  0  0  0  0  0
  132.0370  125.2730   65.2280 C   0  0  0  0  0  0  0  0  0  0  0  0
  132.8630  124.4230   64.5000 C   0  0  0  0  0  0  0  0  0  0  0  0
  132.3930  123.1850   64.0600 C   0  0  0  0  0  0  0  0  0  0  0  0
  133.2830  122.4070   63.3430 O   0  0  0  0  0  0  0  0  0  0  0  0
  133.8780  122.9390   62.1640 C   0  0  0  0  0  0  0  0  0  0  0  0
  131.0750  122.8080   64.3590 C   0  0  0  0  0  0  0  0  0  0  0  0
  130.2510  123.6610   65.0880 C   0  0  0  0  0  0  0  0  0  0  0  0
  129.0430  126.8280   65.6930 C   0  0  0  0  0  0  0  0  0  0  0  0
  129.1130  127.0820   64.2500 C   0  0  0  0  0  0  0  0  0  0  0  0
  129.1690  127.2810   63.1110 N   0  0  0  0  0  0  0  0  0  0  0  0
  128.1780  127.5740   66.5200 C   0  0  0  0  0  0  0  0  0  0  0  0
  127.0120  128.7540   65.8760 S   0  0  0  0  0  0  0  0  0  0  0  0
  127.9970  130.2510   65.5470 C   0  0  0  0  0  0  0  0  0  0  0  0
  127.6980  130.8480   64.1670 C   0  0  0  0  0  0  0  0  0  0  0  0
  126.5450  130.8320   63.7340 O   0  0  0  0  0  0  0  0  0  0  0  0
  128.7580  131.3990   63.5360 N   0  0  0  0  0  0  0  0  0  0  0  0
  128.7330  132.1340   62.3620 C   0  0  0  0  0  0  0  0  0  0  0  0
  129.6150  132.1260   61.3850 N   0  0  0  0  0  0  0  0  0  0  0  0
  129.2500  132.9210   60.3980 C   0  0  0  0  0  0  0  0  0  0  0  0
  128.0450  133.5950   60.5650 C   0  0  0  0  0  0  0  0  0  0  0  0
  127.3600  133.1590   62.1020 S   0  0  0  0  0  0  0  0  0  0  0  0
  128.0930  127.3740   67.8570 N   0  0  0  0  0  0  0  0  0  0  0  0
  127.8310  127.0670   70.6580 C   0  0  0  0  0  0  0  0  0  0  0  0
  127.6890  126.9240   72.0350 C   0  0  0  0  0  0  0  0  0  0  0  0
  127.7383  126.4038   75.9503 H   0  0  0  0  0  0  0  0  0  0  0  0
  127.7756  127.6520   74.6591 H   0  0  0  0  0  0  0  0  0  0  0  0
  126.4896  126.3979   74.6591 H   0  0  0  0  0  0  0  0  0  0  0  0
  129.9268  124.4054   72.5461 H   0  0  0  0  0  0  0  0  0  0  0  0
  130.1759  124.6661   70.0951 H   0  0  0  0  0  0  0  0  0  0  0  0
  130.3624  124.8811   68.1748 H   0  0  0  0  0  0  0  0  0  0  0  0
  132.4188  126.2478   65.5657 H   0  0  0  0  0  0  0  0  0  0  0  0
  133.8941  124.7289   64.2695 H   0  0  0  0  0  0  0  0  0  0  0  0
  134.6714  123.6484   62.4418 H   0  0  0  0  0  0  0  0  0  0  0  0
  134.3098  122.1203   61.5697 H   0  0  0  0  0  0  0  0  0  0  0  0
  133.1125  123.4593   61.5697 H   0  0  0  0  0  0  0  0  0  0  0  0
  130.6917  121.8356   64.0164 H   0  0  0  0  0  0  0  0  0  0  0  0
  129.2179  123.3589   65.3150 H   0  0  0  0  0  0  0  0  0  0  0  0
  127.7665  131.0030   66.3160 H   0  0  0  0  0  0  0  0  0  0  0  0
  129.0598  129.9683   65.5701 H   0  0  0  0  0  0  0  0  0  0  0  0
  129.6540  131.3390   63.9960 H   0  0  0  0  0  0  0  0  0  0  0  0
  129.8640  133.0440   59.4937 H   0  0  0  0  0  0  0  0  0  0  0  0
  127.5974  134.2918   59.8410 H   0  0  0  0  0  0  0  0  0  0  0  0
  127.2298  127.8211   70.1290 H   0  0  0  0  0  0  0  0  0  0  0  0
  126.9819  127.5647   72.5822 H   0  0  0  0  0  0  0  0  0  0  0  0
  1  2  1  0
  2  3  1  0
  3  4  2  0
  4  5  1  0
  5  6  2  0
  6  7  1  0
  7  8  2  0
  8  9  1  0
  9 10  1  0
 10 11  2  0
 11 12  1  0
 12 13  2  0
 13 14  1  0
 14 15  1  0
 13 16  1  0
 16 17  2  0
  9 18  2  0
 18 19  1  0
 19 20  3  0
 18 21  1  0
 21 22  1  0
 22 23  1  0
 23 24  1  0
 24 25  2  0
 24 26  1  0
 26 27  1  0
 27 28  2  0
 28 29  1  0
 29 30  2  0
 30 31  1  0
 21 32  2  0
  6 33  1  0
 33 34  2  0
 34  3  1  0
 32  7  1  0
 17 10  1  0
 31 27  1  0
  1 35  1  0
  1 36  1  0
  1 37  1  0
  4 38  1  0
  5 39  1  0
  8 40  1  0
 11 41  1  0
 12 42  1  0
 15 43  1  0
 15 44  1  0
 15 45  1  0
 16 46  1  0
 17 47  1  0
 23 48  1  0
 23 49  1  0
 26 50  1  0
 29 51  1  0
 30 52  1  0
 33 53  1  0
 34 54  1  0
M  END
>  <Binding energies>  (1) 
[-9.01]

>  <Ligand effiencies>  (1) 
[-0.2574285714285714]

>  <Interactions>  (1) 
["V-A:GLU:543:CD:4908, V-A:HIS:456:CD2:4068, V-B:GLU:543:CD:9880, V-A:LEU:475:CD1:4258, V-A:TYR:484:CZ:4347, V-A:TYR:484:CE1:4345, V-B:HIS:456:CE1:9040, V-A:HIS:456:CE1:4069, H-B:TYR:484:OH:9319, V-A:ALA:541:CB:4892, V-A:PRO:540:C:4881, V-A:PRO:540:CA:4883, V-A:TYR:539:CD2:4874, V-A:TYR:539:CE2:4876, V-A:GLU:543:CB:4906, V-A:TYR:539:C:4867, H-B:LYS:547:NZ:9923, V-B:LEU:475:CD1:9229, V-B:TYR:484:CZ:9318, V-A:ILE:369:CD1:3239, V-A:GLY:454:CA:4049, H-A:GLY:454:N:4050, H-A:GLU:543:OE1:4909, H-A:ALA:541:N:4891, V-A:PRO:540:N:4884, V-B:LYS:547:CD:9921"]

$$$$
1c_Grossjean_2025
     RDKit          3D

 40 41  0  0  0  0  0  0  0  0999 V2000
  127.4090  126.8780   73.6640 C   0  0  0  0  0  0  0  0  0  0  0  0
  128.4640  125.9910   73.3100 O   0  0  0  0  0  0  0  0  0  0  0  0
  128.7210  125.7500   71.9740 C   0  0  0  0  0  0  0  0  0  0  0  0
  128.0270  126.5370   71.0550 C   0  0  0  0  0  0  0  0  0  0  0  0
  128.2180  126.3710   69.6860 C   0  0  0  0  0  0  0  0  0  0  0  0
  129.1230  125.4070   69.2170 C   0  0  0  0  0  0  0  0  0  0  0  0
  129.3850  125.1480   67.8580 N   0  0  0  0  0  0  0  0  0  0  0  0
  129.9710  125.9370   66.9330 C   0  0  0  0  0  0  0  0  0  0  0  0
  130.4140  127.0680   67.1350 O   0  0  0  0  0  0  0  0  0  0  0  0
  130.0800  125.3350   65.5310 C   0  0  0  0  0  0  0  0  0  0  0  0
  130.1060  123.5180   65.5750 S   0  0  0  0  0  0  0  0  0  0  0  0
  130.8930  122.9310   64.0890 C   0  0  0  0  0  0  0  0  0  0  0  0
  130.0920  122.1380   63.3310 N   0  0  0  0  0  0  0  0  0  0  0  0
  130.5820  121.6310   62.1760 C   0  0  0  0  0  0  0  0  0  0  0  0
  129.6260  120.7640   61.3790 C   0  0  0  0  0  0  0  0  0  0  0  0
  131.8800  121.8810   61.7370 C   0  0  0  0  0  0  0  0  0  0  0  0
  132.7220  122.6750   62.5210 C   0  0  0  0  0  0  0  0  0  0  0  0
  134.1470  122.9200   62.0270 C   0  0  0  0  0  0  0  0  0  0  0  0
  132.2330  123.2140   63.7340 C   0  0  0  0  0  0  0  0  0  0  0  0
  133.1170  124.0040   64.5950 C   0  0  0  0  0  0  0  0  0  0  0  0
  133.8150  124.6270   65.2750 N   0  0  0  0  0  0  0  0  0  0  0  0
  129.8120  124.6100   70.1330 C   0  0  0  0  0  0  0  0  0  0  0  0
  129.6170  124.7790   71.5010 C   0  0  0  0  0  0  0  0  0  0  0  0
  127.3346  126.9405   74.7597 H   0  0  0  0  0  0  0  0  0  0  0  0
  127.6164  127.8770   73.2530 H   0  0  0  0  0  0  0  0  0  0  0  0
  126.4604  126.5021   73.2530 H   0  0  0  0  0  0  0  0  0  0  0  0
  127.3200  127.2983   71.4164 H   0  0  0  0  0  0  0  0  0  0  0  0
  127.6598  126.9951   68.9727 H   0  0  0  0  0  0  0  0  0  0  0  0
  129.1370  124.2180   67.5570 H   0  0  0  0  0  0  0  0  0  0  0  0
  129.2165  125.6641   64.9343 H   0  0  0  0  0  0  0  0  0  0  0  0
  131.0244  125.6792   65.0842 H   0  0  0  0  0  0  0  0  0  0  0  0
  128.9913  120.1884   62.0687 H   0  0  0  0  0  0  0  0  0  0  0  0
  128.9934  121.4028   60.7451 H   0  0  0  0  0  0  0  0  0  0  0  0
  130.2001  120.0722   60.7451 H   0  0  0  0  0  0  0  0  0  0  0  0
  132.2377  121.4593   60.7861 H   0  0  0  0  0  0  0  0  0  0  0  0
  134.8194  123.0356   62.8899 H   0  0  0  0  0  0  0  0  0  0  0  0
  134.4759  122.0652   61.4178 H   0  0  0  0  0  0  0  0  0  0  0  0
  134.1715  123.8355   61.4178 H   0  0  0  0  0  0  0  0  0  0  0  0
  130.5134  123.8436   69.7715 H   0  0  0  0  0  0  0  0  0  0  0  0
  130.1678  124.1485   72.2145 H   0  0  0  0  0  0  0  0  0  0  0  0
  1  2  1  0
  2  3  1  0
  3  4  2  0
  4  5  1  0
  5  6  2  0
  6  7  1  0
  7  8  1  0
  8  9  2  0
  8 10  1  0
 10 11  1  0
 11 12  1  0
 12 13  2  0
 13 14  1  0
 14 15  1  0
 14 16  2  0
 16 17  1  0
 17 18  1  0
 17 19  2  0
 19 20  1  0
 20 21  3  0
  6 22  1  0
 22 23  2  0
 23  3  1  0
 19 12  1  0
  1 24  1  0
  1 25  1  0
  1 26  1  0
  4 27  1  0
  5 28  1  0
  7 29  1  0
 10 30  1  0
 10 31  1  0
 15 32  1  0
 15 33  1  0
 15 34  1  0
 16 35  1  0
 18 36  1  0
 18 37  1  0
 18 38  1  0
 22 39  1  0
 23 40  1  0
M  END
>  <Binding energies>  (1) 
[-7.22]

>  <Ligand effiencies>  (1) 
[-0.30083333333333334]

>  <Interactions>  (1) 
["H-A:HIS:456:NE2:4070, V-B:GLU:543:CA:9876, V-A:HIS:456:CD2:4068, V-A:LEU:475:CD1:4258, V-B:GLU:543:CB:9878, H-A:TYR:484:OH:4348, V-A:TYR:484:CZ:4347, V-B:GLU:543:C:9874, V-A:TYR:484:CE1:4345, V-B:HIS:456:CE1:9040, V-A:HIS:456:CE1:4069, V-B:GLY:544:C:9884, V-B:ALA:541:CB:9864, H-B:LYS:547:NZ:9923, V-A:ILE:369:CD1:3239, V-A:GLY:454:CA:4049, H-A:GLY:454:N:4050, V-B:ALA:541:CA:9862, H-B:GLU:543:O:9875, V-A:HIS:456:CG:4066"]

$$$$
1d_Ghoteimi_2023
     RDKit          3D

 50 52  0  0  0  0  0  0  0  0999 V2000
  133.6340  124.7330   62.9090 C   0  0  0  0  0  0  0  0  0  0  0  0
  133.6150  124.0560   64.1570 O   0  0  0  0  0  0  0  0  0  0  0  0
  133.6330  124.7510   65.3130 C   0  0  0  0  0  0  0  0  0  0  0  0
  134.4640  124.6430   66.2160 O   0  0  0  0  0  0  0  0  0  0  0  0
  132.4690  125.7330   65.4180 C   0  0  0  0  0  0  0  0  0  0  0  0
  130.9410  124.7580   65.5590 S   0  0  0  0  0  0  0  0  0  0  0  0
  129.7410  125.7860   66.3770 C   0  0  0  0  0  0  0  0  0  0  0  0
  129.7420  125.6580   67.7250 N   0  0  0  0  0  0  0  0  0  0  0  0
  128.8720  126.3830   68.4750 C   0  0  0  0  0  0  0  0  0  0  0  0
  128.9420  126.1870   69.9620 C   0  0  0  0  0  0  0  0  0  0  0  0
  128.4560  127.1600   70.8490 C   0  0  0  0  0  0  0  0  0  0  0  0
  128.5270  126.9800   72.2260 C   0  0  0  0  0  0  0  0  0  0  0  0
  129.0880  125.8230   72.7620 C   0  0  0  0  0  0  0  0  0  0  0  0
  129.1210  125.7310   74.1400 O   0  0  0  0  0  0  0  0  0  0  0  0
  130.3700  125.5330   74.7930 C   0  0  0  0  0  0  0  0  0  0  0  0
  129.5800  124.8420   71.8900 C   0  0  0  0  0  0  0  0  0  0  0  0
  129.5050  125.0260   70.5120 C   0  0  0  0  0  0  0  0  0  0  0  0
  127.9780  127.2720   67.8680 C   0  0  0  0  0  0  0  0  0  0  0  0
  127.9450  127.4130   66.4750 C   0  0  0  0  0  0  0  0  0  0  0  0
  126.9600  128.3750   65.8940 C   0  0  0  0  0  0  0  0  0  0  0  0
  125.6500  128.4230   66.3820 C   0  0  0  0  0  0  0  0  0  0  0  0
  124.7270  129.3160   65.8450 C   0  0  0  0  0  0  0  0  0  0  0  0
  125.0950  130.1820   64.8150 C   0  0  0  0  0  0  0  0  0  0  0  0
  124.1120  131.0290   64.3400 O   0  0  0  0  0  0  0  0  0  0  0  0
  123.9120  131.1420   62.9350 C   0  0  0  0  0  0  0  0  0  0  0  0
  126.4110  130.1470   64.3310 C   0  0  0  0  0  0  0  0  0  0  0  0
  127.3320  129.2530   64.8700 C   0  0  0  0  0  0  0  0  0  0  0  0
  128.8370  126.6340   65.6970 C   0  0  0  0  0  0  0  0  0  0  0  0
  128.7750  126.6640   64.2330 C   0  0  0  0  0  0  0  0  0  0  0  0
  128.7240  126.6880   63.0770 N   0  0  0  0  0  0  0  0  0  0  0  0
  133.6645  125.8190   63.0814 H   0  0  0  0  0  0  0  0  0  0  0  0
  134.5239  124.4270   62.3394 H   0  0  0  0  0  0  0  0  0  0  0  0
  132.7283  124.4774   62.3394 H   0  0  0  0  0  0  0  0  0  0  0  0
  132.5926  126.3679   66.3077 H   0  0  0  0  0  0  0  0  0  0  0  0
  132.4317  126.3851   64.5329 H   0  0  0  0  0  0  0  0  0  0  0  0
  128.0106  128.0822   70.4474 H   0  0  0  0  0  0  0  0  0  0  0  0
  128.1366  127.7583   72.8982 H   0  0  0  0  0  0  0  0  0  0  0  0
  130.2218  125.5565   75.8827 H   0  0  0  0  0  0  0  0  0  0  0  0
  130.7861  124.5577   74.5005 H   0  0  0  0  0  0  0  0  0  0  0  0
  131.0674  126.3318   74.5005 H   0  0  0  0  0  0  0  0  0  0  0  0
  130.0273  123.9228   72.2962 H   0  0  0  0  0  0  0  0  0  0  0  0
  129.8948  124.2458   69.8416 H   0  0  0  0  0  0  0  0  0  0  0  0
  127.2939  127.8664   68.4915 H   0  0  0  0  0  0  0  0  0  0  0  0
  125.3466  127.7494   67.1970 H   0  0  0  0  0  0  0  0  0  0  0  0
  123.6991  129.3390   66.2360 H   0  0  0  0  0  0  0  0  0  0  0  0
  122.9694  131.6746   62.7405 H   0  0  0  0  0  0  0  0  0  0  0  0
  124.7479  131.7013   62.4895 H   0  0  0  0  0  0  0  0  0  0  0  0
  123.8642  130.1374   62.4895 H   0  0  0  0  0  0  0  0  0  0  0  0
  126.7163  130.8281   63.5230 H   0  0  0  0  0  0  0  0  0  0  0  0
  128.3630  129.2367   64.4869 H   0  0  0  0  0  0  0  0  0  0  0  0
  1  2  1  0
  2  3  1  0
  3  4  2  0
  3  5  1  0
  5  6  1  0
  6  7  1  0
  7  8  2  0
  8  9  1  0
  9 10  1  0
 10 11  2  0
 11 12  1  0
 12 13  2  0
 13 14  1  0
 14 15  1  0
 13 16  1  0
 16 17  2  0
  9 18  2  0
 18 19  1  0
 19 20  1  0
 20 21  2  0
 21 22  1  0
 22 23  2  0
 23 24  1  0
 24 25  1  0
 23 26  1  0
 26 27  2  0
 19 28  2  0
 28 29  1  0
 29 30  3  0
 28  7  1  0
 17 10  1  0
 27 20  1  0
  1 31  1  0
  1 32  1  0
  1 33  1  0
  5 34  1  0
  5 35  1  0
 11 36  1  0
 12 37  1  0
 15 38  1  0
 15 39  1  0
 15 40  1  0
 16 41  1  0
 17 42  1  0
 18 43  1  0
 21 44  1  0
 22 45  1  0
 25 46  1  0
 25 47  1  0
 25 48  1  0
 26 49  1  0
 27 50  1  0
M  END
>  <Binding energies>  (1) 
[-8.58]

>  <Ligand effiencies>  (1) 
[-0.286]

>  <Interactions>  (1) 
["H-A:HIS:456:NE2:4070, V-A:GLU:543:CD:4908, V-A:HIS:456:CD2:4068, V-B:GLU:543:CD:9880, V-B:GLU:543:CB:9878, H-A:TYR:484:OH:4348, V-B:HIS:456:CE1:9040, V-A:HIS:456:CE1:4069, V-B:GLU:543:CG:9879, V-B:ARG:545:CD:9895, V-B:ARG:545:CZ:9898, H-B:TYR:484:OH:9319, V-B:ARG:545:CG:9894, V-A:ARG:545:CZ:4926, H-B:LYS:547:NZ:9923, V-B:GLY:454:CA:9020, H-A:GLY:454:N:4050, H-B:GLY:454:N:9021, H-A:ILE:455:N:4055"]

$$$$
1d_Grossjean_2025
     RDKit          3D

 36 37  0  0  0  0  0  0  0  0999 V2000
  129.8730  120.2530   61.0230 C   0  0  0  0  0  0  0  0  0  0  0  0
  130.7750  121.1750   61.8190 C   0  0  0  0  0  0  0  0  0  0  0  0
  132.0540  121.5060   61.3760 C   0  0  0  0  0  0  0  0  0  0  0  0
  132.8380  122.3700   62.1480 C   0  0  0  0  0  0  0  0  0  0  0  0
  134.2310  122.7310   61.6330 C   0  0  0  0  0  0  0  0  0  0  0  0
  132.3190  122.8780   63.3610 C   0  0  0  0  0  0  0  0  0  0  0  0
  133.1030  123.8220   64.1600 C   0  0  0  0  0  0  0  0  0  0  0  0
  133.7260  124.5670   64.7900 N   0  0  0  0  0  0  0  0  0  0  0  0
  131.0200  122.4690   63.7450 C   0  0  0  0  0  0  0  0  0  0  0  0
  130.2130  123.0080   65.2360 S   0  0  0  0  0  0  0  0  0  0  0  0
  130.2470  124.8260   65.2440 C   0  0  0  0  0  0  0  0  0  0  0  0
  129.5040  125.4110   66.4470 C   0  0  0  0  0  0  0  0  0  0  0  0
  128.5690  126.1890   66.2550 O   0  0  0  0  0  0  0  0  0  0  0  0
  129.9370  124.9890   67.6550 N   0  0  0  0  0  0  0  0  0  0  0  0
  129.4930  125.3380   68.9440 C   0  0  0  0  0  0  0  0  0  0  0  0
  128.6120  126.4200   69.0090 C   0  0  0  0  0  0  0  0  0  0  0  0
  128.1080  126.8440   70.2360 C   0  0  0  0  0  0  0  0  0  0  0  0
  128.4800  126.1790   71.4010 C   0  0  0  0  0  0  0  0  0  0  0  0
  129.3510  125.0930   71.3500 C   0  0  0  0  0  0  0  0  0  0  0  0
  129.8570  124.6680   70.1250 C   0  0  0  0  0  0  0  0  0  0  0  0
  130.2590  121.6470   62.9780 N   0  0  0  0  0  0  0  0  0  0  0  0
  129.2739  119.6406   61.7130 H   0  0  0  0  0  0  0  0  0  0  0  0
  129.2032  120.8527   60.3892 H   0  0  0  0  0  0  0  0  0  0  0  0
  130.4872  119.5965   60.3892 H   0  0  0  0  0  0  0  0  0  0  0  0
  132.4417  121.0938   60.4327 H   0  0  0  0  0  0  0  0  0  0  0  0
  134.9035  122.9053   62.4859 H   0  0  0  0  0  0  0  0  0  0  0  0
  134.6214  121.9043   61.0212 H   0  0  0  0  0  0  0  0  0  0  0  0
  134.1707  123.6432   61.0212 H   0  0  0  0  0  0  0  0  0  0  0  0
  131.2943  125.1609   65.2770 H   0  0  0  0  0  0  0  0  0  0  0  0
  129.7436  125.1779   64.3315 H   0  0  0  0  0  0  0  0  0  0  0  0
  130.6840  124.3100   67.6460 H   0  0  0  0  0  0  0  0  0  0  0  0
  128.3148  126.9398   68.0863 H   0  0  0  0  0  0  0  0  0  0  0  0
  127.4192  127.7003   70.2844 H   0  0  0  0  0  0  0  0  0  0  0  0
  128.0827  126.5140   72.3705 H   0  0  0  0  0  0  0  0  0  0  0  0
  129.6382  124.5726   72.2756 H   0  0  0  0  0  0  0  0  0  0  0  0
  130.5415  123.8081   70.0810 H   0  0  0  0  0  0  0  0  0  0  0  0
  1  2  1  0
  2  3  2  0
  3  4  1  0
  4  5  1  0
  4  6  2  0
  6  7  1  0
  7  8  3  0
  6  9  1  0
  9 10  1  0
 10 11  1  0
 11 12  1  0
 12 13  2  0
 12 14  1  0
 14 15  1  0
 15 16  2  0
 16 17  1  0
 17 18  2  0
 18 19  1  0
 19 20  2  0
  9 21  2  0
 21  2  1  0
 20 15  1  0
  1 22  1  0
  1 23  1  0
  1 24  1  0
  3 25  1  0
  5 26  1  0
  5 27  1  0
  5 28  1  0
 11 29  1  0
 11 30  1  0
 14 31  1  0
 16 32  1  0
 17 33  1  0
 18 34  1  0
 19 35  1  0
 20 36  1  0
M  END
>  <Binding energies>  (1) 
[-6.96]

>  <Ligand effiencies>  (1) 
[-0.31636363636363635]

>  <Interactions>  (1) 
["V-A:HIS:456:CD2:4068, V-B:TYR:539:CD2:9846, V-A:LEU:475:CD1:4258, V-B:GLU:543:CB:9878, H-A:TYR:484:OH:4348, V-A:TYR:484:CZ:4347, V-B:GLU:543:C:9874, V-A:TYR:484:CE1:4345, V-B:HIS:456:CE1:9040, V-A:HIS:456:CE1:4069, V-B:ALA:541:CB:9864, V-A:ILE:369:CD1:3239, V-A:GLY:454:CA:4049, H-A:GLY:454:N:4050, H-B:GLU:543:O:9875, V-A:HIS:456:CG:4066, H-A:HIS:456:ND1:4067"]

$$$$
1e_Grossjean_2025
     RDKit          3D

 38 39  0  0  0  0  0  0  0  0999 V2000
  130.2390  124.0550   72.2920 C   0  0  0  0  0  0  0  0  0  0  0  0
  129.6020  124.8390   71.1600 C   0  0  0  0  0  0  0  0  0  0  0  0
  128.6330  125.8160   71.4010 C   0  0  0  0  0  0  0  0  0  0  0  0
  128.0900  126.4940   70.3100 C   0  0  0  0  0  0  0  0  0  0  0  0
  128.5210  126.1830   69.0180 C   0  0  0  0  0  0  0  0  0  0  0  0
  129.5000  125.1970   68.8480 C   0  0  0  0  0  0  0  0  0  0  0  0
  129.8850  124.9190   67.5240 N   0  0  0  0  0  0  0  0  0  0  0  0
  129.7510  125.6980   66.4280 C   0  0  0  0  0  0  0  0  0  0  0  0
  129.2380  126.8180   66.4160 O   0  0  0  0  0  0  0  0  0  0  0  0
  130.2620  125.0960   65.1180 C   0  0  0  0  0  0  0  0  0  0  0  0
  129.9880  123.3000   65.0410 S   0  0  0  0  0  0  0  0  0  0  0  0
  130.9360  122.6360   63.6860 C   0  0  0  0  0  0  0  0  0  0  0  0
  130.2550  121.7210   62.9490 N   0  0  0  0  0  0  0  0  0  0  0  0
  130.8730  121.1440   61.8920 C   0  0  0  0  0  0  0  0  0  0  0  0
  130.0480  120.1390   61.1130 C   0  0  0  0  0  0  0  0  0  0  0  0
  132.1870  121.4420   61.5360 C   0  0  0  0  0  0  0  0  0  0  0  0
  132.9060  122.3640   62.3020 C   0  0  0  0  0  0  0  0  0  0  0  0
  134.3500  122.6600   61.9010 C   0  0  0  0  0  0  0  0  0  0  0  0
  132.2820  122.9780   63.4130 C   0  0  0  0  0  0  0  0  0  0  0  0
  133.0400  123.9010   64.2600 C   0  0  0  0  0  0  0  0  0  0  0  0
  133.6410  124.6310   64.9280 N   0  0  0  0  0  0  0  0  0  0  0  0
  130.0320  124.5260   69.9110 N   0  0  0  0  0  0  0  0  0  0  0  0
  129.9050  124.4661   73.2561 H   0  0  0  0  0  0  0  0  0  0  0  0
  129.9399  122.9989   72.2203 H   0  0  0  0  0  0  0  0  0  0  0  0
  131.3340  124.1316   72.2203 H   0  0  0  0  0  0  0  0  0  0  0  0
  128.3063  126.0449   72.4261 H   0  0  0  0  0  0  0  0  0  0  0  0
  127.3260  127.2699   70.4660 H   0  0  0  0  0  0  0  0  0  0  0  0
  128.0974  126.7051   68.1474 H   0  0  0  0  0  0  0  0  0  0  0  0
  130.2630  123.9940   67.3790 H   0  0  0  0  0  0  0  0  0  0  0  0
  129.7340  125.5721   64.2786 H   0  0  0  0  0  0  0  0  0  0  0  0
  131.3455  125.2771   65.0607 H   0  0  0  0  0  0  0  0  0  0  0  0
  129.5102  119.4839   61.8142 H   0  0  0  0  0  0  0  0  0  0  0  0
  129.3233  120.6717   60.4797 H   0  0  0  0  0  0  0  0  0  0  0  0
  130.7117  119.5320   60.4797 H   0  0  0  0  0  0  0  0  0  0  0  0
  132.6519  120.9583   60.6643 H   0  0  0  0  0  0  0  0  0  0  0  0
  134.9633  122.7857   62.8055 H   0  0  0  0  0  0  0  0  0  0  0  0
  134.7436  121.8239   61.3044 H   0  0  0  0  0  0  0  0  0  0  0  0
  134.3829  123.5836   61.3044 H   0  0  0  0  0  0  0  0  0  0  0  0
  1  2  1  0
  2  3  2  0
  3  4  1  0
  4  5  2  0
  5  6  1  0
  6  7  1  0
  7  8  1  0
  8  9  2  0
  8 10  1  0
 10 11  1  0
 11 12  1  0
 12 13  2  0
 13 14  1  0
 14 15  1  0
 14 16  2  0
 16 17  1  0
 17 18  1  0
 17 19  2  0
 19 20  1  0
 20 21  3  0
  6 22  2  0
 22  2  1  0
 19 12  1  0
  1 23  1  0
  1 24  1  0
  1 25  1  0
  3 26  1  0
  4 27  1  0
  5 28  1  0
  7 29  1  0
 10 30  1  0
 10 31  1  0
 15 32  1  0
 15 33  1  0
 15 34  1  0
 16 35  1  0
 18 36  1  0
 18 37  1  0
 18 38  1  0
M  END
>  <Binding energies>  (1) 
[-6.95]

>  <Ligand effiencies>  (1) 
[-0.3021739130434783]

>  <Interactions>  (1) 
["H-A:HIS:456:NE2:4070, V-A:HIS:456:CD2:4068, V-B:TYR:539:CD2:9846, V-A:LEU:475:CD1:4258, V-B:GLU:543:CB:9878, H-A:TYR:484:OH:4348, V-A:TYR:484:CZ:4347, V-B:GLU:543:C:9874, V-A:TYR:484:CE1:4345, V-B:HIS:456:CE1:9040, V-A:HIS:456:CE1:4069, V-B:GLY:544:C:9884, V-B:ALA:541:CB:9864, V-A:ILE:369:CD1:3239, V-A:GLY:454:CA:4049, H-A:GLY:454:N:4050, V-A:PRO:482:CG:4327, H-B:GLU:543:O:9875, V-A:HIS:456:CG:4066"]

$$$$
1f_Grossjean_2025
     RDKit          3D

 35 36  0  0  0  0  0  0  0  0999 V2000
  134.0790  124.2530   62.5660 C   0  0  0  0  0  0  0  0  0  0  0  0
  133.1730  123.0820   62.2330 C   0  0  0  0  0  0  0  0  0  0  0  0
  133.6150  122.0150   61.4550 C   0  0  0  0  0  0  0  0  0  0  0  0
  132.7310  120.9690   61.1700 C   0  0  0  0  0  0  0  0  0  0  0  0
  133.2340  119.8200   60.2990 C   0  0  0  0  0  0  0  0  0  0  0  0
  131.4150  121.0160   61.6860 C   0  0  0  0  0  0  0  0  0  0  0  0
  130.4580  119.9580   61.3520 C   0  0  0  0  0  0  0  0  0  0  0  0
  129.7040  119.1210   61.0880 N   0  0  0  0  0  0  0  0  0  0  0  0
  131.0610  122.1240   62.4900 C   0  0  0  0  0  0  0  0  0  0  0  0
  129.4540  122.3550   63.2250 S   0  0  0  0  0  0  0  0  0  0  0  0
  128.4810  123.4600   62.1460 C   0  0  0  0  0  0  0  0  0  0  0  0
  128.0120  122.8280   60.8270 C   0  0  0  0  0  0  0  0  0  0  0  0
  128.3840  121.6980   60.5090 O   0  0  0  0  0  0  0  0  0  0  0  0
  127.2100  123.6180   60.0810 N   0  0  0  0  0  0  0  0  0  0  0  0
  126.6010  123.3600   58.8380 C   0  0  0  0  0  0  0  0  0  0  0  0
  125.3640  123.8780   58.4090 C   0  0  0  0  0  0  0  0  0  0  0  0
  124.8760  123.5420   57.1430 C   0  0  0  0  0  0  0  0  0  0  0  0
  125.6390  122.6990   56.3350 C   0  0  0  0  0  0  0  0  0  0  0  0
  126.8360  122.1910   56.7220 N   0  0  0  0  0  0  0  0  0  0  0  0
  127.2960  122.5260   57.9550 C   0  0  0  0  0  0  0  0  0  0  0  0
  131.9190  123.1450   62.7400 N   0  0  0  0  0  0  0  0  0  0  0  0
  134.1586  124.3559   63.6583 H   0  0  0  0  0  0  0  0  0  0  0  0
  135.0779  124.0763   62.1406 H   0  0  0  0  0  0  0  0  0  0  0  0
  133.6572  125.1755   62.1406 H   0  0  0  0  0  0  0  0  0  0  0  0
  134.6452  121.9949   61.0698 H   0  0  0  0  0  0  0  0  0  0  0  0
  133.5920  119.0022   60.9417 H   0  0  0  0  0  0  0  0  0  0  0  0
  132.4134  119.4549   59.6639 H   0  0  0  0  0  0  0  0  0  0  0  0
  134.0589  120.1752   59.6639 H   0  0  0  0  0  0  0  0  0  0  0  0
  127.5909  123.7857   62.7043 H   0  0  0  0  0  0  0  0  0  0  0  0
  129.1496  124.2888   61.8702 H   0  0  0  0  0  0  0  0  0  0  0  0
  127.0240  124.5390   60.4510 H   0  0  0  0  0  0  0  0  0  0  0  0
  124.7850  124.5433   59.0664 H   0  0  0  0  0  0  0  0  0  0  0  0
  123.9104  123.9342   56.7912 H   0  0  0  0  0  0  0  0  0  0  0  0
  125.2529  122.4343   55.3396 H   0  0  0  0  0  0  0  0  0  0  0  0
  128.2665  122.1202   58.2768 H   0  0  0  0  0  0  0  0  0  0  0  0
  1  2  1  0
  2  3  2  0
  3  4  1  0
  4  5  1  0
  4  6  2  0
  6  7  1  0
  7  8  3  0
  6  9  1  0
  9 10  1  0
 10 11  1  0
 11 12  1  0
 12 13  2  0
 12 14  1  0
 14 15  1  0
 15 16  2  0
 16 17  1  0
 17 18  2  0
 18 19  1  0
 19 20  2  0
  9 21  2  0
 21  2  1  0
 20 15  1  0
  1 22  1  0
  1 23  1  0
  1 24  1  0
  3 25  1  0
  5 26  1  0
  5 27  1  0
  5 28  1  0
 11 29  1  0
 11 30  1  0
 14 31  1  0
 16 32  1  0
 17 33  1  0
 18 34  1  0
 20 35  1  0
M  END
>  <Binding energies>  (1) 
[-6.79]

>  <Ligand effiencies>  (1) 
[-0.30863636363636365]

>  <Interactions>  (1) 
["V-B:GLU:543:CD:9880, V-B:TYR:539:CD2:9846, V-A:LEU:475:CD1:4258, H-B:ALA:541:N:9863, V-B:TYR:539:CE2:9848, V-B:GLU:543:CG:9879, V-A:ARG:545:CZ:4926, V-B:PRO:540:CA:9855, V-B:ALA:541:CB:9864, V-B:TYR:539:C:9839, V-B:PRO:540:CB:9857, V-B:PRO:540:N:9856, V-A:ILE:369:CD1:3239, V-A:GLY:453:CA:4044, V-A:GLY:453:C:4042, V-A:ILE:369:CG2:3237, V-A:PRO:482:CG:4327, V-A:PRO:482:CB:4326, H-B:GLU:543:OE2:9882, V-A:TRP:381:CH2:3372, V-B:LEU:363:CD1:8160, V-B:PRO:540:CD:9859, V-B:ILE:538:CB:9834, H-B:TYR:539:N:9842, V-B:ILE:538:CG2:9835"]

$$$$
1g_Grossjean_2025
     RDKit          3D

 39 40  0  0  0  0  0  0  0  0999 V2000
  128.6970  123.8060   60.9720 C   0  0  0  0  0  0  0  0  0  0  0  0
  129.8020  122.7660   60.9620 C   0  0  0  0  0  0  0  0  0  0  0  0
  129.5220  121.4050   60.8510 C   0  0  0  0  0  0  0  0  0  0  0  0
  130.5810  120.4910   60.8630 C   0  0  0  0  0  0  0  0  0  0  0  0
  130.2490  119.0030   60.7550 C   0  0  0  0  0  0  0  0  0  0  0  0
  131.9060  120.9690   60.9780 C   0  0  0  0  0  0  0  0  0  0  0  0
  133.0270  120.0280   61.0460 C   0  0  0  0  0  0  0  0  0  0  0  0
  133.9100  119.2810   61.1000 N   0  0  0  0  0  0  0  0  0  0  0  0
  132.0980  122.3680   61.0600 C   0  0  0  0  0  0  0  0  0  0  0  0
  133.6950  123.1400   61.1990 S   0  0  0  0  0  0  0  0  0  0  0  0
  133.4940  124.6100   62.2500 C   0  0  0  0  0  0  0  0  0  0  0  0
  132.9570  124.2540   63.6370 C   0  0  0  0  0  0  0  0  0  0  0  0
  133.6920  124.3380   64.6220 O   0  0  0  0  0  0  0  0  0  0  0  0
  131.6750  123.8540   63.6940 N   0  0  0  0  0  0  0  0  0  0  0  0
  130.9440  123.5220   64.9170 C   0  0  0  0  0  0  0  0  0  0  0  0
  130.1760  124.6910   65.5260 C   0  0  0  0  0  0  0  0  0  0  0  0
  129.7970  125.7720   64.7230 C   0  0  0  0  0  0  0  0  0  0  0  0
  129.0960  126.8390   65.2780 C   0  0  0  0  0  0  0  0  0  0  0  0
  128.7710  126.8200   66.6330 C   0  0  0  0  0  0  0  0  0  0  0  0
  129.1420  125.7450   67.4380 C   0  0  0  0  0  0  0  0  0  0  0  0
  129.8450  124.6780   66.8840 C   0  0  0  0  0  0  0  0  0  0  0  0
  131.0630  123.2460   61.0710 N   0  0  0  0  0  0  0  0  0  0  0  0
  128.4350  124.0526   62.0115 H   0  0  0  0  0  0  0  0  0  0  0  0
  129.0431  124.7137   60.4559 H   0  0  0  0  0  0  0  0  0  0  0  0
  127.8120  123.4056   60.4559 H   0  0  0  0  0  0  0  0  0  0  0  0
  128.4836  121.0548   60.7554 H   0  0  0  0  0  0  0  0  0  0  0  0
  130.1534  118.5745   61.7636 H   0  0  0  0  0  0  0  0  0  0  0  0
  129.3007  118.8774   60.2118 H   0  0  0  0  0  0  0  0  0  0  0  0
  131.0539  118.4862   60.2118 H   0  0  0  0  0  0  0  0  0  0  0  0
  134.4714  125.1019   62.3632 H   0  0  0  0  0  0  0  0  0  0  0  0
  132.7663  125.2773   61.7651 H   0  0  0  0  0  0  0  0  0  0  0  0
  131.1390  123.8340   62.8380 H   0  0  0  0  0  0  0  0  0  0  0  0
  130.2257  122.7225   64.6828 H   0  0  0  0  0  0  0  0  0  0  0  0
  131.6954  123.2172   65.6603 H   0  0  0  0  0  0  0  0  0  0  0  0
  130.0529  125.7789   63.6532 H   0  0  0  0  0  0  0  0  0  0  0  0
  128.8002  127.6926   64.6503 H   0  0  0  0  0  0  0  0  0  0  0  0
  128.2159  127.6623   67.0715 H   0  0  0  0  0  0  0  0  0  0  0  0
  128.8808  125.7391   68.5065 H   0  0  0  0  0  0  0  0  0  0  0  0
  130.1394  123.8260   67.5144 H   0  0  0  0  0  0  0  0  0  0  0  0
  1  2  1  0
  2  3  2  0
  3  4  1  0
  4  5  1  0
  4  6  2  0
  6  7  1  0
  7  8  3  0
  6  9  1  0
  9 10  1  0
 10 11  1  0
 11 12  1  0
 12 13  2  0
 12 14  1  0
 14 15  1  0
 15 16  1  0
 16 17  2  0
 17 18  1  0
 18 19  2  0
 19 20  1  0
 20 21  2  0
  9 22  2  0
 22  2  1  0
 21 16  1  0
  1 23  1  0
  1 24  1  0
  1 25  1  0
  3 26  1  0
  5 27  1  0
  5 28  1  0
  5 29  1  0
 11 30  1  0
 11 31  1  0
 14 32  1  0
 15 33  1  0
 15 34  1  0
 17 35  1  0
 18 36  1  0
 19 37  1  0
 20 38  1  0
 21 39  1  0
M  END
>  <Binding energies>  (1) 
[-6.24]

>  <Ligand effiencies>  (1) 
[-0.271304347826087]

>  <Interactions>  (1) 
["V-B:GLU:543:CA:9876, V-A:GLU:543:CD:4908, V-A:ASP:366:CG:3213, V-B:TYR:539:CD2:9846, V-A:LEU:475:CD1:4258, V-B:GLU:543:CB:9878, H-A:TYR:484:OH:4348, V-A:TYR:484:CZ:4347, V-A:TYR:484:CE1:4345, V-B:TYR:539:CE2:9848, V-A:HIS:456:CE1:4069, V-A:ARG:545:CZ:4926, V-B:ALA:541:CB:9864, V-A:ILE:369:CG2:3237, H-A:GLY:454:N:4050, V-A:TRP:381:CZ2:3370, V-A:PRO:482:CG:4327, V-A:PRO:482:CB:4326, V-A:TRP:381:CH2:3372"]

$$$$
1h_Grossjean_2025
     RDKit          3D

 51 52  0  0  0  0  0  0  0  0999 V2000
  127.2290  127.8620   73.3820 C   0  0  0  0  0  0  0  0  0  0  0  0
  128.4940  127.9140   72.7320 O   0  0  0  0  0  0  0  0  0  0  0  0
  128.8160  126.9470   71.7980 C   0  0  0  0  0  0  0  0  0  0  0  0
  128.8430  127.1740   70.4130 C   0  0  0  0  0  0  0  0  0  0  0  0
  129.1650  126.1460   69.5260 C   0  0  0  0  0  0  0  0  0  0  0  0
  129.2130  126.4120   68.0240 C   0  0  0  0  0  0  0  0  0  0  0  0
  129.0850  125.2080   67.2030 N   0  0  0  0  0  0  0  0  0  0  0  0
  129.7420  124.9800   66.0510 C   0  0  0  0  0  0  0  0  0  0  0  0
  130.5590  125.7620   65.5640 O   0  0  0  0  0  0  0  0  0  0  0  0
  129.4250  123.6680   65.3340 C   0  0  0  0  0  0  0  0  0  0  0  0
  130.8730  122.5720   65.2460 S   0  0  0  0  0  0  0  0  0  0  0  0
  131.3180  122.3790   63.5270 C   0  0  0  0  0  0  0  0  0  0  0  0
  130.5310  121.5390   62.8050 N   0  0  0  0  0  0  0  0  0  0  0  0
  130.8100  121.3510   61.4940 C   0  0  0  0  0  0  0  0  0  0  0  0
  129.8840  120.4040   60.7540 C   0  0  0  0  0  0  0  0  0  0  0  0
  131.8740  121.9810   60.8530 C   0  0  0  0  0  0  0  0  0  0  0  0
  132.6930  122.8460   61.5870 C   0  0  0  0  0  0  0  0  0  0  0  0
  133.8530  123.5280   60.8640 C   0  0  0  0  0  0  0  0  0  0  0  0
  132.4200  123.0580   62.9570 C   0  0  0  0  0  0  0  0  0  0  0  0
  133.2620  123.9560   63.7510 C   0  0  0  0  0  0  0  0  0  0  0  0
  133.9290  124.6660   64.3780 N   0  0  0  0  0  0  0  0  0  0  0  0
  129.4990  124.8860   70.0240 C   0  0  0  0  0  0  0  0  0  0  0  0
  129.4850  124.6320   71.4050 C   0  0  0  0  0  0  0  0  0  0  0  0
  129.8020  123.4090   71.9680 O   0  0  0  0  0  0  0  0  0  0  0  0
  131.1630  123.1030   72.2560 C   0  0  0  0  0  0  0  0  0  0  0  0
  129.1310  125.6680   72.2810 C   0  0  0  0  0  0  0  0  0  0  0  0
  129.1200  125.4360   73.6350 O   0  0  0  0  0  0  0  0  0  0  0  0
  130.3320  125.7810   74.2910 C   0  0  0  0  0  0  0  0  0  0  0  0
  127.3764  127.8681   74.4721 H   0  0  0  0  0  0  0  0  0  0  0  0
  126.6296  128.7363   73.0882 H   0  0  0  0  0  0  0  0  0  0  0  0
  126.7033  126.9415   73.0882 H   0  0  0  0  0  0  0  0  0  0  0  0
  128.6074  128.1748   70.0220 H   0  0  0  0  0  0  0  0  0  0  0  0
  128.3900  127.0952   67.7671 H   0  0  0  0  0  0  0  0  0  0  0  0
  130.2024  126.8413   67.8079 H   0  0  0  0  0  0  0  0  0  0  0  0
  128.4220  124.5180   67.5240 H   0  0  0  0  0  0  0  0  0  0  0  0
  128.6211  123.1511   65.8785 H   0  0  0  0  0  0  0  0  0  0  0  0
  129.1184  123.9087   64.3054 H   0  0  0  0  0  0  0  0  0  0  0  0
  129.3066  119.8135   61.4805 H   0  0  0  0  0  0  0  0  0  0  0  0
  129.1949  120.9839   60.1225 H   0  0  0  0  0  0  0  0  0  0  0  0
  130.4792  119.7280   60.1225 H   0  0  0  0  0  0  0  0  0  0  0  0
  132.0676  121.8011   59.7852 H   0  0  0  0  0  0  0  0  0  0  0  0
  134.5546  123.9405   61.6040 H   0  0  0  0  0  0  0  0  0  0  0  0
  134.3751  122.7931   60.2337 H   0  0  0  0  0  0  0  0  0  0  0  0
  133.4647  124.3416   60.2337 H   0  0  0  0  0  0  0  0  0  0  0  0
  129.7766  124.0821   69.3264 H   0  0  0  0  0  0  0  0  0  0  0  0
  131.3088  123.0702   73.3458 H   0  0  0  0  0  0  0  0  0  0  0  0
  131.4186  122.1250   71.8223 H   0  0  0  0  0  0  0  0  0  0  0  0
  131.8127  123.8775   71.8223 H   0  0  0  0  0  0  0  0  0  0  0  0
  130.1842  125.7389   75.3802 H   0  0  0  0  0  0  0  0  0  0  0  0
  131.1210  125.0718   74.0004 H   0  0  0  0  0  0  0  0  0  0  0  0
  130.6292  126.7994   74.0004 H   0  0  0  0  0  0  0  0  0  0  0  0
  1  2  1  0
  2  3  1  0
  3  4  2  0
  4  5  1  0
  5  6  1  0
  6  7  1  0
  7  8  1  0
  8  9  2  0
  8 10  1  0
 10 11  1  0
 11 12  1  0
 12 13  2  0
 13 14  1  0
 14 15  1  0
 14 16  2  0
 16 17  1  0
 17 18  1  0
 17 19  2  0
 19 20  1  0
 20 21  3  0
  5 22  2  0
 22 23  1  0
 23 24  1  0
 24 25  1  0
 23 26  2  0
 26 27  1  0
 27 28  1  0
 26  3  1  0
 19 12  1  0
  1 29  1  0
  1 30  1  0
  1 31  1  0
  4 32  1  0
  6 33  1  0
  6 34  1  0
  7 35  1  0
 10 36  1  0
 10 37  1  0
 15 38  1  0
 15 39  1  0
 15 40  1  0
 16 41  1  0
 18 42  1  0
 18 43  1  0
 18 44  1  0
 22 45  1  0
 25 46  1  0
 25 47  1  0
 25 48  1  0
 28 49  1  0
 28 50  1  0
 28 51  1  0
M  END
>  <Binding energies>  (1) 
[-7.19]

>  <Ligand effiencies>  (1) 
[-0.24793103448275863]

>  <Interactions>  (1) 
["V-B:GLU:543:CA:9876, V-A:HIS:456:CD2:4068, V-B:TYR:539:CD2:9846, V-A:LEU:475:CD1:4258, V-B:GLU:543:CB:9878, H-B:HIS:456:NE2:9041, H-A:TYR:484:OH:4348, V-B:GLU:543:C:9874, V-A:TYR:484:CE1:4345, V-B:HIS:456:CE1:9040, V-B:TYR:539:CE2:9848, V-A:HIS:456:CE1:4069, V-B:GLU:543:CG:9879, V-B:ALA:541:CB:9864, H-B:LYS:547:NZ:9923, V-A:ILE:369:CD1:3239, V-A:GLY:454:CA:4049, H-A:GLY:454:N:4050, H-A:ARG:545:NE:4924, H-B:GLU:543:O:9875, V-B:HIS:456:CD2:9039, V-A:TYR:484:CG:4342, V-B:HIS:456:CG:9037, V-A:TYR:484:CE2:4346, V-A:HIS:456:CG:4066, V-A:TYR:484:CD2:4344, V-A:HIS:456:CB:4065, V-B:HIS:456:CB:9036"]

$$$$
1i_Grossjean_2025
     RDKit          3D

 32 33  0  0  0  0  0  0  0  0999 V2000
  123.9540  129.5430   66.8110 C   0  0  0  0  0  0  0  0  0  0  0  0
  125.2990  128.8440   66.7470 C   0  0  0  0  0  0  0  0  0  0  0  0
  126.2240  129.1330   65.7450 C   0  0  0  0  0  0  0  0  0  0  0  0
  127.4530  128.4630   65.7420 C   0  0  0  0  0  0  0  0  0  0  0  0
  128.4570  128.8090   64.6440 C   0  0  0  0  0  0  0  0  0  0  0  0
  127.7230  127.5080   66.7490 C   0  0  0  0  0  0  0  0  0  0  0  0
  129.0220  126.8330   66.7930 C   0  0  0  0  0  0  0  0  0  0  0  0
  130.0500  126.3020   66.8270 N   0  0  0  0  0  0  0  0  0  0  0  0
  126.7150  127.2620   67.7110 C   0  0  0  0  0  0  0  0  0  0  0  0
  126.8850  126.0960   69.0440 S   0  0  0  0  0  0  0  0  0  0  0  0
  127.9770  126.8410   70.2920 C   0  0  0  0  0  0  0  0  0  0  0  0
  128.4760  125.8120   71.3090 C   0  0  0  0  0  0  0  0  0  0  0  0
  128.3530  126.0450   72.5130 O   0  0  0  0  0  0  0  0  0  0  0  0
  129.0250  124.6940   70.7860 N   0  0  0  0  0  0  0  0  0  0  0  0
  129.5550  123.6150   71.4770 C   0  0  0  0  0  0  0  0  0  0  0  0
  130.7900  123.6560   72.1220 C   0  0  0  0  0  0  0  0  0  0  0  0
  130.9460  122.4070   72.6770 C   0  0  0  0  0  0  0  0  0  0  0  0
  129.8620  121.6520   72.3810 O   0  0  0  0  0  0  0  0  0  0  0  0
  128.9880  122.4280   71.6180 N   0  0  0  0  0  0  0  0  0  0  0  0
  125.5350  127.9310   67.7180 N   0  0  0  0  0  0  0  0  0  0  0  0
  123.6678  129.6918   67.8626 H   0  0  0  0  0  0  0  0  0  0  0  0
  124.0237  130.5190   66.3084 H   0  0  0  0  0  0  0  0  0  0  0  0
  123.1954  128.9251   66.3084 H   0  0  0  0  0  0  0  0  0  0  0  0
  125.9916  129.8764   64.9683 H   0  0  0  0  0  0  0  0  0  0  0  0
  129.4028  129.1349   65.1014 H   0  0  0  0  0  0  0  0  0  0  0  0
  128.6382  127.9215   64.0199 H   0  0  0  0  0  0  0  0  0  0  0  0
  128.0530  129.6197   64.0199 H   0  0  0  0  0  0  0  0  0  0  0  0
  128.8447  127.2865   69.7834 H   0  0  0  0  0  0  0  0  0  0  0  0
  127.3990  127.6022   70.8364 H   0  0  0  0  0  0  0  0  0  0  0  0
  129.0930  124.6400   69.7790 H   0  0  0  0  0  0  0  0  0  0  0  0
  131.4888  124.5038   72.1756 H   0  0  0  0  0  0  0  0  0  0  0  0
  131.8129  122.0748   73.2670 H   0  0  0  0  0  0  0  0  0  0  0  0
  1  2  1  0
  2  3  2  0
  3  4  1  0
  4  5  1  0
  4  6  2  0
  6  7  1  0
  7  8  3  0
  6  9  1  0
  9 10  1  0
 10 11  1  0
 11 12  1  0
 12 13  2  0
 12 14  1  0
 14 15  1  0
 15 16  1  0
 16 17  2  0
 17 18  1  0
 18 19  1  0
  9 20  2  0
 20  2  1  0
 19 15  2  0
  1 21  1  0
  1 22  1  0
  1 23  1  0
  3 24  1  0
  5 25  1  0
  5 26  1  0
  5 27  1  0
 11 28  1  0
 11 29  1  0
 14 30  1  0
 16 31  1  0
 17 32  1  0
M  END
>  <Binding energies>  (1) 
[-7.54]

>  <Ligand effiencies>  (1) 
[-0.35904761904761906]

>  <Interactions>  (1) 
["V-A:GLU:543:CD:4908, V-A:HIS:456:CD2:4068, V-B:GLU:543:CB:9878, V-B:GLU:543:C:9874, V-B:HIS:456:CE1:9040, V-B:ARG:545:CD:9895, V-B:ARG:545:CG:9894, H-B:ARG:545:N:9892, V-B:GLY:544:C:9884, H-B:LYS:547:NZ:9923, H-B:GLU:543:O:9875, V-B:ILE:455:C:9023, V-A:TYR:484:CG:4342, V-A:TYR:484:CE2:4346, V-A:HIS:456:CG:4066, V-A:TYR:484:CD1:4343, V-A:TYR:484:CD2:4344, V-A:HIS:456:CB:4065, V-A:ASP:473:CB:4239, V-A:TYR:484:CB:4341"]

$$$$
1j_Grossjean_2025
     RDKit          3D

 32 33  0  0  0  0  0  0  0  0999 V2000
  127.9870  130.4420   65.6710 C   0  0  0  0  0  0  0  0  0  0  0  0
  128.3720  129.0570   66.1570 C   0  0  0  0  0  0  0  0  0  0  0  0
  128.5550  127.9980   65.2710 C   0  0  0  0  0  0  0  0  0  0  0  0
  128.9230  126.7470   65.7750 C   0  0  0  0  0  0  0  0  0  0  0  0
  129.1350  125.6050   64.7820 C   0  0  0  0  0  0  0  0  0  0  0  0
  129.0900  126.5850   67.1690 C   0  0  0  0  0  0  0  0  0  0  0  0
  129.5260  125.2970   67.7140 C   0  0  0  0  0  0  0  0  0  0  0  0
  129.8710  124.2780   68.1410 N   0  0  0  0  0  0  0  0  0  0  0  0
  128.8570  127.7090   67.9960 C   0  0  0  0  0  0  0  0  0  0  0  0
  129.0180  127.6850   69.7690 S   0  0  0  0  0  0  0  0  0  0  0  0
  127.8690  126.4330   70.4120 C   0  0  0  0  0  0  0  0  0  0  0  0
  128.5130  125.5660   71.4960 C   0  0  0  0  0  0  0  0  0  0  0  0
  128.4350  125.9160   72.6740 O   0  0  0  0  0  0  0  0  0  0  0  0
  129.1330  124.4490   71.0570 N   0  0  0  0  0  0  0  0  0  0  0  0
  129.7930  123.5090   71.8340 C   0  0  0  0  0  0  0  0  0  0  0  0
  129.5210  122.2270   71.9550 N   0  0  0  0  0  0  0  0  0  0  0  0
  130.3580  121.6310   72.7810 C   0  0  0  0  0  0  0  0  0  0  0  0
  131.3400  122.4360   73.3510 C   0  0  0  0  0  0  0  0  0  0  0  0
  131.1480  124.0610   72.7650 S   0  0  0  0  0  0  0  0  0  0  0  0
  128.5220  128.9250   67.4960 N   0  0  0  0  0  0  0  0  0  0  0  0
  127.8050  131.0967   66.5360 H   0  0  0  0  0  0  0  0  0  0  0  0
  128.8038  130.8572   65.0623 H   0  0  0  0  0  0  0  0  0  0  0  0
  127.0731  130.3761   65.0623 H   0  0  0  0  0  0  0  0  0  0  0  0
  128.4120  128.1439   64.1901 H   0  0  0  0  0  0  0  0  0  0  0  0
  129.3089  124.6684   65.3320 H   0  0  0  0  0  0  0  0  0  0  0  0
  128.2413  125.4983   64.1496 H   0  0  0  0  0  0  0  0  0  0  0  0
  130.0074  125.8262   64.1496 H   0  0  0  0  0  0  0  0  0  0  0  0
  126.9920  126.9418   70.8387 H   0  0  0  0  0  0  0  0  0  0  0  0
  127.5814  125.7759   69.5780 H   0  0  0  0  0  0  0  0  0  0  0  0
  129.1500  124.2850   70.0610 H   0  0  0  0  0  0  0  0  0  0  0  0
  130.2844  120.5570   73.0072 H   0  0  0  0  0  0  0  0  0  0  0  0
  132.1124  122.0985   74.0578 H   0  0  0  0  0  0  0  0  0  0  0  0
  1  2  1  0
  2  3  2  0
  3  4  1  0
  4  5  1  0
  4  6  2  0
  6  7  1  0
  7  8  3  0
  6  9  1  0
  9 10  1  0
 10 11  1  0
 11 12  1  0
 12 13  2  0
 12 14  1  0
 14 15  1  0
 15 16  2  0
 16 17  1  0
 17 18  2  0
 18 19  1  0
  9 20  2  0
 20  2  1  0
 19 15  1  0
  1 21  1  0
  1 22  1  0
  1 23  1  0
  3 24  1  0
  5 25  1  0
  5 26  1  0
  5 27  1  0
 11 28  1  0
 11 29  1  0
 14 30  1  0
 17 31  1  0
 18 32  1  0
M  END
>  <Binding energies>  (1) 
[-6.42]

>  <Ligand effiencies>  (1) 
[-0.3057142857142857]

>  <Interactions>  (1) 
["H-A:HIS:456:NE2:4070, V-A:GLU:543:CD:4908, V-A:HIS:456:CD2:4068, V-B:GLU:543:CD:9880, V-B:GLU:543:CB:9878, H-B:HIS:456:NE2:9041, H-A:TYR:484:OH:4348, V-B:GLU:543:C:9874, V-A:TYR:484:CE1:4345, V-B:HIS:456:CE1:9040, V-A:HIS:456:CE1:4069, V-B:GLU:543:CG:9879, V-A:GLU:543:CB:4906, V-B:GLY:544:C:9884, H-B:LYS:547:NZ:9923, V-A:GLU:543:CG:4907, V-B:TYR:484:CE1:9316, V-B:TYR:484:CZ:9318, H-B:GLU:543:O:9875, V-A:TYR:484:CG:4342, V-A:HIS:456:CG:4066, V-A:TYR:484:CD1:4343, V-A:TYR:484:CD2:4344, V-A:HIS:456:CB:4065, V-A:ASP:473:CG:4240, V-A:ASP:473:CB:4239, V-A:TYR:484:CB:4341"]

$$$$
1k_Grossjean_2025
     RDKit          3D

 50 50  0  0  0  0  0  0  0  0999 V2000
  131.0810  122.4080   72.7720 C   0  0  0  0  0  0  0  0  0  0  0  0
  129.8470  122.6760   72.1270 O   0  0  0  0  0  0  0  0  0  0  0  0
  129.8840  123.8230   71.2880 C   0  0  0  0  0  0  0  0  0  0  0  0
  128.6380  124.6820   71.5400 C   0  0  0  0  0  0  0  0  0  0  0  0
  128.8770  125.5520   72.6390 O   0  0  0  0  0  0  0  0  0  0  0  0
  129.0820  126.9070   72.2600 C   0  0  0  0  0  0  0  0  0  0  0  0
  128.5180  127.1340   70.8520 C   0  0  0  0  0  0  0  0  0  0  0  0
  129.4910  127.7930   70.0520 O   0  0  0  0  0  0  0  0  0  0  0  0
  129.4990  127.3670   68.6960 C   0  0  0  0  0  0  0  0  0  0  0  0
  129.4870  125.8280   68.6380 C   0  0  0  0  0  0  0  0  0  0  0  0
  129.8780  125.2780   67.3400 N   0  0  0  0  0  0  0  0  0  0  0  0
  129.3100  125.5900   66.1620 C   0  0  0  0  0  0  0  0  0  0  0  0
  128.3830  126.3960   66.0550 O   0  0  0  0  0  0  0  0  0  0  0  0
  129.8880  124.8690   64.9340 C   0  0  0  0  0  0  0  0  0  0  0  0
  130.1890  123.0790   65.1390 S   0  0  0  0  0  0  0  0  0  0  0  0
  131.0480  122.4600   63.6990 C   0  0  0  0  0  0  0  0  0  0  0  0
  130.3650  121.5650   62.9400 N   0  0  0  0  0  0  0  0  0  0  0  0
  130.9610  121.0490   61.8400 C   0  0  0  0  0  0  0  0  0  0  0  0
  130.1380  120.0510   61.0500 C   0  0  0  0  0  0  0  0  0  0  0  0
  132.2500  121.4050   61.4480 C   0  0  0  0  0  0  0  0  0  0  0  0
  132.9620  122.3310   62.2180 C   0  0  0  0  0  0  0  0  0  0  0  0
  134.3730  122.7070   61.7710 C   0  0  0  0  0  0  0  0  0  0  0  0
  132.3590  122.8780   63.3720 C   0  0  0  0  0  0  0  0  0  0  0  0
  133.0830  123.8480   64.1990 C   0  0  0  0  0  0  0  0  0  0  0  0
  133.6560  124.6130   64.8520 N   0  0  0  0  0  0  0  0  0  0  0  0
  130.9391  122.4388   73.8624 H   0  0  0  0  0  0  0  0  0  0  0  0
  131.4400  121.4110   72.4770 H   0  0  0  0  0  0  0  0  0  0  0  0
  131.8212  123.1663   72.4770 H   0  0  0  0  0  0  0  0  0  0  0  0
  130.7862  124.4114   71.5111 H   0  0  0  0  0  0  0  0  0  0  0  0
  129.9038  123.5062   70.2348 H   0  0  0  0  0  0  0  0  0  0  0  0
  128.4155  125.2776   70.6424 H   0  0  0  0  0  0  0  0  0  0  0  0
  127.7824  124.0293   71.7681 H   0  0  0  0  0  0  0  0  0  0  0  0
  128.5677  127.5690   72.9723 H   0  0  0  0  0  0  0  0  0  0  0  0
  130.1591  127.1304   72.2644 H   0  0  0  0  0  0  0  0  0  0  0  0
  128.2653  126.1646   70.3976 H   0  0  0  0  0  0  0  0  0  0  0  0
  127.6132  127.7563   70.9155 H   0  0  0  0  0  0  0  0  0  0  0  0
  128.6083  127.7596   68.1836 H   0  0  0  0  0  0  0  0  0  0  0  0
  130.4054  127.7443   68.1999 H   0  0  0  0  0  0  0  0  0  0  0  0
  130.1844  125.4478   69.3989 H   0  0  0  0  0  0  0  0  0  0  0  0
  128.4492  125.5110   68.8182 H   0  0  0  0  0  0  0  0  0  0  0  0
  130.6330  124.6070   67.3480 H   0  0  0  0  0  0  0  0  0  0  0  0
  129.1817  125.0002   64.1010 H   0  0  0  0  0  0  0  0  0  0  0  0
  130.8746  125.3216   64.7560 H   0  0  0  0  0  0  0  0  0  0  0  0
  129.5950  119.3926   61.7440 H   0  0  0  0  0  0  0  0  0  0  0  0
  129.4179  120.5895   60.4163 H   0  0  0  0  0  0  0  0  0  0  0  0
  130.8038  119.4467   60.4163 H   0  0  0  0  0  0  0  0  0  0  0  0
  132.7010  120.9645   60.5466 H   0  0  0  0  0  0  0  0  0  0  0  0
  135.0051  122.8754   62.6553 H   0  0  0  0  0  0  0  0  0  0  0  0
  134.7964  121.8903   61.1678 H   0  0  0  0  0  0  0  0  0  0  0  0
  134.3339  123.6261   61.1678 H   0  0  0  0  0  0  0  0  0  0  0  0
  1  2  1  0
  2  3  1  0
  3  4  1  0
  4  5  1  0
  5  6  1  0
  6  7  1  0
  7  8  1  0
  8  9  1  0
  9 10  1  0
 10 11  1  0
 11 12  1  0
 12 13  2  0
 12 14  1  0
 14 15  1  0
 15 16  1  0
 16 17  2  0
 17 18  1  0
 18 19  1  0
 18 20  2  0
 20 21  1  0
 21 22  1  0
 21 23  2  0
 23 24  1  0
 24 25  3  0
 23 16  1  0
  1 26  1  0
  1 27  1  0
  1 28  1  0
  3 29  1  0
  3 30  1  0
  4 31  1  0
  4 32  1  0
  6 33  1  0
  6 34  1  0
  7 35  1  0
  7 36  1  0
  9 37  1  0
  9 38  1  0
 10 39  1  0
 10 40  1  0
 11 41  1  0
 14 42  1  0
 14 43  1  0
 19 44  1  0
 19 45  1  0
 19 46  1  0
 20 47  1  0
 22 48  1  0
 22 49  1  0
 22 50  1  0
M  END
>  <Binding energies>  (1) 
[-6.54]

>  <Ligand effiencies>  (1) 
[-0.25153846153846154]

>  <Interactions>  (1) 
["H-A:HIS:456:NE2:4070, V-A:HIS:456:CD2:4068, V-B:TYR:539:CD2:9846, V-A:LEU:475:CD1:4258, V-B:GLU:543:CB:9878, H-B:HIS:456:NE2:9041, H-A:TYR:484:OH:4348, V-A:TYR:484:CZ:4347, V-A:TYR:484:CE1:4345, V-B:HIS:456:CE1:9040, V-A:HIS:456:CE1:4069, V-B:GLU:543:CG:9879, V-B:GLY:544:C:9884, V-B:ALA:541:CB:9864, H-B:LYS:547:NZ:9923, V-A:ILE:369:CD1:3239, V-A:GLY:454:CA:4049, H-A:GLY:454:N:4050, V-A:PRO:482:CG:4327, H-B:GLU:543:O:9875, V-A:TYR:484:CG:4342, V-A:TYR:484:CE2:4346, V-A:TYR:484:CD1:4343, V-A:TYR:484:CD2:4344, V-B:GLY:544:CA:9886, V-B:LYS:547:CE:9922, V-A:ASP:473:CB:4239, H-A:HIS:456:ND1:4067, V-A:TYR:484:CB:4341"]

$$$$
1l_Grossjean_2025
     RDKit          3D

 30 30  0  0  0  0  0  0  0  0999 V2000
  130.5190  122.8760   71.9550 C   0  0  0  0  0  0  0  0  0  0  0  0
  129.1720  123.2270   71.6700 O   0  0  0  0  0  0  0  0  0  0  0  0
  129.1340  124.4160   70.9420 N   0  0  0  0  0  0  0  0  0  0  0  0
  128.6470  125.5260   71.5280 C   0  0  0  0  0  0  0  0  0  0  0  0
  128.4380  125.6230   72.7400 O   0  0  0  0  0  0  0  0  0  0  0  0
  128.3740  126.6990   70.5760 C   0  0  0  0  0  0  0  0  0  0  0  0
  126.8870  126.5170   69.5330 S   0  0  0  0  0  0  0  0  0  0  0  0
  127.3010  127.0440   67.8790 C   0  0  0  0  0  0  0  0  0  0  0  0
  126.5000  128.0040   67.3480 N   0  0  0  0  0  0  0  0  0  0  0  0
  126.7570  128.4500   66.0950 C   0  0  0  0  0  0  0  0  0  0  0  0
  125.8200  129.5220   65.5720 C   0  0  0  0  0  0  0  0  0  0  0  0
  127.8120  127.9640   65.3260 C   0  0  0  0  0  0  0  0  0  0  0  0
  128.6440  126.9760   65.8620 C   0  0  0  0  0  0  0  0  0  0  0  0
  129.7950  126.4580   65.0020 C   0  0  0  0  0  0  0  0  0  0  0  0
  128.3940  126.4960   67.1670 C   0  0  0  0  0  0  0  0  0  0  0  0
  129.2500  125.4610   67.7550 C   0  0  0  0  0  0  0  0  0  0  0  0
  129.9260  124.6440   68.2160 N   0  0  0  0  0  0  0  0  0  0  0  0
  130.6653  122.8379   73.0446 H   0  0  0  0  0  0  0  0  0  0  0  0
  130.7408  121.8901   71.5205 H   0  0  0  0  0  0  0  0  0  0  0  0
  131.1937  123.6283   71.5205 H   0  0  0  0  0  0  0  0  0  0  0  0
  129.1160  124.2520   69.9450 H   0  0  0  0  0  0  0  0  0  0  0  0
  128.2564  127.6097   71.1817 H   0  0  0  0  0  0  0  0  0  0  0  0
  129.2298  126.7403   69.8862 H   0  0  0  0  0  0  0  0  0  0  0  0
  125.3582  130.0504   66.4191 H   0  0  0  0  0  0  0  0  0  0  0  0
  126.3874  130.2376   64.9588 H   0  0  0  0  0  0  0  0  0  0  0  0
  125.0349  129.0554   64.9588 H   0  0  0  0  0  0  0  0  0  0  0  0
  127.9881  128.3518   64.3118 H   0  0  0  0  0  0  0  0  0  0  0  0
  130.6038  126.0940   65.6526 H   0  0  0  0  0  0  0  0  0  0  0  0
  129.4365  125.6344   64.3670 H   0  0  0  0  0  0  0  0  0  0  0  0
  130.1737  127.2725   64.3670 H   0  0  0  0  0  0  0  0  0  0  0  0
  1  2  1  0
  2  3  1  0
  3  4  1  0
  4  5  2  0
  4  6  1  0
  6  7  1  0
  7  8  1  0
  8  9  2  0
  9 10  1  0
 10 11  1  0
 10 12  2  0
 12 13  1  0
 13 14  1  0
 13 15  2  0
 15 16  1  0
 16 17  3  0
 15  8  1  0
  1 18  1  0
  1 19  1  0
  1 20  1  0
  3 21  1  0
  6 22  1  0
  6 23  1  0
 11 24  1  0
 11 25  1  0
 11 26  1  0
 12 27  1  0
 14 28  1  0
 14 29  1  0
 14 30  1  0
M  END
>  <Binding energies>  (1) 
[-5.83]

>  <Ligand effiencies>  (1) 
[-0.3238888888888889]

>  <Interactions>  (1) 
["H-A:HIS:456:NE2:4070, V-A:GLU:543:CD:4908, V-B:GLU:543:CD:9880, V-B:GLU:543:CB:9878, H-A:TYR:484:OH:4348, V-B:GLU:543:C:9874, V-B:HIS:456:CE1:9040, V-A:HIS:456:CE1:4069, H-B:ARG:545:N:9892, V-B:GLY:544:C:9884, H-B:LYS:547:NZ:9923, H-B:GLU:543:O:9875, V-A:TYR:484:CG:4342, V-A:TYR:484:CE2:4346, V-A:TYR:484:CD1:4343, V-A:TYR:484:CD2:4344, V-A:TYR:484:CB:4341"]

$$$$
1m_Grossjean_2025
     RDKit          3D

 35 35  0  0  0  0  0  0  0  0999 V2000
  130.9400  121.6350   73.4200 C   0  0  0  0  0  0  0  0  0  0  0  0
  129.9810  122.4380   72.7460 O   0  0  0  0  0  0  0  0  0  0  0  0
  130.3510  123.5850   72.1400 C   0  0  0  0  0  0  0  0  0  0  0  0
  130.9900  124.5010   72.6680 O   0  0  0  0  0  0  0  0  0  0  0  0
  129.8840  123.6250   70.6710 C   0  0  0  0  0  0  0  0  0  0  0  0
  129.1390  124.8510   70.3430 N   0  0  0  0  0  0  0  0  0  0  0  0
  128.4510  125.6090   71.2170 C   0  0  0  0  0  0  0  0  0  0  0  0
  128.3600  125.3370   72.4160 O   0  0  0  0  0  0  0  0  0  0  0  0
  127.7690  126.8490   70.6240 C   0  0  0  0  0  0  0  0  0  0  0  0
  126.6190  126.5010   69.2490 S   0  0  0  0  0  0  0  0  0  0  0  0
  127.4560  126.8730   67.7230 C   0  0  0  0  0  0  0  0  0  0  0  0
  128.6300  126.2080   67.5730 N   0  0  0  0  0  0  0  0  0  0  0  0
  129.3520  126.4080   66.4460 C   0  0  0  0  0  0  0  0  0  0  0  0
  130.6420  125.6170   66.3400 C   0  0  0  0  0  0  0  0  0  0  0  0
  128.9450  127.2780   65.4360 C   0  0  0  0  0  0  0  0  0  0  0  0
  127.7500  127.9880   65.5930 C   0  0  0  0  0  0  0  0  0  0  0  0
  127.3320  128.9480   64.4810 C   0  0  0  0  0  0  0  0  0  0  0  0
  126.9790  127.7970   66.7620 C   0  0  0  0  0  0  0  0  0  0  0  0
  125.7500  128.5670   66.9680 C   0  0  0  0  0  0  0  0  0  0  0  0
  124.7790  129.1750   67.1300 N   0  0  0  0  0  0  0  0  0  0  0  0
  130.8103  121.7436   74.5069 H   0  0  0  0  0  0  0  0  0  0  0  0
  130.7995  120.5812   73.1374 H   0  0  0  0  0  0  0  0  0  0  0  0
  131.9527  121.9585   73.1374 H   0  0  0  0  0  0  0  0  0  0  0  0
  130.7682  123.5660   70.0193 H   0  0  0  0  0  0  0  0  0  0  0  0
  129.2053  122.7733   70.5157 H   0  0  0  0  0  0  0  0  0  0  0  0
  129.1440  125.1260   69.3710 H   0  0  0  0  0  0  0  0  0  0  0  0
  127.2039  127.3461   71.4262 H   0  0  0  0  0  0  0  0  0  0  0  0
  128.5710  127.4763   70.2078 H   0  0  0  0  0  0  0  0  0  0  0  0
  131.0156  125.3879   67.3489 H   0  0  0  0  0  0  0  0  0  0  0  0
  130.4534  124.6791   65.7971 H   0  0  0  0  0  0  0  0  0  0  0  0
  131.3924  126.2104   65.7971 H   0  0  0  0  0  0  0  0  0  0  0  0
  129.5544  127.4044   64.5290 H   0  0  0  0  0  0  0  0  0  0  0  0
  126.9302  129.8707   64.9250 H   0  0  0  0  0  0  0  0  0  0  0  0
  128.2058  129.1909   63.8586 H   0  0  0  0  0  0  0  0  0  0  0  0
  126.5589  128.4738   63.8586 H   0  0  0  0  0  0  0  0  0  0  0  0
  1  2  1  0
  2  3  1  0
  3  4  2  0
  3  5  1  0
  5  6  1  0
  6  7  1  0
  7  8  2  0
  7  9  1  0
  9 10  1  0
 10 11  1  0
 11 12  2  0
 12 13  1  0
 13 14  1  0
 13 15  2  0
 15 16  1  0
 16 17  1  0
 16 18  2  0
 18 19  1  0
 19 20  3  0
 18 11  1  0
  1 21  1  0
  1 22  1  0
  1 23  1  0
  5 24  1  0
  5 25  1  0
  6 26  1  0
  9 27  1  0
  9 28  1  0
 14 29  1  0
 14 30  1  0
 14 31  1  0
 15 32  1  0
 17 33  1  0
 17 34  1  0
 17 35  1  0
M  END
>  <Binding energies>  (1) 
[-5.79]

>  <Ligand effiencies>  (1) 
[-0.2757142857142857]

>  <Interactions>  (1) 
["V-A:GLU:543:CD:4908, V-A:HIS:456:CD2:4068, V-B:GLU:543:CD:9880, V-B:GLU:543:CB:9878, V-A:TYR:484:CZ:4347, V-B:GLU:543:C:9874, V-A:TYR:484:CE1:4345, V-B:HIS:456:CE1:9040, V-A:HIS:456:CE1:4069, V-B:ARG:545:CD:9895, H-B:TYR:484:OH:9319, V-B:ARG:545:CG:9894, H-B:ARG:545:N:9892, V-B:GLY:544:C:9884, H-B:LYS:547:NZ:9923, H-B:ARG:545:NE:9896, H-B:GLU:543:O:9875, V-A:TYR:484:CG:4342, V-A:TYR:484:CE2:4346, V-A:HIS:456:CG:4066, V-A:TYR:484:CD1:4343, V-A:TYR:484:CD2:4344, V-A:ASP:473:CG:4240, V-A:ASP:473:CB:4239, V-A:TYR:484:CB:4341"]

$$$$
1n_Grossjean_2025
     RDKit          3D

 48 49  0  0  0  0  0  0  0  0999 V2000
  125.9130  127.0270   73.8710 C   0  0  0  0  0  0  0  0  0  0  0  0
  127.1430  127.1250   74.7780 C   0  0  0  0  0  0  0  0  0  0  0  0
  128.0770  126.1150   74.4180 O   0  0  0  0  0  0  0  0  0  0  0  0
  129.2440  126.4270   73.7980 C   0  0  0  0  0  0  0  0  0  0  0  0
  130.2300  126.8760   74.3900 O   0  0  0  0  0  0  0  0  0  0  0  0
  129.2210  126.1600   72.3200 C   0  0  0  0  0  0  0  0  0  0  0  0
  128.6410  127.0590   71.4120 C   0  0  0  0  0  0  0  0  0  0  0  0
  128.6330  126.7790   70.0490 C   0  0  0  0  0  0  0  0  0  0  0  0
  129.1950  125.5970   69.5650 C   0  0  0  0  0  0  0  0  0  0  0  0
  129.1280  125.4130   68.1700 N   0  0  0  0  0  0  0  0  0  0  0  0
  129.2470  126.3160   67.1730 C   0  0  0  0  0  0  0  0  0  0  0  0
  129.4550  127.5200   67.3220 O   0  0  0  0  0  0  0  0  0  0  0  0
  129.1120  125.7550   65.7510 C   0  0  0  0  0  0  0  0  0  0  0  0
  130.3570  124.9700   65.2890 C   0  0  0  0  0  0  0  0  0  0  0  0
  130.1300  123.1670   65.2220 S   0  0  0  0  0  0  0  0  0  0  0  0
  130.9770  122.5700   63.7750 C   0  0  0  0  0  0  0  0  0  0  0  0
  130.2570  121.6700   63.0580 N   0  0  0  0  0  0  0  0  0  0  0  0
  130.7960  121.1600   61.9260 C   0  0  0  0  0  0  0  0  0  0  0  0
  129.9310  120.1700   61.1710 C   0  0  0  0  0  0  0  0  0  0  0  0
  132.0630  121.5170   61.4690 C   0  0  0  0  0  0  0  0  0  0  0  0
  132.8220  122.4280   62.2130 C   0  0  0  0  0  0  0  0  0  0  0  0
  134.2130  122.7940   61.7000 C   0  0  0  0  0  0  0  0  0  0  0  0
  132.2810  122.9700   63.4010 C   0  0  0  0  0  0  0  0  0  0  0  0
  133.0770  123.8850   64.2210 C   0  0  0  0  0  0  0  0  0  0  0  0
  133.7080  124.6080   64.8690 N   0  0  0  0  0  0  0  0  0  0  0  0
  129.7850  124.6980   70.4650 C   0  0  0  0  0  0  0  0  0  0  0  0
  129.7950  124.9810   71.8290 C   0  0  0  0  0  0  0  0  0  0  0  0
  125.0062  126.9548   74.4895 H   0  0  0  0  0  0  0  0  0  0  0  0
  125.8533  127.9232   73.2360 H   0  0  0  0  0  0  0  0  0  0  0  0
  125.9960  126.1326   73.2360 H   0  0  0  0  0  0  0  0  0  0  0  0
  127.6086  128.1145   74.6593 H   0  0  0  0  0  0  0  0  0  0  0  0
  126.8386  126.9872   75.8260 H   0  0  0  0  0  0  0  0  0  0  0  0
  128.1894  127.9919   71.7804 H   0  0  0  0  0  0  0  0  0  0  0  0
  128.1801  127.4951   69.3475 H   0  0  0  0  0  0  0  0  0  0  0  0
  129.0090  124.4510   67.8870 H   0  0  0  0  0  0  0  0  0  0  0  0
  128.2427  125.0816   65.7215 H   0  0  0  0  0  0  0  0  0  0  0  0
  128.9932  126.6112   65.0707 H   0  0  0  0  0  0  0  0  0  0  0  0
  130.6295  125.3196   64.2822 H   0  0  0  0  0  0  0  0  0  0  0  0
  131.1412  125.1589   66.0369 H   0  0  0  0  0  0  0  0  0  0  0  0
  129.3820  119.5416   61.8877 H   0  0  0  0  0  0  0  0  0  0  0  0
  129.2154  120.7160   60.5387 H   0  0  0  0  0  0  0  0  0  0  0  0
  130.5681  119.5341   60.5387 H   0  0  0  0  0  0  0  0  0  0  0  0
  132.4610  121.0891   60.5371 H   0  0  0  0  0  0  0  0  0  0  0  0
  134.8839  122.9705   62.5536 H   0  0  0  0  0  0  0  0  0  0  0  0
  134.6071  121.9690   61.0884 H   0  0  0  0  0  0  0  0  0  0  0  0
  134.1500  123.7061   61.0884 H   0  0  0  0  0  0  0  0  0  0  0  0
  130.2405  123.7682   70.0935 H   0  0  0  0  0  0  0  0  0  0  0  0
  130.2592  124.2701   72.5284 H   0  0  0  0  0  0  0  0  0  0  0  0
  1  2  1  0
  2  3  1  0
  3  4  1  0
  4  5  2  0
  4  6  1  0
  6  7  2  0
  7  8  1  0
  8  9  2  0
  9 10  1  0
 10 11  1  0
 11 12  2  0
 11 13  1  0
 13 14  1  0
 14 15  1  0
 15 16  1  0
 16 17  2  0
 17 18  1  0
 18 19  1  0
 18 20  2  0
 20 21  1  0
 21 22  1  0
 21 23  2  0
 23 24  1  0
 24 25  3  0
  9 26  1  0
 26 27  2  0
 27  6  1  0
 23 16  1  0
  1 28  1  0
  1 29  1  0
  1 30  1  0
  2 31  1  0
  2 32  1  0
  7 33  1  0
  8 34  1  0
 10 35  1  0
 13 36  1  0
 13 37  1  0
 14 38  1  0
 14 39  1  0
 19 40  1  0
 19 41  1  0
 19 42  1  0
 20 43  1  0
 22 44  1  0
 22 45  1  0
 22 46  1  0
 26 47  1  0
 27 48  1  0
M  END
>  <Binding energies>  (1) 
[-8.33]

>  <Ligand effiencies>  (1) 
[-0.2975]

>  <Interactions>  (1) 
["V-A:HIS:456:CD2:4068, V-B:GLU:543:CD:9880, V-B:TYR:539:CD2:9846, V-A:LEU:475:CD1:4258, V-B:GLU:543:CB:9878, H-A:TYR:484:OH:4348, V-A:TYR:484:CZ:4347, V-B:GLU:543:C:9874, V-A:TYR:484:CE1:4345, V-B:HIS:456:CE1:9040, V-A:HIS:456:CE1:4069, V-B:GLU:543:CG:9879, V-B:ALA:541:CB:9864, H-B:LYS:547:NZ:9923, V-A:ILE:369:CD1:3239, V-A:GLY:454:CA:4049, H-A:GLY:454:N:4050, V-A:PRO:482:CG:4327, H-B:GLU:543:O:9875, V-B:LYS:547:CD:9921, V-A:HIS:456:CG:4066, H-A:LYS:547:NZ:4951"]

$$$$
1o_Grossjean_2025
     RDKit          3D

 45 46  0  0  0  0  0  0  0  0999 V2000
  127.1150  126.8280   74.3710 C   0  0  0  0  0  0  0  0  0  0  0  0
  128.3050  126.0630   74.5010 O   0  0  0  0  0  0  0  0  0  0  0  0
  129.4340  126.4050   73.8270 C   0  0  0  0  0  0  0  0  0  0  0  0
  130.4380  126.8690   74.3750 O   0  0  0  0  0  0  0  0  0  0  0  0
  129.3410  126.1600   72.3490 C   0  0  0  0  0  0  0  0  0  0  0  0
  128.8260  127.1220   71.4680 C   0  0  0  0  0  0  0  0  0  0  0  0
  128.7560  126.8640   70.1010 C   0  0  0  0  0  0  0  0  0  0  0  0
  129.1920  125.6420   69.5880 C   0  0  0  0  0  0  0  0  0  0  0  0
  129.0840  125.4900   68.1920 N   0  0  0  0  0  0  0  0  0  0  0  0
  129.3900  126.3570   67.2010 C   0  0  0  0  0  0  0  0  0  0  0  0
  129.8840  127.4730   67.3620 O   0  0  0  0  0  0  0  0  0  0  0  0
  129.1100  125.8560   65.7760 C   0  0  0  0  0  0  0  0  0  0  0  0
  130.2910  125.0810   65.1590 C   0  0  0  0  0  0  0  0  0  0  0  0
  130.0440  123.2820   65.1020 S   0  0  0  0  0  0  0  0  0  0  0  0
  130.9370  122.6330   63.7040 C   0  0  0  0  0  0  0  0  0  0  0  0
  130.2290  121.7260   62.9850 N   0  0  0  0  0  0  0  0  0  0  0  0
  130.8020  121.1700   61.8920 C   0  0  0  0  0  0  0  0  0  0  0  0
  129.9450  120.1760   61.1310 C   0  0  0  0  0  0  0  0  0  0  0  0
  132.0960  121.4820   61.4820 C   0  0  0  0  0  0  0  0  0  0  0  0
  132.8450  122.3960   62.2300 C   0  0  0  0  0  0  0  0  0  0  0  0
  134.2660  122.7110   61.7680 C   0  0  0  0  0  0  0  0  0  0  0  0
  132.2680  122.9870   63.3780 C   0  0  0  0  0  0  0  0  0  0  0  0
  133.0570  123.9010   64.2070 C   0  0  0  0  0  0  0  0  0  0  0  0
  133.6820  124.6240   64.8600 N   0  0  0  0  0  0  0  0  0  0  0  0
  129.7130  124.6770   70.4630 C   0  0  0  0  0  0  0  0  0  0  0  0
  129.7830  124.9370   71.8290 C   0  0  0  0  0  0  0  0  0  0  0  0
  126.7280  127.0768   75.3702 H   0  0  0  0  0  0  0  0  0  0  0  0
  127.3335  127.7553   73.8211 H   0  0  0  0  0  0  0  0  0  0  0  0
  126.3621  126.2443   73.8211 H   0  0  0  0  0  0  0  0  0  0  0  0
  128.4745  128.0880   71.8597 H   0  0  0  0  0  0  0  0  0  0  0  0
  128.3540  127.6294   69.4209 H   0  0  0  0  0  0  0  0  0  0  0  0
  128.7470  124.5840   67.9000 H   0  0  0  0  0  0  0  0  0  0  0  0
  128.2337  125.1917   65.8054 H   0  0  0  0  0  0  0  0  0  0  0  0
  128.9377  126.7419   65.1472 H   0  0  0  0  0  0  0  0  0  0  0  0
  130.4427  125.4422   64.1311 H   0  0  0  0  0  0  0  0  0  0  0  0
  131.1631  125.2625   65.8044 H   0  0  0  0  0  0  0  0  0  0  0  0
  129.3982  119.5418   61.8443 H   0  0  0  0  0  0  0  0  0  0  0  0
  129.2275  120.7192   60.4985 H   0  0  0  0  0  0  0  0  0  0  0  0
  130.5879  119.5463   60.4985 H   0  0  0  0  0  0  0  0  0  0  0  0
  132.5231  121.0158   60.5819 H   0  0  0  0  0  0  0  0  0  0  0  0
  134.9135  122.8545   62.6456 H   0  0  0  0  0  0  0  0  0  0  0  0
  134.6484  121.8758   61.1628 H   0  0  0  0  0  0  0  0  0  0  0  0
  134.2597  123.6295   61.1628 H   0  0  0  0  0  0  0  0  0  0  0  0
  130.0669  123.7129   70.0690 H   0  0  0  0  0  0  0  0  0  0  0  0
  130.1902  124.1730   72.5077 H   0  0  0  0  0  0  0  0  0  0  0  0
  1  2  1  0
  2  3  1  0
  3  4  2  0
  3  5  1  0
  5  6  2  0
  6  7  1  0
  7  8  2  0
  8  9  1  0
  9 10  1  0
 10 11  2  0
 10 12  1  0
 12 13  1  0
 13 14  1  0
 14 15  1  0
 15 16  2  0
 16 17  1  0
 17 18  1  0
 17 19  2  0
 19 20  1  0
 20 21  1  0
 20 22  2  0
 22 23  1  0
 23 24  3  0
  8 25  1  0
 25 26  2  0
 26  5  1  0
 22 15  1  0
  1 27  1  0
  1 28  1  0
  1 29  1  0
  6 30  1  0
  7 31  1  0
  9 32  1  0
 12 33  1  0
 12 34  1  0
 13 35  1  0
 13 36  1  0
 18 37  1  0
 18 38  1  0
 18 39  1  0
 19 40  1  0
 21 41  1  0
 21 42  1  0
 21 43  1  0
 25 44  1  0
 26 45  1  0
M  END
>  <Binding energies>  (1) 
[-8.18]

>  <Ligand effiencies>  (1) 
[-0.30296296296296293]

>  <Interactions>  (1) 
["H-A:HIS:456:NE2:4070, V-A:HIS:456:CD2:4068, V-B:GLU:543:CD:9880, V-B:TYR:539:CD2:9846, V-A:LEU:475:CD1:4258, V-B:GLU:543:CB:9878, H-A:TYR:484:OH:4348, V-B:GLU:543:C:9874, V-A:TYR:484:CE1:4345, V-B:HIS:456:CE1:9040, V-A:HIS:456:CE1:4069, V-B:GLU:543:CG:9879, V-B:ALA:541:CB:9864, H-B:LYS:547:NZ:9923, V-A:ILE:369:CD1:3239, V-A:GLY:454:CA:4049, H-A:GLY:454:N:4050, V-A:PRO:482:CG:4327, H-B:GLU:543:O:9875, V-B:LYS:547:CD:9921, V-A:HIS:456:CG:4066, H-A:LYS:547:NZ:4951"]

$$$$
1p_Grossjean_2025
     RDKit          3D

 35 36  0  0  0  0  0  0  0  0999 V2000
  123.7100  129.9960   66.2220 C   0  0  0  0  0  0  0  0  0  0  0  0
  125.0530  129.2890   66.2010 C   0  0  0  0  0  0  0  0  0  0  0  0
  126.0450  129.6390   65.2870 C   0  0  0  0  0  0  0  0  0  0  0  0
  127.2600  128.9440   65.3050 C   0  0  0  0  0  0  0  0  0  0  0  0
  128.3280  129.3340   64.2840 C   0  0  0  0  0  0  0  0  0  0  0  0
  127.4530  127.9140   66.2520 C   0  0  0  0  0  0  0  0  0  0  0  0
  128.6960  127.1400   66.2590 C   0  0  0  0  0  0  0  0  0  0  0  0
  129.6790  126.5300   66.2640 N   0  0  0  0  0  0  0  0  0  0  0  0
  126.3990  127.6420   67.1570 C   0  0  0  0  0  0  0  0  0  0  0  0
  126.4800  126.3890   68.4150 S   0  0  0  0  0  0  0  0  0  0  0  0
  128.1070  126.5440   69.2080 C   0  0  0  0  0  0  0  0  0  0  0  0
  128.0380  126.9140   70.7020 C   0  0  0  0  0  0  0  0  0  0  0  0
  128.5740  125.8160   71.6320 C   0  0  0  0  0  0  0  0  0  0  0  0
  128.5360  125.9820   72.8530 O   0  0  0  0  0  0  0  0  0  0  0  0
  129.0480  124.7090   71.0170 N   0  0  0  0  0  0  0  0  0  0  0  0
  129.5830  123.5770   71.6190 C   0  0  0  0  0  0  0  0  0  0  0  0
  130.8130  123.5740   72.2770 C   0  0  0  0  0  0  0  0  0  0  0  0
  130.9760  122.2840   72.7250 C   0  0  0  0  0  0  0  0  0  0  0  0
  129.9030  121.5470   72.3550 O   0  0  0  0  0  0  0  0  0  0  0  0
  129.0270  122.3780   71.6540 N   0  0  0  0  0  0  0  0  0  0  0  0
  125.2170  128.3070   67.1180 N   0  0  0  0  0  0  0  0  0  0  0  0
  123.3983  130.1601   67.2641 H   0  0  0  0  0  0  0  0  0  0  0  0
  123.7976  130.9649   65.7086 H   0  0  0  0  0  0  0  0  0  0  0  0
  122.9608  129.3754   65.7086 H   0  0  0  0  0  0  0  0  0  0  0  0
  125.8759  130.4491   64.5624 H   0  0  0  0  0  0  0  0  0  0  0  0
  129.2351  129.6653   64.8107 H   0  0  0  0  0  0  0  0  0  0  0  0
  128.5669  128.4651   63.6532 H   0  0  0  0  0  0  0  0  0  0  0  0
  127.9507  130.1524   63.6532 H   0  0  0  0  0  0  0  0  0  0  0  0
  128.6322  125.5822   69.1128 H   0  0  0  0  0  0  0  0  0  0  0  0
  128.6346  127.3641   68.6990 H   0  0  0  0  0  0  0  0  0  0  0  0
  128.6317  127.8261   70.8623 H   0  0  0  0  0  0  0  0  0  0  0  0
  126.9760  127.0574   70.9504 H   0  0  0  0  0  0  0  0  0  0  0  0
  129.0240  124.6940   70.0080 H   0  0  0  0  0  0  0  0  0  0  0  0
  131.5032  124.4203   72.4090 H   0  0  0  0  0  0  0  0  0  0  0  0
  131.8406  121.9108   73.2934 H   0  0  0  0  0  0  0  0  0  0  0  0
  1  2  1  0
  2  3  2  0
  3  4  1  0
  4  5  1  0
  4  6  2  0
  6  7  1  0
  7  8  3  0
  6  9  1  0
  9 10  1  0
 10 11  1  0
 11 12  1  0
 12 13  1  0
 13 14  2  0
 13 15  1  0
 15 16  1  0
 16 17  1  0
 17 18  2  0
 18 19  1  0
 19 20  1  0
  9 21  2  0
 21  2  1  0
 20 16  2  0
  1 22  1  0
  1 23  1  0
  1 24  1  0
  3 25  1  0
  5 26  1  0
  5 27  1  0
  5 28  1  0
 11 29  1  0
 11 30  1  0
 12 31  1  0
 12 32  1  0
 15 33  1  0
 17 34  1  0
 18 35  1  0
M  END
>  <Binding energies>  (1) 
[-7.6]

>  <Ligand effiencies>  (1) 
[-0.34545454545454546]

>  <Interactions>  (1) 
["V-A:GLU:543:CD:4908, V-A:HIS:456:CD2:4068, V-B:GLU:543:CB:9878, V-B:HIS:456:CE1:9040, V-B:ARG:545:CD:9895, V-B:ARG:545:CZ:9898, V-B:ARG:545:CG:9894, H-B:ARG:545:N:9892, H-B:LYS:547:NZ:9923, V-B:GLY:454:CA:9020, H-B:ARG:545:NE:9896, H-B:GLU:543:O:9875, V-A:TYR:484:CG:4342, V-A:TYR:484:CE2:4346, V-A:HIS:456:CG:4066, V-A:TYR:484:CD2:4344, V-A:HIS:456:CB:4065, V-B:GLY:454:C:9018, V-A:ASP:473:CB:4239, V-A:TYR:484:CB:4341"]

$$$$
1q_Grossjean_2025
     RDKit          3D

 38 38  0  0  0  0  0  0  0  0999 V2000
  128.0560  126.5730   71.9800 C   0  0  0  0  0  0  0  0  0  0  0  0
  128.3450  125.2470   72.3990 O   0  0  0  0  0  0  0  0  0  0  0  0
  128.9110  124.3620   71.5420 C   0  0  0  0  0  0  0  0  0  0  0  0
  128.7290  123.1430   71.5490 O   0  0  0  0  0  0  0  0  0  0  0  0
  129.8740  125.0040   70.5210 C   0  0  0  0  0  0  0  0  0  0  0  0
  129.2120  125.3700   69.2590 N   0  0  0  0  0  0  0  0  0  0  0  0
  129.0950  126.6160   68.7620 C   0  0  0  0  0  0  0  0  0  0  0  0
  129.5460  127.6130   69.3290 O   0  0  0  0  0  0  0  0  0  0  0  0
  128.3690  126.7370   67.4140 C   0  0  0  0  0  0  0  0  0  0  0  0
  129.2560  126.4430   66.1880 C   0  0  0  0  0  0  0  0  0  0  0  0
  130.3440  125.0030   66.4050 S   0  0  0  0  0  0  0  0  0  0  0  0
  130.6850  124.3030   64.8020 C   0  0  0  0  0  0  0  0  0  0  0  0
  129.5660  123.9450   64.1220 N   0  0  0  0  0  0  0  0  0  0  0  0
  129.6990  123.3990   62.8910 C   0  0  0  0  0  0  0  0  0  0  0  0
  128.4050  123.0080   62.2000 C   0  0  0  0  0  0  0  0  0  0  0  0
  130.9380  123.1980   62.2870 C   0  0  0  0  0  0  0  0  0  0  0  0
  132.0950  123.5870   62.9670 C   0  0  0  0  0  0  0  0  0  0  0  0
  133.4420  123.3740   62.2750 C   0  0  0  0  0  0  0  0  0  0  0  0
  131.9830  124.1620   64.2530 C   0  0  0  0  0  0  0  0  0  0  0  0
  133.1800  124.6280   64.9560 C   0  0  0  0  0  0  0  0  0  0  0  0
  134.1290  124.9940   65.5080 N   0  0  0  0  0  0  0  0  0  0  0  0
  127.9162  127.2142   72.8628 H   0  0  0  0  0  0  0  0  0  0  0  0
  128.8915  126.9571   71.3764 H   0  0  0  0  0  0  0  0  0  0  0  0
  127.1364  126.5746   71.3764 H   0  0  0  0  0  0  0  0  0  0  0  0
  130.3040  125.9125   70.9678 H   0  0  0  0  0  0  0  0  0  0  0  0
  130.6470  124.2584   70.2833 H   0  0  0  0  0  0  0  0  0  0  0  0
  128.7910  124.6100   68.7440 H   0  0  0  0  0  0  0  0  0  0  0  0
  127.5290  126.0267   67.4100 H   0  0  0  0  0  0  0  0  0  0  0  0
  128.0435  127.7839   67.3240 H   0  0  0  0  0  0  0  0  0  0  0  0
  128.6027  126.2579   65.3226 H   0  0  0  0  0  0  0  0  0  0  0  0
  129.9055  127.3188   66.0424 H   0  0  0  0  0  0  0  0  0  0  0  0
  127.6406  122.7770   62.9565 H   0  0  0  0  0  0  0  0  0  0  0  0
  128.0586  123.8416   61.5714 H   0  0  0  0  0  0  0  0  0  0  0  0
  128.5782  122.1221   61.5714 H   0  0  0  0  0  0  0  0  0  0  0  0
  131.0046  122.7397   61.2892 H   0  0  0  0  0  0  0  0  0  0  0  0
  134.2285  123.2496   63.0339 H   0  0  0  0  0  0  0  0  0  0  0  0
  133.3929  122.4725   61.6467 H   0  0  0  0  0  0  0  0  0  0  0  0
  133.6735  124.2467   61.6467 H   0  0  0  0  0  0  0  0  0  0  0  0
  1  2  1  0
  2  3  1  0
  3  4  2  0
  3  5  1  0
  5  6  1  0
  6  7  1  0
  7  8  2  0
  7  9  1  0
  9 10  1  0
 10 11  1  0
 11 12  1  0
 12 13  2  0
 13 14  1  0
 14 15  1  0
 14 16  2  0
 16 17  1  0
 17 18  1  0
 17 19  2  0
 19 20  1  0
 20 21  3  0
 19 12  1  0
  1 22  1  0
  1 23  1  0
  1 24  1  0
  5 25  1  0
  5 26  1  0
  6 27  1  0
  9 28  1  0
  9 29  1  0
 10 30  1  0
 10 31  1  0
 15 32  1  0
 15 33  1  0
 15 34  1  0
 16 35  1  0
 18 36  1  0
 18 37  1  0
 18 38  1  0
M  END
>  <Binding energies>  (1) 
[-6.14]

>  <Ligand effiencies>  (1) 
[-0.27909090909090906]

>  <Interactions>  (1) 
["H-A:HIS:456:NE2:4070, V-A:HIS:456:CD2:4068, V-B:GLU:543:CD:9880, V-B:GLU:543:CB:9878, H-A:TYR:484:OH:4348, V-B:GLU:543:C:9874, V-A:HIS:456:CE1:4069, V-B:GLU:543:CG:9879, V-B:ALA:541:CB:9864, H-B:LYS:547:NZ:9923, H-A:GLY:454:N:4050, H-A:ARG:545:NE:4924, H-B:GLU:543:O:9875, V-A:HIS:456:CG:4066, V-B:GLY:544:CA:9886, V-B:LYS:547:CE:9922"]

$$$$
2a_Ghoteimi_2023
     RDKit          3D

 85 90  0  0  0  0  0  0  0  0999 V2000
  132.0820  129.2030   57.6710 C   0  0  0  0  0  0  0  0  0  0  0  0
  132.4630  130.3900   56.7830 C   0  0  0  0  0  0  0  0  0  0  0  0
  132.1850  131.6030   57.4710 O   0  0  0  0  0  0  0  0  0  0  0  0
  131.0050  132.2520   57.3020 C   0  0  0  0  0  0  0  0  0  0  0  0
  130.6980  132.8470   56.2640 O   0  0  0  0  0  0  0  0  0  0  0  0
  130.1050  132.1680   58.5020 C   0  0  0  0  0  0  0  0  0  0  0  0
  130.5470  131.6430   59.7260 C   0  0  0  0  0  0  0  0  0  0  0  0
  129.6880  131.5820   60.8190 C   0  0  0  0  0  0  0  0  0  0  0  0
  128.3740  132.0440   60.7160 C   0  0  0  0  0  0  0  0  0  0  0  0
  127.5930  131.9300   61.8810 N   0  0  0  0  0  0  0  0  0  0  0  0
  126.2510  131.8560   62.0190 C   0  0  0  0  0  0  0  0  0  0  0  0
  125.4380  131.9290   61.0960 O   0  0  0  0  0  0  0  0  0  0  0  0
  125.7510  131.7120   63.4620 C   0  0  0  0  0  0  0  0  0  0  0  0
  125.0940  130.0620   63.8710 S   0  0  0  0  0  0  0  0  0  0  0  0
  126.5180  129.0270   64.1170 C   0  0  0  0  0  0  0  0  0  0  0  0
  126.7610  128.7290   65.4150 N   0  0  0  0  0  0  0  0  0  0  0  0
  127.8270  127.9530   65.7330 C   0  0  0  0  0  0  0  0  0  0  0  0
  128.0390  127.6740   67.1860 C   0  0  0  0  0  0  0  0  0  0  0  0
  127.1580  126.8570   67.9050 C   0  0  0  0  0  0  0  0  0  0  0  0
  127.3540  126.6110   69.2610 C   0  0  0  0  0  0  0  0  0  0  0  0
  128.4420  127.1650   69.9490 C   0  0  0  0  0  0  0  0  0  0  0  0
  128.6100  126.9330   71.3180 N   0  0  0  0  0  0  0  0  0  0  0  0
  129.4290  125.8090   71.8140 C   0  0  0  0  0  0  0  0  0  0  0  0
  129.7970  125.9180   73.3090 C   0  0  0  0  0  0  0  0  0  0  0  0
  128.6220  126.0730   74.0880 O   0  0  0  0  0  0  0  0  0  0  0  0
  127.9140  127.2490   73.7300 C   0  0  0  0  0  0  0  0  0  0  0  0
  127.4890  127.1830   72.2480 C   0  0  0  0  0  0  0  0  0  0  0  0
  129.3170  127.9940   69.2260 C   0  0  0  0  0  0  0  0  0  0  0  0
  129.1220  128.2380   67.8700 C   0  0  0  0  0  0  0  0  0  0  0  0
  128.6710  127.4430   64.7430 C   0  0  0  0  0  0  0  0  0  0  0  0
  128.4390  127.7370   63.3920 C   0  0  0  0  0  0  0  0  0  0  0  0
  129.3830  127.1640   62.3860 C   0  0  0  0  0  0  0  0  0  0  0  0
  130.2370  128.0040   61.6650 C   0  0  0  0  0  0  0  0  0  0  0  0
  131.1060  127.4830   60.7120 C   0  0  0  0  0  0  0  0  0  0  0  0
  131.1510  126.1050   60.4520 C   0  0  0  0  0  0  0  0  0  0  0  0
  132.0030  125.5630   59.4850 N   0  0  0  0  0  0  0  0  0  0  0  0
  131.6580  125.7040   58.0560 C   0  0  0  0  0  0  0  0  0  0  0  0
  132.8460  125.4200   57.1120 C   0  0  0  0  0  0  0  0  0  0  0  0
  133.3810  124.1320   57.3770 O   0  0  0  0  0  0  0  0  0  0  0  0
  133.8480  124.0230   58.7130 C   0  0  0  0  0  0  0  0  0  0  0  0
  132.6890  124.2740   59.7000 C   0  0  0  0  0  0  0  0  0  0  0  0
  130.2820  125.2700   61.1700 C   0  0  0  0  0  0  0  0  0  0  0  0
  129.4120  125.7920   62.1230 C   0  0  0  0  0  0  0  0  0  0  0  0
  127.3260  128.5490   63.0620 C   0  0  0  0  0  0  0  0  0  0  0  0
  127.0000  128.8450   61.6630 C   0  0  0  0  0  0  0  0  0  0  0  0
  126.7450  129.0780   60.5580 N   0  0  0  0  0  0  0  0  0  0  0  0
  127.9230  132.5630   59.4930 C   0  0  0  0  0  0  0  0  0  0  0  0
  128.7840  132.6250   58.4000 C   0  0  0  0  0  0  0  0  0  0  0  0
  132.1746  129.4915   58.7284 H   0  0  0  0  0  0  0  0  0  0  0  0
  131.0436  128.9067   57.4614 H   0  0  0  0  0  0  0  0  0  0  0  0
  132.7540  128.3577   57.4614 H   0  0  0  0  0  0  0  0  0  0  0  0
  133.5358  130.3407   56.5449 H   0  0  0  0  0  0  0  0  0  0  0  0
  131.8794  130.3540   55.8513 H   0  0  0  0  0  0  0  0  0  0  0  0
  131.5799  131.2771   59.8221 H   0  0  0  0  0  0  0  0  0  0  0  0
  130.0469  131.1664   61.7722 H   0  0  0  0  0  0  0  0  0  0  0  0
  128.1270  131.9270   62.7370 H   0  0  0  0  0  0  0  0  0  0  0  0
  126.5906  131.9255   64.1398 H   0  0  0  0  0  0  0  0  0  0  0  0
  124.9163  132.4192   63.5767 H   0  0  0  0  0  0  0  0  0  0  0  0
  126.2982  126.4028   67.3907 H   0  0  0  0  0  0  0  0  0  0  0  0
  126.6422  125.9703   69.8022 H   0  0  0  0  0  0  0  0  0  0  0  0
  128.8658  124.8763   71.6627 H   0  0  0  0  0  0  0  0  0  0  0  0
  130.3731  125.8273   71.2497 H   0  0  0  0  0  0  0  0  0  0  0  0
  130.3236  125.0044   73.6220 H   0  0  0  0  0  0  0  0  0  0  0  0
  130.4468  126.7930   73.4579 H   0  0  0  0  0  0  0  0  0  0  0  0
  127.0180  127.3404   74.3615 H   0  0  0  0  0  0  0  0  0  0  0  0
  128.5676  128.1213   73.8781 H   0  0  0  0  0  0  0  0  0  0  0  0
  126.7552  126.3716   72.1332 H   0  0  0  0  0  0  0  0  0  0  0  0
  127.0711  128.1672   71.9898 H   0  0  0  0  0  0  0  0  0  0  0  0
  130.1710  128.4581   69.7412 H   0  0  0  0  0  0  0  0  0  0  0  0
  129.8290  128.8833   67.3280 H   0  0  0  0  0  0  0  0  0  0  0  0
  129.5228  126.8069   65.0255 H   0  0  0  0  0  0  0  0  0  0  0  0
  130.2215  129.0877   61.8533 H   0  0  0  0  0  0  0  0  0  0  0  0
  131.7679  128.1615   60.1538 H   0  0  0  0  0  0  0  0  0  0  0  0
  130.8481  124.9978   57.8207 H   0  0  0  0  0  0  0  0  0  0  0  0
  131.3553  126.7492   57.8947 H   0  0  0  0  0  0  0  0  0  0  0  0
  132.5003  125.4630   56.0686 H   0  0  0  0  0  0  0  0  0  0  0  0
  133.6274  126.1762   57.2782 H   0  0  0  0  0  0  0  0  0  0  0  0
  134.2529  123.0133   58.8760 H   0  0  0  0  0  0  0  0  0  0  0  0
  134.6349  124.7727   58.8824 H   0  0  0  0  0  0  0  0  0  0  0  0
  131.9530  123.4644   59.5863 H   0  0  0  0  0  0  0  0  0  0  0  0
  133.1239  124.3028   60.7100 H   0  0  0  0  0  0  0  0  0  0  0  0
  130.2882  124.1871   60.9771 H   0  0  0  0  0  0  0  0  0  0  0  0
  128.7405  125.1176   62.6746 H   0  0  0  0  0  0  0  0  0  0  0  0
  126.8875  132.9216   59.3972 H   0  0  0  0  0  0  0  0  0  0  0  0
  128.4232  133.0372   57.4461 H   0  0  0  0  0  0  0  0  0  0  0  0
  1  2  1  0
  2  3  1  0
  3  4  1  0
  4  5  2  0
  4  6  1  0
  6  7  2  0
  7  8  1  0
  8  9  2  0
  9 10  1  0
 10 11  1  0
 11 12  2  0
 11 13  1  0
 13 14  1  0
 14 15  1  0
 15 16  2  0
 16 17  1  0
 17 18  1  0
 18 19  2  0
 19 20  1  0
 20 21  2  0
 21 22  1  0
 22 23  1  0
 23 24  1  0
 24 25  1  0
 25 26  1  0
 26 27  1  0
 21 28  1  0
 28 29  2  0
 17 30  2  0
 30 31  1  0
 31 32  1  0
 32 33  2  0
 33 34  1  0
 34 35  2  0
 35 36  1  0
 36 37  1  0
 37 38  1  0
 38 39  1  0
 39 40  1  0
 40 41  1  0
 35 42  1  0
 42 43  2  0
 31 44  2  0
 44 45  1  0
 45 46  3  0
  9 47  1  0
 47 48  2  0
 48  6  1  0
 44 15  1  0
 29 18  1  0
 43 32  1  0
 27 22  1  0
 41 36  1  0
  1 49  1  0
  1 50  1  0
  1 51  1  0
  2 52  1  0
  2 53  1  0
  7 54  1  0
  8 55  1  0
 10 56  1  0
 13 57  1  0
 13 58  1  0
 19 59  1  0
 20 60  1  0
 23 61  1  0
 23 62  1  0
 24 63  1  0
 24 64  1  0
 26 65  1  0
 26 66  1  0
 27 67  1  0
 27 68  1  0
 28 69  1  0
 29 70  1  0
 30 71  1  0
 33 72  1  0
 34 73  1  0
 37 74  1  0
 37 75  1  0
 38 76  1  0
 38 77  1  0
 40 78  1  0
 40 79  1  0
 41 80  1  0
 41 81  1  0
 42 82  1  0
 43 83  1  0
 47 84  1  0
 48 85  1  0
M  END
>  <Binding energies>  (1) 
[-10.4]

>  <Ligand effiencies>  (1) 
[-0.2122448979591837]

>  <Interactions>  (1) 
["V-A:GLU:543:CD:4908, V-A:HIS:456:CD2:4068, V-B:GLU:543:CD:9880, V-A:ASP:366:CG:3213, V-B:GLU:543:CB:9878, V-B:GLU:543:C:9874, V-B:HIS:456:CE1:9040, V-A:HIS:456:CE1:4069, V-A:PRO:540:CA:4883, V-A:TYR:539:CD2:4874, V-A:TYR:539:CZ:4877, V-A:TYR:539:CE2:4876, V-A:GLU:543:CB:4906, V-A:PRO:540:CB:4885, V-A:TYR:539:C:4867, V-B:GLY:544:C:9884, H-B:LYS:547:NZ:9923, V-A:GLU:543:CG:4907, V-B:LEU:475:CD1:9229, V-A:ASP:366:CA:3210, V-A:ILE:369:CB:3236, V-A:ILE:369:CG2:3237, H-B:ARG:545:NH2:9900, V-A:ASP:366:CB:3212, V-A:PRO:540:N:4884, V-A:TYR:531:CZ:4794, V-A:ASP:366:C:3208, V-B:HIS:456:CD2:9039, V-B:HIS:456:CG:9037, H-B:TYR:539:OH:9850, H-A:TYR:539:N:4870, V-A:PRO:540:CD:4887, V-A:TYR:539:CG:4872, V-A:LEU:363:CD1:3189, V-A:TYR:531:CE2:4793"]

$$$$
2a_Grossjean_2025
     RDKit          3D

 45 46  0  0  0  0  0  0  0  0999 V2000
  126.0800  127.2420   73.5120 C   0  0  0  0  0  0  0  0  0  0  0  0
  127.0940  126.9830   74.6300 C   0  0  0  0  0  0  0  0  0  0  0  0
  128.0360  126.0100   74.1940 O   0  0  0  0  0  0  0  0  0  0  0  0
  129.2050  126.3780   73.6100 C   0  0  0  0  0  0  0  0  0  0  0  0
  130.1320  126.9150   74.2220 O   0  0  0  0  0  0  0  0  0  0  0  0
  129.2640  126.0460   72.1460 C   0  0  0  0  0  0  0  0  0  0  0  0
  128.7960  126.9330   71.1650 C   0  0  0  0  0  0  0  0  0  0  0  0
  128.8640  126.5940   69.8170 C   0  0  0  0  0  0  0  0  0  0  0  0
  129.3910  125.3640   69.4210 C   0  0  0  0  0  0  0  0  0  0  0  0
  129.3970  125.1220   68.0350 N   0  0  0  0  0  0  0  0  0  0  0  0
  129.7610  125.9280   67.0150 C   0  0  0  0  0  0  0  0  0  0  0  0
  130.1480  127.0910   67.1260 O   0  0  0  0  0  0  0  0  0  0  0  0
  129.6650  125.3070   65.6170 C   0  0  0  0  0  0  0  0  0  0  0  0
  129.9960  123.5140   65.5990 S   0  0  0  0  0  0  0  0  0  0  0  0
  130.6360  123.0340   63.9990 C   0  0  0  0  0  0  0  0  0  0  0  0
  129.7590  122.3990   63.1800 N   0  0  0  0  0  0  0  0  0  0  0  0
  130.1790  121.9970   61.9590 C   0  0  0  0  0  0  0  0  0  0  0  0
  129.1500  121.2710   61.1130 C   0  0  0  0  0  0  0  0  0  0  0  0
  131.4750  122.2130   61.5010 C   0  0  0  0  0  0  0  0  0  0  0  0
  132.3970  122.8750   62.3280 C   0  0  0  0  0  0  0  0  0  0  0  0
  133.8270  123.1090   61.8060 C   0  0  0  0  0  0  0  0  0  0  0  0
  134.6410  122.1560   62.2600 F   0  0  0  0  0  0  0  0  0  0  0  0
  133.8350  123.0870   60.4720 F   0  0  0  0  0  0  0  0  0  0  0  0
  134.3310  124.2840   62.1910 F   0  0  0  0  0  0  0  0  0  0  0  0
  131.9700  123.3000   63.6120 C   0  0  0  0  0  0  0  0  0  0  0  0
  132.8920  123.9930   64.5180 C   0  0  0  0  0  0  0  0  0  0  0  0
  133.6200  124.5400   65.2320 N   0  0  0  0  0  0  0  0  0  0  0  0
  129.8690  124.4760   70.3960 C   0  0  0  0  0  0  0  0  0  0  0  0
  129.8040  124.8180   71.7440 C   0  0  0  0  0  0  0  0  0  0  0  0
  125.1036  127.4914   73.9531 H   0  0  0  0  0  0  0  0  0  0  0  0
  126.4263  128.0805   72.8899 H   0  0  0  0  0  0  0  0  0  0  0  0
  125.9817  126.3401   72.8899 H   0  0  0  0  0  0  0  0  0  0  0  0
  127.6184  127.9185   74.8745 H   0  0  0  0  0  0  0  0  0  0  0  0
  126.5704  126.6143   75.5244 H   0  0  0  0  0  0  0  0  0  0  0  0
  128.3723  127.9033   71.4634 H   0  0  0  0  0  0  0  0  0  0  0  0
  128.4994  127.3013   69.0575 H   0  0  0  0  0  0  0  0  0  0  0  0
  129.1290  124.1830   67.7810 H   0  0  0  0  0  0  0  0  0  0  0  0
  128.6505  125.4785   65.2278 H   0  0  0  0  0  0  0  0  0  0  0  0
  130.4348  125.7863   64.9944 H   0  0  0  0  0  0  0  0  0  0  0  0
  128.4288  120.7621   61.7694 H   0  0  0  0  0  0  0  0  0  0  0  0
  128.6198  121.9961   60.4781 H   0  0  0  0  0  0  0  0  0  0  0  0
  129.6554  120.5284   60.4781 H   0  0  0  0  0  0  0  0  0  0  0  0
  131.7747  121.8684   60.5003 H   0  0  0  0  0  0  0  0  0  0  0  0
  130.2959  123.5079   70.0950 H   0  0  0  0  0  0  0  0  0  0  0  0
  130.1811  124.1156   72.5019 H   0  0  0  0  0  0  0  0  0  0  0  0
  1  2  1  0
  2  3  1  0
  3  4  1  0
  4  5  2  0
  4  6  1  0
  6  7  2  0
  7  8  1  0
  8  9  2  0
  9 10  1  0
 10 11  1  0
 11 12  2  0
 11 13  1  0
 13 14  1  0
 14 15  1  0
 15 16  2  0
 16 17  1  0
 17 18  1  0
 17 19  2  0
 19 20  1  0
 20 21  1  0
 21 22  1  0
 21 23  1  0
 21 24  1  0
 20 25  2  0
 25 26  1  0
 26 27  3  0
  9 28  1  0
 28 29  2  0
 29  6  1  0
 25 15  1  0
  1 30  1  0
  1 31  1  0
  1 32  1  0
  2 33  1  0
  2 34  1  0
  7 35  1  0
  8 36  1  0
 10 37  1  0
 13 38  1  0
 13 39  1  0
 18 40  1  0
 18 41  1  0
 18 42  1  0
 19 43  1  0
 28 44  1  0
 29 45  1  0
M  END
>  <Binding energies>  (1) 
[-7.7]

>  <Ligand effiencies>  (1) 
[-0.25666666666666665]

>  <Interactions>  (1) 
["H-A:HIS:456:NE2:4070, V-A:HIS:456:CD2:4068, V-A:ASP:366:CG:3213, V-B:TYR:539:CD2:9846, V-A:LEU:475:CD1:4258, V-B:GLU:543:CB:9878, H-A:TYR:484:OH:4348, V-A:TYR:484:CZ:4347, V-B:GLU:543:C:9874, V-A:TYR:484:CE1:4345, V-B:HIS:456:CE1:9040, V-A:HIS:456:CE1:4069, V-B:GLU:543:CG:9879, V-B:ALA:541:CB:9864, H-B:LYS:547:NZ:9923, V-A:ILE:369:CD1:3239, V-A:GLY:453:CA:4044, V-A:GLY:454:CA:4049, V-A:GLY:453:C:4042, V-A:ILE:369:CG2:3237, H-A:GLY:454:N:4050, V-B:ALA:541:CA:9862, H-B:GLU:543:O:9875, V-B:LYS:547:CD:9921, V-B:HIS:456:CG:9037, V-A:HIS:456:CG:4066, H-A:LYS:547:NZ:4951, V-B:HIS:456:CB:9036"]

$$$$
2aa_Ghoteimi_2023
     RDKit          3D

 85 90  0  0  0  0  0  0  0  0999 V2000
  133.9790  129.4940   56.6300 C   0  0  0  0  0  0  0  0  0  0  0  0
  132.9320  130.6120   56.5690 C   0  0  0  0  0  0  0  0  0  0  0  0
  133.1320  131.5040   57.6580 O   0  0  0  0  0  0  0  0  0  0  0  0
  133.0770  131.0680   58.9430 C   0  0  0  0  0  0  0  0  0  0  0  0
  134.0730  130.9450   59.6630 O   0  0  0  0  0  0  0  0  0  0  0  0
  131.6810  130.7640   59.4070 C   0  0  0  0  0  0  0  0  0  0  0  0
  130.7570  130.0990   58.5870 C   0  0  0  0  0  0  0  0  0  0  0  0
  129.4720  129.8270   59.0470 C   0  0  0  0  0  0  0  0  0  0  0  0
  129.0810  130.2210   60.3280 C   0  0  0  0  0  0  0  0  0  0  0  0
  127.7600  129.8930   60.6920 N   0  0  0  0  0  0  0  0  0  0  0  0
  126.7650  130.6870   61.1440 C   0  0  0  0  0  0  0  0  0  0  0  0
  126.8460  131.9080   61.2950 O   0  0  0  0  0  0  0  0  0  0  0  0
  125.4530  129.9530   61.4520 C   0  0  0  0  0  0  0  0  0  0  0  0
  125.4210  129.5860   62.8350 O   0  0  0  0  0  0  0  0  0  0  0  0
  126.4740  128.8750   63.3930 C   0  0  0  0  0  0  0  0  0  0  0  0
  127.3980  128.3330   62.5500 N   0  0  0  0  0  0  0  0  0  0  0  0
  128.4430  127.6350   63.0620 C   0  0  0  0  0  0  0  0  0  0  0  0
  129.4140  127.0660   62.0770 C   0  0  0  0  0  0  0  0  0  0  0  0
  130.7450  126.8330   62.4390 C   0  0  0  0  0  0  0  0  0  0  0  0
  131.6520  126.2970   61.5280 C   0  0  0  0  0  0  0  0  0  0  0  0
  131.2570  125.9620   60.2230 C   0  0  0  0  0  0  0  0  0  0  0  0
  132.1590  125.4350   59.2920 N   0  0  0  0  0  0  0  0  0  0  0  0
  132.7880  124.1130   59.4920 C   0  0  0  0  0  0  0  0  0  0  0  0
  133.9990  123.8540   58.5710 C   0  0  0  0  0  0  0  0  0  0  0  0
  133.6260  124.0380   57.2150 O   0  0  0  0  0  0  0  0  0  0  0  0
  133.1750  125.3620   56.9760 C   0  0  0  0  0  0  0  0  0  0  0  0
  131.9390  125.6660   57.8490 C   0  0  0  0  0  0  0  0  0  0  0  0
  129.9280  126.2180   59.8590 C   0  0  0  0  0  0  0  0  0  0  0  0
  129.0230  126.7560   60.7690 C   0  0  0  0  0  0  0  0  0  0  0  0
  128.5790  127.4470   64.4410 C   0  0  0  0  0  0  0  0  0  0  0  0
  127.6370  127.9830   65.3280 C   0  0  0  0  0  0  0  0  0  0  0  0
  127.8230  127.7260   66.7880 C   0  0  0  0  0  0  0  0  0  0  0  0
  128.9290  128.2490   67.4620 C   0  0  0  0  0  0  0  0  0  0  0  0
  129.1180  127.9970   68.8180 C   0  0  0  0  0  0  0  0  0  0  0  0
  128.2130  127.2020   69.5370 C   0  0  0  0  0  0  0  0  0  0  0  0
  128.3810  126.9390   70.9000 N   0  0  0  0  0  0  0  0  0  0  0  0
  129.1080  125.7430   71.3680 C   0  0  0  0  0  0  0  0  0  0  0  0
  129.4960  125.8050   72.8610 C   0  0  0  0  0  0  0  0  0  0  0  0
  128.3410  126.0370   73.6520 O   0  0  0  0  0  0  0  0  0  0  0  0
  127.7100  127.2620   73.3110 C   0  0  0  0  0  0  0  0  0  0  0  0
  127.2750  127.2380   71.8310 C   0  0  0  0  0  0  0  0  0  0  0  0
  127.1020  126.6870   68.8550 C   0  0  0  0  0  0  0  0  0  0  0  0
  126.9120  126.9390   67.4990 C   0  0  0  0  0  0  0  0  0  0  0  0
  126.5640  128.7290   64.7880 C   0  0  0  0  0  0  0  0  0  0  0  0
  125.5600  129.3680   65.6420 C   0  0  0  0  0  0  0  0  0  0  0  0
  124.7680  129.8730   66.3180 N   0  0  0  0  0  0  0  0  0  0  0  0
  130.0010  130.8800   61.1560 C   0  0  0  0  0  0  0  0  0  0  0  0
  131.2870  131.1470   60.6950 C   0  0  0  0  0  0  0  0  0  0  0  0
  134.2012  129.2567   57.6809 H   0  0  0  0  0  0  0  0  0  0  0  0
  133.5880  128.5976   56.1265 H   0  0  0  0  0  0  0  0  0  0  0  0
  134.8991  129.8254   56.1265 H   0  0  0  0  0  0  0  0  0  0  0  0
  133.0352  131.1606   55.6211 H   0  0  0  0  0  0  0  0  0  0  0  0
  131.9239  130.1761   56.6305 H   0  0  0  0  0  0  0  0  0  0  0  0
  131.0504  129.7903   57.5728 H   0  0  0  0  0  0  0  0  0  0  0  0
  128.7596  129.2980   58.3969 H   0  0  0  0  0  0  0  0  0  0  0  0
  127.5240  128.9220   60.5530 H   0  0  0  0  0  0  0  0  0  0  0  0
  124.6026  130.6142   61.2290 H   0  0  0  0  0  0  0  0  0  0  0  0
  125.3874  129.0467   60.8321 H   0  0  0  0  0  0  0  0  0  0  0  0
  131.0802  127.0767   63.4580 H   0  0  0  0  0  0  0  0  0  0  0  0
  132.6952  126.1334   61.8361 H   0  0  0  0  0  0  0  0  0  0  0  0
  133.1257  124.0440   60.5366 H   0  0  0  0  0  0  0  0  0  0  0  0
  132.0292  123.3562   59.2441 H   0  0  0  0  0  0  0  0  0  0  0  0
  134.8065  124.5564   58.8251 H   0  0  0  0  0  0  0  0  0  0  0  0
  134.3454  122.8196   58.7128 H   0  0  0  0  0  0  0  0  0  0  0  0
  133.9789  126.0707   57.2239 H   0  0  0  0  0  0  0  0  0  0  0  0
  132.9010  125.4635   55.9155 H   0  0  0  0  0  0  0  0  0  0  0  0
  131.6628  126.7209   57.7044 H   0  0  0  0  0  0  0  0  0  0  0  0
  131.1434  124.9762   57.5308 H   0  0  0  0  0  0  0  0  0  0  0  0
  129.5944  125.9896   58.8360 H   0  0  0  0  0  0  0  0  0  0  0  0
  127.9848  126.9405   60.4558 H   0  0  0  0  0  0  0  0  0  0  0  0
  129.4324  126.8737   64.8321 H   0  0  0  0  0  0  0  0  0  0  0  0
  129.6578  128.8660   66.9160 H   0  0  0  0  0  0  0  0  0  0  0  0
  129.9895  128.4274   69.3331 H   0  0  0  0  0  0  0  0  0  0  0  0
  128.4679  124.8624   71.2106 H   0  0  0  0  0  0  0  0  0  0  0  0
  130.0434  125.6862   70.7920 H   0  0  0  0  0  0  0  0  0  0  0  0
  129.9557  124.8508   73.1581 H   0  0  0  0  0  0  0  0  0  0  0  0
  130.2109  126.6267   73.0151 H   0  0  0  0  0  0  0  0  0  0  0  0
  126.8251  127.4056   73.9484 H   0  0  0  0  0  0  0  0  0  0  0  0
  128.4193  128.0885   73.4653 H   0  0  0  0  0  0  0  0  0  0  0  0
  126.4982  126.4689   71.7082 H   0  0  0  0  0  0  0  0  0  0  0  0
  126.9059  128.2445   71.5845 H   0  0  0  0  0  0  0  0  0  0  0  0
  126.3687  126.0741   69.3997 H   0  0  0  0  0  0  0  0  0  0  0  0
  126.0379  126.5154   66.9827 H   0  0  0  0  0  0  0  0  0  0  0  0
  129.7062  131.1862   62.1706 H   0  0  0  0  0  0  0  0  0  0  0  0
  132.0025  131.6652   61.3505 H   0  0  0  0  0  0  0  0  0  0  0  0
  1  2  1  0
  2  3  1  0
  3  4  1  0
  4  5  2  0
  4  6  1  0
  6  7  2  0
  7  8  1  0
  8  9  2  0
  9 10  1  0
 10 11  1  0
 11 12  2  0
 11 13  1  0
 13 14  1  0
 14 15  1  0
 15 16  2  0
 16 17  1  0
 17 18  1  0
 18 19  2  0
 19 20  1  0
 20 21  2  0
 21 22  1  0
 22 23  1  0
 23 24  1  0
 24 25  1  0
 25 26  1  0
 26 27  1  0
 21 28  1  0
 28 29  2  0
 17 30  2  0
 30 31  1  0
 31 32  1  0
 32 33  2  0
 33 34  1  0
 34 35  2  0
 35 36  1  0
 36 37  1  0
 37 38  1  0
 38 39  1  0
 39 40  1  0
 40 41  1  0
 35 42  1  0
 42 43  2  0
 31 44  2  0
 44 45  1  0
 45 46  3  0
  9 47  1  0
 47 48  2  0
 48  6  1  0
 44 15  1  0
 29 18  1  0
 43 32  1  0
 27 22  1  0
 41 36  1  0
  1 49  1  0
  1 50  1  0
  1 51  1  0
  2 52  1  0
  2 53  1  0
  7 54  1  0
  8 55  1  0
 10 56  1  0
 13 57  1  0
 13 58  1  0
 19 59  1  0
 20 60  1  0
 23 61  1  0
 23 62  1  0
 24 63  1  0
 24 64  1  0
 26 65  1  0
 26 66  1  0
 27 67  1  0
 27 68  1  0
 28 69  1  0
 29 70  1  0
 30 71  1  0
 33 72  1  0
 34 73  1  0
 37 74  1  0
 37 75  1  0
 38 76  1  0
 38 77  1  0
 40 78  1  0
 40 79  1  0
 41 80  1  0
 41 81  1  0
 42 82  1  0
 43 83  1  0
 47 84  1  0
 48 85  1  0
M  END
>  <Binding energies>  (1) 
[-9.21]

>  <Ligand effiencies>  (1) 
[-0.1879591836734694]

>  <Interactions>  (1) 
["V-A:GLU:543:CD:4908, V-A:HIS:456:CD2:4068, V-B:GLU:543:CD:9880, V-A:ASP:366:CG:3213, V-B:GLU:543:CB:9878, V-B:GLU:543:C:9874, V-B:HIS:456:CE1:9040, V-B:TYR:539:CE2:9848, H-B:TYR:484:OH:9319, V-B:ARG:545:CG:9894, V-A:PRO:540:CA:4883, V-A:GLU:543:CB:4906, V-A:PRO:540:CB:4885, V-B:GLY:544:C:9884, H-B:LYS:547:NZ:9923, V-A:GLU:543:CG:4907, V-A:ASP:366:CA:3210, V-A:ILE:369:CB:3236, V-A:ILE:369:CG2:3237, H-B:ARG:545:NH2:9900, V-B:ASP:366:CG:8184, V-A:ASP:366:CB:3212, V-A:TYR:531:CZ:4794, V-A:LEU:363:CA:3185, V-A:ASP:366:C:3208, V-B:HIS:456:CD2:9039, V-B:HIS:456:CG:9037, H-B:TYR:539:OH:9850, V-A:LEU:363:CD1:3189, V-A:TYR:531:CE2:4793, H-A:LEU:363:N:3186"]

$$$$
2b_Ghoteimi_2023
     RDKit          3D

 72 77  0  0  0  0  0  0  0  0999 V2000
  124.7380  129.6780   66.9910 N   0  0  0  0  0  0  0  0  0  0  0  0
  125.5170  129.2690   66.2400 C   0  0  0  0  0  0  0  0  0  0  0  0
  126.5070  128.7480   65.2930 C   0  0  0  0  0  0  0  0  0  0  0  0
  127.6210  128.0010   65.7530 C   0  0  0  0  0  0  0  0  0  0  0  0
  127.8740  127.6880   67.1910 C   0  0  0  0  0  0  0  0  0  0  0  0
  128.9710  128.2450   67.8500 C   0  0  0  0  0  0  0  0  0  0  0  0
  129.2120  127.9560   69.1900 C   0  0  0  0  0  0  0  0  0  0  0  0
  128.3710  127.0870   69.9040 C   0  0  0  0  0  0  0  0  0  0  0  0
  128.5840  126.7930   71.2510 N   0  0  0  0  0  0  0  0  0  0  0  0
  127.4770  126.9720   72.2110 C   0  0  0  0  0  0  0  0  0  0  0  0
  127.9380  126.9820   73.6830 C   0  0  0  0  0  0  0  0  0  0  0  0
  128.6790  125.8050   73.9710 O   0  0  0  0  0  0  0  0  0  0  0  0
  129.8310  125.6970   73.1500 C   0  0  0  0  0  0  0  0  0  0  0  0
  129.4140  125.6440   71.6660 C   0  0  0  0  0  0  0  0  0  0  0  0
  127.2740  126.5310   69.2320 C   0  0  0  0  0  0  0  0  0  0  0  0
  127.0300  126.8230   67.8930 C   0  0  0  0  0  0  0  0  0  0  0  0
  128.5370  127.5200   64.8100 C   0  0  0  0  0  0  0  0  0  0  0  0
  128.3340  127.7470   63.4460 C   0  0  0  0  0  0  0  0  0  0  0  0
  129.2670  127.2300   62.3970 C   0  0  0  0  0  0  0  0  0  0  0  0
  130.5820  126.8780   62.7210 C   0  0  0  0  0  0  0  0  0  0  0  0
  131.4500  126.3810   61.7540 C   0  0  0  0  0  0  0  0  0  0  0  0
  131.0390  126.2270   60.4200 C   0  0  0  0  0  0  0  0  0  0  0  0
  131.8910  125.7000   59.4430 N   0  0  0  0  0  0  0  0  0  0  0  0
  132.5730  124.4110   59.6780 C   0  0  0  0  0  0  0  0  0  0  0  0
  133.7530  124.1510   58.7180 C   0  0  0  0  0  0  0  0  0  0  0  0
  133.3170  124.2570   57.3720 O   0  0  0  0  0  0  0  0  0  0  0  0
  132.8090  125.5520   57.0910 C   0  0  0  0  0  0  0  0  0  0  0  0
  131.6020  125.8560   58.0030 C   0  0  0  0  0  0  0  0  0  0  0  0
  129.7180  126.5730   60.1010 C   0  0  0  0  0  0  0  0  0  0  0  0
  128.8500  127.0680   61.0700 C   0  0  0  0  0  0  0  0  0  0  0  0
  127.2670  128.4620   63.0070 N   0  0  0  0  0  0  0  0  0  0  0  0
  126.3850  128.9660   63.9020 C   0  0  0  0  0  0  0  0  0  0  0  0
  125.0530  129.8780   63.1530 S   0  0  0  0  0  0  0  0  0  0  0  0
  125.6980  131.5150   62.6950 C   0  0  0  0  0  0  0  0  0  0  0  0
  127.2160  131.6020   62.8630 C   0  0  0  0  0  0  0  0  0  0  0  0
  127.6830  131.9540   63.9480 O   0  0  0  0  0  0  0  0  0  0  0  0
  127.9420  131.2820   61.7700 N   0  0  0  0  0  0  0  0  0  0  0  0
  129.3240  131.2670   61.6520 C   0  0  0  0  0  0  0  0  0  0  0  0
  130.0150  130.2990   60.9240 C   0  0  0  0  0  0  0  0  0  0  0  0
  131.3420  130.6330   61.0540 C   0  0  0  0  0  0  0  0  0  0  0  0
  131.4460  131.7440   61.8200 O   0  0  0  0  0  0  0  0  0  0  0  0
  130.1590  132.1390   62.1920 N   0  0  0  0  0  0  0  0  0  0  0  0
  129.6505  128.9177   67.3061 H   0  0  0  0  0  0  0  0  0  0  0  0
  130.0736  128.4149   69.6971 H   0  0  0  0  0  0  0  0  0  0  0  0
  126.9795  127.9290   71.9950 H   0  0  0  0  0  0  0  0  0  0  0  0
  126.7994  126.1141   72.0888 H   0  0  0  0  0  0  0  0  0  0  0  0
  128.5721  127.8633   73.8596 H   0  0  0  0  0  0  0  0  0  0  0  0
  127.0540  127.0196   74.3366 H   0  0  0  0  0  0  0  0  0  0  0  0
  130.4802  126.5694   73.3156 H   0  0  0  0  0  0  0  0  0  0  0  0
  130.3742  124.7756   73.4070 H   0  0  0  0  0  0  0  0  0  0  0  0
  130.3239  125.6293   71.0480 H   0  0  0  0  0  0  0  0  0  0  0  0
  128.8062  124.7372   71.5306 H   0  0  0  0  0  0  0  0  0  0  0  0
  126.5954  125.8535   69.7709 H   0  0  0  0  0  0  0  0  0  0  0  0
  126.1667  126.3697   67.3838 H   0  0  0  0  0  0  0  0  0  0  0  0
  129.4224  126.9597   65.1448 H   0  0  0  0  0  0  0  0  0  0  0  0
  130.9348  126.9961   63.7562 H   0  0  0  0  0  0  0  0  0  0  0  0
  132.4756  126.1040   62.0392 H   0  0  0  0  0  0  0  0  0  0  0  0
  132.9557  124.4033   60.7092 H   0  0  0  0  0  0  0  0  0  0  0  0
  131.8322  123.6175   59.5001 H   0  0  0  0  0  0  0  0  0  0  0  0
  134.5439  124.8925   58.9040 H   0  0  0  0  0  0  0  0  0  0  0  0
  134.1430  123.1373   58.8921 H   0  0  0  0  0  0  0  0  0  0  0  0
  133.5969  126.2987   57.2689 H   0  0  0  0  0  0  0  0  0  0  0  0
  132.4862  125.5926   56.0402 H   0  0  0  0  0  0  0  0  0  0  0  0
  131.2836  126.8935   57.8232 H   0  0  0  0  0  0  0  0  0  0  0  0
  130.8179  125.1265   57.7519 H   0  0  0  0  0  0  0  0  0  0  0  0
  129.3617  126.4511   59.0675 H   0  0  0  0  0  0  0  0  0  0  0  0
  127.8208  127.3360   60.7891 H   0  0  0  0  0  0  0  0  0  0  0  0
  125.4454  131.7144   61.6431 H   0  0  0  0  0  0  0  0  0  0  0  0
  125.2397  132.2591   63.3630 H   0  0  0  0  0  0  0  0  0  0  0  0
  127.4340  130.9950   60.9460 H   0  0  0  0  0  0  0  0  0  0  0  0
  129.5900  129.4514   60.3663 H   0  0  0  0  0  0  0  0  0  0  0  0
  132.1846  130.0850   60.6070 H   0  0  0  0  0  0  0  0  0  0  0  0
  1  2  3  0
  2  3  1  0
  3  4  2  0
  4  5  1  0
  5  6  2  0
  6  7  1  0
  7  8  2  0
  8  9  1  0
  9 10  1  0
 10 11  1  0
 11 12  1  0
 12 13  1  0
 13 14  1  0
  8 15  1  0
 15 16  2  0
  4 17  1  0
 17 18  2  0
 18 19  1  0
 19 20  2  0
 20 21  1  0
 21 22  2  0
 22 23  1  0
 23 24  1  0
 24 25  1  0
 25 26  1  0
 26 27  1  0
 27 28  1  0
 22 29  1  0
 29 30  2  0
 18 31  1  0
 31 32  2  0
 32 33  1  0
 33 34  1  0
 34 35  1  0
 35 36  2  0
 35 37  1  0
 37 38  1  0
 38 39  1  0
 39 40  2  0
 40 41  1  0
 41 42  1  0
 32  3  1  0
 42 38  2  0
 16  5  1  0
 30 19  1  0
 14  9  1  0
 28 23  1  0
  6 43  1  0
  7 44  1  0
 10 45  1  0
 10 46  1  0
 11 47  1  0
 11 48  1  0
 13 49  1  0
 13 50  1  0
 14 51  1  0
 14 52  1  0
 15 53  1  0
 16 54  1  0
 17 55  1  0
 20 56  1  0
 21 57  1  0
 24 58  1  0
 24 59  1  0
 25 60  1  0
 25 61  1  0
 27 62  1  0
 27 63  1  0
 28 64  1  0
 28 65  1  0
 29 66  1  0
 30 67  1  0
 34 68  1  0
 34 69  1  0
 37 70  1  0
 39 71  1  0
 40 72  1  0
M  END
>  <Binding energies>  (1) 
[-10.09]

>  <Ligand effiencies>  (1) 
[-0.23465116279069767]

>  <Interactions>  (1) 
["V-A:GLU:543:CD:4908, V-A:HIS:456:CD2:4068, V-B:GLU:543:CD:9880, V-A:ASP:366:CG:3213, V-B:GLU:543:CB:9878, V-B:GLU:543:C:9874, V-B:HIS:456:CE1:9040, H-B:TYR:484:OH:9319, V-B:ARG:545:CG:9894, V-A:GLU:543:CB:4906, V-B:GLY:544:C:9884, H-B:LYS:547:NZ:9923, V-B:TYR:484:CZ:9318, V-A:ASP:366:CA:3210, V-A:ILE:369:CB:3236, V-A:ILE:369:CG2:3237, H-B:ARG:545:NH2:9900, V-A:ASP:366:CB:3212, H-A:ALA:541:N:4891, V-A:ASP:366:C:3208, H-B:TYR:539:OH:9850"]

$$$$
2b_Grossjean_2025
     RDKit          3D

 42 43  0  0  0  0  0  0  0  0999 V2000
  126.9080  126.8770   73.9240 C   0  0  0  0  0  0  0  0  0  0  0  0
  128.0750  126.1060   74.1780 O   0  0  0  0  0  0  0  0  0  0  0  0
  129.2590  126.4180   73.5930 C   0  0  0  0  0  0  0  0  0  0  0  0
  130.2030  126.9330   74.2010 O   0  0  0  0  0  0  0  0  0  0  0  0
  129.3070  126.0770   72.1320 C   0  0  0  0  0  0  0  0  0  0  0  0
  128.8490  126.9640   71.1470 C   0  0  0  0  0  0  0  0  0  0  0  0
  128.9060  126.6160   69.8000 C   0  0  0  0  0  0  0  0  0  0  0  0
  129.4240  125.3820   69.4100 C   0  0  0  0  0  0  0  0  0  0  0  0
  129.4290  125.1300   68.0250 N   0  0  0  0  0  0  0  0  0  0  0  0
  129.7170  125.9590   66.9990 C   0  0  0  0  0  0  0  0  0  0  0  0
  130.0160  127.1490   67.1060 O   0  0  0  0  0  0  0  0  0  0  0  0
  129.6340  125.3270   65.6060 C   0  0  0  0  0  0  0  0  0  0  0  0
  130.0090  123.5430   65.6050 S   0  0  0  0  0  0  0  0  0  0  0  0
  130.6510  123.0550   64.0090 C   0  0  0  0  0  0  0  0  0  0  0  0
  129.7750  122.4170   63.1920 N   0  0  0  0  0  0  0  0  0  0  0  0
  130.1940  122.0140   61.9710 C   0  0  0  0  0  0  0  0  0  0  0  0
  129.1590  121.2980   61.1250 C   0  0  0  0  0  0  0  0  0  0  0  0
  131.4890  122.2350   61.5110 C   0  0  0  0  0  0  0  0  0  0  0  0
  132.4090  122.9000   62.3360 C   0  0  0  0  0  0  0  0  0  0  0  0
  133.8370  123.1400   61.8100 C   0  0  0  0  0  0  0  0  0  0  0  0
  134.6550  122.1880   62.2600 F   0  0  0  0  0  0  0  0  0  0  0  0
  133.8440  123.1210   60.4760 F   0  0  0  0  0  0  0  0  0  0  0  0
  134.3380  124.3160   62.1950 F   0  0  0  0  0  0  0  0  0  0  0  0
  131.9850  123.3220   63.6220 C   0  0  0  0  0  0  0  0  0  0  0  0
  132.9070  124.0150   64.5280 C   0  0  0  0  0  0  0  0  0  0  0  0
  133.6340  124.5620   65.2420 N   0  0  0  0  0  0  0  0  0  0  0  0
  129.8770  124.4850   70.3880 C   0  0  0  0  0  0  0  0  0  0  0  0
  129.8190  124.8340   71.7350 C   0  0  0  0  0  0  0  0  0  0  0  0
  126.4524  127.1780   74.8789 H   0  0  0  0  0  0  0  0  0  0  0  0
  127.1794  127.7742   73.3483 H   0  0  0  0  0  0  0  0  0  0  0  0
  126.1892  126.2754   73.3483 H   0  0  0  0  0  0  0  0  0  0  0  0
  128.4415  127.9425   71.4409 H   0  0  0  0  0  0  0  0  0  0  0  0
  128.5397  127.3199   69.0382 H   0  0  0  0  0  0  0  0  0  0  0  0
  129.1250  124.2020   67.7720 H   0  0  0  0  0  0  0  0  0  0  0  0
  128.6152  125.4706   65.2168 H   0  0  0  0  0  0  0  0  0  0  0  0
  130.3893  125.8207   64.9769 H   0  0  0  0  0  0  0  0  0  0  0  0
  128.4329  120.7957   61.7811 H   0  0  0  0  0  0  0  0  0  0  0  0
  128.6357  122.0281   60.4901 H   0  0  0  0  0  0  0  0  0  0  0  0
  129.6576  120.5508   60.4901 H   0  0  0  0  0  0  0  0  0  0  0  0
  131.7885  121.8915   60.5099 H   0  0  0  0  0  0  0  0  0  0  0  0
  130.2785  123.5049   70.0910 H   0  0  0  0  0  0  0  0  0  0  0  0
  130.1791  124.1261   72.4961 H   0  0  0  0  0  0  0  0  0  0  0  0
  1  2  1  0
  2  3  1  0
  3  4  2  0
  3  5  1  0
  5  6  2  0
  6  7  1  0
  7  8  2  0
  8  9  1  0
  9 10  1  0
 10 11  2  0
 10 12  1  0
 12 13  1  0
 13 14  1  0
 14 15  2  0
 15 16  1  0
 16 17  1  0
 16 18  2  0
 18 19  1  0
 19 20  1  0
 20 21  1  0
 20 22  1  0
 20 23  1  0
 19 24  2  0
 24 25  1  0
 25 26  3  0
  8 27  1  0
 27 28  2  0
 28  5  1  0
 24 14  1  0
  1 29  1  0
  1 30  1  0
  1 31  1  0
  6 32  1  0
  7 33  1  0
  9 34  1  0
 12 35  1  0
 12 36  1  0
 17 37  1  0
 17 38  1  0
 17 39  1  0
 18 40  1  0
 27 41  1  0
 28 42  1  0
M  END
>  <Binding energies>  (1) 
[-7.58]

>  <Ligand effiencies>  (1) 
[-0.2613793103448276]

>  <Interactions>  (1) 
["H-A:HIS:456:NE2:4070, V-A:HIS:456:CD2:4068, V-A:ASP:366:CG:3213, V-A:LEU:475:CD1:4258, V-B:GLU:543:CB:9878, H-A:TYR:484:OH:4348, V-A:TYR:484:CZ:4347, V-B:GLU:543:C:9874, V-A:TYR:484:CE1:4345, V-B:HIS:456:CE1:9040, V-A:HIS:456:CE1:4069, V-B:GLU:543:CG:9879, V-A:ARG:545:CZ:4926, V-B:ALA:541:CB:9864, H-B:LYS:547:NZ:9923, V-A:ILE:369:CD1:3239, V-A:GLY:453:CA:4044, V-A:GLY:454:CA:4049, V-A:GLY:453:C:4042, V-A:ILE:369:CG2:3237, H-A:GLY:454:N:4050, V-B:ALA:541:CA:9862, H-B:GLU:543:O:9875, V-B:LYS:547:CD:9921, V-A:HIS:456:CG:4066, H-A:LYS:547:NZ:4951"]

$$$$
2c_Ghoteimi_2023
     RDKit          3D

 72 77  0  0  0  0  0  0  0  0999 V2000
  124.9100  129.8640   66.4350 N   0  0  0  0  0  0  0  0  0  0  0  0
  125.6890  129.3950   65.7210 C   0  0  0  0  0  0  0  0  0  0  0  0
  126.6780  128.7950   64.8190 C   0  0  0  0  0  0  0  0  0  0  0  0
  127.7160  127.9760   65.3300 C   0  0  0  0  0  0  0  0  0  0  0  0
  127.8920  127.6630   66.7790 C   0  0  0  0  0  0  0  0  0  0  0  0
  126.9460  126.8850   67.4500 C   0  0  0  0  0  0  0  0  0  0  0  0
  127.1050  126.5850   68.8000 C   0  0  0  0  0  0  0  0  0  0  0  0
  128.2080  127.0660   69.5220 C   0  0  0  0  0  0  0  0  0  0  0  0
  128.3980  126.7600   70.8720 N   0  0  0  0  0  0  0  0  0  0  0  0
  127.3480  127.1150   71.8470 C   0  0  0  0  0  0  0  0  0  0  0  0
  127.8390  127.0810   73.3100 C   0  0  0  0  0  0  0  0  0  0  0  0
  128.3980  125.8100   73.6070 O   0  0  0  0  0  0  0  0  0  0  0  0
  129.5040  125.5150   72.7680 C   0  0  0  0  0  0  0  0  0  0  0  0
  129.0570  125.5080   71.2910 C   0  0  0  0  0  0  0  0  0  0  0  0
  129.1510  127.8490   68.8410 C   0  0  0  0  0  0  0  0  0  0  0  0
  128.9930  128.1470   67.4900 C   0  0  0  0  0  0  0  0  0  0  0  0
  128.6340  127.4240   64.4270 C   0  0  0  0  0  0  0  0  0  0  0  0
  128.5070  127.6590   63.0550 C   0  0  0  0  0  0  0  0  0  0  0  0
  129.4510  127.0790   62.0500 C   0  0  0  0  0  0  0  0  0  0  0  0
  129.0060  126.7280   60.7720 C   0  0  0  0  0  0  0  0  0  0  0  0
  129.8810  126.1920   59.8300 C   0  0  0  0  0  0  0  0  0  0  0  0
  131.2340  125.9770   60.1360 C   0  0  0  0  0  0  0  0  0  0  0  0
  132.1310  125.4640   59.1940 N   0  0  0  0  0  0  0  0  0  0  0  0
  132.7500  124.1400   59.4120 C   0  0  0  0  0  0  0  0  0  0  0  0
  133.9810  123.8780   58.5190 C   0  0  0  0  0  0  0  0  0  0  0  0
  133.6380  124.0550   57.1550 O   0  0  0  0  0  0  0  0  0  0  0  0
  133.1930  125.3780   56.8990 C   0  0  0  0  0  0  0  0  0  0  0  0
  131.9420  125.6890   57.7460 C   0  0  0  0  0  0  0  0  0  0  0  0
  131.6780  126.3430   61.4150 C   0  0  0  0  0  0  0  0  0  0  0  0
  130.8030  126.8790   62.3560 C   0  0  0  0  0  0  0  0  0  0  0  0
  127.5110  128.4420   62.5680 N   0  0  0  0  0  0  0  0  0  0  0  0
  126.6290  129.0120   63.4240 C   0  0  0  0  0  0  0  0  0  0  0  0
  125.4000  130.0130   62.6170 S   0  0  0  0  0  0  0  0  0  0  0  0
  126.2570  131.0440   61.3880 C   0  0  0  0  0  0  0  0  0  0  0  0
  127.6970  131.3510   61.8000 C   0  0  0  0  0  0  0  0  0  0  0  0
  127.9060  132.0030   62.8250 O   0  0  0  0  0  0  0  0  0  0  0  0
  128.6540  130.8710   60.9780 N   0  0  0  0  0  0  0  0  0  0  0  0
  130.0260  130.9980   61.1370 C   0  0  0  0  0  0  0  0  0  0  0  0
  130.6790  131.9270   61.8020 N   0  0  0  0  0  0  0  0  0  0  0  0
  131.9820  131.7350   61.7490 C   0  0  0  0  0  0  0  0  0  0  0  0
  132.4120  130.6270   61.0260 C   0  0  0  0  0  0  0  0  0  0  0  0
  131.0250  129.7970   60.3850 S   0  0  0  0  0  0  0  0  0  0  0  0
  126.0676  126.5060   66.9070 H   0  0  0  0  0  0  0  0  0  0  0  0
  126.3548  125.9616   69.3084 H   0  0  0  0  0  0  0  0  0  0  0  0
  126.9910  128.1308   71.6217 H   0  0  0  0  0  0  0  0  0  0  0  0
  126.5485  126.3653   71.7534 H   0  0  0  0  0  0  0  0  0  0  0  0
  128.6040  127.8580   73.4553 H   0  0  0  0  0  0  0  0  0  0  0  0
  126.9867  127.2653   73.9805 H   0  0  0  0  0  0  0  0  0  0  0  0
  130.2829  126.2788   72.9095 H   0  0  0  0  0  0  0  0  0  0  0  0
  129.9025  124.5238   73.0300 H   0  0  0  0  0  0  0  0  0  0  0  0
  129.9438  125.3524   70.6591 H   0  0  0  0  0  0  0  0  0  0  0  0
  128.3194  124.6997   71.1789 H   0  0  0  0  0  0  0  0  0  0  0  0
  130.0283  128.2334   69.3818 H   0  0  0  0  0  0  0  0  0  0  0  0
  129.7418  128.7691   66.9779 H   0  0  0  0  0  0  0  0  0  0  0  0
  129.4604  126.8014   64.8003 H   0  0  0  0  0  0  0  0  0  0  0  0
  127.9491  126.8773   60.5064 H   0  0  0  0  0  0  0  0  0  0  0  0
  129.5053  125.9328   58.8292 H   0  0  0  0  0  0  0  0  0  0  0  0
  133.0631  124.0717   60.4643 H   0  0  0  0  0  0  0  0  0  0  0  0
  131.9950  123.3842   59.1498 H   0  0  0  0  0  0  0  0  0  0  0  0
  134.7821  124.5824   58.7874 H   0  0  0  0  0  0  0  0  0  0  0  0
  134.3251  122.8447   58.6732 H   0  0  0  0  0  0  0  0  0  0  0  0
  133.9930  126.0874   57.1573 H   0  0  0  0  0  0  0  0  0  0  0  0
  132.9390  125.4727   55.8329 H   0  0  0  0  0  0  0  0  0  0  0  0
  131.6720  126.7441   57.5913 H   0  0  0  0  0  0  0  0  0  0  0  0
  131.1516  124.9992   57.4152 H   0  0  0  0  0  0  0  0  0  0  0  0
  132.7367  126.2041   61.6795 H   0  0  0  0  0  0  0  0  0  0  0  0
  131.1788  127.1492   63.3539 H   0  0  0  0  0  0  0  0  0  0  0  0
  126.2691  130.5122   60.4252 H   0  0  0  0  0  0  0  0  0  0  0  0
  125.7159  131.9985   61.3095 H   0  0  0  0  0  0  0  0  0  0  0  0
  128.3540  130.3410   60.1710 H   0  0  0  0  0  0  0  0  0  0  0  0
  132.6897  132.4129   62.2485 H   0  0  0  0  0  0  0  0  0  0  0  0
  133.4600  130.3248   60.8829 H   0  0  0  0  0  0  0  0  0  0  0  0
  1  2  3  0
  2  3  1  0
  3  4  2  0
  4  5  1  0
  5  6  2  0
  6  7  1  0
  7  8  2  0
  8  9  1  0
  9 10  1  0
 10 11  1  0
 11 12  1  0
 12 13  1  0
 13 14  1  0
  8 15  1  0
 15 16  2  0
  4 17  1  0
 17 18  2  0
 18 19  1  0
 19 20  2  0
 20 21  1  0
 21 22  2  0
 22 23  1  0
 23 24  1  0
 24 25  1  0
 25 26  1  0
 26 27  1  0
 27 28  1  0
 22 29  1  0
 29 30  2  0
 18 31  1  0
 31 32  2  0
 32 33  1  0
 33 34  1  0
 34 35  1  0
 35 36  2  0
 35 37  1  0
 37 38  1  0
 38 39  2  0
 39 40  1  0
 40 41  2  0
 41 42  1  0
 32  3  1  0
 42 38  1  0
 16  5  1  0
 30 19  1  0
 14  9  1  0
 28 23  1  0
  6 43  1  0
  7 44  1  0
 10 45  1  0
 10 46  1  0
 11 47  1  0
 11 48  1  0
 13 49  1  0
 13 50  1  0
 14 51  1  0
 14 52  1  0
 15 53  1  0
 16 54  1  0
 17 55  1  0
 20 56  1  0
 21 57  1  0
 24 58  1  0
 24 59  1  0
 25 60  1  0
 25 61  1  0
 27 62  1  0
 27 63  1  0
 28 64  1  0
 28 65  1  0
 29 66  1  0
 30 67  1  0
 34 68  1  0
 34 69  1  0
 37 70  1  0
 40 71  1  0
 41 72  1  0
M  END
>  <Binding energies>  (1) 
[-9.65]

>  <Ligand effiencies>  (1) 
[-0.2244186046511628]

>  <Interactions>  (1) 
["V-A:GLU:543:CD:4908, V-A:HIS:456:CD2:4068, V-B:GLU:543:CD:9880, V-A:ASP:366:CG:3213, V-B:GLU:543:CB:9878, V-B:GLU:543:C:9874, V-B:HIS:456:CE1:9040, V-B:TYR:539:CE2:9848, H-B:TYR:484:OH:9319, V-B:ARG:545:CG:9894, V-A:PRO:540:C:4881, V-A:PRO:540:CA:4883, V-A:GLU:543:CB:4906, V-A:PRO:540:CB:4885, V-B:GLY:544:C:9884, H-B:LYS:547:NZ:9923, V-A:GLU:543:CG:4907, V-A:ASP:366:CA:3210, V-A:ILE:369:CB:3236, V-A:ILE:369:CG2:3237, H-B:ARG:545:NH2:9900, V-A:ASP:366:CB:3212, V-A:ALA:541:CA:4890, H-A:ALA:541:N:4891, V-A:ASP:366:C:3208, V-B:HIS:456:CD2:9039, V-B:HIS:456:CG:9037, H-B:TYR:539:OH:9850"]

$$$$
2c_Grossjean_2025
     RDKit          3D

 40 41  0  0  0  0  0  0  0  0999 V2000
  127.2710  126.9130   73.5760 C   0  0  0  0  0  0  0  0  0  0  0  0
  128.3360  126.0130   73.2870 O   0  0  0  0  0  0  0  0  0  0  0  0
  128.6880  125.7870   71.9700 C   0  0  0  0  0  0  0  0  0  0  0  0
  129.4710  124.6610   71.7190 C   0  0  0  0  0  0  0  0  0  0  0  0
  129.8770  124.3510   70.4240 C   0  0  0  0  0  0  0  0  0  0  0  0
  129.5060  125.1810   69.3570 C   0  0  0  0  0  0  0  0  0  0  0  0
  129.8520  124.9400   68.0140 N   0  0  0  0  0  0  0  0  0  0  0  0
  129.2680  125.4180   66.8950 C   0  0  0  0  0  0  0  0  0  0  0  0
  128.2620  126.1300   66.8780 O   0  0  0  0  0  0  0  0  0  0  0  0
  129.9290  124.9750   65.5810 C   0  0  0  0  0  0  0  0  0  0  0  0
  130.1370  123.1720   65.3740 S   0  0  0  0  0  0  0  0  0  0  0  0
  130.9020  122.8390   63.7920 C   0  0  0  0  0  0  0  0  0  0  0  0
  130.1420  122.1450   62.9060 N   0  0  0  0  0  0  0  0  0  0  0  0
  130.6600  121.8490   61.6940 C   0  0  0  0  0  0  0  0  0  0  0  0
  129.7560  121.0580   60.7680 C   0  0  0  0  0  0  0  0  0  0  0  0
  131.9410  122.2360   61.3090 C   0  0  0  0  0  0  0  0  0  0  0  0
  132.7410  122.9600   62.2050 C   0  0  0  0  0  0  0  0  0  0  0  0
  134.1560  123.3820   61.7640 C   0  0  0  0  0  0  0  0  0  0  0  0
  135.0590  122.5300   62.2510 F   0  0  0  0  0  0  0  0  0  0  0  0
  134.2390  123.3870   60.4330 F   0  0  0  0  0  0  0  0  0  0  0  0
  134.4860  124.6040   62.1910 F   0  0  0  0  0  0  0  0  0  0  0  0
  132.2130  123.2730   63.4830 C   0  0  0  0  0  0  0  0  0  0  0  0
  133.0060  124.0260   64.4610 C   0  0  0  0  0  0  0  0  0  0  0  0
  133.6310  124.6210   65.2310 N   0  0  0  0  0  0  0  0  0  0  0  0
  128.7090  126.3010   69.6000 C   0  0  0  0  0  0  0  0  0  0  0  0
  128.3050  126.6070   70.8960 C   0  0  0  0  0  0  0  0  0  0  0  0
  127.1575  127.0089   74.6659 H   0  0  0  0  0  0  0  0  0  0  0  0
  127.4961  127.8987   73.1427 H   0  0  0  0  0  0  0  0  0  0  0  0
  126.3367  126.5267   73.1427 H   0  0  0  0  0  0  0  0  0  0  0  0
  129.7713  124.0103   72.5535 H   0  0  0  0  0  0  0  0  0  0  0  0
  130.4883  123.4556   70.2382 H   0  0  0  0  0  0  0  0  0  0  0  0
  130.5980  124.2720   67.8850 H   0  0  0  0  0  0  0  0  0  0  0  0
  129.3097  125.3424   64.7494 H   0  0  0  0  0  0  0  0  0  0  0  0
  130.9450  125.3963   65.5971 H   0  0  0  0  0  0  0  0  0  0  0  0
  129.0609  120.4498   61.3655 H   0  0  0  0  0  0  0  0  0  0  0  0
  129.1843  121.7512   60.1335 H   0  0  0  0  0  0  0  0  0  0  0  0
  130.3671  120.3993   60.1335 H   0  0  0  0  0  0  0  0  0  0  0  0
  132.3223  121.9761   60.3105 H   0  0  0  0  0  0  0  0  0  0  0  0
  128.3990  126.9444   68.7634 H   0  0  0  0  0  0  0  0  0  0  0  0
  127.6828  127.4952   71.0801 H   0  0  0  0  0  0  0  0  0  0  0  0
  1  2  1  0
  2  3  1  0
  3  4  2  0
  4  5  1  0
  5  6  2  0
  6  7  1  0
  7  8  1  0
  8  9  2  0
  8 10  1  0
 10 11  1  0
 11 12  1  0
 12 13  2  0
 13 14  1  0
 14 15  1  0
 14 16  2  0
 16 17  1  0
 17 18  1  0
 18 19  1  0
 18 20  1  0
 18 21  1  0
 17 22  2  0
 22 23  1  0
 23 24  3  0
  6 25  1  0
 25 26  2  0
 26  3  1  0
 22 12  1  0
  1 27  1  0
  1 28  1  0
  1 29  1  0
  4 30  1  0
  5 31  1  0
  7 32  1  0
 10 33  1  0
 10 34  1  0
 15 35  1  0
 15 36  1  0
 15 37  1  0
 16 38  1  0
 25 39  1  0
 26 40  1  0
M  END
>  <Binding energies>  (1) 
[-7.12]

>  <Ligand effiencies>  (1) 
[-0.2637037037037037]

>  <Interactions>  (1) 
["V-B:GLU:543:CA:9876, V-A:HIS:456:CD2:4068, V-A:ASP:366:CG:3213, V-B:TYR:539:CD2:9846, V-A:LEU:475:CD1:4258, V-B:GLU:543:CB:9878, H-A:TYR:484:OH:4348, V-A:TYR:484:CZ:4347, V-B:GLU:543:C:9874, V-A:TYR:484:CE1:4345, V-B:HIS:456:CE1:9040, V-B:TYR:539:CE2:9848, V-A:HIS:456:CE1:4069, V-A:ARG:545:CZ:4926, V-B:ALA:541:CB:9864, H-B:LYS:547:NZ:9923, V-A:ILE:369:CD1:3239, V-A:GLY:453:CA:4044, V-A:GLY:454:CA:4049, V-A:GLY:453:C:4042, V-A:ILE:369:CB:3236, V-A:ILE:369:CG2:3237, H-A:GLY:454:N:4050, H-B:GLU:543:O:9875, V-A:HIS:456:CG:4066, H-A:HIS:456:ND1:4067"]

$$$$
2d_Ghoteimi_2023
     RDKit          3D

 68 72  0  0  0  0  0  0  0  0999 V2000
  123.8980  131.3810   58.9350 C   0  0  0  0  0  0  0  0  0  0  0  0
  124.1500  132.4830   59.7940 O   0  0  0  0  0  0  0  0  0  0  0  0
  123.9390  132.3790   61.1220 C   0  0  0  0  0  0  0  0  0  0  0  0
  123.8420  133.3260   61.9080 O   0  0  0  0  0  0  0  0  0  0  0  0
  123.8240  130.9100   61.5560 C   0  0  0  0  0  0  0  0  0  0  0  0
  123.8680  130.7520   63.3740 S   0  0  0  0  0  0  0  0  0  0  0  0
  125.4820  130.1640   63.8450 C   0  0  0  0  0  0  0  0  0  0  0  0
  126.4230  130.3590   62.8890 N   0  0  0  0  0  0  0  0  0  0  0  0
  127.6980  129.9520   63.1100 C   0  0  0  0  0  0  0  0  0  0  0  0
  128.6760  130.1830   62.0040 C   0  0  0  0  0  0  0  0  0  0  0  0
  129.5320  129.1600   61.5840 C   0  0  0  0  0  0  0  0  0  0  0  0
  130.4450  129.3680   60.5530 C   0  0  0  0  0  0  0  0  0  0  0  0
  130.5270  130.6060   59.8980 C   0  0  0  0  0  0  0  0  0  0  0  0
  131.4520  130.8380   58.8730 N   0  0  0  0  0  0  0  0  0  0  0  0
  132.4560  129.8240   58.4940 C   0  0  0  0  0  0  0  0  0  0  0  0
  133.6030  130.3830   57.6280 C   0  0  0  0  0  0  0  0  0  0  0  0
  133.0730  131.0230   56.4780 O   0  0  0  0  0  0  0  0  0  0  0  0
  132.2260  132.1050   56.8270 C   0  0  0  0  0  0  0  0  0  0  0  0
  131.0400  131.5990   57.6750 C   0  0  0  0  0  0  0  0  0  0  0  0
  129.6770  131.6330   60.3310 C   0  0  0  0  0  0  0  0  0  0  0  0
  128.7660  131.4250   61.3630 C   0  0  0  0  0  0  0  0  0  0  0  0
  128.0610  129.3390   64.3120 C   0  0  0  0  0  0  0  0  0  0  0  0
  127.1160  129.1560   65.3300 C   0  0  0  0  0  0  0  0  0  0  0  0
  127.5820  128.5190   66.5980 C   0  0  0  0  0  0  0  0  0  0  0  0
  126.8600  127.4650   67.1600 C   0  0  0  0  0  0  0  0  0  0  0  0
  127.2920  126.8560   68.3350 C   0  0  0  0  0  0  0  0  0  0  0  0
  128.4600  127.2880   68.9840 C   0  0  0  0  0  0  0  0  0  0  0  0
  128.9190  126.6840   70.1570 N   0  0  0  0  0  0  0  0  0  0  0  0
  129.1390  125.2260   70.2370 C   0  0  0  0  0  0  0  0  0  0  0  0
  129.9730  124.7960   71.4620 C   0  0  0  0  0  0  0  0  0  0  0  0
  129.3760  125.2840   72.6530 O   0  0  0  0  0  0  0  0  0  0  0  0
  129.2900  126.7010   72.6530 C   0  0  0  0  0  0  0  0  0  0  0  0
  128.4350  127.1790   71.4600 C   0  0  0  0  0  0  0  0  0  0  0  0
  129.1880  128.3360   68.4030 C   0  0  0  0  0  0  0  0  0  0  0  0
  128.7560  128.9430   67.2270 C   0  0  0  0  0  0  0  0  0  0  0  0
  125.7850  129.5850   65.0990 C   0  0  0  0  0  0  0  0  0  0  0  0
  124.7640  129.4330   66.1400 C   0  0  0  0  0  0  0  0  0  0  0  0
  123.9610  129.3120   66.9650 N   0  0  0  0  0  0  0  0  0  0  0  0
  123.6930  130.4847   59.5389 H   0  0  0  0  0  0  0  0  0  0  0  0
  123.0273  131.6025   58.3003 H   0  0  0  0  0  0  0  0  0  0  0  0
  124.7784  131.2020   58.3003 H   0  0  0  0  0  0  0  0  0  0  0  0
  122.8741  130.4993   61.1832 H   0  0  0  0  0  0  0  0  0  0  0  0
  124.6774  130.3560   61.1380 H   0  0  0  0  0  0  0  0  0  0  0  0
  129.4835  128.1769   62.0750 H   0  0  0  0  0  0  0  0  0  0  0  0
  131.1123  128.5487   60.2474 H   0  0  0  0  0  0  0  0  0  0  0  0
  132.8884  129.4024   59.4134 H   0  0  0  0  0  0  0  0  0  0  0  0
  131.9361  129.0660   57.8897 H   0  0  0  0  0  0  0  0  0  0  0  0
  134.1823  131.1104   58.2156 H   0  0  0  0  0  0  0  0  0  0  0  0
  134.2552  129.5551   57.3131 H   0  0  0  0  0  0  0  0  0  0  0  0
  132.7992  132.8431   57.4072 H   0  0  0  0  0  0  0  0  0  0  0  0
  131.8389  132.5696   55.9082 H   0  0  0  0  0  0  0  0  0  0  0  0
  130.4497  132.4680   58.0010 H   0  0  0  0  0  0  0  0  0  0  0  0
  130.4592  130.9131   57.0408 H   0  0  0  0  0  0  0  0  0  0  0  0
  129.7306  132.6196   59.8474 H   0  0  0  0  0  0  0  0  0  0  0  0
  128.1077  132.2476   61.6794 H   0  0  0  0  0  0  0  0  0  0  0  0
  129.0962  128.9976   64.4601 H   0  0  0  0  0  0  0  0  0  0  0  0
  125.9407  127.1121   66.6698 H   0  0  0  0  0  0  0  0  0  0  0  0
  126.7105  126.0251   68.7609 H   0  0  0  0  0  0  0  0  0  0  0  0
  128.1594  124.7284   70.2906 H   0  0  0  0  0  0  0  0  0  0  0  0
  129.7063  124.9346   69.3407 H   0  0  0  0  0  0  0  0  0  0  0  0
  130.0209  123.6978   71.5024 H   0  0  0  0  0  0  0  0  0  0  0  0
  130.9875  125.2114   71.3710 H   0  0  0  0  0  0  0  0  0  0  0  0
  128.8257  127.0376   73.5917 H   0  0  0  0  0  0  0  0  0  0  0  0
  130.3016  127.1237   72.5640 H   0  0  0  0  0  0  0  0  0  0  0  0
  127.4037  126.8254   71.6062 H   0  0  0  0  0  0  0  0  0  0  0  0
  128.4982  128.2769   71.4343 H   0  0  0  0  0  0  0  0  0  0  0  0
  130.1143  128.6838   68.8836 H   0  0  0  0  0  0  0  0  0  0  0  0
  129.3436  129.7633   66.7890 H   0  0  0  0  0  0  0  0  0  0  0  0
  1  2  1  0
  2  3  1  0
  3  4  2  0
  3  5  1  0
  5  6  1  0
  6  7  1  0
  7  8  2  0
  8  9  1  0
  9 10  1  0
 10 11  2  0
 11 12  1  0
 12 13  2  0
 13 14  1  0
 14 15  1  0
 15 16  1  0
 16 17  1  0
 17 18  1  0
 18 19  1  0
 13 20  1  0
 20 21  2  0
  9 22  2  0
 22 23  1  0
 23 24  1  0
 24 25  2  0
 25 26  1  0
 26 27  2  0
 27 28  1  0
 28 29  1  0
 29 30  1  0
 30 31  1  0
 31 32  1  0
 32 33  1  0
 27 34  1  0
 34 35  2  0
 23 36  2  0
 36 37  1  0
 37 38  3  0
 36  7  1  0
 21 10  1  0
 35 24  1  0
 19 14  1  0
 33 28  1  0
  1 39  1  0
  1 40  1  0
  1 41  1  0
  5 42  1  0
  5 43  1  0
 11 44  1  0
 12 45  1  0
 15 46  1  0
 15 47  1  0
 16 48  1  0
 16 49  1  0
 18 50  1  0
 18 51  1  0
 19 52  1  0
 19 53  1  0
 20 54  1  0
 21 55  1  0
 22 56  1  0
 25 57  1  0
 26 58  1  0
 29 59  1  0
 29 60  1  0
 30 61  1  0
 30 62  1  0
 32 63  1  0
 32 64  1  0
 33 65  1  0
 33 66  1  0
 34 67  1  0
 35 68  1  0
M  END
>  <Binding energies>  (1) 
[-9.08]

>  <Ligand effiencies>  (1) 
[-0.23894736842105263]

>  <Interactions>  (1) 
["V-A:GLU:543:CD:4908, V-A:HIS:456:CD2:4068, V-A:ASP:366:CG:3213, V-B:GLU:543:CB:9878, V-B:GLU:543:C:9874, V-B:HIS:456:CE1:9040, V-A:HIS:456:CE1:4069, V-B:ARG:545:CD:9895, V-B:ARG:545:CZ:9898, H-B:TYR:484:OH:9319, V-B:ARG:545:CG:9894, V-A:PRO:540:CA:4883, V-A:TYR:539:CZ:4877, V-A:TYR:539:CE2:4876, V-A:GLU:543:CB:4906, V-A:PRO:540:CB:4885, H-B:LYS:547:NZ:9923, V-A:GLU:543:CG:4907, V-B:ILE:369:CG2:8208, V-B:ILE:369:CD1:8210, H-B:GLY:454:N:9021, H-B:ARG:545:NH2:9900, H-B:ARG:545:NE:9896, V-B:ASP:366:CG:8184, V-A:ASP:366:CB:3212, V-A:PRO:540:N:4884, V-B:ASP:366:CB:8183, V-A:LEU:363:CB:3187, V-A:LEU:363:CA:3185, V-A:HIS:456:CG:4066, V-A:PRO:540:CD:4887, V-A:LEU:363:CD1:3189, H-A:TYR:531:OH:4795, V-A:PRO:540:CG:4886"]

$$$$
2d_Grossjean_2025
     RDKit          3D

 36 37  0  0  0  0  0  0  0  0999 V2000
  129.2360  120.9840   60.9780 C   0  0  0  0  0  0  0  0  0  0  0  0
  130.2750  121.7270   61.7960 C   0  0  0  0  0  0  0  0  0  0  0  0
  131.5710  121.9220   61.3260 C   0  0  0  0  0  0  0  0  0  0  0  0
  132.4950  122.6200   62.1180 C   0  0  0  0  0  0  0  0  0  0  0  0
  133.9210  122.8340   61.5760 C   0  0  0  0  0  0  0  0  0  0  0  0
  134.7840  122.0710   62.2480 F   0  0  0  0  0  0  0  0  0  0  0  0
  133.9740  122.5080   60.2830 F   0  0  0  0  0  0  0  0  0  0  0  0
  134.3320  124.0980   61.6870 F   0  0  0  0  0  0  0  0  0  0  0  0
  132.0750  123.1010   63.3840 C   0  0  0  0  0  0  0  0  0  0  0  0
  132.9880  123.8760   64.2290 C   0  0  0  0  0  0  0  0  0  0  0  0
  133.7090  124.4890   64.8940 N   0  0  0  0  0  0  0  0  0  0  0  0
  130.7460  122.8340   63.7900 C   0  0  0  0  0  0  0  0  0  0  0  0
  130.0640  123.3370   65.3590 S   0  0  0  0  0  0  0  0  0  0  0  0
  130.0790  125.1580   65.4470 C   0  0  0  0  0  0  0  0  0  0  0  0
  129.4450  125.7010   66.7310 C   0  0  0  0  0  0  0  0  0  0  0  0
  128.6460  126.6350   66.6560 O   0  0  0  0  0  0  0  0  0  0  0  0
  129.8510  125.1120   67.8760 N   0  0  0  0  0  0  0  0  0  0  0  0
  129.4560  125.3790   69.2000 C   0  0  0  0  0  0  0  0  0  0  0  0
  129.8740  124.4560   70.1620 C   0  0  0  0  0  0  0  0  0  0  0  0
  129.5280  124.6300   71.4990 C   0  0  0  0  0  0  0  0  0  0  0  0
  128.7540  125.7250   71.8750 C   0  0  0  0  0  0  0  0  0  0  0  0
  128.3200  126.6450   70.9230 C   0  0  0  0  0  0  0  0  0  0  0  0
  128.6650  126.4740   69.5860 C   0  0  0  0  0  0  0  0  0  0  0  0
  129.8600  122.1770   63.0030 N   0  0  0  0  0  0  0  0  0  0  0  0
  128.5299  120.4791   61.6536 H   0  0  0  0  0  0  0  0  0  0  0  0
  128.6899  121.6976   60.3436 H   0  0  0  0  0  0  0  0  0  0  0  0
  129.7347  120.2365   60.3436 H   0  0  0  0  0  0  0  0  0  0  0  0
  131.8681  121.5318   60.3414 H   0  0  0  0  0  0  0  0  0  0  0  0
  131.1225  125.5026   65.3986 H   0  0  0  0  0  0  0  0  0  0  0  0
  129.4828  125.5329   64.6020 H   0  0  0  0  0  0  0  0  0  0  0  0
  130.5800  124.4190   67.7890 H   0  0  0  0  0  0  0  0  0  0  0  0
  130.4792  123.5880   69.8615 H   0  0  0  0  0  0  0  0  0  0  0  0
  129.8645  123.9057   72.2554 H   0  0  0  0  0  0  0  0  0  0  0  0
  128.4832  125.8646   72.9320 H   0  0  0  0  0  0  0  0  0  0  0  0
  127.7057  127.5050   71.2279 H   0  0  0  0  0  0  0  0  0  0  0  0
  128.3186  127.1958   68.8316 H   0  0  0  0  0  0  0  0  0  0  0  0
  1  2  1  0
  2  3  2  0
  3  4  1  0
  4  5  1  0
  5  6  1  0
  5  7  1  0
  5  8  1  0
  4  9  2  0
  9 10  1  0
 10 11  3  0
  9 12  1  0
 12 13  1  0
 13 14  1  0
 14 15  1  0
 15 16  2  0
 15 17  1  0
 17 18  1  0
 18 19  2  0
 19 20  1  0
 20 21  2  0
 21 22  1  0
 22 23  2  0
 12 24  2  0
 24  2  1  0
 23 18  1  0
  1 25  1  0
  1 26  1  0
  1 27  1  0
  3 28  1  0
 14 29  1  0
 14 30  1  0
 17 31  1  0
 19 32  1  0
 20 33  1  0
 21 34  1  0
 22 35  1  0
 23 36  1  0
M  END
>  <Binding energies>  (1) 
[-6.43]

>  <Ligand effiencies>  (1) 
[-0.2572]

>  <Interactions>  (1) 
["V-A:HIS:456:CD2:4068, V-A:ASP:366:CG:3213, V-B:TYR:539:CD2:9846, V-A:LEU:475:CD1:4258, V-B:GLU:543:CB:9878, H-A:TYR:484:OH:4348, V-A:TYR:484:CZ:4347, V-B:GLU:543:C:9874, V-A:TYR:484:CE1:4345, V-B:HIS:456:CE1:9040, V-A:HIS:456:CE1:4069, V-B:ALA:541:CB:9864, V-A:ILE:369:CD1:3239, V-A:GLY:454:CA:4049, V-A:GLY:453:C:4042, V-A:ILE:369:CB:3236, V-A:ILE:369:CG2:3237, H-A:GLY:454:N:4050, V-B:ALA:541:CA:9862, H-B:GLU:543:O:9875, V-A:HIS:456:CG:4066, V-A:ILE:369:CG1:3238, H-A:HIS:456:ND1:4067"]

$$$$
2e_Grossjean_2025
     RDKit          3D

 38 39  0  0  0  0  0  0  0  0999 V2000
  127.2180  130.5810   75.6250 C   0  0  0  0  0  0  0  0  0  0  0  0
  126.4640  129.3930   75.0580 C   0  0  0  0  0  0  0  0  0  0  0  0
  125.2240  129.0010   75.5690 C   0  0  0  0  0  0  0  0  0  0  0  0
  124.5840  127.9050   74.9890 C   0  0  0  0  0  0  0  0  0  0  0  0
  125.1910  127.2340   73.9250 C   0  0  0  0  0  0  0  0  0  0  0  0
  126.4390  127.6730   73.4680 C   0  0  0  0  0  0  0  0  0  0  0  0
  126.9850  126.9900   72.3680 N   0  0  0  0  0  0  0  0  0  0  0  0
  128.0850  127.3080   71.6510 C   0  0  0  0  0  0  0  0  0  0  0  0
  128.8480  128.2420   71.9050 O   0  0  0  0  0  0  0  0  0  0  0  0
  128.3440  126.4480   70.4110 C   0  0  0  0  0  0  0  0  0  0  0  0
  126.9390  126.4760   69.2520 S   0  0  0  0  0  0  0  0  0  0  0  0
  127.6430  126.8450   67.6600 C   0  0  0  0  0  0  0  0  0  0  0  0
  128.8180  126.2190   67.4040 N   0  0  0  0  0  0  0  0  0  0  0  0
  129.4450  126.4770   66.2340 C   0  0  0  0  0  0  0  0  0  0  0  0
  130.7530  125.7440   66.0110 C   0  0  0  0  0  0  0  0  0  0  0  0
  128.9350  127.3640   65.2860 C   0  0  0  0  0  0  0  0  0  0  0  0
  127.7250  128.0260   65.5410 C   0  0  0  0  0  0  0  0  0  0  0  0
  127.1850  129.0190   64.4940 C   0  0  0  0  0  0  0  0  0  0  0  0
  127.8780  128.9110   63.3600 F   0  0  0  0  0  0  0  0  0  0  0  0
  125.9010  128.7630   64.2430 F   0  0  0  0  0  0  0  0  0  0  0  0
  127.2710  130.2890   64.8970 F   0  0  0  0  0  0  0  0  0  0  0  0
  127.0530  127.7620   66.7610 C   0  0  0  0  0  0  0  0  0  0  0  0
  125.8000  128.4440   67.0990 C   0  0  0  0  0  0  0  0  0  0  0  0
  124.8110  128.9840   67.3660 N   0  0  0  0  0  0  0  0  0  0  0  0
  127.0680  128.7500   74.0250 N   0  0  0  0  0  0  0  0  0  0  0  0
  127.1925  130.5409   76.7240 H   0  0  0  0  0  0  0  0  0  0  0  0
  128.2624  130.5505   75.2811 H   0  0  0  0  0  0  0  0  0  0  0  0
  126.7458  131.5131   75.2811 H   0  0  0  0  0  0  0  0  0  0  0  0
  124.7635  129.5432   76.4081 H   0  0  0  0  0  0  0  0  0  0  0  0
  123.6067  127.5713   75.3677 H   0  0  0  0  0  0  0  0  0  0  0  0
  124.6954  126.3729   73.4530 H   0  0  0  0  0  0  0  0  0  0  0  0
  126.5070  126.1370   72.1170 H   0  0  0  0  0  0  0  0  0  0  0  0
  129.2372  126.8297   69.8949 H   0  0  0  0  0  0  0  0  0  0  0  0
  128.4884  125.4094   70.7433 H   0  0  0  0  0  0  0  0  0  0  0  0
  131.2025  125.4921   66.9829 H   0  0  0  0  0  0  0  0  0  0  0  0
  130.5638  124.8205   65.4442 H   0  0  0  0  0  0  0  0  0  0  0  0
  131.4419  126.3875   65.4442 H   0  0  0  0  0  0  0  0  0  0  0  0
  129.4774  127.5429   64.3459 H   0  0  0  0  0  0  0  0  0  0  0  0
  1  2  1  0
  2  3  2  0
  3  4  1  0
  4  5  2  0
  5  6  1  0
  6  7  1  0
  7  8  1  0
  8  9  2  0
  8 10  1  0
 10 11  1  0
 11 12  1  0
 12 13  2  0
 13 14  1  0
 14 15  1  0
 14 16  2  0
 16 17  1  0
 17 18  1  0
 18 19  1  0
 18 20  1  0
 18 21  1  0
 17 22  2  0
 22 23  1  0
 23 24  3  0
  6 25  2  0
 25  2  1  0
 22 12  1  0
  1 26  1  0
  1 27  1  0
  1 28  1  0
  3 29  1  0
  4 30  1  0
  5 31  1  0
  7 32  1  0
 10 33  1  0
 10 34  1  0
 15 35  1  0
 15 36  1  0
 15 37  1  0
 16 38  1  0
M  END
>  <Binding energies>  (1) 
[-6.44]

>  <Ligand effiencies>  (1) 
[-0.2476923076923077]

>  <Interactions>  (1) 
["V-A:GLU:543:CD:4908, V-B:GLU:543:CD:9880, V-B:GLU:543:CB:9878, H-B:HIS:456:NE2:9041, V-B:HIS:456:CE1:9040, V-A:HIS:456:CE1:4069, V-B:ARG:545:CD:9895, V-B:ARG:545:CZ:9898, H-B:TYR:484:OH:9319, V-B:ARG:545:CG:9894, H-B:ARG:545:N:9892, V-B:GLY:544:C:9884, H-B:ARG:545:NE:9896, V-B:HIS:456:CD2:9039, V-B:HIS:456:CG:9037, V-B:HIS:456:CB:9036, H-B:GLY:544:O:9885, V-B:VAL:458:CG2:9058, V-B:LYS:471:CE:9191, V-B:VAL:457:C:9044, V-B:HIS:456:C:9032"]

$$$$
2f_Grossjean_2025
     RDKit          3D

 35 36  0  0  0  0  0  0  0  0999 V2000
  127.8760  130.4970   64.5900 C   0  0  0  0  0  0  0  0  0  0  0  0
  128.3440  129.1750   65.1700 C   0  0  0  0  0  0  0  0  0  0  0  0
  128.5860  128.0680   64.3610 C   0  0  0  0  0  0  0  0  0  0  0  0
  129.0110  126.8650   64.9460 C   0  0  0  0  0  0  0  0  0  0  0  0
  129.2620  125.6480   64.0360 C   0  0  0  0  0  0  0  0  0  0  0  0
  128.6950  125.8430   62.8430 F   0  0  0  0  0  0  0  0  0  0  0  0
  130.5720  125.4680   63.8670 F   0  0  0  0  0  0  0  0  0  0  0  0
  128.7610  124.5160   64.5350 F   0  0  0  0  0  0  0  0  0  0  0  0
  129.1870  126.8200   66.3530 C   0  0  0  0  0  0  0  0  0  0  0  0
  129.5730  125.5730   67.0170 C   0  0  0  0  0  0  0  0  0  0  0  0
  129.8800  124.5870   67.5410 N   0  0  0  0  0  0  0  0  0  0  0  0
  128.9420  128.0030   67.0920 C   0  0  0  0  0  0  0  0  0  0  0  0
  129.1230  128.1310   68.8600 S   0  0  0  0  0  0  0  0  0  0  0  0
  127.9840  126.9340   69.6340 C   0  0  0  0  0  0  0  0  0  0  0  0
  128.5710  126.1440   70.8130 C   0  0  0  0  0  0  0  0  0  0  0  0
  128.6000  126.6330   71.9440 O   0  0  0  0  0  0  0  0  0  0  0  0
  129.0480  124.9230   70.4880 N   0  0  0  0  0  0  0  0  0  0  0  0
  129.6360  123.9440   71.3100 C   0  0  0  0  0  0  0  0  0  0  0  0
  130.7220  124.1540   72.1810 C   0  0  0  0  0  0  0  0  0  0  0  0
  131.2070  123.0930   72.9480 C   0  0  0  0  0  0  0  0  0  0  0  0
  130.5920  121.8470   72.8290 C   0  0  0  0  0  0  0  0  0  0  0  0
  129.5390  121.6200   72.0040 N   0  0  0  0  0  0  0  0  0  0  0  0
  129.0780  122.6620   71.2650 C   0  0  0  0  0  0  0  0  0  0  0  0
  128.5110  129.1490   66.5120 N   0  0  0  0  0  0  0  0  0  0  0  0
  127.6307  131.1900   65.4082 H   0  0  0  0  0  0  0  0  0  0  0  0
  128.6757  130.9293   63.9707 H   0  0  0  0  0  0  0  0  0  0  0  0
  126.9824  130.3299   63.9707 H   0  0  0  0  0  0  0  0  0  0  0  0
  128.4453  128.1357   63.2721 H   0  0  0  0  0  0  0  0  0  0  0  0
  127.1051  127.4863   69.9979 H   0  0  0  0  0  0  0  0  0  0  0  0
  127.7451  126.1925   68.8574 H   0  0  0  0  0  0  0  0  0  0  0  0
  129.0120  124.6770   69.5090 H   0  0  0  0  0  0  0  0  0  0  0  0
  131.1858  125.1485   72.2568 H   0  0  0  0  0  0  0  0  0  0  0  0
  132.0565  123.2368   73.6319 H   0  0  0  0  0  0  0  0  0  0  0  0
  130.9778  121.0110   73.4308 H   0  0  0  0  0  0  0  0  0  0  0  0
  128.2217  122.4890   70.5966 H   0  0  0  0  0  0  0  0  0  0  0  0
  1  2  1  0
  2  3  2  0
  3  4  1  0
  4  5  1  0
  5  6  1  0
  5  7  1  0
  5  8  1  0
  4  9  2  0
  9 10  1  0
 10 11  3  0
  9 12  1  0
 12 13  1  0
 13 14  1  0
 14 15  1  0
 15 16  2  0
 15 17  1  0
 17 18  1  0
 18 19  2  0
 19 20  1  0
 20 21  2  0
 21 22  1  0
 22 23  2  0
 12 24  2  0
 24  2  1  0
 23 18  1  0
  1 25  1  0
  1 26  1  0
  1 27  1  0
  3 28  1  0
 14 29  1  0
 14 30  1  0
 17 31  1  0
 19 32  1  0
 20 33  1  0
 21 34  1  0
 23 35  1  0
M  END
>  <Binding energies>  (1) 
[-5.91]

>  <Ligand effiencies>  (1) 
[-0.2364]

>  <Interactions>  (1) 
["H-A:HIS:456:NE2:4070, V-B:GLU:543:CA:9876, V-A:GLU:543:CD:4908, V-A:HIS:456:CD2:4068, V-B:GLU:543:CD:9880, V-B:GLU:543:CB:9878, H-B:HIS:456:NE2:9041, H-A:TYR:484:OH:4348, V-B:GLU:543:C:9874, V-A:TYR:484:CE1:4345, V-B:HIS:456:CE1:9040, V-A:HIS:456:CE1:4069, V-B:GLU:543:CG:9879, V-A:GLU:543:CB:4906, H-B:LYS:547:NZ:9923, V-A:GLU:543:CG:4907, H-B:GLU:543:O:9875, V-A:TYR:484:CG:4342, V-A:HIS:456:CG:4066, V-A:TYR:484:CD1:4343, V-A:TYR:484:CD2:4344, V-B:GLY:544:CA:9886, V-A:HIS:456:CB:4065, V-B:LYS:547:CE:9922, V-A:ASP:473:CB:4239, V-A:TYR:484:CB:4341"]

$$$$
2g_Grossjean_2025
     RDKit          3D

 39 40  0  0  0  0  0  0  0  0999 V2000
  128.4970  126.8130   62.1170 C   0  0  0  0  0  0  0  0  0  0  0  0
  128.6790  127.1210   63.5910 C   0  0  0  0  0  0  0  0  0  0  0  0
  128.0730  128.2250   64.1860 C   0  0  0  0  0  0  0  0  0  0  0  0
  128.2780  128.4720   65.5520 C   0  0  0  0  0  0  0  0  0  0  0  0
  127.6070  129.7040   66.1900 C   0  0  0  0  0  0  0  0  0  0  0  0
  127.3520  130.6260   65.2600 F   0  0  0  0  0  0  0  0  0  0  0  0
  126.4600  129.3450   66.7680 F   0  0  0  0  0  0  0  0  0  0  0  0
  128.3660  130.2800   67.1250 F   0  0  0  0  0  0  0  0  0  0  0  0
  129.0950  127.5770   66.2880 C   0  0  0  0  0  0  0  0  0  0  0  0
  129.3880  127.8200   67.7040 C   0  0  0  0  0  0  0  0  0  0  0  0
  129.6180  128.0130   68.8210 N   0  0  0  0  0  0  0  0  0  0  0  0
  129.6450  126.4640   65.6060 C   0  0  0  0  0  0  0  0  0  0  0  0
  130.6700  125.2320   66.3810 S   0  0  0  0  0  0  0  0  0  0  0  0
  132.4050  125.6270   65.9740 C   0  0  0  0  0  0  0  0  0  0  0  0
  132.8600  125.1590   64.5850 C   0  0  0  0  0  0  0  0  0  0  0  0
  133.7300  124.2960   64.4510 O   0  0  0  0  0  0  0  0  0  0  0  0
  132.2510  125.7580   63.5450 N   0  0  0  0  0  0  0  0  0  0  0  0
  132.5090  125.4750   62.1320 C   0  0  0  0  0  0  0  0  0  0  0  0
  132.4800  123.9930   61.7720 C   0  0  0  0  0  0  0  0  0  0  0  0
  133.6450  123.3640   61.3210 C   0  0  0  0  0  0  0  0  0  0  0  0
  133.6300  122.0020   61.0280 C   0  0  0  0  0  0  0  0  0  0  0  0
  132.4560  121.2730   61.1960 C   0  0  0  0  0  0  0  0  0  0  0  0
  131.2950  121.8920   61.6570 C   0  0  0  0  0  0  0  0  0  0  0  0
  131.3090  123.2520   61.9510 C   0  0  0  0  0  0  0  0  0  0  0  0
  129.4550  126.2540   64.2800 N   0  0  0  0  0  0  0  0  0  0  0  0
  127.9403  125.8709   62.0053 H   0  0  0  0  0  0  0  0  0  0  0  0
  127.9361  127.6293   61.6384 H   0  0  0  0  0  0  0  0  0  0  0  0
  129.4826  126.7155   61.6384 H   0  0  0  0  0  0  0  0  0  0  0  0
  127.4389  128.8978   63.5899 H   0  0  0  0  0  0  0  0  0  0  0  0
  132.5291  126.7188   66.0255 H   0  0  0  0  0  0  0  0  0  0  0  0
  133.0262  125.0862   66.7032 H   0  0  0  0  0  0  0  0  0  0  0  0
  131.5300  126.4380   63.7360 H   0  0  0  0  0  0  0  0  0  0  0  0
  131.7439  125.9900   61.5325 H   0  0  0  0  0  0  0  0  0  0  0  0
  133.5286  125.8300   61.9212 H   0  0  0  0  0  0  0  0  0  0  0  0
  134.5717  123.9438   61.1978 H   0  0  0  0  0  0  0  0  0  0  0  0
  134.5418  121.5049   60.6655 H   0  0  0  0  0  0  0  0  0  0  0  0
  132.4443  120.1981   60.9627 H   0  0  0  0  0  0  0  0  0  0  0  0
  130.3721  121.3079   61.7877 H   0  0  0  0  0  0  0  0  0  0  0  0
  130.3985  123.7436   62.3242 H   0  0  0  0  0  0  0  0  0  0  0  0
  1  2  1  0
  2  3  2  0
  3  4  1  0
  4  5  1  0
  5  6  1  0
  5  7  1  0
  5  8  1  0
  4  9  2  0
  9 10  1  0
 10 11  3  0
  9 12  1  0
 12 13  1  0
 13 14  1  0
 14 15  1  0
 15 16  2  0
 15 17  1  0
 17 18  1  0
 18 19  1  0
 19 20  2  0
 20 21  1  0
 21 22  2  0
 22 23  1  0
 23 24  2  0
 12 25  2  0
 25  2  1  0
 24 19  1  0
  1 26  1  0
  1 27  1  0
  1 28  1  0
  3 29  1  0
 14 30  1  0
 14 31  1  0
 17 32  1  0
 18 33  1  0
 18 34  1  0
 20 35  1  0
 21 36  1  0
 22 37  1  0
 23 38  1  0
 24 39  1  0
M  END
>  <Binding energies>  (1) 
[-5.67]

>  <Ligand effiencies>  (1) 
[-0.21807692307692308]

>  <Interactions>  (1) 
["H-A:HIS:456:NE2:4070, V-A:GLU:543:CD:4908, V-B:GLU:543:CD:9880, V-A:ASP:366:CG:3213, V-A:LEU:475:CD1:4258, H-A:TYR:484:OH:4348, V-B:HIS:456:CE1:9040, V-A:HIS:456:CE1:4069, V-A:GLU:543:CB:4906, V-A:ARG:545:CZ:4926, V-A:GLU:543:CG:4907, V-B:TYR:484:CE1:9316, V-B:TYR:484:CZ:9318, V-A:ILE:369:CD1:3239, V-A:ILE:369:CG2:3237, H-A:GLY:454:N:4050, H-A:GLU:543:OE1:4909, H-A:GLU:543:OE2:4910, V-A:GLU:543:CA:4904"]

$$$$
2h_Grossjean_2025
     RDKit          3D

 51 52  0  0  0  0  0  0  0  0999 V2000
  132.8200  126.6170   74.2550 C   0  0  0  0  0  0  0  0  0  0  0  0
  131.4260  126.8490   74.4220 O   0  0  0  0  0  0  0  0  0  0  0  0
  130.5820  126.7270   73.3320 C   0  0  0  0  0  0  0  0  0  0  0  0
  130.1830  127.8050   72.5260 C   0  0  0  0  0  0  0  0  0  0  0  0
  129.3360  127.6030   71.4390 C   0  0  0  0  0  0  0  0  0  0  0  0
  128.8690  126.3240   71.1320 C   0  0  0  0  0  0  0  0  0  0  0  0
  127.9580  126.1240   69.9230 C   0  0  0  0  0  0  0  0  0  0  0  0
  128.6830  125.9670   68.6610 N   0  0  0  0  0  0  0  0  0  0  0  0
  129.4990  126.8890   68.1220 C   0  0  0  0  0  0  0  0  0  0  0  0
  129.6590  128.0130   68.6020 O   0  0  0  0  0  0  0  0  0  0  0  0
  130.2430  126.4530   66.8520 C   0  0  0  0  0  0  0  0  0  0  0  0
  130.2350  124.6570   66.5320 S   0  0  0  0  0  0  0  0  0  0  0  0
  130.6400  124.4400   64.8120 C   0  0  0  0  0  0  0  0  0  0  0  0
  129.5550  124.3280   64.0060 N   0  0  0  0  0  0  0  0  0  0  0  0
  129.7480  124.1400   62.6820 C   0  0  0  0  0  0  0  0  0  0  0  0
  128.4900  124.0160   61.8430 C   0  0  0  0  0  0  0  0  0  0  0  0
  131.0170  124.0630   62.1100 C   0  0  0  0  0  0  0  0  0  0  0  0
  132.1510  124.1970   62.9250 C   0  0  0  0  0  0  0  0  0  0  0  0
  133.5450  124.1180   62.2740 C   0  0  0  0  0  0  0  0  0  0  0  0
  134.1350  122.9680   62.6000 F   0  0  0  0  0  0  0  0  0  0  0  0
  133.4960  124.1790   60.9410 F   0  0  0  0  0  0  0  0  0  0  0  0
  134.3060  125.1290   62.6950 F   0  0  0  0  0  0  0  0  0  0  0  0
  131.9650  124.4020   64.3170 C   0  0  0  0  0  0  0  0  0  0  0  0
  133.1150  124.6070   65.2010 C   0  0  0  0  0  0  0  0  0  0  0  0
  134.0240  124.7710   65.8970 N   0  0  0  0  0  0  0  0  0  0  0  0
  129.2410  125.2410   71.9430 C   0  0  0  0  0  0  0  0  0  0  0  0
  128.7830  123.9780   71.6500 O   0  0  0  0  0  0  0  0  0  0  0  0
  129.6820  123.1940   70.8760 C   0  0  0  0  0  0  0  0  0  0  0  0
  130.1110  125.4440   73.0280 C   0  0  0  0  0  0  0  0  0  0  0  0
  130.4920  124.3820   73.8140 O   0  0  0  0  0  0  0  0  0  0  0  0
  131.6520  123.7040   73.3510 C   0  0  0  0  0  0  0  0  0  0  0  0
  133.2992  126.5372   75.2419 H   0  0  0  0  0  0  0  0  0  0  0  0
  132.9717  125.6813   73.6970 H   0  0  0  0  0  0  0  0  0  0  0  0
  133.2666  127.4532   73.6970 H   0  0  0  0  0  0  0  0  0  0  0  0
  130.5428  128.8189   72.7552 H   0  0  0  0  0  0  0  0  0  0  0  0
  129.0326  128.4583   70.8174 H   0  0  0  0  0  0  0  0  0  0  0  0
  127.3518  125.2214   70.0902 H   0  0  0  0  0  0  0  0  0  0  0  0
  127.3424  127.0309   69.8301 H   0  0  0  0  0  0  0  0  0  0  0  0
  128.6280  125.0560   68.2270 H   0  0  0  0  0  0  0  0  0  0  0  0
  129.7743  126.9548   65.9927 H   0  0  0  0  0  0  0  0  0  0  0  0
  131.2960  126.7341   67.0008 H   0  0  0  0  0  0  0  0  0  0  0  0
  127.6152  123.9298   62.5043 H   0  0  0  0  0  0  0  0  0  0  0  0
  128.3832  124.9080   61.2082 H   0  0  0  0  0  0  0  0  0  0  0  0
  128.5594  123.1203   61.2082 H   0  0  0  0  0  0  0  0  0  0  0  0
  131.1283  123.8985   61.0281 H   0  0  0  0  0  0  0  0  0  0  0  0
  130.3393  122.6208   71.5464 H   0  0  0  0  0  0  0  0  0  0  0  0
  129.1108  122.5004   70.2414 H   0  0  0  0  0  0  0  0  0  0  0  0
  130.2914  123.8543   70.2414 H   0  0  0  0  0  0  0  0  0  0  0  0
  132.2430  123.3586   74.2121 H   0  0  0  0  0  0  0  0  0  0  0  0
  131.3522  122.8389   72.7413 H   0  0  0  0  0  0  0  0  0  0  0  0
  132.2587  124.3897   72.7413 H   0  0  0  0  0  0  0  0  0  0  0  0
  1  2  1  0
  2  3  1  0
  3  4  2  0
  4  5  1  0
  5  6  2  0
  6  7  1  0
  7  8  1  0
  8  9  1  0
  9 10  2  0
  9 11  1  0
 11 12  1  0
 12 13  1  0
 13 14  2  0
 14 15  1  0
 15 16  1  0
 15 17  2  0
 17 18  1  0
 18 19  1  0
 19 20  1  0
 19 21  1  0
 19 22  1  0
 18 23  2  0
 23 24  1  0
 24 25  3  0
  6 26  1  0
 26 27  1  0
 27 28  1  0
 26 29  2  0
 29 30  1  0
 30 31  1  0
 29  3  1  0
 23 13  1  0
  1 32  1  0
  1 33  1  0
  1 34  1  0
  4 35  1  0
  5 36  1  0
  7 37  1  0
  7 38  1  0
  8 39  1  0
 11 40  1  0
 11 41  1  0
 16 42  1  0
 16 43  1  0
 16 44  1  0
 17 45  1  0
 28 46  1  0
 28 47  1  0
 28 48  1  0
 31 49  1  0
 31 50  1  0
 31 51  1  0
M  END
>  <Binding energies>  (1) 
[-6.79]

>  <Ligand effiencies>  (1) 
[-0.2121875]

>  <Interactions>  (1) 
["H-A:HIS:456:NE2:4070, V-A:GLU:543:CD:4908, V-A:HIS:456:CD2:4068, V-B:GLU:543:CD:9880, V-A:ASP:366:CG:3213, H-A:TYR:484:OH:4348, V-A:TYR:484:CZ:4347, V-B:GLU:543:C:9874, V-A:TYR:484:CE1:4345, V-B:HIS:456:CE1:9040, V-A:HIS:456:CE1:4069, V-B:GLU:543:CG:9879, V-A:ARG:545:CZ:4926, V-B:GLY:544:C:9884, H-B:LYS:547:NZ:9923, V-A:ILE:369:CD1:3239, V-A:GLY:453:CA:4044, V-A:GLY:454:CA:4049, V-A:GLY:453:C:4042, H-A:GLY:454:N:4050, H-A:ARG:545:NE:4924, H-B:GLU:543:O:9875, V-A:TYR:484:CG:4342, V-A:TYR:484:CE2:4346, V-A:HIS:456:CG:4066, V-A:TYR:484:CD1:4343, V-A:TYR:484:CD2:4344, V-A:HIS:456:CB:4065, H-A:LYS:547:NZ:4951, V-A:LYS:547:CE:4950, V-A:LYS:547:CD:4949"]

$$$$
2i_Grossjean_2025
     RDKit          3D

 32 33  0  0  0  0  0  0  0  0999 V2000
  127.9890  130.6610   65.5460 C   0  0  0  0  0  0  0  0  0  0  0  0
  128.4040  129.2800   66.0210 C   0  0  0  0  0  0  0  0  0  0  0  0
  128.6290  128.2380   65.1260 C   0  0  0  0  0  0  0  0  0  0  0  0
  129.0130  126.9810   65.6150 C   0  0  0  0  0  0  0  0  0  0  0  0
  129.2570  125.8380   64.6110 C   0  0  0  0  0  0  0  0  0  0  0  0
  128.6950  126.1340   63.4380 F   0  0  0  0  0  0  0  0  0  0  0  0
  130.5660  125.6580   64.4310 F   0  0  0  0  0  0  0  0  0  0  0  0
  128.7450  124.6740   65.0190 F   0  0  0  0  0  0  0  0  0  0  0  0
  129.1600  126.8150   67.0160 C   0  0  0  0  0  0  0  0  0  0  0  0
  129.5620  125.5220   67.5810 C   0  0  0  0  0  0  0  0  0  0  0  0
  129.8780  124.5030   68.0280 N   0  0  0  0  0  0  0  0  0  0  0  0
  128.9100  127.9270   67.8520 C   0  0  0  0  0  0  0  0  0  0  0  0
  129.0550  127.8340   69.6300 S   0  0  0  0  0  0  0  0  0  0  0  0
  127.8370  126.6270   70.2340 C   0  0  0  0  0  0  0  0  0  0  0  0
  128.4340  125.6700   71.2680 C   0  0  0  0  0  0  0  0  0  0  0  0
  128.3260  125.9390   72.4660 O   0  0  0  0  0  0  0  0  0  0  0  0
  129.0720  124.5890   70.7700 N   0  0  0  0  0  0  0  0  0  0  0  0
  129.7040  123.5940   71.4960 C   0  0  0  0  0  0  0  0  0  0  0  0
  130.9350  123.6090   72.1680 C   0  0  0  0  0  0  0  0  0  0  0  0
  131.0520  122.3520   72.7140 C   0  0  0  0  0  0  0  0  0  0  0  0
  129.9530  121.6270   72.3960 O   0  0  0  0  0  0  0  0  0  0  0  0
  129.1060  122.4300   71.6290 N   0  0  0  0  0  0  0  0  0  0  0  0
  128.5390  129.1360   67.3580 N   0  0  0  0  0  0  0  0  0  0  0  0
  127.7954  131.3053   66.4163 H   0  0  0  0  0  0  0  0  0  0  0  0
  128.7956  131.0976   64.9388 H   0  0  0  0  0  0  0  0  0  0  0  0
  127.0753  130.5807   64.9388 H   0  0  0  0  0  0  0  0  0  0  0  0
  128.5067  128.3991   64.0448 H   0  0  0  0  0  0  0  0  0  0  0  0
  126.9995  127.1701   70.6962 H   0  0  0  0  0  0  0  0  0  0  0  0
  127.5008  126.0282   69.3747 H   0  0  0  0  0  0  0  0  0  0  0  0
  129.1290  124.4990   69.7660 H   0  0  0  0  0  0  0  0  0  0  0  0
  131.6493  124.4422   72.2420 H   0  0  0  0  0  0  0  0  0  0  0  0
  131.9019  121.9930   73.3130 H   0  0  0  0  0  0  0  0  0  0  0  0
  1  2  1  0
  2  3  2  0
  3  4  1  0
  4  5  1  0
  5  6  1  0
  5  7  1  0
  5  8  1  0
  4  9  2  0
  9 10  1  0
 10 11  3  0
  9 12  1  0
 12 13  1  0
 13 14  1  0
 14 15  1  0
 15 16  2  0
 15 17  1  0
 17 18  1  0
 18 19  1  0
 19 20  2  0
 20 21  1  0
 21 22  1  0
 12 23  2  0
 23  2  1  0
 22 18  2  0
  1 24  1  0
  1 25  1  0
  1 26  1  0
  3 27  1  0
 14 28  1  0
 14 29  1  0
 17 30  1  0
 19 31  1  0
 20 32  1  0
M  END
>  <Binding energies>  (1) 
[-6.7]

>  <Ligand effiencies>  (1) 
[-0.2791666666666667]

>  <Interactions>  (1) 
["H-A:HIS:456:NE2:4070, V-B:GLU:543:CA:9876, V-A:GLU:543:CD:4908, V-A:HIS:456:CD2:4068, V-B:GLU:543:CD:9880, V-B:GLU:543:CB:9878, H-B:HIS:456:NE2:9041, H-A:TYR:484:OH:4348, V-B:GLU:543:C:9874, V-B:HIS:456:CE1:9040, V-A:HIS:456:CE1:4069, V-B:GLU:543:CG:9879, V-A:GLU:543:CB:4906, V-B:GLY:544:C:9884, H-B:LYS:547:NZ:9923, V-A:GLU:543:CG:4907, V-B:TYR:484:CE1:9316, V-B:TYR:484:CZ:9318, H-B:GLU:543:O:9875, V-A:TYR:484:CG:4342, V-A:TYR:484:CE2:4346, V-A:HIS:456:CG:4066, V-A:TYR:484:CD1:4343, V-A:TYR:484:CD2:4344, V-A:HIS:456:CB:4065, V-A:ASP:473:CB:4239, V-A:TYR:484:CB:4341"]

$$$$
2j_Grossjean_2025
     RDKit          3D

 32 33  0  0  0  0  0  0  0  0999 V2000
  127.9410  130.3150   65.5750 C   0  0  0  0  0  0  0  0  0  0  0  0
  128.3730  128.9700   66.1290 C   0  0  0  0  0  0  0  0  0  0  0  0
  128.6760  127.9000   65.2910 C   0  0  0  0  0  0  0  0  0  0  0  0
  129.0740  126.6760   65.8510 C   0  0  0  0  0  0  0  0  0  0  0  0
  129.4050  125.5030   64.9090 C   0  0  0  0  0  0  0  0  0  0  0  0
  128.7540  125.6470   63.7550 F   0  0  0  0  0  0  0  0  0  0  0  0
  130.7160  125.4690   64.6660 F   0  0  0  0  0  0  0  0  0  0  0  0
  129.0610  124.3190   65.4200 F   0  0  0  0  0  0  0  0  0  0  0  0
  129.1530  126.5720   67.2620 C   0  0  0  0  0  0  0  0  0  0  0  0
  129.5630  125.3180   67.9010 C   0  0  0  0  0  0  0  0  0  0  0  0
  129.8880  124.3270   68.4050 N   0  0  0  0  0  0  0  0  0  0  0  0
  128.8270  127.7110   68.0370 C   0  0  0  0  0  0  0  0  0  0  0  0
  128.8940  127.6940   69.8230 S   0  0  0  0  0  0  0  0  0  0  0  0
  127.8410  126.3300   70.4250 C   0  0  0  0  0  0  0  0  0  0  0  0
  128.4740  125.4640   71.5240 C   0  0  0  0  0  0  0  0  0  0  0  0
  128.3390  125.7580   72.7140 O   0  0  0  0  0  0  0  0  0  0  0  0
  129.1730  124.3980   71.0730 N   0  0  0  0  0  0  0  0  0  0  0  0
  129.8400  123.4560   71.8450 C   0  0  0  0  0  0  0  0  0  0  0  0
  129.5500  122.1820   71.9920 N   0  0  0  0  0  0  0  0  0  0  0  0
  130.4000  121.5800   72.8010 C   0  0  0  0  0  0  0  0  0  0  0  0
  131.4110  122.3750   73.3320 C   0  0  0  0  0  0  0  0  0  0  0  0
  131.2290  123.9970   72.7320 S   0  0  0  0  0  0  0  0  0  0  0  0
  128.4460  128.8860   67.4760 N   0  0  0  0  0  0  0  0  0  0  0  0
  127.7208  131.0005   66.4066 H   0  0  0  0  0  0  0  0  0  0  0  0
  128.7496  130.7344   64.9584 H   0  0  0  0  0  0  0  0  0  0  0  0
  127.0394  130.1851   64.9584 H   0  0  0  0  0  0  0  0  0  0  0  0
  128.6041  128.0130   64.1992 H   0  0  0  0  0  0  0  0  0  0  0  0
  126.9128  126.7649   70.8242 H   0  0  0  0  0  0  0  0  0  0  0  0
  127.6741  125.6651   69.5648 H   0  0  0  0  0  0  0  0  0  0  0  0
  129.2240  124.2630   70.0740 H   0  0  0  0  0  0  0  0  0  0  0  0
  130.3146  120.5102   73.0423 H   0  0  0  0  0  0  0  0  0  0  0  0
  132.1981  122.0328   74.0200 H   0  0  0  0  0  0  0  0  0  0  0  0
  1  2  1  0
  2  3  2  0
  3  4  1  0
  4  5  1  0
  5  6  1  0
  5  7  1  0
  5  8  1  0
  4  9  2  0
  9 10  1  0
 10 11  3  0
  9 12  1  0
 12 13  1  0
 13 14  1  0
 14 15  1  0
 15 16  2  0
 15 17  1  0
 17 18  1  0
 18 19  2  0
 19 20  1  0
 20 21  2  0
 21 22  1  0
 12 23  2  0
 23  2  1  0
 22 18  1  0
  1 24  1  0
  1 25  1  0
  1 26  1  0
  3 27  1  0
 14 28  1  0
 14 29  1  0
 17 30  1  0
 20 31  1  0
 21 32  1  0
M  END
>  <Binding energies>  (1) 
[-6.14]

>  <Ligand effiencies>  (1) 
[-0.2558333333333333]

>  <Interactions>  (1) 
["H-A:HIS:456:NE2:4070, V-B:GLU:543:CA:9876, V-A:GLU:543:CD:4908, V-A:HIS:456:CD2:4068, V-B:GLU:543:CD:9880, V-B:GLU:543:CB:9878, H-B:HIS:456:NE2:9041, H-A:TYR:484:OH:4348, V-A:TYR:484:CZ:4347, V-B:GLU:543:C:9874, V-A:TYR:484:CE1:4345, V-B:HIS:456:CE1:9040, V-A:HIS:456:CE1:4069, V-B:GLU:543:CG:9879, V-A:GLU:543:CB:4906, V-B:GLY:544:C:9884, H-B:LYS:547:NZ:9923, V-A:GLU:543:CG:4907, V-B:TYR:484:CE1:9316, V-B:TYR:484:CZ:9318, H-B:GLU:543:O:9875, V-A:TYR:484:CG:4342, V-A:HIS:456:CG:4066, V-A:TYR:484:CD1:4343, V-A:TYR:484:CD2:4344, V-A:HIS:456:CB:4065, V-A:ASP:473:CG:4240, V-A:ASP:473:CB:4239, V-A:TYR:484:CB:4341"]

$$$$
2k_Grossjean_2025
     RDKit          3D

 50 50  0  0  0  0  0  0  0  0999 V2000
  132.8310  131.3890   61.8450 C   0  0  0  0  0  0  0  0  0  0  0  0
  131.6410  131.9370   61.3010 O   0  0  0  0  0  0  0  0  0  0  0  0
  130.5720  131.0030   61.2210 C   0  0  0  0  0  0  0  0  0  0  0  0
  129.4060  131.4730   62.1010 C   0  0  0  0  0  0  0  0  0  0  0  0
  129.1750  132.8540   61.8640 O   0  0  0  0  0  0  0  0  0  0  0  0
  128.5430  133.1360   60.6220 C   0  0  0  0  0  0  0  0  0  0  0  0
  127.0280  133.1990   60.8510 C   0  0  0  0  0  0  0  0  0  0  0  0
  126.5470  131.8680   60.9480 O   0  0  0  0  0  0  0  0  0  0  0  0
  125.7750  131.5870   62.1060 C   0  0  0  0  0  0  0  0  0  0  0  0
  125.5610  130.0650   62.2070 C   0  0  0  0  0  0  0  0  0  0  0  0
  125.7900  129.5440   63.5570 N   0  0  0  0  0  0  0  0  0  0  0  0
  124.9560  129.6890   64.6050 C   0  0  0  0  0  0  0  0  0  0  0  0
  123.8690  130.2660   64.5310 O   0  0  0  0  0  0  0  0  0  0  0  0
  125.4500  129.1030   65.9350 C   0  0  0  0  0  0  0  0  0  0  0  0
  127.1790  129.5000   66.3720 S   0  0  0  0  0  0  0  0  0  0  0  0
  128.0720  127.9850   66.6950 C   0  0  0  0  0  0  0  0  0  0  0  0
  128.1540  127.6170   68.0000 N   0  0  0  0  0  0  0  0  0  0  0  0
  128.8190  126.4840   68.3180 C   0  0  0  0  0  0  0  0  0  0  0  0
  128.8750  126.1480   69.7950 C   0  0  0  0  0  0  0  0  0  0  0  0
  129.4150  125.6690   67.3600 C   0  0  0  0  0  0  0  0  0  0  0  0
  129.3370  126.0260   66.0050 C   0  0  0  0  0  0  0  0  0  0  0  0
  129.9980  125.1090   64.9580 C   0  0  0  0  0  0  0  0  0  0  0  0
  129.1860  124.8170   63.9400 F   0  0  0  0  0  0  0  0  0  0  0  0
  131.0800  125.7030   64.4500 F   0  0  0  0  0  0  0  0  0  0  0  0
  130.3630  123.9580   65.5230 F   0  0  0  0  0  0  0  0  0  0  0  0
  128.6490  127.2160   65.6570 C   0  0  0  0  0  0  0  0  0  0  0  0
  128.5390  127.6390   64.2570 C   0  0  0  0  0  0  0  0  0  0  0  0
  128.4510  127.9710   63.1520 N   0  0  0  0  0  0  0  0  0  0  0  0
  132.7773  131.4137   62.9434 H   0  0  0  0  0  0  0  0  0  0  0  0
  132.9435  130.3484   61.5067 H   0  0  0  0  0  0  0  0  0  0  0  0
  133.6949  131.9800   61.5067 H   0  0  0  0  0  0  0  0  0  0  0  0
  130.2334  130.9237   60.1774 H   0  0  0  0  0  0  0  0  0  0  0  0
  130.9202  130.0206   61.5727 H   0  0  0  0  0  0  0  0  0  0  0  0
  128.5011  130.8996   61.8513 H   0  0  0  0  0  0  0  0  0  0  0  0
  129.6531  131.3142   63.1611 H   0  0  0  0  0  0  0  0  0  0  0  0
  128.9003  134.1015   60.2345 H   0  0  0  0  0  0  0  0  0  0  0  0
  128.7815  132.3500   59.8904 H   0  0  0  0  0  0  0  0  0  0  0  0
  126.8129  133.7431   61.7825 H   0  0  0  0  0  0  0  0  0  0  0  0
  126.5359  133.7251   60.0197 H   0  0  0  0  0  0  0  0  0  0  0  0
  126.3067  131.9451   62.9999 H   0  0  0  0  0  0  0  0  0  0  0  0
  124.8022  132.0960   62.0374 H   0  0  0  0  0  0  0  0  0  0  0  0
  124.5258  129.8362   61.9137 H   0  0  0  0  0  0  0  0  0  0  0  0
  126.2920  129.5845   61.5401 H   0  0  0  0  0  0  0  0  0  0  0  0
  126.6550  129.0440   63.7000 H   0  0  0  0  0  0  0  0  0  0  0  0
  124.8009  129.4857   66.7364 H   0  0  0  0  0  0  0  0  0  0  0  0
  125.4102  128.0100   65.8181 H   0  0  0  0  0  0  0  0  0  0  0  0
  128.7224  127.0635   70.3853 H   0  0  0  0  0  0  0  0  0  0  0  0
  128.0857  125.4207   70.0358 H   0  0  0  0  0  0  0  0  0  0  0  0
  129.8575  125.7160   70.0358 H   0  0  0  0  0  0  0  0  0  0  0  0
  129.9429  124.7525   67.6625 H   0  0  0  0  0  0  0  0  0  0  0  0
  1  2  1  0
  2  3  1  0
  3  4  1  0
  4  5  1  0
  5  6  1  0
  6  7  1  0
  7  8  1  0
  8  9  1  0
  9 10  1  0
 10 11  1  0
 11 12  1  0
 12 13  2  0
 12 14  1  0
 14 15  1  0
 15 16  1  0
 16 17  2  0
 17 18  1  0
 18 19  1  0
 18 20  2  0
 20 21  1  0
 21 22  1  0
 22 23  1  0
 22 24  1  0
 22 25  1  0
 21 26  2  0
 26 27  1  0
 27 28  3  0
 26 16  1  0
  1 29  1  0
  1 30  1  0
  1 31  1  0
  3 32  1  0
  3 33  1  0
  4 34  1  0
  4 35  1  0
  6 36  1  0
  6 37  1  0
  7 38  1  0
  7 39  1  0
  9 40  1  0
  9 41  1  0
 10 42  1  0
 10 43  1  0
 11 44  1  0
 14 45  1  0
 14 46  1  0
 19 47  1  0
 19 48  1  0
 19 49  1  0
 20 50  1  0
M  END
>  <Binding energies>  (1) 
[-4.71]

>  <Ligand effiencies>  (1) 
[-0.16241379310344828]

>  <Interactions>  (1) 
["V-A:GLU:543:CD:4908, V-B:GLU:543:CD:9880, V-B:GLU:543:CB:9878, V-A:TYR:484:CZ:4347, V-A:TYR:484:CE1:4345, V-B:HIS:456:CE1:9040, V-A:HIS:456:CE1:4069, V-B:GLU:543:CG:9879, V-B:ARG:545:CD:9895, V-B:ARG:545:CZ:9898, H-B:TYR:484:OH:9319, V-A:ALA:541:CB:4892, V-A:PRO:540:C:4881, V-A:PRO:540:CA:4883, V-A:TYR:539:CD2:4874, V-A:TYR:539:CE2:4876, V-A:PRO:540:CB:4885, H-B:GLY:454:N:9021, H-B:ARG:545:NH2:9900, H-B:ARG:545:NE:9896, H-A:ALA:541:N:4891, H-B:GLU:543:OE1:9881, V-A:ASN:362:CB:3176"]

$$$$
3aa_Grossjean_2025
     RDKit          3D

 52 54  0  0  0  0  0  0  0  0999 V2000
  125.8700  126.9740   73.9130 C   0  0  0  0  0  0  0  0  0  0  0  0
  127.0470  127.0640   74.8900 C   0  0  0  0  0  0  0  0  0  0  0  0
  128.0150  126.0760   74.5590 O   0  0  0  0  0  0  0  0  0  0  0  0
  129.1830  126.4170   73.9560 C   0  0  0  0  0  0  0  0  0  0  0  0
  130.1560  126.8700   74.5660 O   0  0  0  0  0  0  0  0  0  0  0  0
  129.1690  126.2030   72.4690 C   0  0  0  0  0  0  0  0  0  0  0  0
  129.5880  124.9980   71.8880 C   0  0  0  0  0  0  0  0  0  0  0  0
  129.5580  124.8310   70.5060 C   0  0  0  0  0  0  0  0  0  0  0  0
  129.1030  125.8600   69.6790 C   0  0  0  0  0  0  0  0  0  0  0  0
  129.1090  125.5880   68.2960 N   0  0  0  0  0  0  0  0  0  0  0  0
  129.2650  126.4320   67.2530 C   0  0  0  0  0  0  0  0  0  0  0  0
  129.4130  127.6520   67.3380 O   0  0  0  0  0  0  0  0  0  0  0  0
  129.2370  125.7820   65.8700 C   0  0  0  0  0  0  0  0  0  0  0  0
  130.1460  124.2080   65.8450 S   0  0  0  0  0  0  0  0  0  0  0  0
  130.7640  123.9890   64.1910 C   0  0  0  0  0  0  0  0  0  0  0  0
  129.7940  123.7480   63.2760 N   0  0  0  0  0  0  0  0  0  0  0  0
  130.1300  123.5600   61.9740 C   0  0  0  0  0  0  0  0  0  0  0  0
  128.9990  123.3140   61.0200 C   0  0  0  0  0  0  0  0  0  0  0  0
  129.2530  123.0250   59.6700 C   0  0  0  0  0  0  0  0  0  0  0  0
  128.2080  122.7950   58.7790 C   0  0  0  0  0  0  0  0  0  0  0  0
  126.8930  122.8510   59.2270 C   0  0  0  0  0  0  0  0  0  0  0  0
  126.6150  123.1330   60.5610 C   0  0  0  0  0  0  0  0  0  0  0  0
  127.6620  123.3600   61.4500 C   0  0  0  0  0  0  0  0  0  0  0  0
  131.4640  123.6190   61.5600 C   0  0  0  0  0  0  0  0  0  0  0  0
  132.4880  123.8490   62.4920 C   0  0  0  0  0  0  0  0  0  0  0  0
  133.9460  123.8940   61.9980 C   0  0  0  0  0  0  0  0  0  0  0  0
  134.6080  122.7590   62.2330 F   0  0  0  0  0  0  0  0  0  0  0  0
  133.9800  124.1100   60.6830 F   0  0  0  0  0  0  0  0  0  0  0  0
  134.6030  124.8780   62.6140 F   0  0  0  0  0  0  0  0  0  0  0  0
  132.1340  124.0280   63.8520 C   0  0  0  0  0  0  0  0  0  0  0  0
  133.1650  124.2140   64.8770 C   0  0  0  0  0  0  0  0  0  0  0  0
  133.9790  124.3600   65.6880 N   0  0  0  0  0  0  0  0  0  0  0  0
  128.6950  127.0740   70.2530 C   0  0  0  0  0  0  0  0  0  0  0  0
  128.7280  127.2380   71.6340 C   0  0  0  0  0  0  0  0  0  0  0  0
  124.9290  126.9020   74.4782 H   0  0  0  0  0  0  0  0  0  0  0  0
  125.8495  127.8732   73.2797 H   0  0  0  0  0  0  0  0  0  0  0  0
  125.9865  126.0821   73.2797 H   0  0  0  0  0  0  0  0  0  0  0  0
  127.5041  128.0622   74.8223 H   0  0  0  0  0  0  0  0  0  0  0  0
  126.6861  126.8945   75.9152 H   0  0  0  0  0  0  0  0  0  0  0  0
  129.9433  124.1778   72.5291 H   0  0  0  0  0  0  0  0  0  0  0  0
  129.8949  123.8823   70.0628 H   0  0  0  0  0  0  0  0  0  0  0  0
  128.9240  124.6230   68.0640 H   0  0  0  0  0  0  0  0  0  0  0  0
  128.1910  125.5936   65.5863 H   0  0  0  0  0  0  0  0  0  0  0  0
  129.7220  126.4681   65.1600 H   0  0  0  0  0  0  0  0  0  0  0  0
  130.2918  122.9796   59.3111 H   0  0  0  0  0  0  0  0  0  0  0  0
  128.4222  122.5697   57.7238 H   0  0  0  0  0  0  0  0  0  0  0  0
  126.0674  122.6713   58.5227 H   0  0  0  0  0  0  0  0  0  0  0  0
  125.5732  123.1763   60.9113 H   0  0  0  0  0  0  0  0  0  0  0  0
  127.4393  123.5786   62.5048 H   0  0  0  0  0  0  0  0  0  0  0  0
  131.7127  123.4843   60.4970 H   0  0  0  0  0  0  0  0  0  0  0  0
  128.3487  127.8967   69.6102 H   0  0  0  0  0  0  0  0  0  0  0  0
  128.4039  128.1918   72.0758 H   0  0  0  0  0  0  0  0  0  0  0  0
  1  2  1  0
  2  3  1  0
  3  4  1  0
  4  5  2  0
  4  6  1  0
  6  7  2  0
  7  8  1  0
  8  9  2  0
  9 10  1  0
 10 11  1  0
 11 12  2  0
 11 13  1  0
 13 14  1  0
 14 15  1  0
 15 16  2  0
 16 17  1  0
 17 18  1  0
 18 19  2  0
 19 20  1  0
 20 21  2  0
 21 22  1  0
 22 23  2  0
 17 24  2  0
 24 25  1  0
 25 26  1  0
 26 27  1  0
 26 28  1  0
 26 29  1  0
 25 30  2  0
 30 31  1  0
 31 32  3  0
  9 33  1  0
 33 34  2  0
 34  6  1  0
 30 15  1  0
 23 18  1  0
  1 35  1  0
  1 36  1  0
  1 37  1  0
  2 38  1  0
  2 39  1  0
  7 40  1  0
  8 41  1  0
 10 42  1  0
 13 43  1  0
 13 44  1  0
 19 45  1  0
 20 46  1  0
 21 47  1  0
 22 48  1  0
 23 49  1  0
 24 50  1  0
 33 51  1  0
 34 52  1  0
M  END
>  <Binding energies>  (1) 
[-8.45]

>  <Ligand effiencies>  (1) 
[-0.2414285714285714]

>  <Interactions>  (1) 
["V-A:HIS:456:CD2:4068, V-B:GLU:543:CD:9880, V-A:ASP:366:CG:3213, V-B:TYR:539:CD2:9846, V-B:GLU:543:CB:9878, H-A:TYR:484:OH:4348, V-B:GLU:543:C:9874, V-B:HIS:456:CE1:9040, V-B:TYR:539:CE2:9848, V-A:HIS:456:CE1:4069, V-B:GLU:543:CG:9879, V-A:ARG:545:CZ:4926, V-B:PRO:540:CA:9855, V-B:ALA:541:CB:9864, H-B:LYS:547:NZ:9923, V-B:TYR:539:C:9839, V-B:PRO:540:CB:9857, V-B:PRO:540:C:9853, V-B:PRO:540:N:9856, V-A:ILE:369:CD1:3239, V-A:GLY:453:CA:4044, V-A:GLY:454:CA:4049, V-A:GLY:453:C:4042, H-A:GLY:454:N:4050, H-B:GLU:543:O:9875, V-B:LYS:547:CD:9921, H-A:LYS:547:NZ:4951"]

$$$$
3ab_Grossjean_2025
     RDKit          3D

 49 51  0  0  0  0  0  0  0  0999 V2000
  126.8760  126.5800   74.4750 C   0  0  0  0  0  0  0  0  0  0  0  0
  128.1000  125.8590   74.5010 O   0  0  0  0  0  0  0  0  0  0  0  0
  129.2130  126.3500   73.8990 C   0  0  0  0  0  0  0  0  0  0  0  0
  130.1640  126.8360   74.5190 O   0  0  0  0  0  0  0  0  0  0  0  0
  129.1760  126.2390   72.4020 C   0  0  0  0  0  0  0  0  0  0  0  0
  128.7860  127.3130   71.5870 C   0  0  0  0  0  0  0  0  0  0  0  0
  128.7620  127.1820   70.2020 C   0  0  0  0  0  0  0  0  0  0  0  0
  129.1290  125.9660   69.6030 C   0  0  0  0  0  0  0  0  0  0  0  0
  129.1470  125.7240   68.2160 N   0  0  0  0  0  0  0  0  0  0  0  0
  129.4030  126.5660   67.1930 C   0  0  0  0  0  0  0  0  0  0  0  0
  129.6670  127.7630   67.3010 O   0  0  0  0  0  0  0  0  0  0  0  0
  129.3480  125.9380   65.7980 C   0  0  0  0  0  0  0  0  0  0  0  0
  130.0820  124.2760   65.7660 S   0  0  0  0  0  0  0  0  0  0  0  0
  130.7140  124.0030   64.1240 C   0  0  0  0  0  0  0  0  0  0  0  0
  129.7470  123.7750   63.2030 N   0  0  0  0  0  0  0  0  0  0  0  0
  130.0860  123.5560   61.9060 C   0  0  0  0  0  0  0  0  0  0  0  0
  128.9570  123.3140   60.9490 C   0  0  0  0  0  0  0  0  0  0  0  0
  129.2070  123.0680   59.5900 C   0  0  0  0  0  0  0  0  0  0  0  0
  128.1630  122.8420   58.6970 C   0  0  0  0  0  0  0  0  0  0  0  0
  126.8480  122.8610   59.1540 C   0  0  0  0  0  0  0  0  0  0  0  0
  126.5730  123.1070   60.4940 C   0  0  0  0  0  0  0  0  0  0  0  0
  127.6200  123.3320   61.3830 C   0  0  0  0  0  0  0  0  0  0  0  0
  131.4280  123.5410   61.5100 C   0  0  0  0  0  0  0  0  0  0  0  0
  132.4480  123.7550   62.4480 C   0  0  0  0  0  0  0  0  0  0  0  0
  133.9140  123.7260   61.9720 C   0  0  0  0  0  0  0  0  0  0  0  0
  134.6650  124.6660   62.5500 F   0  0  0  0  0  0  0  0  0  0  0  0
  134.4650  122.5450   62.2540 F   0  0  0  0  0  0  0  0  0  0  0  0
  133.9670  123.9230   60.6540 F   0  0  0  0  0  0  0  0  0  0  0  0
  132.0890  123.9860   63.7990 C   0  0  0  0  0  0  0  0  0  0  0  0
  133.1170  124.1590   64.8290 C   0  0  0  0  0  0  0  0  0  0  0  0
  133.9310  124.2950   65.6410 N   0  0  0  0  0  0  0  0  0  0  0  0
  129.5220  124.8990   70.4110 C   0  0  0  0  0  0  0  0  0  0  0  0
  129.5440  125.0310   71.7960 C   0  0  0  0  0  0  0  0  0  0  0  0
  126.5438  126.7757   75.5052 H   0  0  0  0  0  0  0  0  0  0  0  0
  127.0241  127.5351   73.9498 H   0  0  0  0  0  0  0  0  0  0  0  0
  126.1125  125.9874   73.9498 H   0  0  0  0  0  0  0  0  0  0  0  0
  128.4962  128.2687   72.0482 H   0  0  0  0  0  0  0  0  0  0  0  0
  128.4551  128.0323   69.5752 H   0  0  0  0  0  0  0  0  0  0  0  0
  128.8950  124.7800   67.9620 H   0  0  0  0  0  0  0  0  0  0  0  0
  128.2967  125.8674   65.4822 H   0  0  0  0  0  0  0  0  0  0  0  0
  129.9280  126.5772   65.1161 H   0  0  0  0  0  0  0  0  0  0  0  0
  130.2444  123.0535   59.2246 H   0  0  0  0  0  0  0  0  0  0  0  0
  128.3762  122.6493   57.6352 H   0  0  0  0  0  0  0  0  0  0  0  0
  126.0219  122.6803   58.4505 H   0  0  0  0  0  0  0  0  0  0  0  0
  125.5325  123.1238   60.8504 H   0  0  0  0  0  0  0  0  0  0  0  0
  127.3977  123.5271   62.4425 H   0  0  0  0  0  0  0  0  0  0  0  0
  131.6845  123.3601   60.4557 H   0  0  0  0  0  0  0  0  0  0  0  0
  129.8170  123.9451   69.9494 H   0  0  0  0  0  0  0  0  0  0  0  0
  129.8530  124.1796   72.4202 H   0  0  0  0  0  0  0  0  0  0  0  0
  1  2  1  0
  2  3  1  0
  3  4  2  0
  3  5  1  0
  5  6  2  0
  6  7  1  0
  7  8  2  0
  8  9  1  0
  9 10  1  0
 10 11  2  0
 10 12  1  0
 12 13  1  0
 13 14  1  0
 14 15  2  0
 15 16  1  0
 16 17  1  0
 17 18  2  0
 18 19  1  0
 19 20  2  0
 20 21  1  0
 21 22  2  0
 16 23  2  0
 23 24  1  0
 24 25  1  0
 25 26  1  0
 25 27  1  0
 25 28  1  0
 24 29  2  0
 29 30  1  0
 30 31  3  0
  8 32  1  0
 32 33  2  0
 33  5  1  0
 29 14  1  0
 22 17  1  0
  1 34  1  0
  1 35  1  0
  1 36  1  0
  6 37  1  0
  7 38  1  0
  9 39  1  0
 12 40  1  0
 12 41  1  0
 18 42  1  0
 19 43  1  0
 20 44  1  0
 21 45  1  0
 22 46  1  0
 23 47  1  0
 32 48  1  0
 33 49  1  0
M  END
>  <Binding energies>  (1) 
[-8.21]

>  <Ligand effiencies>  (1) 
[-0.24147058823529413]

>  <Interactions>  (1) 
["V-A:HIS:456:CD2:4068, V-B:GLU:543:CD:9880, V-A:ASP:366:CG:3213, V-B:TYR:539:CD2:9846, V-B:GLU:543:CB:9878, H-A:TYR:484:OH:4348, V-B:GLU:543:C:9874, V-B:HIS:456:CE1:9040, V-B:TYR:539:CE2:9848, V-A:HIS:456:CE1:4069, V-B:GLU:543:CG:9879, V-A:ARG:545:CZ:4926, V-B:PRO:540:CA:9855, V-B:ALA:541:CB:9864, H-B:LYS:547:NZ:9923, V-B:TYR:539:C:9839, V-B:PRO:540:CB:9857, V-B:PRO:540:C:9853, V-B:PRO:540:N:9856, V-A:ILE:369:CD1:3239, V-A:GLY:453:CA:4044, V-A:GLY:454:CA:4049, V-A:GLY:453:C:4042, H-A:GLY:454:N:4050, H-B:GLU:543:O:9875, V-B:LYS:547:CD:9921, V-B:LYS:547:CE:9922, H-A:LYS:547:NZ:4951"]

$$$$
3ac_Grossjean_2025
     RDKit          3D

 47 49  0  0  0  0  0  0  0  0999 V2000
  127.3420  126.9090   74.1720 C   0  0  0  0  0  0  0  0  0  0  0  0
  128.4130  126.0400   73.8150 O   0  0  0  0  0  0  0  0  0  0  0  0
  128.6720  125.8010   72.4790 C   0  0  0  0  0  0  0  0  0  0  0  0
  127.9960  126.6040   71.5610 C   0  0  0  0  0  0  0  0  0  0  0  0
  128.1960  126.4390   70.1940 C   0  0  0  0  0  0  0  0  0  0  0  0
  129.0710  125.4590   69.7230 C   0  0  0  0  0  0  0  0  0  0  0  0
  129.2230  125.3820   68.3270 N   0  0  0  0  0  0  0  0  0  0  0  0
  129.5740  126.3500   67.4530 C   0  0  0  0  0  0  0  0  0  0  0  0
  129.8750  127.5060   67.7560 O   0  0  0  0  0  0  0  0  0  0  0  0
  129.5910  125.9370   65.9820 C   0  0  0  0  0  0  0  0  0  0  0  0
  130.1000  124.2040   65.7600 S   0  0  0  0  0  0  0  0  0  0  0  0
  130.7400  124.0030   64.1080 C   0  0  0  0  0  0  0  0  0  0  0  0
  129.7720  123.7890   63.1840 N   0  0  0  0  0  0  0  0  0  0  0  0
  130.1070  123.6240   61.8780 C   0  0  0  0  0  0  0  0  0  0  0  0
  128.9780  123.3850   60.9220 C   0  0  0  0  0  0  0  0  0  0  0  0
  127.6470  123.3640   61.3720 C   0  0  0  0  0  0  0  0  0  0  0  0
  126.5940  123.1480   60.4880 C   0  0  0  0  0  0  0  0  0  0  0  0
  126.8570  122.9470   59.1370 C   0  0  0  0  0  0  0  0  0  0  0  0
  128.1650  122.9570   58.6660 C   0  0  0  0  0  0  0  0  0  0  0  0
  129.2160  123.1730   59.5530 C   0  0  0  0  0  0  0  0  0  0  0  0
  131.4450  123.6530   61.4740 C   0  0  0  0  0  0  0  0  0  0  0  0
  132.4680  123.8510   62.4130 C   0  0  0  0  0  0  0  0  0  0  0  0
  133.9290  123.8700   61.9240 C   0  0  0  0  0  0  0  0  0  0  0  0
  134.5660  122.7190   62.1480 F   0  0  0  0  0  0  0  0  0  0  0  0
  133.9740  124.0980   60.6100 F   0  0  0  0  0  0  0  0  0  0  0  0
  134.6040  124.8340   62.5520 F   0  0  0  0  0  0  0  0  0  0  0  0
  132.1140  124.0170   63.7750 C   0  0  0  0  0  0  0  0  0  0  0  0
  133.1500  124.1490   64.8020 C   0  0  0  0  0  0  0  0  0  0  0  0
  133.9690  124.2520   65.6130 N   0  0  0  0  0  0  0  0  0  0  0  0
  129.7610  124.6520   70.6410 C   0  0  0  0  0  0  0  0  0  0  0  0
  129.5590  124.8200   72.0090 C   0  0  0  0  0  0  0  0  0  0  0  0
  127.2682  126.9689   75.2679 H   0  0  0  0  0  0  0  0  0  0  0  0
  127.5313  127.9120   73.7619 H   0  0  0  0  0  0  0  0  0  0  0  0
  126.3996  126.5171   73.7619 H   0  0  0  0  0  0  0  0  0  0  0  0
  127.2985  127.3747   71.9208 H   0  0  0  0  0  0  0  0  0  0  0  0
  127.6618  127.0842   69.4809 H   0  0  0  0  0  0  0  0  0  0  0  0
  129.0950  124.4570   67.9430 H   0  0  0  0  0  0  0  0  0  0  0  0
  128.5807  126.0654   65.5664 H   0  0  0  0  0  0  0  0  0  0  0  0
  130.3221  126.5729   65.4613 H   0  0  0  0  0  0  0  0  0  0  0  0
  127.4340  123.5207   62.4397 H   0  0  0  0  0  0  0  0  0  0  0  0
  125.5576  123.1363   60.8563 H   0  0  0  0  0  0  0  0  0  0  0  0
  126.0251  122.7791   58.4371 H   0  0  0  0  0  0  0  0  0  0  0  0
  128.3686  122.7950   57.5972 H   0  0  0  0  0  0  0  0  0  0  0  0
  130.2495  123.1778   59.1764 H   0  0  0  0  0  0  0  0  0  0  0  0
  131.6975  123.5195   60.4117 H   0  0  0  0  0  0  0  0  0  0  0  0
  130.4624  123.8856   70.2796 H   0  0  0  0  0  0  0  0  0  0  0  0
  130.0972  124.1808   72.7243 H   0  0  0  0  0  0  0  0  0  0  0  0
  1  2  1  0
  2  3  1  0
  3  4  2  0
  4  5  1  0
  5  6  2  0
  6  7  1  0
  7  8  1  0
  8  9  2  0
  8 10  1  0
 10 11  1  0
 11 12  1  0
 12 13  2  0
 13 14  1  0
 14 15  1  0
 15 16  2  0
 16 17  1  0
 17 18  2  0
 18 19  1  0
 19 20  2  0
 14 21  2  0
 21 22  1  0
 22 23  1  0
 23 24  1  0
 23 25  1  0
 23 26  1  0
 22 27  2  0
 27 28  1  0
 28 29  3  0
  6 30  1  0
 30 31  2  0
 31  3  1  0
 27 12  1  0
 20 15  1  0
  1 32  1  0
  1 33  1  0
  1 34  1  0
  4 35  1  0
  5 36  1  0
  7 37  1  0
 10 38  1  0
 10 39  1  0
 16 40  1  0
 17 41  1  0
 18 42  1  0
 19 43  1  0
 20 44  1  0
 21 45  1  0
 30 46  1  0
 31 47  1  0
M  END
>  <Binding energies>  (1) 
[-7.85]

>  <Ligand effiencies>  (1) 
[-0.2453125]

>  <Interactions>  (1) 
["H-A:HIS:456:NE2:4070, V-A:HIS:456:CD2:4068, V-B:GLU:543:CD:9880, V-A:ASP:366:CG:3213, V-B:TYR:539:CD2:9846, V-B:GLU:543:CB:9878, H-A:TYR:484:OH:4348, V-B:GLU:543:C:9874, V-B:HIS:456:CE1:9040, V-B:TYR:539:CE2:9848, V-A:HIS:456:CE1:4069, V-B:GLU:543:CG:9879, V-A:ARG:545:CZ:4926, V-B:PRO:540:CA:9855, V-B:GLY:544:C:9884, H-B:LYS:547:NZ:9923, V-B:PRO:540:CB:9857, V-B:PRO:540:C:9853, V-B:PRO:540:N:9856, V-A:ILE:369:CD1:3239, V-A:GLY:453:CA:4044, V-A:GLY:454:CA:4049, V-A:GLY:453:C:4042, H-A:GLY:454:N:4050, H-B:GLU:543:O:9875, V-A:HIS:456:CG:4066"]

$$$$
3ad_Grossjean_2025
     RDKit          3D

 43 45  0  0  0  0  0  0  0  0999 V2000
  133.1630  124.5630   61.5040 N   0  0  0  0  0  0  0  0  0  0  0  0
  132.4930  124.8530   62.4030 C   0  0  0  0  0  0  0  0  0  0  0  0
  131.6480  125.2190   63.5440 C   0  0  0  0  0  0  0  0  0  0  0  0
  132.1360  125.1150   64.8690 C   0  0  0  0  0  0  0  0  0  0  0  0
  133.5730  124.6630   65.1940 C   0  0  0  0  0  0  0  0  0  0  0  0
  134.4560  125.0350   64.2650 F   0  0  0  0  0  0  0  0  0  0  0  0
  133.9640  125.1930   66.3550 F   0  0  0  0  0  0  0  0  0  0  0  0
  133.6260  123.3340   65.2860 F   0  0  0  0  0  0  0  0  0  0  0  0
  131.2720  125.4340   65.9280 C   0  0  0  0  0  0  0  0  0  0  0  0
  129.9580  125.8400   65.6710 C   0  0  0  0  0  0  0  0  0  0  0  0
  128.9890  126.1770   66.7650 C   0  0  0  0  0  0  0  0  0  0  0  0
  127.8160  126.8980   66.4870 C   0  0  0  0  0  0  0  0  0  0  0  0
  126.9120  127.2130   67.4970 C   0  0  0  0  0  0  0  0  0  0  0  0
  127.1690  126.8100   68.8040 C   0  0  0  0  0  0  0  0  0  0  0  0
  128.3220  126.0930   69.1050 C   0  0  0  0  0  0  0  0  0  0  0  0
  129.2240  125.7790   68.0910 C   0  0  0  0  0  0  0  0  0  0  0  0
  129.4940  125.9320   64.3990 N   0  0  0  0  0  0  0  0  0  0  0  0
  130.3150  125.6500   63.3610 C   0  0  0  0  0  0  0  0  0  0  0  0
  129.5430  125.8360   61.7690 S   0  0  0  0  0  0  0  0  0  0  0  0
  128.0750  124.7630   61.7530 C   0  0  0  0  0  0  0  0  0  0  0  0
  128.4420  123.2840   61.6170 C   0  0  0  0  0  0  0  0  0  0  0  0
  127.5440  122.4420   61.6260 O   0  0  0  0  0  0  0  0  0  0  0  0
  129.7610  123.0230   61.4960 N   0  0  0  0  0  0  0  0  0  0  0  0
  130.4260  121.7920   61.3420 C   0  0  0  0  0  0  0  0  0  0  0  0
  131.8230  121.8550   61.3350 C   0  0  0  0  0  0  0  0  0  0  0  0
  132.5780  120.6950   61.1840 C   0  0  0  0  0  0  0  0  0  0  0  0
  131.9360  119.4690   61.0360 C   0  0  0  0  0  0  0  0  0  0  0  0
  130.5460  119.3920   61.0340 C   0  0  0  0  0  0  0  0  0  0  0  0
  129.7870  120.5500   61.1840 C   0  0  0  0  0  0  0  0  0  0  0  0
  131.6299  125.3644   66.9658 H   0  0  0  0  0  0  0  0  0  0  0  0
  127.6088  127.2185   65.4553 H   0  0  0  0  0  0  0  0  0  0  0  0
  125.9978  127.7783   67.2632 H   0  0  0  0  0  0  0  0  0  0  0  0
  126.4561  127.0600   69.6036 H   0  0  0  0  0  0  0  0  0  0  0  0
  128.5208  125.7753   70.1392 H   0  0  0  0  0  0  0  0  0  0  0  0
  130.1342  125.2106   68.3327 H   0  0  0  0  0  0  0  0  0  0  0  0
  127.5216  124.9057   62.6929 H   0  0  0  0  0  0  0  0  0  0  0  0
  127.4631  125.0407   60.8821 H   0  0  0  0  0  0  0  0  0  0  0  0
  130.3790  123.8190   61.5610 H   0  0  0  0  0  0  0  0  0  0  0  0
  132.3278  122.8256   61.4493 H   0  0  0  0  0  0  0  0  0  0  0  0
  133.6768  120.7472   61.1817 H   0  0  0  0  0  0  0  0  0  0  0  0
  132.5326  118.5522   60.9195 H   0  0  0  0  0  0  0  0  0  0  0  0
  130.0482  118.4184   60.9142 H   0  0  0  0  0  0  0  0  0  0  0  0
  128.6885  120.4928   61.1788 H   0  0  0  0  0  0  0  0  0  0  0  0
  1  2  3  0
  2  3  1  0
  3  4  2  0
  4  5  1  0
  5  6  1  0
  5  7  1  0
  5  8  1  0
  4  9  1  0
  9 10  2  0
 10 11  1  0
 11 12  2  0
 12 13  1  0
 13 14  2  0
 14 15  1  0
 15 16  2  0
 10 17  1  0
 17 18  2  0
 18 19  1  0
 19 20  1  0
 20 21  1  0
 21 22  2  0
 21 23  1  0
 23 24  1  0
 24 25  2  0
 25 26  1  0
 26 27  2  0
 27 28  1  0
 28 29  2  0
 18  3  1  0
 29 24  1  0
 16 11  1  0
  9 30  1  0
 12 31  1  0
 13 32  1  0
 14 33  1  0
 15 34  1  0
 16 35  1  0
 20 36  1  0
 20 37  1  0
 23 38  1  0
 25 39  1  0
 26 40  1  0
 27 41  1  0
 28 42  1  0
 29 43  1  0
M  END
>  <Binding energies>  (1) 
[-7.21]

>  <Ligand effiencies>  (1) 
[-0.24033333333333334]

>  <Interactions>  (1) 
["V-B:GLU:543:CD:9880, V-B:TYR:539:CD2:9846, V-A:LEU:475:CD1:4258, H-B:ALA:541:N:9863, V-B:GLU:543:CB:9878, V-A:TYR:484:CZ:4347, V-B:GLU:543:C:9874, V-B:HIS:456:CE1:9040, V-A:HIS:456:CE1:4069, V-B:GLU:543:CG:9879, V-B:ARG:545:CG:9894, V-A:ARG:545:CZ:4926, V-B:GLY:544:C:9884, V-B:ALA:541:CB:9864, V-A:GLY:453:CA:4044, V-A:GLY:454:CA:4049, V-A:GLY:453:C:4042, V-A:TRP:381:CZ2:3370, V-A:ARG:545:CG:4922, V-A:PRO:482:CG:4327, V-A:PRO:482:CB:4326, V-A:ARG:545:CD:4923, V-A:TRP:381:CH2:3372, V-A:GLY:454:C:4047"]

$$$$
3af_Grossjean_2025
     RDKit          3D

 42 44  0  0  0  0  0  0  0  0999 V2000
  125.5880  129.0710   67.0120 N   0  0  0  0  0  0  0  0  0  0  0  0
  126.4880  128.4180   66.6900 C   0  0  0  0  0  0  0  0  0  0  0  0
  127.6280  127.5930   66.2810 C   0  0  0  0  0  0  0  0  0  0  0  0
  128.2330  127.7730   65.0140 C   0  0  0  0  0  0  0  0  0  0  0  0
  127.7770  128.8610   64.0210 C   0  0  0  0  0  0  0  0  0  0  0  0
  127.9500  130.0980   64.4920 F   0  0  0  0  0  0  0  0  0  0  0  0
  128.4720  128.7610   62.8870 F   0  0  0  0  0  0  0  0  0  0  0  0
  126.4800  128.7170   63.7480 F   0  0  0  0  0  0  0  0  0  0  0  0
  129.2860  126.9220   64.6460 C   0  0  0  0  0  0  0  0  0  0  0  0
  129.7200  125.9170   65.5170 C   0  0  0  0  0  0  0  0  0  0  0  0
  130.8270  124.9690   65.1670 C   0  0  0  0  0  0  0  0  0  0  0  0
  130.5460  123.6450   64.7930 C   0  0  0  0  0  0  0  0  0  0  0  0
  131.5700  122.7600   64.4650 C   0  0  0  0  0  0  0  0  0  0  0  0
  132.8920  123.1890   64.5060 C   0  0  0  0  0  0  0  0  0  0  0  0
  133.1980  124.4960   64.8700 C   0  0  0  0  0  0  0  0  0  0  0  0
  132.1710  125.3780   65.1970 C   0  0  0  0  0  0  0  0  0  0  0  0
  129.1350  125.7450   66.7290 N   0  0  0  0  0  0  0  0  0  0  0  0
  128.1310  126.5700   67.1170 C   0  0  0  0  0  0  0  0  0  0  0  0
  127.5010  126.1990   68.7410 S   0  0  0  0  0  0  0  0  0  0  0  0
  128.3800  127.2480   69.9380 C   0  0  0  0  0  0  0  0  0  0  0  0
  129.1280  126.4180   70.9800 C   0  0  0  0  0  0  0  0  0  0  0  0
  129.7040  126.9930   71.9040 O   0  0  0  0  0  0  0  0  0  0  0  0
  129.0990  125.0820   70.7850 N   0  0  0  0  0  0  0  0  0  0  0  0
  129.6850  124.0500   71.5440 C   0  0  0  0  0  0  0  0  0  0  0  0
  130.7850  124.1910   72.4100 C   0  0  0  0  0  0  0  0  0  0  0  0
  131.2670  123.0780   73.1020 C   0  0  0  0  0  0  0  0  0  0  0  0
  130.6370  121.8480   72.9100 C   0  0  0  0  0  0  0  0  0  0  0  0
  129.5760  121.6860   72.0820 N   0  0  0  0  0  0  0  0  0  0  0  0
  129.1190  122.7770   71.4170 C   0  0  0  0  0  0  0  0  0  0  0  0
  129.7729  127.0457   63.6674 H   0  0  0  0  0  0  0  0  0  0  0  0
  129.5015  123.3018   64.7586 H   0  0  0  0  0  0  0  0  0  0  0  0
  131.3339  121.7256   64.1746 H   0  0  0  0  0  0  0  0  0  0  0  0
  133.7014  122.4899   64.2488 H   0  0  0  0  0  0  0  0  0  0  0  0
  134.2453  124.8312   64.8994 H   0  0  0  0  0  0  0  0  0  0  0  0
  132.4159  126.4115   65.4834 H   0  0  0  0  0  0  0  0  0  0  0  0
  129.1034  127.8758   69.3971 H   0  0  0  0  0  0  0  0  0  0  0  0
  127.6354  127.8644   70.4630 H   0  0  0  0  0  0  0  0  0  0  0  0
  128.5770  124.7610   69.9840 H   0  0  0  0  0  0  0  0  0  0  0  0
  131.2629  125.1731   72.5412 H   0  0  0  0  0  0  0  0  0  0  0  0
  132.1252  123.1691   73.7840 H   0  0  0  0  0  0  0  0  0  0  0  0
  131.0180  120.9713   73.4544 H   0  0  0  0  0  0  0  0  0  0  0  0
  128.2585  122.6540   70.7429 H   0  0  0  0  0  0  0  0  0  0  0  0
  1  2  3  0
  2  3  1  0
  3  4  2  0
  4  5  1  0
  5  6  1  0
  5  7  1  0
  5  8  1  0
  4  9  1  0
  9 10  2  0
 10 11  1  0
 11 12  2  0
 12 13  1  0
 13 14  2  0
 14 15  1  0
 15 16  2  0
 10 17  1  0
 17 18  2  0
 18 19  1  0
 19 20  1  0
 20 21  1  0
 21 22  2  0
 21 23  1  0
 23 24  1  0
 24 25  2  0
 25 26  1  0
 26 27  2  0
 27 28  1  0
 28 29  2  0
 18  3  1  0
 29 24  1  0
 16 11  1  0
  9 30  1  0
 12 31  1  0
 13 32  1  0
 14 33  1  0
 15 34  1  0
 16 35  1  0
 20 36  1  0
 20 37  1  0
 23 38  1  0
 25 39  1  0
 26 40  1  0
 27 41  1  0
 29 42  1  0
M  END
>  <Binding energies>  (1) 
[-7.56]

>  <Ligand effiencies>  (1) 
[-0.252]

>  <Interactions>  (1) 
["H-A:HIS:456:NE2:4070, V-A:GLU:543:CD:4908, V-A:HIS:456:CD2:4068, V-B:GLU:543:CD:9880, V-A:LEU:475:CD1:4258, V-B:GLU:543:CB:9878, V-A:TYR:484:CZ:4347, V-B:GLU:543:C:9874, V-A:TYR:484:CE1:4345, V-B:HIS:456:CE1:9040, V-A:HIS:456:CE1:4069, H-B:TYR:484:OH:9319, V-A:GLU:543:CB:4906, H-B:LYS:547:NZ:9923, V-A:GLY:454:CA:4049, H-B:GLU:543:O:9875, V-A:TYR:484:CG:4342, V-A:HIS:456:CG:4066, V-A:TYR:484:CD1:4343, V-A:TYR:484:CD2:4344, V-B:GLY:544:CA:9886, V-A:HIS:456:CB:4065, V-B:LYS:547:CE:9922, V-A:ASP:473:CB:4239, H-B:GLY:544:O:9885, V-A:TYR:484:CB:4341"]

$$$$
3ag_Grossjean_2025
     RDKit          3D

 46 48  0  0  0  0  0  0  0  0999 V2000
  128.3880  127.8440   62.9090 N   0  0  0  0  0  0  0  0  0  0  0  0
  128.4920  127.5430   64.0220 C   0  0  0  0  0  0  0  0  0  0  0  0
  128.6260  127.1590   65.4300 C   0  0  0  0  0  0  0  0  0  0  0  0
  129.2750  125.9530   65.7930 C   0  0  0  0  0  0  0  0  0  0  0  0
  129.9220  125.0130   64.7580 C   0  0  0  0  0  0  0  0  0  0  0  0
  130.9590  125.5700   64.1290 F   0  0  0  0  0  0  0  0  0  0  0  0
  130.3640  123.9090   65.3620 F   0  0  0  0  0  0  0  0  0  0  0  0
  129.0300  124.6690   63.8280 F   0  0  0  0  0  0  0  0  0  0  0  0
  129.3300  125.6030   67.1510 C   0  0  0  0  0  0  0  0  0  0  0  0
  128.7440  126.4270   68.1180 C   0  0  0  0  0  0  0  0  0  0  0  0
  128.7710  126.1020   69.5800 C   0  0  0  0  0  0  0  0  0  0  0  0
  128.0710  126.8930   70.5040 C   0  0  0  0  0  0  0  0  0  0  0  0
  128.0920  126.5960   71.8640 C   0  0  0  0  0  0  0  0  0  0  0  0
  128.8160  125.5000   72.3200 C   0  0  0  0  0  0  0  0  0  0  0  0
  129.5210  124.7010   71.4250 C   0  0  0  0  0  0  0  0  0  0  0  0
  129.4990  125.0010   70.0670 C   0  0  0  0  0  0  0  0  0  0  0  0
  128.1340  127.5890   67.7670 N   0  0  0  0  0  0  0  0  0  0  0  0
  128.0860  127.9560   66.4640 C   0  0  0  0  0  0  0  0  0  0  0  0
  127.2530  129.5050   66.1920 S   0  0  0  0  0  0  0  0  0  0  0  0
  125.4780  129.1460   66.0400 C   0  0  0  0  0  0  0  0  0  0  0  0
  124.9310  129.5070   64.6580 C   0  0  0  0  0  0  0  0  0  0  0  0
  123.8600  130.1090   64.5590 O   0  0  0  0  0  0  0  0  0  0  0  0
  125.6810  129.1400   63.6040 N   0  0  0  0  0  0  0  0  0  0  0  0
  125.3670  129.4140   62.2030 C   0  0  0  0  0  0  0  0  0  0  0  0
  125.1590  130.8920   61.8890 C   0  0  0  0  0  0  0  0  0  0  0  0
  126.0450  131.8420   62.4040 C   0  0  0  0  0  0  0  0  0  0  0  0
  125.8760  133.1890   62.0960 C   0  0  0  0  0  0  0  0  0  0  0  0
  124.8280  133.5810   61.2660 C   0  0  0  0  0  0  0  0  0  0  0  0
  123.9500  132.6380   60.7380 C   0  0  0  0  0  0  0  0  0  0  0  0
  124.1180  131.2900   61.0450 C   0  0  0  0  0  0  0  0  0  0  0  0
  129.8366  124.6757   67.4568 H   0  0  0  0  0  0  0  0  0  0  0  0
  127.4968  127.7612   70.1482 H   0  0  0  0  0  0  0  0  0  0  0  0
  127.5378  127.2261   72.5752 H   0  0  0  0  0  0  0  0  0  0  0  0
  128.8316  125.2632   73.3941 H   0  0  0  0  0  0  0  0  0  0  0  0
  130.0934  123.8355   71.7901 H   0  0  0  0  0  0  0  0  0  0  0  0
  130.0592  124.3679   69.3632 H   0  0  0  0  0  0  0  0  0  0  0  0
  125.3177  128.0719   66.2147 H   0  0  0  0  0  0  0  0  0  0  0  0
  124.9454  129.7569   66.7837 H   0  0  0  0  0  0  0  0  0  0  0  0
  126.5510  128.6570   63.7780 H   0  0  0  0  0  0  0  0  0  0  0  0
  126.1971  129.0428   61.5840 H   0  0  0  0  0  0  0  0  0  0  0  0
  124.4154  128.9067   61.9861 H   0  0  0  0  0  0  0  0  0  0  0  0
  126.8754  131.5256   63.0523 H   0  0  0  0  0  0  0  0  0  0  0  0
  126.5668  133.9404   62.5061 H   0  0  0  0  0  0  0  0  0  0  0  0
  124.6928  134.6458   61.0254 H   0  0  0  0  0  0  0  0  0  0  0  0
  123.1271  132.9564   60.0811 H   0  0  0  0  0  0  0  0  0  0  0  0
  123.4327  130.5396   60.6240 H   0  0  0  0  0  0  0  0  0  0  0  0
  1  2  3  0
  2  3  1  0
  3  4  2  0
  4  5  1  0
  5  6  1  0
  5  7  1  0
  5  8  1  0
  4  9  1  0
  9 10  2  0
 10 11  1  0
 11 12  2  0
 12 13  1  0
 13 14  2  0
 14 15  1  0
 15 16  2  0
 10 17  1  0
 17 18  2  0
 18 19  1  0
 19 20  1  0
 20 21  1  0
 21 22  2  0
 21 23  1  0
 23 24  1  0
 24 25  1  0
 25 26  2  0
 26 27  1  0
 27 28  2  0
 28 29  1  0
 29 30  2  0
 18  3  1  0
 30 25  1  0
 16 11  1  0
  9 31  1  0
 12 32  1  0
 13 33  1  0
 14 34  1  0
 15 35  1  0
 16 36  1  0
 20 37  1  0
 20 38  1  0
 23 39  1  0
 24 40  1  0
 24 41  1  0
 26 42  1  0
 27 43  1  0
 28 44  1  0
 29 45  1  0
 30 46  1  0
M  END
>  <Binding energies>  (1) 
[-7.01]

>  <Ligand effiencies>  (1) 
[-0.22612903225806452]

>  <Interactions>  (1) 
["V-A:GLU:543:CD:4908, V-A:HIS:456:CD2:4068, V-B:GLU:543:CD:9880, V-B:GLU:543:CB:9878, V-A:TYR:484:CZ:4347, V-B:GLU:543:C:9874, V-A:TYR:484:CE1:4345, V-B:HIS:456:CE1:9040, V-A:HIS:456:CE1:4069, V-B:GLU:543:CG:9879, V-B:ARG:545:CZ:9898, H-B:TYR:484:OH:9319, V-B:ILE:369:CG2:8208, V-B:ILE:369:CD1:8210, V-B:LEU:475:CD1:9229, H-B:GLY:454:N:9021, H-B:ARG:545:NH2:9900, H-B:ARG:545:NE:9896, H-B:GLU:543:OE1:9881"]

$$$$
3ai_Grossjean_2025
     RDKit          3D

 39 41  0  0  0  0  0  0  0  0999 V2000
  129.9250  124.4230   68.4300 N   0  0  0  0  0  0  0  0  0  0  0  0
  129.3330  125.2400   67.8640 C   0  0  0  0  0  0  0  0  0  0  0  0
  128.5840  126.2750   67.1450 C   0  0  0  0  0  0  0  0  0  0  0  0
  128.9700  126.6760   65.8430 C   0  0  0  0  0  0  0  0  0  0  0  0
  130.1510  126.0330   65.0910 C   0  0  0  0  0  0  0  0  0  0  0  0
  130.4030  126.6240   63.9210 F   0  0  0  0  0  0  0  0  0  0  0  0
  131.2590  126.1150   65.8290 F   0  0  0  0  0  0  0  0  0  0  0  0
  129.8920  124.7490   64.8410 F   0  0  0  0  0  0  0  0  0  0  0  0
  128.2490  127.7040   65.2170 C   0  0  0  0  0  0  0  0  0  0  0  0
  127.1760  128.3170   65.8720 C   0  0  0  0  0  0  0  0  0  0  0  0
  126.3790  129.4260   65.2550 C   0  0  0  0  0  0  0  0  0  0  0  0
  124.9860  129.4870   65.4240 C   0  0  0  0  0  0  0  0  0  0  0  0
  124.2400  130.5170   64.8580 C   0  0  0  0  0  0  0  0  0  0  0  0
  124.8790  131.5040   64.1140 C   0  0  0  0  0  0  0  0  0  0  0  0
  126.2570  131.4680   63.9340 C   0  0  0  0  0  0  0  0  0  0  0  0
  127.0000  130.4370   64.5010 C   0  0  0  0  0  0  0  0  0  0  0  0
  126.8150  127.9350   67.1230 N   0  0  0  0  0  0  0  0  0  0  0  0
  127.4800  126.9280   67.7390 C   0  0  0  0  0  0  0  0  0  0  0  0
  126.8510  126.5510   69.3620 S   0  0  0  0  0  0  0  0  0  0  0  0
  128.1200  127.0380   70.5810 C   0  0  0  0  0  0  0  0  0  0  0  0
  128.5450  125.9290   71.5540 C   0  0  0  0  0  0  0  0  0  0  0  0
  128.4890  126.1040   72.7730 O   0  0  0  0  0  0  0  0  0  0  0  0
  128.9690  124.7900   70.9600 N   0  0  0  0  0  0  0  0  0  0  0  0
  129.4050  123.6290   71.5840 C   0  0  0  0  0  0  0  0  0  0  0  0
  130.6110  123.5420   72.2770 C   0  0  0  0  0  0  0  0  0  0  0  0
  130.6700  122.2460   72.7350 C   0  0  0  0  0  0  0  0  0  0  0  0
  129.5560  121.5850   72.3390 O   0  0  0  0  0  0  0  0  0  0  0  0
  128.7610  122.4730   71.6110 N   0  0  0  0  0  0  0  0  0  0  0  0
  128.5294  128.0300   64.2045 H   0  0  0  0  0  0  0  0  0  0  0  0
  124.4770  128.7093   66.0123 H   0  0  0  0  0  0  0  0  0  0  0  0
  123.1495  130.5505   64.9984 H   0  0  0  0  0  0  0  0  0  0  0  0
  124.2902  132.3177   63.6655 H   0  0  0  0  0  0  0  0  0  0  0  0
  126.7579  132.2511   63.3459 H   0  0  0  0  0  0  0  0  0  0  0  0
  128.0903  130.4127   64.3570 H   0  0  0  0  0  0  0  0  0  0  0  0
  129.0127  127.3693   70.0303 H   0  0  0  0  0  0  0  0  0  0  0  0
  127.6673  127.8296   71.1962 H   0  0  0  0  0  0  0  0  0  0  0  0
  128.9720  124.7670   69.9510 H   0  0  0  0  0  0  0  0  0  0  0  0
  131.3554  124.3381   72.4258 H   0  0  0  0  0  0  0  0  0  0  0  0
  131.4905  121.8155   73.3279 H   0  0  0  0  0  0  0  0  0  0  0  0
  1  2  3  0
  2  3  1  0
  3  4  2  0
  4  5  1  0
  5  6  1  0
  5  7  1  0
  5  8  1  0
  4  9  1  0
  9 10  2  0
 10 11  1  0
 11 12  2  0
 12 13  1  0
 13 14  2  0
 14 15  1  0
 15 16  2  0
 10 17  1  0
 17 18  2  0
 18 19  1  0
 19 20  1  0
 20 21  1  0
 21 22  2  0
 21 23  1  0
 23 24  1  0
 24 25  1  0
 25 26  2  0
 26 27  1  0
 27 28  1  0
 18  3  1  0
 28 24  2  0
 16 11  1  0
  9 29  1  0
 12 30  1  0
 13 31  1  0
 14 32  1  0
 15 33  1  0
 16 34  1  0
 20 35  1  0
 20 36  1  0
 23 37  1  0
 25 38  1  0
 26 39  1  0
M  END
>  <Binding energies>  (1) 
[-7.92]

>  <Ligand effiencies>  (1) 
[-0.2731034482758621]

>  <Interactions>  (1) 
["H-A:HIS:456:NE2:4070, V-A:GLU:543:CD:4908, V-A:HIS:456:CD2:4068, V-B:GLU:543:CD:9880, V-B:GLU:543:CB:9878, H-A:TYR:484:OH:4348, V-B:GLU:543:C:9874, V-A:TYR:484:CE1:4345, V-B:HIS:456:CE1:9040, V-A:HIS:456:CE1:4069, V-B:GLU:543:CG:9879, V-B:ARG:545:CD:9895, V-B:ARG:545:CZ:9898, H-B:ARG:545:N:9892, H-B:LYS:547:NZ:9923, V-B:LEU:475:CD1:9229, V-B:GLY:454:CA:9020, H-B:GLU:543:O:9875, V-A:TYR:484:CG:4342, V-A:HIS:456:CG:4066, V-A:TYR:484:CD2:4344, V-A:HIS:456:CB:4065, V-B:LYS:547:CE:9922, V-A:ASP:473:CB:4239, V-A:TYR:484:CB:4341"]

$$$$
3aj_Grossjean_2025
     RDKit          3D

 39 41  0  0  0  0  0  0  0  0999 V2000
  124.9640  129.0600   67.4590 N   0  0  0  0  0  0  0  0  0  0  0  0
  125.8900  128.4600   67.1120 C   0  0  0  0  0  0  0  0  0  0  0  0
  127.0640  127.7020   66.6700 C   0  0  0  0  0  0  0  0  0  0  0  0
  127.7110  128.0150   65.4490 C   0  0  0  0  0  0  0  0  0  0  0  0
  127.2600  129.1770   64.5440 C   0  0  0  0  0  0  0  0  0  0  0  0
  127.4220  130.3720   65.1170 F   0  0  0  0  0  0  0  0  0  0  0  0
  127.9650  129.1740   63.4120 F   0  0  0  0  0  0  0  0  0  0  0  0
  125.9660  129.0500   64.2480 F   0  0  0  0  0  0  0  0  0  0  0  0
  128.8020  127.2280   65.0480 C   0  0  0  0  0  0  0  0  0  0  0  0
  129.2320  126.1590   65.8400 C   0  0  0  0  0  0  0  0  0  0  0  0
  130.3840  125.2820   65.4540 C   0  0  0  0  0  0  0  0  0  0  0  0
  131.7060  125.7270   65.6080 C   0  0  0  0  0  0  0  0  0  0  0  0
  132.7820  124.9160   65.2550 C   0  0  0  0  0  0  0  0  0  0  0  0
  132.5470  123.6450   64.7400 C   0  0  0  0  0  0  0  0  0  0  0  0
  131.2460  123.1800   64.5780 C   0  0  0  0  0  0  0  0  0  0  0  0
  130.1750  123.9930   64.9340 C   0  0  0  0  0  0  0  0  0  0  0  0
  128.6040  125.8580   67.0050 N   0  0  0  0  0  0  0  0  0  0  0  0
  127.5640  126.6170   67.4260 C   0  0  0  0  0  0  0  0  0  0  0  0
  126.8840  126.0880   68.9830 S   0  0  0  0  0  0  0  0  0  0  0  0
  127.9440  126.7510   70.3120 C   0  0  0  0  0  0  0  0  0  0  0  0
  128.4030  125.7200   71.3530 C   0  0  0  0  0  0  0  0  0  0  0  0
  128.1470  125.8740   72.5490 O   0  0  0  0  0  0  0  0  0  0  0  0
  129.0860  124.6700   70.8440 N   0  0  0  0  0  0  0  0  0  0  0  0
  129.6060  123.5960   71.5550 C   0  0  0  0  0  0  0  0  0  0  0  0
  129.1400  122.3680   71.6190 N   0  0  0  0  0  0  0  0  0  0  0  0
  129.8900  121.6030   72.3880 C   0  0  0  0  0  0  0  0  0  0  0  0
  130.9970  122.2150   72.9710 C   0  0  0  0  0  0  0  0  0  0  0  0
  131.0470  123.8800   72.4790 S   0  0  0  0  0  0  0  0  0  0  0  0
  129.3217  127.4536   64.1051 H   0  0  0  0  0  0  0  0  0  0  0  0
  131.8954  126.7317   66.0137 H   0  0  0  0  0  0  0  0  0  0  0  0
  133.8126  125.2786   65.3828 H   0  0  0  0  0  0  0  0  0  0  0  0
  133.3955  123.0037   64.4591 H   0  0  0  0  0  0  0  0  0  0  0  0
  131.0651  122.1744   64.1704 H   0  0  0  0  0  0  0  0  0  0  0  0
  129.1477  123.6211   64.8065 H   0  0  0  0  0  0  0  0  0  0  0  0
  128.8399  127.1884   69.8473 H   0  0  0  0  0  0  0  0  0  0  0  0
  127.3310  127.4845   70.8562 H   0  0  0  0  0  0  0  0  0  0  0  0
  129.2300  124.6470   69.8460 H   0  0  0  0  0  0  0  0  0  0  0  0
  129.6548  120.5422   72.5592 H   0  0  0  0  0  0  0  0  0  0  0  0
  131.7225  121.7233   73.6357 H   0  0  0  0  0  0  0  0  0  0  0  0
  1  2  3  0
  2  3  1  0
  3  4  2  0
  4  5  1  0
  5  6  1  0
  5  7  1  0
  5  8  1  0
  4  9  1  0
  9 10  2  0
 10 11  1  0
 11 12  2  0
 12 13  1  0
 13 14  2  0
 14 15  1  0
 15 16  2  0
 10 17  1  0
 17 18  2  0
 18 19  1  0
 19 20  1  0
 20 21  1  0
 21 22  2  0
 21 23  1  0
 23 24  1  0
 24 25  2  0
 25 26  1  0
 26 27  2  0
 27 28  1  0
 18  3  1  0
 28 24  1  0
 16 11  1  0
  9 29  1  0
 12 30  1  0
 13 31  1  0
 14 32  1  0
 15 33  1  0
 16 34  1  0
 20 35  1  0
 20 36  1  0
 23 37  1  0
 26 38  1  0
 27 39  1  0
M  END
>  <Binding energies>  (1) 
[-7.32]

>  <Ligand effiencies>  (1) 
[-0.2524137931034483]

>  <Interactions>  (1) 
["V-A:GLU:543:CD:4908, V-A:HIS:456:CD2:4068, V-B:GLU:543:CD:9880, V-A:LEU:475:CD1:4258, V-B:GLU:543:CB:9878, V-A:TYR:484:CZ:4347, V-B:GLU:543:C:9874, V-A:TYR:484:CE1:4345, V-B:HIS:456:CE1:9040, V-A:HIS:456:CE1:4069, V-B:GLU:543:CG:9879, V-B:ARG:545:CZ:9898, H-B:TYR:484:OH:9319, V-B:ARG:545:CG:9894, V-A:GLU:543:CB:4906, H-B:ARG:545:N:9892, V-B:GLY:544:C:9884, H-B:LYS:547:NZ:9923, V-B:TYR:484:CZ:9318, V-A:GLY:454:CA:4049, H-B:GLU:543:O:9875, V-A:TYR:484:CG:4342, V-A:HIS:456:CG:4066, V-A:TYR:484:CD1:4343, V-A:TYR:484:CD2:4344, V-A:HIS:456:CB:4065, V-B:LYS:547:CE:9922, V-A:ASP:473:CB:4239, V-A:TYR:484:CB:4341"]

$$$$
3ak_Grossjean_2025
     RDKit          3D

 57 58  0  0  0  0  0  0  0  0999 V2000
  125.3530  123.1410   56.7360 C   0  0  0  0  0  0  0  0  0  0  0  0
  126.2140  122.0460   56.4660 O   0  0  0  0  0  0  0  0  0  0  0  0
  127.5760  122.4230   56.3160 C   0  0  0  0  0  0  0  0  0  0  0  0
  127.8110  123.7490   57.0490 C   0  0  0  0  0  0  0  0  0  0  0  0
  128.5830  123.5000   58.2200 O   0  0  0  0  0  0  0  0  0  0  0  0
  128.0020  122.6000   59.1590 C   0  0  0  0  0  0  0  0  0  0  0  0
  127.1320  123.2910   60.2250 C   0  0  0  0  0  0  0  0  0  0  0  0
  127.4250  122.7350   61.4990 O   0  0  0  0  0  0  0  0  0  0  0  0
  128.3780  123.4790   62.2470 C   0  0  0  0  0  0  0  0  0  0  0  0
  128.9160  124.6500   61.4060 C   0  0  0  0  0  0  0  0  0  0  0  0
  128.6830  125.9630   62.0120 N   0  0  0  0  0  0  0  0  0  0  0  0
  129.1200  127.1430   61.5340 C   0  0  0  0  0  0  0  0  0  0  0  0
  129.7690  127.2410   60.4910 O   0  0  0  0  0  0  0  0  0  0  0  0
  128.7990  128.4260   62.3190 C   0  0  0  0  0  0  0  0  0  0  0  0
  127.6300  128.2570   63.7180 S   0  0  0  0  0  0  0  0  0  0  0  0
  128.3950  127.2610   64.9870 C   0  0  0  0  0  0  0  0  0  0  0  0
  129.4080  126.4600   64.5730 N   0  0  0  0  0  0  0  0  0  0  0  0
  130.0480  125.6600   65.4630 C   0  0  0  0  0  0  0  0  0  0  0  0
  131.1560  124.8090   64.9190 C   0  0  0  0  0  0  0  0  0  0  0  0
  132.4100  125.3660   64.6240 C   0  0  0  0  0  0  0  0  0  0  0  0
  133.4440  124.5790   64.1230 C   0  0  0  0  0  0  0  0  0  0  0  0
  133.2370  123.2210   63.9100 C   0  0  0  0  0  0  0  0  0  0  0  0
  132.0050  122.6430   64.1970 C   0  0  0  0  0  0  0  0  0  0  0  0
  130.9740  123.4320   64.6990 C   0  0  0  0  0  0  0  0  0  0  0  0
  129.6880  125.6610   66.8150 C   0  0  0  0  0  0  0  0  0  0  0  0
  128.6450  126.4800   67.2710 C   0  0  0  0  0  0  0  0  0  0  0  0
  128.2750  126.4510   68.7670 C   0  0  0  0  0  0  0  0  0  0  0  0
  126.9790  126.1790   68.9120 F   0  0  0  0  0  0  0  0  0  0  0  0
  128.9870  125.5150   69.3950 F   0  0  0  0  0  0  0  0  0  0  0  0
  128.5130  127.6130   69.3810 F   0  0  0  0  0  0  0  0  0  0  0  0
  127.9750  127.3040   66.3340 C   0  0  0  0  0  0  0  0  0  0  0  0
  126.8770  128.1820   66.7530 C   0  0  0  0  0  0  0  0  0  0  0  0
  126.0090  128.8740   67.0830 N   0  0  0  0  0  0  0  0  0  0  0  0
  125.2525  123.2688   57.8239 H   0  0  0  0  0  0  0  0  0  0  0  0
  125.7755  124.0567   56.2967 H   0  0  0  0  0  0  0  0  0  0  0  0
  124.3635  122.9464   56.2967 H   0  0  0  0  0  0  0  0  0  0  0  0
  128.2235  121.6444   56.7456 H   0  0  0  0  0  0  0  0  0  0  0  0
  127.8132  122.5416   55.2484 H   0  0  0  0  0  0  0  0  0  0  0  0
  128.3531  124.4436   56.3905 H   0  0  0  0  0  0  0  0  0  0  0  0
  126.8455  124.1961   57.3280 H   0  0  0  0  0  0  0  0  0  0  0  0
  127.3737  121.8834   58.6097 H   0  0  0  0  0  0  0  0  0  0  0  0
  128.8319  122.1111   59.6902 H   0  0  0  0  0  0  0  0  0  0  0  0
  127.3497  124.3692   60.2352 H   0  0  0  0  0  0  0  0  0  0  0  0
  126.0683  123.1373   59.9904 H   0  0  0  0  0  0  0  0  0  0  0  0
  127.8992  123.8737   63.1553 H   0  0  0  0  0  0  0  0  0  0  0  0
  129.2145  122.8190   62.5203 H   0  0  0  0  0  0  0  0  0  0  0  0
  129.9998  124.5149   61.2749 H   0  0  0  0  0  0  0  0  0  0  0  0
  128.3738  124.6357   60.4490 H   0  0  0  0  0  0  0  0  0  0  0  0
  128.1400  125.9680   62.8640 H   0  0  0  0  0  0  0  0  0  0  0  0
  129.7454  128.8181   62.7198 H   0  0  0  0  0  0  0  0  0  0  0  0
  128.2976  129.0898   61.5993 H   0  0  0  0  0  0  0  0  0  0  0  0
  132.5786  126.4401   64.7910 H   0  0  0  0  0  0  0  0  0  0  0  0
  134.4212  125.0305   63.8966 H   0  0  0  0  0  0  0  0  0  0  0  0
  134.0528  122.5996   63.5119 H   0  0  0  0  0  0  0  0  0  0  0  0
  131.8461  121.5677   64.0281 H   0  0  0  0  0  0  0  0  0  0  0  0
  130.0016  122.9712   64.9272 H   0  0  0  0  0  0  0  0  0  0  0  0
  130.2263  125.0155   67.5246 H   0  0  0  0  0  0  0  0  0  0  0  0
  1  2  1  0
  2  3  1  0
  3  4  1  0
  4  5  1  0
  5  6  1  0
  6  7  1  0
  7  8  1  0
  8  9  1  0
  9 10  1  0
 10 11  1  0
 11 12  1  0
 12 13  2  0
 12 14  1  0
 14 15  1  0
 15 16  1  0
 16 17  2  0
 17 18  1  0
 18 19  1  0
 19 20  2  0
 20 21  1  0
 21 22  2  0
 22 23  1  0
 23 24  2  0
 18 25  2  0
 25 26  1  0
 26 27  1  0
 27 28  1  0
 27 29  1  0
 27 30  1  0
 26 31  2  0
 31 32  1  0
 32 33  3  0
 31 16  1  0
 24 19  1  0
  1 34  1  0
  1 35  1  0
  1 36  1  0
  3 37  1  0
  3 38  1  0
  4 39  1  0
  4 40  1  0
  6 41  1  0
  6 42  1  0
  7 43  1  0
  7 44  1  0
  9 45  1  0
  9 46  1  0
 10 47  1  0
 10 48  1  0
 11 49  1  0
 14 50  1  0
 14 51  1  0
 20 52  1  0
 21 53  1  0
 22 54  1  0
 23 55  1  0
 24 56  1  0
 25 57  1  0
M  END
>  <Binding energies>  (1) 
[-5.66]

>  <Ligand effiencies>  (1) 
[-0.16647058823529412]

>  <Interactions>  (1) 
["V-B:GLU:543:CD:9880, V-B:TYR:539:CD2:9846, V-A:LEU:475:CD1:4258, H-B:ALA:541:N:9863, V-B:GLU:543:CB:9878, V-A:TYR:484:CZ:4347, V-B:GLU:543:C:9874, V-A:TYR:484:CE1:4345, V-B:HIS:456:CE1:9040, V-B:TYR:539:CE2:9848, V-A:HIS:456:CE1:4069, V-B:GLU:543:CG:9879, H-B:TYR:484:OH:9319, V-A:ARG:545:CZ:4926, V-B:ARG:545:CA:9891, V-B:PRO:540:CA:9855, V-B:GLY:544:C:9884, V-B:ALA:541:CB:9864, V-B:TYR:539:CZ:9849, V-B:TYR:539:C:9839, V-B:PRO:540:CB:9857, V-B:PRO:540:N:9856, V-A:GLY:454:CA:4049, H-B:GLU:543:OE2:9882, V-B:TYR:539:CG:9844, V-B:LEU:363:CD1:8160, H-B:GLU:543:OE1:9881, V-B:PRO:540:CD:9859, V-B:TYR:539:CA:9841, V-B:TYR:539:CE1:9847, V-B:TYR:539:CD1:9845, H-B:TYR:539:N:9842"]

$$$$
3bc_Grossjean_2025
     RDKit          3D

 47 49  0  0  0  0  0  0  0  0999 V2000
  127.2360  126.8440   74.4830 C   0  0  0  0  0  0  0  0  0  0  0  0
  128.2410  126.0360   73.8800 O   0  0  0  0  0  0  0  0  0  0  0  0
  128.3640  126.0290   72.5030 C   0  0  0  0  0  0  0  0  0  0  0  0
  129.2330  125.0820   71.9620 C   0  0  0  0  0  0  0  0  0  0  0  0
  129.4220  124.9980   70.5850 C   0  0  0  0  0  0  0  0  0  0  0  0
  128.7480  125.8700   69.7290 C   0  0  0  0  0  0  0  0  0  0  0  0
  128.9930  125.7020   68.3530 N   0  0  0  0  0  0  0  0  0  0  0  0
  129.6280  126.5270   67.4940 C   0  0  0  0  0  0  0  0  0  0  0  0
  130.1530  127.5980   67.8070 O   0  0  0  0  0  0  0  0  0  0  0  0
  129.6990  126.0170   66.0470 C   0  0  0  0  0  0  0  0  0  0  0  0
  130.1480  124.2570   65.8670 S   0  0  0  0  0  0  0  0  0  0  0  0
  130.7550  124.0180   64.2120 C   0  0  0  0  0  0  0  0  0  0  0  0
  129.7780  123.7990   63.2990 N   0  0  0  0  0  0  0  0  0  0  0  0
  130.1030  123.6020   61.9940 C   0  0  0  0  0  0  0  0  0  0  0  0
  128.9650  123.3450   61.0510 C   0  0  0  0  0  0  0  0  0  0  0  0
  129.2060  123.0250   59.7070 C   0  0  0  0  0  0  0  0  0  0  0  0
  128.1550  122.7850   58.8260 C   0  0  0  0  0  0  0  0  0  0  0  0
  126.8430  122.8650   59.2800 C   0  0  0  0  0  0  0  0  0  0  0  0
  126.5750  123.1830   60.6080 C   0  0  0  0  0  0  0  0  0  0  0  0
  127.6300  123.4230   61.4850 C   0  0  0  0  0  0  0  0  0  0  0  0
  131.4370  123.6220   61.5750 C   0  0  0  0  0  0  0  0  0  0  0  0
  132.4560  123.8700   62.5010 C   0  0  0  0  0  0  0  0  0  0  0  0
  133.8980  123.9000   61.9960 C   0  0  0  0  0  0  0  0  0  0  0  0
  132.1210  124.0850   63.8560 C   0  0  0  0  0  0  0  0  0  0  0  0
  133.1670  124.3950   64.8330 C   0  0  0  0  0  0  0  0  0  0  0  0
  133.9950  124.6390   65.6040 N   0  0  0  0  0  0  0  0  0  0  0  0
  127.8620  126.8170   70.2640 C   0  0  0  0  0  0  0  0  0  0  0  0
  127.6750  126.8970   71.6420 C   0  0  0  0  0  0  0  0  0  0  0  0
  127.3195  126.7769   75.5778 H   0  0  0  0  0  0  0  0  0  0  0  0
  127.3687  127.8897   74.1686 H   0  0  0  0  0  0  0  0  0  0  0  0
  126.2432  126.4898   74.1686 H   0  0  0  0  0  0  0  0  0  0  0  0
  129.7742  124.3950   72.6292 H   0  0  0  0  0  0  0  0  0  0  0  0
  130.1049  124.2417   70.1706 H   0  0  0  0  0  0  0  0  0  0  0  0
  128.6980  124.8100   67.9830 H   0  0  0  0  0  0  0  0  0  0  0  0
  128.7121  126.1659   65.5845 H   0  0  0  0  0  0  0  0  0  0  0  0
  130.5022  126.5892   65.5598 H   0  0  0  0  0  0  0  0  0  0  0  0
  130.2422  122.9626   59.3430 H   0  0  0  0  0  0  0  0  0  0  0  0
  128.3615  122.5332   57.7753 H   0  0  0  0  0  0  0  0  0  0  0  0
  126.0117  122.6757   58.5849 H   0  0  0  0  0  0  0  0  0  0  0  0
  125.5357  123.2445   60.9631 H   0  0  0  0  0  0  0  0  0  0  0  0
  127.4154  123.6775   62.5334 H   0  0  0  0  0  0  0  0  0  0  0  0
  131.6849  123.4429   60.5184 H   0  0  0  0  0  0  0  0  0  0  0  0
  134.5866  123.9143   62.8537 H   0  0  0  0  0  0  0  0  0  0  0  0
  134.0914  123.0057   61.3854 H   0  0  0  0  0  0  0  0  0  0  0  0
  134.0540  124.8016   61.3854 H   0  0  0  0  0  0  0  0  0  0  0  0
  127.3145  127.4969   69.5947 H   0  0  0  0  0  0  0  0  0  0  0  0
  126.9834  127.6447   72.0576 H   0  0  0  0  0  0  0  0  0  0  0  0
  1  2  1  0
  2  3  1  0
  3  4  2  0
  4  5  1  0
  5  6  2  0
  6  7  1  0
  7  8  1  0
  8  9  2  0
  8 10  1  0
 10 11  1  0
 11 12  1  0
 12 13  2  0
 13 14  1  0
 14 15  1  0
 15 16  2  0
 16 17  1  0
 17 18  2  0
 18 19  1  0
 19 20  2  0
 14 21  2  0
 21 22  1  0
 22 23  1  0
 22 24  2  0
 24 25  1  0
 25 26  3  0
  6 27  1  0
 27 28  2  0
 28  3  1  0
 24 12  1  0
 20 15  1  0
  1 29  1  0
  1 30  1  0
  1 31  1  0
  4 32  1  0
  5 33  1  0
  7 34  1  0
 10 35  1  0
 10 36  1  0
 16 37  1  0
 17 38  1  0
 18 39  1  0
 19 40  1  0
 20 41  1  0
 21 42  1  0
 23 43  1  0
 23 44  1  0
 23 45  1  0
 27 46  1  0
 28 47  1  0
M  END
>  <Binding energies>  (1) 
[-8.28]

>  <Ligand effiencies>  (1) 
[-0.28551724137931034]

>  <Interactions>  (1) 
["H-A:HIS:456:NE2:4070, V-A:HIS:456:CD2:4068, V-B:GLU:543:CD:9880, V-B:TYR:539:CD2:9846, V-B:GLU:543:CB:9878, H-A:TYR:484:OH:4348, V-B:GLU:543:C:9874, V-B:HIS:456:CE1:9040, V-B:TYR:539:CE2:9848, V-A:HIS:456:CE1:4069, V-B:GLU:543:CG:9879, V-B:PRO:540:CA:9855, V-B:GLY:544:C:9884, H-B:LYS:547:NZ:9923, V-B:PRO:540:CB:9857, V-B:PRO:540:C:9853, V-B:PRO:540:N:9856, H-A:GLY:454:N:4050, H-A:ARG:545:NE:4924, H-B:GLU:543:O:9875, V-B:LYS:547:CD:9921"]

$$$$
3bd_Grossjean_2025
     RDKit          3D

 43 45  0  0  0  0  0  0  0  0999 V2000
  129.7750  124.9390   64.7370 C   0  0  0  0  0  0  0  0  0  0  0  0
  129.2410  125.7940   65.8850 C   0  0  0  0  0  0  0  0  0  0  0  0
  129.5070  125.3820   67.1960 C   0  0  0  0  0  0  0  0  0  0  0  0
  129.0320  126.1350   68.2760 C   0  0  0  0  0  0  0  0  0  0  0  0
  129.2840  125.7530   69.7040 C   0  0  0  0  0  0  0  0  0  0  0  0
  129.8790  124.5220   70.0230 C   0  0  0  0  0  0  0  0  0  0  0  0
  130.1140  124.1600   71.3470 C   0  0  0  0  0  0  0  0  0  0  0  0
  129.7550  125.0270   72.3740 C   0  0  0  0  0  0  0  0  0  0  0  0
  129.1610  126.2510   72.0850 C   0  0  0  0  0  0  0  0  0  0  0  0
  128.9280  126.6090   70.7600 C   0  0  0  0  0  0  0  0  0  0  0  0
  128.3240  127.2760   68.0690 N   0  0  0  0  0  0  0  0  0  0  0  0
  128.0570  127.6910   66.8050 C   0  0  0  0  0  0  0  0  0  0  0  0
  127.1090  129.1980   66.6690 S   0  0  0  0  0  0  0  0  0  0  0  0
  125.3730  128.7460   66.3740 C   0  0  0  0  0  0  0  0  0  0  0  0
  124.7720  129.5160   65.1970 C   0  0  0  0  0  0  0  0  0  0  0  0
  123.8310  130.2820   65.4010 O   0  0  0  0  0  0  0  0  0  0  0  0
  125.3330  129.2730   63.9920 N   0  0  0  0  0  0  0  0  0  0  0  0
  125.0230  129.8380   62.7410 C   0  0  0  0  0  0  0  0  0  0  0  0
  123.9330  130.7120   62.7140 C   0  0  0  0  0  0  0  0  0  0  0  0
  123.5460  131.3140   61.5200 C   0  0  0  0  0  0  0  0  0  0  0  0
  124.2430  131.0340   60.3480 C   0  0  0  0  0  0  0  0  0  0  0  0
  125.3230  130.1540   60.3590 C   0  0  0  0  0  0  0  0  0  0  0  0
  125.7130  129.5520   61.5520 C   0  0  0  0  0  0  0  0  0  0  0  0
  128.4980  126.9740   65.6710 C   0  0  0  0  0  0  0  0  0  0  0  0
  128.2040  127.4340   64.3100 C   0  0  0  0  0  0  0  0  0  0  0  0
  127.9740  127.7960   63.2360 N   0  0  0  0  0  0  0  0  0  0  0  0
  130.3160  124.0728   65.1458 H   0  0  0  0  0  0  0  0  0  0  0  0
  128.9350  124.5885   64.1193 H   0  0  0  0  0  0  0  0  0  0  0  0
  130.4585  125.5401   64.1193 H   0  0  0  0  0  0  0  0  0  0  0  0
  130.0893  124.4666   67.3775 H   0  0  0  0  0  0  0  0  0  0  0  0
  130.1640  123.8327   69.2145 H   0  0  0  0  0  0  0  0  0  0  0  0
  130.5818  123.1920   71.5799 H   0  0  0  0  0  0  0  0  0  0  0  0
  129.9419  124.7430   73.4201 H   0  0  0  0  0  0  0  0  0  0  0  0
  128.8766  126.9331   72.8998 H   0  0  0  0  0  0  0  0  0  0  0  0
  128.4575  127.5778   70.5360 H   0  0  0  0  0  0  0  0  0  0  0  0
  125.3183  127.6687   66.1585 H   0  0  0  0  0  0  0  0  0  0  0  0
  124.7976  129.0013   67.2761 H   0  0  0  0  0  0  0  0  0  0  0  0
  126.0360  128.5490   63.9620 H   0  0  0  0  0  0  0  0  0  0  0  0
  123.3786  130.9251   63.6399 H   0  0  0  0  0  0  0  0  0  0  0  0
  122.6929  132.0082   61.5027 H   0  0  0  0  0  0  0  0  0  0  0  0
  123.9384  131.5117   59.4051 H   0  0  0  0  0  0  0  0  0  0  0  0
  125.8660  129.9355   59.4276 H   0  0  0  0  0  0  0  0  0  0  0  0
  126.5617  128.8523   61.5633 H   0  0  0  0  0  0  0  0  0  0  0  0
  1  2  1  0
  2  3  2  0
  3  4  1  0
  4  5  1  0
  5  6  2  0
  6  7  1  0
  7  8  2  0
  8  9  1  0
  9 10  2  0
  4 11  2  0
 11 12  1  0
 12 13  1  0
 13 14  1  0
 14 15  1  0
 15 16  2  0
 15 17  1  0
 17 18  1  0
 18 19  2  0
 19 20  1  0
 20 21  2  0
 21 22  1  0
 22 23  2  0
 12 24  2  0
 24 25  1  0
 25 26  3  0
 24  2  1  0
 10  5  1  0
 23 18  1  0
  1 27  1  0
  1 28  1  0
  1 29  1  0
  3 30  1  0
  6 31  1  0
  7 32  1  0
  8 33  1  0
  9 34  1  0
 10 35  1  0
 14 36  1  0
 14 37  1  0
 17 38  1  0
 19 39  1  0
 20 40  1  0
 21 41  1  0
 22 42  1  0
 23 43  1  0
M  END
>  <Binding energies>  (1) 
[-7.51]

>  <Ligand effiencies>  (1) 
[-0.27814814814814814]

>  <Interactions>  (1) 
["V-A:HIS:456:CD2:4068, V-B:GLU:543:CD:9880, V-B:GLU:543:CB:9878, V-A:TYR:484:CZ:4347, V-A:TYR:484:CE1:4345, V-B:HIS:456:CE1:9040, V-A:HIS:456:CE1:4069, V-B:GLU:543:CG:9879, V-B:ARG:545:CD:9895, V-B:ARG:545:CZ:9898, H-B:TYR:484:OH:9319, V-B:ARG:545:CG:9894, V-B:ILE:369:CD1:8210, H-B:GLY:454:N:9021, H-B:ARG:545:NE:9896, V-B:ASP:366:CG:8184, H-B:GLU:543:OE1:9881, V-A:HIS:456:CG:4066"]

$$$$
3be_Grossjean_2025
     RDKit          3D

 45 47  0  0  0  0  0  0  0  0999 V2000
  126.9300  122.5110   57.4630 C   0  0  0  0  0  0  0  0  0  0  0  0
  127.3240  122.5570   58.9260 C   0  0  0  0  0  0  0  0  0  0  0  0
  126.4920  123.1320   59.8890 C   0  0  0  0  0  0  0  0  0  0  0  0
  126.9200  123.1430   61.2170 C   0  0  0  0  0  0  0  0  0  0  0  0
  128.1580  122.5830   61.5470 C   0  0  0  0  0  0  0  0  0  0  0  0
  128.9410  122.0200   60.5330 C   0  0  0  0  0  0  0  0  0  0  0  0
  130.1800  121.4820   60.9280 N   0  0  0  0  0  0  0  0  0  0  0  0
  130.6930  120.2600   60.6680 C   0  0  0  0  0  0  0  0  0  0  0  0
  130.1190  119.3840   60.0180 O   0  0  0  0  0  0  0  0  0  0  0  0
  132.0920  120.0130   61.2520 C   0  0  0  0  0  0  0  0  0  0  0  0
  133.3350  121.2900   60.8580 S   0  0  0  0  0  0  0  0  0  0  0  0
  132.5640  122.8840   61.0330 C   0  0  0  0  0  0  0  0  0  0  0  0
  132.0390  123.1020   62.2640 N   0  0  0  0  0  0  0  0  0  0  0  0
  131.4220  124.2810   62.5400 C   0  0  0  0  0  0  0  0  0  0  0  0
  130.8570  124.4370   63.9200 C   0  0  0  0  0  0  0  0  0  0  0  0
  131.1500  125.5720   64.6930 C   0  0  0  0  0  0  0  0  0  0  0  0
  130.6310  125.7210   65.9750 C   0  0  0  0  0  0  0  0  0  0  0  0
  129.8090  124.7330   66.5060 C   0  0  0  0  0  0  0  0  0  0  0  0
  129.5040  123.5970   65.7640 C   0  0  0  0  0  0  0  0  0  0  0  0
  130.0260  123.4520   64.4810 C   0  0  0  0  0  0  0  0  0  0  0  0
  131.3160  125.2790   61.5650 C   0  0  0  0  0  0  0  0  0  0  0  0
  131.8730  125.0810   60.2970 C   0  0  0  0  0  0  0  0  0  0  0  0
  131.7480  126.2050   59.2710 C   0  0  0  0  0  0  0  0  0  0  0  0
  132.5260  123.8620   60.0130 C   0  0  0  0  0  0  0  0  0  0  0  0
  133.1640  123.6540   58.7110 C   0  0  0  0  0  0  0  0  0  0  0  0
  133.6670  123.4930   57.6820 N   0  0  0  0  0  0  0  0  0  0  0  0
  128.5280  122.0100   59.2320 N   0  0  0  0  0  0  0  0  0  0  0  0
  125.8405  122.3838   57.3805 H   0  0  0  0  0  0  0  0  0  0  0  0
  127.2276  123.4500   56.9734 H   0  0  0  0  0  0  0  0  0  0  0  0
  127.4359  121.6658   56.9734 H   0  0  0  0  0  0  0  0  0  0  0  0
  125.5215  123.5663   59.6071 H   0  0  0  0  0  0  0  0  0  0  0  0
  126.2879  123.5891   61.9989 H   0  0  0  0  0  0  0  0  0  0  0  0
  128.5114  122.5850   62.5887 H   0  0  0  0  0  0  0  0  0  0  0  0
  130.7400  122.0950   61.5030 H   0  0  0  0  0  0  0  0  0  0  0  0
  131.9986  119.9553   62.3465 H   0  0  0  0  0  0  0  0  0  0  0  0
  132.4547  119.0818   60.7923 H   0  0  0  0  0  0  0  0  0  0  0  0
  131.8005  126.3560   64.2781 H   0  0  0  0  0  0  0  0  0  0  0  0
  130.8699  126.6171   66.5666 H   0  0  0  0  0  0  0  0  0  0  0  0
  129.3974  124.8507   67.5193 H   0  0  0  0  0  0  0  0  0  0  0  0
  128.8541  122.8174   66.1881 H   0  0  0  0  0  0  0  0  0  0  0  0
  129.7839  122.5518   63.8971 H   0  0  0  0  0  0  0  0  0  0  0  0
  130.7945  126.2197   61.7956 H   0  0  0  0  0  0  0  0  0  0  0  0
  131.6410  127.1675   59.7927 H   0  0  0  0  0  0  0  0  0  0  0  0
  132.6491  126.2279   58.6406 H   0  0  0  0  0  0  0  0  0  0  0  0
  130.8639  126.0293   58.6406 H   0  0  0  0  0  0  0  0  0  0  0  0
  1  2  1  0
  2  3  2  0
  3  4  1  0
  4  5  2  0
  5  6  1  0
  6  7  1  0
  7  8  1  0
  8  9  2  0
  8 10  1  0
 10 11  1  0
 11 12  1  0
 12 13  2  0
 13 14  1  0
 14 15  1  0
 15 16  2  0
 16 17  1  0
 17 18  2  0
 18 19  1  0
 19 20  2  0
 14 21  2  0
 21 22  1  0
 22 23  1  0
 22 24  2  0
 24 25  1  0
 25 26  3  0
  6 27  2  0
 27  2  1  0
 24 12  1  0
 20 15  1  0
  1 28  1  0
  1 29  1  0
  1 30  1  0
  3 31  1  0
  4 32  1  0
  5 33  1  0
  7 34  1  0
 10 35  1  0
 10 36  1  0
 16 37  1  0
 17 38  1  0
 18 39  1  0
 19 40  1  0
 20 41  1  0
 21 42  1  0
 23 43  1  0
 23 44  1  0
 23 45  1  0
M  END
>  <Binding energies>  (1) 
[-7.17]

>  <Ligand effiencies>  (1) 
[-0.25607142857142856]

>  <Interactions>  (1) 
["V-B:GLU:543:CA:9876, V-A:GLU:543:CD:4908, V-B:GLU:543:CD:9880, V-A:ASP:366:CG:3213, V-B:TYR:539:CD2:9846, V-A:LEU:475:CD1:4258, V-B:GLU:543:CB:9878, V-A:TYR:484:CZ:4347, V-A:TYR:484:CE1:4345, V-B:TYR:539:CE2:9848, V-A:HIS:456:CE1:4069, V-B:GLU:543:CG:9879, V-B:PRO:540:CA:9855, V-B:ALA:541:CB:9864, V-B:TYR:539:CZ:9849, V-B:TYR:539:C:9839, V-B:PRO:540:CB:9857, V-B:PRO:540:C:9853, V-B:PRO:540:N:9856, V-A:ILE:369:CG2:3237, V-B:ALA:541:CA:9862, V-A:TRP:381:CH2:3372, V-A:ASP:366:CB:3212, V-B:PRO:540:CD:9859, H-B:TYR:539:OH:9850"]

$$$$
3bf_Grossjean_2025
     RDKit          3D

 42 44  0  0  0  0  0  0  0  0999 V2000
  133.9770  125.2910   65.1920 C   0  0  0  0  0  0  0  0  0  0  0  0
  132.5090  124.8790   65.1150 C   0  0  0  0  0  0  0  0  0  0  0  0
  131.6060  125.4900   65.9900 C   0  0  0  0  0  0  0  0  0  0  0  0
  130.2490  125.1530   65.9430 C   0  0  0  0  0  0  0  0  0  0  0  0
  129.2270  125.7870   66.8390 C   0  0  0  0  0  0  0  0  0  0  0  0
  128.2500  126.6480   66.3130 C   0  0  0  0  0  0  0  0  0  0  0  0
  127.2990  127.2410   67.1380 C   0  0  0  0  0  0  0  0  0  0  0  0
  127.3130  126.9810   68.5050 C   0  0  0  0  0  0  0  0  0  0  0  0
  128.2710  126.1340   69.0500 C   0  0  0  0  0  0  0  0  0  0  0  0
  129.2220  125.5430   68.2220 C   0  0  0  0  0  0  0  0  0  0  0  0
  129.7900  124.2330   65.0530 N   0  0  0  0  0  0  0  0  0  0  0  0
  130.6570  123.6140   64.2150 C   0  0  0  0  0  0  0  0  0  0  0  0
  129.8790  122.4380   63.1270 S   0  0  0  0  0  0  0  0  0  0  0  0
  128.5010  123.2790   62.2770 C   0  0  0  0  0  0  0  0  0  0  0  0
  128.0860  122.6580   60.9350 C   0  0  0  0  0  0  0  0  0  0  0  0
  128.4040  121.5010   60.6520 O   0  0  0  0  0  0  0  0  0  0  0  0
  127.3440  123.4650   60.1460 N   0  0  0  0  0  0  0  0  0  0  0  0
  126.8200  123.2090   58.8660 C   0  0  0  0  0  0  0  0  0  0  0  0
  125.5760  123.7730   58.5610 C   0  0  0  0  0  0  0  0  0  0  0  0
  125.0080  123.5670   57.3020 C   0  0  0  0  0  0  0  0  0  0  0  0
  125.7100  122.8000   56.3720 C   0  0  0  0  0  0  0  0  0  0  0  0
  126.9220  122.2500   56.6360 N   0  0  0  0  0  0  0  0  0  0  0  0
  127.4620  122.4590   57.8650 C   0  0  0  0  0  0  0  0  0  0  0  0
  132.0350  123.9190   64.1940 C   0  0  0  0  0  0  0  0  0  0  0  0
  132.9560  123.3030   63.2350 C   0  0  0  0  0  0  0  0  0  0  0  0
  133.6840  122.8160   62.4780 N   0  0  0  0  0  0  0  0  0  0  0  0
  134.2792  125.3758   66.2463 H   0  0  0  0  0  0  0  0  0  0  0  0
  134.5975  124.5323   64.6926 H   0  0  0  0  0  0  0  0  0  0  0  0
  134.1121  126.2618   64.6926 H   0  0  0  0  0  0  0  0  0  0  0  0
  131.9625  126.2359   66.7156 H   0  0  0  0  0  0  0  0  0  0  0  0
  128.2363  126.8567   65.2331 H   0  0  0  0  0  0  0  0  0  0  0  0
  126.5394  127.9125   66.7113 H   0  0  0  0  0  0  0  0  0  0  0  0
  126.5615  127.4485   69.1582 H   0  0  0  0  0  0  0  0  0  0  0  0
  128.2779  125.9313   70.1311 H   0  0  0  0  0  0  0  0  0  0  0  0
  129.9801  124.8755   68.6575 H   0  0  0  0  0  0  0  0  0  0  0  0
  127.6273  123.2615   62.9451 H   0  0  0  0  0  0  0  0  0  0  0  0
  128.8572  124.2941   62.0473 H   0  0  0  0  0  0  0  0  0  0  0  0
  127.0860  124.3610   60.5340 H   0  0  0  0  0  0  0  0  0  0  0  0
  125.0464  124.3777   59.3119 H   0  0  0  0  0  0  0  0  0  0  0  0
  124.0289  123.9999   57.0493 H   0  0  0  0  0  0  0  0  0  0  0  0
  125.2615  122.6338   55.3815 H   0  0  0  0  0  0  0  0  0  0  0  0
  128.4465  122.0214   58.0871 H   0  0  0  0  0  0  0  0  0  0  0  0
  1  2  1  0
  2  3  2  0
  3  4  1  0
  4  5  1  0
  5  6  2  0
  6  7  1  0
  7  8  2  0
  8  9  1  0
  9 10  2  0
  4 11  2  0
 11 12  1  0
 12 13  1  0
 13 14  1  0
 14 15  1  0
 15 16  2  0
 15 17  1  0
 17 18  1  0
 18 19  2  0
 19 20  1  0
 20 21  2  0
 21 22  1  0
 22 23  2  0
 12 24  2  0
 24 25  1  0
 25 26  3  0
 24  2  1  0
 10  5  1  0
 23 18  1  0
  1 27  1  0
  1 28  1  0
  1 29  1  0
  3 30  1  0
  6 31  1  0
  7 32  1  0
  8 33  1  0
  9 34  1  0
 10 35  1  0
 14 36  1  0
 14 37  1  0
 17 38  1  0
 19 39  1  0
 20 40  1  0
 21 41  1  0
 23 42  1  0
M  END
>  <Binding energies>  (1) 
[-8.38]

>  <Ligand effiencies>  (1) 
[-0.3103703703703704]

>  <Interactions>  (1) 
["V-B:GLU:543:CD:9880, V-B:TYR:539:CD2:9846, H-B:ALA:541:N:9863, V-B:GLU:543:CB:9878, H-A:TYR:484:OH:4348, V-B:GLU:543:C:9874, V-B:HIS:456:CE1:9040, V-B:TYR:539:CE2:9848, V-A:HIS:456:CE1:4069, V-B:GLU:543:CG:9879, V-A:ARG:545:CZ:4926, V-B:PRO:540:CA:9855, V-B:ALA:541:CB:9864, V-B:TYR:539:C:9839, V-B:PRO:540:CB:9857, V-B:PRO:540:N:9856, V-A:GLY:453:CA:4044, V-A:GLY:454:CA:4049, H-A:GLY:454:N:4050, V-A:ARG:545:CD:4923, H-B:GLU:543:OE2:9882, V-B:TYR:539:CG:9844, V-B:LEU:363:CD1:8160, V-B:PRO:540:CD:9859, V-B:ILE:538:CB:9834, H-B:TYR:539:N:9842, V-B:ILE:538:CG2:9835"]

$$$$
3bg_Grossjean_2025
     RDKit          3D

 46 48  0  0  0  0  0  0  0  0999 V2000
  128.7500  125.0530   63.0430 C   0  0  0  0  0  0  0  0  0  0  0  0
  128.6570  123.8320   62.1290 C   0  0  0  0  0  0  0  0  0  0  0  0
  127.9380  123.9530   60.9360 C   0  0  0  0  0  0  0  0  0  0  0  0
  127.8350  122.8600   60.0650 C   0  0  0  0  0  0  0  0  0  0  0  0
  127.0870  122.9260   58.7610 C   0  0  0  0  0  0  0  0  0  0  0  0
  125.8130  123.5120   58.6860 C   0  0  0  0  0  0  0  0  0  0  0  0
  125.1260  123.5910   57.4790 C   0  0  0  0  0  0  0  0  0  0  0  0
  125.7020  123.0800   56.3210 C   0  0  0  0  0  0  0  0  0  0  0  0
  126.9560  122.4830   56.3670 C   0  0  0  0  0  0  0  0  0  0  0  0
  127.6390  122.4040   57.5780 C   0  0  0  0  0  0  0  0  0  0  0  0
  128.4450  121.6810   60.3600 N   0  0  0  0  0  0  0  0  0  0  0  0
  129.1490  121.5480   61.5140 C   0  0  0  0  0  0  0  0  0  0  0  0
  129.9290  119.9610   61.7660 S   0  0  0  0  0  0  0  0  0  0  0  0
  131.1660  119.7170   60.4500 C   0  0  0  0  0  0  0  0  0  0  0  0
  132.1090  120.9180   60.3240 C   0  0  0  0  0  0  0  0  0  0  0  0
  133.3150  120.7750   60.5280 O   0  0  0  0  0  0  0  0  0  0  0  0
  131.5400  122.0950   60.0120 N   0  0  0  0  0  0  0  0  0  0  0  0
  132.2150  123.3930   60.0190 C   0  0  0  0  0  0  0  0  0  0  0  0
  132.3950  123.9300   61.4350 C   0  0  0  0  0  0  0  0  0  0  0  0
  131.8510  125.1690   61.7880 C   0  0  0  0  0  0  0  0  0  0  0  0
  132.0240  125.6630   63.0770 C   0  0  0  0  0  0  0  0  0  0  0  0
  132.7300  124.9120   64.0150 C   0  0  0  0  0  0  0  0  0  0  0  0
  133.2570  123.6670   63.6770 C   0  0  0  0  0  0  0  0  0  0  0  0
  133.0840  123.1730   62.3860 C   0  0  0  0  0  0  0  0  0  0  0  0
  129.2770  122.6030   62.4400 C   0  0  0  0  0  0  0  0  0  0  0  0
  130.0430  122.4490   63.6790 C   0  0  0  0  0  0  0  0  0  0  0  0
  130.6480  122.3290   64.6580 N   0  0  0  0  0  0  0  0  0  0  0  0
  128.7252  124.7274   64.0934 H   0  0  0  0  0  0  0  0  0  0  0  0
  129.6914  125.5871   62.8468 H   0  0  0  0  0  0  0  0  0  0  0  0
  127.9003  125.7235   62.8468 H   0  0  0  0  0  0  0  0  0  0  0  0
  127.4529  124.9067   60.6809 H   0  0  0  0  0  0  0  0  0  0  0  0
  125.3499  123.9159   59.5983 H   0  0  0  0  0  0  0  0  0  0  0  0
  124.1300  124.0563   57.4406 H   0  0  0  0  0  0  0  0  0  0  0  0
  125.1628  123.1487   55.3647 H   0  0  0  0  0  0  0  0  0  0  0  0
  127.4072  122.0746   55.4507 H   0  0  0  0  0  0  0  0  0  0  0  0
  128.6285  121.9244   57.6096 H   0  0  0  0  0  0  0  0  0  0  0  0
  131.7602  118.8208   60.6819 H   0  0  0  0  0  0  0  0  0  0  0  0
  130.6310  119.6014   59.4958 H   0  0  0  0  0  0  0  0  0  0  0  0
  130.5410  122.1180   59.8670 H   0  0  0  0  0  0  0  0  0  0  0  0
  133.2046  123.2822   59.5517 H   0  0  0  0  0  0  0  0  0  0  0  0
  131.5913  124.1058   59.4597 H   0  0  0  0  0  0  0  0  0  0  0  0
  131.2863  125.7530   61.0464 H   0  0  0  0  0  0  0  0  0  0  0  0
  131.6055  126.6417   63.3545 H   0  0  0  0  0  0  0  0  0  0  0  0
  132.8727  125.3058   65.0321 H   0  0  0  0  0  0  0  0  0  0  0  0
  133.8066  123.0775   64.4256 H   0  0  0  0  0  0  0  0  0  0  0  0
  133.4898  122.1871   62.1153 H   0  0  0  0  0  0  0  0  0  0  0  0
  1  2  1  0
  2  3  2  0
  3  4  1  0
  4  5  1  0
  5  6  2  0
  6  7  1  0
  7  8  2  0
  8  9  1  0
  9 10  2  0
  4 11  2  0
 11 12  1  0
 12 13  1  0
 13 14  1  0
 14 15  1  0
 15 16  2  0
 15 17  1  0
 17 18  1  0
 18 19  1  0
 19 20  2  0
 20 21  1  0
 21 22  2  0
 22 23  1  0
 23 24  2  0
 12 25  2  0
 25 26  1  0
 26 27  3  0
 25  2  1  0
 10  5  1  0
 24 19  1  0
  1 28  1  0
  1 29  1  0
  1 30  1  0
  3 31  1  0
  6 32  1  0
  7 33  1  0
  8 34  1  0
  9 35  1  0
 10 36  1  0
 14 37  1  0
 14 38  1  0
 17 39  1  0
 18 40  1  0
 18 41  1  0
 20 42  1  0
 21 43  1  0
 22 44  1  0
 23 45  1  0
 24 46  1  0
M  END
>  <Binding energies>  (1) 
[-7.08]

>  <Ligand effiencies>  (1) 
[-0.25285714285714284]

>  <Interactions>  (1) 
["V-B:GLU:543:CD:9880, V-B:TYR:539:CD2:9846, V-A:LEU:475:CD1:4258, H-B:ALA:541:N:9863, H-A:TYR:484:OH:4348, V-B:TYR:539:CE2:9848, V-B:GLU:543:CG:9879, V-A:ARG:545:CZ:4926, V-B:PRO:540:CA:9855, V-B:ALA:541:CB:9864, V-B:TYR:539:CZ:9849, V-B:TYR:539:C:9839, V-B:PRO:540:CB:9857, V-B:PRO:540:N:9856, V-A:GLY:454:CA:4049, V-A:TRP:381:CZ2:3370, V-B:ALA:541:CA:9862, V-A:TRP:381:CH2:3372, V-B:TYR:539:CG:9844, V-B:LEU:363:CD1:8160, V-B:PRO:540:CD:9859, V-B:ILE:538:CB:9834, V-B:TYR:539:CD1:9845, V-B:ILE:538:CG2:9835"]

$$$$
3bk_Grossjean_2025
     RDKit          3D

 57 58  0  0  0  0  0  0  0  0999 V2000
  132.8920  125.3720   57.2060 C   0  0  0  0  0  0  0  0  0  0  0  0
  133.6000  124.1550   57.3810 O   0  0  0  0  0  0  0  0  0  0  0  0
  133.7830  123.7970   58.7440 C   0  0  0  0  0  0  0  0  0  0  0  0
  132.4540  123.9410   59.4980 C   0  0  0  0  0  0  0  0  0  0  0  0
  132.0040  122.6580   59.9080 O   0  0  0  0  0  0  0  0  0  0  0  0
  133.0340  121.6800   59.9690 C   0  0  0  0  0  0  0  0  0  0  0  0
  133.0090  121.0040   61.3460 C   0  0  0  0  0  0  0  0  0  0  0  0
  131.6630  120.8840   61.7880 O   0  0  0  0  0  0  0  0  0  0  0  0
  130.8570  120.0580   60.9580 C   0  0  0  0  0  0  0  0  0  0  0  0
  129.4920  120.7280   60.7420 C   0  0  0  0  0  0  0  0  0  0  0  0
  129.5040  122.1460   61.1080 N   0  0  0  0  0  0  0  0  0  0  0  0
  128.4160  122.9050   61.3250 C   0  0  0  0  0  0  0  0  0  0  0  0
  127.2610  122.4800   61.2570 O   0  0  0  0  0  0  0  0  0  0  0  0
  128.6680  124.3670   61.7010 C   0  0  0  0  0  0  0  0  0  0  0  0
  130.4430  124.7740   61.6980 S   0  0  0  0  0  0  0  0  0  0  0  0
  130.9680  125.1000   63.3720 C   0  0  0  0  0  0  0  0  0  0  0  0
  130.0040  125.5370   64.2220 N   0  0  0  0  0  0  0  0  0  0  0  0
  130.3130  125.8130   65.5160 C   0  0  0  0  0  0  0  0  0  0  0  0
  129.1850  126.2710   66.3920 C   0  0  0  0  0  0  0  0  0  0  0  0
  128.2730  127.2380   65.9400 C   0  0  0  0  0  0  0  0  0  0  0  0
  127.2270  127.6710   66.7510 C   0  0  0  0  0  0  0  0  0  0  0  0
  127.0780  127.1410   68.0280 C   0  0  0  0  0  0  0  0  0  0  0  0
  127.9660  126.1780   68.4980 C   0  0  0  0  0  0  0  0  0  0  0  0
  129.0090  125.7470   67.6840 C   0  0  0  0  0  0  0  0  0  0  0  0
  131.6180  125.6470   65.9940 C   0  0  0  0  0  0  0  0  0  0  0  0
  132.6240  125.1980   65.1320 C   0  0  0  0  0  0  0  0  0  0  0  0
  134.0350  125.0300   65.6930 C   0  0  0  0  0  0  0  0  0  0  0  0
  132.3050  124.9140   63.7870 C   0  0  0  0  0  0  0  0  0  0  0  0
  133.3380  124.4400   62.8620 C   0  0  0  0  0  0  0  0  0  0  0  0
  134.1540  124.0660   62.1310 N   0  0  0  0  0  0  0  0  0  0  0  0
  132.6447  125.7971   58.1899 H   0  0  0  0  0  0  0  0  0  0  0  0
  133.5175  126.0829   56.6462 H   0  0  0  0  0  0  0  0  0  0  0  0
  131.9649  125.1796   56.6462 H   0  0  0  0  0  0  0  0  0  0  0  0
  134.1274  122.7541   58.8053 H   0  0  0  0  0  0  0  0  0  0  0  0
  134.5338  124.4605   59.1979 H   0  0  0  0  0  0  0  0  0  0  0  0
  132.6008  124.5785   60.3823 H   0  0  0  0  0  0  0  0  0  0  0  0
  131.7040  124.4000   58.8371 H   0  0  0  0  0  0  0  0  0  0  0  0
  132.8709  120.9250   59.1858 H   0  0  0  0  0  0  0  0  0  0  0  0
  134.0102  122.1621   59.8124 H   0  0  0  0  0  0  0  0  0  0  0  0
  133.4618  120.0042   61.2724 H   0  0  0  0  0  0  0  0  0  0  0  0
  133.5792  121.6114   62.0643 H   0  0  0  0  0  0  0  0  0  0  0  0
  131.3543  119.9171   59.9870 H   0  0  0  0  0  0  0  0  0  0  0  0
  130.7137  119.0803   61.4413 H   0  0  0  0  0  0  0  0  0  0  0  0
  129.2185  120.6391   59.6802 H   0  0  0  0  0  0  0  0  0  0  0  0
  128.7619  120.2199   61.3891 H   0  0  0  0  0  0  0  0  0  0  0  0
  130.4150  122.5590   61.2440 H   0  0  0  0  0  0  0  0  0  0  0  0
  128.1537  125.0143   60.9754 H   0  0  0  0  0  0  0  0  0  0  0  0
  128.2836  124.5278   62.7190 H   0  0  0  0  0  0  0  0  0  0  0  0
  128.3863  127.6598   64.9304 H   0  0  0  0  0  0  0  0  0  0  0  0
  126.5209  128.4298   66.3827 H   0  0  0  0  0  0  0  0  0  0  0  0
  126.2537  127.4848   68.6702 H   0  0  0  0  0  0  0  0  0  0  0  0
  127.8440  125.7596   69.5080 H   0  0  0  0  0  0  0  0  0  0  0  0
  129.7072  124.9836   68.0580 H   0  0  0  0  0  0  0  0  0  0  0  0
  131.8521  125.8692   67.0456 H   0  0  0  0  0  0  0  0  0  0  0  0
  133.9955  125.0347   66.7923 H   0  0  0  0  0  0  0  0  0  0  0  0
  134.4566  124.0753   65.3453 H   0  0  0  0  0  0  0  0  0  0  0  0
  134.6689  125.8590   65.3453 H   0  0  0  0  0  0  0  0  0  0  0  0
  1  2  1  0
  2  3  1  0
  3  4  1  0
  4  5  1  0
  5  6  1  0
  6  7  1  0
  7  8  1  0
  8  9  1  0
  9 10  1  0
 10 11  1  0
 11 12  1  0
 12 13  2  0
 12 14  1  0
 14 15  1  0
 15 16  1  0
 16 17  2  0
 17 18  1  0
 18 19  1  0
 19 20  2  0
 20 21  1  0
 21 22  2  0
 22 23  1  0
 23 24  2  0
 18 25  2  0
 25 26  1  0
 26 27  1  0
 26 28  2  0
 28 29  1  0
 29 30  3  0
 28 16  1  0
 24 19  1  0
  1 31  1  0
  1 32  1  0
  1 33  1  0
  3 34  1  0
  3 35  1  0
  4 36  1  0
  4 37  1  0
  6 38  1  0
  6 39  1  0
  7 40  1  0
  7 41  1  0
  9 42  1  0
  9 43  1  0
 10 44  1  0
 10 45  1  0
 11 46  1  0
 14 47  1  0
 14 48  1  0
 20 49  1  0
 21 50  1  0
 22 51  1  0
 23 52  1  0
 24 53  1  0
 25 54  1  0
 27 55  1  0
 27 56  1  0
 27 57  1  0
M  END
>  <Binding energies>  (1) 
[-6.25]

>  <Ligand effiencies>  (1) 
[-0.20161290322580644]

>  <Interactions>  (1) 
["V-A:GLU:543:CD:4908, V-B:GLU:543:CD:9880, V-A:ASP:366:CG:3213, V-B:TYR:539:CD2:9846, V-A:LEU:475:CD1:4258, H-B:ALA:541:N:9863, V-B:GLU:543:CB:9878, V-B:GLU:543:C:9874, V-B:HIS:456:CE1:9040, V-B:TYR:539:CE2:9848, V-A:HIS:456:CE1:4069, V-B:GLU:543:CG:9879, V-A:ARG:545:CZ:4926, V-B:ALA:541:CB:9864, V-A:ILE:369:CD1:3239, V-A:GLY:453:CA:4044, V-A:ASP:366:CA:3210, V-A:ILE:369:CB:3236, V-A:ILE:369:CG2:3237, H-A:GLY:454:N:4050, V-A:ARG:545:CG:4922, V-A:ARG:545:CD:4923, V-A:TRP:381:CH2:3372, V-A:ASP:366:CB:3212, V-A:ASP:366:C:3208, H-B:TYR:539:OH:9850"]

$$$$
3ca_Grossjean_2025
     RDKit          3D

 52 54  0  0  0  0  0  0  0  0999 V2000
  125.1940  126.8690   74.3720 C   0  0  0  0  0  0  0  0  0  0  0  0
  125.8780  127.4740   73.1430 C   0  0  0  0  0  0  0  0  0  0  0  0
  127.2760  127.5790   73.3830 O   0  0  0  0  0  0  0  0  0  0  0  0
  128.1060  126.5270   73.1680 C   0  0  0  0  0  0  0  0  0  0  0  0
  128.4710  125.7550   74.0610 O   0  0  0  0  0  0  0  0  0  0  0  0
  128.5310  126.3890   71.7340 C   0  0  0  0  0  0  0  0  0  0  0  0
  129.0950  125.1820   71.3010 C   0  0  0  0  0  0  0  0  0  0  0  0
  129.4990  125.0240   69.9780 C   0  0  0  0  0  0  0  0  0  0  0  0
  129.3550  126.0700   69.0650 C   0  0  0  0  0  0  0  0  0  0  0  0
  129.7950  125.8040   67.7540 N   0  0  0  0  0  0  0  0  0  0  0  0
  129.6450  126.5370   66.6290 C   0  0  0  0  0  0  0  0  0  0  0  0
  129.0850  127.6300   66.5610 O   0  0  0  0  0  0  0  0  0  0  0  0
  130.2580  125.9260   65.3640 C   0  0  0  0  0  0  0  0  0  0  0  0
  131.9390  125.2690   65.6260 S   0  0  0  0  0  0  0  0  0  0  0  0
  132.4330  124.2870   64.2160 C   0  0  0  0  0  0  0  0  0  0  0  0
  133.6460  124.5860   63.6870 N   0  0  0  0  0  0  0  0  0  0  0  0
  134.0930  123.8710   62.6330 C   0  0  0  0  0  0  0  0  0  0  0  0
  135.4640  124.2540   62.1100 C   0  0  0  0  0  0  0  0  0  0  0  0
  133.3500  122.8440   62.0550 C   0  0  0  0  0  0  0  0  0  0  0  0
  132.0870  122.5270   62.5710 C   0  0  0  0  0  0  0  0  0  0  0  0
  131.3210  121.4280   61.9100 C   0  0  0  0  0  0  0  0  0  0  0  0
  131.9790  120.2650   61.4930 C   0  0  0  0  0  0  0  0  0  0  0  0
  131.2760  119.2390   60.8670 C   0  0  0  0  0  0  0  0  0  0  0  0
  129.9060  119.3750   60.6530 C   0  0  0  0  0  0  0  0  0  0  0  0
  129.2370  120.5280   61.0560 C   0  0  0  0  0  0  0  0  0  0  0  0
  129.9450  121.5520   61.6800 C   0  0  0  0  0  0  0  0  0  0  0  0
  131.6130  123.2600   63.6890 C   0  0  0  0  0  0  0  0  0  0  0  0
  130.3220  122.9400   64.3050 C   0  0  0  0  0  0  0  0  0  0  0  0
  129.3020  122.6860   64.7900 N   0  0  0  0  0  0  0  0  0  0  0  0
  128.7840  127.2790   69.4880 C   0  0  0  0  0  0  0  0  0  0  0  0
  128.3780  127.4340   70.8110 C   0  0  0  0  0  0  0  0  0  0  0  0
  125.6537  127.2756   75.2848 H   0  0  0  0  0  0  0  0  0  0  0  0
  124.1234  127.1211   74.3571 H   0  0  0  0  0  0  0  0  0  0  0  0
  125.3135  125.7756   74.3571 H   0  0  0  0  0  0  0  0  0  0  0  0
  125.7032  126.8274   72.2704 H   0  0  0  0  0  0  0  0  0  0  0  0
  125.4632  128.4738   72.9471 H   0  0  0  0  0  0  0  0  0  0  0  0
  129.2197  124.3521   72.0122 H   0  0  0  0  0  0  0  0  0  0  0  0
  129.9345  124.0686   69.6501 H   0  0  0  0  0  0  0  0  0  0  0  0
  130.3420  124.9610   67.6640 H   0  0  0  0  0  0  0  0  0  0  0  0
  129.6106  125.1045   65.0234 H   0  0  0  0  0  0  0  0  0  0  0  0
  130.3337  126.7293   64.6164 H   0  0  0  0  0  0  0  0  0  0  0  0
  136.1399  124.4428   62.9570 H   0  0  0  0  0  0  0  0  0  0  0  0
  135.8649  123.4335   61.4968 H   0  0  0  0  0  0  0  0  0  0  0  0
  135.3816  125.1635   61.4968 H   0  0  0  0  0  0  0  0  0  0  0  0
  133.7532  122.2849   61.1978 H   0  0  0  0  0  0  0  0  0  0  0  0
  133.0610  120.1607   61.6613 H   0  0  0  0  0  0  0  0  0  0  0  0
  131.7989  118.3269   60.5435 H   0  0  0  0  0  0  0  0  0  0  0  0
  129.3479  118.5645   60.1614 H   0  0  0  0  0  0  0  0  0  0  0  0
  128.1555  120.6293   60.8824 H   0  0  0  0  0  0  0  0  0  0  0  0
  129.4194  122.4656   61.9948 H   0  0  0  0  0  0  0  0  0  0  0  0
  128.6567  128.1059   68.7738 H   0  0  0  0  0  0  0  0  0  0  0  0
  127.9326  128.3860   71.1356 H   0  0  0  0  0  0  0  0  0  0  0  0
  1  2  1  0
  2  3  1  0
  3  4  1  0
  4  5  2  0
  4  6  1  0
  6  7  2  0
  7  8  1  0
  8  9  2  0
  9 10  1  0
 10 11  1  0
 11 12  2  0
 11 13  1  0
 13 14  1  0
 14 15  1  0
 15 16  2  0
 16 17  1  0
 17 18  1  0
 17 19  2  0
 19 20  1  0
 20 21  1  0
 21 22  2  0
 22 23  1  0
 23 24  2  0
 24 25  1  0
 25 26  2  0
 20 27  2  0
 27 28  1  0
 28 29  3  0
  9 30  1  0
 30 31  2  0
 31  6  1  0
 27 15  1  0
 26 21  1  0
  1 32  1  0
  1 33  1  0
  1 34  1  0
  2 35  1  0
  2 36  1  0
  7 37  1  0
  8 38  1  0
 10 39  1  0
 13 40  1  0
 13 41  1  0
 18 42  1  0
 18 43  1  0
 18 44  1  0
 19 45  1  0
 22 46  1  0
 23 47  1  0
 24 48  1  0
 25 49  1  0
 26 50  1  0
 30 51  1  0
 31 52  1  0
M  END
>  <Binding energies>  (1) 
[-8.16]

>  <Ligand effiencies>  (1) 
[-0.255]

>  <Interactions>  (1) 
["V-A:GLU:543:CD:4908, V-A:HIS:456:CD2:4068, V-A:ASP:366:CG:3213, V-B:TYR:539:CD2:9846, V-A:LEU:475:CD1:4258, H-A:TYR:484:OH:4348, V-B:GLU:543:C:9874, V-B:HIS:456:CE1:9040, V-A:HIS:456:CE1:4069, V-B:ALA:541:CB:9864, H-B:LYS:547:NZ:9923, V-B:PRO:540:C:9853, V-A:ILE:369:CD1:3239, V-A:GLY:453:CA:4044, V-A:GLY:454:CA:4049, V-A:GLY:453:C:4042, H-A:GLY:454:N:4050, V-A:TRP:381:CZ2:3370, V-B:ALA:541:CA:9862, V-A:PRO:482:CG:4327, V-A:PRO:482:CB:4326, H-A:ARG:545:NH2:4928, V-A:TRP:381:CH2:3372, H-B:GLU:543:O:9875, V-B:HIS:456:CD2:9039, V-B:LYS:547:CD:9921, V-B:HIS:456:CG:9037, H-A:HIS:456:ND1:4067, V-B:HIS:456:CB:9036"]

$$$$
3cb_Grossjean_2025
     RDKit          3D

 49 51  0  0  0  0  0  0  0  0999 V2000
  129.8770  128.4610   71.6590 C   0  0  0  0  0  0  0  0  0  0  0  0
  128.8370  127.8050   72.3690 O   0  0  0  0  0  0  0  0  0  0  0  0
  128.3870  126.5840   71.9790 C   0  0  0  0  0  0  0  0  0  0  0  0
  128.0020  125.7170   72.7690 O   0  0  0  0  0  0  0  0  0  0  0  0
  128.4050  126.3930   70.4890 C   0  0  0  0  0  0  0  0  0  0  0  0
  129.4760  125.7660   69.8330 C   0  0  0  0  0  0  0  0  0  0  0  0
  129.4600  125.6030   68.4510 C   0  0  0  0  0  0  0  0  0  0  0  0
  128.3820  126.0630   67.6950 C   0  0  0  0  0  0  0  0  0  0  0  0
  128.4690  125.8420   66.3060 N   0  0  0  0  0  0  0  0  0  0  0  0
  129.5120  125.4200   65.5580 C   0  0  0  0  0  0  0  0  0  0  0  0
  130.6230  125.1230   66.0000 O   0  0  0  0  0  0  0  0  0  0  0  0
  129.2130  125.3080   64.0550 C   0  0  0  0  0  0  0  0  0  0  0  0
  130.5360  124.5350   63.0630 S   0  0  0  0  0  0  0  0  0  0  0  0
  129.7760  123.3640   61.9580 C   0  0  0  0  0  0  0  0  0  0  0  0
  130.2180  122.0950   62.1290 N   0  0  0  0  0  0  0  0  0  0  0  0
  129.7090  121.1190   61.3440 C   0  0  0  0  0  0  0  0  0  0  0  0
  130.2400  119.7220   61.6000 C   0  0  0  0  0  0  0  0  0  0  0  0
  128.7530  121.3690   60.3630 C   0  0  0  0  0  0  0  0  0  0  0  0
  128.2930  122.6760   60.1570 C   0  0  0  0  0  0  0  0  0  0  0  0
  127.2710  122.8930   59.0880 C   0  0  0  0  0  0  0  0  0  0  0  0
  126.0530  123.5120   59.3930 C   0  0  0  0  0  0  0  0  0  0  0  0
  125.0990  123.7290   58.4020 C   0  0  0  0  0  0  0  0  0  0  0  0
  125.3630  123.3280   57.0950 C   0  0  0  0  0  0  0  0  0  0  0  0
  126.5710  122.7180   56.7710 C   0  0  0  0  0  0  0  0  0  0  0  0
  127.5230  122.5050   57.7650 C   0  0  0  0  0  0  0  0  0  0  0  0
  128.8280  123.7130   60.9640 C   0  0  0  0  0  0  0  0  0  0  0  0
  128.4530  125.1110   60.7300 C   0  0  0  0  0  0  0  0  0  0  0  0
  128.1570  126.2140   60.5450 N   0  0  0  0  0  0  0  0  0  0  0  0
  127.3050  126.6870   68.3440 C   0  0  0  0  0  0  0  0  0  0  0  0
  127.3210  126.8490   69.7270 C   0  0  0  0  0  0  0  0  0  0  0  0
  130.5842  128.9071   72.3738 H   0  0  0  0  0  0  0  0  0  0  0  0
  130.4054  127.7324   71.0266 H   0  0  0  0  0  0  0  0  0  0  0  0
  129.4471  129.2517   71.0266 H   0  0  0  0  0  0  0  0  0  0  0  0
  130.3345  125.4007   70.4158 H   0  0  0  0  0  0  0  0  0  0  0  0
  130.3048  125.1071   67.9506 H   0  0  0  0  0  0  0  0  0  0  0  0
  127.6040  126.0040   65.8090 H   0  0  0  0  0  0  0  0  0  0  0  0
  128.2992  124.7081   63.9323 H   0  0  0  0  0  0  0  0  0  0  0  0
  129.1111  126.3383   63.6834 H   0  0  0  0  0  0  0  0  0  0  0  0
  130.3062  119.5479   62.6841 H   0  0  0  0  0  0  0  0  0  0  0  0
  129.5600  118.9832   61.1508 H   0  0  0  0  0  0  0  0  0  0  0  0
  131.2391  119.6215   61.1508 H   0  0  0  0  0  0  0  0  0  0  0  0
  128.3603  120.5430   59.7519 H   0  0  0  0  0  0  0  0  0  0  0  0
  125.8474  123.8302   60.4257 H   0  0  0  0  0  0  0  0  0  0  0  0
  124.1433  124.2139   58.6501 H   0  0  0  0  0  0  0  0  0  0  0  0
  124.6095  123.4950   56.3112 H   0  0  0  0  0  0  0  0  0  0  0  0
  126.7729  122.4058   55.7357 H   0  0  0  0  0  0  0  0  0  0  0  0
  128.4808  122.0282   57.5096 H   0  0  0  0  0  0  0  0  0  0  0  0
  126.4466  127.0488   67.7589 H   0  0  0  0  0  0  0  0  0  0  0  0
  126.4733  127.3404   70.2269 H   0  0  0  0  0  0  0  0  0  0  0  0
  1  2  1  0
  2  3  1  0
  3  4  2  0
  3  5  1  0
  5  6  2  0
  6  7  1  0
  7  8  2  0
  8  9  1  0
  9 10  1  0
 10 11  2  0
 10 12  1  0
 12 13  1  0
 13 14  1  0
 14 15  2  0
 15 16  1  0
 16 17  1  0
 16 18  2  0
 18 19  1  0
 19 20  1  0
 20 21  2  0
 21 22  1  0
 22 23  2  0
 23 24  1  0
 24 25  2  0
 19 26  2  0
 26 27  1  0
 27 28  3  0
  8 29  1  0
 29 30  2  0
 30  5  1  0
 26 14  1  0
 25 20  1  0
  1 31  1  0
  1 32  1  0
  1 33  1  0
  6 34  1  0
  7 35  1  0
  9 36  1  0
 12 37  1  0
 12 38  1  0
 17 39  1  0
 17 40  1  0
 17 41  1  0
 18 42  1  0
 21 43  1  0
 22 44  1  0
 23 45  1  0
 24 46  1  0
 25 47  1  0
 29 48  1  0
 30 49  1  0
M  END
>  <Binding energies>  (1) 
[-8.17]

>  <Ligand effiencies>  (1) 
[-0.2635483870967742]

>  <Interactions>  (1) 
["V-B:GLU:543:CA:9876, V-A:HIS:456:CD2:4068, V-B:GLU:543:CD:9880, V-B:TYR:539:CD2:9846, V-A:LEU:475:CD1:4258, V-B:GLU:543:CB:9878, H-B:HIS:456:NE2:9041, H-A:TYR:484:OH:4348, V-B:GLU:543:C:9874, V-B:HIS:456:CE1:9040, V-B:TYR:539:CE2:9848, V-A:HIS:456:CE1:4069, V-B:GLU:543:CG:9879, V-B:PRO:540:CA:9855, V-B:GLY:544:C:9884, V-B:ALA:541:CB:9864, V-B:TYR:539:CZ:9849, H-B:LYS:547:NZ:9923, V-B:TYR:539:C:9839, V-B:PRO:540:CB:9857, V-B:PRO:540:C:9853, V-B:PRO:540:N:9856, V-A:PRO:482:CG:4327, V-A:PRO:482:CB:4326, V-B:TYR:539:CG:9844, V-B:LEU:363:CD1:8160, H-B:GLU:543:OE1:9881, V-B:HIS:456:CD2:9039, V-B:PRO:540:CD:9859"]

$$$$
3ce_Grossjean_2025
     RDKit          3D

 45 47  0  0  0  0  0  0  0  0999 V2000
  123.9410  130.6620   59.3630 C   0  0  0  0  0  0  0  0  0  0  0  0
  124.0590  131.1970   60.7780 C   0  0  0  0  0  0  0  0  0  0  0  0
  123.6510  132.4920   61.1060 C   0  0  0  0  0  0  0  0  0  0  0  0
  123.7800  132.9130   62.4300 C   0  0  0  0  0  0  0  0  0  0  0  0
  124.3070  132.0390   63.3840 C   0  0  0  0  0  0  0  0  0  0  0  0
  124.7050  130.7580   62.9850 C   0  0  0  0  0  0  0  0  0  0  0  0
  125.2100  129.9160   63.9910 N   0  0  0  0  0  0  0  0  0  0  0  0
  124.7510  129.7530   65.2520 C   0  0  0  0  0  0  0  0  0  0  0  0
  123.7780  130.3360   65.7310 O   0  0  0  0  0  0  0  0  0  0  0  0
  125.5230  128.7530   66.1120 C   0  0  0  0  0  0  0  0  0  0  0  0
  127.2480  129.2640   66.3650 S   0  0  0  0  0  0  0  0  0  0  0  0
  128.1120  127.8030   66.8950 C   0  0  0  0  0  0  0  0  0  0  0  0
  128.1040  127.6150   68.2370 N   0  0  0  0  0  0  0  0  0  0  0  0
  128.7210  126.5200   68.7400 C   0  0  0  0  0  0  0  0  0  0  0  0
  128.6620  126.3640   70.2480 C   0  0  0  0  0  0  0  0  0  0  0  0
  129.3730  125.5910   67.9350 C   0  0  0  0  0  0  0  0  0  0  0  0
  129.4150  125.7820   66.5480 C   0  0  0  0  0  0  0  0  0  0  0  0
  130.1480  124.7710   65.7280 C   0  0  0  0  0  0  0  0  0  0  0  0
  131.4350  125.0510   65.2530 C   0  0  0  0  0  0  0  0  0  0  0  0
  132.1230  124.1160   64.4830 C   0  0  0  0  0  0  0  0  0  0  0  0
  131.5220  122.8970   64.1790 C   0  0  0  0  0  0  0  0  0  0  0  0
  130.2390  122.6080   64.6350 C   0  0  0  0  0  0  0  0  0  0  0  0
  129.5540  123.5440   65.4050 C   0  0  0  0  0  0  0  0  0  0  0  0
  128.7630  126.9170   66.0040 C   0  0  0  0  0  0  0  0  0  0  0  0
  128.7600  127.1620   64.5580 C   0  0  0  0  0  0  0  0  0  0  0  0
  128.7580  127.3540   63.4170 N   0  0  0  0  0  0  0  0  0  0  0  0
  124.5750  130.3370   61.6930 N   0  0  0  0  0  0  0  0  0  0  0  0
  123.7042  129.5883   59.3955 H   0  0  0  0  0  0  0  0  0  0  0  0
  123.1396  131.1984   58.8338 H   0  0  0  0  0  0  0  0  0  0  0  0
  124.8937  130.8115   58.8338 H   0  0  0  0  0  0  0  0  0  0  0  0
  123.2380  133.1637   60.3390 H   0  0  0  0  0  0  0  0  0  0  0  0
  123.4686  133.9271   62.7209 H   0  0  0  0  0  0  0  0  0  0  0  0
  124.4076  132.3531   64.4334 H   0  0  0  0  0  0  0  0  0  0  0  0
  125.9520  129.2990   63.6950 H   0  0  0  0  0  0  0  0  0  0  0  0
  125.0293  128.6713   67.0916 H   0  0  0  0  0  0  0  0  0  0  0  0
  125.5280  127.7860   65.5876 H   0  0  0  0  0  0  0  0  0  0  0  0
  129.0124  127.2905   70.7264 H   0  0  0  0  0  0  0  0  0  0  0  0
  127.6253  126.1619   70.5554 H   0  0  0  0  0  0  0  0  0  0  0  0
  129.3055  125.5265   70.5554 H   0  0  0  0  0  0  0  0  0  0  0  0
  129.8535  124.7102   68.3860 H   0  0  0  0  0  0  0  0  0  0  0  0
  131.9063  126.0164   65.4896 H   0  0  0  0  0  0  0  0  0  0  0  0
  133.1360  124.3394   64.1169 H   0  0  0  0  0  0  0  0  0  0  0  0
  132.0656  122.1566   63.5737 H   0  0  0  0  0  0  0  0  0  0  0  0
  129.7686  121.6448   64.3882 H   0  0  0  0  0  0  0  0  0  0  0  0
  128.5385  123.3184   65.7626 H   0  0  0  0  0  0  0  0  0  0  0  0
  1  2  1  0
  2  3  2  0
  3  4  1  0
  4  5  2  0
  5  6  1  0
  6  7  1  0
  7  8  1  0
  8  9  2  0
  8 10  1  0
 10 11  1  0
 11 12  1  0
 12 13  2  0
 13 14  1  0
 14 15  1  0
 14 16  2  0
 16 17  1  0
 17 18  1  0
 18 19  2  0
 19 20  1  0
 20 21  2  0
 21 22  1  0
 22 23  2  0
 17 24  2  0
 24 25  1  0
 25 26  3  0
  6 27  2  0
 27  2  1  0
 24 12  1  0
 23 18  1  0
  1 28  1  0
  1 29  1  0
  1 30  1  0
  3 31  1  0
  4 32  1  0
  5 33  1  0
  7 34  1  0
 10 35  1  0
 10 36  1  0
 15 37  1  0
 15 38  1  0
 15 39  1  0
 16 40  1  0
 19 41  1  0
 20 42  1  0
 21 43  1  0
 22 44  1  0
 23 45  1  0
M  END
>  <Binding energies>  (1) 
[-7.84]

>  <Ligand effiencies>  (1) 
[-0.27999999999999997]

>  <Interactions>  (1) 
["V-B:GLU:543:CA:9876, V-A:GLU:543:CD:4908, V-B:GLU:543:CD:9880, V-A:LEU:475:CD1:4258, V-B:GLU:543:CB:9878, V-A:TYR:484:CZ:4347, V-B:GLU:543:C:9874, V-A:TYR:484:CE1:4345, V-B:HIS:456:CE1:9040, V-A:HIS:456:CE1:4069, V-B:GLU:543:CG:9879, V-B:ARG:545:CD:9895, V-B:ARG:545:CZ:9898, H-B:TYR:484:OH:9319, V-B:ARG:545:CG:9894, V-B:ALA:541:CB:9864, V-B:ILE:369:CG2:8208, V-B:ILE:369:CD1:8210, V-B:LEU:475:CD1:9229, V-B:GLY:454:CA:9020, H-B:GLY:454:N:9021, H-B:ARG:545:NH2:9900, V-B:ASP:366:CG:8184, H-B:GLU:543:OE1:9881, V-B:ASP:366:CA:8181, V-B:ASP:366:CB:8183, H-B:ILE:455:N:9026"]

$$$$
3ch_Grossjean_2025
     RDKit          3D

 55 57  0  0  0  0  0  0  0  0999 V2000
  127.3080  127.8890   73.5280 C   0  0  0  0  0  0  0  0  0  0  0  0
  128.6220  127.7680   72.9940 O   0  0  0  0  0  0  0  0  0  0  0  0
  128.9010  126.7580   72.0900 C   0  0  0  0  0  0  0  0  0  0  0  0
  128.8090  126.9040   70.6970 C   0  0  0  0  0  0  0  0  0  0  0  0
  129.1180  125.8370   69.8400 C   0  0  0  0  0  0  0  0  0  0  0  0
  129.0600  125.8890   68.4340 N   0  0  0  0  0  0  0  0  0  0  0  0
  129.4110  126.8870   67.5930 C   0  0  0  0  0  0  0  0  0  0  0  0
  129.8780  127.9750   67.9300 O   0  0  0  0  0  0  0  0  0  0  0  0
  129.2360  126.5850   66.1050 C   0  0  0  0  0  0  0  0  0  0  0  0
  129.5560  124.8390   65.7160 S   0  0  0  0  0  0  0  0  0  0  0  0
  131.1130  124.8020   64.8540 C   0  0  0  0  0  0  0  0  0  0  0  0
  132.1880  125.0210   65.6510 N   0  0  0  0  0  0  0  0  0  0  0  0
  133.4180  125.0210   65.0900 C   0  0  0  0  0  0  0  0  0  0  0  0
  134.5750  125.2780   66.0370 C   0  0  0  0  0  0  0  0  0  0  0  0
  133.6230  124.8060   63.7300 C   0  0  0  0  0  0  0  0  0  0  0  0
  132.5250  124.5690   62.8910 C   0  0  0  0  0  0  0  0  0  0  0  0
  132.7930  124.3530   61.4360 C   0  0  0  0  0  0  0  0  0  0  0  0
  132.1240  125.1220   60.4770 C   0  0  0  0  0  0  0  0  0  0  0  0
  132.3610  124.9210   59.1190 C   0  0  0  0  0  0  0  0  0  0  0  0
  133.2690  123.9450   58.7160 C   0  0  0  0  0  0  0  0  0  0  0  0
  133.9370  123.1670   59.6570 C   0  0  0  0  0  0  0  0  0  0  0  0
  133.6960  123.3700   61.0140 C   0  0  0  0  0  0  0  0  0  0  0  0
  131.2290  124.5470   63.4670 C   0  0  0  0  0  0  0  0  0  0  0  0
  130.0550  124.2120   62.6560 C   0  0  0  0  0  0  0  0  0  0  0  0
  129.1280  123.9480   62.0160 N   0  0  0  0  0  0  0  0  0  0  0  0
  129.5010  124.6130   70.3900 C   0  0  0  0  0  0  0  0  0  0  0  0
  129.5990  124.4420   71.7800 C   0  0  0  0  0  0  0  0  0  0  0  0
  129.9810  123.2580   72.3880 O   0  0  0  0  0  0  0  0  0  0  0  0
  131.3540  122.8820   72.3880 C   0  0  0  0  0  0  0  0  0  0  0  0
  129.2940  125.5210   72.6190 C   0  0  0  0  0  0  0  0  0  0  0  0
  129.4030  125.3720   73.9810 O   0  0  0  0  0  0  0  0  0  0  0  0
  130.7090  125.6070   74.4870 C   0  0  0  0  0  0  0  0  0  0  0  0
  127.3569  127.8845   74.6269 H   0  0  0  0  0  0  0  0  0  0  0  0
  126.8582  128.8324   73.1849 H   0  0  0  0  0  0  0  0  0  0  0  0
  126.6935  127.0436   73.1849 H   0  0  0  0  0  0  0  0  0  0  0  0
  128.4906  127.8673   70.2718 H   0  0  0  0  0  0  0  0  0  0  0  0
  128.7450  125.0330   68.0010 H   0  0  0  0  0  0  0  0  0  0  0  0
  128.2040  126.8295   65.8130 H   0  0  0  0  0  0  0  0  0  0  0  0
  129.9645  127.1936   65.5492 H   0  0  0  0  0  0  0  0  0  0  0  0
  134.2227  125.1997   67.0761 H   0  0  0  0  0  0  0  0  0  0  0  0
  135.3654  124.5335   65.8608 H   0  0  0  0  0  0  0  0  0  0  0  0
  134.9759  126.2871   65.8608 H   0  0  0  0  0  0  0  0  0  0  0  0
  134.6418  124.8220   63.3155 H   0  0  0  0  0  0  0  0  0  0  0  0
  131.4057  125.8908   60.7979 H   0  0  0  0  0  0  0  0  0  0  0  0
  131.8340  125.5296   58.3694 H   0  0  0  0  0  0  0  0  0  0  0  0
  133.4600  123.7876   57.6442 H   0  0  0  0  0  0  0  0  0  0  0  0
  134.6511  122.3963   59.3312 H   0  0  0  0  0  0  0  0  0  0  0  0
  134.2192  122.7532   61.7595 H   0  0  0  0  0  0  0  0  0  0  0  0
  129.7299  123.7683   69.7235 H   0  0  0  0  0  0  0  0  0  0  0  0
  131.7076  122.7852   73.4251 H   0  0  0  0  0  0  0  0  0  0  0  0
  131.4704  121.9189   71.8695 H   0  0  0  0  0  0  0  0  0  0  0  0
  131.9449  123.6514   71.8695 H   0  0  0  0  0  0  0  0  0  0  0  0
  130.6825  125.6022   75.5867 H   0  0  0  0  0  0  0  0  0  0  0  0
  131.3871  124.8164   74.1331 H   0  0  0  0  0  0  0  0  0  0  0  0
  131.0690  126.5843   74.1331 H   0  0  0  0  0  0  0  0  0  0  0  0
  1  2  1  0
  2  3  1  0
  3  4  2  0
  4  5  1  0
  5  6  1  0
  6  7  1  0
  7  8  2  0
  7  9  1  0
  9 10  1  0
 10 11  1  0
 11 12  2  0
 12 13  1  0
 13 14  1  0
 13 15  2  0
 15 16  1  0
 16 17  1  0
 17 18  2  0
 18 19  1  0
 19 20  2  0
 20 21  1  0
 21 22  2  0
 16 23  2  0
 23 24  1  0
 24 25  3  0
  5 26  2  0
 26 27  1  0
 27 28  1  0
 28 29  1  0
 27 30  2  0
 30 31  1  0
 31 32  1  0
 30  3  1  0
 23 11  1  0
 22 17  1  0
  1 33  1  0
  1 34  1  0
  1 35  1  0
  4 36  1  0
  6 37  1  0
  9 38  1  0
  9 39  1  0
 14 40  1  0
 14 41  1  0
 14 42  1  0
 15 43  1  0
 18 44  1  0
 19 45  1  0
 20 46  1  0
 21 47  1  0
 22 48  1  0
 26 49  1  0
 29 50  1  0
 29 51  1  0
 29 52  1  0
 32 53  1  0
 32 54  1  0
 32 55  1  0
M  END
>  <Binding energies>  (1) 
[-7.91]

>  <Ligand effiencies>  (1) 
[-0.23969696969696971]

>  <Interactions>  (1) 
["H-A:HIS:456:NE2:4070, V-A:GLU:543:CD:4908, V-A:HIS:456:CD2:4068, V-A:ASP:366:CG:3213, H-A:TYR:484:OH:4348, V-B:GLU:543:C:9874, V-A:TYR:484:CE1:4345, V-B:HIS:456:CE1:9040, V-B:TYR:539:CE2:9848, V-A:HIS:456:CE1:4069, V-A:ARG:545:CZ:4926, H-B:LYS:547:NZ:9923, V-A:ILE:369:CD1:3239, V-A:GLY:453:CA:4044, V-A:GLY:453:C:4042, V-A:ASP:366:CA:3210, V-A:ILE:369:CB:3236, V-A:ILE:369:CG2:3237, V-A:ARG:545:CG:4922, V-A:ARG:545:CD:4923, H-B:GLU:543:O:9875, V-A:ASP:366:CB:3212, V-B:HIS:456:CD2:9039, V-A:TYR:484:CG:4342, V-B:HIS:456:CG:9037, V-A:TYR:484:CE2:4346, V-A:HIS:456:CG:4066, V-A:TYR:484:CD2:4344, V-A:HIS:456:CB:4065, H-A:LYS:547:NZ:4951"]

$$$$
3ci_Grossjean_2025
     RDKit          3D

 39 41  0  0  0  0  0  0  0  0999 V2000
  130.8880  125.5040   66.1540 C   0  0  0  0  0  0  0  0  0  0  0  0
  129.6040  126.2870   66.3510 C   0  0  0  0  0  0  0  0  0  0  0  0
  129.1860  127.2480   65.4350 C   0  0  0  0  0  0  0  0  0  0  0  0
  127.9830  127.9340   65.6520 C   0  0  0  0  0  0  0  0  0  0  0  0
  127.5670  128.9460   64.6350 C   0  0  0  0  0  0  0  0  0  0  0  0
  126.9920  128.5480   63.4210 C   0  0  0  0  0  0  0  0  0  0  0  0
  126.6130  129.4950   62.4730 C   0  0  0  0  0  0  0  0  0  0  0  0
  126.8150  130.8470   62.7330 C   0  0  0  0  0  0  0  0  0  0  0  0
  127.3930  131.2600   63.9310 C   0  0  0  0  0  0  0  0  0  0  0  0
  127.7700  130.3100   64.8770 C   0  0  0  0  0  0  0  0  0  0  0  0
  127.2330  127.6280   66.8160 C   0  0  0  0  0  0  0  0  0  0  0  0
  125.9880  128.3440   67.1180 C   0  0  0  0  0  0  0  0  0  0  0  0
  125.0060  128.9090   67.3550 N   0  0  0  0  0  0  0  0  0  0  0  0
  127.7280  126.6320   67.6930 C   0  0  0  0  0  0  0  0  0  0  0  0
  126.8540  126.1520   69.1770 S   0  0  0  0  0  0  0  0  0  0  0  0
  127.6880  126.8640   70.6320 C   0  0  0  0  0  0  0  0  0  0  0  0
  128.3070  125.8080   71.5560 C   0  0  0  0  0  0  0  0  0  0  0  0
  128.2880  125.9900   72.7750 O   0  0  0  0  0  0  0  0  0  0  0  0
  128.8530  124.7370   70.9400 N   0  0  0  0  0  0  0  0  0  0  0  0
  129.4470  123.6340   71.5390 C   0  0  0  0  0  0  0  0  0  0  0  0
  130.7070  123.6790   72.1330 C   0  0  0  0  0  0  0  0  0  0  0  0
  130.9290  122.4030   72.5990 C   0  0  0  0  0  0  0  0  0  0  0  0
  129.8570  121.6310   72.3000 O   0  0  0  0  0  0  0  0  0  0  0  0
  128.9250  122.4220   71.6270 N   0  0  0  0  0  0  0  0  0  0  0  0
  128.8970  125.9820   67.4610 N   0  0  0  0  0  0  0  0  0  0  0  0
  131.3134  125.2446   67.1347 H   0  0  0  0  0  0  0  0  0  0  0  0
  130.6733  124.5830   65.5922 H   0  0  0  0  0  0  0  0  0  0  0  0
  131.6085  126.1166   65.5922 H   0  0  0  0  0  0  0  0  0  0  0  0
  129.7959  127.4678   64.5463 H   0  0  0  0  0  0  0  0  0  0  0  0
  126.8386  127.4784   63.2149 H   0  0  0  0  0  0  0  0  0  0  0  0
  126.1566  129.1762   61.5243 H   0  0  0  0  0  0  0  0  0  0  0  0
  126.5155  131.5964   61.9856 H   0  0  0  0  0  0  0  0  0  0  0  0
  127.5508  132.3305   64.1288 H   0  0  0  0  0  0  0  0  0  0  0  0
  128.2309  130.6339   65.8218 H   0  0  0  0  0  0  0  0  0  0  0  0
  128.4877  127.5336   70.2827 H   0  0  0  0  0  0  0  0  0  0  0  0
  126.9238  127.3985   71.2154 H   0  0  0  0  0  0  0  0  0  0  0  0
  128.8080  124.7110   69.9320 H   0  0  0  0  0  0  0  0  0  0  0  0
  131.3787  124.5465   72.2123 H   0  0  0  0  0  0  0  0  0  0  0  0
  131.8316  122.0647   73.1289 H   0  0  0  0  0  0  0  0  0  0  0  0
  1  2  1  0
  2  3  2  0
  3  4  1  0
  4  5  1  0
  5  6  2  0
  6  7  1  0
  7  8  2  0
  8  9  1  0
  9 10  2  0
  4 11  2  0
 11 12  1  0
 12 13  3  0
 11 14  1  0
 14 15  1  0
 15 16  1  0
 16 17  1  0
 17 18  2  0
 17 19  1  0
 19 20  1  0
 20 21  1  0
 21 22  2  0
 22 23  1  0
 23 24  1  0
 14 25  2  0
 25  2  1  0
 10  5  1  0
 24 20  2  0
  1 26  1  0
  1 27  1  0
  1 28  1  0
  3 29  1  0
  6 30  1  0
  7 31  1  0
  8 32  1  0
  9 33  1  0
 10 34  1  0
 16 35  1  0
 16 36  1  0
 19 37  1  0
 21 38  1  0
 22 39  1  0
M  END
>  <Binding energies>  (1) 
[-8.14]

>  <Ligand effiencies>  (1) 
[-0.3130769230769231]

>  <Interactions>  (1) 
["V-A:GLU:543:CD:4908, V-A:HIS:456:CD2:4068, V-B:GLU:543:CD:9880, V-B:GLU:543:CB:9878, V-B:GLU:543:C:9874, V-B:HIS:456:CE1:9040, V-A:HIS:456:CE1:4069, H-B:TYR:484:OH:9319, V-B:ARG:545:CG:9894, V-A:GLU:543:CB:4906, H-B:ARG:545:N:9892, V-B:GLY:544:C:9884, H-B:LYS:547:NZ:9923, H-B:ARG:545:NE:9896, H-B:GLU:543:O:9875, V-A:TYR:484:CG:4342, V-A:TYR:484:CE2:4346, V-A:HIS:456:CG:4066, V-A:TYR:484:CD2:4344, V-B:GLY:544:CA:9886, V-A:HIS:456:CB:4065, V-A:ASP:473:CB:4239, V-A:TYR:484:CB:4341"]

$$$$
3cj_Grossjean_2025
     RDKit          3D

 39 41  0  0  0  0  0  0  0  0999 V2000
  130.6310  119.2830   61.8610 C   0  0  0  0  0  0  0  0  0  0  0  0
  130.5040  120.6270   61.1710 C   0  0  0  0  0  0  0  0  0  0  0  0
  129.2900  121.0620   60.6420 C   0  0  0  0  0  0  0  0  0  0  0  0
  129.2130  122.3220   60.0330 C   0  0  0  0  0  0  0  0  0  0  0  0
  127.8790  122.7740   59.5380 C   0  0  0  0  0  0  0  0  0  0  0  0
  126.9090  123.2390   60.4330 C   0  0  0  0  0  0  0  0  0  0  0  0
  125.6600  123.6470   59.9720 C   0  0  0  0  0  0  0  0  0  0  0  0
  125.3760  123.5860   58.6110 C   0  0  0  0  0  0  0  0  0  0  0  0
  126.3270  123.1180   57.7090 C   0  0  0  0  0  0  0  0  0  0  0  0
  127.5760  122.7100   58.1730 C   0  0  0  0  0  0  0  0  0  0  0  0
  130.3910  123.1040   59.9470 C   0  0  0  0  0  0  0  0  0  0  0  0
  130.3810  124.4180   59.2960 C   0  0  0  0  0  0  0  0  0  0  0  0
  130.3710  125.4560   58.7830 N   0  0  0  0  0  0  0  0  0  0  0  0
  131.5770  122.5860   60.5150 C   0  0  0  0  0  0  0  0  0  0  0  0
  133.0920  123.5180   60.5950 S   0  0  0  0  0  0  0  0  0  0  0  0
  133.9050  122.9570   62.1260 C   0  0  0  0  0  0  0  0  0  0  0  0
  133.2390  123.5460   63.3740 C   0  0  0  0  0  0  0  0  0  0  0  0
  133.8880  124.2880   64.1140 O   0  0  0  0  0  0  0  0  0  0  0  0
  131.9400  123.2210   63.5450 N   0  0  0  0  0  0  0  0  0  0  0  0
  131.0810  123.7240   64.5080 C   0  0  0  0  0  0  0  0  0  0  0  0
  130.0850  123.1060   65.1050 N   0  0  0  0  0  0  0  0  0  0  0  0
  129.4990  123.8820   65.9950 C   0  0  0  0  0  0  0  0  0  0  0  0
  130.0200  125.1650   66.1330 C   0  0  0  0  0  0  0  0  0  0  0  0
  131.3520  125.3560   65.0310 S   0  0  0  0  0  0  0  0  0  0  0  0
  131.6290  121.3750   61.1250 N   0  0  0  0  0  0  0  0  0  0  0  0
  130.6173  119.4279   62.9513 H   0  0  0  0  0  0  0  0  0  0  0  0
  129.7898  118.6385   61.5661 H   0  0  0  0  0  0  0  0  0  0  0  0
  131.5781  118.8075   61.5661 H   0  0  0  0  0  0  0  0  0  0  0  0
  128.3983  120.4207   60.7021 H   0  0  0  0  0  0  0  0  0  0  0  0
  127.1348  123.2825   61.5087 H   0  0  0  0  0  0  0  0  0  0  0  0
  124.9024  124.0153   60.6794 H   0  0  0  0  0  0  0  0  0  0  0  0
  124.3909  123.9106   58.2448 H   0  0  0  0  0  0  0  0  0  0  0  0
  126.0938  123.0704   56.6351 H   0  0  0  0  0  0  0  0  0  0  0  0
  128.3279  122.3356   57.4627 H   0  0  0  0  0  0  0  0  0  0  0  0
  133.8490  121.8596   62.1771 H   0  0  0  0  0  0  0  0  0  0  0  0
  134.9501  123.2995   62.1029 H   0  0  0  0  0  0  0  0  0  0  0  0
  131.5190  122.6150   62.8550 H   0  0  0  0  0  0  0  0  0  0  0  0
  128.6453  123.5346   66.5954 H   0  0  0  0  0  0  0  0  0  0  0  0
  129.6494  125.9340   66.8268 H   0  0  0  0  0  0  0  0  0  0  0  0
  1  2  1  0
  2  3  2  0
  3  4  1  0
  4  5  1  0
  5  6  2  0
  6  7  1  0
  7  8  2  0
  8  9  1  0
  9 10  2  0
  4 11  2  0
 11 12  1  0
 12 13  3  0
 11 14  1  0
 14 15  1  0
 15 16  1  0
 16 17  1  0
 17 18  2  0
 17 19  1  0
 19 20  1  0
 20 21  2  0
 21 22  1  0
 22 23  2  0
 23 24  1  0
 14 25  2  0
 25  2  1  0
 10  5  1  0
 24 20  1  0
  1 26  1  0
  1 27  1  0
  1 28  1  0
  3 29  1  0
  6 30  1  0
  7 31  1  0
  8 32  1  0
  9 33  1  0
 10 34  1  0
 16 35  1  0
 16 36  1  0
 19 37  1  0
 22 38  1  0
 23 39  1  0
M  END
>  <Binding energies>  (1) 
[-6.75]

>  <Ligand effiencies>  (1) 
[-0.25961538461538464]

>  <Interactions>  (1) 
["V-B:GLU:543:CA:9876, V-B:TYR:539:CD2:9846, V-A:LEU:475:CD1:4258, V-B:GLU:543:CB:9878, H-A:TYR:484:OH:4348, V-A:TYR:484:CZ:4347, V-B:GLU:543:C:9874, V-A:TYR:484:CE1:4345, V-B:TYR:539:CE2:9848, V-A:HIS:456:CE1:4069, V-B:GLU:543:CG:9879, V-B:PRO:540:CA:9855, V-B:ALA:541:CB:9864, V-B:TYR:539:C:9839, V-B:PRO:540:CB:9857, V-B:PRO:540:N:9856, V-A:ILE:369:CD1:3239, V-A:GLY:454:CA:4049, H-A:GLY:454:N:4050, V-A:TRP:381:CZ2:3370, V-A:PRO:482:CG:4327, V-A:PRO:482:CB:4326, V-A:TRP:381:CH2:3372"]

$$$$
3ck_Grossjean_2025
     RDKit          3D

 57 58  0  0  0  0  0  0  0  0999 V2000
  131.0610  122.5920   72.7150 C   0  0  0  0  0  0  0  0  0  0  0  0
  129.8260  122.7420   72.0330 O   0  0  0  0  0  0  0  0  0  0  0  0
  129.9320  123.4870   70.8280 C   0  0  0  0  0  0  0  0  0  0  0  0
  129.8060  124.9850   71.1370 C   0  0  0  0  0  0  0  0  0  0  0  0
  129.0190  125.6080   70.1310 O   0  0  0  0  0  0  0  0  0  0  0  0
  129.4920  125.3860   68.8090 C   0  0  0  0  0  0  0  0  0  0  0  0
  128.5870  126.1330   67.8210 C   0  0  0  0  0  0  0  0  0  0  0  0
  128.9430  125.7400   66.5030 O   0  0  0  0  0  0  0  0  0  0  0  0
  130.0860  124.9030   66.4200 C   0  0  0  0  0  0  0  0  0  0  0  0
  131.1200  125.5370   65.4700 C   0  0  0  0  0  0  0  0  0  0  0  0
  131.6860  124.5940   64.5000 N   0  0  0  0  0  0  0  0  0  0  0  0
  132.9680  124.1870   64.4580 C   0  0  0  0  0  0  0  0  0  0  0  0
  133.8200  124.5540   65.2690 O   0  0  0  0  0  0  0  0  0  0  0  0
  133.3150  123.2120   63.3210 C   0  0  0  0  0  0  0  0  0  0  0  0
  132.6910  123.6810   61.6700 S   0  0  0  0  0  0  0  0  0  0  0  0
  131.2940  122.6460   61.2580 C   0  0  0  0  0  0  0  0  0  0  0  0
  131.4490  121.3230   61.5150 N   0  0  0  0  0  0  0  0  0  0  0  0
  130.4330  120.4810   61.2230 C   0  0  0  0  0  0  0  0  0  0  0  0
  130.6790  119.0180   61.5350 C   0  0  0  0  0  0  0  0  0  0  0  0
  129.2320  120.9170   60.6680 C   0  0  0  0  0  0  0  0  0  0  0  0
  129.0520  122.2780   60.3890 C   0  0  0  0  0  0  0  0  0  0  0  0
  127.7580  122.6960   59.7720 C   0  0  0  0  0  0  0  0  0  0  0  0
  127.6050  122.6820   58.3800 C   0  0  0  0  0  0  0  0  0  0  0  0
  126.4030  123.0810   57.7980 C   0  0  0  0  0  0  0  0  0  0  0  0
  125.3520  123.5010   58.6070 C   0  0  0  0  0  0  0  0  0  0  0  0
  125.4920  123.5300   59.9930 C   0  0  0  0  0  0  0  0  0  0  0  0
  126.6930  123.1310   60.5720 C   0  0  0  0  0  0  0  0  0  0  0  0
  130.1060  123.1750   60.7010 C   0  0  0  0  0  0  0  0  0  0  0  0
  129.9580  124.6160   60.4690 C   0  0  0  0  0  0  0  0  0  0  0  0
  129.8410  125.7530   60.2860 N   0  0  0  0  0  0  0  0  0  0  0  0
  130.8853  122.6133   73.8007 H   0  0  0  0  0  0  0  0  0  0  0  0
  131.5193  121.6316   72.4366 H   0  0  0  0  0  0  0  0  0  0  0  0
  131.7359  123.4148   72.4366 H   0  0  0  0  0  0  0  0  0  0  0  0
  130.9081  123.2903   70.3605 H   0  0  0  0  0  0  0  0  0  0  0  0
  129.1276  123.1866   70.1404 H   0  0  0  0  0  0  0  0  0  0  0  0
  129.3233  125.1187   72.1164 H   0  0  0  0  0  0  0  0  0  0  0  0
  130.8063  125.4421   71.1578 H   0  0  0  0  0  0  0  0  0  0  0  0
  130.5229  125.7591   68.7189 H   0  0  0  0  0  0  0  0  0  0  0  0
  129.4761  124.3091   68.5853 H   0  0  0  0  0  0  0  0  0  0  0  0
  127.5348  125.8766   68.0139 H   0  0  0  0  0  0  0  0  0  0  0  0
  128.7134  127.2193   67.9391 H   0  0  0  0  0  0  0  0  0  0  0  0
  130.5294  124.7879   67.4201 H   0  0  0  0  0  0  0  0  0  0  0  0
  129.7903  123.9164   66.0337 H   0  0  0  0  0  0  0  0  0  0  0  0
  130.6296  126.3516   64.9168 H   0  0  0  0  0  0  0  0  0  0  0  0
  131.9525  125.8946   66.0938 H   0  0  0  0  0  0  0  0  0  0  0  0
  131.0460  124.2330   63.8080 H   0  0  0  0  0  0  0  0  0  0  0  0
  134.4108  123.1367   63.2610 H   0  0  0  0  0  0  0  0  0  0  0  0
  132.8201  122.2627   63.5739 H   0  0  0  0  0  0  0  0  0  0  0  0
  130.7031  118.8746   62.6254 H   0  0  0  0  0  0  0  0  0  0  0  0
  129.8705  118.4100   61.1030 H   0  0  0  0  0  0  0  0  0  0  0  0
  131.6419  118.7078   61.1030 H   0  0  0  0  0  0  0  0  0  0  0  0
  128.4296  120.1968   60.4501 H   0  0  0  0  0  0  0  0  0  0  0  0
  128.4388  122.3540   57.7419 H   0  0  0  0  0  0  0  0  0  0  0  0
  126.2860  123.0639   56.7044 H   0  0  0  0  0  0  0  0  0  0  0  0
  124.4021  123.8130   58.1484 H   0  0  0  0  0  0  0  0  0  0  0  0
  124.6578  123.8664   60.6261 H   0  0  0  0  0  0  0  0  0  0  0  0
  126.8071  123.1573   61.6658 H   0  0  0  0  0  0  0  0  0  0  0  0
  1  2  1  0
  2  3  1  0
  3  4  1  0
  4  5  1  0
  5  6  1  0
  6  7  1  0
  7  8  1  0
  8  9  1  0
  9 10  1  0
 10 11  1  0
 11 12  1  0
 12 13  2  0
 12 14  1  0
 14 15  1  0
 15 16  1  0
 16 17  2  0
 17 18  1  0
 18 19  1  0
 18 20  2  0
 20 21  1  0
 21 22  1  0
 22 23  2  0
 23 24  1  0
 24 25  2  0
 25 26  1  0
 26 27  2  0
 21 28  2  0
 28 29  1  0
 29 30  3  0
 28 16  1  0
 27 22  1  0
  1 31  1  0
  1 32  1  0
  1 33  1  0
  3 34  1  0
  3 35  1  0
  4 36  1  0
  4 37  1  0
  6 38  1  0
  6 39  1  0
  7 40  1  0
  7 41  1  0
  9 42  1  0
  9 43  1  0
 10 44  1  0
 10 45  1  0
 11 46  1  0
 14 47  1  0
 14 48  1  0
 19 49  1  0
 19 50  1  0
 19 51  1  0
 20 52  1  0
 23 53  1  0
 24 54  1  0
 25 55  1  0
 26 56  1  0
 27 57  1  0
M  END
>  <Binding energies>  (1) 
[-6.48]

>  <Ligand effiencies>  (1) 
[-0.20903225806451614]

>  <Interactions>  (1) 
["H-A:HIS:456:NE2:4070, V-A:HIS:456:CD2:4068, V-B:TYR:539:CD2:9846, V-A:LEU:475:CD1:4258, V-B:GLU:543:CB:9878, H-A:TYR:484:OH:4348, V-A:TYR:484:CZ:4347, V-B:GLU:543:C:9874, V-A:TYR:484:CE1:4345, V-B:TYR:539:CE2:9848, V-A:HIS:456:CE1:4069, V-B:PRO:540:CA:9855, V-B:ALA:541:CB:9864, H-B:LYS:547:NZ:9923, V-B:TYR:539:C:9839, V-B:PRO:540:CB:9857, V-B:PRO:540:C:9853, V-B:PRO:540:N:9856, V-A:GLY:454:CA:4049, H-A:GLY:454:N:4050, V-A:TRP:381:CZ2:3370, V-A:PRO:482:CG:4327, V-A:PRO:482:CB:4326, V-A:TRP:381:CH2:3372, V-A:TYR:484:CG:4342, V-A:TYR:484:CE2:4346, V-A:HIS:456:CG:4066, V-A:TYR:484:CD1:4343, V-A:TYR:484:CD2:4344, V-A:ASP:473:CB:4239"]

$$$$
4aa_Grossjean_2025
     RDKit          3D

 45 47  0  0  0  0  0  0  0  0999 V2000
  125.3300  126.5370   74.2960 C   0  0  0  0  0  0  0  0  0  0  0  0
  126.5370  127.0550   73.5070 C   0  0  0  0  0  0  0  0  0  0  0  0
  127.6340  126.1690   73.6860 O   0  0  0  0  0  0  0  0  0  0  0  0
  128.8710  126.4810   73.2180 C   0  0  0  0  0  0  0  0  0  0  0  0
  129.7280  127.0610   73.8930 O   0  0  0  0  0  0  0  0  0  0  0  0
  129.0910  126.0540   71.7960 C   0  0  0  0  0  0  0  0  0  0  0  0
  129.6590  124.7990   71.5380 C   0  0  0  0  0  0  0  0  0  0  0  0
  129.8810  124.3760   70.2310 C   0  0  0  0  0  0  0  0  0  0  0  0
  129.5320  125.1940   69.1550 C   0  0  0  0  0  0  0  0  0  0  0  0
  129.8080  124.6720   67.8760 N   0  0  0  0  0  0  0  0  0  0  0  0
  129.3560  125.0590   66.6590 C   0  0  0  0  0  0  0  0  0  0  0  0
  128.5430  125.9660   66.4780 O   0  0  0  0  0  0  0  0  0  0  0  0
  129.8840  124.2980   65.5250 C   0  0  0  0  0  0  0  0  0  0  0  0
  129.2010  122.7220   65.1140 S   0  0  0  0  0  0  0  0  0  0  0  0
  130.3390  122.5190   63.8020 C   0  0  0  0  0  0  0  0  0  0  0  0
  130.3390  121.4300   63.0310 N   0  0  0  0  0  0  0  0  0  0  0  0
  131.2760  121.3960   62.0510 C   0  0  0  0  0  0  0  0  0  0  0  0
  131.2630  120.1470   61.1890 C   0  0  0  0  0  0  0  0  0  0  0  0
  132.1990  122.4150   61.8250 C   0  0  0  0  0  0  0  0  0  0  0  0
  132.1940  123.5560   62.6350 C   0  0  0  0  0  0  0  0  0  0  0  0
  133.2210  124.6410   62.3490 C   0  0  0  0  0  0  0  0  0  0  0  0
  131.2300  123.6270   63.6760 C   0  0  0  0  0  0  0  0  0  0  0  0
  130.9510  124.6250   64.6740 C   0  0  0  0  0  0  0  0  0  0  0  0
  131.6740  125.7880   64.7660 N   0  0  0  0  0  0  0  0  0  0  0  0
  128.9680  126.4540   69.4020 C   0  0  0  0  0  0  0  0  0  0  0  0
  128.7500  126.8760   70.7110 C   0  0  0  0  0  0  0  0  0  0  0  0
  125.5319  126.6237   75.3738 H   0  0  0  0  0  0  0  0  0  0  0  0
  124.4416  127.1331   74.0403 H   0  0  0  0  0  0  0  0  0  0  0  0
  125.1500  125.4824   74.0403 H   0  0  0  0  0  0  0  0  0  0  0  0
  126.2807  127.1105   72.4387 H   0  0  0  0  0  0  0  0  0  0  0  0
  126.8108  128.0566   73.8701 H   0  0  0  0  0  0  0  0  0  0  0  0
  129.9320  124.1419   72.3769 H   0  0  0  0  0  0  0  0  0  0  0  0
  130.3342  123.3912   70.0446 H   0  0  0  0  0  0  0  0  0  0  0  0
  130.4300  123.8760   67.8810 H   0  0  0  0  0  0  0  0  0  0  0  0
  131.2537  119.2562   61.8343 H   0  0  0  0  0  0  0  0  0  0  0  0
  130.3648  120.1491   60.5540 H   0  0  0  0  0  0  0  0  0  0  0  0
  132.1610  120.1304   60.5540 H   0  0  0  0  0  0  0  0  0  0  0  0
  132.9317  122.3225   61.0098 H   0  0  0  0  0  0  0  0  0  0  0  0
  133.6026  125.0442   63.2987 H   0  0  0  0  0  0  0  0  0  0  0  0
  134.0538  124.2143   61.7708 H   0  0  0  0  0  0  0  0  0  0  0  0
  132.7493  125.4491   61.7708 H   0  0  0  0  0  0  0  0  0  0  0  0
  132.1300  126.0650   65.6230 H   0  0  0  0  0  0  0  0  0  0  0  0
  131.7720  126.4100   63.9760 H   0  0  0  0  0  0  0  0  0  0  0  0
  128.6976  127.1095   68.5610 H   0  0  0  0  0  0  0  0  0  0  0  0
  128.3055  127.8649   70.8966 H   0  0  0  0  0  0  0  0  0  0  0  0
  1  2  1  0
  2  3  1  0
  3  4  1  0
  4  5  2  0
  4  6  1  0
  6  7  2  0
  7  8  1  0
  8  9  2  0
  9 10  1  0
 10 11  1  0
 11 12  2  0
 11 13  1  0
 13 14  1  0
 14 15  1  0
 15 16  2  0
 16 17  1  0
 17 18  1  0
 17 19  2  0
 19 20  1  0
 20 21  1  0
 20 22  2  0
 22 23  1  0
 23 24  1  0
  9 25  1  0
 25 26  2  0
 26  6  1  0
 23 13  2  0
 22 15  1  0
  1 27  1  0
  1 28  1  0
  1 29  1  0
  2 30  1  0
  2 31  1  0
  7 32  1  0
  8 33  1  0
 10 34  1  0
 18 35  1  0
 18 36  1  0
 18 37  1  0
 19 38  1  0
 21 39  1  0
 21 40  1  0
 21 41  1  0
 24 42  1  0
 24 43  1  0
 25 44  1  0
 26 45  1  0
M  END
>  <Binding energies>  (1) 
[-7.58]

>  <Ligand effiencies>  (1) 
[-0.2613793103448276]

>  <Interactions>  (1) 
["V-B:GLU:543:CA:9876, V-A:GLU:543:CD:4908, V-A:HIS:456:CD2:4068, V-A:ASP:366:CG:3213, V-B:TYR:539:CD2:9846, V-A:LEU:475:CD1:4258, V-B:GLU:543:CB:9878, H-A:TYR:484:OH:4348, V-A:TYR:484:CZ:4347, V-B:GLU:543:C:9874, V-A:TYR:484:CE1:4345, V-B:HIS:456:CE1:9040, V-A:HIS:456:CE1:4069, V-B:GLU:543:CG:9879, V-A:ARG:545:CZ:4926, V-B:ALA:541:CB:9864, H-B:LYS:547:NZ:9923, V-A:TRP:381:CH2:3372, H-B:GLU:543:O:9875, H-A:GLU:543:OE1:4909, H-A:GLU:543:OE2:4910, V-B:LYS:547:CD:9921, V-A:HIS:456:CG:4066, V-A:TYR:484:CD1:4343, V-B:LYS:547:CE:9922, H-A:LYS:547:NZ:4951, H-A:HIS:456:ND1:4067, V-B:LYS:547:CG:9920"]

$$$$
4ab_Grossjean_2025
     RDKit          3D

 42 44  0  0  0  0  0  0  0  0999 V2000
  126.4300  126.8370   73.9060 C   0  0  0  0  0  0  0  0  0  0  0  0
  127.6490  126.1170   73.7870 O   0  0  0  0  0  0  0  0  0  0  0  0
  128.7470  126.6880   73.2290 C   0  0  0  0  0  0  0  0  0  0  0  0
  129.4740  127.4890   73.8250 O   0  0  0  0  0  0  0  0  0  0  0  0
  128.9850  126.2540   71.8120 C   0  0  0  0  0  0  0  0  0  0  0  0
  129.6250  125.0310   71.5700 C   0  0  0  0  0  0  0  0  0  0  0  0
  129.8620  124.6020   70.2660 C   0  0  0  0  0  0  0  0  0  0  0  0
  129.4590  125.3800   69.1810 C   0  0  0  0  0  0  0  0  0  0  0  0
  129.7550  124.8530   67.9100 N   0  0  0  0  0  0  0  0  0  0  0  0
  130.3050  125.4500   66.8240 C   0  0  0  0  0  0  0  0  0  0  0  0
  130.6140  126.6410   66.7700 O   0  0  0  0  0  0  0  0  0  0  0  0
  130.4980  124.5780   65.6640 C   0  0  0  0  0  0  0  0  0  0  0  0
  129.4950  123.1400   65.4530 S   0  0  0  0  0  0  0  0  0  0  0  0
  130.3450  122.7040   63.9880 C   0  0  0  0  0  0  0  0  0  0  0  0
  130.0310  121.6130   63.2880 N   0  0  0  0  0  0  0  0  0  0  0  0
  130.7680  121.3880   62.1740 C   0  0  0  0  0  0  0  0  0  0  0  0
  130.3980  120.1390   61.3950 C   0  0  0  0  0  0  0  0  0  0  0  0
  131.7990  122.2210   61.7450 C   0  0  0  0  0  0  0  0  0  0  0  0
  132.1260  123.3650   62.4820 C   0  0  0  0  0  0  0  0  0  0  0  0
  133.2610  124.2420   61.9740 C   0  0  0  0  0  0  0  0  0  0  0  0
  131.3780  123.6320   63.6600 C   0  0  0  0  0  0  0  0  0  0  0  0
  131.4470  124.6870   64.6350 C   0  0  0  0  0  0  0  0  0  0  0  0
  132.3650  125.7040   64.5490 N   0  0  0  0  0  0  0  0  0  0  0  0
  128.8230  126.6080   69.4130 C   0  0  0  0  0  0  0  0  0  0  0  0
  128.5880  127.0370   70.7170 C   0  0  0  0  0  0  0  0  0  0  0  0
  126.1902  126.9786   74.9702 H   0  0  0  0  0  0  0  0  0  0  0  0
  126.5348  127.8182   73.4200 H   0  0  0  0  0  0  0  0  0  0  0  0
  125.6212  126.2716   73.4200 H   0  0  0  0  0  0  0  0  0  0  0  0
  129.9428  124.4047   72.4166 H   0  0  0  0  0  0  0  0  0  0  0  0
  130.3707  123.6426   70.0908 H   0  0  0  0  0  0  0  0  0  0  0  0
  129.5030  123.8830   67.7970 H   0  0  0  0  0  0  0  0  0  0  0  0
  130.1574  119.3269   62.0969 H   0  0  0  0  0  0  0  0  0  0  0  0
  129.5231  120.3476   60.7618 H   0  0  0  0  0  0  0  0  0  0  0  0
  131.2454  119.8373   60.7618 H   0  0  0  0  0  0  0  0  0  0  0  0
  132.3558  121.9797   60.8275 H   0  0  0  0  0  0  0  0  0  0  0  0
  133.8085  124.6650   62.8292 H   0  0  0  0  0  0  0  0  0  0  0  0
  133.9467  123.6368   61.3628 H   0  0  0  0  0  0  0  0  0  0  0  0
  132.8484  125.0582   61.3628 H   0  0  0  0  0  0  0  0  0  0  0  0
  133.1180  125.6870   63.8760 H   0  0  0  0  0  0  0  0  0  0  0  0
  132.3190  126.5050   65.1640 H   0  0  0  0  0  0  0  0  0  0  0  0
  128.5093  127.2332   68.5641 H   0  0  0  0  0  0  0  0  0  0  0  0
  128.0857  128.0001   70.8906 H   0  0  0  0  0  0  0  0  0  0  0  0
  1  2  1  0
  2  3  1  0
  3  4  2  0
  3  5  1  0
  5  6  2  0
  6  7  1  0
  7  8  2  0
  8  9  1  0
  9 10  1  0
 10 11  2  0
 10 12  1  0
 12 13  1  0
 13 14  1  0
 14 15  2  0
 15 16  1  0
 16 17  1  0
 16 18  2  0
 18 19  1  0
 19 20  1  0
 19 21  2  0
 21 22  1  0
 22 23  1  0
  8 24  1  0
 24 25  2  0
 25  5  1  0
 22 12  2  0
 21 14  1  0
  1 26  1  0
  1 27  1  0
  1 28  1  0
  6 29  1  0
  7 30  1  0
  9 31  1  0
 17 32  1  0
 17 33  1  0
 17 34  1  0
 18 35  1  0
 20 36  1  0
 20 37  1  0
 20 38  1  0
 23 39  1  0
 23 40  1  0
 24 41  1  0
 25 42  1  0
M  END
>  <Binding energies>  (1) 
[-7.2]

>  <Ligand effiencies>  (1) 
[-0.2571428571428572]

>  <Interactions>  (1) 
["H-A:HIS:456:NE2:4070, V-B:GLU:543:CA:9876, V-A:GLU:543:CD:4908, V-A:HIS:456:CD2:4068, V-A:LEU:475:CD1:4258, V-B:GLU:543:CB:9878, H-A:TYR:484:OH:4348, V-A:TYR:484:CZ:4347, V-B:GLU:543:C:9874, V-A:TYR:484:CE1:4345, V-B:HIS:456:CE1:9040, V-A:HIS:456:CE1:4069, V-B:GLU:543:CG:9879, V-A:ARG:545:CZ:4926, V-B:ALA:541:CB:9864, H-B:LYS:547:NZ:9923, H-B:GLU:543:O:9875, H-A:GLU:543:OE2:4910, V-B:LYS:547:CD:9921, V-A:HIS:456:CG:4066, H-A:LYS:547:NZ:4951"]

$$$$
4ac_Grossjean_2025
     RDKit          3D

 40 42  0  0  0  0  0  0  0  0999 V2000
  126.9860  126.9770   73.4600 C   0  0  0  0  0  0  0  0  0  0  0  0
  127.9190  125.9300   73.2140 O   0  0  0  0  0  0  0  0  0  0  0  0
  128.3980  125.7410   71.9320 C   0  0  0  0  0  0  0  0  0  0  0  0
  129.3310  124.7190   71.7610 C   0  0  0  0  0  0  0  0  0  0  0  0
  129.8700  124.4530   70.5050 C   0  0  0  0  0  0  0  0  0  0  0  0
  129.4730  125.2040   69.3980 C   0  0  0  0  0  0  0  0  0  0  0  0
  130.0800  124.8730   68.1720 N   0  0  0  0  0  0  0  0  0  0  0  0
  129.7200  125.2250   66.9150 C   0  0  0  0  0  0  0  0  0  0  0  0
  128.7260  125.9020   66.6470 O   0  0  0  0  0  0  0  0  0  0  0  0
  130.6000  124.7360   65.8500 C   0  0  0  0  0  0  0  0  0  0  0  0
  132.2080  125.4290   65.6330 S   0  0  0  0  0  0  0  0  0  0  0  0
  132.5310  124.3720   64.2760 C   0  0  0  0  0  0  0  0  0  0  0  0
  133.6880  124.4080   63.6140 N   0  0  0  0  0  0  0  0  0  0  0  0
  133.8110  123.5380   62.5830 C   0  0  0  0  0  0  0  0  0  0  0  0
  135.1340  123.5940   61.8430 C   0  0  0  0  0  0  0  0  0  0  0  0
  132.8130  122.6430   62.2010 C   0  0  0  0  0  0  0  0  0  0  0  0
  131.6000  122.6080   62.8980 C   0  0  0  0  0  0  0  0  0  0  0  0
  130.5420  121.6140   62.4440 C   0  0  0  0  0  0  0  0  0  0  0  0
  131.4360  123.5050   63.9880 C   0  0  0  0  0  0  0  0  0  0  0  0
  130.3480  123.7320   64.9010 C   0  0  0  0  0  0  0  0  0  0  0  0
  129.1760  123.0220   64.8340 N   0  0  0  0  0  0  0  0  0  0  0  0
  128.5450  126.2420   69.5630 C   0  0  0  0  0  0  0  0  0  0  0  0
  128.0080  126.5050   70.8220 C   0  0  0  0  0  0  0  0  0  0  0  0
  126.8649  127.1129   74.5448 H   0  0  0  0  0  0  0  0  0  0  0  0
  127.3567  127.9110   73.0126 H   0  0  0  0  0  0  0  0  0  0  0  0
  126.0156  126.7160   73.0126 H   0  0  0  0  0  0  0  0  0  0  0  0
  129.6443  124.1170   72.6267 H   0  0  0  0  0  0  0  0  0  0  0  0
  130.6107  123.6487   70.3851 H   0  0  0  0  0  0  0  0  0  0  0  0
  130.8790  124.2590   68.2530 H   0  0  0  0  0  0  0  0  0  0  0  0
  135.9593  123.6289   62.5694 H   0  0  0  0  0  0  0  0  0  0  0  0
  135.2390  122.6995   61.2115 H   0  0  0  0  0  0  0  0  0  0  0  0
  135.1631  124.4942   61.2115 H   0  0  0  0  0  0  0  0  0  0  0  0
  132.9789  121.9641   61.3515 H   0  0  0  0  0  0  0  0  0  0  0  0
  130.0614  121.1624   63.3244 H   0  0  0  0  0  0  0  0  0  0  0  0
  129.7848  122.1349   61.8396 H   0  0  0  0  0  0  0  0  0  0  0  0
  131.0147  120.8258   61.8396 H   0  0  0  0  0  0  0  0  0  0  0  0
  128.9080  122.3660   65.5520 H   0  0  0  0  0  0  0  0  0  0  0  0
  128.5380  123.1360   64.0590 H   0  0  0  0  0  0  0  0  0  0  0  0
  128.2404  126.8494   68.6979 H   0  0  0  0  0  0  0  0  0  0  0  0
  127.2748  127.3156   70.9458 H   0  0  0  0  0  0  0  0  0  0  0  0
  1  2  1  0
  2  3  1  0
  3  4  2  0
  4  5  1  0
  5  6  2  0
  6  7  1  0
  7  8  1  0
  8  9  2  0
  8 10  1  0
 10 11  1  0
 11 12  1  0
 12 13  2  0
 13 14  1  0
 14 15  1  0
 14 16  2  0
 16 17  1  0
 17 18  1  0
 17 19  2  0
 19 20  1  0
 20 21  1  0
  6 22  1  0
 22 23  2  0
 23  3  1  0
 20 10  2  0
 19 12  1  0
  1 24  1  0
  1 25  1  0
  1 26  1  0
  4 27  1  0
  5 28  1  0
  7 29  1  0
 15 30  1  0
 15 31  1  0
 15 32  1  0
 16 33  1  0
 18 34  1  0
 18 35  1  0
 18 36  1  0
 21 37  1  0
 21 38  1  0
 22 39  1  0
 23 40  1  0
M  END
>  <Binding energies>  (1) 
[-6.9]

>  <Ligand effiencies>  (1) 
[-0.2653846153846154]

>  <Interactions>  (1) 
["V-B:GLU:543:CA:9876, V-A:HIS:456:CD2:4068, V-A:LEU:475:CD1:4258, V-B:GLU:543:CB:9878, H-A:TYR:484:OH:4348, V-A:TYR:484:CZ:4347, V-B:GLU:543:C:9874, V-A:TYR:484:CE1:4345, V-B:HIS:456:CE1:9040, V-A:HIS:456:CE1:4069, V-B:GLU:543:CG:9879, V-B:GLY:544:C:9884, V-B:ALA:541:CB:9864, H-B:LYS:547:NZ:9923, V-A:ILE:369:CD1:3239, V-A:GLY:453:CA:4044, V-A:GLY:454:CA:4049, V-A:GLY:453:C:4042, H-A:GLY:454:N:4050, H-B:GLU:543:O:9875, V-A:HIS:456:CG:4066, H-A:HIS:456:ND1:4067"]

$$$$
4ad_Grossjean_2025
     RDKit          3D

 36 38  0  0  0  0  0  0  0  0999 V2000
  130.8910  120.3880   61.3530 C   0  0  0  0  0  0  0  0  0  0  0  0
  131.2020  121.5760   62.2450 C   0  0  0  0  0  0  0  0  0  0  0  0
  132.3430  122.3470   62.0410 C   0  0  0  0  0  0  0  0  0  0  0  0
  132.6110  123.4370   62.8780 C   0  0  0  0  0  0  0  0  0  0  0  0
  133.8710  124.2480   62.6170 C   0  0  0  0  0  0  0  0  0  0  0  0
  131.6870  123.7140   63.9210 C   0  0  0  0  0  0  0  0  0  0  0  0
  131.6490  124.7290   64.9400 C   0  0  0  0  0  0  0  0  0  0  0  0
  132.6230  125.6900   65.0500 N   0  0  0  0  0  0  0  0  0  0  0  0
  130.5380  124.6410   65.7930 C   0  0  0  0  0  0  0  0  0  0  0  0
  130.1960  125.4910   66.9350 C   0  0  0  0  0  0  0  0  0  0  0  0
  130.4830  126.6900   66.9340 O   0  0  0  0  0  0  0  0  0  0  0  0
  129.5500  124.8660   67.9510 N   0  0  0  0  0  0  0  0  0  0  0  0
  129.1260  125.3800   69.1920 C   0  0  0  0  0  0  0  0  0  0  0  0
  128.0960  126.3240   69.1420 C   0  0  0  0  0  0  0  0  0  0  0  0
  127.5990  126.8830   70.3160 C   0  0  0  0  0  0  0  0  0  0  0  0
  128.1270  126.4920   71.5440 C   0  0  0  0  0  0  0  0  0  0  0  0
  129.1440  125.5420   71.6080 C   0  0  0  0  0  0  0  0  0  0  0  0
  129.6430  124.9820   70.4350 C   0  0  0  0  0  0  0  0  0  0  0  0
  129.4990  123.2870   65.3460 S   0  0  0  0  0  0  0  0  0  0  0  0
  130.5570  122.8480   64.0250 C   0  0  0  0  0  0  0  0  0  0  0  0
  130.2990  121.8090   63.2280 N   0  0  0  0  0  0  0  0  0  0  0  0
  130.6615  119.5114   61.9766 H   0  0  0  0  0  0  0  0  0  0  0  0
  130.0242  120.6233   60.7180 H   0  0  0  0  0  0  0  0  0  0  0  0
  131.7619  120.1684   60.7180 H   0  0  0  0  0  0  0  0  0  0  0  0
  133.0343  122.0998   61.2219 H   0  0  0  0  0  0  0  0  0  0  0  0
  134.3244  124.5398   63.5758 H   0  0  0  0  0  0  0  0  0  0  0  0
  134.5860  123.6401   62.0432 H   0  0  0  0  0  0  0  0  0  0  0  0
  133.6138  125.1506   62.0432 H   0  0  0  0  0  0  0  0  0  0  0  0
  132.4930  126.5210   65.6090 H   0  0  0  0  0  0  0  0  0  0  0  0
  133.5110  125.5940   64.5760 H   0  0  0  0  0  0  0  0  0  0  0  0
  129.3210  123.8950   67.8010 H   0  0  0  0  0  0  0  0  0  0  0  0
  127.6766  126.6262   68.1710 H   0  0  0  0  0  0  0  0  0  0  0  0
  126.7928  127.6302   70.2740 H   0  0  0  0  0  0  0  0  0  0  0  0
  127.7376  126.9372   72.4715 H   0  0  0  0  0  0  0  0  0  0  0  0
  129.5516  125.2352   72.5825 H   0  0  0  0  0  0  0  0  0  0  0  0
  130.4423  124.2278   70.4822 H   0  0  0  0  0  0  0  0  0  0  0  0
  1  2  1  0
  2  3  2  0
  3  4  1  0
  4  5  1  0
  4  6  2  0
  6  7  1  0
  7  8  1  0
  7  9  2  0
  9 10  1  0
 10 11  2  0
 10 12  1  0
 12 13  1  0
 13 14  2  0
 14 15  1  0
 15 16  2  0
 16 17  1  0
 17 18  2  0
  9 19  1  0
 19 20  1  0
 20 21  2  0
 21  2  1  0
 20  6  1  0
 18 13  1  0
  1 22  1  0
  1 23  1  0
  1 24  1  0
  3 25  1  0
  5 26  1  0
  5 27  1  0
  5 28  1  0
  8 29  1  0
  8 30  1  0
 12 31  1  0
 14 32  1  0
 15 33  1  0
 16 34  1  0
 17 35  1  0
 18 36  1  0
M  END
>  <Binding energies>  (1) 
[-6.27]

>  <Ligand effiencies>  (1) 
[-0.26125]

>  <Interactions>  (1) 
["H-A:HIS:456:NE2:4070, V-B:GLU:543:CA:9876, V-A:GLU:543:CD:4908, V-A:HIS:456:CD2:4068, V-A:LEU:475:CD1:4258, V-B:GLU:543:CB:9878, H-A:TYR:484:OH:4348, V-A:TYR:484:CZ:4347, V-B:GLU:543:C:9874, V-A:TYR:484:CE1:4345, V-B:HIS:456:CE1:9040, V-A:HIS:456:CE1:4069, V-B:GLU:543:CG:9879, V-A:ARG:545:CZ:4926, V-B:GLY:544:C:9884, H-B:GLU:543:O:9875, H-A:GLU:543:OE2:4910, V-A:HIS:456:CG:4066"]

$$$$
4ae_Grossjean_2025
     RDKit          3D

 38 40  0  0  0  0  0  0  0  0999 V2000
  128.0190  119.8230   72.9170 C   0  0  0  0  0  0  0  0  0  0  0  0
  129.0970  120.8770   72.7490 C   0  0  0  0  0  0  0  0  0  0  0  0
  130.2600  120.8620   73.5230 C   0  0  0  0  0  0  0  0  0  0  0  0
  131.2050  121.8680   73.3190 C   0  0  0  0  0  0  0  0  0  0  0  0
  130.9670  122.8540   72.3590 C   0  0  0  0  0  0  0  0  0  0  0  0
  129.7840  122.8050   71.6130 C   0  0  0  0  0  0  0  0  0  0  0  0
  129.5910  123.8360   70.6770 N   0  0  0  0  0  0  0  0  0  0  0  0
  129.4150  125.1620   70.9000 C   0  0  0  0  0  0  0  0  0  0  0  0
  129.3920  125.6720   72.0210 O   0  0  0  0  0  0  0  0  0  0  0  0
  129.2440  125.9830   69.6990 C   0  0  0  0  0  0  0  0  0  0  0  0
  128.7150  127.6600   69.8350 S   0  0  0  0  0  0  0  0  0  0  0  0
  128.7300  127.8560   68.0970 C   0  0  0  0  0  0  0  0  0  0  0  0
  128.3930  129.0070   67.5140 N   0  0  0  0  0  0  0  0  0  0  0  0
  128.4420  129.0240   66.1600 C   0  0  0  0  0  0  0  0  0  0  0  0
  128.0470  130.3410   65.5170 C   0  0  0  0  0  0  0  0  0  0  0  0
  128.8190  127.9300   65.3830 C   0  0  0  0  0  0  0  0  0  0  0  0
  129.1730  126.7240   65.9990 C   0  0  0  0  0  0  0  0  0  0  0  0
  129.5740  125.5570   65.1100 C   0  0  0  0  0  0  0  0  0  0  0  0
  129.1320  126.6670   67.4190 C   0  0  0  0  0  0  0  0  0  0  0  0
  129.4210  125.6140   68.3560 C   0  0  0  0  0  0  0  0  0  0  0  0
  129.8310  124.3670   67.9540 N   0  0  0  0  0  0  0  0  0  0  0  0
  128.8520  121.8270   71.8120 N   0  0  0  0  0  0  0  0  0  0  0  0
  127.8406  119.6485   73.9883 H   0  0  0  0  0  0  0  0  0  0  0  0
  127.0895  120.1703   72.4423 H   0  0  0  0  0  0  0  0  0  0  0  0
  128.3453  118.8859   72.4423 H   0  0  0  0  0  0  0  0  0  0  0  0
  130.4265  120.0764   74.2747 H   0  0  0  0  0  0  0  0  0  0  0  0
  132.1321  121.8844   73.9108 H   0  0  0  0  0  0  0  0  0  0  0  0
  131.6991  123.6578   72.1916 H   0  0  0  0  0  0  0  0  0  0  0  0
  129.5290  123.5290   69.7170 H   0  0  0  0  0  0  0  0  0  0  0  0
  127.8254  131.0799   66.3011 H   0  0  0  0  0  0  0  0  0  0  0  0
  128.8750  130.7068   64.8920 H   0  0  0  0  0  0  0  0  0  0  0  0
  127.1544  130.1907   64.8920 H   0  0  0  0  0  0  0  0  0  0  0  0
  128.8383  128.0143   64.2864 H   0  0  0  0  0  0  0  0  0  0  0  0
  129.8677  124.7023   65.7371 H   0  0  0  0  0  0  0  0  0  0  0  0
  128.7228  125.2704   64.4749 H   0  0  0  0  0  0  0  0  0  0  0  0
  130.4216  125.8542   64.4749 H   0  0  0  0  0  0  0  0  0  0  0  0
  130.7500  124.2060   67.5690 H   0  0  0  0  0  0  0  0  0  0  0  0
  129.2220  123.5640   68.0330 H   0  0  0  0  0  0  0  0  0  0  0  0
  1  2  1  0
  2  3  2  0
  3  4  1  0
  4  5  2  0
  5  6  1  0
  6  7  1  0
  7  8  1  0
  8  9  2  0
  8 10  1  0
 10 11  1  0
 11 12  1  0
 12 13  2  0
 13 14  1  0
 14 15  1  0
 14 16  2  0
 16 17  1  0
 17 18  1  0
 17 19  2  0
 19 20  1  0
 20 21  1  0
  6 22  2  0
 22  2  1  0
 20 10  2  0
 19 12  1  0
  1 23  1  0
  1 24  1  0
  1 25  1  0
  3 26  1  0
  4 27  1  0
  5 28  1  0
  7 29  1  0
 15 30  1  0
 15 31  1  0
 15 32  1  0
 16 33  1  0
 18 34  1  0
 18 35  1  0
 18 36  1  0
 21 37  1  0
 21 38  1  0
M  END
>  <Binding energies>  (1) 
[-7.44]

>  <Ligand effiencies>  (1) 
[-0.29760000000000003]

>  <Interactions>  (1) 
["V-B:GLU:543:CA:9876, V-A:GLU:543:CD:4908, V-A:HIS:456:CD2:4068, V-B:GLU:543:CB:9878, H-B:HIS:456:NE2:9041, H-A:TYR:484:OH:4348, V-A:TYR:484:CZ:4347, V-B:GLU:543:C:9874, V-A:TYR:484:CE1:4345, V-B:HIS:456:CE1:9040, V-A:HIS:456:CE1:4069, V-B:GLU:543:CG:9879, V-A:GLU:543:CB:4906, H-B:LYS:547:NZ:9923, V-A:GLU:543:CG:4907, V-B:TYR:484:CZ:9318, H-B:GLU:543:O:9875, V-A:TYR:484:CG:4342, V-A:TYR:484:CE2:4346, V-A:HIS:456:CG:4066, V-A:TYR:484:CD1:4343, V-A:TYR:484:CD2:4344, V-A:HIS:456:CB:4065, V-A:ASP:473:CG:4240, V-B:LYS:547:CE:9922, V-A:ASP:473:CB:4239, H-A:HIS:456:ND1:4067, V-A:TYR:484:CB:4341"]

$$$$
4af_Grossjean_2025
     RDKit          3D

 35 37  0  0  0  0  0  0  0  0999 V2000
  127.9110  130.2270   64.6100 C   0  0  0  0  0  0  0  0  0  0  0  0
  128.3150  128.9690   65.3570 C   0  0  0  0  0  0  0  0  0  0  0  0
  128.6270  127.7970   64.6710 C   0  0  0  0  0  0  0  0  0  0  0  0
  128.9950  126.6470   65.3810 C   0  0  0  0  0  0  0  0  0  0  0  0
  129.3250  125.3920   64.5890 C   0  0  0  0  0  0  0  0  0  0  0  0
  129.0330  126.7280   66.8000 C   0  0  0  0  0  0  0  0  0  0  0  0
  129.3570  125.7640   67.8170 C   0  0  0  0  0  0  0  0  0  0  0  0
  129.7200  124.4760   67.5160 N   0  0  0  0  0  0  0  0  0  0  0  0
  129.2670  126.2640   69.1260 C   0  0  0  0  0  0  0  0  0  0  0  0
  129.4950  125.5590   70.3890 C   0  0  0  0  0  0  0  0  0  0  0  0
  129.5200  126.1750   71.4550 O   0  0  0  0  0  0  0  0  0  0  0  0
  129.6520  124.2170   70.2830 N   0  0  0  0  0  0  0  0  0  0  0  0
  129.9290  123.2660   71.2830 C   0  0  0  0  0  0  0  0  0  0  0  0
  131.0790  123.2470   72.0940 C   0  0  0  0  0  0  0  0  0  0  0  0
  131.2400  122.2330   73.0400 C   0  0  0  0  0  0  0  0  0  0  0  0
  130.2480  121.2580   73.1510 C   0  0  0  0  0  0  0  0  0  0  0  0
  129.1350  121.2490   72.3760 N   0  0  0  0  0  0  0  0  0  0  0  0
  128.9920  122.2410   71.4610 C   0  0  0  0  0  0  0  0  0  0  0  0
  128.7700  127.9580   69.1280 S   0  0  0  0  0  0  0  0  0  0  0  0
  128.6910  127.9860   67.3810 C   0  0  0  0  0  0  0  0  0  0  0  0
  128.3420  129.0830   66.7080 N   0  0  0  0  0  0  0  0  0  0  0  0
  127.6573  131.0169   65.3323 H   0  0  0  0  0  0  0  0  0  0  0  0
  128.7466  130.5625   63.9781 H   0  0  0  0  0  0  0  0  0  0  0  0
  127.0363  130.0133   63.9781 H   0  0  0  0  0  0  0  0  0  0  0  0
  128.5843  127.7749   63.5721 H   0  0  0  0  0  0  0  0  0  0  0  0
  129.5420  124.5668   65.2832 H   0  0  0  0  0  0  0  0  0  0  0  0
  128.4673  125.1222   63.9554 H   0  0  0  0  0  0  0  0  0  0  0  0
  130.2045  125.5790   63.9554 H   0  0  0  0  0  0  0  0  0  0  0  0
  129.0590  123.7130   67.5480 H   0  0  0  0  0  0  0  0  0  0  0  0
  130.6670  124.2480   67.2460 H   0  0  0  0  0  0  0  0  0  0  0  0
  129.5510  123.8290   69.3560 H   0  0  0  0  0  0  0  0  0  0  0  0
  131.8468  124.0268   71.9831 H   0  0  0  0  0  0  0  0  0  0  0  0
  132.1307  122.2033   73.6847 H   0  0  0  0  0  0  0  0  0  0  0  0
  130.3742  120.4620   73.8997 H   0  0  0  0  0  0  0  0  0  0  0  0
  128.0935  122.2397   70.8264 H   0  0  0  0  0  0  0  0  0  0  0  0
  1  2  1  0
  2  3  2  0
  3  4  1  0
  4  5  1  0
  4  6  2  0
  6  7  1  0
  7  8  1  0
  7  9  2  0
  9 10  1  0
 10 11  2  0
 10 12  1  0
 12 13  1  0
 13 14  2  0
 14 15  1  0
 15 16  2  0
 16 17  1  0
 17 18  2  0
  9 19  1  0
 19 20  1  0
 20 21  2  0
 21  2  1  0
 20  6  1  0
 18 13  1  0
  1 22  1  0
  1 23  1  0
  1 24  1  0
  3 25  1  0
  5 26  1  0
  5 27  1  0
  5 28  1  0
  8 29  1  0
  8 30  1  0
 12 31  1  0
 14 32  1  0
 15 33  1  0
 16 34  1  0
 18 35  1  0
M  END
>  <Binding energies>  (1) 
[-6.9]

>  <Ligand effiencies>  (1) 
[-0.28750000000000003]

>  <Interactions>  (1) 
["H-A:HIS:456:NE2:4070, V-B:GLU:543:CA:9876, V-A:GLU:543:CD:4908, V-A:HIS:456:CD2:4068, V-B:GLU:543:CD:9880, V-B:GLU:543:CB:9878, H-A:TYR:484:OH:4348, V-A:TYR:484:CZ:4347, V-B:GLU:543:C:9874, V-A:TYR:484:CE1:4345, V-B:HIS:456:CE1:9040, V-A:HIS:456:CE1:4069, V-B:GLU:543:CG:9879, V-A:GLU:543:CB:4906, H-B:LYS:547:NZ:9923, H-B:GLU:543:O:9875, V-A:TYR:484:CG:4342, V-A:TYR:484:CE2:4346, V-A:HIS:456:CG:4066, V-A:TYR:484:CD1:4343, V-A:TYR:484:CD2:4344, V-B:GLY:544:CA:9886, V-A:HIS:456:CB:4065, V-A:ASP:473:CG:4240, V-B:LYS:547:CE:9922, V-A:ASP:473:CB:4239, H-A:HIS:456:ND1:4067, V-A:TYR:484:CB:4341"]

$$$$
4ag_Grossjean_2025
     RDKit          3D

 39 41  0  0  0  0  0  0  0  0999 V2000
  133.4070  125.8470   75.7490 C   0  0  0  0  0  0  0  0  0  0  0  0
  132.3650  125.4690   74.7130 C   0  0  0  0  0  0  0  0  0  0  0  0
  132.2710  124.1640   74.2340 C   0  0  0  0  0  0  0  0  0  0  0  0
  131.3010  123.8370   73.2790 C   0  0  0  0  0  0  0  0  0  0  0  0
  131.2380  122.3990   72.7870 C   0  0  0  0  0  0  0  0  0  0  0  0
  130.4370  124.8710   72.8310 C   0  0  0  0  0  0  0  0  0  0  0  0
  129.3560  124.8880   71.8830 C   0  0  0  0  0  0  0  0  0  0  0  0
  128.9640  123.7650   71.1970 N   0  0  0  0  0  0  0  0  0  0  0  0
  128.7550  126.1450   71.7280 C   0  0  0  0  0  0  0  0  0  0  0  0
  127.6330  126.5160   70.8640 C   0  0  0  0  0  0  0  0  0  0  0  0
  126.7780  127.3230   71.2330 O   0  0  0  0  0  0  0  0  0  0  0  0
  127.5860  125.9100   69.6590 N   0  0  0  0  0  0  0  0  0  0  0  0
  126.5740  126.1470   68.6300 C   0  0  0  0  0  0  0  0  0  0  0  0
  126.9050  127.3020   67.6910 C   0  0  0  0  0  0  0  0  0  0  0  0
  125.8720  128.0260   67.0890 C   0  0  0  0  0  0  0  0  0  0  0  0
  126.1720  129.0970   66.2500 C   0  0  0  0  0  0  0  0  0  0  0  0
  127.5010  129.4470   66.0260 C   0  0  0  0  0  0  0  0  0  0  0  0
  128.5350  128.7400   66.6360 C   0  0  0  0  0  0  0  0  0  0  0  0
  128.2360  127.6690   67.4750 C   0  0  0  0  0  0  0  0  0  0  0  0
  129.5110  127.3490   72.7700 S   0  0  0  0  0  0  0  0  0  0  0  0
  130.6350  126.1650   73.3990 C   0  0  0  0  0  0  0  0  0  0  0  0
  131.5570  126.4800   74.3100 N   0  0  0  0  0  0  0  0  0  0  0  0
  132.9931  125.6969   76.7570 H   0  0  0  0  0  0  0  0  0  0  0  0
  134.2980  125.2148   75.6205 H   0  0  0  0  0  0  0  0  0  0  0  0
  133.6854  126.9034   75.6205 H   0  0  0  0  0  0  0  0  0  0  0  0
  132.9590  123.3906   74.6062 H   0  0  0  0  0  0  0  0  0  0  0  0
  131.2081  121.7173   73.6498 H   0  0  0  0  0  0  0  0  0  0  0  0
  130.3329  122.2592   72.1777 H   0  0  0  0  0  0  0  0  0  0  0  0
  132.1274  122.1806   72.1777 H   0  0  0  0  0  0  0  0  0  0  0  0
  128.0120  123.4280   71.2280 H   0  0  0  0  0  0  0  0  0  0  0  0
  129.6170  123.2390   70.6330 H   0  0  0  0  0  0  0  0  0  0  0  0
  128.3500  125.3030   69.4000 H   0  0  0  0  0  0  0  0  0  0  0  0
  126.4701  125.2314   68.0293 H   0  0  0  0  0  0  0  0  0  0  0  0
  125.6448  126.4174   69.1529 H   0  0  0  0  0  0  0  0  0  0  0  0
  124.8238  127.7506   67.2774 H   0  0  0  0  0  0  0  0  0  0  0  0
  125.3625  129.6637   65.7666 H   0  0  0  0  0  0  0  0  0  0  0  0
  127.7370  130.2905   65.3605 H   0  0  0  0  0  0  0  0  0  0  0  0
  129.5818  129.0260   66.4560 H   0  0  0  0  0  0  0  0  0  0  0  0
  129.0471  127.1124   67.9673 H   0  0  0  0  0  0  0  0  0  0  0  0
  1  2  1  0
  2  3  2  0
  3  4  1  0
  4  5  1  0
  4  6  2  0
  6  7  1  0
  7  8  1  0
  7  9  2  0
  9 10  1  0
 10 11  2  0
 10 12  1  0
 12 13  1  0
 13 14  1  0
 14 15  2  0
 15 16  1  0
 16 17  2  0
 17 18  1  0
 18 19  2  0
  9 20  1  0
 20 21  1  0
 21 22  2  0
 22  2  1  0
 21  6  1  0
 19 14  1  0
  1 23  1  0
  1 24  1  0
  1 25  1  0
  3 26  1  0
  5 27  1  0
  5 28  1  0
  5 29  1  0
  8 30  1  0
  8 31  1  0
 12 32  1  0
 13 33  1  0
 13 34  1  0
 15 35  1  0
 16 36  1  0
 17 37  1  0
 18 38  1  0
 19 39  1  0
M  END
>  <Binding energies>  (1) 
[-7.15]

>  <Ligand effiencies>  (1) 
[-0.28600000000000003]

>  <Interactions>  (1) 
["V-B:GLU:543:CA:9876, V-A:GLU:543:CD:4908, V-A:HIS:456:CD2:4068, V-B:GLU:543:CB:9878, H-B:HIS:456:NE2:9041, V-B:GLU:543:C:9874, V-B:HIS:456:CE1:9040, V-B:ARG:545:CD:9895, V-B:ARG:545:CG:9894, V-A:GLU:543:CB:4906, V-B:ARG:545:CA:9891, V-B:GLY:544:C:9884, V-A:GLU:543:CG:4907, H-B:GLU:543:O:9875, V-A:TYR:484:CG:4342, V-A:TYR:484:CE2:4346, V-A:HIS:456:CG:4066, V-A:TYR:484:CD2:4344, V-B:GLY:544:CA:9886, V-A:HIS:456:CB:4065, V-A:ASP:473:CB:4239, H-A:LYS:547:NZ:4951, H-B:GLY:544:O:9885, V-A:TYR:484:CB:4341, V-A:VAL:458:CG2:4087, V-A:LYS:547:CD:4949"]

$$$$
4ah_Grossjean_2025
     RDKit          3D

 51 53  0  0  0  0  0  0  0  0999 V2000
  130.7860  121.5600   73.4910 C   0  0  0  0  0  0  0  0  0  0  0  0
  131.1280  122.5040   72.4830 O   0  0  0  0  0  0  0  0  0  0  0  0
  130.6920  123.8120   72.6020 C   0  0  0  0  0  0  0  0  0  0  0  0
  129.6220  124.3510   71.8710 C   0  0  0  0  0  0  0  0  0  0  0  0
  129.2370  125.6820   72.0420 C   0  0  0  0  0  0  0  0  0  0  0  0
  128.0430  126.2360   71.2730 C   0  0  0  0  0  0  0  0  0  0  0  0
  128.2230  126.2220   69.8220 N   0  0  0  0  0  0  0  0  0  0  0  0
  128.9520  127.1110   69.1150 C   0  0  0  0  0  0  0  0  0  0  0  0
  129.5200  128.0710   69.6400 O   0  0  0  0  0  0  0  0  0  0  0  0
  128.9970  126.8980   67.6690 C   0  0  0  0  0  0  0  0  0  0  0  0
  128.4340  128.1580   66.5700 S   0  0  0  0  0  0  0  0  0  0  0  0
  128.7650  127.1520   65.1770 C   0  0  0  0  0  0  0  0  0  0  0  0
  128.5380  127.5730   63.9330 N   0  0  0  0  0  0  0  0  0  0  0  0
  128.8400  126.6970   62.9440 C   0  0  0  0  0  0  0  0  0  0  0  0
  128.5700  127.1950   61.5350 C   0  0  0  0  0  0  0  0  0  0  0  0
  129.3600  125.4250   63.1680 C   0  0  0  0  0  0  0  0  0  0  0  0
  129.5960  124.9840   64.4750 C   0  0  0  0  0  0  0  0  0  0  0  0
  130.1640  123.5870   64.6690 C   0  0  0  0  0  0  0  0  0  0  0  0
  129.2900  125.8750   65.5400 C   0  0  0  0  0  0  0  0  0  0  0  0
  129.4000  125.7520   66.9690 C   0  0  0  0  0  0  0  0  0  0  0  0
  129.8680  124.6140   67.5740 N   0  0  0  0  0  0  0  0  0  0  0  0
  129.9080  126.4780   72.9710 C   0  0  0  0  0  0  0  0  0  0  0  0
  130.9850  125.9680   73.7120 C   0  0  0  0  0  0  0  0  0  0  0  0
  131.7030  126.7040   74.6380 O   0  0  0  0  0  0  0  0  0  0  0  0
  133.1050  126.8760   74.4560 C   0  0  0  0  0  0  0  0  0  0  0  0
  131.3710  124.6340   73.5140 C   0  0  0  0  0  0  0  0  0  0  0  0
  132.4120  124.1160   74.2460 O   0  0  0  0  0  0  0  0  0  0  0  0
  132.1120  123.9210   75.6210 C   0  0  0  0  0  0  0  0  0  0  0  0
  130.9481  122.0076   74.4827 H   0  0  0  0  0  0  0  0  0  0  0  0
  129.7283  121.2772   73.3848 H   0  0  0  0  0  0  0  0  0  0  0  0
  131.4172  120.6654   73.3848 H   0  0  0  0  0  0  0  0  0  0  0  0
  129.0799  123.7167   71.1543 H   0  0  0  0  0  0  0  0  0  0  0  0
  127.1590  125.6296   71.5195 H   0  0  0  0  0  0  0  0  0  0  0  0
  127.9261  127.2878   71.5732 H   0  0  0  0  0  0  0  0  0  0  0  0
  127.8550  125.4160   69.3370 H   0  0  0  0  0  0  0  0  0  0  0  0
  128.0462  128.1611   61.5817 H   0  0  0  0  0  0  0  0  0  0  0  0
  129.5237  127.3204   61.0014 H   0  0  0  0  0  0  0  0  0  0  0  0
  127.9446  126.4642   61.0014 H   0  0  0  0  0  0  0  0  0  0  0  0
  129.5856  124.7660   62.3167 H   0  0  0  0  0  0  0  0  0  0  0  0
  130.2511  123.3727   65.7444 H   0  0  0  0  0  0  0  0  0  0  0  0
  129.4939  122.8505   64.2015 H   0  0  0  0  0  0  0  0  0  0  0  0
  131.1579  123.5271   64.2015 H   0  0  0  0  0  0  0  0  0  0  0  0
  129.2920  124.0620   68.1920 H   0  0  0  0  0  0  0  0  0  0  0  0
  130.8140  124.2910   67.4230 H   0  0  0  0  0  0  0  0  0  0  0  0
  129.5884  127.5193   73.1246 H   0  0  0  0  0  0  0  0  0  0  0  0
  133.5975  126.9364   75.4377 H   0  0  0  0  0  0  0  0  0  0  0  0
  133.5095  126.0208   73.8948 H   0  0  0  0  0  0  0  0  0  0  0  0
  133.2908  127.8037   73.8948 H   0  0  0  0  0  0  0  0  0  0  0  0
  132.8761  124.4177   76.2370 H   0  0  0  0  0  0  0  0  0  0  0  0
  131.1243  124.3502   75.8453 H   0  0  0  0  0  0  0  0  0  0  0  0
  132.1033  122.8441   75.8453 H   0  0  0  0  0  0  0  0  0  0  0  0
  1  2  1  0
  2  3  1  0
  3  4  2  0
  4  5  1  0
  5  6  1  0
  6  7  1  0
  7  8  1  0
  8  9  2  0
  8 10  1  0
 10 11  1  0
 11 12  1  0
 12 13  2  0
 13 14  1  0
 14 15  1  0
 14 16  2  0
 16 17  1  0
 17 18  1  0
 17 19  2  0
 19 20  1  0
 20 21  1  0
  5 22  2  0
 22 23  1  0
 23 24  1  0
 24 25  1  0
 23 26  2  0
 26 27  1  0
 27 28  1  0
 26  3  1  0
 20 10  2  0
 19 12  1  0
  1 29  1  0
  1 30  1  0
  1 31  1  0
  4 32  1  0
  6 33  1  0
  6 34  1  0
  7 35  1  0
 15 36  1  0
 15 37  1  0
 15 38  1  0
 16 39  1  0
 18 40  1  0
 18 41  1  0
 18 42  1  0
 21 43  1  0
 21 44  1  0
 22 45  1  0
 25 46  1  0
 25 47  1  0
 25 48  1  0
 28 49  1  0
 28 50  1  0
 28 51  1  0
M  END
>  <Binding energies>  (1) 
[-6.87]

>  <Ligand effiencies>  (1) 
[-0.22161290322580646]

>  <Interactions>  (1) 
["H-A:HIS:456:NE2:4070, V-B:GLU:543:CA:9876, V-A:GLU:543:CD:4908, V-A:HIS:456:CD2:4068, V-B:GLU:543:CD:9880, V-B:GLU:543:CB:9878, H-B:HIS:456:NE2:9041, H-A:TYR:484:OH:4348, V-A:TYR:484:CZ:4347, V-B:GLU:543:C:9874, V-A:TYR:484:CE1:4345, V-B:HIS:456:CE1:9040, V-A:HIS:456:CE1:4069, V-B:GLU:543:CG:9879, V-B:GLY:544:C:9884, H-B:LYS:547:NZ:9923, H-B:GLU:543:O:9875, V-A:TYR:484:CG:4342, V-A:HIS:456:CG:4066, V-A:TYR:484:CD2:4344, V-A:HIS:456:CB:4065, V-A:ASP:473:CG:4240, V-A:ASP:473:CB:4239, H-A:LYS:547:NZ:4951, H-A:HIS:456:ND1:4067, V-A:LYS:547:CE:4950, H-B:GLY:544:O:9885, V-A:TYR:484:CB:4341, V-A:LYS:547:CD:4949"]

$$$$
4ai_Grossjean_2025
     RDKit          3D

 32 34  0  0  0  0  0  0  0  0999 V2000
  127.9700  130.3710   65.1920 C   0  0  0  0  0  0  0  0  0  0  0  0
  128.3630  129.0650   65.8590 C   0  0  0  0  0  0  0  0  0  0  0  0
  128.6990  127.9450   65.1000 C   0  0  0  0  0  0  0  0  0  0  0  0
  129.0650  126.7530   65.7360 C   0  0  0  0  0  0  0  0  0  0  0  0
  129.4250  125.5600   64.8650 C   0  0  0  0  0  0  0  0  0  0  0  0
  129.0770  126.7360   67.1570 C   0  0  0  0  0  0  0  0  0  0  0  0
  129.3950  125.7080   68.1110 C   0  0  0  0  0  0  0  0  0  0  0  0
  129.7700  124.4450   67.7290 N   0  0  0  0  0  0  0  0  0  0  0  0
  129.2910  126.1200   69.4490 C   0  0  0  0  0  0  0  0  0  0  0  0
  129.5290  125.3380   70.6640 C   0  0  0  0  0  0  0  0  0  0  0  0
  129.6150  125.8910   71.7620 O   0  0  0  0  0  0  0  0  0  0  0  0
  129.6250  123.9970   70.4820 N   0  0  0  0  0  0  0  0  0  0  0  0
  129.8360  123.0260   71.4520 C   0  0  0  0  0  0  0  0  0  0  0  0
  130.9560  123.0100   72.2840 C   0  0  0  0  0  0  0  0  0  0  0  0
  130.7910  121.9050   73.0870 C   0  0  0  0  0  0  0  0  0  0  0  0
  129.6310  121.2880   72.7580 O   0  0  0  0  0  0  0  0  0  0  0  0
  129.0340  122.0080   71.7220 N   0  0  0  0  0  0  0  0  0  0  0  0
  128.7670  127.8020   69.5590 S   0  0  0  0  0  0  0  0  0  0  0  0
  128.7120  127.9480   67.8160 C   0  0  0  0  0  0  0  0  0  0  0  0
  128.3620  129.0860   67.2140 N   0  0  0  0  0  0  0  0  0  0  0  0
  127.7438  131.1227   65.9626 H   0  0  0  0  0  0  0  0  0  0  0  0
  128.8008  130.7271   64.5651 H   0  0  0  0  0  0  0  0  0  0  0  0
  127.0807  130.2095   64.5651 H   0  0  0  0  0  0  0  0  0  0  0  0
  128.6765  127.9980   64.0015 H   0  0  0  0  0  0  0  0  0  0  0  0
  129.6835  124.7035   65.5050 H   0  0  0  0  0  0  0  0  0  0  0  0
  128.5662  125.2972   64.2299 H   0  0  0  0  0  0  0  0  0  0  0  0
  130.2858  125.8162   64.2299 H   0  0  0  0  0  0  0  0  0  0  0  0
  130.6870  124.2520   67.3520 H   0  0  0  0  0  0  0  0  0  0  0  0
  129.1350  123.6630   67.8080 H   0  0  0  0  0  0  0  0  0  0  0  0
  129.5250  123.6530   69.5390 H   0  0  0  0  0  0  0  0  0  0  0  0
  131.7908  123.7263   72.2955 H   0  0  0  0  0  0  0  0  0  0  0  0
  131.4892  121.5755   73.8705 H   0  0  0  0  0  0  0  0  0  0  0  0
  1  2  1  0
  2  3  2  0
  3  4  1  0
  4  5  1  0
  4  6  2  0
  6  7  1  0
  7  8  1  0
  7  9  2  0
  9 10  1  0
 10 11  2  0
 10 12  1  0
 12 13  1  0
 13 14  1  0
 14 15  2  0
 15 16  1  0
 16 17  1  0
  9 18  1  0
 18 19  1  0
 19 20  2  0
 20  2  1  0
 19  6  1  0
 17 13  2  0
  1 21  1  0
  1 22  1  0
  1 23  1  0
  3 24  1  0
  5 25  1  0
  5 26  1  0
  5 27  1  0
  8 28  1  0
  8 29  1  0
 12 30  1  0
 14 31  1  0
 15 32  1  0
M  END
>  <Binding energies>  (1) 
[-7.58]

>  <Ligand effiencies>  (1) 
[-0.32956521739130434]

>  <Interactions>  (1) 
["H-A:HIS:456:NE2:4070, V-B:GLU:543:CA:9876, V-A:GLU:543:CD:4908, V-A:HIS:456:CD2:4068, V-B:GLU:543:CD:9880, V-B:GLU:543:CB:9878, H-A:TYR:484:OH:4348, V-A:TYR:484:CZ:4347, V-B:GLU:543:C:9874, V-A:TYR:484:CE1:4345, V-B:HIS:456:CE1:9040, V-A:HIS:456:CE1:4069, V-B:GLU:543:CG:9879, V-A:GLU:543:CB:4906, H-B:LYS:547:NZ:9923, V-A:GLU:543:CG:4907, H-B:GLU:543:O:9875, V-A:TYR:484:CG:4342, V-A:TYR:484:CE2:4346, V-A:HIS:456:CG:4066, V-A:TYR:484:CD1:4343, V-A:TYR:484:CD2:4344, V-A:HIS:456:CB:4065, V-A:ASP:473:CB:4239, H-A:HIS:456:ND1:4067, V-A:TYR:484:CB:4341"]

$$$$
4aj_Grossjean_2025
     RDKit          3D

 32 34  0  0  0  0  0  0  0  0999 V2000
  127.9120  130.2700   65.3960 C   0  0  0  0  0  0  0  0  0  0  0  0
  128.3500  128.9750   66.0560 C   0  0  0  0  0  0  0  0  0  0  0  0
  128.6960  127.8630   65.2940 C   0  0  0  0  0  0  0  0  0  0  0  0
  129.0930  126.6770   65.9240 C   0  0  0  0  0  0  0  0  0  0  0  0
  129.4600  125.4900   65.0460 C   0  0  0  0  0  0  0  0  0  0  0  0
  129.1270  126.6600   67.3430 C   0  0  0  0  0  0  0  0  0  0  0  0
  129.4760  125.6370   68.2930 C   0  0  0  0  0  0  0  0  0  0  0  0
  129.8690  124.3820   67.9050 N   0  0  0  0  0  0  0  0  0  0  0  0
  129.3810  126.0470   69.6320 C   0  0  0  0  0  0  0  0  0  0  0  0
  129.6480  125.2690   70.8430 C   0  0  0  0  0  0  0  0  0  0  0  0
  129.7030  125.8180   71.9460 O   0  0  0  0  0  0  0  0  0  0  0  0
  129.8100  123.9360   70.6550 N   0  0  0  0  0  0  0  0  0  0  0  0
  130.0590  122.9800   71.6310 C   0  0  0  0  0  0  0  0  0  0  0  0
  129.3020  121.9600   71.9730 N   0  0  0  0  0  0  0  0  0  0  0  0
  129.8530  121.2510   72.9400 C   0  0  0  0  0  0  0  0  0  0  0  0
  131.0870  121.6970   73.4040 C   0  0  0  0  0  0  0  0  0  0  0  0
  131.5420  123.1220   72.5170 S   0  0  0  0  0  0  0  0  0  0  0  0
  128.8360  127.7210   69.7500 S   0  0  0  0  0  0  0  0  0  0  0  0
  128.7520  127.8670   68.0090 C   0  0  0  0  0  0  0  0  0  0  0  0
  128.3730  128.9970   67.4120 N   0  0  0  0  0  0  0  0  0  0  0  0
  127.6617  131.0099   66.1705 H   0  0  0  0  0  0  0  0  0  0  0  0
  128.7292  130.6570   64.7696 H   0  0  0  0  0  0  0  0  0  0  0  0
  127.0276  130.0815   64.7696 H   0  0  0  0  0  0  0  0  0  0  0  0
  128.6576  127.9157   64.1959 H   0  0  0  0  0  0  0  0  0  0  0  0
  129.7252  124.6321   65.6813 H   0  0  0  0  0  0  0  0  0  0  0  0
  128.6020  125.2245   64.4109 H   0  0  0  0  0  0  0  0  0  0  0  0
  130.3181  125.7551   64.4109 H   0  0  0  0  0  0  0  0  0  0  0  0
  129.2690  123.5780   68.0150 H   0  0  0  0  0  0  0  0  0  0  0  0
  130.7780  124.2190   67.4950 H   0  0  0  0  0  0  0  0  0  0  0  0
  129.7380  123.5900   69.7090 H   0  0  0  0  0  0  0  0  0  0  0  0
  129.3644  120.3576   73.3560 H   0  0  0  0  0  0  0  0  0  0  0  0
  131.6785  121.2248   74.2022 H   0  0  0  0  0  0  0  0  0  0  0  0
  1  2  1  0
  2  3  2  0
  3  4  1  0
  4  5  1  0
  4  6  2  0
  6  7  1  0
  7  8  1  0
  7  9  2  0
  9 10  1  0
 10 11  2  0
 10 12  1  0
 12 13  1  0
 13 14  2  0
 14 15  1  0
 15 16  2  0
 16 17  1  0
  9 18  1  0
 18 19  1  0
 19 20  2  0
 20  2  1  0
 19  6  1  0
 17 13  1  0
  1 21  1  0
  1 22  1  0
  1 23  1  0
  3 24  1  0
  5 25  1  0
  5 26  1  0
  5 27  1  0
  8 28  1  0
  8 29  1  0
 12 30  1  0
 15 31  1  0
 16 32  1  0
M  END
>  <Binding energies>  (1) 
[-6.76]

>  <Ligand effiencies>  (1) 
[-0.29391304347826086]

>  <Interactions>  (1) 
["H-A:HIS:456:NE2:4070, V-B:GLU:543:CA:9876, V-A:GLU:543:CD:4908, V-A:HIS:456:CD2:4068, V-B:GLU:543:CD:9880, V-B:GLU:543:CB:9878, H-B:HIS:456:NE2:9041, H-A:TYR:484:OH:4348, V-A:TYR:484:CZ:4347, V-B:GLU:543:C:9874, V-A:TYR:484:CE1:4345, V-B:HIS:456:CE1:9040, V-A:HIS:456:CE1:4069, V-B:GLU:543:CG:9879, V-A:GLU:543:CB:4906, H-B:LYS:547:NZ:9923, V-A:GLU:543:CG:4907, H-B:GLU:543:O:9875, V-A:TYR:484:CG:4342, V-A:TYR:484:CE2:4346, V-A:HIS:456:CG:4066, V-A:TYR:484:CD1:4343, V-A:TYR:484:CD2:4344, V-A:HIS:456:CB:4065, V-A:ASP:473:CG:4240, V-B:LYS:547:CE:9922, V-A:ASP:473:CB:4239, H-A:HIS:456:ND1:4067, V-A:TYR:484:CB:4341"]

$$$$
4ak_Grossjean_2025
     RDKit          3D

 50 51  0  0  0  0  0  0  0  0999 V2000
  125.6540  122.9130   56.7320 C   0  0  0  0  0  0  0  0  0  0  0  0
  126.7240  122.0170   56.9920 O   0  0  0  0  0  0  0  0  0  0  0  0
  127.6570  122.5120   57.9450 C   0  0  0  0  0  0  0  0  0  0  0  0
  126.9210  122.8760   59.2410 C   0  0  0  0  0  0  0  0  0  0  0  0
  127.6170  122.3240   60.3490 O   0  0  0  0  0  0  0  0  0  0  0  0
  128.8150  121.6450   59.9950 C   0  0  0  0  0  0  0  0  0  0  0  0
  129.4490  121.0430   61.2550 C   0  0  0  0  0  0  0  0  0  0  0  0
  130.2920  122.0110   61.8640 O   0  0  0  0  0  0  0  0  0  0  0  0
  131.6610  121.6300   61.9170 C   0  0  0  0  0  0  0  0  0  0  0  0
  132.3590  122.3950   63.0550 C   0  0  0  0  0  0  0  0  0  0  0  0
  131.5830  123.5260   63.5630 N   0  0  0  0  0  0  0  0  0  0  0  0
  130.6550  123.4610   64.5400 C   0  0  0  0  0  0  0  0  0  0  0  0
  130.3860  122.4100   65.1250 O   0  0  0  0  0  0  0  0  0  0  0  0
  129.9860  124.7160   64.8770 C   0  0  0  0  0  0  0  0  0  0  0  0
  129.5190  125.8450   63.6050 S   0  0  0  0  0  0  0  0  0  0  0  0
  128.8380  126.9520   64.7760 C   0  0  0  0  0  0  0  0  0  0  0  0
  128.2800  128.1080   64.4120 N   0  0  0  0  0  0  0  0  0  0  0  0
  127.7930  128.8760   65.4180 C   0  0  0  0  0  0  0  0  0  0  0  0
  127.1610  130.1850   64.9830 C   0  0  0  0  0  0  0  0  0  0  0  0
  127.8490  128.5180   66.7630 C   0  0  0  0  0  0  0  0  0  0  0  0
  128.4350  127.3040   67.1410 C   0  0  0  0  0  0  0  0  0  0  0  0
  128.4760  126.9590   68.6220 C   0  0  0  0  0  0  0  0  0  0  0  0
  128.9580  126.4730   66.1140 C   0  0  0  0  0  0  0  0  0  0  0  0
  129.6120  125.1920   66.1430 C   0  0  0  0  0  0  0  0  0  0  0  0
  129.8430  124.5120   67.3120 N   0  0  0  0  0  0  0  0  0  0  0  0
  125.2320  123.2664   57.6844 H   0  0  0  0  0  0  0  0  0  0  0  0
  126.0271  123.7721   56.1551 H   0  0  0  0  0  0  0  0  0  0  0  0
  124.8738  122.3949   56.1551 H   0  0  0  0  0  0  0  0  0  0  0  0
  128.4104  121.7388   58.1561 H   0  0  0  0  0  0  0  0  0  0  0  0
  128.1528  123.4072   57.5415 H   0  0  0  0  0  0  0  0  0  0  0  0
  126.8771  123.9704   59.3433 H   0  0  0  0  0  0  0  0  0  0  0  0
  125.8989  122.4705   59.2097 H   0  0  0  0  0  0  0  0  0  0  0  0
  128.5842  120.8414   59.2802 H   0  0  0  0  0  0  0  0  0  0  0  0
  129.5172  122.3543   59.5327 H   0  0  0  0  0  0  0  0  0  0  0  0
  128.6576  120.7491   61.9602 H   0  0  0  0  0  0  0  0  0  0  0  0
  130.0415  120.1572   60.9825 H   0  0  0  0  0  0  0  0  0  0  0  0
  131.7343  120.5483   62.1026 H   0  0  0  0  0  0  0  0  0  0  0  0
  132.1472  121.8698   60.9599 H   0  0  0  0  0  0  0  0  0  0  0  0
  132.5386  121.6958   63.8850 H   0  0  0  0  0  0  0  0  0  0  0  0
  133.2932  122.8042   62.6428 H   0  0  0  0  0  0  0  0  0  0  0  0
  131.7610  124.4210   63.1280 H   0  0  0  0  0  0  0  0  0  0  0  0
  126.8790  130.7691   65.8714 H   0  0  0  0  0  0  0  0  0  0  0  0
  127.8817  130.7580   64.3811 H   0  0  0  0  0  0  0  0  0  0  0  0
  126.2641  129.9770   64.3811 H   0  0  0  0  0  0  0  0  0  0  0  0
  127.4326  129.1894   67.5284 H   0  0  0  0  0  0  0  0  0  0  0  0
  128.3667  127.8785   69.2158 H   0  0  0  0  0  0  0  0  0  0  0  0
  127.6536  126.2685   68.8605 H   0  0  0  0  0  0  0  0  0  0  0  0
  129.4373  126.4805   68.8605 H   0  0  0  0  0  0  0  0  0  0  0  0
  129.0910  124.2430   67.9310 H   0  0  0  0  0  0  0  0  0  0  0  0
  130.7780  124.2540   67.5920 H   0  0  0  0  0  0  0  0  0  0  0  0
  1  2  1  0
  2  3  1  0
  3  4  1  0
  4  5  1  0
  5  6  1  0
  6  7  1  0
  7  8  1  0
  8  9  1  0
  9 10  1  0
 10 11  1  0
 11 12  1  0
 12 13  2  0
 12 14  1  0
 14 15  1  0
 15 16  1  0
 16 17  2  0
 17 18  1  0
 18 19  1  0
 18 20  2  0
 20 21  1  0
 21 22  1  0
 21 23  2  0
 23 24  1  0
 24 25  1  0
 24 14  2  0
 23 16  1  0
  1 26  1  0
  1 27  1  0
  1 28  1  0
  3 29  1  0
  3 30  1  0
  4 31  1  0
  4 32  1  0
  6 33  1  0
  6 34  1  0
  7 35  1  0
  7 36  1  0
  9 37  1  0
  9 38  1  0
 10 39  1  0
 10 40  1  0
 11 41  1  0
 19 42  1  0
 19 43  1  0
 19 44  1  0
 20 45  1  0
 22 46  1  0
 22 47  1  0
 22 48  1  0
 25 49  1  0
 25 50  1  0
M  END
>  <Binding energies>  (1) 
[-5.8]

>  <Ligand effiencies>  (1) 
[-0.20714285714285713]

>  <Interactions>  (1) 
["V-B:GLU:543:CA:9876, V-A:GLU:543:CD:4908, V-B:GLU:543:CD:9880, V-B:TYR:539:CD2:9846, V-A:LEU:475:CD1:4258, H-B:ALA:541:N:9863, V-B:GLU:543:CB:9878, H-A:TYR:484:OH:4348, V-A:TYR:484:CZ:4347, V-B:GLU:543:C:9874, V-A:TYR:484:CE1:4345, V-B:HIS:456:CE1:9040, V-B:TYR:539:CE2:9848, V-A:HIS:456:CE1:4069, V-B:GLU:543:CG:9879, V-B:PRO:540:CA:9855, V-B:ALA:541:CB:9864, V-B:TYR:539:CZ:9849, V-B:TYR:539:C:9839, V-B:PRO:540:CB:9857, V-B:PRO:540:N:9856, V-B:ALA:541:CA:9862, H-B:GLU:543:O:9875, V-B:TYR:539:CG:9844, V-B:LEU:363:CD1:8160, V-B:PRO:540:CD:9859, H-A:HIS:456:ND1:4067, H-B:TYR:539:N:9842"]

$$$$
4al_Grossjean_2025
     RDKit          3D

 28 29  0  0  0  0  0  0  0  0999 V2000
  127.1040  126.5460   73.7270 C   0  0  0  0  0  0  0  0  0  0  0  0
  128.3450  125.8660   73.8390 O   0  0  0  0  0  0  0  0  0  0  0  0
  129.4680  126.3640   73.2590 C   0  0  0  0  0  0  0  0  0  0  0  0
  130.4050  126.8630   73.8860 O   0  0  0  0  0  0  0  0  0  0  0  0
  129.4540  126.2480   71.7840 C   0  0  0  0  0  0  0  0  0  0  0  0
  129.5890  124.6600   71.0240 S   0  0  0  0  0  0  0  0  0  0  0  0
  129.4960  125.3710   69.4290 C   0  0  0  0  0  0  0  0  0  0  0  0
  129.5470  124.6280   68.3230 N   0  0  0  0  0  0  0  0  0  0  0  0
  129.4650  125.3020   67.1480 C   0  0  0  0  0  0  0  0  0  0  0  0
  129.5240  124.4380   65.9020 C   0  0  0  0  0  0  0  0  0  0  0  0
  129.3340  126.6860   67.0570 C   0  0  0  0  0  0  0  0  0  0  0  0
  129.2810  127.4630   68.2200 C   0  0  0  0  0  0  0  0  0  0  0  0
  129.1380  128.9690   68.0700 C   0  0  0  0  0  0  0  0  0  0  0  0
  129.3650  126.7910   69.4690 C   0  0  0  0  0  0  0  0  0  0  0  0
  129.3430  127.2620   70.8260 C   0  0  0  0  0  0  0  0  0  0  0  0
  129.2250  128.5910   71.1440 N   0  0  0  0  0  0  0  0  0  0  0  0
  126.7117  126.7610   74.7319 H   0  0  0  0  0  0  0  0  0  0  0  0
  127.2509  127.4896   73.1811 H   0  0  0  0  0  0  0  0  0  0  0  0
  126.3877  125.9143   73.1811 H   0  0  0  0  0  0  0  0  0  0  0  0
  129.5963  123.3796   66.1928 H   0  0  0  0  0  0  0  0  0  0  0  0
  128.6132  124.5928   65.3050 H   0  0  0  0  0  0  0  0  0  0  0  0
  130.4053  124.7152   65.3050 H   0  0  0  0  0  0  0  0  0  0  0  0
  129.2722  127.1685   66.0704 H   0  0  0  0  0  0  0  0  0  0  0  0
  129.0938  129.4341   69.0659 H   0  0  0  0  0  0  0  0  0  0  0  0
  130.0025  129.3662   67.5178 H   0  0  0  0  0  0  0  0  0  0  0  0
  128.2142  129.1964   67.5178 H   0  0  0  0  0  0  0  0  0  0  0  0
  128.5090  128.9290   71.7720 H   0  0  0  0  0  0  0  0  0  0  0  0
  129.8550  129.2820   70.7590 H   0  0  0  0  0  0  0  0  0  0  0  0
  1  2  1  0
  2  3  1  0
  3  4  2  0
  3  5  1  0
  5  6  1  0
  6  7  1  0
  7  8  2  0
  8  9  1  0
  9 10  1  0
  9 11  2  0
 11 12  1  0
 12 13  1  0
 12 14  2  0
 14 15  1  0
 15 16  1  0
 15  5  2  0
 14  7  1  0
  1 17  1  0
  1 18  1  0
  1 19  1  0
 10 20  1  0
 10 21  1  0
 10 22  1  0
 11 23  1  0
 13 24  1  0
 13 25  1  0
 13 26  1  0
 16 27  1  0
 16 28  1  0
M  END
>  <Binding energies>  (1) 
[-4.96]

>  <Ligand effiencies>  (1) 
[-0.27555555555555555]

>  <Interactions>  (1) 
["V-B:GLU:543:CA:9876, V-A:HIS:456:CD2:4068, V-B:GLU:543:CB:9878, H-A:TYR:484:OH:4348, V-A:TYR:484:CE1:4345, V-B:HIS:456:CE1:9040, V-A:HIS:456:CE1:4069, V-B:GLU:543:CG:9879, V-A:GLU:543:CB:4906, H-B:LYS:547:NZ:9923, V-A:GLU:543:CG:4907, V-B:HIS:456:CD2:9039, V-B:LYS:547:CD:9921, V-B:LYS:547:CE:9922, H-A:LYS:547:NZ:4951, H-A:GLU:543:O:4903, V-A:GLU:543:CA:4904, V-A:GLU:543:C:4902, H-B:HIS:456:ND1:9038"]

$$$$
4ba_Grossjean_2025
     RDKit          3D

 44 46  0  0  0  0  0  0  0  0999 V2000
  125.4240  127.2530   73.7410 C   0  0  0  0  0  0  0  0  0  0  0  0
  126.6350  127.5600   72.8400 C   0  0  0  0  0  0  0  0  0  0  0  0
  127.7080  126.4530   72.7850 C   0  0  0  0  0  0  0  0  0  0  0  0
  128.0320  125.8690   73.8210 O   0  0  0  0  0  0  0  0  0  0  0  0
  128.3100  126.1310   71.4480 C   0  0  0  0  0  0  0  0  0  0  0  0
  129.2470  125.0950   71.3470 C   0  0  0  0  0  0  0  0  0  0  0  0
  129.8230  124.7770   70.1210 C   0  0  0  0  0  0  0  0  0  0  0  0
  129.4720  125.4840   68.9700 C   0  0  0  0  0  0  0  0  0  0  0  0
  130.1210  125.0850   67.7850 N   0  0  0  0  0  0  0  0  0  0  0  0
  129.7310  125.2090   66.4930 C   0  0  0  0  0  0  0  0  0  0  0  0
  128.6530  125.6890   66.1390 O   0  0  0  0  0  0  0  0  0  0  0  0
  130.6830  124.7030   65.5020 C   0  0  0  0  0  0  0  0  0  0  0  0
  132.3150  125.3620   65.4230 S   0  0  0  0  0  0  0  0  0  0  0  0
  132.7140  124.3380   64.0640 C   0  0  0  0  0  0  0  0  0  0  0  0
  133.9180  124.3760   63.4950 N   0  0  0  0  0  0  0  0  0  0  0  0
  134.1080  123.5380   62.4510 C   0  0  0  0  0  0  0  0  0  0  0  0
  135.4840  123.6050   61.8120 C   0  0  0  0  0  0  0  0  0  0  0  0
  133.1340  122.6680   61.9690 C   0  0  0  0  0  0  0  0  0  0  0  0
  131.8630  122.6220   62.5650 C   0  0  0  0  0  0  0  0  0  0  0  0
  130.8250  121.6470   62.0010 C   0  0  0  0  0  0  0  0  0  0  0  0
  131.3190  120.8480   61.0530 F   0  0  0  0  0  0  0  0  0  0  0  0
  130.3600  120.8670   62.9780 F   0  0  0  0  0  0  0  0  0  0  0  0
  129.8130  122.3270   61.4620 F   0  0  0  0  0  0  0  0  0  0  0  0
  131.6280  123.4990   63.6660 C   0  0  0  0  0  0  0  0  0  0  0  0
  130.4770  123.7380   64.5020 C   0  0  0  0  0  0  0  0  0  0  0  0
  129.2880  123.0760   64.3310 N   0  0  0  0  0  0  0  0  0  0  0  0
  128.5400  126.5270   69.0630 C   0  0  0  0  0  0  0  0  0  0  0  0
  127.9650  126.8450   70.2910 C   0  0  0  0  0  0  0  0  0  0  0  0
  125.7238  127.3290   74.7966 H   0  0  0  0  0  0  0  0  0  0  0  0
  124.6210  127.9760   73.5349 H   0  0  0  0  0  0  0  0  0  0  0  0
  125.0624  126.2348   73.5349 H   0  0  0  0  0  0  0  0  0  0  0  0
  126.2652  127.7270   71.8176 H   0  0  0  0  0  0  0  0  0  0  0  0
  127.1266  128.4412   73.2779 H   0  0  0  0  0  0  0  0  0  0  0  0
  129.5303  124.5272   72.2456 H   0  0  0  0  0  0  0  0  0  0  0  0
  130.5600  123.9628   70.0585 H   0  0  0  0  0  0  0  0  0  0  0  0
  131.0060  124.6240   67.9360 H   0  0  0  0  0  0  0  0  0  0  0  0
  136.2521  123.6424   62.5985 H   0  0  0  0  0  0  0  0  0  0  0  0
  135.6420  122.7135   61.1873 H   0  0  0  0  0  0  0  0  0  0  0  0
  135.5546  124.5076   61.1873 H   0  0  0  0  0  0  0  0  0  0  0  0
  133.3613  122.0122   61.1156 H   0  0  0  0  0  0  0  0  0  0  0  0
  128.4240  123.4170   64.7270 H   0  0  0  0  0  0  0  0  0  0  0  0
  129.2370  122.2140   63.8060 H   0  0  0  0  0  0  0  0  0  0  0  0
  128.2620  127.0959   68.1635 H   0  0  0  0  0  0  0  0  0  0  0  0
  127.2333  127.6639   70.3541 H   0  0  0  0  0  0  0  0  0  0  0  0
  1  2  1  0
  2  3  1  0
  3  4  2  0
  3  5  1  0
  5  6  2  0
  6  7  1  0
  7  8  2  0
  8  9  1  0
  9 10  1  0
 10 11  2  0
 10 12  1  0
 12 13  1  0
 13 14  1  0
 14 15  2  0
 15 16  1  0
 16 17  1  0
 16 18  2  0
 18 19  1  0
 19 20  1  0
 20 21  1  0
 20 22  1  0
 20 23  1  0
 19 24  2  0
 24 25  1  0
 25 26  1  0
  8 27  1  0
 27 28  2  0
 28  5  1  0
 25 12  2  0
 24 14  1  0
  1 29  1  0
  1 30  1  0
  1 31  1  0
  2 32  1  0
  2 33  1  0
  6 34  1  0
  7 35  1  0
  9 36  1  0
 17 37  1  0
 17 38  1  0
 17 39  1  0
 18 40  1  0
 26 41  1  0
 26 42  1  0
 27 43  1  0
 28 44  1  0
M  END
>  <Binding energies>  (1) 
[-7.35]

>  <Ligand effiencies>  (1) 
[-0.23709677419354838]

>  <Interactions>  (1) 
["V-B:GLU:543:CA:9876, V-A:HIS:456:CD2:4068, V-B:TYR:539:CD2:9846, V-A:LEU:475:CD1:4258, V-B:GLU:543:CB:9878, H-A:TYR:484:OH:4348, V-A:TYR:484:CZ:4347, V-B:GLU:543:C:9874, V-A:TYR:484:CE1:4345, V-B:HIS:456:CE1:9040, V-B:TYR:539:CE2:9848, V-A:HIS:456:CE1:4069, V-B:GLU:543:CG:9879, V-B:GLY:544:C:9884, V-B:ALA:541:CB:9864, H-B:LYS:547:NZ:9923, V-A:ILE:369:CD1:3239, V-A:GLY:453:CA:4044, V-A:GLY:454:CA:4049, V-A:GLY:453:C:4042, H-A:GLY:454:N:4050, V-B:HIS:456:CD2:9039, V-B:HIS:456:CG:9037, V-A:HIS:456:CG:4066, H-A:HIS:456:ND1:4067, V-B:HIS:456:CB:9036"]

$$$$
4bb_Grossjean_2025
     RDKit          3D

 41 43  0  0  0  0  0  0  0  0999 V2000
  128.5360  128.2390   73.1310 C   0  0  0  0  0  0  0  0  0  0  0  0
  128.5630  126.7330   72.8600 C   0  0  0  0  0  0  0  0  0  0  0  0
  128.3290  125.9700   73.7980 O   0  0  0  0  0  0  0  0  0  0  0  0
  128.8830  126.2670   71.4710 C   0  0  0  0  0  0  0  0  0  0  0  0
  129.5570  125.0530   71.2920 C   0  0  0  0  0  0  0  0  0  0  0  0
  129.8670  124.5980   70.0130 C   0  0  0  0  0  0  0  0  0  0  0  0
  129.5010  125.3430   68.8900 C   0  0  0  0  0  0  0  0  0  0  0  0
  129.8660  124.7910   67.6460 N   0  0  0  0  0  0  0  0  0  0  0  0
  129.4090  125.0720   66.4010 C   0  0  0  0  0  0  0  0  0  0  0  0
  128.5230  125.8910   66.1580 O   0  0  0  0  0  0  0  0  0  0  0  0
  130.0260  124.2980   65.3200 C   0  0  0  0  0  0  0  0  0  0  0  0
  129.3530  122.7400   64.8480 S   0  0  0  0  0  0  0  0  0  0  0  0
  130.6020  122.5120   63.6460 C   0  0  0  0  0  0  0  0  0  0  0  0
  130.6400  121.4220   62.8810 N   0  0  0  0  0  0  0  0  0  0  0  0
  131.6540  121.3590   61.9870 C   0  0  0  0  0  0  0  0  0  0  0  0
  131.6770  120.1100   61.1250 C   0  0  0  0  0  0  0  0  0  0  0  0
  132.6220  122.3490   61.8430 C   0  0  0  0  0  0  0  0  0  0  0  0
  132.5870  123.4990   62.6450 C   0  0  0  0  0  0  0  0  0  0  0  0
  133.6730  124.5620   62.4500 C   0  0  0  0  0  0  0  0  0  0  0  0
  134.6670  124.1530   61.6570 F   0  0  0  0  0  0  0  0  0  0  0  0
  133.1430  125.6520   61.8950 F   0  0  0  0  0  0  0  0  0  0  0  0
  134.2090  124.8830   63.6270 F   0  0  0  0  0  0  0  0  0  0  0  0
  131.5290  123.5980   63.5990 C   0  0  0  0  0  0  0  0  0  0  0  0
  131.1760  124.6020   64.5720 C   0  0  0  0  0  0  0  0  0  0  0  0
  131.9000  125.7540   64.7430 N   0  0  0  0  0  0  0  0  0  0  0  0
  128.8320  126.5640   69.0630 C   0  0  0  0  0  0  0  0  0  0  0  0
  128.5250  127.0180   70.3430 C   0  0  0  0  0  0  0  0  0  0  0  0
  128.5328  128.4162   74.2166 H   0  0  0  0  0  0  0  0  0  0  0  0
  129.4259  128.7077   72.6856 H   0  0  0  0  0  0  0  0  0  0  0  0
  127.6299  128.6755   72.6856 H   0  0  0  0  0  0  0  0  0  0  0  0
  129.8440  124.4538   72.1687 H   0  0  0  0  0  0  0  0  0  0  0  0
  130.4034  123.6460   69.8865 H   0  0  0  0  0  0  0  0  0  0  0  0
  130.5600  124.0610   67.7070 H   0  0  0  0  0  0  0  0  0  0  0  0
  131.6934  119.2194   61.7704 H   0  0  0  0  0  0  0  0  0  0  0  0
  130.7791  120.0862   60.4900 H   0  0  0  0  0  0  0  0  0  0  0  0
  132.5751  120.1193   60.4900 H   0  0  0  0  0  0  0  0  0  0  0  0
  133.4197  122.2285   61.0952 H   0  0  0  0  0  0  0  0  0  0  0  0
  132.1350  126.3580   63.9680 H   0  0  0  0  0  0  0  0  0  0  0  0
  132.2250  126.0410   65.6560 H   0  0  0  0  0  0  0  0  0  0  0  0
  128.5494  127.1640   68.1854 H   0  0  0  0  0  0  0  0  0  0  0  0
  127.9968  127.9745   70.4701 H   0  0  0  0  0  0  0  0  0  0  0  0
  1  2  1  0
  2  3  2  0
  2  4  1  0
  4  5  2  0
  5  6  1  0
  6  7  2  0
  7  8  1  0
  8  9  1  0
  9 10  2  0
  9 11  1  0
 11 12  1  0
 12 13  1  0
 13 14  2  0
 14 15  1  0
 15 16  1  0
 15 17  2  0
 17 18  1  0
 18 19  1  0
 19 20  1  0
 19 21  1  0
 19 22  1  0
 18 23  2  0
 23 24  1  0
 24 25  1  0
  7 26  1  0
 26 27  2  0
 27  4  1  0
 24 11  2  0
 23 13  1  0
  1 28  1  0
  1 29  1  0
  1 30  1  0
  5 31  1  0
  6 32  1  0
  8 33  1  0
 16 34  1  0
 16 35  1  0
 16 36  1  0
 17 37  1  0
 25 38  1  0
 25 39  1  0
 26 40  1  0
 27 41  1  0
M  END
>  <Binding energies>  (1) 
[-7.29]

>  <Ligand effiencies>  (1) 
[-0.243]

>  <Interactions>  (1) 
["V-B:GLU:543:CA:9876, V-A:GLU:543:CD:4908, V-A:HIS:456:CD2:4068, V-A:ASP:366:CG:3213, V-A:LEU:475:CD1:4258, V-B:GLU:543:CB:9878, H-A:TYR:484:OH:4348, V-A:TYR:484:CZ:4347, V-B:GLU:543:C:9874, V-A:TYR:484:CE1:4345, V-B:HIS:456:CE1:9040, V-A:HIS:456:CE1:4069, V-B:GLU:543:CG:9879, V-A:ARG:545:CZ:4926, V-B:ALA:541:CB:9864, H-B:LYS:547:NZ:9923, V-A:ILE:369:CD1:3239, V-A:GLY:453:CA:4044, V-A:GLY:453:C:4042, V-A:TRP:381:CH2:3372, H-B:GLU:543:O:9875, H-A:GLU:543:OE2:4910, V-B:HIS:456:CD2:9039, V-A:HIS:456:CG:4066, H-A:HIS:456:ND1:4067"]

$$$$
4bc_Grossjean_2025
     RDKit          3D

 40 42  0  0  0  0  0  0  0  0999 V2000
  127.0210  126.8630   73.4240 C   0  0  0  0  0  0  0  0  0  0  0  0
  127.9170  125.7900   73.1550 O   0  0  0  0  0  0  0  0  0  0  0  0
  128.4040  125.6240   71.8720 C   0  0  0  0  0  0  0  0  0  0  0  0
  129.3290  124.5980   71.6860 C   0  0  0  0  0  0  0  0  0  0  0  0
  129.8750  124.3550   70.4280 C   0  0  0  0  0  0  0  0  0  0  0  0
  129.4940  125.1340   69.3340 C   0  0  0  0  0  0  0  0  0  0  0  0
  130.1090  124.8250   68.1070 N   0  0  0  0  0  0  0  0  0  0  0  0
  129.7260  125.1540   66.8490 C   0  0  0  0  0  0  0  0  0  0  0  0
  128.7000  125.7810   66.5860 O   0  0  0  0  0  0  0  0  0  0  0  0
  130.6220  124.7030   65.7800 C   0  0  0  0  0  0  0  0  0  0  0  0
  132.2370  125.3910   65.6270 S   0  0  0  0  0  0  0  0  0  0  0  0
  132.5810  124.3920   64.2350 C   0  0  0  0  0  0  0  0  0  0  0  0
  133.7550  124.4540   63.6080 N   0  0  0  0  0  0  0  0  0  0  0  0
  133.9040  123.6350   62.5420 C   0  0  0  0  0  0  0  0  0  0  0  0
  135.2500  123.7170   61.8450 C   0  0  0  0  0  0  0  0  0  0  0  0
  132.9150  122.7630   62.0920 C   0  0  0  0  0  0  0  0  0  0  0  0
  131.6760  122.6940   62.7490 C   0  0  0  0  0  0  0  0  0  0  0  0
  130.6180  121.7210   62.2150 C   0  0  0  0  0  0  0  0  0  0  0  0
  131.0580  120.9810   61.1950 F   0  0  0  0  0  0  0  0  0  0  0  0
  130.2460  120.8850   63.1840 F   0  0  0  0  0  0  0  0  0  0  0  0
  129.5550  122.4000   61.7850 F   0  0  0  0  0  0  0  0  0  0  0  0
  131.4880  123.5450   63.8780 C   0  0  0  0  0  0  0  0  0  0  0  0
  130.3820  123.7440   64.7840 C   0  0  0  0  0  0  0  0  0  0  0  0
  129.2020  123.0530   64.6750 N   0  0  0  0  0  0  0  0  0  0  0  0
  128.5740  126.1770   69.5160 C   0  0  0  0  0  0  0  0  0  0  0  0
  128.0310  126.4170   70.7750 C   0  0  0  0  0  0  0  0  0  0  0  0
  126.9158  126.9889   74.5117 H   0  0  0  0  0  0  0  0  0  0  0  0
  127.4168  127.7903   72.9841 H   0  0  0  0  0  0  0  0  0  0  0  0
  126.0380  126.6389   72.9841 H   0  0  0  0  0  0  0  0  0  0  0  0
  129.6305  123.9745   72.5406 H   0  0  0  0  0  0  0  0  0  0  0  0
  130.6090  123.5464   70.2960 H   0  0  0  0  0  0  0  0  0  0  0  0
  130.9360  124.2510   68.1870 H   0  0  0  0  0  0  0  0  0  0  0  0
  136.0504  123.7658   62.5979 H   0  0  0  0  0  0  0  0  0  0  0  0
  135.3921  122.8258   61.2160 H   0  0  0  0  0  0  0  0  0  0  0  0
  135.2829  124.6188   61.2160 H   0  0  0  0  0  0  0  0  0  0  0  0
  133.1059  122.1247   61.2167 H   0  0  0  0  0  0  0  0  0  0  0  0
  128.9840  122.2700   65.2730 H   0  0  0  0  0  0  0  0  0  0  0  0
  128.5060  123.3100   63.9880 H   0  0  0  0  0  0  0  0  0  0  0  0
  128.2812  126.8062   68.6626 H   0  0  0  0  0  0  0  0  0  0  0  0
  127.3055  127.2326   70.9113 H   0  0  0  0  0  0  0  0  0  0  0  0
  1  2  1  0
  2  3  1  0
  3  4  2  0
  4  5  1  0
  5  6  2  0
  6  7  1  0
  7  8  1  0
  8  9  2  0
  8 10  1  0
 10 11  1  0
 11 12  1  0
 12 13  2  0
 13 14  1  0
 14 15  1  0
 14 16  2  0
 16 17  1  0
 17 18  1  0
 18 19  1  0
 18 20  1  0
 18 21  1  0
 17 22  2  0
 22 23  1  0
 23 24  1  0
  6 25  1  0
 25 26  2  0
 26  3  1  0
 23 10  2  0
 22 12  1  0
  1 27  1  0
  1 28  1  0
  1 29  1  0
  4 30  1  0
  5 31  1  0
  7 32  1  0
 15 33  1  0
 15 34  1  0
 15 35  1  0
 16 36  1  0
 24 37  1  0
 24 38  1  0
 25 39  1  0
 26 40  1  0
M  END
>  <Binding energies>  (1) 
[-6.61]

>  <Ligand effiencies>  (1) 
[-0.22793103448275864]

>  <Interactions>  (1) 
["V-B:GLU:543:CA:9876, V-A:HIS:456:CD2:4068, V-B:TYR:539:CD2:9846, V-A:LEU:475:CD1:4258, V-B:GLU:543:CB:9878, H-A:TYR:484:OH:4348, V-A:TYR:484:CZ:4347, V-B:GLU:543:C:9874, V-A:TYR:484:CE1:4345, V-B:HIS:456:CE1:9040, V-A:HIS:456:CE1:4069, V-B:GLU:543:CG:9879, V-B:GLY:544:C:9884, V-B:ALA:541:CB:9864, H-B:LYS:547:NZ:9923, V-A:ILE:369:CD1:3239, V-A:GLY:453:CA:4044, V-A:GLY:454:CA:4049, V-A:GLY:453:C:4042, H-A:GLY:454:N:4050, H-A:ARG:545:NH2:4928, H-B:GLU:543:O:9875, V-A:HIS:456:CG:4066, H-A:HIS:456:ND1:4067, V-A:LEU:475:CD2:4259"]

$$$$
4bd_Grossjean_2025
     RDKit          3D

 36 38  0  0  0  0  0  0  0  0999 V2000
  127.9450  130.4450   65.0820 C   0  0  0  0  0  0  0  0  0  0  0  0
  128.3260  129.0190   65.4350 C   0  0  0  0  0  0  0  0  0  0  0  0
  128.4050  128.6040   66.7610 C   0  0  0  0  0  0  0  0  0  0  0  0
  128.7610  127.2820   67.0730 C   0  0  0  0  0  0  0  0  0  0  0  0
  128.8380  126.8730   68.5480 C   0  0  0  0  0  0  0  0  0  0  0  0
  129.8680  126.0660   68.8130 F   0  0  0  0  0  0  0  0  0  0  0  0
  128.9740  127.9560   69.3120 F   0  0  0  0  0  0  0  0  0  0  0  0
  127.7260  126.2250   68.8950 F   0  0  0  0  0  0  0  0  0  0  0  0
  129.0310  126.4040   65.9820 C   0  0  0  0  0  0  0  0  0  0  0  0
  129.4150  125.0150   65.9110 C   0  0  0  0  0  0  0  0  0  0  0  0
  129.5920  124.2400   67.0270 N   0  0  0  0  0  0  0  0  0  0  0  0
  129.5900  124.5340   64.6030 C   0  0  0  0  0  0  0  0  0  0  0  0
  129.9910  123.1920   64.1690 C   0  0  0  0  0  0  0  0  0  0  0  0
  130.0480  122.2620   64.9760 O   0  0  0  0  0  0  0  0  0  0  0  0
  130.2690  123.0670   62.8480 N   0  0  0  0  0  0  0  0  0  0  0  0
  130.7140  121.9410   62.1300 C   0  0  0  0  0  0  0  0  0  0  0  0
  132.0790  121.9080   61.8280 C   0  0  0  0  0  0  0  0  0  0  0  0
  132.6180  120.8320   61.1300 C   0  0  0  0  0  0  0  0  0  0  0  0
  131.7940  119.7800   60.7390 C   0  0  0  0  0  0  0  0  0  0  0  0
  130.4360  119.7940   61.0450 C   0  0  0  0  0  0  0  0  0  0  0  0
  129.8920  120.8690   61.7430 C   0  0  0  0  0  0  0  0  0  0  0  0
  129.2760  125.7940   63.4130 S   0  0  0  0  0  0  0  0  0  0  0  0
  128.9160  126.9550   64.6690 C   0  0  0  0  0  0  0  0  0  0  0  0
  128.5770  128.2100   64.3790 N   0  0  0  0  0  0  0  0  0  0  0  0
  127.7907  131.0226   66.0054 H   0  0  0  0  0  0  0  0  0  0  0  0
  128.7518  130.9048   64.4924 H   0  0  0  0  0  0  0  0  0  0  0  0
  127.0164  130.4412   64.4924 H   0  0  0  0  0  0  0  0  0  0  0  0
  128.1871  129.3165   67.5702 H   0  0  0  0  0  0  0  0  0  0  0  0
  128.8250  123.9970   67.6380 H   0  0  0  0  0  0  0  0  0  0  0  0
  130.5020  123.8760   67.2760 H   0  0  0  0  0  0  0  0  0  0  0  0
  130.1220  123.8900   62.2830 H   0  0  0  0  0  0  0  0  0  0  0  0
  132.7297  122.7368   62.1438 H   0  0  0  0  0  0  0  0  0  0  0  0
  133.6909  120.8124   60.8880 H   0  0  0  0  0  0  0  0  0  0  0  0
  132.2195  118.9310   60.1839 H   0  0  0  0  0  0  0  0  0  0  0  0
  129.7933  118.9566   60.7357 H   0  0  0  0  0  0  0  0  0  0  0  0
  128.8204  120.8791   61.9911 H   0  0  0  0  0  0  0  0  0  0  0  0
  1  2  1  0
  2  3  2  0
  3  4  1  0
  4  5  1  0
  5  6  1  0
  5  7  1  0
  5  8  1  0
  4  9  2  0
  9 10  1  0
 10 11  1  0
 10 12  2  0
 12 13  1  0
 13 14  2  0
 13 15  1  0
 15 16  1  0
 16 17  2  0
 17 18  1  0
 18 19  2  0
 19 20  1  0
 20 21  2  0
 12 22  1  0
 22 23  1  0
 23 24  2  0
 24  2  1  0
 23  9  1  0
 21 16  1  0
  1 25  1  0
  1 26  1  0
  1 27  1  0
  3 28  1  0
 11 29  1  0
 11 30  1  0
 15 31  1  0
 17 32  1  0
 18 33  1  0
 19 34  1  0
 20 35  1  0
 21 36  1  0
M  END
>  <Binding energies>  (1) 
[-6.11]

>  <Ligand effiencies>  (1) 
[-0.2262962962962963]

>  <Interactions>  (1) 
["V-B:GLU:543:CA:9876, V-A:GLU:543:CD:4908, V-A:HIS:456:CD2:4068, V-B:GLU:543:CD:9880, V-B:TYR:539:CD2:9846, V-A:LEU:475:CD1:4258, V-B:GLU:543:CB:9878, H-A:TYR:484:OH:4348, V-A:TYR:484:CZ:4347, V-B:GLU:543:C:9874, V-A:TYR:484:CE1:4345, V-B:HIS:456:CE1:9040, V-A:HIS:456:CE1:4069, V-B:GLU:543:CG:9879, V-A:GLU:543:CB:4906, V-B:GLY:544:C:9884, V-B:ALA:541:CB:9864, V-A:TRP:381:CZ2:3370, V-A:PRO:482:CG:4327, V-A:PRO:482:CB:4326, V-A:TRP:381:CH2:3372, H-B:GLU:543:O:9875"]

$$$$
4be_Grossjean_2025
     RDKit          3D

 38 40  0  0  0  0  0  0  0  0999 V2000
  127.9220  119.7950   72.8220 C   0  0  0  0  0  0  0  0  0  0  0  0
  128.9870  120.8700   72.7130 C   0  0  0  0  0  0  0  0  0  0  0  0
  130.1140  120.8680   73.5380 C   0  0  0  0  0  0  0  0  0  0  0  0
  131.0510  121.8900   73.3830 C   0  0  0  0  0  0  0  0  0  0  0  0
  130.8420  122.8780   72.4180 C   0  0  0  0  0  0  0  0  0  0  0  0
  129.6940  122.8160   71.6200 C   0  0  0  0  0  0  0  0  0  0  0  0
  129.5390  123.8440   70.6730 N   0  0  0  0  0  0  0  0  0  0  0  0
  129.5180  125.1860   70.8680 C   0  0  0  0  0  0  0  0  0  0  0  0
  129.6470  125.7210   71.9710 O   0  0  0  0  0  0  0  0  0  0  0  0
  129.3070  125.9940   69.6630 C   0  0  0  0  0  0  0  0  0  0  0  0
  128.7660  127.6660   69.8020 S   0  0  0  0  0  0  0  0  0  0  0  0
  128.7380  127.8490   68.0640 C   0  0  0  0  0  0  0  0  0  0  0  0
  128.3820  128.9980   67.4920 N   0  0  0  0  0  0  0  0  0  0  0  0
  128.4020  129.0190   66.1390 C   0  0  0  0  0  0  0  0  0  0  0  0
  127.9900  130.3360   65.5070 C   0  0  0  0  0  0  0  0  0  0  0  0
  128.7680  127.9300   65.3540 C   0  0  0  0  0  0  0  0  0  0  0  0
  129.1450  126.7170   65.9500 C   0  0  0  0  0  0  0  0  0  0  0  0
  129.5430  125.5470   65.0440 C   0  0  0  0  0  0  0  0  0  0  0  0
  128.9960  124.3870   65.4190 F   0  0  0  0  0  0  0  0  0  0  0  0
  129.1460  125.7880   63.7950 F   0  0  0  0  0  0  0  0  0  0  0  0
  130.8660  125.3900   65.0640 F   0  0  0  0  0  0  0  0  0  0  0  0
  129.1310  126.6590   67.3760 C   0  0  0  0  0  0  0  0  0  0  0  0
  129.4390  125.6120   68.3190 C   0  0  0  0  0  0  0  0  0  0  0  0
  129.8340  124.3580   67.9300 N   0  0  0  0  0  0  0  0  0  0  0  0
  128.7700  121.8220   71.7700 N   0  0  0  0  0  0  0  0  0  0  0  0
  127.7171  119.5881   73.8828 H   0  0  0  0  0  0  0  0  0  0  0  0
  127.0003  120.1408   72.3311 H   0  0  0  0  0  0  0  0  0  0  0  0
  128.2764  118.8766   72.3311 H   0  0  0  0  0  0  0  0  0  0  0  0
  130.2593  120.0799   74.2915 H   0  0  0  0  0  0  0  0  0  0  0  0
  131.9493  121.9176   74.0172 H   0  0  0  0  0  0  0  0  0  0  0  0
  131.5692  123.6929   72.2872 H   0  0  0  0  0  0  0  0  0  0  0  0
  129.3830  123.5250   69.7280 H   0  0  0  0  0  0  0  0  0  0  0  0
  127.7615  131.0663   66.2972 H   0  0  0  0  0  0  0  0  0  0  0  0
  128.8121  130.7162   64.8829 H   0  0  0  0  0  0  0  0  0  0  0  0
  127.0978  130.1799   64.8829 H   0  0  0  0  0  0  0  0  0  0  0  0
  128.7617  128.0207   64.2578 H   0  0  0  0  0  0  0  0  0  0  0  0
  130.7500  124.1810   67.5420 H   0  0  0  0  0  0  0  0  0  0  0  0
  129.2150  123.5630   68.0130 H   0  0  0  0  0  0  0  0  0  0  0  0
  1  2  1  0
  2  3  2  0
  3  4  1  0
  4  5  2  0
  5  6  1  0
  6  7  1  0
  7  8  1  0
  8  9  2  0
  8 10  1  0
 10 11  1  0
 11 12  1  0
 12 13  2  0
 13 14  1  0
 14 15  1  0
 14 16  2  0
 16 17  1  0
 17 18  1  0
 18 19  1  0
 18 20  1  0
 18 21  1  0
 17 22  2  0
 22 23  1  0
 23 24  1  0
  6 25  2  0
 25  2  1  0
 23 10  2  0
 22 12  1  0
  1 26  1  0
  1 27  1  0
  1 28  1  0
  3 29  1  0
  4 30  1  0
  5 31  1  0
  7 32  1  0
 15 33  1  0
 15 34  1  0
 15 35  1  0
 16 36  1  0
 24 37  1  0
 24 38  1  0
M  END
>  <Binding energies>  (1) 
[-7.13]

>  <Ligand effiencies>  (1) 
[-0.2546428571428571]

>  <Interactions>  (1) 
["H-A:HIS:456:NE2:4070, V-B:GLU:543:CA:9876, V-A:GLU:543:CD:4908, V-A:HIS:456:CD2:4068, V-B:GLU:543:CD:9880, V-B:GLU:543:CB:9878, H-B:HIS:456:NE2:9041, H-A:TYR:484:OH:4348, V-A:TYR:484:CZ:4347, V-B:GLU:543:C:9874, V-A:TYR:484:CE1:4345, V-B:HIS:456:CE1:9040, V-A:HIS:456:CE1:4069, V-B:GLU:543:CG:9879, V-A:GLU:543:CB:4906, H-B:LYS:547:NZ:9923, V-A:GLU:543:CG:4907, V-B:TYR:484:CZ:9318, H-B:GLU:543:O:9875, V-A:TYR:484:CG:4342, V-A:TYR:484:CE2:4346, V-A:TYR:484:CD1:4343, V-A:TYR:484:CD2:4344, V-A:ASP:473:CG:4240, V-B:LYS:547:CE:9922, V-A:ASP:473:CB:4239, H-A:HIS:456:ND1:4067, V-A:TYR:484:CB:4341"]

$$$$
4bf_Grossjean_2025
     RDKit          3D

 35 37  0  0  0  0  0  0  0  0999 V2000
  127.9690  130.3250   64.7030 C   0  0  0  0  0  0  0  0  0  0  0  0
  128.3680  129.0530   65.4320 C   0  0  0  0  0  0  0  0  0  0  0  0
  128.6920  127.8960   64.7290 C   0  0  0  0  0  0  0  0  0  0  0  0
  129.0550  126.7270   65.4160 C   0  0  0  0  0  0  0  0  0  0  0  0
  129.4000  125.4760   64.6000 C   0  0  0  0  0  0  0  0  0  0  0  0
  128.9300  124.3510   65.1450 F   0  0  0  0  0  0  0  0  0  0  0  0
  128.8790  125.5750   63.3780 F   0  0  0  0  0  0  0  0  0  0  0  0
  130.7240  125.3500   64.5060 F   0  0  0  0  0  0  0  0  0  0  0  0
  129.0750  126.7860   66.8410 C   0  0  0  0  0  0  0  0  0  0  0  0
  129.3870  125.8140   67.8590 C   0  0  0  0  0  0  0  0  0  0  0  0
  129.7630  124.5280   67.5630 N   0  0  0  0  0  0  0  0  0  0  0  0
  129.2770  126.3010   69.1720 C   0  0  0  0  0  0  0  0  0  0  0  0
  129.4880  125.5830   70.4340 C   0  0  0  0  0  0  0  0  0  0  0  0
  129.4960  126.1890   71.5060 O   0  0  0  0  0  0  0  0  0  0  0  0
  129.6510  124.2420   70.3190 N   0  0  0  0  0  0  0  0  0  0  0  0
  129.9170  123.2830   71.3140 C   0  0  0  0  0  0  0  0  0  0  0  0
  131.0420  123.2750   72.1570 C   0  0  0  0  0  0  0  0  0  0  0  0
  131.1950  122.2530   73.0970 C   0  0  0  0  0  0  0  0  0  0  0  0
  130.2180  121.2590   73.1670 C   0  0  0  0  0  0  0  0  0  0  0  0
  129.1270  121.2410   72.3600 N   0  0  0  0  0  0  0  0  0  0  0  0
  128.9930  122.2410   71.4520 C   0  0  0  0  0  0  0  0  0  0  0  0
  128.7750  127.9890   69.1850 S   0  0  0  0  0  0  0  0  0  0  0  0
  128.7220  128.0350   67.4380 C   0  0  0  0  0  0  0  0  0  0  0  0
  128.3780  129.1430   66.7820 N   0  0  0  0  0  0  0  0  0  0  0  0
  127.7238  131.1067   65.4370 H   0  0  0  0  0  0  0  0  0  0  0  0
  128.8041  130.6634   64.0721 H   0  0  0  0  0  0  0  0  0  0  0  0
  127.0902  130.1258   64.0721 H   0  0  0  0  0  0  0  0  0  0  0  0
  128.6634  127.8979   63.6294 H   0  0  0  0  0  0  0  0  0  0  0  0
  130.7160  124.2900   67.3290 H   0  0  0  0  0  0  0  0  0  0  0  0
  129.0940  123.7700   67.5720 H   0  0  0  0  0  0  0  0  0  0  0  0
  129.5630  123.8630   69.3880 H   0  0  0  0  0  0  0  0  0  0  0  0
  131.7983  124.0698   72.0768 H   0  0  0  0  0  0  0  0  0  0  0  0
  132.0668  122.2322   73.7675 H   0  0  0  0  0  0  0  0  0  0  0  0
  130.3373  120.4552   73.9084 H   0  0  0  0  0  0  0  0  0  0  0  0
  128.1137  122.2319   70.7912 H   0  0  0  0  0  0  0  0  0  0  0  0
  1  2  1  0
  2  3  2  0
  3  4  1  0
  4  5  1  0
  5  6  1  0
  5  7  1  0
  5  8  1  0
  4  9  2  0
  9 10  1  0
 10 11  1  0
 10 12  2  0
 12 13  1  0
 13 14  2  0
 13 15  1  0
 15 16  1  0
 16 17  2  0
 17 18  1  0
 18 19  2  0
 19 20  1  0
 20 21  2  0
 12 22  1  0
 22 23  1  0
 23 24  2  0
 24  2  1  0
 23  9  1  0
 21 16  1  0
  1 25  1  0
  1 26  1  0
  1 27  1  0
  3 28  1  0
 11 29  1  0
 11 30  1  0
 15 31  1  0
 17 32  1  0
 18 33  1  0
 19 34  1  0
 21 35  1  0
M  END
>  <Binding energies>  (1) 
[-6.57]

>  <Ligand effiencies>  (1) 
[-0.24333333333333335]

>  <Interactions>  (1) 
["H-A:HIS:456:NE2:4070, V-B:GLU:543:CA:9876, V-A:GLU:543:CD:4908, V-A:HIS:456:CD2:4068, V-B:GLU:543:CD:9880, V-B:GLU:543:CB:9878, H-A:TYR:484:OH:4348, V-A:TYR:484:CZ:4347, V-B:GLU:543:C:9874, V-A:TYR:484:CE1:4345, V-B:HIS:456:CE1:9040, V-A:HIS:456:CE1:4069, V-B:GLU:543:CG:9879, V-A:GLU:543:CB:4906, H-B:LYS:547:NZ:9923, H-B:GLU:543:O:9875, V-A:TYR:484:CG:4342, V-A:TYR:484:CE2:4346, V-A:HIS:456:CG:4066, V-A:TYR:484:CD1:4343, V-A:TYR:484:CD2:4344, V-B:GLY:544:CA:9886, V-A:HIS:456:CB:4065, V-A:ASP:473:CG:4240, V-B:LYS:547:CE:9922, V-A:ASP:473:CB:4239, H-A:HIS:456:ND1:4067, V-A:TYR:484:CB:4341"]

$$$$
4bg_Grossjean_2025
     RDKit          3D

 39 41  0  0  0  0  0  0  0  0999 V2000
  128.3620  127.8540   62.0290 C   0  0  0  0  0  0  0  0  0  0  0  0
  128.6890  127.2020   63.3600 C   0  0  0  0  0  0  0  0  0  0  0  0
  129.1750  125.8980   63.4200 C   0  0  0  0  0  0  0  0  0  0  0  0
  129.4680  125.3050   64.6590 C   0  0  0  0  0  0  0  0  0  0  0  0
  130.0000  123.8680   64.6750 C   0  0  0  0  0  0  0  0  0  0  0  0
  129.9370  123.2750   63.4810 F   0  0  0  0  0  0  0  0  0  0  0  0
  131.2780  123.8660   65.0560 F   0  0  0  0  0  0  0  0  0  0  0  0
  129.2860  123.1310   65.5250 F   0  0  0  0  0  0  0  0  0  0  0  0
  129.2470  126.0930   65.8270 C   0  0  0  0  0  0  0  0  0  0  0  0
  129.4210  125.8310   67.2350 C   0  0  0  0  0  0  0  0  0  0  0  0
  129.8720  124.6280   67.7170 N   0  0  0  0  0  0  0  0  0  0  0  0
  129.0980  126.9170   68.0630 C   0  0  0  0  0  0  0  0  0  0  0  0
  129.1280  126.9910   69.5240 C   0  0  0  0  0  0  0  0  0  0  0  0
  129.5300  127.9980   70.1090 O   0  0  0  0  0  0  0  0  0  0  0  0
  128.6530  125.9110   70.1790 N   0  0  0  0  0  0  0  0  0  0  0  0
  128.5990  125.7560   71.6330 C   0  0  0  0  0  0  0  0  0  0  0  0
  129.7300  124.9060   72.1970 C   0  0  0  0  0  0  0  0  0  0  0  0
  130.4290  125.3320   73.3310 C   0  0  0  0  0  0  0  0  0  0  0  0
  131.4360  124.5340   73.8680 C   0  0  0  0  0  0  0  0  0  0  0  0
  131.7330  123.3070   73.2780 C   0  0  0  0  0  0  0  0  0  0  0  0
  131.0290  122.8690   72.1590 C   0  0  0  0  0  0  0  0  0  0  0  0
  130.0230  123.6670   71.6210 C   0  0  0  0  0  0  0  0  0  0  0  0
  128.5280  128.2930   67.1230 S   0  0  0  0  0  0  0  0  0  0  0  0
  128.7530  127.4190   65.6270 C   0  0  0  0  0  0  0  0  0  0  0  0
  128.4740  127.9760   64.4480 N   0  0  0  0  0  0  0  0  0  0  0  0
  127.8753  128.8245   62.2059 H   0  0  0  0  0  0  0  0  0  0  0  0
  129.2897  128.0077   61.4582 H   0  0  0  0  0  0  0  0  0  0  0  0
  127.6840  127.2024   61.4582 H   0  0  0  0  0  0  0  0  0  0  0  0
  129.3303  125.3292   62.4914 H   0  0  0  0  0  0  0  0  0  0  0  0
  130.8100  124.3000   67.5430 H   0  0  0  0  0  0  0  0  0  0  0  0
  129.2710  124.0210   68.2580 H   0  0  0  0  0  0  0  0  0  0  0  0
  128.4150  125.0930   69.6380 H   0  0  0  0  0  0  0  0  0  0  0  0
  128.6521  126.7544   72.0916 H   0  0  0  0  0  0  0  0  0  0  0  0
  127.6575  125.2379   71.8679 H   0  0  0  0  0  0  0  0  0  0  0  0
  130.1834  126.2970   73.7985 H   0  0  0  0  0  0  0  0  0  0  0  0
  131.9944  124.8707   74.7539 H   0  0  0  0  0  0  0  0  0  0  0  0
  132.5310  122.6785   73.7001 H   0  0  0  0  0  0  0  0  0  0  0  0
  131.2667  121.8969   71.7023 H   0  0  0  0  0  0  0  0  0  0  0  0
  129.4586  123.3220   70.7421 H   0  0  0  0  0  0  0  0  0  0  0  0
  1  2  1  0
  2  3  2  0
  3  4  1  0
  4  5  1  0
  5  6  1  0
  5  7  1  0
  5  8  1  0
  4  9  2  0
  9 10  1  0
 10 11  1  0
 10 12  2  0
 12 13  1  0
 13 14  2  0
 13 15  1  0
 15 16  1  0
 16 17  1  0
 17 18  2  0
 18 19  1  0
 19 20  2  0
 20 21  1  0
 21 22  2  0
 12 23  1  0
 23 24  1  0
 24 25  2  0
 25  2  1  0
 24  9  1  0
 22 17  1  0
  1 26  1  0
  1 27  1  0
  1 28  1  0
  3 29  1  0
 11 30  1  0
 11 31  1  0
 15 32  1  0
 16 33  1  0
 16 34  1  0
 18 35  1  0
 19 36  1  0
 20 37  1  0
 21 38  1  0
 22 39  1  0
M  END
>  <Binding energies>  (1) 
[-6.89]

>  <Ligand effiencies>  (1) 
[-0.24607142857142855]

>  <Interactions>  (1) 
["H-A:HIS:456:NE2:4070, V-B:GLU:543:CA:9876, V-A:GLU:543:CD:4908, V-A:HIS:456:CD2:4068, V-B:GLU:543:CD:9880, V-B:GLU:543:CB:9878, H-B:HIS:456:NE2:9041, H-A:TYR:484:OH:4348, V-A:TYR:484:CZ:4347, V-B:GLU:543:C:9874, V-A:TYR:484:CE1:4345, V-B:HIS:456:CE1:9040, V-A:HIS:456:CE1:4069, V-B:GLU:543:CG:9879, V-A:GLU:543:CB:4906, V-B:ALA:541:CB:9864, H-B:GLU:543:O:9875, V-A:TYR:484:CG:4342, V-A:TYR:484:CE2:4346, V-A:HIS:456:CG:4066, V-A:TYR:484:CD1:4343, V-A:TYR:484:CD2:4344, V-A:HIS:456:CB:4065, V-A:ASP:473:CB:4239, H-A:HIS:456:ND1:4067, H-B:GLY:544:O:9885"]

$$$$
4bh_Grossjean_2025
     RDKit          3D

 51 53  0  0  0  0  0  0  0  0999 V2000
  132.5250  126.4060   74.4580 C   0  0  0  0  0  0  0  0  0  0  0  0
  131.1060  126.5050   74.4580 O   0  0  0  0  0  0  0  0  0  0  0  0
  130.3910  126.0380   73.3700 C   0  0  0  0  0  0  0  0  0  0  0  0
  129.6640  126.8610   72.4970 C   0  0  0  0  0  0  0  0  0  0  0  0
  128.9630  126.3200   71.4190 C   0  0  0  0  0  0  0  0  0  0  0  0
  128.2160  127.2350   70.4560 C   0  0  0  0  0  0  0  0  0  0  0  0
  128.3650  126.8510   69.0520 N   0  0  0  0  0  0  0  0  0  0  0  0
  129.2670  127.3660   68.1910 C   0  0  0  0  0  0  0  0  0  0  0  0
  130.0470  128.2660   68.5100 O   0  0  0  0  0  0  0  0  0  0  0  0
  129.2390  126.8270   66.8310 C   0  0  0  0  0  0  0  0  0  0  0  0
  128.7800  127.8610   65.4820 S   0  0  0  0  0  0  0  0  0  0  0  0
  128.9500  126.5360   64.3540 C   0  0  0  0  0  0  0  0  0  0  0  0
  128.7220  126.6990   63.0510 N   0  0  0  0  0  0  0  0  0  0  0  0
  128.8890  125.6020   62.2770 C   0  0  0  0  0  0  0  0  0  0  0  0
  128.6230  125.8090   60.7970 C   0  0  0  0  0  0  0  0  0  0  0  0
  129.2750  124.3580   62.7690 C   0  0  0  0  0  0  0  0  0  0  0  0
  129.5140  124.1790   64.1410 C   0  0  0  0  0  0  0  0  0  0  0  0
  129.9400  122.7930   64.6360 C   0  0  0  0  0  0  0  0  0  0  0  0
  129.1270  122.2990   65.5730 F   0  0  0  0  0  0  0  0  0  0  0  0
  129.9430  121.9320   63.6180 F   0  0  0  0  0  0  0  0  0  0  0  0
  131.1630  122.8580   65.1620 F   0  0  0  0  0  0  0  0  0  0  0  0
  129.3450  125.3160   64.9860 C   0  0  0  0  0  0  0  0  0  0  0  0
  129.4890  125.5130   66.4070 C   0  0  0  0  0  0  0  0  0  0  0  0
  129.8480  124.5040   67.2640 N   0  0  0  0  0  0  0  0  0  0  0  0
  129.0100  124.9440   71.1900 C   0  0  0  0  0  0  0  0  0  0  0  0
  129.7230  124.0950   72.0510 C   0  0  0  0  0  0  0  0  0  0  0  0
  129.8010  122.7230   71.8920 O   0  0  0  0  0  0  0  0  0  0  0  0
  128.7240  122.0300   71.2690 C   0  0  0  0  0  0  0  0  0  0  0  0
  130.4050  124.6540   73.1410 C   0  0  0  0  0  0  0  0  0  0  0  0
  131.1220  123.8360   73.9820 O   0  0  0  0  0  0  0  0  0  0  0  0
  132.1240  123.0700   73.3260 C   0  0  0  0  0  0  0  0  0  0  0  0
  132.8908  126.3805   75.4951 H   0  0  0  0  0  0  0  0  0  0  0  0
  132.8283  125.4845   73.9395 H   0  0  0  0  0  0  0  0  0  0  0  0
  132.9533  127.2764   73.9395 H   0  0  0  0  0  0  0  0  0  0  0  0
  129.6464  127.9480   72.6648 H   0  0  0  0  0  0  0  0  0  0  0  0
  127.1464  127.2111   70.7119 H   0  0  0  0  0  0  0  0  0  0  0  0
  128.6484  128.2407   70.5640 H   0  0  0  0  0  0  0  0  0  0  0  0
  127.8150  126.0600   68.7480 H   0  0  0  0  0  0  0  0  0  0  0  0
  127.7607  126.4800   60.6698 H   0  0  0  0  0  0  0  0  0  0  0  0
  129.5094  126.2573   60.3243 H   0  0  0  0  0  0  0  0  0  0  0  0
  128.4062  124.8397   60.3243 H   0  0  0  0  0  0  0  0  0  0  0  0
  129.3935  123.5100   62.0784 H   0  0  0  0  0  0  0  0  0  0  0  0
  129.1750  124.0500   67.8670 H   0  0  0  0  0  0  0  0  0  0  0  0
  130.8030  124.1830   67.3280 H   0  0  0  0  0  0  0  0  0  0  0  0
  128.4815  124.5194   70.3237 H   0  0  0  0  0  0  0  0  0  0  0  0
  128.0652  121.6061   72.0412 H   0  0  0  0  0  0  0  0  0  0  0  0
  128.1515  122.7296   70.6423 H   0  0  0  0  0  0  0  0  0  0  0  0
  129.1235  121.2190   70.6423 H   0  0  0  0  0  0  0  0  0  0  0  0
  132.7626  122.5818   74.0769 H   0  0  0  0  0  0  0  0  0  0  0  0
  131.6469  122.3042   72.6968 H   0  0  0  0  0  0  0  0  0  0  0  0
  132.7378  123.7313   72.6968 H   0  0  0  0  0  0  0  0  0  0  0  0
  1  2  1  0
  2  3  1  0
  3  4  2  0
  4  5  1  0
  5  6  1  0
  6  7  1  0
  7  8  1  0
  8  9  2  0
  8 10  1  0
 10 11  1  0
 11 12  1  0
 12 13  2  0
 13 14  1  0
 14 15  1  0
 14 16  2  0
 16 17  1  0
 17 18  1  0
 18 19  1  0
 18 20  1  0
 18 21  1  0
 17 22  2  0
 22 23  1  0
 23 24  1  0
  5 25  2  0
 25 26  1  0
 26 27  1  0
 27 28  1  0
 26 29  2  0
 29 30  1  0
 30 31  1  0
 29  3  1  0
 23 10  2  0
 22 12  1  0
  1 32  1  0
  1 33  1  0
  1 34  1  0
  4 35  1  0
  6 36  1  0
  6 37  1  0
  7 38  1  0
 15 39  1  0
 15 40  1  0
 15 41  1  0
 16 42  1  0
 24 43  1  0
 24 44  1  0
 25 45  1  0
 28 46  1  0
 28 47  1  0
 28 48  1  0
 31 49  1  0
 31 50  1  0
 31 51  1  0
M  END
>  <Binding energies>  (1) 
[-6.62]

>  <Ligand effiencies>  (1) 
[-0.19470588235294117]

>  <Interactions>  (1) 
["H-A:HIS:456:NE2:4070, V-B:GLU:543:CA:9876, V-A:GLU:543:CD:4908, V-A:HIS:456:CD2:4068, V-B:GLU:543:CD:9880, V-A:LEU:475:CD1:4258, V-B:GLU:543:CB:9878, H-A:TYR:484:OH:4348, V-A:TYR:484:CZ:4347, V-B:GLU:543:C:9874, V-A:TYR:484:CE1:4345, V-B:HIS:456:CE1:9040, V-A:HIS:456:CE1:4069, V-B:GLU:543:CG:9879, V-B:ALA:541:CB:9864, H-B:LYS:547:NZ:9923, H-B:GLU:543:O:9875, V-A:TYR:484:CG:4342, V-A:HIS:456:CG:4066, V-A:TYR:484:CD1:4343, V-B:GLY:544:CA:9886, V-A:HIS:456:CB:4065, V-A:ASP:473:CG:4240, V-B:LYS:547:CE:9922, V-A:ASP:473:CB:4239, H-A:LYS:547:NZ:4951, H-A:HIS:456:ND1:4067, V-A:LYS:547:CE:4950, V-A:TYR:484:CB:4341, V-A:LYS:547:CD:4949"]

$$$$
4bi_Grossjean_2025
     RDKit          3D

 32 34  0  0  0  0  0  0  0  0999 V2000
  127.9640  130.2820   65.1810 C   0  0  0  0  0  0  0  0  0  0  0  0
  128.3750  128.9820   65.8490 C   0  0  0  0  0  0  0  0  0  0  0  0
  128.7410  127.8710   65.0930 C   0  0  0  0  0  0  0  0  0  0  0  0
  129.1240  126.6760   65.7240 C   0  0  0  0  0  0  0  0  0  0  0  0
  129.5260  125.4840   64.8500 C   0  0  0  0  0  0  0  0  0  0  0  0
  129.0980  124.3150   65.3340 F   0  0  0  0  0  0  0  0  0  0  0  0
  129.0090  125.6230   63.6300 F   0  0  0  0  0  0  0  0  0  0  0  0
  130.8540  125.4160   64.7610 F   0  0  0  0  0  0  0  0  0  0  0  0
  129.1150  126.6610   67.1510 C   0  0  0  0  0  0  0  0  0  0  0  0
  129.4330  125.6440   68.1220 C   0  0  0  0  0  0  0  0  0  0  0  0
  129.8340  124.3810   67.7700 N   0  0  0  0  0  0  0  0  0  0  0  0
  129.3010  126.0630   69.4570 C   0  0  0  0  0  0  0  0  0  0  0  0
  129.5280  125.2930   70.6830 C   0  0  0  0  0  0  0  0  0  0  0  0
  129.5900  125.8560   71.7780 O   0  0  0  0  0  0  0  0  0  0  0  0
  129.6390  123.9510   70.5160 N   0  0  0  0  0  0  0  0  0  0  0  0
  129.8430  122.9910   71.4980 C   0  0  0  0  0  0  0  0  0  0  0  0
  130.9770  122.9570   72.3070 C   0  0  0  0  0  0  0  0  0  0  0  0
  130.7960  121.8720   73.1340 C   0  0  0  0  0  0  0  0  0  0  0  0
  129.6130  121.2830   72.8390 O   0  0  0  0  0  0  0  0  0  0  0  0
  129.0180  122.0020   71.7990 N   0  0  0  0  0  0  0  0  0  0  0  0
  128.7520  127.7350   69.5480 S   0  0  0  0  0  0  0  0  0  0  0  0
  128.7200  127.8670   67.8060 C   0  0  0  0  0  0  0  0  0  0  0  0
  128.3580  128.9990   67.2010 N   0  0  0  0  0  0  0  0  0  0  0  0
  127.7272  131.0310   65.9510 H   0  0  0  0  0  0  0  0  0  0  0  0
  128.7899  130.6492   64.5540 H   0  0  0  0  0  0  0  0  0  0  0  0
  127.0772  130.1077   64.5540 H   0  0  0  0  0  0  0  0  0  0  0  0
  128.7300  127.9298   63.9946 H   0  0  0  0  0  0  0  0  0  0  0  0
  129.2520  123.5700   67.9300 H   0  0  0  0  0  0  0  0  0  0  0  0
  130.7340  124.2150   67.3400 H   0  0  0  0  0  0  0  0  0  0  0  0
  129.5580  123.5980   69.5740 H   0  0  0  0  0  0  0  0  0  0  0  0
  131.8324  123.6483   72.2886 H   0  0  0  0  0  0  0  0  0  0  0  0
  131.4996  121.5369   73.9103 H   0  0  0  0  0  0  0  0  0  0  0  0
  1  2  1  0
  2  3  2  0
  3  4  1  0
  4  5  1  0
  5  6  1  0
  5  7  1  0
  5  8  1  0
  4  9  2  0
  9 10  1  0
 10 11  1  0
 10 12  2  0
 12 13  1  0
 13 14  2  0
 13 15  1  0
 15 16  1  0
 16 17  1  0
 17 18  2  0
 18 19  1  0
 19 20  1  0
 12 21  1  0
 21 22  1  0
 22 23  2  0
 23  2  1  0
 22  9  1  0
 20 16  2  0
  1 24  1  0
  1 25  1  0
  1 26  1  0
  3 27  1  0
 11 28  1  0
 11 29  1  0
 15 30  1  0
 17 31  1  0
 18 32  1  0
M  END
>  <Binding energies>  (1) 
[-7.29]

>  <Ligand effiencies>  (1) 
[-0.2803846153846154]

>  <Interactions>  (1) 
["H-A:HIS:456:NE2:4070, V-B:GLU:543:CA:9876, V-A:GLU:543:CD:4908, V-A:HIS:456:CD2:4068, V-B:GLU:543:CD:9880, V-B:GLU:543:CB:9878, H-A:TYR:484:OH:4348, V-A:TYR:484:CZ:4347, V-B:GLU:543:C:9874, V-A:TYR:484:CE1:4345, V-B:HIS:456:CE1:9040, V-A:HIS:456:CE1:4069, V-B:GLU:543:CG:9879, V-A:GLU:543:CB:4906, H-B:LYS:547:NZ:9923, V-A:GLU:543:CG:4907, H-B:GLU:543:O:9875, V-A:TYR:484:CG:4342, V-A:TYR:484:CE2:4346, V-A:HIS:456:CG:4066, V-A:TYR:484:CD1:4343, V-A:TYR:484:CD2:4344, V-A:HIS:456:CB:4065, V-A:ASP:473:CB:4239, H-A:HIS:456:ND1:4067, V-A:TYR:484:CB:4341"]

$$$$
4bj_Grossjean_2025
     RDKit          3D

 32 34  0  0  0  0  0  0  0  0999 V2000
  127.9400  130.2490   65.3470 C   0  0  0  0  0  0  0  0  0  0  0  0
  128.3690  128.9530   66.0100 C   0  0  0  0  0  0  0  0  0  0  0  0
  128.7510  127.8500   65.2490 C   0  0  0  0  0  0  0  0  0  0  0  0
  129.1400  126.6550   65.8750 C   0  0  0  0  0  0  0  0  0  0  0  0
  129.5490  125.4680   64.9960 C   0  0  0  0  0  0  0  0  0  0  0  0
  129.0890  124.3000   65.4500 F   0  0  0  0  0  0  0  0  0  0  0  0
  129.0710  125.6340   63.7630 F   0  0  0  0  0  0  0  0  0  0  0  0
  130.8780  125.3820   64.9470 F   0  0  0  0  0  0  0  0  0  0  0  0
  129.1270  126.6320   67.3020 C   0  0  0  0  0  0  0  0  0  0  0  0
  129.4480  125.6110   68.2700 C   0  0  0  0  0  0  0  0  0  0  0  0
  129.8620  124.3540   67.9110 N   0  0  0  0  0  0  0  0  0  0  0  0
  129.3060  126.0220   69.6050 C   0  0  0  0  0  0  0  0  0  0  0  0
  129.5350  125.2490   70.8270 C   0  0  0  0  0  0  0  0  0  0  0  0
  129.4670  125.7850   71.9360 O   0  0  0  0  0  0  0  0  0  0  0  0
  129.8030  123.9330   70.6420 N   0  0  0  0  0  0  0  0  0  0  0  0
  130.0450  122.9840   71.6270 C   0  0  0  0  0  0  0  0  0  0  0  0
  129.3110  121.9390   71.9400 N   0  0  0  0  0  0  0  0  0  0  0  0
  129.8470  121.2480   72.9260 C   0  0  0  0  0  0  0  0  0  0  0  0
  131.0470  121.7320   73.4360 C   0  0  0  0  0  0  0  0  0  0  0  0
  131.4870  123.1750   72.5720 S   0  0  0  0  0  0  0  0  0  0  0  0
  128.7440  127.6900   69.7030 S   0  0  0  0  0  0  0  0  0  0  0  0
  128.7190  127.8320   67.9610 C   0  0  0  0  0  0  0  0  0  0  0  0
  128.3480  128.9630   67.3630 N   0  0  0  0  0  0  0  0  0  0  0  0
  127.6940  130.9922   66.1197 H   0  0  0  0  0  0  0  0  0  0  0  0
  128.7602  130.6293   64.7204 H   0  0  0  0  0  0  0  0  0  0  0  0
  127.0549  130.0648   64.7204 H   0  0  0  0  0  0  0  0  0  0  0  0
  128.7478  127.9159   64.1510 H   0  0  0  0  0  0  0  0  0  0  0  0
  130.7880  124.1780   67.5500 H   0  0  0  0  0  0  0  0  0  0  0  0
  129.2460  123.5560   67.9920 H   0  0  0  0  0  0  0  0  0  0  0  0
  129.8260  123.5930   69.6920 H   0  0  0  0  0  0  0  0  0  0  0  0
  129.3717  120.3391   73.3235 H   0  0  0  0  0  0  0  0  0  0  0  0
  131.6242  121.2757   74.2537 H   0  0  0  0  0  0  0  0  0  0  0  0
  1  2  1  0
  2  3  2  0
  3  4  1  0
  4  5  1  0
  5  6  1  0
  5  7  1  0
  5  8  1  0
  4  9  2  0
  9 10  1  0
 10 11  1  0
 10 12  2  0
 12 13  1  0
 13 14  2  0
 13 15  1  0
 15 16  1  0
 16 17  2  0
 17 18  1  0
 18 19  2  0
 19 20  1  0
 12 21  1  0
 21 22  1  0
 22 23  2  0
 23  2  1  0
 22  9  1  0
 20 16  1  0
  1 24  1  0
  1 25  1  0
  1 26  1  0
  3 27  1  0
 11 28  1  0
 11 29  1  0
 15 30  1  0
 18 31  1  0
 19 32  1  0
M  END
>  <Binding energies>  (1) 
[-6.48]

>  <Ligand effiencies>  (1) 
[-0.24923076923076926]

>  <Interactions>  (1) 
["H-A:HIS:456:NE2:4070, V-B:GLU:543:CA:9876, V-A:GLU:543:CD:4908, V-A:HIS:456:CD2:4068, V-B:GLU:543:CD:9880, V-B:GLU:543:CB:9878, H-B:HIS:456:NE2:9041, H-A:TYR:484:OH:4348, V-A:TYR:484:CZ:4347, V-B:GLU:543:C:9874, V-A:TYR:484:CE1:4345, V-B:HIS:456:CE1:9040, V-A:HIS:456:CE1:4069, V-B:GLU:543:CG:9879, V-A:GLU:543:CB:4906, H-B:LYS:547:NZ:9923, V-A:GLU:543:CG:4907, H-B:GLU:543:O:9875, V-A:TYR:484:CG:4342, V-A:TYR:484:CE2:4346, V-A:HIS:456:CG:4066, V-A:TYR:484:CD1:4343, V-A:TYR:484:CD2:4344, V-A:HIS:456:CB:4065, V-A:ASP:473:CG:4240, V-B:LYS:547:CE:9922, V-A:ASP:473:CB:4239, H-A:HIS:456:ND1:4067, V-A:TYR:484:CB:4341"]

$$$$
4bk_Grossjean_2025
     RDKit          3D

 50 51  0  0  0  0  0  0  0  0999 V2000
  126.2680  118.6020   71.5450 C   0  0  0  0  0  0  0  0  0  0  0  0
  127.2480  119.0410   70.6160 O   0  0  0  0  0  0  0  0  0  0  0  0
  127.5400  120.4290   70.7140 C   0  0  0  0  0  0  0  0  0  0  0  0
  128.2520  120.7090   72.0440 C   0  0  0  0  0  0  0  0  0  0  0  0
  128.8570  121.9930   71.9940 O   0  0  0  0  0  0  0  0  0  0  0  0
  130.2250  121.9990   72.3800 C   0  0  0  0  0  0  0  0  0  0  0  0
  130.9170  123.2330   71.7860 C   0  0  0  0  0  0  0  0  0  0  0  0
  129.9550  124.0340   71.1150 O   0  0  0  0  0  0  0  0  0  0  0  0
  129.2370  124.9120   71.9750 C   0  0  0  0  0  0  0  0  0  0  0  0
  129.0660  126.2760   71.2840 C   0  0  0  0  0  0  0  0  0  0  0  0
  129.0460  126.1950   69.8230 N   0  0  0  0  0  0  0  0  0  0  0  0
  129.2450  127.2320   68.9830 C   0  0  0  0  0  0  0  0  0  0  0  0
  129.4880  128.3710   69.3850 O   0  0  0  0  0  0  0  0  0  0  0  0
  129.1660  126.9270   67.5530 C   0  0  0  0  0  0  0  0  0  0  0  0
  128.6800  128.1760   66.4090 S   0  0  0  0  0  0  0  0  0  0  0  0
  128.8660  127.0760   65.0640 C   0  0  0  0  0  0  0  0  0  0  0  0
  128.6210  127.4610   63.8120 N   0  0  0  0  0  0  0  0  0  0  0  0
  128.8020  126.5220   62.8540 C   0  0  0  0  0  0  0  0  0  0  0  0
  128.5190  126.9840   61.4360 C   0  0  0  0  0  0  0  0  0  0  0  0
  129.2170  125.2190   63.1170 C   0  0  0  0  0  0  0  0  0  0  0  0
  129.4750  124.8060   64.4340 C   0  0  0  0  0  0  0  0  0  0  0  0
  129.9250  123.3620   64.6730 C   0  0  0  0  0  0  0  0  0  0  0  0
  129.2320  122.7510   65.6370 F   0  0  0  0  0  0  0  0  0  0  0  0
  129.7700  122.6500   63.5570 F   0  0  0  0  0  0  0  0  0  0  0  0
  131.2080  123.3430   65.0320 F   0  0  0  0  0  0  0  0  0  0  0  0
  129.2950  125.7730   65.4670 C   0  0  0  0  0  0  0  0  0  0  0  0
  129.4620  125.7230   66.8990 C   0  0  0  0  0  0  0  0  0  0  0  0
  129.8720  124.5920   67.5580 N   0  0  0  0  0  0  0  0  0  0  0  0
  126.6342  118.7660   72.5692 H   0  0  0  0  0  0  0  0  0  0  0  0
  125.3381  119.1696   71.3927 H   0  0  0  0  0  0  0  0  0  0  0  0
  126.0725  117.5303   71.3927 H   0  0  0  0  0  0  0  0  0  0  0  0
  128.1919  120.7264   69.8794 H   0  0  0  0  0  0  0  0  0  0  0  0
  126.6037  121.0047   70.6710 H   0  0  0  0  0  0  0  0  0  0  0  0
  127.5206  120.6796   72.8651 H   0  0  0  0  0  0  0  0  0  0  0  0
  129.0248  119.9451   72.2150 H   0  0  0  0  0  0  0  0  0  0  0  0
  130.2965  122.0307   73.4772 H   0  0  0  0  0  0  0  0  0  0  0  0
  130.7158  121.0877   72.0075 H   0  0  0  0  0  0  0  0  0  0  0  0
  131.3826  123.8172   72.5934 H   0  0  0  0  0  0  0  0  0  0  0  0
  131.6916  122.9134   71.0733 H   0  0  0  0  0  0  0  0  0  0  0  0
  128.2473  124.4843   72.1931 H   0  0  0  0  0  0  0  0  0  0  0  0
  129.7936  125.0430   72.9147 H   0  0  0  0  0  0  0  0  0  0  0  0
  128.1174  126.7197   71.6206 H   0  0  0  0  0  0  0  0  0  0  0  0
  129.9365  126.8889   71.5609 H   0  0  0  0  0  0  0  0  0  0  0  0
  128.8520  125.2870   69.4290 H   0  0  0  0  0  0  0  0  0  0  0  0
  127.9446  127.9217   61.4636 H   0  0  0  0  0  0  0  0  0  0  0  0
  129.4695  127.1517   60.9084 H   0  0  0  0  0  0  0  0  0  0  0  0
  127.9378  126.2134   60.9084 H   0  0  0  0  0  0  0  0  0  0  0  0
  129.3436  124.5082   62.2871 H   0  0  0  0  0  0  0  0  0  0  0  0
  129.2250  124.0080   68.0710 H   0  0  0  0  0  0  0  0  0  0  0  0
  130.8390  124.3000   67.5490 H   0  0  0  0  0  0  0  0  0  0  0  0
  1  2  1  0
  2  3  1  0
  3  4  1  0
  4  5  1  0
  5  6  1  0
  6  7  1  0
  7  8  1  0
  8  9  1  0
  9 10  1  0
 10 11  1  0
 11 12  1  0
 12 13  2  0
 12 14  1  0
 14 15  1  0
 15 16  1  0
 16 17  2  0
 17 18  1  0
 18 19  1  0
 18 20  2  0
 20 21  1  0
 21 22  1  0
 22 23  1  0
 22 24  1  0
 22 25  1  0
 21 26  2  0
 26 27  1  0
 27 28  1  0
 27 14  2  0
 26 16  1  0
  1 29  1  0
  1 30  1  0
  1 31  1  0
  3 32  1  0
  3 33  1  0
  4 34  1  0
  4 35  1  0
  6 36  1  0
  6 37  1  0
  7 38  1  0
  7 39  1  0
  9 40  1  0
  9 41  1  0
 10 42  1  0
 10 43  1  0
 11 44  1  0
 19 45  1  0
 19 46  1  0
 19 47  1  0
 20 48  1  0
 28 49  1  0
 28 50  1  0
M  END
>  <Binding energies>  (1) 
[-5.96]

>  <Ligand effiencies>  (1) 
[-0.19225806451612903]

>  <Interactions>  (1) 
["H-A:HIS:456:NE2:4070, V-B:GLU:543:CA:9876, V-A:GLU:543:CD:4908, V-A:HIS:456:CD2:4068, V-B:GLU:543:CD:9880, V-B:GLU:543:CB:9878, H-B:HIS:456:NE2:9041, H-A:TYR:484:OH:4348, V-A:TYR:484:CZ:4347, V-B:GLU:543:C:9874, V-A:TYR:484:CE1:4345, V-B:HIS:456:CE1:9040, V-A:HIS:456:CE1:4069, V-B:GLU:543:CG:9879, V-A:GLU:543:CB:4906, V-B:ALA:541:CB:9864, H-B:LYS:547:NZ:9923, H-B:GLU:543:O:9875, V-A:TYR:484:CG:4342, V-A:TYR:484:CE2:4346, V-A:HIS:456:CG:4066, V-A:TYR:484:CD1:4343, V-A:TYR:484:CD2:4344, V-B:GLY:544:CA:9886, V-A:HIS:456:CB:4065, V-B:LYS:547:CE:9922, H-A:HIS:456:ND1:4067, V-A:TYR:484:CB:4341, V-B:VAL:542:CG1:9871, H-A:SER:483:OG:4334, H-A:TYR:484:N:4340"]

$$$$
4ca_Grossjean_2025
     RDKit          3D

 52 55  0  0  0  0  0  0  0  0999 V2000
  124.6530  126.5600   74.2700 C   0  0  0  0  0  0  0  0  0  0  0  0
  125.8960  127.0970   74.9860 C   0  0  0  0  0  0  0  0  0  0  0  0
  126.9870  126.2120   74.7680 O   0  0  0  0  0  0  0  0  0  0  0  0
  128.1700  126.6640   74.2760 C   0  0  0  0  0  0  0  0  0  0  0  0
  129.0390  127.1940   74.9760 O   0  0  0  0  0  0  0  0  0  0  0  0
  128.3160  126.4520   72.7980 C   0  0  0  0  0  0  0  0  0  0  0  0
  129.3240  125.6010   72.3250 C   0  0  0  0  0  0  0  0  0  0  0  0
  129.4820  125.3810   70.9590 C   0  0  0  0  0  0  0  0  0  0  0  0
  128.6430  126.0110   70.0400 C   0  0  0  0  0  0  0  0  0  0  0  0
  128.8860  125.7100   68.6850 N   0  0  0  0  0  0  0  0  0  0  0  0
  128.8990  126.5220   67.5990 C   0  0  0  0  0  0  0  0  0  0  0  0
  128.7340  127.7420   67.6460 O   0  0  0  0  0  0  0  0  0  0  0  0
  129.1470  125.8530   66.3200 C   0  0  0  0  0  0  0  0  0  0  0  0
  129.9050  124.2620   66.2850 S   0  0  0  0  0  0  0  0  0  0  0  0
  129.7880  124.1960   64.5430 C   0  0  0  0  0  0  0  0  0  0  0  0
  130.2280  123.1430   63.8580 N   0  0  0  0  0  0  0  0  0  0  0  0
  130.0810  123.1740   62.5080 C   0  0  0  0  0  0  0  0  0  0  0  0
  130.5790  121.9680   61.7650 C   0  0  0  0  0  0  0  0  0  0  0  0
  131.9080  121.8960   61.3190 C   0  0  0  0  0  0  0  0  0  0  0  0
  132.3740  120.7830   60.6250 C   0  0  0  0  0  0  0  0  0  0  0  0
  131.5130  119.7220   60.3640 C   0  0  0  0  0  0  0  0  0  0  0  0
  130.1900  119.7680   60.7910 C   0  0  0  0  0  0  0  0  0  0  0  0
  129.7280  120.8830   61.4860 C   0  0  0  0  0  0  0  0  0  0  0  0
  129.5140  124.2720   61.8520 C   0  0  0  0  0  0  0  0  0  0  0  0
  129.0510  125.3880   62.5640 C   0  0  0  0  0  0  0  0  0  0  0  0
  128.4370  126.5550   61.7820 C   0  0  0  0  0  0  0  0  0  0  0  0
  127.2230  126.8970   62.2180 F   0  0  0  0  0  0  0  0  0  0  0  0
  129.2170  127.6310   61.8890 F   0  0  0  0  0  0  0  0  0  0  0  0
  128.3190  126.2230   60.4960 F   0  0  0  0  0  0  0  0  0  0  0  0
  129.1840  125.3590   63.9820 C   0  0  0  0  0  0  0  0  0  0  0  0
  128.8250  126.2900   65.0240 C   0  0  0  0  0  0  0  0  0  0  0  0
  128.2250  127.4950   64.7660 N   0  0  0  0  0  0  0  0  0  0  0  0
  127.6280  126.8600   70.5030 C   0  0  0  0  0  0  0  0  0  0  0  0
  127.4700  127.0770   71.8690 C   0  0  0  0  0  0  0  0  0  0  0  0
  123.9104  126.2392   75.0154 H   0  0  0  0  0  0  0  0  0  0  0  0
  124.2218  127.3521   73.6402 H   0  0  0  0  0  0  0  0  0  0  0  0
  124.9342  125.7031   73.6402 H   0  0  0  0  0  0  0  0  0  0  0  0
  126.1462  128.0922   74.5899 H   0  0  0  0  0  0  0  0  0  0  0  0
  125.6943  127.1722   76.0647 H   0  0  0  0  0  0  0  0  0  0  0  0
  129.9962  125.1025   73.0389 H   0  0  0  0  0  0  0  0  0  0  0  0
  130.2738  124.7058   70.6024 H   0  0  0  0  0  0  0  0  0  0  0  0
  129.0920  124.7380   68.5090 H   0  0  0  0  0  0  0  0  0  0  0  0
  132.5925  122.7330   61.5213 H   0  0  0  0  0  0  0  0  0  0  0  0
  133.4191  120.7426   60.2842 H   0  0  0  0  0  0  0  0  0  0  0  0
  131.8806  118.8415   59.8167 H   0  0  0  0  0  0  0  0  0  0  0  0
  129.5119  118.9278   60.5808 H   0  0  0  0  0  0  0  0  0  0  0  0
  128.6811  120.9158   61.8221 H   0  0  0  0  0  0  0  0  0  0  0  0
  129.4296  124.2597   60.7553 H   0  0  0  0  0  0  0  0  0  0  0  0
  128.7620  128.3270   64.5610 H   0  0  0  0  0  0  0  0  0  0  0  0
  127.2180  127.5940   64.7680 H   0  0  0  0  0  0  0  0  0  0  0  0
  126.9560  127.3550   69.7865 H   0  0  0  0  0  0  0  0  0  0  0  0
  126.6726  127.7463   72.2244 H   0  0  0  0  0  0  0  0  0  0  0  0
  1  2  1  0
  2  3  1  0
  3  4  1  0
  4  5  2  0
  4  6  1  0
  6  7  2  0
  7  8  1  0
  8  9  2  0
  9 10  1  0
 10 11  1  0
 11 12  2  0
 11 13  1  0
 13 14  1  0
 14 15  1  0
 15 16  2  0
 16 17  1  0
 17 18  1  0
 18 19  2  0
 19 20  1  0
 20 21  2  0
 21 22  1  0
 22 23  2  0
 17 24  2  0
 24 25  1  0
 25 26  1  0
 26 27  1  0
 26 28  1  0
 26 29  1  0
 25 30  2  0
 30 31  1  0
 31 32  1  0
  9 33  1  0
 33 34  2  0
 34  6  1  0
 31 13  2  0
 30 15  1  0
 23 18  1  0
  1 35  1  0
  1 36  1  0
  1 37  1  0
  2 38  1  0
  2 39  1  0
  7 40  1  0
  8 41  1  0
 10 42  1  0
 19 43  1  0
 20 44  1  0
 21 45  1  0
 22 46  1  0
 23 47  1  0
 24 48  1  0
 32 49  1  0
 32 50  1  0
 33 51  1  0
 34 52  1  0
M  END
>  <Binding energies>  (1) 
[-7.39]

>  <Ligand effiencies>  (1) 
[-0.19972972972972972]

>  <Interactions>  (1) 
["V-B:GLU:543:CA:9876, V-A:HIS:456:CD2:4068, V-B:GLU:543:CD:9880, V-B:TYR:539:CD2:9846, V-A:LEU:475:CD1:4258, V-B:GLU:543:CB:9878, V-A:TYR:484:CZ:4347, V-B:GLU:543:C:9874, V-A:TYR:484:CE1:4345, V-B:HIS:456:CE1:9040, V-B:TYR:539:CE2:9848, V-A:HIS:456:CE1:4069, V-B:GLU:543:CG:9879, V-B:GLY:544:C:9884, V-B:ALA:541:CB:9864, H-B:LYS:547:NZ:9923, V-A:TRP:381:CZ2:3370, V-A:PRO:482:CG:4327, V-A:PRO:482:CB:4326, V-A:TRP:381:CH2:3372, H-B:GLU:543:O:9875, H-A:GLU:543:OE1:4909, H-A:GLU:543:OE2:4910, H-B:GLU:543:OE1:9881, V-B:HIS:456:CD2:9039, V-B:LYS:547:CD:9921, V-B:HIS:456:CG:9037, H-A:LYS:547:NZ:4951, V-B:ARG:545:C:9889, V-B:LYS:547:CB:9919, V-B:LYS:547:CG:9920"]

$$$$
4cb_Grossjean_2025
     RDKit          3D

 49 52  0  0  0  0  0  0  0  0999 V2000
  126.0230  126.8690   74.7880 C   0  0  0  0  0  0  0  0  0  0  0  0
  127.2520  126.1570   74.8130 O   0  0  0  0  0  0  0  0  0  0  0  0
  128.3810  126.6930   74.2820 C   0  0  0  0  0  0  0  0  0  0  0  0
  129.2270  127.2970   74.9490 O   0  0  0  0  0  0  0  0  0  0  0  0
  128.5000  126.4780   72.8000 C   0  0  0  0  0  0  0  0  0  0  0  0
  129.4810  125.6050   72.3120 C   0  0  0  0  0  0  0  0  0  0  0  0
  129.6110  125.3790   70.9450 C   0  0  0  0  0  0  0  0  0  0  0  0
  128.7690  126.0230   70.0380 C   0  0  0  0  0  0  0  0  0  0  0  0
  128.9790  125.7100   68.6810 N   0  0  0  0  0  0  0  0  0  0  0  0
  128.9620  126.5110   67.5880 C   0  0  0  0  0  0  0  0  0  0  0  0
  128.7950  127.7310   67.6260 O   0  0  0  0  0  0  0  0  0  0  0  0
  129.1820  125.8290   66.3100 C   0  0  0  0  0  0  0  0  0  0  0  0
  129.8840  124.2130   66.2760 S   0  0  0  0  0  0  0  0  0  0  0  0
  129.7580  124.1440   64.5340 C   0  0  0  0  0  0  0  0  0  0  0  0
  130.1600  123.0770   63.8490 N   0  0  0  0  0  0  0  0  0  0  0  0
  130.0120  123.1120   62.4990 C   0  0  0  0  0  0  0  0  0  0  0  0
  130.4700  121.8910   61.7550 C   0  0  0  0  0  0  0  0  0  0  0  0
  129.5790  120.8400   61.4840 C   0  0  0  0  0  0  0  0  0  0  0  0
  129.9970  119.7020   60.7980 C   0  0  0  0  0  0  0  0  0  0  0  0
  131.3170  119.6000   60.3710 C   0  0  0  0  0  0  0  0  0  0  0  0
  132.2210  120.6260   60.6290 C   0  0  0  0  0  0  0  0  0  0  0  0
  131.7990  121.7590   61.3170 C   0  0  0  0  0  0  0  0  0  0  0  0
  129.4820  124.2280   61.8430 C   0  0  0  0  0  0  0  0  0  0  0  0
  129.0590  125.3600   62.5550 C   0  0  0  0  0  0  0  0  0  0  0  0
  128.4850  126.5480   61.7730 C   0  0  0  0  0  0  0  0  0  0  0  0
  127.2830  126.9300   62.2100 F   0  0  0  0  0  0  0  0  0  0  0  0
  129.3010  127.5960   61.8840 F   0  0  0  0  0  0  0  0  0  0  0  0
  128.3570  126.2230   60.4870 F   0  0  0  0  0  0  0  0  0  0  0  0
  129.1940  125.3270   63.9730 C   0  0  0  0  0  0  0  0  0  0  0  0
  128.8690  126.2720   65.0140 C   0  0  0  0  0  0  0  0  0  0  0  0
  128.3050  127.4950   64.7540 N   0  0  0  0  0  0  0  0  0  0  0  0
  127.7810  126.8960   70.5180 C   0  0  0  0  0  0  0  0  0  0  0  0
  127.6520  127.1200   71.8860 C   0  0  0  0  0  0  0  0  0  0  0  0
  125.6900  127.0619   75.8185 H   0  0  0  0  0  0  0  0  0  0  0  0
  126.1639  127.8254   74.2631 H   0  0  0  0  0  0  0  0  0  0  0  0
  125.2634  126.2711   74.2631 H   0  0  0  0  0  0  0  0  0  0  0  0
  130.1545  125.0937   73.0156 H   0  0  0  0  0  0  0  0  0  0  0  0
  130.3833  124.6875   70.5769 H   0  0  0  0  0  0  0  0  0  0  0  0
  129.1800  124.7350   68.5100 H   0  0  0  0  0  0  0  0  0  0  0  0
  128.5340  120.9166   61.8189 H   0  0  0  0  0  0  0  0  0  0  0  0
  129.2863  118.8874   60.5948 H   0  0  0  0  0  0  0  0  0  0  0  0
  131.6480  118.7034   59.8264 H   0  0  0  0  0  0  0  0  0  0  0  0
  133.2642  120.5415   60.2905 H   0  0  0  0  0  0  0  0  0  0  0  0
  132.5181  122.5658   61.5219 H   0  0  0  0  0  0  0  0  0  0  0  0
  129.3952  124.2176   60.7465 H   0  0  0  0  0  0  0  0  0  0  0  0
  127.3060  127.6400   64.7840 H   0  0  0  0  0  0  0  0  0  0  0  0
  128.8740  128.2990   64.5270 H   0  0  0  0  0  0  0  0  0  0  0  0
  127.1073  127.4042   69.8124 H   0  0  0  0  0  0  0  0  0  0  0  0
  126.8766  127.8080   72.2539 H   0  0  0  0  0  0  0  0  0  0  0  0
  1  2  1  0
  2  3  1  0
  3  4  2  0
  3  5  1  0
  5  6  2  0
  6  7  1  0
  7  8  2  0
  8  9  1  0
  9 10  1  0
 10 11  2  0
 10 12  1  0
 12 13  1  0
 13 14  1  0
 14 15  2  0
 15 16  1  0
 16 17  1  0
 17 18  2  0
 18 19  1  0
 19 20  2  0
 20 21  1  0
 21 22  2  0
 16 23  2  0
 23 24  1  0
 24 25  1  0
 25 26  1  0
 25 27  1  0
 25 28  1  0
 24 29  2  0
 29 30  1  0
 30 31  1  0
  8 32  1  0
 32 33  2  0
 33  5  1  0
 30 12  2  0
 29 14  1  0
 22 17  1  0
  1 34  1  0
  1 35  1  0
  1 36  1  0
  6 37  1  0
  7 38  1  0
  9 39  1  0
 18 40  1  0
 19 41  1  0
 20 42  1  0
 21 43  1  0
 22 44  1  0
 23 45  1  0
 31 46  1  0
 31 47  1  0
 32 48  1  0
 33 49  1  0
M  END
>  <Binding energies>  (1) 
[-7.08]

>  <Ligand effiencies>  (1) 
[-0.19666666666666666]

>  <Interactions>  (1) 
["V-B:GLU:543:CA:9876, V-A:GLU:543:CD:4908, V-A:HIS:456:CD2:4068, V-B:GLU:543:CD:9880, V-B:TYR:539:CD2:9846, V-A:LEU:475:CD1:4258, V-B:GLU:543:CB:9878, H-A:TYR:484:OH:4348, V-A:TYR:484:CZ:4347, V-B:GLU:543:C:9874, V-A:TYR:484:CE1:4345, V-B:HIS:456:CE1:9040, V-B:TYR:539:CE2:9848, V-A:HIS:456:CE1:4069, V-B:GLU:543:CG:9879, V-B:GLY:544:C:9884, V-B:ALA:541:CB:9864, H-B:LYS:547:NZ:9923, V-A:TRP:381:CZ2:3370, V-B:ALA:541:CA:9862, V-A:PRO:482:CG:4327, V-A:PRO:482:CB:4326, V-A:TRP:381:CH2:3372, H-B:GLU:543:O:9875, H-A:GLU:543:OE1:4909, H-A:GLU:543:OE2:4910, H-B:GLU:543:OE1:9881, V-B:HIS:456:CD2:9039, V-B:LYS:547:CD:9921, V-B:HIS:456:CG:9037, V-A:HIS:456:CG:4066, H-A:LYS:547:NZ:4951"]

$$$$
4cc_Grossjean_2025
     RDKit          3D

 47 50  0  0  0  0  0  0  0  0999 V2000
  127.1920  126.8750   74.3150 C   0  0  0  0  0  0  0  0  0  0  0  0
  128.2520  126.0790   73.7950 O   0  0  0  0  0  0  0  0  0  0  0  0
  128.4560  126.0360   72.4300 C   0  0  0  0  0  0  0  0  0  0  0  0
  129.2740  125.0110   71.9550 C   0  0  0  0  0  0  0  0  0  0  0  0
  129.5360  124.8860   70.5930 C   0  0  0  0  0  0  0  0  0  0  0  0
  128.9890  125.7940   69.6860 C   0  0  0  0  0  0  0  0  0  0  0  0
  129.2960  125.5790   68.3290 N   0  0  0  0  0  0  0  0  0  0  0  0
  129.8720  126.4200   67.4370 C   0  0  0  0  0  0  0  0  0  0  0  0
  130.2670  127.5530   67.7150 O   0  0  0  0  0  0  0  0  0  0  0  0
  130.0070  125.8960   66.0740 C   0  0  0  0  0  0  0  0  0  0  0  0
  128.5920  125.7550   65.0320 S   0  0  0  0  0  0  0  0  0  0  0  0
  129.5630  125.1180   63.7260 C   0  0  0  0  0  0  0  0  0  0  0  0
  129.0210  124.7860   62.5560 N   0  0  0  0  0  0  0  0  0  0  0  0
  129.8560  124.3090   61.5980 C   0  0  0  0  0  0  0  0  0  0  0  0
  129.2170  123.9400   60.2900 C   0  0  0  0  0  0  0  0  0  0  0  0
  129.6050  124.5720   59.0980 C   0  0  0  0  0  0  0  0  0  0  0  0
  129.0140  124.2370   57.8820 C   0  0  0  0  0  0  0  0  0  0  0  0
  128.0240  123.2620   57.8410 C   0  0  0  0  0  0  0  0  0  0  0  0
  127.6180  122.6230   59.0080 C   0  0  0  0  0  0  0  0  0  0  0  0
  128.2100  122.9620   60.2220 C   0  0  0  0  0  0  0  0  0  0  0  0
  131.2270  124.1510   61.8230 C   0  0  0  0  0  0  0  0  0  0  0  0
  131.8090  124.4970   63.0540 C   0  0  0  0  0  0  0  0  0  0  0  0
  133.3190  124.3040   63.2310 C   0  0  0  0  0  0  0  0  0  0  0  0
  133.6290  123.2170   63.9430 F   0  0  0  0  0  0  0  0  0  0  0  0
  133.9000  124.1780   62.0380 F   0  0  0  0  0  0  0  0  0  0  0  0
  133.8370  125.3560   63.8640 F   0  0  0  0  0  0  0  0  0  0  0  0
  130.9430  125.0070   64.0640 C   0  0  0  0  0  0  0  0  0  0  0  0
  131.1670  125.4560   65.4160 C   0  0  0  0  0  0  0  0  0  0  0  0
  132.4070  125.4530   66.0020 N   0  0  0  0  0  0  0  0  0  0  0  0
  128.1540  126.8200   70.1540 C   0  0  0  0  0  0  0  0  0  0  0  0
  127.8950  126.9410   71.5160 C   0  0  0  0  0  0  0  0  0  0  0  0
  127.2219  126.8525   75.4144 H   0  0  0  0  0  0  0  0  0  0  0  0
  127.3069  127.9119   73.9662 H   0  0  0  0  0  0  0  0  0  0  0  0
  126.2283  126.4755   73.9662 H   0  0  0  0  0  0  0  0  0  0  0  0
  129.7163  124.2946   72.6629 H   0  0  0  0  0  0  0  0  0  0  0  0
  130.1766  124.0683   70.2310 H   0  0  0  0  0  0  0  0  0  0  0  0
  129.0770  124.6530   67.9930 H   0  0  0  0  0  0  0  0  0  0  0  0
  130.3881  125.3440   59.1247 H   0  0  0  0  0  0  0  0  0  0  0  0
  129.3296  124.7423   56.9573 H   0  0  0  0  0  0  0  0  0  0  0  0
  127.5592  122.9944   56.8806 H   0  0  0  0  0  0  0  0  0  0  0  0
  126.8329  121.8534   58.9720 H   0  0  0  0  0  0  0  0  0  0  0  0
  127.8841  122.4560   61.1428 H   0  0  0  0  0  0  0  0  0  0  0  0
  131.8622  123.7479   61.0205 H   0  0  0  0  0  0  0  0  0  0  0  0
  133.0550  126.2190   65.8840 H   0  0  0  0  0  0  0  0  0  0  0  0
  132.7170  124.6790   66.5730 H   0  0  0  0  0  0  0  0  0  0  0  0
  127.7038  127.5292   69.4438 H   0  0  0  0  0  0  0  0  0  0  0  0
  127.2460  127.7517   71.8786 H   0  0  0  0  0  0  0  0  0  0  0  0
  1  2  1  0
  2  3  1  0
  3  4  2  0
  4  5  1  0
  5  6  2  0
  6  7  1  0
  7  8  1  0
  8  9  2  0
  8 10  1  0
 10 11  1  0
 11 12  1  0
 12 13  2  0
 13 14  1  0
 14 15  1  0
 15 16  2  0
 16 17  1  0
 17 18  2  0
 18 19  1  0
 19 20  2  0
 14 21  2  0
 21 22  1  0
 22 23  1  0
 23 24  1  0
 23 25  1  0
 23 26  1  0
 22 27  2  0
 27 28  1  0
 28 29  1  0
  6 30  1  0
 30 31  2  0
 31  3  1  0
 28 10  2  0
 27 12  1  0
 20 15  1  0
  1 32  1  0
  1 33  1  0
  1 34  1  0
  4 35  1  0
  5 36  1  0
  7 37  1  0
 16 38  1  0
 17 39  1  0
 18 40  1  0
 19 41  1  0
 20 42  1  0
 21 43  1  0
 29 44  1  0
 29 45  1  0
 30 46  1  0
 31 47  1  0
M  END
>  <Binding energies>  (1) 
[-6.86]

>  <Ligand effiencies>  (1) 
[-0.20176470588235296]

>  <Interactions>  (1) 
["H-A:HIS:456:NE2:4070, V-A:HIS:456:CD2:4068, V-B:GLU:543:CD:9880, V-A:ASP:366:CG:3213, V-B:TYR:539:CD2:9846, V-A:LEU:475:CD1:4258, V-B:GLU:543:CB:9878, H-A:TYR:484:OH:4348, V-B:GLU:543:C:9874, V-B:HIS:456:CE1:9040, V-B:TYR:539:CE2:9848, V-A:HIS:456:CE1:4069, V-B:GLU:543:CG:9879, V-A:ARG:545:CZ:4926, V-B:PRO:540:CA:9855, V-B:TYR:539:CZ:9849, H-B:LYS:547:NZ:9923, V-B:TYR:539:C:9839, V-B:PRO:540:N:9856, V-A:GLY:453:CA:4044, V-A:GLY:454:CA:4049, V-A:GLY:453:C:4042, H-B:GLU:543:O:9875, H-A:GLU:543:OE2:4910, V-B:LYS:547:CD:9921, H-A:HIS:456:ND1:4067"]

$$$$
4cd_Grossjean_2025
     RDKit          3D

 43 46  0  0  0  0  0  0  0  0999 V2000
  129.7510  124.2500   66.9620 N   0  0  0  0  0  0  0  0  0  0  0  0
  129.5010  124.9320   65.7990 C   0  0  0  0  0  0  0  0  0  0  0  0
  129.7920  124.4150   64.5260 C   0  0  0  0  0  0  0  0  0  0  0  0
  130.4030  123.1280   64.1810 C   0  0  0  0  0  0  0  0  0  0  0  0
  130.8540  122.3910   65.0580 O   0  0  0  0  0  0  0  0  0  0  0  0
  130.4190  122.8290   62.8590 N   0  0  0  0  0  0  0  0  0  0  0  0
  130.9700  121.7150   62.1980 C   0  0  0  0  0  0  0  0  0  0  0  0
  132.3250  121.8060   61.8700 C   0  0  0  0  0  0  0  0  0  0  0  0
  132.9640  120.7500   61.2270 C   0  0  0  0  0  0  0  0  0  0  0  0
  132.2490  119.5960   60.9180 C   0  0  0  0  0  0  0  0  0  0  0  0
  130.9010  119.4860   61.2510 C   0  0  0  0  0  0  0  0  0  0  0  0
  130.2580  120.5410   61.8950 C   0  0  0  0  0  0  0  0  0  0  0  0
  129.3320  125.5500   63.2580 S   0  0  0  0  0  0  0  0  0  0  0  0
  128.7650  126.7070   64.4380 C   0  0  0  0  0  0  0  0  0  0  0  0
  128.2560  127.8810   64.0700 N   0  0  0  0  0  0  0  0  0  0  0  0
  127.8540  128.7210   65.0600 C   0  0  0  0  0  0  0  0  0  0  0  0
  127.2880  130.0380   64.6150 C   0  0  0  0  0  0  0  0  0  0  0  0
  125.9410  130.1490   64.2340 C   0  0  0  0  0  0  0  0  0  0  0  0
  125.4080  131.3680   63.8210 C   0  0  0  0  0  0  0  0  0  0  0  0
  126.2190  132.4970   63.7830 C   0  0  0  0  0  0  0  0  0  0  0  0
  127.5560  132.4160   64.1590 C   0  0  0  0  0  0  0  0  0  0  0  0
  128.0830  131.1970   64.5730 C   0  0  0  0  0  0  0  0  0  0  0  0
  127.9470  128.3710   66.4100 C   0  0  0  0  0  0  0  0  0  0  0  0
  128.4780  127.1330   66.8080 C   0  0  0  0  0  0  0  0  0  0  0  0
  128.5530  126.8150   68.3060 C   0  0  0  0  0  0  0  0  0  0  0  0
  129.6210  126.0820   68.6330 F   0  0  0  0  0  0  0  0  0  0  0  0
  128.6170  127.9480   69.0060 F   0  0  0  0  0  0  0  0  0  0  0  0
  127.4720  126.1290   68.6760 F   0  0  0  0  0  0  0  0  0  0  0  0
  128.9140  126.2500   65.7800 C   0  0  0  0  0  0  0  0  0  0  0  0
  129.1250  124.2970   67.7540 H   0  0  0  0  0  0  0  0  0  0  0  0
  130.5730  123.6710   67.0660 H   0  0  0  0  0  0  0  0  0  0  0  0
  129.9600  123.4880   62.2480 H   0  0  0  0  0  0  0  0  0  0  0  0
  132.8893  122.7163   62.1211 H   0  0  0  0  0  0  0  0  0  0  0  0
  134.0293  120.8268   60.9641 H   0  0  0  0  0  0  0  0  0  0  0  0
  132.7534  118.7633   60.4060 H   0  0  0  0  0  0  0  0  0  0  0  0
  130.3456  118.5686   61.0062 H   0  0  0  0  0  0  0  0  0  0  0  0
  129.1953  120.4556   62.1659 H   0  0  0  0  0  0  0  0  0  0  0  0
  125.2959  129.2585   64.2621 H   0  0  0  0  0  0  0  0  0  0  0  0
  124.3505  131.4372   63.5263 H   0  0  0  0  0  0  0  0  0  0  0  0
  125.8010  133.4597   63.4537 H   0  0  0  0  0  0  0  0  0  0  0  0
  128.1936  133.3119   64.1291 H   0  0  0  0  0  0  0  0  0  0  0  0
  129.1398  131.1388   64.8727 H   0  0  0  0  0  0  0  0  0  0  0  0
  127.5975  129.0790   67.1759 H   0  0  0  0  0  0  0  0  0  0  0  0
  1  2  1  0
  2  3  2  0
  3  4  1  0
  4  5  2  0
  4  6  1  0
  6  7  1  0
  7  8  2  0
  8  9  1  0
  9 10  2  0
 10 11  1  0
 11 12  2  0
  3 13  1  0
 13 14  1  0
 14 15  2  0
 15 16  1  0
 16 17  1  0
 17 18  2  0
 18 19  1  0
 19 20  2  0
 20 21  1  0
 21 22  2  0
 16 23  2  0
 23 24  1  0
 24 25  1  0
 25 26  1  0
 25 27  1  0
 25 28  1  0
 24 29  2  0
 29  2  1  0
 12  7  1  0
 29 14  1  0
 22 17  1  0
  1 30  1  0
  1 31  1  0
  6 32  1  0
  8 33  1  0
  9 34  1  0
 10 35  1  0
 11 36  1  0
 12 37  1  0
 18 38  1  0
 19 39  1  0
 20 40  1  0
 21 41  1  0
 22 42  1  0
 23 43  1  0
M  END
>  <Binding energies>  (1) 
[-7.06]

>  <Ligand effiencies>  (1) 
[-0.220625]

>  <Interactions>  (1) 
["V-B:GLU:543:CA:9876, V-A:GLU:543:CD:4908, V-A:HIS:456:CD2:4068, V-B:GLU:543:CD:9880, V-B:TYR:539:CD2:9846, V-A:LEU:475:CD1:4258, V-B:GLU:543:CB:9878, H-A:TYR:484:OH:4348, V-A:TYR:484:CZ:4347, V-B:GLU:543:C:9874, V-A:TYR:484:CE1:4345, V-B:HIS:456:CE1:9040, V-A:HIS:456:CE1:4069, V-B:GLU:543:CG:9879, V-A:ALA:541:CB:4892, V-A:GLU:543:CB:4906, V-B:GLY:544:C:9884, V-B:ALA:541:CB:9864, V-B:LEU:475:CD1:9229, V-A:ILE:369:CD1:3239, V-A:TRP:381:CZ2:3370, V-A:PRO:482:CG:4327, V-A:PRO:482:CB:4326, V-A:TRP:381:CH2:3372, H-B:GLU:543:O:9875"]

$$$$
4ce_Grossjean_2025
     RDKit          3D

 45 48  0  0  0  0  0  0  0  0999 V2000
  128.5460  119.9850   73.1180 C   0  0  0  0  0  0  0  0  0  0  0  0
  129.5000  121.1310   72.8370 C   0  0  0  0  0  0  0  0  0  0  0  0
  130.6990  121.2730   73.5420 C   0  0  0  0  0  0  0  0  0  0  0  0
  131.5320  122.3470   73.2250 C   0  0  0  0  0  0  0  0  0  0  0  0
  131.1530  123.2420   72.2230 C   0  0  0  0  0  0  0  0  0  0  0  0
  129.9350  123.0440   71.5600 C   0  0  0  0  0  0  0  0  0  0  0  0
  129.6200  123.9650   70.5450 N   0  0  0  0  0  0  0  0  0  0  0  0
  129.5060  125.3150   70.6280 C   0  0  0  0  0  0  0  0  0  0  0  0
  129.6920  125.9550   71.6650 O   0  0  0  0  0  0  0  0  0  0  0  0
  129.1420  125.9940   69.3830 C   0  0  0  0  0  0  0  0  0  0  0  0
  128.3950  127.5890   69.4280 S   0  0  0  0  0  0  0  0  0  0  0  0
  128.3440  127.6640   67.6840 C   0  0  0  0  0  0  0  0  0  0  0  0
  127.8470  128.7230   67.0490 N   0  0  0  0  0  0  0  0  0  0  0  0
  127.8640  128.6970   65.6900 C   0  0  0  0  0  0  0  0  0  0  0  0
  127.3030  129.9080   65.0050 C   0  0  0  0  0  0  0  0  0  0  0  0
  128.0820  131.0650   64.8430 C   0  0  0  0  0  0  0  0  0  0  0  0
  127.5650  132.1950   64.2150 C   0  0  0  0  0  0  0  0  0  0  0  0
  126.2590  132.1830   63.7370 C   0  0  0  0  0  0  0  0  0  0  0  0
  125.4660  131.0500   63.8860 C   0  0  0  0  0  0  0  0  0  0  0  0
  125.9860  129.9230   64.5170 C   0  0  0  0  0  0  0  0  0  0  0  0
  128.3590  127.6000   64.9770 C   0  0  0  0  0  0  0  0  0  0  0  0
  128.8790  126.4750   65.6370 C   0  0  0  0  0  0  0  0  0  0  0  0
  129.4070  125.3090   64.7950 C   0  0  0  0  0  0  0  0  0  0  0  0
  129.1060  124.1140   65.3070 F   0  0  0  0  0  0  0  0  0  0  0  0
  128.8790  125.3630   63.5710 F   0  0  0  0  0  0  0  0  0  0  0  0
  130.7340  125.3820   64.7050 F   0  0  0  0  0  0  0  0  0  0  0  0
  128.8810  126.4990   67.0620 C   0  0  0  0  0  0  0  0  0  0  0  0
  129.3290  125.5580   68.0600 C   0  0  0  0  0  0  0  0  0  0  0  0
  129.8890  124.3480   67.7410 N   0  0  0  0  0  0  0  0  0  0  0  0
  129.1170  121.9940   71.8610 N   0  0  0  0  0  0  0  0  0  0  0  0
  128.4383  119.8557   74.2051 H   0  0  0  0  0  0  0  0  0  0  0  0
  127.5638  120.2089   72.6763 H   0  0  0  0  0  0  0  0  0  0  0  0
  128.9443  119.0596   72.6763 H   0  0  0  0  0  0  0  0  0  0  0  0
  130.9790  120.5556   74.3275 H   0  0  0  0  0  0  0  0  0  0  0  0
  132.4819  122.4874   73.7617 H   0  0  0  0  0  0  0  0  0  0  0  0
  131.8012  124.0902   71.9580 H   0  0  0  0  0  0  0  0  0  0  0  0
  129.5020  123.5590   69.6290 H   0  0  0  0  0  0  0  0  0  0  0  0
  129.1161  131.0788   65.2178 H   0  0  0  0  0  0  0  0  0  0  0  0
  128.1874  133.0943   64.0973 H   0  0  0  0  0  0  0  0  0  0  0  0
  125.8509  133.0745   63.2383 H   0  0  0  0  0  0  0  0  0  0  0  0
  124.4333  131.0444   63.5072 H   0  0  0  0  0  0  0  0  0  0  0  0
  125.3551  129.0297   64.6353 H   0  0  0  0  0  0  0  0  0  0  0  0
  128.3405  127.6191   63.8773 H   0  0  0  0  0  0  0  0  0  0  0  0
  129.3870  123.4790   67.8560 H   0  0  0  0  0  0  0  0  0  0  0  0
  130.8310  124.2840   67.3790 H   0  0  0  0  0  0  0  0  0  0  0  0
  1  2  1  0
  2  3  2  0
  3  4  1  0
  4  5  2  0
  5  6  1  0
  6  7  1  0
  7  8  1  0
  8  9  2  0
  8 10  1  0
 10 11  1  0
 11 12  1  0
 12 13  2  0
 13 14  1  0
 14 15  1  0
 15 16  2  0
 16 17  1  0
 17 18  2  0
 18 19  1  0
 19 20  2  0
 14 21  2  0
 21 22  1  0
 22 23  1  0
 23 24  1  0
 23 25  1  0
 23 26  1  0
 22 27  2  0
 27 28  1  0
 28 29  1  0
  6 30  2  0
 30  2  1  0
 28 10  2  0
 27 12  1  0
 20 15  1  0
  1 31  1  0
  1 32  1  0
  1 33  1  0
  3 34  1  0
  4 35  1  0
  5 36  1  0
  7 37  1  0
 16 38  1  0
 17 39  1  0
 18 40  1  0
 19 41  1  0
 20 42  1  0
 21 43  1  0
 29 44  1  0
 29 45  1  0
M  END
>  <Binding energies>  (1) 
[-8.17]

>  <Ligand effiencies>  (1) 
[-0.24757575757575756]

>  <Interactions>  (1) 
["H-A:HIS:456:NE2:4070, V-B:GLU:543:CA:9876, V-A:GLU:543:CD:4908, V-A:HIS:456:CD2:4068, V-B:GLU:543:CD:9880, V-B:GLU:543:CB:9878, H-A:TYR:484:OH:4348, V-A:TYR:484:CZ:4347, V-B:GLU:543:C:9874, V-A:TYR:484:CE1:4345, V-B:HIS:456:CE1:9040, V-A:HIS:456:CE1:4069, V-B:GLU:543:CG:9879, V-A:ALA:541:CB:4892, V-A:GLU:543:CB:4906, H-B:LYS:547:NZ:9923, V-B:LEU:475:CD1:9229, H-B:GLU:543:O:9875, V-A:TYR:484:CG:4342, V-A:TYR:484:CE2:4346, V-A:HIS:456:CG:4066, V-A:TYR:484:CD1:4343, V-A:TYR:484:CD2:4344, V-A:HIS:456:CB:4065, V-A:ASP:473:CG:4240, V-B:LYS:547:CE:9922, V-A:ASP:473:CB:4239, H-A:HIS:456:ND1:4067, V-A:TYR:484:CB:4341"]

$$$$
4cf_Grossjean_2025
     RDKit          3D

 42 45  0  0  0  0  0  0  0  0999 V2000
  129.7890  124.4750   67.4270 N   0  0  0  0  0  0  0  0  0  0  0  0
  129.4100  125.7720   67.6600 C   0  0  0  0  0  0  0  0  0  0  0  0
  129.2880  126.3190   68.9480 C   0  0  0  0  0  0  0  0  0  0  0  0
  129.4860  125.6600   70.2430 C   0  0  0  0  0  0  0  0  0  0  0  0
  129.4260  126.3060   71.2900 O   0  0  0  0  0  0  0  0  0  0  0  0
  129.7190  124.3270   70.1860 N   0  0  0  0  0  0  0  0  0  0  0  0
  129.9960  123.4190   71.2260 C   0  0  0  0  0  0  0  0  0  0  0  0
  131.1170  123.4670   72.0760 C   0  0  0  0  0  0  0  0  0  0  0  0
  131.2800  122.4910   73.0610 C   0  0  0  0  0  0  0  0  0  0  0  0
  130.3170  121.4880   73.1730 C   0  0  0  0  0  0  0  0  0  0  0  0
  129.2310  121.4140   72.3630 N   0  0  0  0  0  0  0  0  0  0  0  0
  129.0880  122.3690   71.4090 C   0  0  0  0  0  0  0  0  0  0  0  0
  128.7900  128.0080   68.8780 S   0  0  0  0  0  0  0  0  0  0  0  0
  128.7420  127.9680   67.1310 C   0  0  0  0  0  0  0  0  0  0  0  0
  128.3950  129.0390   66.4210 N   0  0  0  0  0  0  0  0  0  0  0  0
  128.3710  128.9050   65.0680 C   0  0  0  0  0  0  0  0  0  0  0  0
  127.9690  130.1270   64.2940 C   0  0  0  0  0  0  0  0  0  0  0  0
  128.0100  131.3980   64.8880 C   0  0  0  0  0  0  0  0  0  0  0  0
  127.6400  132.5370   64.1770 C   0  0  0  0  0  0  0  0  0  0  0  0
  127.2250  132.4180   62.8550 C   0  0  0  0  0  0  0  0  0  0  0  0
  127.1780  131.1710   62.2400 C   0  0  0  0  0  0  0  0  0  0  0  0
  127.5490  130.0360   62.9550 C   0  0  0  0  0  0  0  0  0  0  0  0
  128.7180  127.7080   64.4370 C   0  0  0  0  0  0  0  0  0  0  0  0
  129.0900  126.5740   65.1770 C   0  0  0  0  0  0  0  0  0  0  0  0
  129.4530  125.2910   64.4210 C   0  0  0  0  0  0  0  0  0  0  0  0
  129.0310  124.1830   65.0340 F   0  0  0  0  0  0  0  0  0  0  0  0
  128.9000  125.3100   63.2080 F   0  0  0  0  0  0  0  0  0  0  0  0
  130.7780  125.1980   64.2990 F   0  0  0  0  0  0  0  0  0  0  0  0
  129.1010  126.6960   66.5960 C   0  0  0  0  0  0  0  0  0  0  0  0
  130.7220  124.2370   67.1240 H   0  0  0  0  0  0  0  0  0  0  0  0
  129.1420  123.7080   67.5530 H   0  0  0  0  0  0  0  0  0  0  0  0
  129.6880  123.9090   69.2670 H   0  0  0  0  0  0  0  0  0  0  0  0
  131.8610  124.2696   71.9647 H   0  0  0  0  0  0  0  0  0  0  0  0
  132.1494  122.5125   73.7345 H   0  0  0  0  0  0  0  0  0  0  0  0
  130.4437  120.7228   73.9530 H   0  0  0  0  0  0  0  0  0  0  0  0
  128.2128  122.3152   70.7448 H   0  0  0  0  0  0  0  0  0  0  0  0
  128.3399  131.4962   65.9327 H   0  0  0  0  0  0  0  0  0  0  0  0
  127.6758  133.5254   64.6585 H   0  0  0  0  0  0  0  0  0  0  0  0
  126.9319  133.3162   62.2917 H   0  0  0  0  0  0  0  0  0  0  0  0
  126.8493  131.0825   61.1940 H   0  0  0  0  0  0  0  0  0  0  0  0
  127.5131  129.0519   62.4648 H   0  0  0  0  0  0  0  0  0  0  0  0
  128.6995  127.6526   63.3386 H   0  0  0  0  0  0  0  0  0  0  0  0
  1  2  1  0
  2  3  2  0
  3  4  1  0
  4  5  2  0
  4  6  1  0
  6  7  1  0
  7  8  2  0
  8  9  1  0
  9 10  2  0
 10 11  1  0
 11 12  2  0
  3 13  1  0
 13 14  1  0
 14 15  2  0
 15 16  1  0
 16 17  1  0
 17 18  2  0
 18 19  1  0
 19 20  2  0
 20 21  1  0
 21 22  2  0
 16 23  2  0
 23 24  1  0
 24 25  1  0
 25 26  1  0
 25 27  1  0
 25 28  1  0
 24 29  2  0
 29  2  1  0
 12  7  1  0
 29 14  1  0
 22 17  1  0
  1 30  1  0
  1 31  1  0
  6 32  1  0
  8 33  1  0
  9 34  1  0
 10 35  1  0
 12 36  1  0
 18 37  1  0
 19 38  1  0
 20 39  1  0
 21 40  1  0
 22 41  1  0
 23 42  1  0
M  END
>  <Binding energies>  (1) 
[-7.61]

>  <Ligand effiencies>  (1) 
[-0.2378125]

>  <Interactions>  (1) 
["H-A:HIS:456:NE2:4070, V-B:GLU:543:CA:9876, V-A:GLU:543:CD:4908, V-A:HIS:456:CD2:4068, V-B:GLU:543:CD:9880, V-B:GLU:543:CB:9878, H-A:TYR:484:OH:4348, V-A:TYR:484:CZ:4347, V-B:GLU:543:C:9874, V-A:TYR:484:CE1:4345, V-B:HIS:456:CE1:9040, V-A:HIS:456:CE1:4069, V-B:GLU:543:CG:9879, V-A:ALA:541:CB:4892, V-A:GLU:543:CB:4906, H-B:LYS:547:NZ:9923, V-B:TYR:484:CE1:9316, V-B:LEU:475:CD1:9229, V-B:TYR:484:CZ:9318, H-B:GLU:543:O:9875, V-A:TYR:484:CG:4342, V-A:TYR:484:CE2:4346, V-A:HIS:456:CG:4066, V-A:TYR:484:CD1:4343, V-A:TYR:484:CD2:4344, V-B:GLY:544:CA:9886, V-A:HIS:456:CB:4065, V-B:LYS:547:CE:9922, V-A:ASP:473:CB:4239, H-A:HIS:456:ND1:4067, V-A:TYR:484:CB:4341"]

$$$$
4cg_Grossjean_2025
     RDKit          3D

 46 49  0  0  0  0  0  0  0  0999 V2000
  125.5500  125.9590   58.8610 N   0  0  0  0  0  0  0  0  0  0  0  0
  126.5130  125.6960   59.8020 C   0  0  0  0  0  0  0  0  0  0  0  0
  126.8390  126.5870   60.8350 C   0  0  0  0  0  0  0  0  0  0  0  0
  126.2360  127.8810   61.1480 C   0  0  0  0  0  0  0  0  0  0  0  0
  125.7470  128.5920   60.2680 O   0  0  0  0  0  0  0  0  0  0  0  0
  126.2840  128.2590   62.4430 N   0  0  0  0  0  0  0  0  0  0  0  0
  125.7270  129.4960   62.9860 C   0  0  0  0  0  0  0  0  0  0  0  0
  125.3530  129.3970   64.4610 C   0  0  0  0  0  0  0  0  0  0  0  0
  124.1190  129.8840   64.8990 C   0  0  0  0  0  0  0  0  0  0  0  0
  123.7600  129.7670   66.2400 C   0  0  0  0  0  0  0  0  0  0  0  0
  124.6340  129.1540   67.1360 C   0  0  0  0  0  0  0  0  0  0  0  0
  125.8590  128.6520   66.7020 C   0  0  0  0  0  0  0  0  0  0  0  0
  126.2170  128.7670   65.3620 C   0  0  0  0  0  0  0  0  0  0  0  0
  128.1000  125.9290   61.8750 S   0  0  0  0  0  0  0  0  0  0  0  0
  128.1970  124.4760   60.9080 C   0  0  0  0  0  0  0  0  0  0  0  0
  129.0480  123.4990   61.2070 N   0  0  0  0  0  0  0  0  0  0  0  0
  129.0500  122.4060   60.4010 C   0  0  0  0  0  0  0  0  0  0  0  0
  130.0240  121.3210   60.7640 C   0  0  0  0  0  0  0  0  0  0  0  0
  131.4080  121.5570   60.7430 C   0  0  0  0  0  0  0  0  0  0  0  0
  132.3140  120.5560   61.0780 C   0  0  0  0  0  0  0  0  0  0  0  0
  131.8470  119.2950   61.4390 C   0  0  0  0  0  0  0  0  0  0  0  0
  130.4820  119.0320   61.4660 C   0  0  0  0  0  0  0  0  0  0  0  0
  129.5800  120.0370   61.1300 C   0  0  0  0  0  0  0  0  0  0  0  0
  128.2090  122.3090   59.2860 C   0  0  0  0  0  0  0  0  0  0  0  0
  127.3070  123.3350   58.9610 C   0  0  0  0  0  0  0  0  0  0  0  0
  126.4150  123.1640   57.7260 C   0  0  0  0  0  0  0  0  0  0  0  0
  126.6680  122.0430   57.0480 F   0  0  0  0  0  0  0  0  0  0  0  0
  125.1350  123.1270   58.0970 F   0  0  0  0  0  0  0  0  0  0  0  0
  126.6020  124.1850   56.8910 F   0  0  0  0  0  0  0  0  0  0  0  0
  127.2870  124.4790   59.8090 C   0  0  0  0  0  0  0  0  0  0  0  0
  125.0110  126.8130   58.8710 H   0  0  0  0  0  0  0  0  0  0  0  0
  125.3530  125.3050   58.1160 H   0  0  0  0  0  0  0  0  0  0  0  0
  126.6320  127.5950   63.1190 H   0  0  0  0  0  0  0  0  0  0  0  0
  126.4736  130.2953   62.8687 H   0  0  0  0  0  0  0  0  0  0  0  0
  124.8013  129.7061   62.4302 H   0  0  0  0  0  0  0  0  0  0  0  0
  123.4308  130.3599   64.1850 H   0  0  0  0  0  0  0  0  0  0  0  0
  122.7924  130.1562   66.5896 H   0  0  0  0  0  0  0  0  0  0  0  0
  124.3539  129.0657   68.1961 H   0  0  0  0  0  0  0  0  0  0  0  0
  126.5408  128.1665   67.4158 H   0  0  0  0  0  0  0  0  0  0  0  0
  127.1784  128.3628   65.0122 H   0  0  0  0  0  0  0  0  0  0  0  0
  131.7824  122.5509   60.4566 H   0  0  0  0  0  0  0  0  0  0  0  0
  133.3948  120.7598   61.0578 H   0  0  0  0  0  0  0  0  0  0  0  0
  132.5620  118.5023   61.7044 H   0  0  0  0  0  0  0  0  0  0  0  0
  130.1169  118.0344   61.7515 H   0  0  0  0  0  0  0  0  0  0  0  0
  128.5010  119.8239   61.1509 H   0  0  0  0  0  0  0  0  0  0  0  0
  128.2557  121.4113   58.6520 H   0  0  0  0  0  0  0  0  0  0  0  0
  1  2  1  0
  2  3  2  0
  3  4  1  0
  4  5  2  0
  4  6  1  0
  6  7  1  0
  7  8  1  0
  8  9  2  0
  9 10  1  0
 10 11  2  0
 11 12  1  0
 12 13  2  0
  3 14  1  0
 14 15  1  0
 15 16  2  0
 16 17  1  0
 17 18  1  0
 18 19  2  0
 19 20  1  0
 20 21  2  0
 21 22  1  0
 22 23  2  0
 17 24  2  0
 24 25  1  0
 25 26  1  0
 26 27  1  0
 26 28  1  0
 26 29  1  0
 25 30  2  0
 30  2  1  0
 13  8  1  0
 30 15  1  0
 23 18  1  0
  1 31  1  0
  1 32  1  0
  6 33  1  0
  7 34  1  0
  7 35  1  0
  9 36  1  0
 10 37  1  0
 11 38  1  0
 12 39  1  0
 13 40  1  0
 19 41  1  0
 20 42  1  0
 21 43  1  0
 22 44  1  0
 23 45  1  0
 24 46  1  0
M  END
>  <Binding energies>  (1) 
[-7.29]

>  <Ligand effiencies>  (1) 
[-0.22090909090909092]

>  <Interactions>  (1) 
["V-B:GLU:543:CD:9880, V-B:TYR:539:CD2:9846, V-A:LEU:475:CD1:4258, V-B:HIS:456:CE1:9040, V-B:TYR:539:CE2:9848, V-B:ARG:545:CD:9895, V-B:ARG:545:CZ:9898, V-B:ARG:545:CG:9894, V-B:PRO:540:CA:9855, V-B:ALA:541:CB:9864, V-B:TYR:539:C:9839, V-B:PRO:540:CB:9857, V-B:PRO:540:N:9856, V-B:GLY:454:CA:9020, V-A:TRP:381:CZ2:3370, V-B:ALA:541:CA:9862, V-A:PRO:482:CG:4327, V-A:PRO:482:CB:4326, H-B:GLU:543:OE2:9882, V-A:TRP:381:CH2:3372, V-B:ASP:366:CG:8184, V-B:TYR:539:CG:9844, V-B:LEU:363:CD1:8160, H-B:GLU:543:OE1:9881, V-B:PRO:540:CD:9859, H-B:ASP:366:OD1:8185, V-B:TYR:539:CA:9841, V-B:PRO:540:CG:9858"]

$$$$
4ch_Grossjean_2025
     RDKit          3D

 58 61  0  0  0  0  0  0  0  0999 V2000
  129.9320  130.1240   72.3750 C   0  0  0  0  0  0  0  0  0  0  0  0
  129.4860  128.9840   73.1020 O   0  0  0  0  0  0  0  0  0  0  0  0
  129.3010  127.7860   72.4380 C   0  0  0  0  0  0  0  0  0  0  0  0
  128.4830  127.6350   71.3050 C   0  0  0  0  0  0  0  0  0  0  0  0
  128.3440  126.3930   70.6830 C   0  0  0  0  0  0  0  0  0  0  0  0
  127.4310  126.2430   69.4720 C   0  0  0  0  0  0  0  0  0  0  0  0
  128.1180  125.8240   68.2500 N   0  0  0  0  0  0  0  0  0  0  0  0
  128.3420  126.6010   67.1700 C   0  0  0  0  0  0  0  0  0  0  0  0
  128.0000  127.7840   67.1230 O   0  0  0  0  0  0  0  0  0  0  0  0
  129.0530  125.9660   66.0600 C   0  0  0  0  0  0  0  0  0  0  0  0
  129.5400  124.2780   66.1730 S   0  0  0  0  0  0  0  0  0  0  0  0
  130.2280  124.3230   64.5680 C   0  0  0  0  0  0  0  0  0  0  0  0
  130.8110  123.2540   64.0310 N   0  0  0  0  0  0  0  0  0  0  0  0
  131.3120  123.3830   62.7750 C   0  0  0  0  0  0  0  0  0  0  0  0
  131.9690  122.1600   62.2010 C   0  0  0  0  0  0  0  0  0  0  0  0
  133.3620  121.9950   62.2670 C   0  0  0  0  0  0  0  0  0  0  0  0
  133.9780  120.8640   61.7360 C   0  0  0  0  0  0  0  0  0  0  0  0
  133.2070  119.8800   61.1290 C   0  0  0  0  0  0  0  0  0  0  0  0
  131.8250  120.0200   61.0470 C   0  0  0  0  0  0  0  0  0  0  0  0
  131.2140  121.1530   61.5770 C   0  0  0  0  0  0  0  0  0  0  0  0
  131.2400  124.5890   62.0710 C   0  0  0  0  0  0  0  0  0  0  0  0
  130.6280  125.7240   62.6280 C   0  0  0  0  0  0  0  0  0  0  0  0
  130.5830  127.0140   61.8020 C   0  0  0  0  0  0  0  0  0  0  0  0
  131.0530  126.8590   60.5610 F   0  0  0  0  0  0  0  0  0  0  0  0
  129.3260  127.4420   61.7010 F   0  0  0  0  0  0  0  0  0  0  0  0
  131.3210  127.9540   62.3920 F   0  0  0  0  0  0  0  0  0  0  0  0
  130.0880  125.5960   63.9390 C   0  0  0  0  0  0  0  0  0  0  0  0
  129.4000  126.5140   64.8150 C   0  0  0  0  0  0  0  0  0  0  0  0
  129.1210  127.8100   64.4620 N   0  0  0  0  0  0  0  0  0  0  0  0
  129.0130  125.2840   71.2040 C   0  0  0  0  0  0  0  0  0  0  0  0
  129.8350  125.4060   72.3350 C   0  0  0  0  0  0  0  0  0  0  0  0
  130.5270  124.3510   72.9030 O   0  0  0  0  0  0  0  0  0  0  0  0
  131.0200  123.3080   72.0680 C   0  0  0  0  0  0  0  0  0  0  0  0
  129.9750  126.6640   72.9390 C   0  0  0  0  0  0  0  0  0  0  0  0
  130.7650  126.7940   74.0560 O   0  0  0  0  0  0  0  0  0  0  0  0
  130.2520  126.1370   75.2070 C   0  0  0  0  0  0  0  0  0  0  0  0
  130.2398  130.9108   73.0795 H   0  0  0  0  0  0  0  0  0  0  0  0
  130.7868  129.8438   71.7419 H   0  0  0  0  0  0  0  0  0  0  0  0
  129.1140  130.4982   71.7419 H   0  0  0  0  0  0  0  0  0  0  0  0
  127.9455  128.5066   70.9033 H   0  0  0  0  0  0  0  0  0  0  0  0
  126.6628  125.4926   69.7102 H   0  0  0  0  0  0  0  0  0  0  0  0
  127.0076  127.2381   69.2707 H   0  0  0  0  0  0  0  0  0  0  0  0
  128.3780  124.8490   68.1990 H   0  0  0  0  0  0  0  0  0  0  0  0
  133.9767  122.7715   62.7458 H   0  0  0  0  0  0  0  0  0  0  0  0
  135.0704  120.7503   61.7969 H   0  0  0  0  0  0  0  0  0  0  0  0
  133.6919  118.9855   60.7110 H   0  0  0  0  0  0  0  0  0  0  0  0
  131.2181  119.2390   60.5656 H   0  0  0  0  0  0  0  0  0  0  0  0
  130.1217  121.2616   61.5060 H   0  0  0  0  0  0  0  0  0  0  0  0
  131.6712  124.6501   61.0609 H   0  0  0  0  0  0  0  0  0  0  0  0
  128.3870  128.3400   64.9110 H   0  0  0  0  0  0  0  0  0  0  0  0
  129.6460  128.2820   63.7390 H   0  0  0  0  0  0  0  0  0  0  0  0
  128.8944  124.3023   70.7221 H   0  0  0  0  0  0  0  0  0  0  0  0
  131.4068  122.4897   72.6931 H   0  0  0  0  0  0  0  0  0  0  0  0
  130.2050  122.9305   71.4330 H   0  0  0  0  0  0  0  0  0  0  0  0
  131.8290  123.6981   71.4330 H   0  0  0  0  0  0  0  0  0  0  0  0
  130.6366  126.6295   76.1123 H   0  0  0  0  0  0  0  0  0  0  0  0
  129.1533  126.1892   75.1998 H   0  0  0  0  0  0  0  0  0  0  0  0
  130.5691  125.0837   75.1998 H   0  0  0  0  0  0  0  0  0  0  0  0
  1  2  1  0
  2  3  1  0
  3  4  2  0
  4  5  1  0
  5  6  1  0
  6  7  1  0
  7  8  1  0
  8  9  2  0
  8 10  1  0
 10 11  1  0
 11 12  1  0
 12 13  2  0
 13 14  1  0
 14 15  1  0
 15 16  2  0
 16 17  1  0
 17 18  2  0
 18 19  1  0
 19 20  2  0
 14 21  2  0
 21 22  1  0
 22 23  1  0
 23 24  1  0
 23 25  1  0
 23 26  1  0
 22 27  2  0
 27 28  1  0
 28 29  1  0
  5 30  2  0
 30 31  1  0
 31 32  1  0
 32 33  1  0
 31 34  2  0
 34 35  1  0
 35 36  1  0
 34  3  1  0
 28 10  2  0
 27 12  1  0
 20 15  1  0
  1 37  1  0
  1 38  1  0
  1 39  1  0
  4 40  1  0
  6 41  1  0
  6 42  1  0
  7 43  1  0
 16 44  1  0
 17 45  1  0
 18 46  1  0
 19 47  1  0
 20 48  1  0
 21 49  1  0
 29 50  1  0
 29 51  1  0
 30 52  1  0
 33 53  1  0
 33 54  1  0
 33 55  1  0
 36 56  1  0
 36 57  1  0
 36 58  1  0
M  END
>  <Binding energies>  (1) 
[-6.96]

>  <Ligand effiencies>  (1) 
[-0.17846153846153845]

>  <Interactions>  (1) 
["V-B:GLU:543:CA:9876, V-A:GLU:543:CD:4908, V-A:HIS:456:CD2:4068, V-A:ASP:366:CG:3213, V-A:LEU:475:CD1:4258, V-B:GLU:543:CB:9878, H-B:HIS:456:NE2:9041, V-A:TYR:484:CZ:4347, V-B:GLU:543:C:9874, V-A:TYR:484:CE1:4345, V-B:HIS:456:CE1:9040, V-B:GLU:543:CG:9879, V-A:ARG:545:CZ:4926, V-B:GLY:544:C:9884, H-B:LYS:547:NZ:9923, V-A:ILE:369:CD1:3239, V-A:GLY:454:CA:4049, V-A:ILE:369:CG2:3237, V-A:TRP:381:CH2:3372, H-B:GLU:543:O:9875, H-A:GLU:543:OE1:4909, H-A:GLU:543:OE2:4910, H-B:GLU:543:OE1:9881, V-B:HIS:456:CD2:9039, V-A:TYR:484:CG:4342, V-A:TYR:484:CE2:4346, V-A:HIS:456:CG:4066, V-A:TYR:484:CD2:4344, V-A:HIS:456:CB:4065, H-A:LYS:547:NZ:4951, V-A:LYS:547:CE:4950, V-A:GLY:544:CA:4914, V-A:GLU:543:C:4902"]

$$$$
4ci_Grossjean_2025
     RDKit          3D

 39 42  0  0  0  0  0  0  0  0999 V2000
  129.8750  124.3590   67.7550 N   0  0  0  0  0  0  0  0  0  0  0  0
  129.3290  125.5730   68.0780 C   0  0  0  0  0  0  0  0  0  0  0  0
  129.1280  126.0000   69.4010 C   0  0  0  0  0  0  0  0  0  0  0  0
  129.4480  125.2960   70.6460 C   0  0  0  0  0  0  0  0  0  0  0  0
  129.5630  125.9140   71.7070 O   0  0  0  0  0  0  0  0  0  0  0  0
  129.6140  123.9540   70.5310 N   0  0  0  0  0  0  0  0  0  0  0  0
  129.9230  123.0510   71.5400 C   0  0  0  0  0  0  0  0  0  0  0  0
  131.0930  123.1220   72.2950 C   0  0  0  0  0  0  0  0  0  0  0  0
  131.0200  122.0640   73.1710 C   0  0  0  0  0  0  0  0  0  0  0  0
  129.8640  121.3900   72.9550 O   0  0  0  0  0  0  0  0  0  0  0  0
  129.1790  122.0250   71.9180 N   0  0  0  0  0  0  0  0  0  0  0  0
  128.4170  127.6110   69.4500 S   0  0  0  0  0  0  0  0  0  0  0  0
  128.3840  127.6990   67.7040 C   0  0  0  0  0  0  0  0  0  0  0  0
  127.9130  128.7700   67.0700 N   0  0  0  0  0  0  0  0  0  0  0  0
  127.9320  128.7490   65.7120 C   0  0  0  0  0  0  0  0  0  0  0  0
  127.3890  129.9700   65.0260 C   0  0  0  0  0  0  0  0  0  0  0  0
  128.1790  131.1210   64.8740 C   0  0  0  0  0  0  0  0  0  0  0  0
  127.6820  132.2560   64.2380 C   0  0  0  0  0  0  0  0  0  0  0  0
  126.3820  132.2560   63.7440 C   0  0  0  0  0  0  0  0  0  0  0  0
  125.5760  131.1320   63.8850 C   0  0  0  0  0  0  0  0  0  0  0  0
  126.0770  130.0000   64.5230 C   0  0  0  0  0  0  0  0  0  0  0  0
  128.4070  127.6440   64.9990 C   0  0  0  0  0  0  0  0  0  0  0  0
  128.9060  126.5080   65.6570 C   0  0  0  0  0  0  0  0  0  0  0  0
  129.4120  125.3330   64.8120 C   0  0  0  0  0  0  0  0  0  0  0  0
  129.0600  124.1440   65.3040 F   0  0  0  0  0  0  0  0  0  0  0  0
  128.9110  125.4180   63.5800 F   0  0  0  0  0  0  0  0  0  0  0  0
  130.7430  125.3620   64.7490 F   0  0  0  0  0  0  0  0  0  0  0  0
  128.9030  126.5260   67.0810 C   0  0  0  0  0  0  0  0  0  0  0  0
  130.8190  124.2730   67.4030 H   0  0  0  0  0  0  0  0  0  0  0  0
  129.3520  123.5010   67.8650 H   0  0  0  0  0  0  0  0  0  0  0  0
  129.5060  123.5550   69.6110 H   0  0  0  0  0  0  0  0  0  0  0  0
  131.9004  123.8641   72.2087 H   0  0  0  0  0  0  0  0  0  0  0  0
  131.7779  121.8063   73.9255 H   0  0  0  0  0  0  0  0  0  0  0  0
  129.2076  131.1263   65.2638 H   0  0  0  0  0  0  0  0  0  0  0  0
  128.3151  133.1487   64.1269 H   0  0  0  0  0  0  0  0  0  0  0  0
  125.9891  133.1506   63.2387 H   0  0  0  0  0  0  0  0  0  0  0  0
  124.5476  131.1368   63.4946 H   0  0  0  0  0  0  0  0  0  0  0  0
  125.4347  129.1140   64.6352 H   0  0  0  0  0  0  0  0  0  0  0  0
  128.3895  127.6649   63.8993 H   0  0  0  0  0  0  0  0  0  0  0  0
  1  2  1  0
  2  3  2  0
  3  4  1  0
  4  5  2  0
  4  6  1  0
  6  7  1  0
  7  8  1  0
  8  9  2  0
  9 10  1  0
 10 11  1  0
  3 12  1  0
 12 13  1  0
 13 14  2  0
 14 15  1  0
 15 16  1  0
 16 17  2  0
 17 18  1  0
 18 19  2  0
 19 20  1  0
 20 21  2  0
 15 22  2  0
 22 23  1  0
 23 24  1  0
 24 25  1  0
 24 26  1  0
 24 27  1  0
 23 28  2  0
 28  2  1  0
 11  7  2  0
 28 13  1  0
 21 16  1  0
  1 29  1  0
  1 30  1  0
  6 31  1  0
  8 32  1  0
  9 33  1  0
 17 34  1  0
 18 35  1  0
 19 36  1  0
 20 37  1  0
 21 38  1  0
 22 39  1  0
M  END
>  <Binding energies>  (1) 
[-8.49]

>  <Ligand effiencies>  (1) 
[-0.2738709677419355]

>  <Interactions>  (1) 
["H-A:HIS:456:NE2:4070, V-B:GLU:543:CA:9876, V-A:GLU:543:CD:4908, V-A:HIS:456:CD2:4068, V-B:GLU:543:CD:9880, V-B:GLU:543:CB:9878, H-A:TYR:484:OH:4348, V-A:TYR:484:CZ:4347, V-B:GLU:543:C:9874, V-A:TYR:484:CE1:4345, V-B:HIS:456:CE1:9040, V-A:HIS:456:CE1:4069, V-B:GLU:543:CG:9879, V-A:ALA:541:CB:4892, V-A:GLU:543:CB:4906, H-B:LYS:547:NZ:9923, V-B:LEU:475:CD1:9229, H-B:GLU:543:O:9875, V-A:TYR:484:CG:4342, V-A:TYR:484:CE2:4346, V-A:HIS:456:CG:4066, V-A:TYR:484:CD1:4343, V-A:TYR:484:CD2:4344, V-A:HIS:456:CB:4065, V-A:ASP:473:CG:4240, V-A:ASP:473:CB:4239, H-A:HIS:456:ND1:4067, V-A:TYR:484:CB:4341"]

$$$$
4cj_Grossjean_2025
     RDKit          3D

 39 42  0  0  0  0  0  0  0  0999 V2000
  129.8940  124.3100   67.7980 N   0  0  0  0  0  0  0  0  0  0  0  0
  129.3220  125.5130   68.1250 C   0  0  0  0  0  0  0  0  0  0  0  0
  129.1170  125.9320   69.4500 C   0  0  0  0  0  0  0  0  0  0  0  0
  129.4520  125.2310   70.6920 C   0  0  0  0  0  0  0  0  0  0  0  0
  129.5830  125.8510   71.7500 O   0  0  0  0  0  0  0  0  0  0  0  0
  129.6110  123.8890   70.5790 N   0  0  0  0  0  0  0  0  0  0  0  0
  129.9270  122.9990   71.5960 C   0  0  0  0  0  0  0  0  0  0  0  0
  129.3000  121.8890   71.9210 N   0  0  0  0  0  0  0  0  0  0  0  0
  129.8790  121.2860   72.9400 C   0  0  0  0  0  0  0  0  0  0  0  0
  131.0060  121.9100   73.4660 C   0  0  0  0  0  0  0  0  0  0  0  0
  131.3170  123.3660   72.5680 S   0  0  0  0  0  0  0  0  0  0  0  0
  128.3750  127.5290   69.5040 S   0  0  0  0  0  0  0  0  0  0  0  0
  128.3420  127.6220   67.7590 C   0  0  0  0  0  0  0  0  0  0  0  0
  127.8560  128.6890   67.1300 N   0  0  0  0  0  0  0  0  0  0  0  0
  127.8790  128.6750   65.7730 C   0  0  0  0  0  0  0  0  0  0  0  0
  127.3350  129.9000   65.0940 C   0  0  0  0  0  0  0  0  0  0  0  0
  126.0060  129.9400   64.6420 C   0  0  0  0  0  0  0  0  0  0  0  0
  125.4970  131.0700   64.0070 C   0  0  0  0  0  0  0  0  0  0  0  0
  126.3150  132.1800   63.8130 C   0  0  0  0  0  0  0  0  0  0  0  0
  127.6340  132.1650   64.2490 C   0  0  0  0  0  0  0  0  0  0  0  0
  128.1380  131.0330   64.8840 C   0  0  0  0  0  0  0  0  0  0  0  0
  128.3670  127.5790   65.0540 C   0  0  0  0  0  0  0  0  0  0  0  0
  128.8810  126.4480   65.7070 C   0  0  0  0  0  0  0  0  0  0  0  0
  129.4030  125.2830   64.8580 C   0  0  0  0  0  0  0  0  0  0  0  0
  129.1030  124.0870   65.3670 F   0  0  0  0  0  0  0  0  0  0  0  0
  128.8710  125.3430   63.6370 F   0  0  0  0  0  0  0  0  0  0  0  0
  130.7310  125.3540   64.7620 F   0  0  0  0  0  0  0  0  0  0  0  0
  128.8790  126.4600   67.1310 C   0  0  0  0  0  0  0  0  0  0  0  0
  129.3790  123.4410   67.8490 H   0  0  0  0  0  0  0  0  0  0  0  0
  130.8550  124.2520   67.4890 H   0  0  0  0  0  0  0  0  0  0  0  0
  129.4980  123.4850   69.6610 H   0  0  0  0  0  0  0  0  0  0  0  0
  129.4928  120.3419   73.3517 H   0  0  0  0  0  0  0  0  0  0  0  0
  131.6035  121.5417   74.3130 H   0  0  0  0  0  0  0  0  0  0  0  0
  125.3567  129.0648   64.7919 H   0  0  0  0  0  0  0  0  0  0  0  0
  124.4532  131.0857   63.6602 H   0  0  0  0  0  0  0  0  0  0  0  0
  125.9147  133.0736   63.3118 H   0  0  0  0  0  0  0  0  0  0  0  0
  128.2773  133.0435   64.0932 H   0  0  0  0  0  0  0  0  0  0  0  0
  129.1831  131.0259   65.2271 H   0  0  0  0  0  0  0  0  0  0  0  0
  128.3475  127.6040   63.9545 H   0  0  0  0  0  0  0  0  0  0  0  0
  1  2  1  0
  2  3  2  0
  3  4  1  0
  4  5  2  0
  4  6  1  0
  6  7  1  0
  7  8  2  0
  8  9  1  0
  9 10  2  0
 10 11  1  0
  3 12  1  0
 12 13  1  0
 13 14  2  0
 14 15  1  0
 15 16  1  0
 16 17  2  0
 17 18  1  0
 18 19  2  0
 19 20  1  0
 20 21  2  0
 15 22  2  0
 22 23  1  0
 23 24  1  0
 24 25  1  0
 24 26  1  0
 24 27  1  0
 23 28  2  0
 28  2  1  0
 11  7  1  0
 28 13  1  0
 21 16  1  0
  1 29  1  0
  1 30  1  0
  6 31  1  0
  9 32  1  0
 10 33  1  0
 17 34  1  0
 18 35  1  0
 19 36  1  0
 20 37  1  0
 21 38  1  0
 22 39  1  0
M  END
>  <Binding energies>  (1) 
[-7.71]

>  <Ligand effiencies>  (1) 
[-0.24870967741935485]

>  <Interactions>  (1) 
["H-A:HIS:456:NE2:4070, V-B:GLU:543:CA:9876, V-A:GLU:543:CD:4908, V-A:HIS:456:CD2:4068, V-B:GLU:543:CD:9880, V-B:GLU:543:CB:9878, H-A:TYR:484:OH:4348, V-A:TYR:484:CZ:4347, V-B:GLU:543:C:9874, V-A:TYR:484:CE1:4345, V-B:HIS:456:CE1:9040, V-A:HIS:456:CE1:4069, V-B:GLU:543:CG:9879, V-A:ALA:541:CB:4892, V-A:GLU:543:CB:4906, H-B:LYS:547:NZ:9923, V-B:LEU:475:CD1:9229, H-B:GLU:543:O:9875, V-A:TYR:484:CG:4342, V-A:TYR:484:CE2:4346, V-A:HIS:456:CG:4066, V-A:TYR:484:CD1:4343, V-A:TYR:484:CD2:4344, V-A:HIS:456:CB:4065, V-A:ASP:473:CG:4240, V-B:LYS:547:CE:9922, V-A:ASP:473:CB:4239, H-A:HIS:456:ND1:4067, V-A:TYR:484:CB:4341"]

$$$$
4ck_Grossjean_2025
     RDKit          3D

 57 59  0  0  0  0  0  0  0  0999 V2000
  135.1330  127.2520   73.9820 C   0  0  0  0  0  0  0  0  0  0  0  0
  133.7550  126.9230   74.0590 O   0  0  0  0  0  0  0  0  0  0  0  0
  133.4950  125.7550   74.8250 C   0  0  0  0  0  0  0  0  0  0  0  0
  131.9790  125.5890   74.9860 C   0  0  0  0  0  0  0  0  0  0  0  0
  131.3370  126.8020   74.6180 O   0  0  0  0  0  0  0  0  0  0  0  0
  130.0790  126.6090   73.9850 C   0  0  0  0  0  0  0  0  0  0  0  0
  130.2470  125.6180   72.8260 C   0  0  0  0  0  0  0  0  0  0  0  0
  128.9870  125.0200   72.5500 O   0  0  0  0  0  0  0  0  0  0  0  0
  128.1540  125.8000   71.7030 C   0  0  0  0  0  0  0  0  0  0  0  0
  129.0200  126.7490   70.8600 C   0  0  0  0  0  0  0  0  0  0  0  0
  129.1000  126.3250   69.4620 N   0  0  0  0  0  0  0  0  0  0  0  0
  129.4950  127.0930   68.4250 C   0  0  0  0  0  0  0  0  0  0  0  0
  129.8680  128.2590   68.5650 O   0  0  0  0  0  0  0  0  0  0  0  0
  129.4690  126.4530   67.1090 C   0  0  0  0  0  0  0  0  0  0  0  0
  129.8600  124.7420   66.9510 S   0  0  0  0  0  0  0  0  0  0  0  0
  129.5520  124.7880   65.2310 C   0  0  0  0  0  0  0  0  0  0  0  0
  129.6850  123.7030   64.4730 N   0  0  0  0  0  0  0  0  0  0  0  0
  129.4250  123.8350   63.1450 C   0  0  0  0  0  0  0  0  0  0  0  0
  129.5660  122.5880   62.3210 C   0  0  0  0  0  0  0  0  0  0  0  0
  128.7900  122.3980   61.1660 C   0  0  0  0  0  0  0  0  0  0  0  0
  128.9140  121.2420   60.3980 C   0  0  0  0  0  0  0  0  0  0  0  0
  129.8210  120.2580   60.7750 C   0  0  0  0  0  0  0  0  0  0  0  0
  130.6060  120.4230   61.9110 C   0  0  0  0  0  0  0  0  0  0  0  0
  130.4790  121.5800   62.6750 C   0  0  0  0  0  0  0  0  0  0  0  0
  129.0240  125.0540   62.5890 C   0  0  0  0  0  0  0  0  0  0  0  0
  128.8820  126.2050   63.3800 C   0  0  0  0  0  0  0  0  0  0  0  0
  128.4430  127.5100   62.7040 C   0  0  0  0  0  0  0  0  0  0  0  0
  127.3420  128.0340   63.2430 F   0  0  0  0  0  0  0  0  0  0  0  0
  129.4120  128.4190   62.8090 F   0  0  0  0  0  0  0  0  0  0  0  0
  128.1890  127.2850   61.4150 F   0  0  0  0  0  0  0  0  0  0  0  0
  129.1540  126.0780   64.7720 C   0  0  0  0  0  0  0  0  0  0  0  0
  129.1090  127.0100   65.8730 C   0  0  0  0  0  0  0  0  0  0  0  0
  128.7480  128.3240   65.7190 N   0  0  0  0  0  0  0  0  0  0  0  0
  135.5439  127.3501   74.9977 H   0  0  0  0  0  0  0  0  0  0  0  0
  135.6703  126.4569   73.4443 H   0  0  0  0  0  0  0  0  0  0  0  0
  135.2532  128.2041   73.4443 H   0  0  0  0  0  0  0  0  0  0  0  0
  133.9093  124.8762   74.3092 H   0  0  0  0  0  0  0  0  0  0  0  0
  133.9653  125.8483   75.8150 H   0  0  0  0  0  0  0  0  0  0  0  0
  131.6266  124.7740   74.3367 H   0  0  0  0  0  0  0  0  0  0  0  0
  131.7417  125.3466   76.0324 H   0  0  0  0  0  0  0  0  0  0  0  0
  129.3586  126.2065   74.7123 H   0  0  0  0  0  0  0  0  0  0  0  0
  129.7066  127.5698   73.6000 H   0  0  0  0  0  0  0  0  0  0  0  0
  130.6073  126.1503   71.9334 H   0  0  0  0  0  0  0  0  0  0  0  0
  130.9776  124.8425   73.0995 H   0  0  0  0  0  0  0  0  0  0  0  0
  127.5844  125.1353   71.0368 H   0  0  0  0  0  0  0  0  0  0  0  0
  127.4581  126.3898   72.3177 H   0  0  0  0  0  0  0  0  0  0  0  0
  128.5832  127.7578   70.9003 H   0  0  0  0  0  0  0  0  0  0  0  0
  130.0382  126.7381   71.2761 H   0  0  0  0  0  0  0  0  0  0  0  0
  128.8950  125.3530   69.2820 H   0  0  0  0  0  0  0  0  0  0  0  0
  128.0725  123.1746   60.8626 H   0  0  0  0  0  0  0  0  0  0  0  0
  128.2969  121.1085   59.4972 H   0  0  0  0  0  0  0  0  0  0  0  0
  129.9182  119.3437   60.1712 H   0  0  0  0  0  0  0  0  0  0  0  0
  131.3239  119.6430   62.2046 H   0  0  0  0  0  0  0  0  0  0  0  0
  131.1041  121.7073   63.5711 H   0  0  0  0  0  0  0  0  0  0  0  0
  128.8157  125.1120   61.5105 H   0  0  0  0  0  0  0  0  0  0  0  0
  128.9000  129.0110   66.4450 H   0  0  0  0  0  0  0  0  0  0  0  0
  128.3200  128.6550   64.8650 H   0  0  0  0  0  0  0  0  0  0  0  0
  1  2  1  0
  2  3  1  0
  3  4  1  0
  4  5  1  0
  5  6  1  0
  6  7  1  0
  7  8  1  0
  8  9  1  0
  9 10  1  0
 10 11  1  0
 11 12  1  0
 12 13  2  0
 12 14  1  0
 14 15  1  0
 15 16  1  0
 16 17  2  0
 17 18  1  0
 18 19  1  0
 19 20  2  0
 20 21  1  0
 21 22  2  0
 22 23  1  0
 23 24  2  0
 18 25  2  0
 25 26  1  0
 26 27  1  0
 27 28  1  0
 27 29  1  0
 27 30  1  0
 26 31  2  0
 31 32  1  0
 32 33  1  0
 32 14  2  0
 31 16  1  0
 24 19  1  0
  1 34  1  0
  1 35  1  0
  1 36  1  0
  3 37  1  0
  3 38  1  0
  4 39  1  0
  4 40  1  0
  6 41  1  0
  6 42  1  0
  7 43  1  0
  7 44  1  0
  9 45  1  0
  9 46  1  0
 10 47  1  0
 10 48  1  0
 11 49  1  0
 20 50  1  0
 21 51  1  0
 22 52  1  0
 23 53  1  0
 24 54  1  0
 25 55  1  0
 33 56  1  0
 33 57  1  0
M  END
>  <Binding energies>  (1) 
[-6.07]

>  <Ligand effiencies>  (1) 
[-0.16861111111111113]

>  <Interactions>  (1) 
["H-A:HIS:456:NE2:4070, V-A:GLU:543:CD:4908, V-A:HIS:456:CD2:4068, V-B:GLU:543:CD:9880, V-B:TYR:539:CD2:9846, V-A:LEU:475:CD1:4258, V-B:GLU:543:CB:9878, V-A:TYR:484:CZ:4347, V-A:TYR:484:CE1:4345, V-B:TYR:539:CE2:9848, V-A:HIS:456:CE1:4069, V-B:GLU:543:CG:9879, V-A:GLU:543:CB:4906, V-B:PRO:540:CA:9855, V-B:GLY:544:C:9884, V-B:ALA:541:CB:9864, H-B:LYS:547:NZ:9923, V-B:TYR:539:C:9839, V-A:GLU:543:CG:4907, V-B:PRO:540:C:9853, H-B:GLU:543:O:9875, H-A:GLU:543:OE1:4909, H-A:GLU:543:OE2:4910, H-B:GLU:543:OE1:9881, V-A:HIS:456:CG:4066, V-A:HIS:456:CB:4065, H-A:LYS:547:NZ:4951, V-A:VAL:458:CG2:4087, V-A:LYS:547:CG:4948, V-A:LYS:547:CD:4949, V-A:HIS:456:C:4061, V-A:VAL:457:C:4073, V-A:HIS:456:CA:4063, V-A:LYS:547:CB:4947, V-A:ARG:545:C:4917"]

$$$$
4dd_Grossjean_2025
     RDKit          3D

 43 46  0  0  0  0  0  0  0  0999 V2000
  128.5450  126.7790   68.2700 C   0  0  0  0  0  0  0  0  0  0  0  0
  128.4720  127.1080   66.7860 C   0  0  0  0  0  0  0  0  0  0  0  0
  127.9380  128.3470   66.4100 C   0  0  0  0  0  0  0  0  0  0  0  0
  127.8440  128.7100   65.0610 C   0  0  0  0  0  0  0  0  0  0  0  0
  127.2710  130.0270   64.6290 C   0  0  0  0  0  0  0  0  0  0  0  0
  128.0730  131.1790   64.5800 C   0  0  0  0  0  0  0  0  0  0  0  0
  127.5490  132.4050   64.1760 C   0  0  0  0  0  0  0  0  0  0  0  0
  126.2090  132.4960   63.8170 C   0  0  0  0  0  0  0  0  0  0  0  0
  125.3920  131.3720   63.8540 C   0  0  0  0  0  0  0  0  0  0  0  0
  125.9210  130.1480   64.2560 C   0  0  0  0  0  0  0  0  0  0  0  0
  128.2510  127.8790   64.0630 N   0  0  0  0  0  0  0  0  0  0  0  0
  128.7650  126.7020   64.4200 C   0  0  0  0  0  0  0  0  0  0  0  0
  129.3430  125.5460   63.2410 S   0  0  0  0  0  0  0  0  0  0  0  0
  129.8020  124.4100   64.5120 C   0  0  0  0  0  0  0  0  0  0  0  0
  130.4190  123.1260   64.1710 C   0  0  0  0  0  0  0  0  0  0  0  0
  130.8960  122.4060   65.0490 O   0  0  0  0  0  0  0  0  0  0  0  0
  130.4100  122.8100   62.8530 N   0  0  0  0  0  0  0  0  0  0  0  0
  130.9590  121.6940   62.1950 C   0  0  0  0  0  0  0  0  0  0  0  0
  132.3110  121.7920   61.8510 C   0  0  0  0  0  0  0  0  0  0  0  0
  132.9500  120.7340   61.2100 C   0  0  0  0  0  0  0  0  0  0  0  0
  132.2390  119.5730   60.9180 C   0  0  0  0  0  0  0  0  0  0  0  0
  130.8960  119.4580   61.2660 C   0  0  0  0  0  0  0  0  0  0  0  0
  130.2540  120.5140   61.9070 C   0  0  0  0  0  0  0  0  0  0  0  0
  129.5040  124.9260   65.7820 C   0  0  0  0  0  0  0  0  0  0  0  0
  129.7480  124.2550   66.9550 N   0  0  0  0  0  0  0  0  0  0  0  0
  128.9120  126.2370   65.7570 C   0  0  0  0  0  0  0  0  0  0  0  0
  128.3435  127.6871   68.8572 H   0  0  0  0  0  0  0  0  0  0  0  0
  127.7953  126.0115   68.5127 H   0  0  0  0  0  0  0  0  0  0  0  0
  129.5489  126.4006   68.5127 H   0  0  0  0  0  0  0  0  0  0  0  0
  127.5877  129.0445   67.1851 H   0  0  0  0  0  0  0  0  0  0  0  0
  129.1332  131.1120   64.8656 H   0  0  0  0  0  0  0  0  0  0  0  0
  128.1923  133.2966   64.1412 H   0  0  0  0  0  0  0  0  0  0  0  0
  125.7925  133.4640   63.5015 H   0  0  0  0  0  0  0  0  0  0  0  0
  124.3328  131.4489   63.5672 H   0  0  0  0  0  0  0  0  0  0  0  0
  125.2713  129.2607   64.2821 H   0  0  0  0  0  0  0  0  0  0  0  0
  129.9300  123.4570   62.2440 H   0  0  0  0  0  0  0  0  0  0  0  0
  132.8716  122.7083   62.0877 H   0  0  0  0  0  0  0  0  0  0  0  0
  134.0121  120.8150   60.9354 H   0  0  0  0  0  0  0  0  0  0  0  0
  132.7431  118.7391   60.4077 H   0  0  0  0  0  0  0  0  0  0  0  0
  130.3435  118.5352   61.0351 H   0  0  0  0  0  0  0  0  0  0  0  0
  129.1943  120.4241   62.1880 H   0  0  0  0  0  0  0  0  0  0  0  0
  129.1200  124.3140   67.7440 H   0  0  0  0  0  0  0  0  0  0  0  0
  130.5680  123.6750   67.0660 H   0  0  0  0  0  0  0  0  0  0  0  0
  1  2  1  0
  2  3  2  0
  3  4  1  0
  4  5  1  0
  5  6  2  0
  6  7  1  0
  7  8  2  0
  8  9  1  0
  9 10  2  0
  4 11  2  0
 11 12  1  0
 12 13  1  0
 13 14  1  0
 14 15  1  0
 15 16  2  0
 15 17  1  0
 17 18  1  0
 18 19  2  0
 19 20  1  0
 20 21  2  0
 21 22  1  0
 22 23  2  0
 14 24  2  0
 24 25  1  0
 24 26  1  0
 26  2  1  0
 10  5  1  0
 26 12  2  0
 23 18  1  0
  1 27  1  0
  1 28  1  0
  1 29  1  0
  3 30  1  0
  6 31  1  0
  7 32  1  0
  8 33  1  0
  9 34  1  0
 10 35  1  0
 17 36  1  0
 19 37  1  0
 20 38  1  0
 21 39  1  0
 22 40  1  0
 23 41  1  0
 25 42  1  0
 25 43  1  0
M  END
>  <Binding energies>  (1) 
[-7.22]

>  <Ligand effiencies>  (1) 
[-0.2489655172413793]

>  <Interactions>  (1) 
["V-B:GLU:543:CA:9876, V-A:GLU:543:CD:4908, V-B:GLU:543:CD:9880, V-A:LEU:475:CD1:4258, V-B:GLU:543:CB:9878, H-A:TYR:484:OH:4348, V-A:TYR:484:CZ:4347, V-B:GLU:543:C:9874, V-A:TYR:484:CE1:4345, V-B:HIS:456:CE1:9040, V-A:HIS:456:CE1:4069, V-B:GLU:543:CG:9879, V-A:ALA:541:CB:4892, V-A:GLU:543:CB:4906, V-B:ALA:541:CB:9864, V-B:LEU:475:CD1:9229, V-A:ILE:369:CD1:3239, V-A:TRP:381:CZ2:3370, V-A:PRO:482:CG:4327, V-A:PRO:482:CB:4326, V-A:TRP:381:CH2:3372, H-B:GLU:543:O:9875, V-B:LEU:475:CG:9228"]

$$$$
4dg_Grossjean_2025
     RDKit          3D

 46 49  0  0  0  0  0  0  0  0999 V2000
  127.9370  126.5620   68.4220 C   0  0  0  0  0  0  0  0  0  0  0  0
  128.0210  127.0070   66.9700 C   0  0  0  0  0  0  0  0  0  0  0  0
  127.2980  128.1420   66.5840 C   0  0  0  0  0  0  0  0  0  0  0  0
  127.3340  128.6030   65.2620 C   0  0  0  0  0  0  0  0  0  0  0  0
  126.5700  129.8190   64.8190 C   0  0  0  0  0  0  0  0  0  0  0  0
  127.2420  130.9730   64.3860 C   0  0  0  0  0  0  0  0  0  0  0  0
  126.5390  132.1050   63.9780 C   0  0  0  0  0  0  0  0  0  0  0  0
  125.1490  132.0970   63.9950 C   0  0  0  0  0  0  0  0  0  0  0  0
  124.4570  130.9670   64.4230 C   0  0  0  0  0  0  0  0  0  0  0  0
  125.1640  129.8400   64.8310 C   0  0  0  0  0  0  0  0  0  0  0  0
  128.0800  127.9850   64.3070 N   0  0  0  0  0  0  0  0  0  0  0  0
  128.7680  126.9040   64.6720 C   0  0  0  0  0  0  0  0  0  0  0  0
  129.7610  126.0130   63.5430 S   0  0  0  0  0  0  0  0  0  0  0  0
  130.2380  124.8690   64.7970 C   0  0  0  0  0  0  0  0  0  0  0  0
  131.1110  123.7430   64.4710 C   0  0  0  0  0  0  0  0  0  0  0  0
  131.2590  122.7980   65.2500 O   0  0  0  0  0  0  0  0  0  0  0  0
  131.7650  123.8260   63.2940 N   0  0  0  0  0  0  0  0  0  0  0  0
  132.6690  122.8110   62.7540 C   0  0  0  0  0  0  0  0  0  0  0  0
  131.9460  121.6690   62.0490 C   0  0  0  0  0  0  0  0  0  0  0  0
  130.5580  121.5460   62.1700 C   0  0  0  0  0  0  0  0  0  0  0  0
  129.8900  120.5240   61.5020 C   0  0  0  0  0  0  0  0  0  0  0  0
  130.6090  119.6340   60.7060 C   0  0  0  0  0  0  0  0  0  0  0  0
  131.9900  119.7610   60.5680 C   0  0  0  0  0  0  0  0  0  0  0  0
  132.6580  120.7840   61.2350 C   0  0  0  0  0  0  0  0  0  0  0  0
  129.6300  125.1750   66.0240 C   0  0  0  0  0  0  0  0  0  0  0  0
  129.8120  124.4430   67.1700 N   0  0  0  0  0  0  0  0  0  0  0  0
  128.7930  126.3440   65.9810 C   0  0  0  0  0  0  0  0  0  0  0  0
  128.1004  127.4276   69.0808 H   0  0  0  0  0  0  0  0  0  0  0  0
  126.9424  126.1349   68.6176 H   0  0  0  0  0  0  0  0  0  0  0  0
  128.7075  125.8017   68.6176 H   0  0  0  0  0  0  0  0  0  0  0  0
  126.6932  128.6792   67.3294 H   0  0  0  0  0  0  0  0  0  0  0  0
  128.3418  130.9839   64.3685 H   0  0  0  0  0  0  0  0  0  0  0  0
  127.0819  133.0014   63.6438 H   0  0  0  0  0  0  0  0  0  0  0  0
  124.5928  132.9881   63.6686 H   0  0  0  0  0  0  0  0  0  0  0  0
  123.3571  130.9652   64.4385 H   0  0  0  0  0  0  0  0  0  0  0  0
  124.6133  128.9498   65.1689 H   0  0  0  0  0  0  0  0  0  0  0  0
  131.5350  124.5890   62.6740 H   0  0  0  0  0  0  0  0  0  0  0  0
  133.3444  123.2941   62.0326 H   0  0  0  0  0  0  0  0  0  0  0  0
  133.2125  122.3747   63.6050 H   0  0  0  0  0  0  0  0  0  0  0  0
  129.9947  122.2566   62.7927 H   0  0  0  0  0  0  0  0  0  0  0  0
  128.7996  120.4191   61.6018 H   0  0  0  0  0  0  0  0  0  0  0  0
  130.0814  118.8236   60.1817 H   0  0  0  0  0  0  0  0  0  0  0  0
  132.5494  119.0563   59.9351 H   0  0  0  0  0  0  0  0  0  0  0  0
  133.7464  120.8958   61.1213 H   0  0  0  0  0  0  0  0  0  0  0  0
  130.6320  123.8730   67.3150 H   0  0  0  0  0  0  0  0  0  0  0  0
  129.1280  124.4570   67.9140 H   0  0  0  0  0  0  0  0  0  0  0  0
  1  2  1  0
  2  3  2  0
  3  4  1  0
  4  5  1  0
  5  6  2  0
  6  7  1  0
  7  8  2  0
  8  9  1  0
  9 10  2  0
  4 11  2  0
 11 12  1  0
 12 13  1  0
 13 14  1  0
 14 15  1  0
 15 16  2  0
 15 17  1  0
 17 18  1  0
 18 19  1  0
 19 20  2  0
 20 21  1  0
 21 22  2  0
 22 23  1  0
 23 24  2  0
 14 25  2  0
 25 26  1  0
 25 27  1  0
 27  2  1  0
 10  5  1  0
 27 12  2  0
 24 19  1  0
  1 28  1  0
  1 29  1  0
  1 30  1  0
  3 31  1  0
  6 32  1  0
  7 33  1  0
  8 34  1  0
  9 35  1  0
 10 36  1  0
 17 37  1  0
 18 38  1  0
 18 39  1  0
 20 40  1  0
 21 41  1  0
 22 42  1  0
 23 43  1  0
 24 44  1  0
 26 45  1  0
 26 46  1  0
M  END
>  <Binding energies>  (1) 
[-7.41]

>  <Ligand effiencies>  (1) 
[-0.247]

>  <Interactions>  (1) 
["V-B:GLU:543:CA:9876, V-A:GLU:543:CD:4908, V-B:GLU:543:CD:9880, V-B:TYR:539:CD2:9846, V-A:LEU:475:CD1:4258, V-B:GLU:543:CB:9878, H-A:TYR:484:OH:4348, V-A:TYR:484:CZ:4347, V-B:GLU:543:C:9874, V-A:TYR:484:CE1:4345, V-B:HIS:456:CE1:9040, V-B:TYR:539:CE2:9848, V-A:HIS:456:CE1:4069, V-B:GLU:543:CG:9879, V-B:ARG:545:CZ:9898, V-B:ALA:541:CB:9864, V-B:LEU:475:CD1:9229, V-B:GLY:454:CA:9020, V-A:TRP:381:CZ2:3370, V-A:PRO:482:CG:4327, V-A:TRP:381:CH2:3372, H-B:GLU:543:O:9875"]

$$$$
4dj_Grossjean_2025
     RDKit          3D

 39 42  0  0  0  0  0  0  0  0999 V2000
  129.4030  125.2990   64.9060 C   0  0  0  0  0  0  0  0  0  0  0  0
  128.8960  126.4640   65.7430 C   0  0  0  0  0  0  0  0  0  0  0  0
  128.3910  127.5850   65.0740 C   0  0  0  0  0  0  0  0  0  0  0  0
  127.9110  128.6910   65.7860 C   0  0  0  0  0  0  0  0  0  0  0  0
  127.3570  129.9050   65.0960 C   0  0  0  0  0  0  0  0  0  0  0  0
  126.0300  129.9320   64.6380 C   0  0  0  0  0  0  0  0  0  0  0  0
  125.5100  131.0540   63.9980 C   0  0  0  0  0  0  0  0  0  0  0  0
  126.3170  132.1700   63.8010 C   0  0  0  0  0  0  0  0  0  0  0  0
  127.6360  132.1700   64.2400 C   0  0  0  0  0  0  0  0  0  0  0  0
  128.1510  131.0470   64.8810 C   0  0  0  0  0  0  0  0  0  0  0  0
  127.8980  128.7200   67.1470 N   0  0  0  0  0  0  0  0  0  0  0  0
  128.3800  127.6540   67.7840 C   0  0  0  0  0  0  0  0  0  0  0  0
  128.4310  127.5610   69.5300 S   0  0  0  0  0  0  0  0  0  0  0  0
  129.1500  125.9500   69.4710 C   0  0  0  0  0  0  0  0  0  0  0  0
  129.4830  125.2420   70.7070 C   0  0  0  0  0  0  0  0  0  0  0  0
  129.6220  125.8580   71.7680 O   0  0  0  0  0  0  0  0  0  0  0  0
  129.6300  123.9000   70.5900 N   0  0  0  0  0  0  0  0  0  0  0  0
  129.9460  123.0030   71.6010 C   0  0  0  0  0  0  0  0  0  0  0  0
  129.3090  121.8990   71.9300 N   0  0  0  0  0  0  0  0  0  0  0  0
  129.8900  121.2890   72.9440 C   0  0  0  0  0  0  0  0  0  0  0  0
  131.0280  121.9000   73.4620 C   0  0  0  0  0  0  0  0  0  0  0  0
  131.3450  123.3540   72.5640 S   0  0  0  0  0  0  0  0  0  0  0  0
  129.3350  125.5280   68.1450 C   0  0  0  0  0  0  0  0  0  0  0  0
  129.8790  124.3170   67.7990 N   0  0  0  0  0  0  0  0  0  0  0  0
  128.9000  126.4830   67.1620 C   0  0  0  0  0  0  0  0  0  0  0  0
  129.7529  124.4951   65.5703 H   0  0  0  0  0  0  0  0  0  0  0  0
  128.5878  124.9214   64.2713 H   0  0  0  0  0  0  0  0  0  0  0  0
  130.2349  125.6382   64.2713 H   0  0  0  0  0  0  0  0  0  0  0  0
  128.3710  127.5973   63.9743 H   0  0  0  0  0  0  0  0  0  0  0  0
  125.3893  129.0504   64.7875 H   0  0  0  0  0  0  0  0  0  0  0  0
  124.4665  131.0580   63.6500 H   0  0  0  0  0  0  0  0  0  0  0  0
  125.9090  133.0574   63.2950 H   0  0  0  0  0  0  0  0  0  0  0  0
  128.2705  133.0544   64.0813 H   0  0  0  0  0  0  0  0  0  0  0  0
  129.1957  131.0521   65.2252 H   0  0  0  0  0  0  0  0  0  0  0  0
  129.5030  123.4980   69.6730 H   0  0  0  0  0  0  0  0  0  0  0  0
  129.4969  120.3487   73.3579 H   0  0  0  0  0  0  0  0  0  0  0  0
  131.6291  121.5239   74.3030 H   0  0  0  0  0  0  0  0  0  0  0  0
  130.8270  124.2330   67.4630 H   0  0  0  0  0  0  0  0  0  0  0  0
  129.3430  123.4620   67.8690 H   0  0  0  0  0  0  0  0  0  0  0  0
  1  2  1  0
  2  3  2  0
  3  4  1  0
  4  5  1  0
  5  6  2  0
  6  7  1  0
  7  8  2  0
  8  9  1  0
  9 10  2  0
  4 11  2  0
 11 12  1  0
 12 13  1  0
 13 14  1  0
 14 15  1  0
 15 16  2  0
 15 17  1  0
 17 18  1  0
 18 19  2  0
 19 20  1  0
 20 21  2  0
 21 22  1  0
 14 23  2  0
 23 24  1  0
 23 25  1  0
 25  2  1  0
 10  5  1  0
 25 12  2  0
 22 18  1  0
  1 26  1  0
  1 27  1  0
  1 28  1  0
  3 29  1  0
  6 30  1  0
  7 31  1  0
  8 32  1  0
  9 33  1  0
 10 34  1  0
 17 35  1  0
 20 36  1  0
 21 37  1  0
 24 38  1  0
 24 39  1  0
M  END
>  <Binding energies>  (1) 
[-8.03]

>  <Ligand effiencies>  (1) 
[-0.28678571428571425]

>  <Interactions>  (1) 
["H-A:HIS:456:NE2:4070, V-B:GLU:543:CA:9876, V-A:GLU:543:CD:4908, V-A:HIS:456:CD2:4068, V-B:GLU:543:CD:9880, V-B:GLU:543:CB:9878, H-A:TYR:484:OH:4348, V-A:TYR:484:CZ:4347, V-B:GLU:543:C:9874, V-A:TYR:484:CE1:4345, V-B:HIS:456:CE1:9040, V-A:HIS:456:CE1:4069, V-B:GLU:543:CG:9879, V-A:ALA:541:CB:4892, V-A:GLU:543:CB:4906, H-B:LYS:547:NZ:9923, V-B:LEU:475:CD1:9229, H-B:GLU:543:O:9875, V-A:TYR:484:CG:4342, V-A:TYR:484:CE2:4346, V-A:HIS:456:CG:4066, V-A:TYR:484:CD1:4343, V-A:TYR:484:CD2:4344, V-A:HIS:456:CB:4065, V-A:ASP:473:CG:4240, V-B:LYS:547:CE:9922, V-A:ASP:473:CB:4239, H-A:HIS:456:ND1:4067, V-A:TYR:484:CB:4341"]

$$$$
4ea_Grossjean_2025
     RDKit          3D

 52 55  0  0  0  0  0  0  0  0999 V2000
  124.5200  127.1690   73.8950 C   0  0  0  0  0  0  0  0  0  0  0  0
  125.9890  127.5990   73.9310 C   0  0  0  0  0  0  0  0  0  0  0  0
  126.6270  127.1990   72.7260 O   0  0  0  0  0  0  0  0  0  0  0  0
  127.6790  126.3400   72.7400 C   0  0  0  0  0  0  0  0  0  0  0  0
  128.1020  125.8010   73.7670 O   0  0  0  0  0  0  0  0  0  0  0  0
  128.2760  126.1120   71.3810 C   0  0  0  0  0  0  0  0  0  0  0  0
  129.2840  125.1510   71.2310 C   0  0  0  0  0  0  0  0  0  0  0  0
  129.8580  124.9150   69.9850 C   0  0  0  0  0  0  0  0  0  0  0  0
  129.4380  125.6330   68.8650 C   0  0  0  0  0  0  0  0  0  0  0  0
  130.0890  125.3110   67.6580 N   0  0  0  0  0  0  0  0  0  0  0  0
  129.7610  125.6080   66.3770 C   0  0  0  0  0  0  0  0  0  0  0  0
  128.7660  126.2550   66.0470 O   0  0  0  0  0  0  0  0  0  0  0  0
  130.6870  125.0990   65.3610 C   0  0  0  0  0  0  0  0  0  0  0  0
  132.4240  125.3750   65.5180 S   0  0  0  0  0  0  0  0  0  0  0  0
  132.7440  124.5180   64.0280 C   0  0  0  0  0  0  0  0  0  0  0  0
  133.9810  124.3660   63.5540 N   0  0  0  0  0  0  0  0  0  0  0  0
  134.0930  123.6810   62.3890 C   0  0  0  0  0  0  0  0  0  0  0  0
  135.5090  123.5190   61.8680 C   0  0  0  0  0  0  0  0  0  0  0  0
  133.0080  123.1510   61.6940 C   0  0  0  0  0  0  0  0  0  0  0  0
  131.7120  123.3130   62.1950 C   0  0  0  0  0  0  0  0  0  0  0  0
  130.5700  122.7440   61.4450 C   0  0  0  0  0  0  0  0  0  0  0  0
  130.3150  121.3700   61.4880 C   0  0  0  0  0  0  0  0  0  0  0  0
  129.2390  120.8340   60.7860 C   0  0  0  0  0  0  0  0  0  0  0  0
  128.4190  121.6740   60.0350 C   0  0  0  0  0  0  0  0  0  0  0  0
  128.6660  123.0430   59.9810 C   0  0  0  0  0  0  0  0  0  0  0  0
  129.7430  123.5770   60.6850 C   0  0  0  0  0  0  0  0  0  0  0  0
  131.5520  124.0260   63.4150 C   0  0  0  0  0  0  0  0  0  0  0  0
  130.3930  124.3710   64.1970 C   0  0  0  0  0  0  0  0  0  0  0  0
  129.1240  124.0130   63.8220 N   0  0  0  0  0  0  0  0  0  0  0  0
  128.4290  126.5980   69.0060 C   0  0  0  0  0  0  0  0  0  0  0  0
  127.8560  126.8330   70.2530 C   0  0  0  0  0  0  0  0  0  0  0  0
  124.1448  127.0592   74.9232 H   0  0  0  0  0  0  0  0  0  0  0  0
  123.9276  127.9314   73.3680 H   0  0  0  0  0  0  0  0  0  0  0  0
  124.4322  126.2075   73.3680 H   0  0  0  0  0  0  0  0  0  0  0  0
  126.0490  128.6927   74.0326 H   0  0  0  0  0  0  0  0  0  0  0  0
  126.4901  127.1243   74.7875 H   0  0  0  0  0  0  0  0  0  0  0  0
  129.6250  124.5777   72.1056 H   0  0  0  0  0  0  0  0  0  0  0  0
  130.6485  124.1569   69.8827 H   0  0  0  0  0  0  0  0  0  0  0  0
  130.9330  124.7720   67.7810 H   0  0  0  0  0  0  0  0  0  0  0  0
  136.2049  123.4394   62.7162 H   0  0  0  0  0  0  0  0  0  0  0  0
  135.5722  122.6078   61.2551 H   0  0  0  0  0  0  0  0  0  0  0  0
  135.7764  124.3924   61.2551 H   0  0  0  0  0  0  0  0  0  0  0  0
  133.1703  122.6058   60.7525 H   0  0  0  0  0  0  0  0  0  0  0  0
  130.9671  120.7100   62.0788 H   0  0  0  0  0  0  0  0  0  0  0  0
  129.0371  119.7533   60.8239 H   0  0  0  0  0  0  0  0  0  0  0  0
  127.5687  121.2514   59.4797 H   0  0  0  0  0  0  0  0  0  0  0  0
  128.0143  123.6995   59.3857 H   0  0  0  0  0  0  0  0  0  0  0  0
  129.9436  124.6577   60.6429 H   0  0  0  0  0  0  0  0  0  0  0  0
  128.9420  123.1700   63.2940 H   0  0  0  0  0  0  0  0  0  0  0  0
  128.3230  124.5820   64.0620 H   0  0  0  0  0  0  0  0  0  0  0  0
  128.0901  127.1699   68.1296 H   0  0  0  0  0  0  0  0  0  0  0  0
  127.0660  127.5916   70.3549 H   0  0  0  0  0  0  0  0  0  0  0  0
  1  2  1  0
  2  3  1  0
  3  4  1  0
  4  5  2  0
  4  6  1  0
  6  7  2  0
  7  8  1  0
  8  9  2  0
  9 10  1  0
 10 11  1  0
 11 12  2  0
 11 13  1  0
 13 14  1  0
 14 15  1  0
 15 16  2  0
 16 17  1  0
 17 18  1  0
 17 19  2  0
 19 20  1  0
 20 21  1  0
 21 22  2  0
 22 23  1  0
 23 24  2  0
 24 25  1  0
 25 26  2  0
 20 27  2  0
 27 28  1  0
 28 29  1  0
  9 30  1  0
 30 31  2  0
 31  6  1  0
 28 13  2  0
 27 15  1  0
 26 21  1  0
  1 32  1  0
  1 33  1  0
  1 34  1  0
  2 35  1  0
  2 36  1  0
  7 37  1  0
  8 38  1  0
 10 39  1  0
 18 40  1  0
 18 41  1  0
 18 42  1  0
 19 43  1  0
 22 44  1  0
 23 45  1  0
 24 46  1  0
 25 47  1  0
 26 48  1  0
 29 49  1  0
 29 50  1  0
 30 51  1  0
 31 52  1  0
M  END
>  <Binding energies>  (1) 
[-8.43]

>  <Ligand effiencies>  (1) 
[-0.24794117647058822]

>  <Interactions>  (1) 
["V-A:HIS:456:CD2:4068, V-B:GLU:543:CD:9880, V-B:TYR:539:CD2:9846, V-B:GLU:543:CB:9878, H-A:TYR:484:OH:4348, V-A:TYR:484:CZ:4347, V-A:TYR:484:CE1:4345, V-B:HIS:456:CE1:9040, V-B:TYR:539:CE2:9848, V-A:HIS:456:CE1:4069, V-B:GLU:543:CG:9879, V-B:PRO:540:CA:9855, V-B:GLY:544:C:9884, V-B:ALA:541:CB:9864, H-B:LYS:547:NZ:9923, V-B:TYR:539:C:9839, V-B:PRO:540:C:9853, V-B:PRO:540:N:9856, V-A:ILE:369:CD1:3239, V-A:GLY:453:CA:4044, V-A:GLY:454:CA:4049, V-A:GLY:453:C:4042, H-A:GLY:454:N:4050, V-B:ALA:541:CA:9862, H-B:GLU:543:OE2:9882, H-B:GLU:543:OE1:9881, V-B:HIS:456:CG:9037, V-A:HIS:456:CG:4066, H-A:HIS:456:ND1:4067, V-B:HIS:456:CB:9036, V-B:ARG:545:C:9889, V-B:HIS:456:CA:9034"]

$$$$
4eb_Grossjean_2025
     RDKit          3D

 49 52  0  0  0  0  0  0  0  0999 V2000
  125.6670  127.2420   73.6030 C   0  0  0  0  0  0  0  0  0  0  0  0
  126.7700  127.3340   72.7130 O   0  0  0  0  0  0  0  0  0  0  0  0
  127.7460  126.3900   72.7100 C   0  0  0  0  0  0  0  0  0  0  0  0
  128.1090  125.7840   73.7220 O   0  0  0  0  0  0  0  0  0  0  0  0
  128.3410  126.1560   71.3500 C   0  0  0  0  0  0  0  0  0  0  0  0
  129.3040  125.1510   71.1890 C   0  0  0  0  0  0  0  0  0  0  0  0
  129.8730  124.9100   69.9430 C   0  0  0  0  0  0  0  0  0  0  0  0
  129.4940  125.6650   68.8330 C   0  0  0  0  0  0  0  0  0  0  0  0
  130.1350  125.3330   67.6230 N   0  0  0  0  0  0  0  0  0  0  0  0
  129.7790  125.5900   66.3410 C   0  0  0  0  0  0  0  0  0  0  0  0
  128.7600  126.1990   66.0130 O   0  0  0  0  0  0  0  0  0  0  0  0
  130.7030  125.0850   65.3220 C   0  0  0  0  0  0  0  0  0  0  0  0
  132.4380  125.3760   65.4690 S   0  0  0  0  0  0  0  0  0  0  0  0
  132.7570  124.5170   63.9790 C   0  0  0  0  0  0  0  0  0  0  0  0
  133.9930  124.3730   63.4990 N   0  0  0  0  0  0  0  0  0  0  0  0
  134.1050  123.6860   62.3370 C   0  0  0  0  0  0  0  0  0  0  0  0
  135.5210  123.5350   61.8090 C   0  0  0  0  0  0  0  0  0  0  0  0
  133.0220  123.1450   61.6490 C   0  0  0  0  0  0  0  0  0  0  0  0
  131.7260  123.2980   62.1560 C   0  0  0  0  0  0  0  0  0  0  0  0
  130.5840  122.7170   61.4140 C   0  0  0  0  0  0  0  0  0  0  0  0
  130.3480  121.3400   61.4550 C   0  0  0  0  0  0  0  0  0  0  0  0
  129.2720  120.7930   60.7580 C   0  0  0  0  0  0  0  0  0  0  0  0
  128.4350  121.6250   60.0180 C   0  0  0  0  0  0  0  0  0  0  0  0
  128.6650  122.9980   59.9690 C   0  0  0  0  0  0  0  0  0  0  0  0
  129.7390  123.5430   60.6660 C   0  0  0  0  0  0  0  0  0  0  0  0
  131.5660  124.0130   63.3750 C   0  0  0  0  0  0  0  0  0  0  0  0
  130.4100  124.3520   64.1620 C   0  0  0  0  0  0  0  0  0  0  0  0
  129.1400  123.9820   63.7950 N   0  0  0  0  0  0  0  0  0  0  0  0
  128.5300  126.6740   68.9840 C   0  0  0  0  0  0  0  0  0  0  0  0
  127.9610  126.9140   70.2320 C   0  0  0  0  0  0  0  0  0  0  0  0
  126.0299  127.2723   74.6410 H   0  0  0  0  0  0  0  0  0  0  0  0
  124.9838  128.0863   73.4287 H   0  0  0  0  0  0  0  0  0  0  0  0
  125.1331  126.2962   73.4287 H   0  0  0  0  0  0  0  0  0  0  0  0
  129.6126  124.5475   72.0554 H   0  0  0  0  0  0  0  0  0  0  0  0
  130.6279  124.1177   69.8320 H   0  0  0  0  0  0  0  0  0  0  0  0
  130.9970  124.8230   67.7440 H   0  0  0  0  0  0  0  0  0  0  0  0
  136.2214  123.4603   62.6539 H   0  0  0  0  0  0  0  0  0  0  0  0
  135.5884  122.6246   61.1953 H   0  0  0  0  0  0  0  0  0  0  0  0
  135.7788  124.4107   61.1953 H   0  0  0  0  0  0  0  0  0  0  0  0
  133.1845  122.5982   60.7085 H   0  0  0  0  0  0  0  0  0  0  0  0
  131.0130  120.6864   62.0387 H   0  0  0  0  0  0  0  0  0  0  0  0
  129.0847  119.7096   60.7921 H   0  0  0  0  0  0  0  0  0  0  0  0
  127.5854  121.1943   59.4678 H   0  0  0  0  0  0  0  0  0  0  0  0
  128.0004  123.6487   59.3818 H   0  0  0  0  0  0  0  0  0  0  0  0
  129.9239  124.6267   60.6285 H   0  0  0  0  0  0  0  0  0  0  0  0
  128.3330  124.5340   64.0470 H   0  0  0  0  0  0  0  0  0  0  0  0
  128.9700  123.1420   63.2580 H   0  0  0  0  0  0  0  0  0  0  0  0
  128.2237  127.2757   68.1156 H   0  0  0  0  0  0  0  0  0  0  0  0
  127.2057  127.7061   70.3426 H   0  0  0  0  0  0  0  0  0  0  0  0
  1  2  1  0
  2  3  1  0
  3  4  2  0
  3  5  1  0
  5  6  2  0
  6  7  1  0
  7  8  2  0
  8  9  1  0
  9 10  1  0
 10 11  2  0
 10 12  1  0
 12 13  1  0
 13 14  1  0
 14 15  2  0
 15 16  1  0
 16 17  1  0
 16 18  2  0
 18 19  1  0
 19 20  1  0
 20 21  2  0
 21 22  1  0
 22 23  2  0
 23 24  1  0
 24 25  2  0
 19 26  2  0
 26 27  1  0
 27 28  1  0
  8 29  1  0
 29 30  2  0
 30  5  1  0
 27 12  2  0
 26 14  1  0
 25 20  1  0
  1 31  1  0
  1 32  1  0
  1 33  1  0
  6 34  1  0
  7 35  1  0
  9 36  1  0
 17 37  1  0
 17 38  1  0
 17 39  1  0
 18 40  1  0
 21 41  1  0
 22 42  1  0
 23 43  1  0
 24 44  1  0
 25 45  1  0
 28 46  1  0
 28 47  1  0
 29 48  1  0
 30 49  1  0
M  END
>  <Binding energies>  (1) 
[-8.07]

>  <Ligand effiencies>  (1) 
[-0.24454545454545457]

>  <Interactions>  (1) 
["V-A:HIS:456:CD2:4068, V-B:GLU:543:CD:9880, V-B:TYR:539:CD2:9846, V-B:GLU:543:CB:9878, H-A:TYR:484:OH:4348, V-A:TYR:484:CZ:4347, V-A:TYR:484:CE1:4345, V-B:HIS:456:CE1:9040, V-B:TYR:539:CE2:9848, V-A:HIS:456:CE1:4069, V-B:GLU:543:CG:9879, V-B:PRO:540:CA:9855, V-B:GLY:544:C:9884, V-B:ALA:541:CB:9864, H-B:LYS:547:NZ:9923, V-B:TYR:539:C:9839, V-B:PRO:540:C:9853, V-B:PRO:540:N:9856, V-A:ILE:369:CD1:3239, V-A:GLY:453:CA:4044, V-A:GLY:454:CA:4049, V-A:GLY:453:C:4042, H-A:GLY:454:N:4050, H-B:GLU:543:OE2:9882, H-B:GLU:543:OE1:9881, V-B:HIS:456:CG:9037, V-A:HIS:456:CG:4066, H-A:HIS:456:ND1:4067, V-B:HIS:456:CB:9036"]

$$$$
8a_Ghoteimi_2023
     RDKit          3D

 67 71  0  0  0  0  0  0  0  0999 V2000
  133.2200  130.9850   57.3330 C   0  0  0  0  0  0  0  0  0  0  0  0
  132.5280  132.0970   56.5400 C   0  0  0  0  0  0  0  0  0  0  0  0
  131.1740  131.7360   56.3020 O   0  0  0  0  0  0  0  0  0  0  0  0
  130.1620  132.2970   57.0150 C   0  0  0  0  0  0  0  0  0  0  0  0
  129.4810  133.2410   56.6000 O   0  0  0  0  0  0  0  0  0  0  0  0
  129.9580  131.6610   58.3590 C   0  0  0  0  0  0  0  0  0  0  0  0
  130.2260  130.2950   58.5160 C   0  0  0  0  0  0  0  0  0  0  0  0
  130.0460  129.6760   59.7500 C   0  0  0  0  0  0  0  0  0  0  0  0
  129.5940  130.4050   60.8500 C   0  0  0  0  0  0  0  0  0  0  0  0
  129.4450  129.6730   62.0450 N   0  0  0  0  0  0  0  0  0  0  0  0
  128.3240  129.2390   62.6730 C   0  0  0  0  0  0  0  0  0  0  0  0
  127.1800  129.4370   62.2650 O   0  0  0  0  0  0  0  0  0  0  0  0
  128.5530  128.4860   63.9100 C   0  0  0  0  0  0  0  0  0  0  0  0
  127.6800  128.9050   65.3830 S   0  0  0  0  0  0  0  0  0  0  0  0
  128.4910  127.6420   66.2790 C   0  0  0  0  0  0  0  0  0  0  0  0
  128.2580  127.4440   67.5760 N   0  0  0  0  0  0  0  0  0  0  0  0
  128.9470  126.4390   68.1800 C   0  0  0  0  0  0  0  0  0  0  0  0
  128.6840  126.2470   69.6390 C   0  0  0  0  0  0  0  0  0  0  0  0
  127.8150  127.0980   70.3360 C   0  0  0  0  0  0  0  0  0  0  0  0
  127.5840  126.9220   71.6980 C   0  0  0  0  0  0  0  0  0  0  0  0
  128.2120  125.8910   72.3950 C   0  0  0  0  0  0  0  0  0  0  0  0
  127.9250  125.7940   73.7430 O   0  0  0  0  0  0  0  0  0  0  0  0
  126.8660  126.5770   74.2850 C   0  0  0  0  0  0  0  0  0  0  0  0
  129.0780  125.0310   71.7060 C   0  0  0  0  0  0  0  0  0  0  0  0
  129.3100  125.2110   70.3450 C   0  0  0  0  0  0  0  0  0  0  0  0
  129.8550  125.6360   67.4870 C   0  0  0  0  0  0  0  0  0  0  0  0
  130.0900  125.8300   66.1220 C   0  0  0  0  0  0  0  0  0  0  0  0
  131.0420  124.9260   65.4260 C   0  0  0  0  0  0  0  0  0  0  0  0
  130.6020  123.7080   64.9040 C   0  0  0  0  0  0  0  0  0  0  0  0
  131.4860  122.8680   64.2340 C   0  0  0  0  0  0  0  0  0  0  0  0
  132.8230  123.2320   64.0680 C   0  0  0  0  0  0  0  0  0  0  0  0
  133.6260  122.3360   63.3900 O   0  0  0  0  0  0  0  0  0  0  0  0
  134.0270  122.6340   62.0580 C   0  0  0  0  0  0  0  0  0  0  0  0
  133.2660  124.4590   64.5850 C   0  0  0  0  0  0  0  0  0  0  0  0
  132.3780  125.2990   65.2540 C   0  0  0  0  0  0  0  0  0  0  0  0
  129.3970  126.8910   65.4740 C   0  0  0  0  0  0  0  0  0  0  0  0
  129.4260  127.4080   64.1280 C   0  0  0  0  0  0  0  0  0  0  0  0
  130.2500  126.8940   63.1580 N   0  0  0  0  0  0  0  0  0  0  0  0
  129.3280  131.7750   60.7030 C   0  0  0  0  0  0  0  0  0  0  0  0
  129.5090  132.3930   59.4690 C   0  0  0  0  0  0  0  0  0  0  0  0
  133.1019  131.1747   58.4101 H   0  0  0  0  0  0  0  0  0  0  0  0
  132.7651  130.0161   57.0793 H   0  0  0  0  0  0  0  0  0  0  0  0
  134.2902  130.9652   57.0793 H   0  0  0  0  0  0  0  0  0  0  0  0
  132.5621  133.0338   57.1156 H   0  0  0  0  0  0  0  0  0  0  0  0
  133.0444  132.2385   55.5791 H   0  0  0  0  0  0  0  0  0  0  0  0
  130.5816  129.7066   57.6573 H   0  0  0  0  0  0  0  0  0  0  0  0
  130.2621  128.6029   59.8585 H   0  0  0  0  0  0  0  0  0  0  0  0
  130.3180  129.4290   62.4890 H   0  0  0  0  0  0  0  0  0  0  0  0
  127.3093  127.9150   69.8004 H   0  0  0  0  0  0  0  0  0  0  0  0
  126.9006  127.6019   72.2279 H   0  0  0  0  0  0  0  0  0  0  0  0
  126.9107  126.5439   75.3836 H   0  0  0  0  0  0  0  0  0  0  0  0
  126.9686  127.6181   73.9450 H   0  0  0  0  0  0  0  0  0  0  0  0
  125.9007  126.1737   73.9450 H   0  0  0  0  0  0  0  0  0  0  0  0
  129.5765  124.2104   72.2427 H   0  0  0  0  0  0  0  0  0  0  0  0
  129.9941  124.5306   69.8167 H   0  0  0  0  0  0  0  0  0  0  0  0
  130.3930  124.8397   68.0221 H   0  0  0  0  0  0  0  0  0  0  0  0
  129.5497  123.4106   65.0232 H   0  0  0  0  0  0  0  0  0  0  0  0
  131.1280  121.9088   63.8317 H   0  0  0  0  0  0  0  0  0  0  0  0
  134.9097  123.2900   62.0789 H   0  0  0  0  0  0  0  0  0  0  0  0
  134.2764  121.7003   61.5326 H   0  0  0  0  0  0  0  0  0  0  0  0
  133.2049  123.1421   61.5326 H   0  0  0  0  0  0  0  0  0  0  0  0
  134.3172  124.7586   64.4618 H   0  0  0  0  0  0  0  0  0  0  0  0
  132.7310  126.2628   65.6497 H   0  0  0  0  0  0  0  0  0  0  0  0
  131.2500  127.0410   63.1850 H   0  0  0  0  0  0  0  0  0  0  0  0
  129.8900  126.3480   62.3890 H   0  0  0  0  0  0  0  0  0  0  0  0
  128.9759  132.3615   61.5644 H   0  0  0  0  0  0  0  0  0  0  0  0
  129.2977  133.4673   59.3626 H   0  0  0  0  0  0  0  0  0  0  0  0
  1  2  1  0
  2  3  1  0
  3  4  1  0
  4  5  2  0
  4  6  1  0
  6  7  2  0
  7  8  1  0
  8  9  2  0
  9 10  1  0
 10 11  1  0
 11 12  2  0
 11 13  1  0
 13 14  1  0
 14 15  1  0
 15 16  2  0
 16 17  1  0
 17 18  1  0
 18 19  2  0
 19 20  1  0
 20 21  2  0
 21 22  1  0
 22 23  1  0
 21 24  1  0
 24 25  2  0
 17 26  2  0
 26 27  1  0
 27 28  1  0
 28 29  2  0
 29 30  1  0
 30 31  2  0
 31 32  1  0
 32 33  1  0
 31 34  1  0
 34 35  2  0
 27 36  2  0
 36 37  1  0
 37 38  1  0
  9 39  1  0
 39 40  2  0
 40  6  1  0
 37 13  2  0
 36 15  1  0
 25 18  1  0
 35 28  1  0
  1 41  1  0
  1 42  1  0
  1 43  1  0
  2 44  1  0
  2 45  1  0
  7 46  1  0
  8 47  1  0
 10 48  1  0
 19 49  1  0
 20 50  1  0
 23 51  1  0
 23 52  1  0
 23 53  1  0
 24 54  1  0
 25 55  1  0
 26 56  1  0
 29 57  1  0
 30 58  1  0
 33 59  1  0
 33 60  1  0
 33 61  1  0
 34 62  1  0
 35 63  1  0
 38 64  1  0
 38 65  1  0
 39 66  1  0
 40 67  1  0
M  END
>  <Binding energies>  (1) 
[-9.86]

>  <Ligand effiencies>  (1) 
[-0.22930232558139532]

>  <Interactions>  (1) 
["V-A:GLU:543:CD:4908, V-A:HIS:456:CD2:4068, V-A:LEU:475:CD1:4258, V-A:TYR:484:CZ:4347, V-A:TYR:484:CE1:4345, V-B:HIS:456:CE1:9040, V-A:HIS:456:CE1:4069, V-A:PRO:540:CA:4883, V-A:PRO:540:CB:4885, V-A:TYR:539:C:4867, V-B:GLY:544:C:9884, H-B:LYS:547:NZ:9923, V-A:ILE:369:CD1:3239, V-A:GLY:454:CA:4049, H-A:GLY:454:N:4050, H-A:GLU:543:OE1:4909, H-A:GLU:543:OE2:4910, V-A:PRO:540:N:4884, V-A:LEU:363:CA:3185, V-B:LYS:547:CD:9921, V-B:LYS:547:CE:9922, H-A:TYR:539:N:4870, V-A:PRO:540:CD:4887, V-A:LEU:363:CD1:3189, V-A:PRO:540:CG:4886"]

$$$$
8b_Ghoteimi_2023
     RDKit          3D

 54 58  0  0  0  0  0  0  0  0999 V2000
  123.7330  131.6920   62.0010 C   0  0  0  0  0  0  0  0  0  0  0  0
  123.8810  131.8760   63.4050 O   0  0  0  0  0  0  0  0  0  0  0  0
  124.6030  130.9500   64.1330 C   0  0  0  0  0  0  0  0  0  0  0  0
  125.9100  130.7110   63.7130 C   0  0  0  0  0  0  0  0  0  0  0  0
  126.7130  129.7940   64.3850 C   0  0  0  0  0  0  0  0  0  0  0  0
  126.2270  129.0900   65.4970 C   0  0  0  0  0  0  0  0  0  0  0  0
  127.0850  128.1020   66.2220 C   0  0  0  0  0  0  0  0  0  0  0  0
  128.1260  127.4210   65.5820 C   0  0  0  0  0  0  0  0  0  0  0  0
  128.9130  126.5020   66.2830 C   0  0  0  0  0  0  0  0  0  0  0  0
  130.0010  125.7900   65.5730 C   0  0  0  0  0  0  0  0  0  0  0  0
  129.7110  124.9820   64.4730 C   0  0  0  0  0  0  0  0  0  0  0  0
  130.7360  124.3210   63.8010 C   0  0  0  0  0  0  0  0  0  0  0  0
  132.0610  124.4550   64.2190 C   0  0  0  0  0  0  0  0  0  0  0  0
  133.0110  123.7650   63.4920 O   0  0  0  0  0  0  0  0  0  0  0  0
  133.5910  124.3790   62.3460 C   0  0  0  0  0  0  0  0  0  0  0  0
  132.3490  125.2660   65.3280 C   0  0  0  0  0  0  0  0  0  0  0  0
  131.3230  125.9270   65.9990 C   0  0  0  0  0  0  0  0  0  0  0  0
  128.6290  126.2910   67.6590 C   0  0  0  0  0  0  0  0  0  0  0  0
  129.2260  125.4460   68.6600 C   0  0  0  0  0  0  0  0  0  0  0  0
  130.2890  124.6230   68.3870 N   0  0  0  0  0  0  0  0  0  0  0  0
  128.6230  125.5480   69.9230 C   0  0  0  0  0  0  0  0  0  0  0  0
  128.9720  124.8450   71.1590 C   0  0  0  0  0  0  0  0  0  0  0  0
  128.8140  125.3850   72.2570 O   0  0  0  0  0  0  0  0  0  0  0  0
  129.4680  123.5920   70.9960 N   0  0  0  0  0  0  0  0  0  0  0  0
  129.8730  122.7080   71.9870 C   0  0  0  0  0  0  0  0  0  0  0  0
  131.0500  122.8690   72.7160 C   0  0  0  0  0  0  0  0  0  0  0  0
  131.0860  121.7970   73.5790 C   0  0  0  0  0  0  0  0  0  0  0  0
  129.9870  121.0320   73.3820 O   0  0  0  0  0  0  0  0  0  0  0  0
  129.2240  121.6200   72.3710 N   0  0  0  0  0  0  0  0  0  0  0  0
  127.2910  126.7050   69.9010 S   0  0  0  0  0  0  0  0  0  0  0  0
  127.5510  127.0430   68.2050 C   0  0  0  0  0  0  0  0  0  0  0  0
  126.7970  127.9160   67.5380 N   0  0  0  0  0  0  0  0  0  0  0  0
  124.9130  129.3370   65.9150 C   0  0  0  0  0  0  0  0  0  0  0  0
  124.1070  130.2540   65.2440 C   0  0  0  0  0  0  0  0  0  0  0  0
  123.0539  130.8477   61.8114 H   0  0  0  0  0  0  0  0  0  0  0  0
  123.3155  132.6060   61.5534 H   0  0  0  0  0  0  0  0  0  0  0  0
  124.7152  131.4802   61.5534 H   0  0  0  0  0  0  0  0  0  0  0  0
  126.3106  131.2517   62.8429 H   0  0  0  0  0  0  0  0  0  0  0  0
  127.7426  129.6189   64.0396 H   0  0  0  0  0  0  0  0  0  0  0  0
  128.3274  127.6102   64.5173 H   0  0  0  0  0  0  0  0  0  0  0  0
  128.6703  124.8669   64.1359 H   0  0  0  0  0  0  0  0  0  0  0  0
  130.4994  123.6878   62.9332 H   0  0  0  0  0  0  0  0  0  0  0  0
  134.3137  125.1440   62.6661 H   0  0  0  0  0  0  0  0  0  0  0  0
  134.1066  123.6169   61.7432 H   0  0  0  0  0  0  0  0  0  0  0  0
  132.8008  124.8504   61.7432 H   0  0  0  0  0  0  0  0  0  0  0  0
  133.3888  125.3799   65.6683 H   0  0  0  0  0  0  0  0  0  0  0  0
  131.5556  126.5596   66.8683 H   0  0  0  0  0  0  0  0  0  0  0  0
  130.9020  124.2940   69.1210 H   0  0  0  0  0  0  0  0  0  0  0  0
  130.4980  124.3190   67.4460 H   0  0  0  0  0  0  0  0  0  0  0  0
  129.5540  123.2540   70.0500 H   0  0  0  0  0  0  0  0  0  0  0  0
  131.7899  123.6775   72.6221 H   0  0  0  0  0  0  0  0  0  0  0  0
  131.8811  121.5945   74.3117 H   0  0  0  0  0  0  0  0  0  0  0  0
  124.5115  128.7987   66.7863 H   0  0  0  0  0  0  0  0  0  0  0  0
  123.0773  130.4326   65.5874 H   0  0  0  0  0  0  0  0  0  0  0  0
  1  2  1  0
  2  3  1  0
  3  4  2  0
  4  5  1  0
  5  6  2  0
  6  7  1  0
  7  8  2  0
  8  9  1  0
  9 10  1  0
 10 11  2  0
 11 12  1  0
 12 13  2  0
 13 14  1  0
 14 15  1  0
 13 16  1  0
 16 17  2  0
  9 18  2  0
 18 19  1  0
 19 20  1  0
 19 21  2  0
 21 22  1  0
 22 23  2  0
 22 24  1  0
 24 25  1  0
 25 26  1  0
 26 27  2  0
 27 28  1  0
 28 29  1  0
 21 30  1  0
 30 31  1  0
 31 32  2  0
  6 33  1  0
 33 34  2  0
 34  3  1  0
 32  7  1  0
 17 10  1  0
 31 18  1  0
 29 25  2  0
  1 35  1  0
  1 36  1  0
  1 37  1  0
  4 38  1  0
  5 39  1  0
  8 40  1  0
 11 41  1  0
 12 42  1  0
 15 43  1  0
 15 44  1  0
 15 45  1  0
 16 46  1  0
 17 47  1  0
 20 48  1  0
 20 49  1  0
 24 50  1  0
 26 51  1  0
 27 52  1  0
 33 53  1  0
 34 54  1  0
M  END
>  <Binding energies>  (1) 
[-9.45]

>  <Ligand effiencies>  (1) 
[-0.2554054054054054]

>  <Interactions>  (1) 
["V-A:GLU:543:CD:4908, V-B:GLU:543:CD:9880, V-B:GLU:543:CB:9878, H-A:TYR:484:OH:4348, V-A:TYR:484:CZ:4347, V-B:GLU:543:C:9874, V-A:TYR:484:CE1:4345, V-B:HIS:456:CE1:9040, V-A:HIS:456:CE1:4069, V-B:GLU:543:CG:9879, V-B:ARG:545:CD:9895, V-B:ARG:545:CZ:9898, V-B:ARG:545:CG:9894, V-B:GLY:544:C:9884, H-B:LYS:547:NZ:9923, V-B:ILE:369:CD1:8210, V-B:GLY:454:CA:9020, H-A:GLY:454:N:4050, H-B:GLY:454:N:9021, H-B:GLU:543:O:9875, V-A:TYR:484:CG:4342, V-A:TYR:484:CE2:4346, V-A:TYR:484:CD1:4343, V-A:TYR:484:CD2:4344, V-A:HIS:456:CB:4065, V-A:ASP:473:CG:4240, V-A:ASP:473:CB:4239, H-A:HIS:456:ND1:4067, V-A:TYR:484:CB:4341"]

$$$$
8c_Ghoteimi_2023
     RDKit          3D

 54 58  0  0  0  0  0  0  0  0999 V2000
  123.5700  131.7280   62.0100 C   0  0  0  0  0  0  0  0  0  0  0  0
  123.8850  131.9120   63.3860 O   0  0  0  0  0  0  0  0  0  0  0  0
  124.7270  131.0110   64.0100 C   0  0  0  0  0  0  0  0  0  0  0  0
  124.1760  130.2570   65.0440 C   0  0  0  0  0  0  0  0  0  0  0  0
  124.9500  129.3270   65.7310 C   0  0  0  0  0  0  0  0  0  0  0  0
  126.2990  129.1270   65.4020 C   0  0  0  0  0  0  0  0  0  0  0  0
  127.1370  128.1320   66.1390 C   0  0  0  0  0  0  0  0  0  0  0  0
  128.1310  127.3860   65.4980 C   0  0  0  0  0  0  0  0  0  0  0  0
  128.9030  126.4630   66.2120 C   0  0  0  0  0  0  0  0  0  0  0  0
  129.9410  125.6830   65.5020 C   0  0  0  0  0  0  0  0  0  0  0  0
  129.5880  124.8380   64.4460 C   0  0  0  0  0  0  0  0  0  0  0  0
  130.5660  124.1130   63.7730 C   0  0  0  0  0  0  0  0  0  0  0  0
  131.9080  124.2170   64.1440 C   0  0  0  0  0  0  0  0  0  0  0  0
  132.8090  123.4620   63.4180 O   0  0  0  0  0  0  0  0  0  0  0  0
  133.6970  124.1160   62.5190 C   0  0  0  0  0  0  0  0  0  0  0  0
  132.2610  125.0630   65.2070 C   0  0  0  0  0  0  0  0  0  0  0  0
  131.2810  125.7890   65.8790 C   0  0  0  0  0  0  0  0  0  0  0  0
  128.6510  126.3140   67.6020 C   0  0  0  0  0  0  0  0  0  0  0  0
  129.2410  125.4820   68.6170 C   0  0  0  0  0  0  0  0  0  0  0  0
  130.2620  124.6060   68.3470 N   0  0  0  0  0  0  0  0  0  0  0  0
  128.6780  125.6540   69.8920 C   0  0  0  0  0  0  0  0  0  0  0  0
  129.0330  124.9820   71.1440 C   0  0  0  0  0  0  0  0  0  0  0  0
  128.7760  125.5000   72.2320 O   0  0  0  0  0  0  0  0  0  0  0  0
  129.6500  123.7820   71.0050 N   0  0  0  0  0  0  0  0  0  0  0  0
  130.0850  122.9450   72.0220 C   0  0  0  0  0  0  0  0  0  0  0  0
  129.5940  121.7760   72.3720 N   0  0  0  0  0  0  0  0  0  0  0  0
  130.2590  121.2550   73.3840 C   0  0  0  0  0  0  0  0  0  0  0  0
  131.3180  122.0090   73.8790 C   0  0  0  0  0  0  0  0  0  0  0  0
  131.4410  123.4810   72.9620 S   0  0  0  0  0  0  0  0  0  0  0  0
  127.3950  126.8640   69.8630 S   0  0  0  0  0  0  0  0  0  0  0  0
  127.6180  127.1290   68.1500 C   0  0  0  0  0  0  0  0  0  0  0  0
  126.8810  128.0070   67.4700 N   0  0  0  0  0  0  0  0  0  0  0  0
  126.8450  129.8880   64.3590 C   0  0  0  0  0  0  0  0  0  0  0  0
  126.0740  130.8190   63.6710 C   0  0  0  0  0  0  0  0  0  0  0  0
  122.6233  131.1750   61.9214 H   0  0  0  0  0  0  0  0  0  0  0  0
  123.4687  132.7089   61.5227 H   0  0  0  0  0  0  0  0  0  0  0  0
  124.3747  131.1579   61.5227 H   0  0  0  0  0  0  0  0  0  0  0  0
  123.1204  130.3981   65.3195 H   0  0  0  0  0  0  0  0  0  0  0  0
  124.4976  128.7401   66.5439 H   0  0  0  0  0  0  0  0  0  0  0  0
  128.3078  127.5263   64.4214 H   0  0  0  0  0  0  0  0  0  0  0  0
  128.5336  124.7460   64.1462 H   0  0  0  0  0  0  0  0  0  0  0  0
  130.2797  123.4522   62.9415 H   0  0  0  0  0  0  0  0  0  0  0  0
  134.4535  124.6731   63.0912 H   0  0  0  0  0  0  0  0  0  0  0  0
  134.1946  123.3671   61.8854 H   0  0  0  0  0  0  0  0  0  0  0  0
  133.1294  124.8134   61.8854 H   0  0  0  0  0  0  0  0  0  0  0  0
  133.3146  125.1527   65.5100 H   0  0  0  0  0  0  0  0  0  0  0  0
  131.5643  126.4497   66.7116 H   0  0  0  0  0  0  0  0  0  0  0  0
  130.3770  124.1970   67.4300 H   0  0  0  0  0  0  0  0  0  0  0  0
  130.9310  124.3370   69.0540 H   0  0  0  0  0  0  0  0  0  0  0  0
  129.8110  123.4500   70.0640 H   0  0  0  0  0  0  0  0  0  0  0  0
  129.9913  120.2782   73.8132 H   0  0  0  0  0  0  0  0  0  0  0  0
  131.9718  121.7206   74.7153 H   0  0  0  0  0  0  0  0  0  0  0  0
  127.8997  129.7466   64.0803 H   0  0  0  0  0  0  0  0  0  0  0  0
  126.5230  131.4074   62.8572 H   0  0  0  0  0  0  0  0  0  0  0  0
  1  2  1  0
  2  3  1  0
  3  4  2  0
  4  5  1  0
  5  6  2  0
  6  7  1  0
  7  8  2  0
  8  9  1  0
  9 10  1  0
 10 11  2  0
 11 12  1  0
 12 13  2  0
 13 14  1  0
 14 15  1  0
 13 16  1  0
 16 17  2  0
  9 18  2  0
 18 19  1  0
 19 20  1  0
 19 21  2  0
 21 22  1  0
 22 23  2  0
 22 24  1  0
 24 25  1  0
 25 26  2  0
 26 27  1  0
 27 28  2  0
 28 29  1  0
 21 30  1  0
 30 31  1  0
 31 32  2  0
  6 33  1  0
 33 34  2  0
 34  3  1  0
 32  7  1  0
 17 10  1  0
 31 18  1  0
 29 25  1  0
  1 35  1  0
  1 36  1  0
  1 37  1  0
  4 38  1  0
  5 39  1  0
  8 40  1  0
 11 41  1  0
 12 42  1  0
 15 43  1  0
 15 44  1  0
 15 45  1  0
 16 46  1  0
 17 47  1  0
 20 48  1  0
 20 49  1  0
 24 50  1  0
 27 51  1  0
 28 52  1  0
 33 53  1  0
 34 54  1  0
M  END
>  <Binding energies>  (1) 
[-9.14]

>  <Ligand effiencies>  (1) 
[-0.24702702702702703]

>  <Interactions>  (1) 
["V-A:GLU:543:CD:4908, V-A:HIS:456:CD2:4068, V-B:GLU:543:CD:9880, V-B:GLU:543:CB:9878, H-A:TYR:484:OH:4348, V-A:TYR:484:CZ:4347, V-B:GLU:543:C:9874, V-A:TYR:484:CE1:4345, V-B:HIS:456:CE1:9040, V-A:HIS:456:CE1:4069, V-B:GLU:543:CG:9879, V-B:ARG:545:CD:9895, V-B:ARG:545:CZ:9898, V-B:GLY:544:C:9884, H-B:LYS:547:NZ:9923, V-B:ILE:369:CD1:8210, V-B:GLY:454:CA:9020, H-A:GLY:454:N:4050, H-B:GLY:454:N:9021, H-B:GLU:543:O:9875, V-A:TYR:484:CG:4342, V-A:TYR:484:CE2:4346, V-A:HIS:456:CG:4066, V-A:TYR:484:CD1:4343, V-A:TYR:484:CD2:4344, V-A:HIS:456:CB:4065, V-A:ASP:473:CG:4240, V-A:ASP:473:CB:4239, H-A:HIS:456:ND1:4067, V-A:TYR:484:CB:4341"]

$$$$
8d_Ghoteimi_2023
     RDKit          3D

 50 53  0  0  0  0  0  0  0  0999 V2000
  130.8380  123.5190   72.0380 C   0  0  0  0  0  0  0  0  0  0  0  0
  129.5070  123.7140   71.5800 O   0  0  0  0  0  0  0  0  0  0  0  0
  128.8950  124.9190   71.7120 C   0  0  0  0  0  0  0  0  0  0  0  0
  128.6490  125.4530   72.7960 O   0  0  0  0  0  0  0  0  0  0  0  0
  128.5500  125.5350   70.4120 C   0  0  0  0  0  0  0  0  0  0  0  0
  127.2050  126.6730   70.3070 S   0  0  0  0  0  0  0  0  0  0  0  0
  127.4690  126.8870   68.5920 C   0  0  0  0  0  0  0  0  0  0  0  0
  126.7080  127.7000   67.8590 N   0  0  0  0  0  0  0  0  0  0  0  0
  127.0010  127.7950   66.5340 C   0  0  0  0  0  0  0  0  0  0  0  0
  126.1290  128.7100   65.7340 C   0  0  0  0  0  0  0  0  0  0  0  0
  126.5590  129.2300   64.5050 C   0  0  0  0  0  0  0  0  0  0  0  0
  125.7440  130.0810   63.7650 C   0  0  0  0  0  0  0  0  0  0  0  0
  124.4800  130.4370   64.2330 C   0  0  0  0  0  0  0  0  0  0  0  0
  123.7410  131.2860   63.4320 O   0  0  0  0  0  0  0  0  0  0  0  0
  123.6500  131.0210   62.0360 C   0  0  0  0  0  0  0  0  0  0  0  0
  124.0390  129.9220   65.4600 C   0  0  0  0  0  0  0  0  0  0  0  0
  124.8570  129.0690   66.1970 C   0  0  0  0  0  0  0  0  0  0  0  0
  128.0440  127.0740   65.9470 C   0  0  0  0  0  0  0  0  0  0  0  0
  128.8450  126.2230   66.7170 C   0  0  0  0  0  0  0  0  0  0  0  0
  129.9490  125.4790   66.0670 C   0  0  0  0  0  0  0  0  0  0  0  0
  131.2430  126.0030   66.0680 C   0  0  0  0  0  0  0  0  0  0  0  0
  132.2790  125.3080   65.4490 C   0  0  0  0  0  0  0  0  0  0  0  0
  132.0390  124.0820   64.8280 C   0  0  0  0  0  0  0  0  0  0  0  0
  133.1260  123.4650   64.2400 O   0  0  0  0  0  0  0  0  0  0  0  0
  133.6130  123.9540   62.9960 C   0  0  0  0  0  0  0  0  0  0  0  0
  130.7360  123.5560   64.8320 C   0  0  0  0  0  0  0  0  0  0  0  0
  129.7010  124.2530   65.4500 C   0  0  0  0  0  0  0  0  0  0  0  0
  128.5580  126.1110   68.1030 C   0  0  0  0  0  0  0  0  0  0  0  0
  129.1560  125.3490   69.1640 C   0  0  0  0  0  0  0  0  0  0  0  0
  130.2240  124.5120   68.9620 N   0  0  0  0  0  0  0  0  0  0  0  0
  130.8507  123.5171   73.1379 H   0  0  0  0  0  0  0  0  0  0  0  0
  131.2166  122.5558   71.6653 H   0  0  0  0  0  0  0  0  0  0  0  0
  131.4770  124.3331   71.6653 H   0  0  0  0  0  0  0  0  0  0  0  0
  127.5541  128.9616   64.1206 H   0  0  0  0  0  0  0  0  0  0  0  0
  126.1002  130.4763   62.8023 H   0  0  0  0  0  0  0  0  0  0  0  0
  123.2963  129.9911   61.8806 H   0  0  0  0  0  0  0  0  0  0  0  0
  122.9422  131.7253   61.5745 H   0  0  0  0  0  0  0  0  0  0  0  0
  124.6411  131.1419   61.5745 H   0  0  0  0  0  0  0  0  0  0  0  0
  123.0436  130.1925   65.8420 H   0  0  0  0  0  0  0  0  0  0  0  0
  124.4983  128.6711   67.1577 H   0  0  0  0  0  0  0  0  0  0  0  0
  128.2375  127.1763   64.8690 H   0  0  0  0  0  0  0  0  0  0  0  0
  131.4447  126.9666   66.5586 H   0  0  0  0  0  0  0  0  0  0  0  0
  133.2951  125.7293   65.4497 H   0  0  0  0  0  0  0  0  0  0  0  0
  134.3785  124.7226   63.1785 H   0  0  0  0  0  0  0  0  0  0  0  0
  134.0549  123.1250   62.4238 H   0  0  0  0  0  0  0  0  0  0  0  0
  132.7822  124.3925   62.4238 H   0  0  0  0  0  0  0  0  0  0  0  0
  130.5330  122.5906   64.3454 H   0  0  0  0  0  0  0  0  0  0  0  0
  128.6835  123.8349   65.4516 H   0  0  0  0  0  0  0  0  0  0  0  0
  130.7580  124.1410   69.7360 H   0  0  0  0  0  0  0  0  0  0  0  0
  130.5100  124.2310   68.0350 H   0  0  0  0  0  0  0  0  0  0  0  0
  1  2  1  0
  2  3  1  0
  3  4  2  0
  3  5  1  0
  5  6  1  0
  6  7  1  0
  7  8  2  0
  8  9  1  0
  9 10  1  0
 10 11  2  0
 11 12  1  0
 12 13  2  0
 13 14  1  0
 14 15  1  0
 13 16  1  0
 16 17  2  0
  9 18  2  0
 18 19  1  0
 19 20  1  0
 20 21  2  0
 21 22  1  0
 22 23  2  0
 23 24  1  0
 24 25  1  0
 23 26  1  0
 26 27  2  0
 19 28  2  0
 28 29  1  0
 29 30  1  0
 29  5  2  0
 28  7  1  0
 17 10  1  0
 27 20  1  0
  1 31  1  0
  1 32  1  0
  1 33  1  0
 11 34  1  0
 12 35  1  0
 15 36  1  0
 15 37  1  0
 15 38  1  0
 16 39  1  0
 17 40  1  0
 18 41  1  0
 21 42  1  0
 22 43  1  0
 25 44  1  0
 25 45  1  0
 25 46  1  0
 26 47  1  0
 27 48  1  0
 30 49  1  0
 30 50  1  0
M  END
>  <Binding energies>  (1) 
[-7.91]

>  <Ligand effiencies>  (1) 
[-0.2471875]

>  <Interactions>  (1) 
["V-B:GLU:543:CA:9876, V-A:GLU:543:CD:4908, V-A:HIS:456:CD2:4068, V-B:GLU:543:CD:9880, V-B:GLU:543:CB:9878, H-A:TYR:484:OH:4348, V-A:TYR:484:CZ:4347, V-B:GLU:543:C:9874, V-A:TYR:484:CE1:4345, V-B:HIS:456:CE1:9040, V-A:HIS:456:CE1:4069, V-B:GLU:543:CG:9879, V-B:ARG:545:CD:9895, V-B:ARG:545:CZ:9898, V-B:ARG:545:CG:9894, V-B:GLY:544:C:9884, H-B:LYS:547:NZ:9923, V-B:ILE:369:CD1:8210, V-B:GLY:454:CA:9020, V-A:GLY:454:CA:4049, H-A:GLY:454:N:4050, H-B:GLY:454:N:9021, H-B:GLU:543:O:9875, V-A:TYR:484:CG:4342, V-A:TYR:484:CE2:4346, V-A:HIS:456:CG:4066, V-A:TYR:484:CD1:4343, V-A:TYR:484:CD2:4344, V-A:HIS:456:CB:4065, H-A:HIS:456:ND1:4067"]

$$$$
9a_Ghoteimi_2023
     RDKit          3D

 85 91  0  0  0  0  0  0  0  0999 V2000
  124.3900  127.9740   74.9610 C   0  0  0  0  0  0  0  0  0  0  0  0
  125.3290  126.8910   74.4170 C   0  0  0  0  0  0  0  0  0  0  0  0
  126.6240  127.4440   74.2190 O   0  0  0  0  0  0  0  0  0  0  0  0
  127.6970  126.6470   73.9820 C   0  0  0  0  0  0  0  0  0  0  0  0
  128.3520  126.1030   74.8770 O   0  0  0  0  0  0  0  0  0  0  0  0
  128.0150  126.4980   72.5220 C   0  0  0  0  0  0  0  0  0  0  0  0
  128.4490  125.2560   72.0390 C   0  0  0  0  0  0  0  0  0  0  0  0
  128.7530  125.0860   70.6920 C   0  0  0  0  0  0  0  0  0  0  0  0
  128.6290  126.1500   69.7990 C   0  0  0  0  0  0  0  0  0  0  0  0
  128.9640  125.8630   68.4610 N   0  0  0  0  0  0  0  0  0  0  0  0
  129.5680  126.6330   67.5220 C   0  0  0  0  0  0  0  0  0  0  0  0
  129.9450  127.7890   67.7130 O   0  0  0  0  0  0  0  0  0  0  0  0
  129.7640  125.9920   66.2180 C   0  0  0  0  0  0  0  0  0  0  0  0
  130.8480  124.6090   66.0600 S   0  0  0  0  0  0  0  0  0  0  0  0
  130.5070  124.4800   64.3500 C   0  0  0  0  0  0  0  0  0  0  0  0
  131.0570  123.5280   63.5980 N   0  0  0  0  0  0  0  0  0  0  0  0
  130.7160  123.5080   62.2820 C   0  0  0  0  0  0  0  0  0  0  0  0
  131.3370  122.4250   61.4600 C   0  0  0  0  0  0  0  0  0  0  0  0
  131.3000  121.0940   61.8920 C   0  0  0  0  0  0  0  0  0  0  0  0
  131.8750  120.0790   61.1320 C   0  0  0  0  0  0  0  0  0  0  0  0
  132.4960  120.3550   59.9030 C   0  0  0  0  0  0  0  0  0  0  0  0
  133.0950  119.3490   59.1380 N   0  0  0  0  0  0  0  0  0  0  0  0
  133.0960  119.3990   57.6620 C   0  0  0  0  0  0  0  0  0  0  0  0
  133.4660  118.0580   56.9940 C   0  0  0  0  0  0  0  0  0  0  0  0
  134.7110  117.5950   57.4880 O   0  0  0  0  0  0  0  0  0  0  0  0
  134.6680  117.3860   58.8910 C   0  0  0  0  0  0  0  0  0  0  0  0
  134.3400  118.7090   59.6120 C   0  0  0  0  0  0  0  0  0  0  0  0
  132.5430  121.6920   59.4820 C   0  0  0  0  0  0  0  0  0  0  0  0
  131.9710  122.7070   60.2440 C   0  0  0  0  0  0  0  0  0  0  0  0
  129.8530  124.4510   61.7200 C   0  0  0  0  0  0  0  0  0  0  0  0
  129.2890  125.4650   62.5030 C   0  0  0  0  0  0  0  0  0  0  0  0
  128.4060  126.4640   61.8480 C   0  0  0  0  0  0  0  0  0  0  0  0
  127.3250  126.0530   61.0640 C   0  0  0  0  0  0  0  0  0  0  0  0
  126.4910  126.9910   60.4630 C   0  0  0  0  0  0  0  0  0  0  0  0
  126.7050  128.3670   60.6440 C   0  0  0  0  0  0  0  0  0  0  0  0
  125.8890  129.3270   60.0410 N   0  0  0  0  0  0  0  0  0  0  0  0
  124.9210  130.0720   60.8710 C   0  0  0  0  0  0  0  0  0  0  0  0
  124.3700  131.3370   60.1800 C   0  0  0  0  0  0  0  0  0  0  0  0
  123.8030  130.9960   58.9240 O   0  0  0  0  0  0  0  0  0  0  0  0
  124.7600  130.4070   58.0580 C   0  0  0  0  0  0  0  0  0  0  0  0
  125.3230  129.1170   58.6940 C   0  0  0  0  0  0  0  0  0  0  0  0
  127.7920  128.7680   61.4350 C   0  0  0  0  0  0  0  0  0  0  0  0
  128.6280  127.8300   62.0320 C   0  0  0  0  0  0  0  0  0  0  0  0
  129.6030  125.4830   63.8920 C   0  0  0  0  0  0  0  0  0  0  0  0
  129.1760  126.3190   64.9870 C   0  0  0  0  0  0  0  0  0  0  0  0
  128.2650  127.3320   64.8290 N   0  0  0  0  0  0  0  0  0  0  0  0
  128.1920  127.3980   70.2720 C   0  0  0  0  0  0  0  0  0  0  0  0
  127.8890  127.5660   71.6210 C   0  0  0  0  0  0  0  0  0  0  0  0
  124.4065  127.9550   76.0607 H   0  0  0  0  0  0  0  0  0  0  0  0
  124.7235  128.9604   74.6063 H   0  0  0  0  0  0  0  0  0  0  0  0
  123.3663  127.7837   74.6063 H   0  0  0  0  0  0  0  0  0  0  0  0
  125.3902  126.0625   75.1380 H   0  0  0  0  0  0  0  0  0  0  0  0
  124.9400  126.5149   73.4593 H   0  0  0  0  0  0  0  0  0  0  0  0
  128.5503  124.4074   72.7316 H   0  0  0  0  0  0  0  0  0  0  0  0
  129.0936  124.1052   70.3287 H   0  0  0  0  0  0  0  0  0  0  0  0
  128.7120  124.9310   68.1670 H   0  0  0  0  0  0  0  0  0  0  0  0
  130.8098  120.8466   62.8452 H   0  0  0  0  0  0  0  0  0  0  0  0
  131.8423  119.0431   61.5005 H   0  0  0  0  0  0  0  0  0  0  0  0
  132.0902  119.6890   57.3241 H   0  0  0  0  0  0  0  0  0  0  0  0
  133.8655  120.1274   57.3665 H   0  0  0  0  0  0  0  0  0  0  0  0
  132.6870  117.3138   57.2160 H   0  0  0  0  0  0  0  0  0  0  0  0
  133.5428  118.2065   55.9068 H   0  0  0  0  0  0  0  0  0  0  0  0
  133.8924  116.6419   59.1247 H   0  0  0  0  0  0  0  0  0  0  0  0
  135.6487  117.0227   59.2320 H   0  0  0  0  0  0  0  0  0  0  0  0
  134.2370  118.5025   60.6875 H   0  0  0  0  0  0  0  0  0  0  0  0
  135.1631  119.4062   59.3964 H   0  0  0  0  0  0  0  0  0  0  0  0
  133.0403  121.9429   58.5335 H   0  0  0  0  0  0  0  0  0  0  0  0
  132.0178  123.7459   59.8854 H   0  0  0  0  0  0  0  0  0  0  0  0
  129.6132  124.3963   60.6478 H   0  0  0  0  0  0  0  0  0  0  0  0
  127.1317  124.9796   60.9207 H   0  0  0  0  0  0  0  0  0  0  0  0
  125.6528  126.6499   59.8377 H   0  0  0  0  0  0  0  0  0  0  0  0
  124.0770  129.4065   61.1051 H   0  0  0  0  0  0  0  0  0  0  0  0
  125.4532  130.4009   61.7757 H   0  0  0  0  0  0  0  0  0  0  0  0
  123.5975  131.7928   60.8168 H   0  0  0  0  0  0  0  0  0  0  0  0
  125.1926  132.0502   60.0232 H   0  0  0  0  0  0  0  0  0  0  0  0
  124.2811  130.1614   57.0987 H   0  0  0  0  0  0  0  0  0  0  0  0
  125.5833  131.1175   57.8922 H   0  0  0  0  0  0  0  0  0  0  0  0
  124.5090  128.3809   58.7686 H   0  0  0  0  0  0  0  0  0  0  0  0
  126.1419  128.7669   58.0483 H   0  0  0  0  0  0  0  0  0  0  0  0
  127.9862  129.8402   61.5854 H   0  0  0  0  0  0  0  0  0  0  0  0
  129.4704  128.1671   62.6538 H   0  0  0  0  0  0  0  0  0  0  0  0
  128.5420  128.2570   64.5320 H   0  0  0  0  0  0  0  0  0  0  0  0
  127.2810  127.1860   65.0080 H   0  0  0  0  0  0  0  0  0  0  0  0
  128.0889  128.2438   69.5763 H   0  0  0  0  0  0  0  0  0  0  0  0
  127.5472  128.5466   71.9839 H   0  0  0  0  0  0  0  0  0  0  0  0
  1  2  1  0
  2  3  1  0
  3  4  1  0
  4  5  2  0
  4  6  1  0
  6  7  2  0
  7  8  1  0
  8  9  2  0
  9 10  1  0
 10 11  1  0
 11 12  2  0
 11 13  1  0
 13 14  1  0
 14 15  1  0
 15 16  2  0
 16 17  1  0
 17 18  1  0
 18 19  2  0
 19 20  1  0
 20 21  2  0
 21 22  1  0
 22 23  1  0
 23 24  1  0
 24 25  1  0
 25 26  1  0
 26 27  1  0
 21 28  1  0
 28 29  2  0
 17 30  2  0
 30 31  1  0
 31 32  1  0
 32 33  2  0
 33 34  1  0
 34 35  2  0
 35 36  1  0
 36 37  1  0
 37 38  1  0
 38 39  1  0
 39 40  1  0
 40 41  1  0
 35 42  1  0
 42 43  2  0
 31 44  2  0
 44 45  1  0
 45 46  1  0
  9 47  1  0
 47 48  2  0
 48  6  1  0
 45 13  2  0
 44 15  1  0
 29 18  1  0
 43 32  1  0
 27 22  1  0
 41 36  1  0
  1 49  1  0
  1 50  1  0
  1 51  1  0
  2 52  1  0
  2 53  1  0
  7 54  1  0
  8 55  1  0
 10 56  1  0
 19 57  1  0
 20 58  1  0
 23 59  1  0
 23 60  1  0
 24 61  1  0
 24 62  1  0
 26 63  1  0
 26 64  1  0
 27 65  1  0
 27 66  1  0
 28 67  1  0
 29 68  1  0
 30 69  1  0
 33 70  1  0
 34 71  1  0
 37 72  1  0
 37 73  1  0
 38 74  1  0
 38 75  1  0
 40 76  1  0
 40 77  1  0
 41 78  1  0
 41 79  1  0
 42 80  1  0
 43 81  1  0
 46 82  1  0
 46 83  1  0
 47 84  1  0
 48 85  1  0
M  END
>  <Binding energies>  (1) 
[-6.93]

>  <Ligand effiencies>  (1) 
[-0.13588235294117645]

>  <Interactions>  (1) 
["H-A:HIS:456:NE2:4070, V-B:GLU:543:CD:9880, V-B:TYR:539:CD2:9846, V-A:LEU:475:CD1:4258, V-A:TYR:484:CZ:4347, V-B:GLU:543:C:9874, V-A:TYR:484:CE1:4345, V-B:HIS:456:CE1:9040, V-B:TYR:539:CE2:9848, V-A:HIS:456:CE1:4069, V-B:GLU:543:CG:9879, V-A:TYR:539:CZ:4877, V-B:GLY:544:C:9884, V-B:TYR:539:CZ:9849, H-B:LYS:547:NZ:9923, V-A:ILE:369:CD1:3239, V-A:ILE:369:CG2:3237, V-A:TRP:381:CZ2:3370, H-B:GLU:543:OE2:9882, V-A:TRP:381:CH2:3372, H-B:GLU:543:O:9875, V-B:ASP:366:CG:8184, H-A:GLU:543:OE1:4909, H-A:GLU:543:OE2:4910, V-B:TYR:539:CG:9844, H-B:GLU:543:OE1:9881, V-B:ASP:366:CB:8183, H-A:TYR:539:OH:4878, V-B:HIS:456:CD2:9039, V-B:LYS:547:CD:9921, V-B:HIS:456:CG:9037, V-B:LYS:547:CE:9922, V-B:HIS:456:CB:9036, V-A:SER:385:CA:3407, V-A:SER:385:C:3405, V-B:VAL:458:CG2:9058, V-B:HIS:456:CA:9034, V-B:VAL:457:C:9044, V-B:HIS:456:C:9032, V-B:VAL:457:CA:9046, V-A:TRP:381:CZ3:3371, V-A:VAL:384:C:3397, V-A:LEU:373:CD1:3280, H-A:ASN:382:ND2:3381"]

$$$$
9b_Ghoteimi_2023
     RDKit          3D

 72 78  0  0  0  0  0  0  0  0999 V2000
  127.6570  128.4750   62.7190 N   0  0  0  0  0  0  0  0  0  0  0  0
  127.2290  128.4900   64.0220 C   0  0  0  0  0  0  0  0  0  0  0  0
  126.1470  129.2610   64.4720 C   0  0  0  0  0  0  0  0  0  0  0  0
  125.2710  130.1460   63.6990 C   0  0  0  0  0  0  0  0  0  0  0  0
  124.2330  130.5910   64.1930 O   0  0  0  0  0  0  0  0  0  0  0  0
  125.6850  130.4170   62.4360 N   0  0  0  0  0  0  0  0  0  0  0  0
  125.0500  131.2090   61.4880 C   0  0  0  0  0  0  0  0  0  0  0  0
  124.3870  130.6850   60.3800 C   0  0  0  0  0  0  0  0  0  0  0  0
  123.9000  131.7800   59.7030 C   0  0  0  0  0  0  0  0  0  0  0  0
  124.2520  132.9050   60.3710 O   0  0  0  0  0  0  0  0  0  0  0  0
  124.9800  132.5300   61.5000 N   0  0  0  0  0  0  0  0  0  0  0  0
  125.8980  129.0600   66.2060 S   0  0  0  0  0  0  0  0  0  0  0  0
  127.2530  127.9630   66.3200 C   0  0  0  0  0  0  0  0  0  0  0  0
  127.6290  127.4360   67.4830 N   0  0  0  0  0  0  0  0  0  0  0  0
  128.7060  126.6070   67.4660 C   0  0  0  0  0  0  0  0  0  0  0  0
  129.1200  126.0460   68.7880 C   0  0  0  0  0  0  0  0  0  0  0  0
  129.8620  124.8620   68.8710 C   0  0  0  0  0  0  0  0  0  0  0  0
  130.2320  124.3360   70.1050 C   0  0  0  0  0  0  0  0  0  0  0  0
  129.8610  124.9670   71.3030 C   0  0  0  0  0  0  0  0  0  0  0  0
  130.2280  124.4520   72.5510 N   0  0  0  0  0  0  0  0  0  0  0  0
  130.6370  125.3390   73.6590 C   0  0  0  0  0  0  0  0  0  0  0  0
  130.6680  124.6430   75.0350 C   0  0  0  0  0  0  0  0  0  0  0  0
  131.4920  123.4900   74.9770 O   0  0  0  0  0  0  0  0  0  0  0  0
  131.0070  122.5520   74.0310 C   0  0  0  0  0  0  0  0  0  0  0  0
  130.9810  123.1830   72.6220 C   0  0  0  0  0  0  0  0  0  0  0  0
  129.1350  126.1640   71.2120 C   0  0  0  0  0  0  0  0  0  0  0  0
  128.7690  126.6920   69.9780 C   0  0  0  0  0  0  0  0  0  0  0  0
  129.3850  126.2890   66.2870 C   0  0  0  0  0  0  0  0  0  0  0  0
  128.9800  126.8250   65.0580 C   0  0  0  0  0  0  0  0  0  0  0  0
  129.7160  126.4320   63.8290 C   0  0  0  0  0  0  0  0  0  0  0  0
  130.2720  127.4070   63.0000 C   0  0  0  0  0  0  0  0  0  0  0  0
  130.9780  127.0410   61.8580 C   0  0  0  0  0  0  0  0  0  0  0  0
  131.1470  125.6900   61.5140 C   0  0  0  0  0  0  0  0  0  0  0  0
  131.8650  125.3010   60.3810 N   0  0  0  0  0  0  0  0  0  0  0  0
  132.6210  124.0330   60.4050 C   0  0  0  0  0  0  0  0  0  0  0  0
  133.6660  123.9260   59.2730 C   0  0  0  0  0  0  0  0  0  0  0  0
  133.0370  124.1120   58.0140 O   0  0  0  0  0  0  0  0  0  0  0  0
  132.4140  125.3840   57.9190 C   0  0  0  0  0  0  0  0  0  0  0  0
  131.3420  125.5310   59.0200 C   0  0  0  0  0  0  0  0  0  0  0  0
  130.5990  124.7200   62.3660 C   0  0  0  0  0  0  0  0  0  0  0  0
  129.8920  125.0860   63.5080 C   0  0  0  0  0  0  0  0  0  0  0  0
  127.8750  127.7230   65.0580 C   0  0  0  0  0  0  0  0  0  0  0  0
  127.2480  127.8600   62.0300 H   0  0  0  0  0  0  0  0  0  0  0  0
  128.4000  129.0830   62.4020 H   0  0  0  0  0  0  0  0  0  0  0  0
  126.5570  130.0040   62.1410 H   0  0  0  0  0  0  0  0  0  0  0  0
  124.2767  129.6255   60.1057 H   0  0  0  0  0  0  0  0  0  0  0  0
  123.3186  131.7470   58.7698 H   0  0  0  0  0  0  0  0  0  0  0  0
  130.1566  124.3404   67.9484 H   0  0  0  0  0  0  0  0  0  0  0  0
  130.8251  123.4103   70.1425 H   0  0  0  0  0  0  0  0  0  0  0  0
  131.6447  125.7230   73.4419 H   0  0  0  0  0  0  0  0  0  0  0  0
  129.8856  126.1399   73.7221 H   0  0  0  0  0  0  0  0  0  0  0  0
  131.0683  125.3394   75.7865 H   0  0  0  0  0  0  0  0  0  0  0  0
  129.6463  124.3431   75.3110 H   0  0  0  0  0  0  0  0  0  0  0  0
  131.6650  121.6706   74.0226 H   0  0  0  0  0  0  0  0  0  0  0  0
  129.9856  122.2545   74.3107 H   0  0  0  0  0  0  0  0  0  0  0  0
  132.0177  123.3769   72.3096 H   0  0  0  0  0  0  0  0  0  0  0  0
  130.4686  122.4689   71.9605 H   0  0  0  0  0  0  0  0  0  0  0  0
  128.8501  126.6944   72.1326 H   0  0  0  0  0  0  0  0  0  0  0  0
  128.1959  127.6301   69.9376 H   0  0  0  0  0  0  0  0  0  0  0  0
  130.2488  125.6089   66.3245 H   0  0  0  0  0  0  0  0  0  0  0  0
  130.1515  128.4713   63.2507 H   0  0  0  0  0  0  0  0  0  0  0  0
  131.4103  127.8218   61.2150 H   0  0  0  0  0  0  0  0  0  0  0  0
  133.1423  123.9550   61.3705 H   0  0  0  0  0  0  0  0  0  0  0  0
  131.8968  123.2179   60.2593 H   0  0  0  0  0  0  0  0  0  0  0  0
  134.4360  124.6989   59.4135 H   0  0  0  0  0  0  0  0  0  0  0  0
  134.1295  122.9289   59.3018 H   0  0  0  0  0  0  0  0  0  0  0  0
  133.1725  126.1711   58.0419 H   0  0  0  0  0  0  0  0  0  0  0  0
  131.9344  125.4782   56.9335 H   0  0  0  0  0  0  0  0  0  0  0  0
  130.9303  126.5499   58.9721 H   0  0  0  0  0  0  0  0  0  0  0  0
  130.5760  124.7642   58.8323 H   0  0  0  0  0  0  0  0  0  0  0  0
  130.7298  123.6540   62.1283 H   0  0  0  0  0  0  0  0  0  0  0  0
  129.4694  124.3086   64.1615 H   0  0  0  0  0  0  0  0  0  0  0  0
  1  2  1  0
  2  3  2  0
  3  4  1  0
  4  5  2  0
  4  6  1  0
  6  7  1  0
  7  8  1  0
  8  9  2  0
  9 10  1  0
 10 11  1  0
  3 12  1  0
 12 13  1  0
 13 14  2  0
 14 15  1  0
 15 16  1  0
 16 17  2  0
 17 18  1  0
 18 19  2  0
 19 20  1  0
 20 21  1  0
 21 22  1  0
 22 23  1  0
 23 24  1  0
 24 25  1  0
 19 26  1  0
 26 27  2  0
 15 28  2  0
 28 29  1  0
 29 30  1  0
 30 31  2  0
 31 32  1  0
 32 33  2  0
 33 34  1  0
 34 35  1  0
 35 36  1  0
 36 37  1  0
 37 38  1  0
 38 39  1  0
 33 40  1  0
 40 41  2  0
 29 42  2  0
 42  2  1  0
 11  7  2  0
 42 13  1  0
 27 16  1  0
 41 30  1  0
 25 20  1  0
 39 34  1  0
  1 43  1  0
  1 44  1  0
  6 45  1  0
  8 46  1  0
  9 47  1  0
 17 48  1  0
 18 49  1  0
 21 50  1  0
 21 51  1  0
 22 52  1  0
 22 53  1  0
 24 54  1  0
 24 55  1  0
 25 56  1  0
 25 57  1  0
 26 58  1  0
 27 59  1  0
 28 60  1  0
 31 61  1  0
 32 62  1  0
 35 63  1  0
 35 64  1  0
 36 65  1  0
 36 66  1  0
 38 67  1  0
 38 68  1  0
 39 69  1  0
 39 70  1  0
 40 71  1  0
 41 72  1  0
M  END
>  <Binding energies>  (1) 
[-8.75]

>  <Ligand effiencies>  (1) 
[-0.19444444444444445]

>  <Interactions>  (1) 
["V-A:GLU:543:CD:4908, V-A:HIS:456:CD2:4068, V-B:GLU:543:CD:9880, V-A:ASP:366:CG:3213, V-B:GLU:543:CB:9878, V-A:TYR:484:CZ:4347, V-B:GLU:543:C:9874, V-A:TYR:484:CE1:4345, V-B:HIS:456:CE1:9040, V-A:HIS:456:CE1:4069, H-B:TYR:484:OH:9319, V-A:TYR:539:CE2:4876, H-B:LYS:547:NZ:9923, V-B:ILE:369:CG2:8208, V-B:ILE:369:CD1:8210, V-A:ASP:366:CA:3210, V-A:ILE:369:CG2:3237, H-B:GLU:543:OE2:9882, H-B:GLY:454:N:9021, V-B:ASP:366:CG:8184, H-A:GLU:543:OE1:4909, V-A:ASP:366:CB:3212, H-B:GLU:543:OE1:9881, V-A:TYR:484:CE2:4346, V-A:HIS:456:CG:4066, V-A:TYR:484:CD1:4343, V-A:TYR:484:CD2:4344, V-A:HIS:456:CB:4065, V-A:ASP:473:CG:4240, V-A:ASP:473:CB:4239, H-B:TYR:539:OH:9850"]

$$$$
9c_Ghoteimi_2023
     RDKit          3D

 72 78  0  0  0  0  0  0  0  0999 V2000
  127.6650  128.4490   62.7240 N   0  0  0  0  0  0  0  0  0  0  0  0
  127.2380  128.4650   64.0280 C   0  0  0  0  0  0  0  0  0  0  0  0
  126.1530  129.2350   64.4760 C   0  0  0  0  0  0  0  0  0  0  0  0
  125.2790  130.1200   63.7010 C   0  0  0  0  0  0  0  0  0  0  0  0
  124.1660  130.4370   64.1260 O   0  0  0  0  0  0  0  0  0  0  0  0
  125.7810  130.5390   62.5140 N   0  0  0  0  0  0  0  0  0  0  0  0
  125.1570  131.3640   61.5880 C   0  0  0  0  0  0  0  0  0  0  0  0
  124.9030  132.6500   61.6930 N   0  0  0  0  0  0  0  0  0  0  0  0
  124.2900  133.1130   60.6210 C   0  0  0  0  0  0  0  0  0  0  0  0
  124.0320  132.1880   59.6120 C   0  0  0  0  0  0  0  0  0  0  0  0
  124.6300  130.6330   60.1060 S   0  0  0  0  0  0  0  0  0  0  0  0
  125.9040  129.0360   66.2100 S   0  0  0  0  0  0  0  0  0  0  0  0
  127.2610  127.9410   66.3260 C   0  0  0  0  0  0  0  0  0  0  0  0
  127.6360  127.4150   67.4910 N   0  0  0  0  0  0  0  0  0  0  0  0
  128.7150  126.5890   67.4750 C   0  0  0  0  0  0  0  0  0  0  0  0
  129.1270  126.0290   68.7980 C   0  0  0  0  0  0  0  0  0  0  0  0
  129.8640  124.8430   68.8860 C   0  0  0  0  0  0  0  0  0  0  0  0
  130.2370  124.3210   70.1200 C   0  0  0  0  0  0  0  0  0  0  0  0
  129.8750  124.9620   71.3160 C   0  0  0  0  0  0  0  0  0  0  0  0
  130.2490  124.4540   72.5660 N   0  0  0  0  0  0  0  0  0  0  0  0
  130.6490  125.3490   73.6710 C   0  0  0  0  0  0  0  0  0  0  0  0
  130.6850  124.6570   75.0510 C   0  0  0  0  0  0  0  0  0  0  0  0
  131.5230  123.5140   74.9960 O   0  0  0  0  0  0  0  0  0  0  0  0
  131.0480  122.5680   74.0530 C   0  0  0  0  0  0  0  0  0  0  0  0
  131.0180  123.1940   72.6420 C   0  0  0  0  0  0  0  0  0  0  0  0
  129.1540  126.1600   71.2220 C   0  0  0  0  0  0  0  0  0  0  0  0
  128.7840  126.6830   69.9860 C   0  0  0  0  0  0  0  0  0  0  0  0
  129.3940  126.2700   66.2970 C   0  0  0  0  0  0  0  0  0  0  0  0
  128.9890  126.8030   65.0680 C   0  0  0  0  0  0  0  0  0  0  0  0
  129.7240  126.4100   63.8400 C   0  0  0  0  0  0  0  0  0  0  0  0
  129.8470  125.0630   63.4930 C   0  0  0  0  0  0  0  0  0  0  0  0
  130.5210  124.6910   62.3330 C   0  0  0  0  0  0  0  0  0  0  0  0
  131.0920  125.6570   61.4900 C   0  0  0  0  0  0  0  0  0  0  0  0
  131.7640  125.3070   60.3140 N   0  0  0  0  0  0  0  0  0  0  0  0
  132.6460  124.1230   60.3140 C   0  0  0  0  0  0  0  0  0  0  0  0
  133.6080  124.0810   59.1070 C   0  0  0  0  0  0  0  0  0  0  0  0
  132.8700  124.1570   57.8960 O   0  0  0  0  0  0  0  0  0  0  0  0
  132.1170  125.3570   57.8160 C   0  0  0  0  0  0  0  0  0  0  0  0
  131.1200  125.4370   58.9930 C   0  0  0  0  0  0  0  0  0  0  0  0
  130.9450  127.0080   61.8380 C   0  0  0  0  0  0  0  0  0  0  0  0
  130.2710  127.3800   62.9980 C   0  0  0  0  0  0  0  0  0  0  0  0
  127.8830  127.7000   65.0650 C   0  0  0  0  0  0  0  0  0  0  0  0
  127.2130  127.8810   62.0220 H   0  0  0  0  0  0  0  0  0  0  0  0
  128.4520  129.0060   62.4220 H   0  0  0  0  0  0  0  0  0  0  0  0
  126.7080  130.2260   62.2660 H   0  0  0  0  0  0  0  0  0  0  0  0
  123.9989  134.1698   60.5289 H   0  0  0  0  0  0  0  0  0  0  0  0
  123.5310  132.4064   58.6574 H   0  0  0  0  0  0  0  0  0  0  0  0
  130.1529  124.3153   67.9651 H   0  0  0  0  0  0  0  0  0  0  0  0
  130.8245  123.3919   70.1598 H   0  0  0  0  0  0  0  0  0  0  0  0
  131.6533  125.7414   73.4534 H   0  0  0  0  0  0  0  0  0  0  0  0
  129.8906  126.1436   73.7305 H   0  0  0  0  0  0  0  0  0  0  0  0
  131.0757  125.3600   75.8015 H   0  0  0  0  0  0  0  0  0  0  0  0
  129.6665  124.3465   75.3272 H   0  0  0  0  0  0  0  0  0  0  0  0
  131.7143  121.6928   74.0486 H   0  0  0  0  0  0  0  0  0  0  0  0
  130.0292  122.2616   74.3325 H   0  0  0  0  0  0  0  0  0  0  0  0
  132.0530  123.3998   72.3316 H   0  0  0  0  0  0  0  0  0  0  0  0
  130.5167  122.4717   71.9810 H   0  0  0  0  0  0  0  0  0  0  0  0
  128.8755  126.6966   72.1410 H   0  0  0  0  0  0  0  0  0  0  0  0
  128.2143  127.6230   69.9430 H   0  0  0  0  0  0  0  0  0  0  0  0
  130.2585  125.5909   66.3357 H   0  0  0  0  0  0  0  0  0  0  0  0
  129.4081  124.2901   64.1410 H   0  0  0  0  0  0  0  0  0  0  0  0
  130.6072  123.6255   62.0736 H   0  0  0  0  0  0  0  0  0  0  0  0
  133.2438  124.1324   61.2373 H   0  0  0  0  0  0  0  0  0  0  0  0
  132.0006  123.2347   60.2486 H   0  0  0  0  0  0  0  0  0  0  0  0
  134.3024  124.9321   59.1646 H   0  0  0  0  0  0  0  0  0  0  0  0
  134.1728  123.1373   59.1275 H   0  0  0  0  0  0  0  0  0  0  0  0
  132.7997  126.2185   57.8582 H   0  0  0  0  0  0  0  0  0  0  0  0
  131.5578  125.3689   56.8688 H   0  0  0  0  0  0  0  0  0  0  0  0
  130.6058  126.4085   58.9495 H   0  0  0  0  0  0  0  0  0  0  0  0
  130.4223  124.5933   58.8865 H   0  0  0  0  0  0  0  0  0  0  0  0
  131.3686  127.7850   61.1846 H   0  0  0  0  0  0  0  0  0  0  0  0
  130.1688  128.4452   63.2528 H   0  0  0  0  0  0  0  0  0  0  0  0
  1  2  1  0
  2  3  2  0
  3  4  1  0
  4  5  2  0
  4  6  1  0
  6  7  1  0
  7  8  2  0
  8  9  1  0
  9 10  2  0
 10 11  1  0
  3 12  1  0
 12 13  1  0
 13 14  2  0
 14 15  1  0
 15 16  1  0
 16 17  2  0
 17 18  1  0
 18 19  2  0
 19 20  1  0
 20 21  1  0
 21 22  1  0
 22 23  1  0
 23 24  1  0
 24 25  1  0
 19 26  1  0
 26 27  2  0
 15 28  2  0
 28 29  1  0
 29 30  1  0
 30 31  2  0
 31 32  1  0
 32 33  2  0
 33 34  1  0
 34 35  1  0
 35 36  1  0
 36 37  1  0
 37 38  1  0
 38 39  1  0
 33 40  1  0
 40 41  2  0
 29 42  2  0
 42  2  1  0
 11  7  1  0
 42 13  1  0
 27 16  1  0
 41 30  1  0
 25 20  1  0
 39 34  1  0
  1 43  1  0
  1 44  1  0
  6 45  1  0
  9 46  1  0
 10 47  1  0
 17 48  1  0
 18 49  1  0
 21 50  1  0
 21 51  1  0
 22 52  1  0
 22 53  1  0
 24 54  1  0
 24 55  1  0
 25 56  1  0
 25 57  1  0
 26 58  1  0
 27 59  1  0
 28 60  1  0
 31 61  1  0
 32 62  1  0
 35 63  1  0
 35 64  1  0
 36 65  1  0
 36 66  1  0
 38 67  1  0
 38 68  1  0
 39 69  1  0
 39 70  1  0
 40 71  1  0
 41 72  1  0
M  END
>  <Binding energies>  (1) 
[-8.69]

>  <Ligand effiencies>  (1) 
[-0.1931111111111111]

>  <Interactions>  (1) 
["V-A:GLU:543:CD:4908, V-A:HIS:456:CD2:4068, V-B:GLU:543:CD:9880, V-A:ASP:366:CG:3213, V-B:GLU:543:CB:9878, V-A:TYR:484:CZ:4347, V-B:GLU:543:C:9874, V-A:TYR:484:CE1:4345, V-B:HIS:456:CE1:9040, V-A:HIS:456:CE1:4069, H-B:TYR:484:OH:9319, V-A:TYR:539:CE2:4876, H-B:LYS:547:NZ:9923, V-B:ILE:369:CG2:8208, V-B:ILE:369:CD1:8210, V-A:ASP:366:CA:3210, V-A:ILE:369:CG2:3237, H-B:GLU:543:OE2:9882, H-B:GLY:454:N:9021, H-B:ARG:545:NH2:9900, V-B:ASP:366:CG:8184, H-A:GLU:543:OE1:4909, V-A:ASP:366:CB:3212, H-B:GLU:543:OE1:9881, V-A:TYR:484:CE2:4346, V-A:HIS:456:CG:4066, V-A:TYR:484:CD1:4343, V-A:TYR:484:CD2:4344, V-A:HIS:456:CB:4065, V-A:ASP:473:CG:4240, V-A:ASP:473:CB:4239, H-B:TYR:539:OH:9850"]

$$$$
9d_Ghoteimi_2023
     RDKit          3D

 68 73  0  0  0  0  0  0  0  0999 V2000
  124.8390  130.2580   58.7140 C   0  0  0  0  0  0  0  0  0  0  0  0
  125.4310  130.5750   59.9660 O   0  0  0  0  0  0  0  0  0  0  0  0
  124.7470  130.3910   61.1260 C   0  0  0  0  0  0  0  0  0  0  0  0
  123.5690  130.7170   61.2900 O   0  0  0  0  0  0  0  0  0  0  0  0
  125.5670  129.7600   62.1830 C   0  0  0  0  0  0  0  0  0  0  0  0
  125.1650  130.0240   63.8800 S   0  0  0  0  0  0  0  0  0  0  0  0
  126.4810  128.9950   64.3930 C   0  0  0  0  0  0  0  0  0  0  0  0
  126.7080  128.7430   65.6810 N   0  0  0  0  0  0  0  0  0  0  0  0
  127.7460  127.9160   65.9750 C   0  0  0  0  0  0  0  0  0  0  0  0
  127.9660  127.6270   67.4250 C   0  0  0  0  0  0  0  0  0  0  0  0
  129.0490  128.1930   68.1060 C   0  0  0  0  0  0  0  0  0  0  0  0
  129.2640  127.9280   69.4550 C   0  0  0  0  0  0  0  0  0  0  0  0
  128.3950  127.0950   70.1780 C   0  0  0  0  0  0  0  0  0  0  0  0
  128.6080  126.8060   71.5300 N   0  0  0  0  0  0  0  0  0  0  0  0
  127.5240  126.9400   72.5250 C   0  0  0  0  0  0  0  0  0  0  0  0
  128.0130  126.9210   73.9880 C   0  0  0  0  0  0  0  0  0  0  0  0
  128.7810  125.7540   74.2270 O   0  0  0  0  0  0  0  0  0  0  0  0
  129.9250  125.7030   73.3900 C   0  0  0  0  0  0  0  0  0  0  0  0
  129.4960  125.6860   71.9070 C   0  0  0  0  0  0  0  0  0  0  0  0
  127.3200  126.5180   69.4870 C   0  0  0  0  0  0  0  0  0  0  0  0
  127.1070  126.7810   68.1360 C   0  0  0  0  0  0  0  0  0  0  0  0
  128.5710  127.3740   64.9850 C   0  0  0  0  0  0  0  0  0  0  0  0
  128.3480  127.6520   63.6320 C   0  0  0  0  0  0  0  0  0  0  0  0
  129.2730  127.0720   62.6220 C   0  0  0  0  0  0  0  0  0  0  0  0
  130.0640  127.8980   61.8220 C   0  0  0  0  0  0  0  0  0  0  0  0
  130.9420  127.3500   60.8900 C   0  0  0  0  0  0  0  0  0  0  0  0
  131.0630  125.9580   60.7470 C   0  0  0  0  0  0  0  0  0  0  0  0
  131.9290  125.3840   59.8140 N   0  0  0  0  0  0  0  0  0  0  0  0
  131.6730  125.5910   58.3750 C   0  0  0  0  0  0  0  0  0  0  0  0
  132.8880  125.2490   57.4860 C   0  0  0  0  0  0  0  0  0  0  0  0
  133.3180  123.9200   57.7380 O   0  0  0  0  0  0  0  0  0  0  0  0
  133.7000  123.7410   59.0940 C   0  0  0  0  0  0  0  0  0  0  0  0
  132.5030  124.0410   60.0210 C   0  0  0  0  0  0  0  0  0  0  0  0
  130.2620  125.1380   61.5550 C   0  0  0  0  0  0  0  0  0  0  0  0
  129.3840  125.6870   62.4840 C   0  0  0  0  0  0  0  0  0  0  0  0
  127.2410  128.4820   63.3000 C   0  0  0  0  0  0  0  0  0  0  0  0
  126.6800  128.9220   62.0490 C   0  0  0  0  0  0  0  0  0  0  0  0
  127.1800  128.5350   60.8320 N   0  0  0  0  0  0  0  0  0  0  0  0
  123.8805  129.7448   58.8811 H   0  0  0  0  0  0  0  0  0  0  0  0
  124.6651  131.1837   58.1458 H   0  0  0  0  0  0  0  0  0  0  0  0
  125.5130  129.6001   58.1458 H   0  0  0  0  0  0  0  0  0  0  0  0
  129.7407  128.8572   67.5672 H   0  0  0  0  0  0  0  0  0  0  0  0
  130.1291  128.3786   69.9635 H   0  0  0  0  0  0  0  0  0  0  0  0
  127.0050  127.8931   72.3456 H   0  0  0  0  0  0  0  0  0  0  0  0
  126.8639  126.0693   72.3975 H   0  0  0  0  0  0  0  0  0  0  0  0
  128.6328  127.8100   74.1765 H   0  0  0  0  0  0  0  0  0  0  0  0
  127.1421  126.9242   74.6600 H   0  0  0  0  0  0  0  0  0  0  0  0
  130.5527  126.5867   73.5772 H   0  0  0  0  0  0  0  0  0  0  0  0
  130.4930  124.7873   73.6114 H   0  0  0  0  0  0  0  0  0  0  0  0
  130.4009  125.7359   71.2836 H   0  0  0  0  0  0  0  0  0  0  0  0
  128.9264  124.7583   71.7488 H   0  0  0  0  0  0  0  0  0  0  0  0
  126.6327  125.8457   70.0214 H   0  0  0  0  0  0  0  0  0  0  0  0
  126.2525  126.3178   67.6210 H   0  0  0  0  0  0  0  0  0  0  0  0
  129.4070  126.7200   65.2737 H   0  0  0  0  0  0  0  0  0  0  0  0
  129.9934  128.9906   61.9284 H   0  0  0  0  0  0  0  0  0  0  0  0
  131.5482  128.0157   60.2580 H   0  0  0  0  0  0  0  0  0  0  0  0
  130.8292  124.9525   58.0746 H   0  0  0  0  0  0  0  0  0  0  0  0
  131.4538  126.6594   58.2323 H   0  0  0  0  0  0  0  0  0  0  0  0
  132.6030  125.3447   56.4279 H   0  0  0  0  0  0  0  0  0  0  0  0
  133.7096  125.9431   57.7166 H   0  0  0  0  0  0  0  0  0  0  0  0
  134.0280  122.7022   59.2464 H   0  0  0  0  0  0  0  0  0  0  0  0
  134.5239  124.4298   59.3321 H   0  0  0  0  0  0  0  0  0  0  0  0
  131.7189  123.2930   59.8324 H   0  0  0  0  0  0  0  0  0  0  0  0
  132.8733  124.0001   61.0560 H   0  0  0  0  0  0  0  0  0  0  0  0
  130.3290  124.0448   61.4527 H   0  0  0  0  0  0  0  0  0  0  0  0
  128.7725  125.0249   63.1147 H   0  0  0  0  0  0  0  0  0  0  0  0
  127.7970  127.7410   60.7380 H   0  0  0  0  0  0  0  0  0  0  0  0
  126.9440  129.0310   59.9830 H   0  0  0  0  0  0  0  0  0  0  0  0
  1  2  1  0
  2  3  1  0
  3  4  2  0
  3  5  1  0
  5  6  1  0
  6  7  1  0
  7  8  2  0
  8  9  1  0
  9 10  1  0
 10 11  2  0
 11 12  1  0
 12 13  2  0
 13 14  1  0
 14 15  1  0
 15 16  1  0
 16 17  1  0
 17 18  1  0
 18 19  1  0
 13 20  1  0
 20 21  2  0
  9 22  2  0
 22 23  1  0
 23 24  1  0
 24 25  2  0
 25 26  1  0
 26 27  2  0
 27 28  1  0
 28 29  1  0
 29 30  1  0
 30 31  1  0
 31 32  1  0
 32 33  1  0
 27 34  1  0
 34 35  2  0
 23 36  2  0
 36 37  1  0
 37 38  1  0
 37  5  2  0
 36  7  1  0
 21 10  1  0
 35 24  1  0
 19 14  1  0
 33 28  1  0
  1 39  1  0
  1 40  1  0
  1 41  1  0
 11 42  1  0
 12 43  1  0
 15 44  1  0
 15 45  1  0
 16 46  1  0
 16 47  1  0
 18 48  1  0
 18 49  1  0
 19 50  1  0
 19 51  1  0
 20 52  1  0
 21 53  1  0
 22 54  1  0
 25 55  1  0
 26 56  1  0
 29 57  1  0
 29 58  1  0
 30 59  1  0
 30 60  1  0
 32 61  1  0
 32 62  1  0
 33 63  1  0
 33 64  1  0
 34 65  1  0
 35 66  1  0
 38 67  1  0
 38 68  1  0
M  END
>  <Binding energies>  (1) 
[-8.0]

>  <Ligand effiencies>  (1) 
[-0.2]

>  <Interactions>  (1) 
["V-A:GLU:543:CD:4908, V-A:HIS:456:CD2:4068, V-B:GLU:543:CD:9880, V-A:ASP:366:CG:3213, V-B:GLU:543:CB:9878, V-B:GLU:543:C:9874, V-B:HIS:456:CE1:9040, V-B:ARG:545:CZ:9898, H-B:TYR:484:OH:9319, V-A:GLU:543:CB:4906, V-B:GLY:544:C:9884, H-B:LYS:547:NZ:9923, V-A:ASP:366:CA:3210, V-A:ILE:369:CB:3236, V-A:ILE:369:CG2:3237, V-B:ASP:366:CG:8184, V-A:ASP:366:CB:3212, V-B:ASP:366:CB:8183, V-A:ASP:366:C:3208, H-B:TYR:539:OH:9850"]

$$$$
RR10_Rahimova_2017
     RDKit          3D

 66 70  0  0  0  0  0  0  0  0999 V2000
  124.2410  129.9310   65.1890 C   0  0  0  0  0  0  0  0  0  0  0  0
  124.8650  130.3090   63.8340 C   0  0  1  0  0  0  0  0  0  0  0  0
  126.2510  129.6530   63.6340 C   0  0  0  0  0  0  0  0  0  0  0  0
  126.8730  130.0740   62.2840 C   0  0  0  0  0  0  0  0  0  0  0  0
  125.9620  129.7130   61.0820 C   0  0  1  0  0  0  0  0  0  0  0  0
  125.8820  128.2570   60.9080 N   0  0  0  0  0  0  0  0  0  0  0  0
  126.8230  127.4870   60.3330 C   0  0  0  0  0  0  0  0  0  0  0  0
  127.8880  127.9370   59.9020 O   0  0  0  0  0  0  0  0  0  0  0  0
  126.5120  125.9800   60.2150 C   0  0  1  0  0  0  0  0  0  0  0  0
  125.7120  125.7210   58.9120 C   0  0  0  0  0  0  0  0  0  0  0  0
  125.4780  124.2000   58.7430 C   0  0  0  0  0  0  0  0  0  0  0  0
  126.7860  123.3830   58.8510 C   0  0  0  0  0  0  0  0  0  0  0  0
  127.5240  123.7370   60.0940 N   0  0  0  0  0  0  0  0  0  0  0  0
  128.8780  122.6590   60.4750 S   0  0  0  0  0  0  0  0  0  0  0  0
  130.0180  123.0420   59.6330 O   0  0  0  0  0  0  0  0  0  0  0  0
  128.3750  121.2790   60.4550 O   0  0  0  0  0  0  0  0  0  0  0  0
  129.3280  123.0560   62.1640 C   0  0  0  0  0  0  0  0  0  0  0  0
  130.1730  122.1920   62.8690 C   0  0  0  0  0  0  0  0  0  0  0  0
  130.5590  122.4430   64.1890 C   0  0  0  0  0  0  0  0  0  0  0  0
  130.0610  123.6090   64.7740 C   0  0  0  0  0  0  0  0  0  0  0  0
  130.2000  124.1870   66.0130 N   0  0  0  0  0  0  0  0  0  0  0  0
  129.4630  125.3540   66.0230 C   0  0  0  0  0  0  0  0  0  0  0  0
  129.3620  126.2620   67.2150 C   0  0  0  0  0  0  0  0  0  0  0  0
  129.5220  127.6470   67.0670 C   0  0  0  0  0  0  0  0  0  0  0  0
  129.4250  128.4910   68.1700 C   0  0  0  0  0  0  0  0  0  0  0  0
  129.1670  127.9540   69.4290 C   0  0  0  0  0  0  0  0  0  0  0  0
  129.0040  126.5810   69.5920 C   0  0  0  0  0  0  0  0  0  0  0  0
  129.1020  125.7380   68.4880 C   0  0  0  0  0  0  0  0  0  0  0  0
  128.8660  125.5680   64.8720 N   0  0  0  0  0  0  0  0  0  0  0  0
  129.2130  124.5050   64.0800 C   0  0  0  0  0  0  0  0  0  0  0  0
  128.8440  124.2280   62.7560 C   0  0  0  0  0  0  0  0  0  0  0  0
  127.8390  125.1830   60.2050 C   0  0  0  0  0  0  0  0  0  0  0  0
  124.5700  130.3640   61.3050 C   0  0  0  0  0  0  0  0  0  0  0  0
  123.9410  129.9400   62.6510 C   0  0  0  0  0  0  0  0  0  0  0  0
  124.8733  130.3141   66.0035 H   0  0  0  0  0  0  0  0  0  0  0  0
  123.2365  130.3726   65.2660 H   0  0  0  0  0  0  0  0  0  0  0  0
  124.1672  128.8362   65.2660 H   0  0  0  0  0  0  0  0  0  0  0  0
  124.9936  131.4013   63.8510 H   0  0  0  0  0  0  0  0  0  0  0  0
  126.9183  129.9658   64.4507 H   0  0  0  0  0  0  0  0  0  0  0  0
  126.1252  128.5602   63.6364 H   0  0  0  0  0  0  0  0  0  0  0  0
  127.0343  131.1621   62.2921 H   0  0  0  0  0  0  0  0  0  0  0  0
  127.8215  129.5298   62.1646 H   0  0  0  0  0  0  0  0  0  0  0  0
  126.3864  130.1093   60.1477 H   0  0  0  0  0  0  0  0  0  0  0  0
  124.9950  127.8330   61.1400 H   0  0  0  0  0  0  0  0  0  0  0  0
  125.9071  125.6518   61.0731 H   0  0  0  0  0  0  0  0  0  0  0  0
  124.7422  126.2370   58.9686 H   0  0  0  0  0  0  0  0  0  0  0  0
  126.2807  126.1021   58.0510 H   0  0  0  0  0  0  0  0  0  0  0  0
  124.7847  123.8607   59.5267 H   0  0  0  0  0  0  0  0  0  0  0  0
  125.0640  124.0358   57.7372 H   0  0  0  0  0  0  0  0  0  0  0  0
  126.5419  122.3106   58.8686 H   0  0  0  0  0  0  0  0  0  0  0  0
  127.4213  123.6146   57.9834 H   0  0  0  0  0  0  0  0  0  0  0  0
  130.5456  121.2861   62.3685 H   0  0  0  0  0  0  0  0  0  0  0  0
  131.2209  121.7574   64.7384 H   0  0  0  0  0  0  0  0  0  0  0  0
  130.7280  123.8570   66.8090 H   0  0  0  0  0  0  0  0  0  0  0  0
  129.7257  128.0699   66.0722 H   0  0  0  0  0  0  0  0  0  0  0  0
  129.5515  129.5768   68.0477 H   0  0  0  0  0  0  0  0  0  0  0  0
  129.0914  128.6199   70.3013 H   0  0  0  0  0  0  0  0  0  0  0  0
  128.7986  126.1638   70.5889 H   0  0  0  0  0  0  0  0  0  0  0  0
  128.9744  124.6530   68.6163 H   0  0  0  0  0  0  0  0  0  0  0  0
  128.1909  124.9143   62.1970 H   0  0  0  0  0  0  0  0  0  0  0  0
  128.3910  125.3712   61.1377 H   0  0  0  0  0  0  0  0  0  0  0  0
  128.4594  125.4982   59.3531 H   0  0  0  0  0  0  0  0  0  0  0  0
  124.6841  131.4580   61.2954 H   0  0  0  0  0  0  0  0  0  0  0  0
  123.9039  130.0260   60.4975 H   0  0  0  0  0  0  0  0  0  0  0  0
  122.9758  130.4530   62.7746 H   0  0  0  0  0  0  0  0  0  0  0  0
  123.7991  128.8492   62.6437 H   0  0  0  0  0  0  0  0  0  0  0  0
  1  2  1  0
  2  3  1  0
  3  4  1  0
  4  5  1  0
  5  6  1  0
  6  7  1  0
  7  8  2  0
  7  9  1  0
  9 10  1  0
 10 11  1  0
 11 12  1  0
 12 13  1  0
 13 14  1  0
 14 15  2  0
 14 16  2  0
 14 17  1  0
 17 18  2  0
 18 19  1  0
 19 20  2  0
 20 21  1  0
 21 22  1  0
 22 23  1  0
 23 24  2  0
 24 25  1  0
 25 26  2  0
 26 27  1  0
 27 28  2  0
 22 29  2  0
 29 30  1  0
 30 31  2  0
 13 32  1  0
  5 33  1  0
 33 34  1  0
 34  2  1  0
 32  9  1  0
 31 17  1  0
 30 20  1  0
 28 23  1  0
  1 35  1  0
  1 36  1  0
  1 37  1  0
  2 38  1  1
  3 39  1  0
  3 40  1  0
  4 41  1  0
  4 42  1  0
  5 43  1  6
  6 44  1  0
  9 45  1  1
 10 46  1  0
 10 47  1  0
 11 48  1  0
 11 49  1  0
 12 50  1  0
 12 51  1  0
 18 52  1  0
 19 53  1  0
 21 54  1  0
 24 55  1  0
 25 56  1  0
 26 57  1  0
 27 58  1  0
 28 59  1  0
 31 60  1  0
 32 61  1  0
 32 62  1  0
 33 63  1  0
 33 64  1  0
 34 65  1  0
 34 66  1  0
M  END
>  <Binding energies>  (1) 
[-9.17]

>  <Ligand effiencies>  (1) 
[-0.25472222222222224]

>  <Interactions>  (1) 
["V-A:GLU:543:CD:4908, V-B:GLU:543:CD:9880, V-A:LEU:475:CD1:4258, H-B:ALA:541:N:9863, V-B:GLU:543:CB:9878, H-A:TYR:484:OH:4348, V-A:TYR:484:CZ:4347, V-B:GLU:543:C:9874, V-A:TYR:484:CE1:4345, V-B:HIS:456:CE1:9040, V-B:TYR:539:CE2:9848, V-A:HIS:456:CE1:4069, V-B:GLU:543:CG:9879, V-B:ARG:545:CD:9895, V-B:ARG:545:CZ:9898, V-A:GLU:543:CB:4906, V-B:PRO:540:CA:9855, V-B:ALA:541:CB:9864, V-A:GLU:543:CG:4907, V-B:PRO:540:CB:9857, H-B:GLU:543:OE2:9882, V-B:ASP:366:CG:8184, H-B:ASP:366:OD1:8185, H-B:ASP:366:OD2:8186, V-A:GLU:543:C:4902"]

$$$$
RR11_Rahimova_2017
     RDKit          3D

 55 60  0  0  0  0  0  0  0  0999 V2000
  131.7970  123.1000   74.4690 N   0  0  0  0  0  0  0  0  0  0  0  0
  131.1120  123.7730   73.4590 C   0  0  0  0  0  0  0  0  0  0  0  0
  130.9170  123.1580   72.2240 C   0  0  0  0  0  0  0  0  0  0  0  0
  130.2300  123.8300   71.2170 C   0  0  0  0  0  0  0  0  0  0  0  0
  129.7330  125.1210   71.4340 C   0  0  0  0  0  0  0  0  0  0  0  0
  128.9880  125.8420   70.3490 C   0  0  0  0  0  0  0  0  0  0  0  0
  129.5260  126.7320   69.5440 N   0  0  0  0  0  0  0  0  0  0  0  0
  128.5120  127.1240   68.7100 C   0  0  0  0  0  0  0  0  0  0  0  0
  128.5390  128.0500   67.6580 C   0  0  0  0  0  0  0  0  0  0  0  0
  127.3610  128.2670   66.9320 C   0  0  0  0  0  0  0  0  0  0  0  0
  127.3590  129.2710   65.7870 C   0  0  0  0  0  0  0  0  0  0  0  0
  127.7760  128.6570   64.4580 C   0  0  0  0  0  0  0  0  0  0  0  0
  126.9060  128.7270   63.3640 C   0  0  0  0  0  0  0  0  0  0  0  0
  127.2480  128.1870   62.1220 C   0  0  0  0  0  0  0  0  0  0  0  0
  128.4990  127.5700   61.9920 C   0  0  0  0  0  0  0  0  0  0  0  0
  129.0590  126.9650   60.8970 N   0  0  0  0  0  0  0  0  0  0  0  0
  130.2380  126.5430   61.2980 C   0  0  0  0  0  0  0  0  0  0  0  0
  131.2140  125.7980   60.4320 C   0  0  0  0  0  0  0  0  0  0  0  0
  132.1060  124.8780   60.9960 C   0  0  0  0  0  0  0  0  0  0  0  0
  133.0180  124.1950   60.1950 C   0  0  0  0  0  0  0  0  0  0  0  0
  133.0430  124.4290   58.8220 C   0  0  0  0  0  0  0  0  0  0  0  0
  133.9590  123.7500   58.0190 N   0  0  0  0  0  0  0  0  0  0  0  0
  132.1590  125.3380   58.2470 C   0  0  0  0  0  0  0  0  0  0  0  0
  131.2480  126.0200   59.0490 C   0  0  0  0  0  0  0  0  0  0  0  0
  130.4760  126.8560   62.6200 N   0  0  0  0  0  0  0  0  0  0  0  0
  129.3720  127.5170   63.1040 C   0  0  0  0  0  0  0  0  0  0  0  0
  129.0390  128.0610   64.3470 C   0  0  0  0  0  0  0  0  0  0  0  0
  126.1820  127.5940   67.2690 C   0  0  0  0  0  0  0  0  0  0  0  0
  126.1210  126.6700   68.3150 C   0  0  0  0  0  0  0  0  0  0  0  0
  127.3070  126.4510   69.0200 C   0  0  0  0  0  0  0  0  0  0  0  0
  127.6510  125.6410   70.0770 N   0  0  0  0  0  0  0  0  0  0  0  0
  129.9380  125.7290   72.6800 C   0  0  0  0  0  0  0  0  0  0  0  0
  130.6240  125.0590   73.6900 C   0  0  0  0  0  0  0  0  0  0  0  0
  131.6110  123.3310   75.4350 H   0  0  0  0  0  0  0  0  0  0  0  0
  132.4400  122.3620   74.2260 H   0  0  0  0  0  0  0  0  0  0  0  0
  131.3049  122.1443   72.0453 H   0  0  0  0  0  0  0  0  0  0  0  0
  130.0763  123.3429   70.2428 H   0  0  0  0  0  0  0  0  0  0  0  0
  129.4626  128.5929   67.4087 H   0  0  0  0  0  0  0  0  0  0  0  0
  126.3434  129.6800   65.6810 H   0  0  0  0  0  0  0  0  0  0  0  0
  128.0925  130.0529   66.0332 H   0  0  0  0  0  0  0  0  0  0  0  0
  125.9296  129.2190   63.4851 H   0  0  0  0  0  0  0  0  0  0  0  0
  126.5546  128.2446   61.2700 H   0  0  0  0  0  0  0  0  0  0  0  0
  132.0864  124.6932   62.0802 H   0  0  0  0  0  0  0  0  0  0  0  0
  133.7159  123.4735   60.6449 H   0  0  0  0  0  0  0  0  0  0  0  0
  134.7540  124.2460   57.6420 H   0  0  0  0  0  0  0  0  0  0  0  0
  133.8360  122.7610   57.8530 H   0  0  0  0  0  0  0  0  0  0  0  0
  132.1803  125.5169   57.1618 H   0  0  0  0  0  0  0  0  0  0  0  0
  130.5501  126.7381   58.5938 H   0  0  0  0  0  0  0  0  0  0  0  0
  131.3280  126.6120   63.1030 H   0  0  0  0  0  0  0  0  0  0  0  0
  129.7352  128.0232   65.1978 H   0  0  0  0  0  0  0  0  0  0  0  0
  125.2699  127.7997   66.6895 H   0  0  0  0  0  0  0  0  0  0  0  0
  125.1895  126.1434   68.5697 H   0  0  0  0  0  0  0  0  0  0  0  0
  127.0710  124.9950   70.5910 H   0  0  0  0  0  0  0  0  0  0  0  0
  129.5539  126.7436   72.8617 H   0  0  0  0  0  0  0  0  0  0  0  0
  130.7803  125.5420   74.6658 H   0  0  0  0  0  0  0  0  0  0  0  0
  1  2  1  0
  2  3  2  0
  3  4  1  0
  4  5  2  0
  5  6  1  0
  6  7  2  0
  7  8  1  0
  8  9  2  0
  9 10  1  0
 10 11  1  0
 11 12  1  0
 12 13  2  0
 13 14  1  0
 14 15  2  0
 15 16  1  0
 16 17  2  0
 17 18  1  0
 18 19  2  0
 19 20  1  0
 20 21  2  0
 21 22  1  0
 21 23  1  0
 23 24  2  0
 17 25  1  0
 25 26  1  0
 26 27  2  0
 10 28  2  0
 28 29  1  0
 29 30  2  0
 30 31  1  0
  5 32  1  0
 32 33  2  0
 33  2  1  0
 31  6  1  0
 30  8  1  0
 27 12  1  0
 26 15  1  0
 24 18  1  0
  1 34  1  0
  1 35  1  0
  3 36  1  0
  4 37  1  0
  9 38  1  0
 11 39  1  0
 11 40  1  0
 13 41  1  0
 14 42  1  0
 19 43  1  0
 20 44  1  0
 22 45  1  0
 22 46  1  0
 23 47  1  0
 24 48  1  0
 25 49  1  0
 27 50  1  0
 28 51  1  0
 29 52  1  0
 31 53  1  0
 32 54  1  0
 33 55  1  0
M  END
>  <Binding energies>  (1) 
[-7.74]

>  <Ligand effiencies>  (1) 
[-0.19846153846153847]

>  <Interactions>  (1) 
["H-A:HIS:456:NE2:4070, V-A:GLU:543:CD:4908, V-A:HIS:456:CD2:4068, V-B:GLU:543:CD:9880, V-A:ASP:366:CG:3213, V-B:GLU:543:CB:9878, V-A:TYR:484:CZ:4347, V-B:GLU:543:C:9874, V-A:TYR:484:CE1:4345, V-B:HIS:456:CE1:9040, V-B:TYR:539:CE2:9848, V-A:HIS:456:CE1:4069, V-B:ARG:545:CG:9894, V-B:ARG:545:CA:9891, V-B:GLY:544:C:9884, V-A:ASP:366:CA:3210, V-A:ILE:369:CB:3236, V-A:ILE:369:CG2:3237, H-B:GLU:543:O:9875, H-A:GLU:543:OE1:4909, H-A:GLU:543:OE2:4910, V-A:ASP:366:CB:3212, V-A:ASP:366:C:3208, V-A:TYR:484:CG:4342, V-A:TYR:484:CE2:4346, V-A:HIS:456:CG:4066, V-A:TYR:484:CD1:4343, V-A:TYR:484:CD2:4344, V-B:GLY:544:CA:9886, V-A:HIS:456:CB:4065, V-A:ASP:473:CG:4240, V-A:ASP:473:CB:4239, H-B:TYR:539:OH:9850, H-B:GLY:544:O:9885, H-A:ASP:473:OD1:4241, V-B:ARG:545:CB:9893, H-A:ASP:366:O:3209"]

$$$$
RR11_Rahimova_2017-again1
     RDKit          3D

 56 61  0  0  0  0  0  0  0  0999 V2000
  131.6960  122.7420   73.9950 N   0  0  0  0  0  0  0  0  0  0  0  0
  130.9990  123.4790   73.0400 C   0  0  0  0  0  0  0  0  0  0  0  0
  130.6700  122.8970   71.8170 C   0  0  0  0  0  0  0  0  0  0  0  0
  129.9760  123.6370   70.8630 C   0  0  0  0  0  0  0  0  0  0  0  0
  129.6060  124.9630   71.1220 C   0  0  0  0  0  0  0  0  0  0  0  0
  128.8650  125.7610   70.0890 C   0  0  0  0  0  0  0  0  0  0  0  0
  127.5590  125.7600   69.9460 N   0  0  0  0  0  0  0  0  0  0  0  0
  127.3080  126.5960   68.8890 C   0  0  0  0  0  0  0  0  0  0  0  0
  126.0840  126.9500   68.3080 C   0  0  0  0  0  0  0  0  0  0  0  0
  126.1000  127.8210   67.2170 C   0  0  0  0  0  0  0  0  0  0  0  0
  127.2980  128.3310   66.7040 C   0  0  0  0  0  0  0  0  0  0  0  0
  127.2580  129.2730   65.5090 C   0  0  0  0  0  0  0  0  0  0  0  0
  127.6350  128.5830   64.2060 C   0  0  0  0  0  0  0  0  0  0  0  0
  126.6690  128.4240   63.2050 C   0  0  0  0  0  0  0  0  0  0  0  0
  126.9550  127.7970   61.9890 C   0  0  0  0  0  0  0  0  0  0  0  0
  128.2630  127.3360   61.8140 C   0  0  0  0  0  0  0  0  0  0  0  0
  128.8770  126.6720   60.7610 N   0  0  0  0  0  0  0  0  0  0  0  0
  130.1950  126.4200   61.0660 C   0  0  0  0  0  0  0  0  0  0  0  0
  131.1960  125.7130   60.2110 C   0  0  0  0  0  0  0  0  0  0  0  0
  131.3000  126.0220   58.8490 C   0  0  0  0  0  0  0  0  0  0  0  0
  132.2360  125.3720   58.0490 C   0  0  0  0  0  0  0  0  0  0  0  0
  133.0730  124.4080   58.6080 C   0  0  0  0  0  0  0  0  0  0  0  0
  134.0130  123.7610   57.8070 N   0  0  0  0  0  0  0  0  0  0  0  0
  132.9770  124.0910   59.9620 C   0  0  0  0  0  0  0  0  0  0  0  0
  132.0410  124.7410   60.7610 C   0  0  0  0  0  0  0  0  0  0  0  0
  130.4090  126.9410   62.3210 N   0  0  0  0  0  0  0  0  0  0  0  0
  129.2400  127.5060   62.8090 C   0  0  0  0  0  0  0  0  0  0  0  0
  128.9500  128.1400   64.0210 C   0  0  0  0  0  0  0  0  0  0  0  0
  128.5330  128.0100   67.2830 C   0  0  0  0  0  0  0  0  0  0  0  0
  128.5100  127.1320   68.3690 C   0  0  0  0  0  0  0  0  0  0  0  0
  129.4840  126.5800   69.1680 N   0  0  0  0  0  0  0  0  0  0  0  0
  129.9420  125.5350   72.3560 C   0  0  0  0  0  0  0  0  0  0  0  0
  130.6360  124.7970   73.3120 C   0  0  0  0  0  0  0  0  0  0  0  0
  131.4630  122.8480   74.9720 H   0  0  0  0  0  0  0  0  0  0  0  0
  132.4530  122.1400   73.7030 H   0  0  0  0  0  0  0  0  0  0  0  0
  130.9576  121.8564   71.6060 H   0  0  0  0  0  0  0  0  0  0  0  0
  129.7163  123.1766   69.8983 H   0  0  0  0  0  0  0  0  0  0  0  0
  125.1362  126.5528   68.7003 H   0  0  0  0  0  0  0  0  0  0  0  0
  125.1482  128.1134   66.7495 H   0  0  0  0  0  0  0  0  0  0  0  0
  126.2390  129.6759   65.4121 H   0  0  0  0  0  0  0  0  0  0  0  0
  127.9945  130.0701   65.6887 H   0  0  0  0  0  0  0  0  0  0  0  0
  125.6522  128.8048   63.3813 H   0  0  0  0  0  0  0  0  0  0  0  0
  126.1894  127.6726   61.2090 H   0  0  0  0  0  0  0  0  0  0  0  0
  128.4600  126.3890   59.8860 H   0  0  0  0  0  0  0  0  0  0  0  0
  130.6384  126.7826   58.4087 H   0  0  0  0  0  0  0  0  0  0  0  0
  132.3146  125.6184   56.9798 H   0  0  0  0  0  0  0  0  0  0  0  0
  133.9260  122.7690   57.6390 H   0  0  0  0  0  0  0  0  0  0  0  0
  134.7880  124.2850   57.4270 H   0  0  0  0  0  0  0  0  0  0  0  0
  133.6395  123.3288   60.3980 H   0  0  0  0  0  0  0  0  0  0  0  0
  131.9646  124.4902   61.8293 H   0  0  0  0  0  0  0  0  0  0  0  0
  131.3050  126.8870   62.7810 H   0  0  0  0  0  0  0  0  0  0  0  0
  129.7197  128.2840   64.7935 H   0  0  0  0  0  0  0  0  0  0  0  0
  129.4753  128.4293   66.9006 H   0  0  0  0  0  0  0  0  0  0  0  0
  130.4850  126.7080   69.1240 H   0  0  0  0  0  0  0  0  0  0  0  0
  129.6555  126.5749   72.5716 H   0  0  0  0  0  0  0  0  0  0  0  0
  130.8968  125.2529   74.2785 H   0  0  0  0  0  0  0  0  0  0  0  0
  1  2  1  0
  2  3  2  0
  3  4  1  0
  4  5  2  0
  5  6  1  0
  6  7  2  0
  7  8  1  0
  8  9  2  0
  9 10  1  0
 10 11  2  0
 11 12  1  0
 12 13  1  0
 13 14  2  0
 14 15  1  0
 15 16  2  0
 16 17  1  0
 17 18  1  0
 18 19  1  0
 19 20  2  0
 20 21  1  0
 21 22  2  0
 22 23  1  0
 22 24  1  0
 24 25  2  0
 18 26  2  0
 26 27  1  0
 27 28  2  0
 11 29  1  0
 29 30  2  0
 30 31  1  0
  5 32  1  0
 32 33  2  0
 33  2  1  0
 31  6  1  0
 30  8  1  0
 28 13  1  0
 27 16  1  0
 25 19  1  0
  1 34  1  0
  1 35  1  0
  3 36  1  0
  4 37  1  0
  9 38  1  0
 10 39  1  0
 12 40  1  0
 12 41  1  0
 14 42  1  0
 15 43  1  0
 17 44  1  0
 20 45  1  0
 21 46  1  0
 23 47  1  0
 23 48  1  0
 24 49  1  0
 25 50  1  0
 26 51  1  0
 28 52  1  0
 29 53  1  0
 31 54  1  0
 32 55  1  0
 33 56  1  0
M  CHG  1  26   1
M  END
>  <Binding energies>  (1) 
[-8.05]

>  <Ligand effiencies>  (1) 
[-0.20125]

>  <Interactions>  (1) 
["V-A:GLU:543:CD:4908, V-A:HIS:456:CD2:4068, V-B:GLU:543:CD:9880, V-A:ASP:366:CG:3213, V-B:GLU:543:CB:9878, V-A:TYR:484:CZ:4347, V-B:GLU:543:C:9874, V-A:TYR:484:CE1:4345, V-B:HIS:456:CE1:9040, V-B:TYR:539:CE2:9848, V-A:HIS:456:CE1:4069, V-B:ARG:545:CG:9894, V-B:ARG:545:CA:9891, V-B:GLY:544:C:9884, V-B:TYR:539:CZ:9849, V-A:ASP:366:CA:3210, V-A:ILE:369:CB:3236, V-A:ILE:369:CG2:3237, H-A:GLU:543:OE1:4909, H-A:GLU:543:OE2:4910, V-A:ASP:366:CB:3212, V-A:ASP:366:C:3208, V-A:TYR:484:CG:4342, V-A:TYR:484:CE2:4346, V-A:HIS:456:CG:4066, V-A:TYR:484:CD1:4343, V-A:TYR:484:CD2:4344, V-A:HIS:456:CB:4065, V-A:ASP:473:CG:4240, V-A:ASP:473:CB:4239, H-B:TYR:539:OH:9850, H-A:HIS:456:ND1:4067, V-A:TYR:484:CB:4341, H-A:ASP:473:OD1:4241, V-B:ARG:545:CB:9893, H-A:ASP:366:O:3209"]

$$$$
RR11_Rahimova_2017-again2
     RDKit          3D

 57 62  0  0  0  0  0  0  0  0999 V2000
  133.9880  123.7610   57.7820 N   0  0  0  0  0  0  0  0  0  0  0  0
  133.0650  124.4190   58.5930 C   0  0  0  0  0  0  0  0  0  0  0  0
  133.0180  124.1410   59.9570 C   0  0  0  0  0  0  0  0  0  0  0  0
  132.0910  124.7940   60.7660 C   0  0  0  0  0  0  0  0  0  0  0  0
  131.2070  125.7290   60.2140 C   0  0  0  0  0  0  0  0  0  0  0  0
  130.2060  126.4230   61.0790 C   0  0  0  0  0  0  0  0  0  0  0  0
  130.3890  126.8420   62.3770 N   0  0  0  0  0  0  0  0  0  0  0  0
  129.2390  127.4640   62.8440 C   0  0  0  0  0  0  0  0  0  0  0  0
  128.9360  128.0570   64.0730 C   0  0  0  0  0  0  0  0  0  0  0  0
  127.6620  128.6230   64.2080 C   0  0  0  0  0  0  0  0  0  0  0  0
  127.2760  129.2870   65.5220 C   0  0  0  0  0  0  0  0  0  0  0  0
  127.2900  128.3210   66.6980 C   0  0  0  0  0  0  0  0  0  0  0  0
  126.0810  127.8200   67.1950 C   0  0  0  0  0  0  0  0  0  0  0  0
  126.0310  126.9300   68.2710 C   0  0  0  0  0  0  0  0  0  0  0  0
  127.2550  126.5570   68.8330 C   0  0  0  0  0  0  0  0  0  0  0  0
  127.5670  125.7190   69.8950 N   0  0  0  0  0  0  0  0  0  0  0  0
  128.9300  125.6700   70.0740 C   0  0  0  0  0  0  0  0  0  0  0  0
  129.6700  124.8990   71.1180 C   0  0  0  0  0  0  0  0  0  0  0  0
  129.9840  125.4940   72.3450 C   0  0  0  0  0  0  0  0  0  0  0  0
  130.6650  124.7730   73.3230 C   0  0  0  0  0  0  0  0  0  0  0  0
  131.0360  123.4530   73.0770 C   0  0  0  0  0  0  0  0  0  0  0  0
  131.7130  122.7280   74.0570 N   0  0  0  0  0  0  0  0  0  0  0  0
  130.7320  122.8510   71.8560 C   0  0  0  0  0  0  0  0  0  0  0  0
  130.0510  123.5730   70.8800 C   0  0  0  0  0  0  0  0  0  0  0  0
  129.4770  126.4810   69.1070 N   0  0  0  0  0  0  0  0  0  0  0  0
  128.4720  127.0450   68.3310 C   0  0  0  0  0  0  0  0  0  0  0  0
  128.5170  127.9290   67.2500 C   0  0  0  0  0  0  0  0  0  0  0  0
  126.7300  128.5670   63.1640 C   0  0  0  0  0  0  0  0  0  0  0  0
  127.0250  127.9700   61.9360 C   0  0  0  0  0  0  0  0  0  0  0  0
  128.3040  127.4240   61.7970 C   0  0  0  0  0  0  0  0  0  0  0  0
  128.9230  126.7800   60.7330 N   0  0  0  0  0  0  0  0  0  0  0  0
  131.2660  126.0030   58.8420 C   0  0  0  0  0  0  0  0  0  0  0  0
  132.1920  125.3500   58.0330 C   0  0  0  0  0  0  0  0  0  0  0  0
  133.9240  122.7600   57.6660 H   0  0  0  0  0  0  0  0  0  0  0  0
  134.7510  124.2810   57.3720 H   0  0  0  0  0  0  0  0  0  0  0  0
  133.7113  123.4075   60.3943 H   0  0  0  0  0  0  0  0  0  0  0  0
  132.0533  124.5742   61.8431 H   0  0  0  0  0  0  0  0  0  0  0  0
  131.2560  126.6990   62.8730 H   0  0  0  0  0  0  0  0  0  0  0  0
  129.6649  128.0782   64.8966 H   0  0  0  0  0  0  0  0  0  0  0  0
  127.9876  130.1004   65.7270 H   0  0  0  0  0  0  0  0  0  0  0  0
  126.2475  129.6618   65.4138 H   0  0  0  0  0  0  0  0  0  0  0  0
  125.1395  128.1374   66.7230 H   0  0  0  0  0  0  0  0  0  0  0  0
  125.0764  126.5425   68.6563 H   0  0  0  0  0  0  0  0  0  0  0  0
  126.9260  125.2060   70.4820 H   0  0  0  0  0  0  0  0  0  0  0  0
  129.6915  126.5366   72.5382 H   0  0  0  0  0  0  0  0  0  0  0  0
  130.9091  125.2444   74.2865 H   0  0  0  0  0  0  0  0  0  0  0  0
  132.4140  122.0560   73.7840 H   0  0  0  0  0  0  0  0  0  0  0  0
  131.4470  122.8360   75.0260 H   0  0  0  0  0  0  0  0  0  0  0  0
  131.0294  121.8093   71.6650 H   0  0  0  0  0  0  0  0  0  0  0  0
  129.8109  123.0992   69.9167 H   0  0  0  0  0  0  0  0  0  0  0  0
  130.4730  126.6210   69.0180 H   0  0  0  0  0  0  0  0  0  0  0  0
  129.4722  128.3004   66.8504 H   0  0  0  0  0  0  0  0  0  0  0  0
  125.7335  129.0074   63.3160 H   0  0  0  0  0  0  0  0  0  0  0  0
  126.2883  127.9316   61.1201 H   0  0  0  0  0  0  0  0  0  0  0  0
  128.5350  126.5850   59.8220 H   0  0  0  0  0  0  0  0  0  0  0  0
  130.5769  126.7383   58.4010 H   0  0  0  0  0  0  0  0  0  0  0  0
  132.2345  125.5681   56.9557 H   0  0  0  0  0  0  0  0  0  0  0  0
  1  2  1  0
  2  3  2  0
  3  4  1  0
  4  5  2  0
  5  6  1  0
  6  7  1  0
  7  8  1  0
  8  9  2  0
  9 10  1  0
 10 11  1  0
 11 12  1  0
 12 13  2  0
 13 14  1  0
 14 15  2  0
 15 16  1  0
 16 17  1  0
 17 18  1  0
 18 19  2  0
 19 20  1  0
 20 21  2  0
 21 22  1  0
 21 23  1  0
 23 24  2  0
 17 25  2  0
 25 26  1  0
 26 27  2  0
 10 28  2  0
 28 29  1  0
 29 30  2  0
 30 31  1  0
  5 32  1  0
 32 33  2  0
 33  2  1  0
 31  6  2  0
 30  8  1  0
 27 12  1  0
 26 15  1  0
 24 18  1  0
  1 34  1  0
  1 35  1  0
  3 36  1  0
  4 37  1  0
  7 38  1  0
  9 39  1  0
 11 40  1  0
 11 41  1  0
 13 42  1  0
 14 43  1  0
 16 44  1  0
 19 45  1  0
 20 46  1  0
 22 47  1  0
 22 48  1  0
 23 49  1  0
 24 50  1  0
 25 51  1  0
 27 52  1  0
 28 53  1  0
 29 54  1  0
 31 55  1  0
 32 56  1  0
 33 57  1  0
M  CHG  2  25   1  31   1
M  END
>  <Binding energies>  (1) 
[-8.19]

>  <Ligand effiencies>  (1) 
[-0.1997560975609756]

>  <Interactions>  (1) 
["V-A:GLU:543:CD:4908, V-A:HIS:456:CD2:4068, V-B:GLU:543:CD:9880, V-A:ASP:366:CG:3213, V-B:GLU:543:CB:9878, V-A:TYR:484:CZ:4347, V-B:GLU:543:C:9874, V-A:TYR:484:CE1:4345, V-B:HIS:456:CE1:9040, V-B:TYR:539:CE2:9848, V-A:HIS:456:CE1:4069, V-B:ARG:545:CG:9894, V-B:ARG:545:CA:9891, V-B:GLY:544:C:9884, V-B:TYR:539:CZ:9849, V-A:ASP:366:CA:3210, V-A:ILE:369:CB:3236, V-A:ILE:369:CG2:3237, H-B:GLU:543:O:9875, H-A:GLU:543:OE1:4909, H-A:GLU:543:OE2:4910, V-A:ASP:366:CB:3212, V-A:ASP:366:C:3208, V-A:TYR:484:CG:4342, V-A:TYR:484:CE2:4346, V-A:HIS:456:CG:4066, V-A:TYR:484:CD1:4343, V-A:TYR:484:CD2:4344, V-B:GLY:544:CA:9886, V-A:HIS:456:CB:4065, V-A:ASP:473:CG:4240, V-A:ASP:473:CB:4239, H-B:TYR:539:OH:9850, H-A:HIS:456:ND1:4067, H-B:GLY:544:O:9885, V-A:TYR:484:CB:4341, H-A:ASP:473:OD1:4241, V-B:ARG:545:CB:9893, H-A:ASP:366:O:3209"]

$$$$
RR12_Rahimova_2017
     RDKit          3D

 51 53  0  0  0  0  0  0  0  0999 V2000
  128.5710  125.6460   70.5740 C   0  0  0  0  0  0  0  0  0  0  0  0
  127.8950  126.8570   69.9170 C   0  0  0  0  0  0  0  0  0  0  0  0
  127.0260  126.4650   68.7080 C   0  0  0  0  0  0  0  0  0  0  0  0
  127.4410  127.1960   67.5130 N   0  0  0  0  0  0  0  0  0  0  0  0
  128.6650  127.1290   66.8660 C   0  0  0  0  0  0  0  0  0  0  0  0
  129.8320  126.2820   67.3450 C   0  0  0  0  0  0  0  0  0  0  0  0
  129.5430  124.7730   67.2400 C   0  0  0  0  0  0  0  0  0  0  0  0
  129.6700  124.2410   65.7990 C   0  0  0  0  0  0  0  0  0  0  0  0
  131.0380  124.2550   65.2830 N   0  0  0  0  0  0  0  0  0  0  0  0
  131.5350  125.1770   64.4380 C   0  0  0  0  0  0  0  0  0  0  0  0
  130.8710  126.1200   64.0020 O   0  0  0  0  0  0  0  0  0  0  0  0
  133.0040  124.9890   64.0400 C   0  0  0  0  0  0  0  0  0  0  0  0
  133.3560  123.6100   64.1530 O   0  0  0  0  0  0  0  0  0  0  0  0
  133.0530  122.7470   63.1170 C   0  0  0  0  0  0  0  0  0  0  0  0
  131.7150  122.3600   63.0040 C   0  0  0  0  0  0  0  0  0  0  0  0
  131.3120  121.4960   61.9890 C   0  0  0  0  0  0  0  0  0  0  0  0
  132.2510  121.0150   61.0810 C   0  0  0  0  0  0  0  0  0  0  0  0
  133.5890  121.3880   61.1810 C   0  0  0  0  0  0  0  0  0  0  0  0
  133.9910  122.2520   62.1970 C   0  0  0  0  0  0  0  0  0  0  0  0
  128.7300  127.8860   65.7990 N   0  0  0  0  0  0  0  0  0  0  0  0
  127.4970  128.4680   65.7050 C   0  0  0  0  0  0  0  0  0  0  0  0
  127.0140  129.3630   64.7380 C   0  0  0  0  0  0  0  0  0  0  0  0
  125.7000  129.8150   64.8590 C   0  0  0  0  0  0  0  0  0  0  0  0
  124.8830  129.3940   65.9090 C   0  0  0  0  0  0  0  0  0  0  0  0
  125.3340  128.5060   66.8870 C   0  0  0  0  0  0  0  0  0  0  0  0
  126.6540  128.0530   66.7660 C   0  0  0  0  0  0  0  0  0  0  0  0
  128.5161  125.7443   71.6682 H   0  0  0  0  0  0  0  0  0  0  0  0
  128.0565  124.7250   70.2624 H   0  0  0  0  0  0  0  0  0  0  0  0
  129.6250  125.6006   70.2624 H   0  0  0  0  0  0  0  0  0  0  0  0
  127.2572  127.3527   70.6636 H   0  0  0  0  0  0  0  0  0  0  0  0
  128.6891  127.5262   69.5541 H   0  0  0  0  0  0  0  0  0  0  0  0
  127.1291  125.3853   68.5245 H   0  0  0  0  0  0  0  0  0  0  0  0
  125.9785  126.7169   68.9298 H   0  0  0  0  0  0  0  0  0  0  0  0
  130.7142  126.5164   66.7313 H   0  0  0  0  0  0  0  0  0  0  0  0
  130.0051  126.5178   68.4054 H   0  0  0  0  0  0  0  0  0  0  0  0
  130.2574  124.2328   67.8786 H   0  0  0  0  0  0  0  0  0  0  0  0
  128.5042  124.6108   67.5633 H   0  0  0  0  0  0  0  0  0  0  0  0
  129.3022  123.2045   65.7783 H   0  0  0  0  0  0  0  0  0  0  0  0
  129.0787  124.9106   65.1571 H   0  0  0  0  0  0  0  0  0  0  0  0
  131.6430  123.5110   65.6000 H   0  0  0  0  0  0  0  0  0  0  0  0
  133.1473  125.3198   63.0008 H   0  0  0  0  0  0  0  0  0  0  0  0
  133.6434  125.5860   64.7069 H   0  0  0  0  0  0  0  0  0  0  0  0
  130.9743  122.7409   63.7225 H   0  0  0  0  0  0  0  0  0  0  0  0
  130.2572  121.1952   61.9052 H   0  0  0  0  0  0  0  0  0  0  0  0
  131.9334  120.3343   60.2774 H   0  0  0  0  0  0  0  0  0  0  0  0
  134.3253  121.0020   60.4607 H   0  0  0  0  0  0  0  0  0  0  0  0
  135.0474  122.5476   62.2788 H   0  0  0  0  0  0  0  0  0  0  0  0
  127.6535  129.6985   63.9082 H   0  0  0  0  0  0  0  0  0  0  0  0
  125.3001  130.5168   64.1124 H   0  0  0  0  0  0  0  0  0  0  0  0
  123.8522  129.7735   65.9678 H   0  0  0  0  0  0  0  0  0  0  0  0
  124.6848  128.1781   67.7122 H   0  0  0  0  0  0  0  0  0  0  0  0
  1  2  1  0
  2  3  1  0
  3  4  1  0
  4  5  1  0
  5  6  1  0
  6  7  1  0
  7  8  1  0
  8  9  1  0
  9 10  1  0
 10 11  2  0
 10 12  1  0
 12 13  1  0
 13 14  1  0
 14 15  2  0
 15 16  1  0
 16 17  2  0
 17 18  1  0
 18 19  2  0
  5 20  2  0
 20 21  1  0
 21 22  2  0
 22 23  1  0
 23 24  2  0
 24 25  1  0
 25 26  2  0
 26  4  1  0
 19 14  1  0
 26 21  1  0
  1 27  1  0
  1 28  1  0
  1 29  1  0
  2 30  1  0
  2 31  1  0
  3 32  1  0
  3 33  1  0
  6 34  1  0
  6 35  1  0
  7 36  1  0
  7 37  1  0
  8 38  1  0
  8 39  1  0
  9 40  1  0
 12 41  1  0
 12 42  1  0
 15 43  1  0
 16 44  1  0
 17 45  1  0
 18 46  1  0
 19 47  1  0
 22 48  1  0
 23 49  1  0
 24 50  1  0
 25 51  1  0
M  END
>  <Binding energies>  (1) 
[-6.18]

>  <Ligand effiencies>  (1) 
[-0.2288888888888889]

>  <Interactions>  (1) 
["V-B:GLU:543:CA:9876, V-A:LEU:475:CD1:4258, V-B:GLU:543:CB:9878, H-A:TYR:484:OH:4348, V-A:TYR:484:CZ:4347, V-B:GLU:543:C:9874, V-A:TYR:484:CE1:4345, V-B:HIS:456:CE1:9040, V-A:HIS:456:CE1:4069, V-B:GLU:543:CG:9879, V-B:ARG:545:CD:9895, V-B:ARG:545:CZ:9898, V-B:ARG:545:CG:9894, V-A:ARG:545:CZ:4926, V-B:GLY:544:C:9884, V-A:ILE:369:CD1:3239, V-A:GLY:454:CA:4049, V-A:ILE:369:CG2:3237, H-A:GLY:454:N:4050"]

$$$$
RR13_Rahimova_2017
     RDKit          3D

 84 90  0  0  0  0  0  0  0  0999 V2000
  129.9180  121.9070   64.8850 Cl  0  0  0  0  0  0  0  0  0  0  0  0
  130.2710  121.9580   63.1910 C   0  0  0  0  0  0  0  0  0  0  0  0
  130.2720  120.7500   62.4910 C   0  0  0  0  0  0  0  0  0  0  0  0
  130.5700  120.7210   61.1310 C   0  0  0  0  0  0  0  0  0  0  0  0
  130.8720  121.9040   60.4620 C   0  0  0  0  0  0  0  0  0  0  0  0
  130.8730  123.1140   61.1540 C   0  0  0  0  0  0  0  0  0  0  0  0
  130.5630  123.1640   62.5230 C   0  0  0  0  0  0  0  0  0  0  0  0
  130.5960  124.5150   63.2720 C   0  0  1  0  0  0  0  0  0  0  0  0
  131.9090  124.6820   64.0510 C   0  0  0  0  0  0  0  0  0  0  0  0
  133.0940  124.2310   63.7000 N   0  0  0  0  0  0  0  0  0  0  0  0
  133.9610  124.6000   64.7240 N   0  0  0  0  0  0  0  0  0  0  0  0
  133.2680  125.2690   65.7140 N   0  0  0  0  0  0  0  0  0  0  0  0
  132.0010  125.2850   65.2870 N   0  0  0  0  0  0  0  0  0  0  0  0
  130.9680  125.9540   66.0700 C   0  0  0  0  0  0  0  0  0  0  0  0
  130.0860  124.9150   66.7880 C   0  0  0  0  0  0  0  0  0  0  0  0
  129.1830  125.5520   67.8330 C   0  0  0  0  0  0  0  0  0  0  0  0
  129.4970  125.4380   69.1890 C   0  0  0  0  0  0  0  0  0  0  0  0
  128.6650  126.0150   70.1450 C   0  0  0  0  0  0  0  0  0  0  0  0
  127.5220  126.7030   69.7410 C   0  0  0  0  0  0  0  0  0  0  0  0
  127.2030  126.8190   68.3910 C   0  0  0  0  0  0  0  0  0  0  0  0
  128.0350  126.2420   67.4330 C   0  0  0  0  0  0  0  0  0  0  0  0
  130.3030  125.6790   62.4030 N   0  0  0  0  0  0  0  0  0  0  0  0
  130.2530  126.9190   63.2000 C   0  0  0  0  0  0  0  0  0  0  0  0
  130.0800  128.1540   62.2840 C   0  0  0  0  0  0  0  0  0  0  0  0
  128.8190  128.0670   61.5290 N   0  0  0  0  0  0  0  0  0  0  0  0
  128.5720  129.2690   60.6990 C   0  0  1  0  0  0  0  0  0  0  0  0
  127.1010  129.7320   60.6190 C   0  0  0  0  0  0  0  0  0  0  0  0
  126.1920  129.1320   61.5010 C   0  0  0  0  0  0  0  0  0  0  0  0
  124.8470  129.5000   61.5110 C   0  0  0  0  0  0  0  0  0  0  0  0
  124.3880  130.4750   60.6290 C   0  0  0  0  0  0  0  0  0  0  0  0
  125.2710  131.0710   59.7340 C   0  0  0  0  0  0  0  0  0  0  0  0
  126.6200  130.7070   59.7130 C   0  0  0  0  0  0  0  0  0  0  0  0
  127.6220  131.4560   58.5160 Cl  0  0  0  0  0  0  0  0  0  0  0  0
  129.4750  130.4490   61.0650 C   0  0  0  0  0  0  0  0  0  0  0  0
  130.6150  130.7440   60.4850 N   0  0  0  0  0  0  0  0  0  0  0  0
  131.0810  131.8920   61.1180 N   0  0  0  0  0  0  0  0  0  0  0  0
  130.1850  132.2940   62.0870 N   0  0  0  0  0  0  0  0  0  0  0  0
  129.1910  131.4000   62.0220 N   0  0  0  0  0  0  0  0  0  0  0  0
  128.0570  131.5000   62.9350 C   0  0  0  0  0  0  0  0  0  0  0  0
  128.2150  130.5060   64.0990 C   0  0  0  0  0  0  0  0  0  0  0  0
  126.8800  130.1530   64.7370 C   0  0  0  0  0  0  0  0  0  0  0  0
  126.8250  129.1990   65.7570 C   0  0  0  0  0  0  0  0  0  0  0  0
  125.6040  128.8800   66.3460 C   0  0  0  0  0  0  0  0  0  0  0  0
  124.4420  129.5170   65.9120 C   0  0  0  0  0  0  0  0  0  0  0  0
  124.4910  130.4700   64.8960 C   0  0  0  0  0  0  0  0  0  0  0  0
  125.7120  130.7890   64.3080 C   0  0  0  0  0  0  0  0  0  0  0  0
  128.8750  126.8290   60.7300 C   0  0  0  0  0  0  0  0  0  0  0  0
  129.0380  125.5980   61.6520 C   0  0  0  0  0  0  0  0  0  0  0  0
  130.0355  119.8138   63.0179 H   0  0  0  0  0  0  0  0  0  0  0  0
  130.5668  119.7653   60.5864 H   0  0  0  0  0  0  0  0  0  0  0  0
  131.1096  121.8838   59.3882 H   0  0  0  0  0  0  0  0  0  0  0  0
  131.1202  124.0434   60.6201 H   0  0  0  0  0  0  0  0  0  0  0  0
  129.7733  124.4893   64.0017 H   0  0  0  0  0  0  0  0  0  0  0  0
  131.4440  126.6051   66.8180 H   0  0  0  0  0  0  0  0  0  0  0  0
  130.3388  126.5532   65.3954 H   0  0  0  0  0  0  0  0  0  0  0  0
  129.4592  124.4058   66.0412 H   0  0  0  0  0  0  0  0  0  0  0  0
  130.7508  124.2060   67.3031 H   0  0  0  0  0  0  0  0  0  0  0  0
  130.4001  124.8933   69.5014 H   0  0  0  0  0  0  0  0  0  0  0  0
  128.9087  125.9283   71.2142 H   0  0  0  0  0  0  0  0  0  0  0  0
  126.8654  127.1589   70.4967 H   0  0  0  0  0  0  0  0  0  0  0  0
  126.2986  127.3634   68.0817 H   0  0  0  0  0  0  0  0  0  0  0  0
  127.7887  126.3294   66.3645 H   0  0  0  0  0  0  0  0  0  0  0  0
  129.4041  126.8655   63.8975 H   0  0  0  0  0  0  0  0  0  0  0  0
  131.1978  127.0204   63.7541 H   0  0  0  0  0  0  0  0  0  0  0  0
  130.0691  129.0638   62.9021 H   0  0  0  0  0  0  0  0  0  0  0  0
  130.9179  128.1875   61.5721 H   0  0  0  0  0  0  0  0  0  0  0  0
  128.8361  128.9188   59.6903 H   0  0  0  0  0  0  0  0  0  0  0  0
  126.5456  128.3574   62.1974 H   0  0  0  0  0  0  0  0  0  0  0  0
  124.1499  129.0210   62.2143 H   0  0  0  0  0  0  0  0  0  0  0  0
  123.3293  130.7734   60.6399 H   0  0  0  0  0  0  0  0  0  0  0  0
  124.9032  131.8370   59.0354 H   0  0  0  0  0  0  0  0  0  0  0  0
  128.0043  132.5227   63.3366 H   0  0  0  0  0  0  0  0  0  0  0  0
  127.1346  131.2613   62.3852 H   0  0  0  0  0  0  0  0  0  0  0  0
  128.6803  129.5850   63.7179 H   0  0  0  0  0  0  0  0  0  0  0  0
  128.8417  130.9821   64.8675 H   0  0  0  0  0  0  0  0  0  0  0  0
  127.7457  128.7004   66.0944 H   0  0  0  0  0  0  0  0  0  0  0  0
  125.5565  128.1298   67.1491 H   0  0  0  0  0  0  0  0  0  0  0  0
  123.4771  129.2649   66.3761 H   0  0  0  0  0  0  0  0  0  0  0  0
  123.5693  130.9677   64.5603 H   0  0  0  0  0  0  0  0  0  0  0  0
  125.7572  131.5410   63.5065 H   0  0  0  0  0  0  0  0  0  0  0  0
  127.9443  126.7283   60.1523 H   0  0  0  0  0  0  0  0  0  0  0  0
  129.7384  126.8821   60.0505 H   0  0  0  0  0  0  0  0  0  0  0  0
  128.1978  125.5632   62.3611 H   0  0  0  0  0  0  0  0  0  0  0  0
  129.0498  124.6890   61.0326 H   0  0  0  0  0  0  0  0  0  0  0  0
  1  2  1  0
  2  3  2  0
  3  4  1  0
  4  5  2  0
  5  6  1  0
  6  7  2  0
  7  8  1  0
  8  9  1  0
  9 10  2  0
 10 11  1  0
 11 12  2  0
 12 13  1  0
 13 14  1  0
 14 15  1  0
 15 16  1  0
 16 17  2  0
 17 18  1  0
 18 19  2  0
 19 20  1  0
 20 21  2  0
  8 22  1  0
 22 23  1  0
 23 24  1  0
 24 25  1  0
 25 26  1  0
 26 27  1  0
 27 28  2  0
 28 29  1  0
 29 30  2  0
 30 31  1  0
 31 32  2  0
 32 33  1  0
 26 34  1  0
 34 35  2  0
 35 36  1  0
 36 37  2  0
 37 38  1  0
 38 39  1  0
 39 40  1  0
 40 41  1  0
 41 42  2  0
 42 43  1  0
 43 44  2  0
 44 45  1  0
 45 46  2  0
 25 47  1  0
 47 48  1  0
  7  2  1  0
 13  9  1  0
 21 16  1  0
 48 22  1  0
 32 27  1  0
 38 34  1  0
 46 41  1  0
  3 49  1  0
  4 50  1  0
  5 51  1  0
  6 52  1  0
  8 53  1  1
 14 54  1  0
 14 55  1  0
 15 56  1  0
 15 57  1  0
 17 58  1  0
 18 59  1  0
 19 60  1  0
 20 61  1  0
 21 62  1  0
 23 63  1  0
 23 64  1  0
 24 65  1  0
 24 66  1  0
 26 67  1  6
 28 68  1  0
 29 69  1  0
 30 70  1  0
 31 71  1  0
 39 72  1  0
 39 73  1  0
 40 74  1  0
 40 75  1  0
 42 76  1  0
 43 77  1  0
 44 78  1  0
 45 79  1  0
 46 80  1  0
 47 81  1  0
 47 82  1  0
 48 83  1  0
 48 84  1  0
M  END
>  <Binding energies>  (1) 
[-11.41]

>  <Ligand effiencies>  (1) 
[-0.23770833333333333]

>  <Interactions>  (1) 
["V-A:GLU:543:CD:4908, V-A:HIS:456:CD2:4068, V-B:TYR:539:CD2:9846, V-A:LEU:475:CD1:4258, V-B:GLU:543:CB:9878, H-A:TYR:484:OH:4348, V-A:TYR:484:CZ:4347, V-B:GLU:543:C:9874, V-A:TYR:484:CE1:4345, V-B:HIS:456:CE1:9040, V-B:TYR:539:CE2:9848, V-A:HIS:456:CE1:4069, V-B:ARG:545:CD:9895, V-B:ARG:545:CZ:9898, V-B:ARG:545:CG:9894, V-A:ALA:541:CB:4892, V-A:TYR:539:CZ:4877, V-A:TYR:539:CE2:4876, V-A:GLU:543:CB:4906, V-B:GLY:544:C:9884, V-B:ALA:541:CB:9864, V-B:GLY:454:CA:9020, H-A:GLY:454:N:4050, H-A:ARG:545:NE:4924, V-B:ASP:366:CG:8184, H-A:ALA:541:N:4891, V-A:LEU:475:CD2:4259"]

$$$$
RR14_Rahimova_2017
     RDKit          3D

 76 80  0  0  0  0  0  0  0  0999 V2000
  126.7060  123.3740   60.7300 C   0  0  0  0  0  0  0  0  0  0  0  0
  127.6820  122.3560   60.9240 O   0  0  0  0  0  0  0  0  0  0  0  0
  128.9180  122.6990   61.4370 C   0  0  0  0  0  0  0  0  0  0  0  0
  129.6110  123.7100   60.7700 C   0  0  0  0  0  0  0  0  0  0  0  0
  130.8740  124.1060   61.1990 C   0  0  0  0  0  0  0  0  0  0  0  0
  131.4620  123.4850   62.3030 C   0  0  0  0  0  0  0  0  0  0  0  0
  132.8710  123.8700   62.7360 C   0  0  0  0  0  0  0  0  0  0  0  0
  132.9150  124.5380   64.0370 N   0  0  0  0  0  0  0  0  0  0  0  0
  133.9520  124.3470   64.8600 N   0  0  0  0  0  0  0  0  0  0  0  0
  133.6500  125.0920   65.9840 N   0  0  0  0  0  0  0  0  0  0  0  0
  132.4190  125.7200   65.8240 N   0  0  0  0  0  0  0  0  0  0  0  0
  131.9890  125.3640   64.6370 C   0  0  0  0  0  0  0  0  0  0  0  0
  130.6620  125.7860   64.0220 C   0  0  0  0  0  0  0  0  0  0  0  0
  129.5750  125.8440   65.0140 N   0  0  0  0  0  0  0  0  0  0  0  0
  129.7630  124.8650   66.0920 C   0  0  0  0  0  0  0  0  0  0  0  0
  129.9630  125.5120   67.4800 C   0  0  0  0  0  0  0  0  0  0  0  0
  128.6450  125.7580   68.2440 C   0  0  0  0  0  0  0  0  0  0  0  0
  128.8480  126.0880   69.6590 N   0  0  0  0  0  0  0  0  0  0  0  0
  129.5040  124.9720   70.3540 C   0  0  0  0  0  0  0  0  0  0  0  0
  129.6850  125.2660   71.8580 C   0  0  0  0  0  0  0  0  0  0  0  0
  128.4330  125.6060   72.4450 O   0  0  0  0  0  0  0  0  0  0  0  0
  127.8520  126.7570   71.8440 C   0  0  0  0  0  0  0  0  0  0  0  0
  127.6130  126.5080   70.3390 C   0  0  0  0  0  0  0  0  0  0  0  0
  129.4660  127.2020   65.5650 C   0  0  0  0  0  0  0  0  0  0  0  0
  128.3230  128.0570   65.0210 C   0  0  0  0  0  0  0  0  0  0  0  0
  127.8730  127.8980   63.7520 C   0  0  0  0  0  0  0  0  0  0  0  0
  126.7970  128.7380   63.1890 C   0  0  0  0  0  0  0  0  0  0  0  0
  126.2930  128.5880   61.8850 C   0  0  0  0  0  0  0  0  0  0  0  0
  126.8330  127.5230   60.9390 C   0  0  0  0  0  0  0  0  0  0  0  0
  125.2700  129.4340   61.4500 C   0  0  0  0  0  0  0  0  0  0  0  0
  124.7520  130.4160   62.2930 C   0  0  0  0  0  0  0  0  0  0  0  0
  125.2450  130.5720   63.5920 C   0  0  0  0  0  0  0  0  0  0  0  0
  124.6560  131.6530   64.4890 C   0  0  0  0  0  0  0  0  0  0  0  0
  126.2720  129.7280   64.0390 C   0  0  0  0  0  0  0  0  0  0  0  0
  126.8030  129.8500   65.3410 N   0  0  0  0  0  0  0  0  0  0  0  0
  127.7880  129.1030   65.8990 C   0  0  0  0  0  0  0  0  0  0  0  0
  128.1680  129.3290   67.0480 O   0  0  0  0  0  0  0  0  0  0  0  0
  130.7650  122.4930   62.9960 C   0  0  0  0  0  0  0  0  0  0  0  0
  129.5020  122.0980   62.5640 C   0  0  0  0  0  0  0  0  0  0  0  0
  126.3568  123.7382   61.7074 H   0  0  0  0  0  0  0  0  0  0  0  0
  127.1518  124.2068   60.1663 H   0  0  0  0  0  0  0  0  0  0  0  0
  125.8552  122.9636   60.1663 H   0  0  0  0  0  0  0  0  0  0  0  0
  129.1544  124.1986   59.8966 H   0  0  0  0  0  0  0  0  0  0  0  0
  131.4090  124.9077   60.6689 H   0  0  0  0  0  0  0  0  0  0  0  0
  133.4809  122.9563   62.7920 H   0  0  0  0  0  0  0  0  0  0  0  0
  133.2574  124.5816   61.9914 H   0  0  0  0  0  0  0  0  0  0  0  0
  130.7826  126.7824   63.5718 H   0  0  0  0  0  0  0  0  0  0  0  0
  130.3877  125.0330   63.2685 H   0  0  0  0  0  0  0  0  0  0  0  0
  128.8747  124.2175   66.1338 H   0  0  0  0  0  0  0  0  0  0  0  0
  130.6786  124.3004   65.8619 H   0  0  0  0  0  0  0  0  0  0  0  0
  130.5967  124.8471   68.0853 H   0  0  0  0  0  0  0  0  0  0  0  0
  130.4269  126.4954   67.3131 H   0  0  0  0  0  0  0  0  0  0  0  0
  128.1134  126.5926   67.7635 H   0  0  0  0  0  0  0  0  0  0  0  0
  128.0672  124.8227   68.2070 H   0  0  0  0  0  0  0  0  0  0  0  0
  128.8877  124.0682   70.2388 H   0  0  0  0  0  0  0  0  0  0  0  0
  130.4999  124.8282   69.9096 H   0  0  0  0  0  0  0  0  0  0  0  0
  130.0901  124.3733   72.3569 H   0  0  0  0  0  0  0  0  0  0  0  0
  130.3798  126.1102   71.9784 H   0  0  0  0  0  0  0  0  0  0  0  0
  126.8916  126.9770   72.3331 H   0  0  0  0  0  0  0  0  0  0  0  0
  128.5372  127.6092   71.9630 H   0  0  0  0  0  0  0  0  0  0  0  0
  126.8552  125.7191   70.2232 H   0  0  0  0  0  0  0  0  0  0  0  0
  127.2713  127.4492   69.8836 H   0  0  0  0  0  0  0  0  0  0  0  0
  129.3314  127.1136   66.6532 H   0  0  0  0  0  0  0  0  0  0  0  0
  130.3901  127.7180   65.2654 H   0  0  0  0  0  0  0  0  0  0  0  0
  128.3242  127.1178   63.1213 H   0  0  0  0  0  0  0  0  0  0  0  0
  127.2542  126.6923   61.5242 H   0  0  0  0  0  0  0  0  0  0  0  0
  126.0163  127.1477   60.3049 H   0  0  0  0  0  0  0  0  0  0  0  0
  127.6184  127.9600   60.3049 H   0  0  0  0  0  0  0  0  0  0  0  0
  124.8690  129.3241   60.4316 H   0  0  0  0  0  0  0  0  0  0  0  0
  123.9478  131.0744   61.9328 H   0  0  0  0  0  0  0  0  0  0  0  0
  124.8064  131.3769   65.5431 H   0  0  0  0  0  0  0  0  0  0  0  0
  125.1568  132.6111   64.2858 H   0  0  0  0  0  0  0  0  0  0  0  0
  123.5794  131.7517   64.2858 H   0  0  0  0  0  0  0  0  0  0  0  0
  126.4300  130.5680   65.9420 H   0  0  0  0  0  0  0  0  0  0  0  0
  131.2142  122.0235   63.8836 H   0  0  0  0  0  0  0  0  0  0  0  0
  128.9587  121.3113   63.1080 H   0  0  0  0  0  0  0  0  0  0  0  0
  1  2  1  0
  2  3  1  0
  3  4  2  0
  4  5  1  0
  5  6  2  0
  6  7  1  0
  7  8  1  0
  8  9  1  0
  9 10  2  0
 10 11  1  0
 11 12  2  0
 12 13  1  0
 13 14  1  0
 14 15  1  0
 15 16  1  0
 16 17  1  0
 17 18  1  0
 18 19  1  0
 19 20  1  0
 20 21  1  0
 21 22  1  0
 22 23  1  0
 14 24  1  0
 24 25  1  0
 25 26  2  0
 26 27  1  0
 27 28  2  0
 28 29  1  0
 28 30  1  0
 30 31  2  0
 31 32  1  0
 32 33  1  0
 32 34  2  0
 34 35  1  0
 35 36  1  0
 36 37  2  0
  6 38  1  0
 38 39  2  0
 39  3  1  0
 12  8  1  0
 23 18  1  0
 36 25  1  0
 34 27  1  0
  1 40  1  0
  1 41  1  0
  1 42  1  0
  4 43  1  0
  5 44  1  0
  7 45  1  0
  7 46  1  0
 13 47  1  0
 13 48  1  0
 15 49  1  0
 15 50  1  0
 16 51  1  0
 16 52  1  0
 17 53  1  0
 17 54  1  0
 19 55  1  0
 19 56  1  0
 20 57  1  0
 20 58  1  0
 22 59  1  0
 22 60  1  0
 23 61  1  0
 23 62  1  0
 24 63  1  0
 24 64  1  0
 26 65  1  0
 29 66  1  0
 29 67  1  0
 29 68  1  0
 30 69  1  0
 31 70  1  0
 33 71  1  0
 33 72  1  0
 33 73  1  0
 35 74  1  0
 38 75  1  0
 39 76  1  0
M  END
>  <Binding energies>  (1) 
[-9.39]

>  <Ligand effiencies>  (1) 
[-0.23475000000000001]

>  <Interactions>  (1) 
["H-A:HIS:456:NE2:4070, V-A:GLU:543:CD:4908, V-A:HIS:456:CD2:4068, V-B:GLU:543:CD:9880, V-A:LEU:475:CD1:4258, H-B:ALA:541:N:9863, V-B:GLU:543:CB:9878, H-A:TYR:484:OH:4348, V-A:TYR:484:CZ:4347, V-B:GLU:543:C:9874, V-A:TYR:484:CE1:4345, V-B:HIS:456:CE1:9040, V-A:HIS:456:CE1:4069, V-B:GLU:543:CG:9879, H-B:TYR:484:OH:9319, V-A:GLU:543:CB:4906, V-B:PRO:540:CA:9855, V-B:GLY:544:C:9884, V-B:ALA:541:CB:9864, H-B:LYS:547:NZ:9923, V-B:LEU:475:CD1:9229, V-B:GLY:454:CA:9020, H-A:GLY:454:N:4050, H-A:ARG:545:NE:4924, V-B:ASP:366:CG:8184"]

$$$$
RR15_Rahimova_2017
     RDKit          3D

 85 89  0  0  0  0  0  0  0  0999 V2000
  131.4400  123.0620   73.1040 C   0  0  0  0  0  0  0  0  0  0  0  0
  130.2500  123.8440   73.0920 O   0  0  0  0  0  0  0  0  0  0  0  0
  129.8410  124.4470   71.9150 C   0  0  0  0  0  0  0  0  0  0  0  0
  130.3200  124.0810   70.6480 C   0  0  0  0  0  0  0  0  0  0  0  0
  129.8690  124.7310   69.5010 C   0  0  0  0  0  0  0  0  0  0  0  0
  128.9310  125.7650   69.5870 C   0  0  0  0  0  0  0  0  0  0  0  0
  128.4480  126.4710   68.3500 C   0  0  0  0  0  0  0  0  0  0  0  0
  127.2670  127.0670   68.2750 N   0  0  0  0  0  0  0  0  0  0  0  0
  127.1810  127.5870   67.0000 N   0  0  0  0  0  0  0  0  0  0  0  0
  128.3570  127.2750   66.4550 N   0  0  0  0  0  0  0  0  0  0  0  0
  128.6370  127.4980   65.0370 C   0  0  0  0  0  0  0  0  0  0  0  0
  129.1380  126.2490   64.2700 C   0  0  0  0  0  0  0  0  0  0  0  0
  129.2880  125.2000   64.9000 O   0  0  0  0  0  0  0  0  0  0  0  0
  129.3700  126.3290   62.9240 N   0  0  0  0  0  0  0  0  0  0  0  0
  128.2940  126.0810   61.9440 C   0  0  0  0  0  0  0  0  0  0  0  0
  128.5490  124.8540   61.0420 C   0  0  0  0  0  0  0  0  0  0  0  0
  127.6400  123.6360   61.3320 C   0  0  0  0  0  0  0  0  0  0  0  0
  128.3800  122.4090   61.6450 N   0  0  0  0  0  0  0  0  0  0  0  0
  128.8240  121.6700   60.4540 C   0  0  0  0  0  0  0  0  0  0  0  0
  129.6690  120.4360   60.8370 C   0  0  0  0  0  0  0  0  0  0  0  0
  130.7580  120.8250   61.6670 O   0  0  0  0  0  0  0  0  0  0  0  0
  130.3260  121.4490   62.8720 C   0  0  0  0  0  0  0  0  0  0  0  0
  129.5020  122.7130   62.5440 C   0  0  0  0  0  0  0  0  0  0  0  0
  130.6430  126.8510   62.3380 C   0  0  2  0  0  0  0  0  0  0  0  0
  130.4430  127.7420   61.0730 C   0  0  0  0  0  0  0  0  0  0  0  0
  130.2180  127.2410   59.9710 O   0  0  0  0  0  0  0  0  0  0  0  0
  130.4910  129.0700   61.2830 N   0  0  0  0  0  0  0  0  0  0  0  0
  130.2330  130.0930   60.2770 C   0  0  0  0  0  0  0  0  0  0  0  0
  131.2090  131.2750   60.4200 C   0  0  2  0  0  0  0  0  0  0  0  0
  132.6700  130.9740   60.0390 C   0  0  0  0  0  0  0  0  0  0  0  0
  133.3740  130.7820   61.3600 C   0  0  0  0  0  0  0  0  0  0  0  0
  132.6170  131.7540   62.2470 C   0  0  0  0  0  0  0  0  0  0  0  0
  131.2710  131.5740   61.8220 O   0  0  0  0  0  0  0  0  0  0  0  0
  131.6910  125.7470   62.2600 C   0  0  0  0  0  0  0  0  0  0  0  0
  132.2970  125.3270   63.4510 C   0  0  0  0  0  0  0  0  0  0  0  0
  133.2610  124.3240   63.4400 C   0  0  0  0  0  0  0  0  0  0  0  0
  133.6280  123.7310   62.2360 C   0  0  0  0  0  0  0  0  0  0  0  0
  134.5640  122.7550   62.2250 F   0  0  0  0  0  0  0  0  0  0  0  0
  133.0360  124.1340   61.0420 C   0  0  0  0  0  0  0  0  0  0  0  0
  132.0720  125.1380   61.0530 C   0  0  0  0  0  0  0  0  0  0  0  0
  129.1600  126.5480   67.2410 N   0  0  0  0  0  0  0  0  0  0  0  0
  128.4530  126.1260   70.8540 C   0  0  0  0  0  0  0  0  0  0  0  0
  128.8960  125.4780   72.0190 C   0  0  0  0  0  0  0  0  0  0  0  0
  128.4520  125.7960   73.2910 O   0  0  0  0  0  0  0  0  0  0  0  0
  127.4780  126.8220   73.4590 C   0  0  0  0  0  0  0  0  0  0  0  0
  131.7391  122.8654   74.1441 H   0  0  0  0  0  0  0  0  0  0  0  0
  131.2568  122.1077   72.5886 H   0  0  0  0  0  0  0  0  0  0  0  0
  132.2433  123.6088   72.5886 H   0  0  0  0  0  0  0  0  0  0  0  0
  131.0599  123.2719   70.5592 H   0  0  0  0  0  0  0  0  0  0  0  0
  130.2550  124.4275   68.5167 H   0  0  0  0  0  0  0  0  0  0  0  0
  127.7112  127.8465   64.5560 H   0  0  0  0  0  0  0  0  0  0  0  0
  129.4521  128.2354   64.9944 H   0  0  0  0  0  0  0  0  0  0  0  0
  127.3544  125.9197   62.4928 H   0  0  0  0  0  0  0  0  0  0  0  0
  128.2487  126.9610   61.2856 H   0  0  0  0  0  0  0  0  0  0  0  0
  128.3902  125.1585   59.9970 H   0  0  0  0  0  0  0  0  0  0  0  0
  129.5793  124.5275   61.2469 H   0  0  0  0  0  0  0  0  0  0  0  0
  126.9948  123.8804   62.1887 H   0  0  0  0  0  0  0  0  0  0  0  0
  127.0644  123.4392   60.4155 H   0  0  0  0  0  0  0  0  0  0  0  0
  127.9404  121.3371   59.8897 H   0  0  0  0  0  0  0  0  0  0  0  0
  129.4479  122.3401   59.8444 H   0  0  0  0  0  0  0  0  0  0  0  0
  129.0373  119.7171   61.3794 H   0  0  0  0  0  0  0  0  0  0  0  0
  130.0635  119.9724   59.9208 H   0  0  0  0  0  0  0  0  0  0  0  0
  129.7027  120.7456   63.4437 H   0  0  0  0  0  0  0  0  0  0  0  0
  131.2059  121.7350   63.4670 H   0  0  0  0  0  0  0  0  0  0  0  0
  129.1057  123.1336   63.4800 H   0  0  0  0  0  0  0  0  0  0  0  0
  130.1626  123.4328   62.0386 H   0  0  0  0  0  0  0  0  0  0  0  0
  131.0726  127.5903   63.0300 H   0  0  0  0  0  0  0  0  0  0  0  0
  130.6520  129.4020   62.2230 H   0  0  0  0  0  0  0  0  0  0  0  0
  130.3503  129.6501   59.2770 H   0  0  0  0  0  0  0  0  0  0  0  0
  129.2088  130.4687   60.4178 H   0  0  0  0  0  0  0  0  0  0  0  0
  130.8339  132.0654   59.7533 H   0  0  0  0  0  0  0  0  0  0  0  0
  132.7323  130.0607   59.4290 H   0  0  0  0  0  0  0  0  0  0  0  0
  133.1197  131.7787   59.4388 H   0  0  0  0  0  0  0  0  0  0  0  0
  133.2762  129.7477   61.7214 H   0  0  0  0  0  0  0  0  0  0  0  0
  134.4588  130.9598   61.3214 H   0  0  0  0  0  0  0  0  0  0  0  0
  132.7359  131.4975   63.3100 H   0  0  0  0  0  0  0  0  0  0  0  0
  132.9692  132.7925   62.1603 H   0  0  0  0  0  0  0  0  0  0  0  0
  132.0080  125.7946   64.4038 H   0  0  0  0  0  0  0  0  0  0  0  0
  133.7316  124.0008   64.3802 H   0  0  0  0  0  0  0  0  0  0  0  0
  133.3291  123.6606   60.0933 H   0  0  0  0  0  0  0  0  0  0  0  0
  131.6051  125.4569   60.1094 H   0  0  0  0  0  0  0  0  0  0  0  0
  127.7134  126.9359   70.9382 H   0  0  0  0  0  0  0  0  0  0  0  0
  127.3115  126.9974   74.5321 H   0  0  0  0  0  0  0  0  0  0  0  0
  127.8366  127.7488   72.9873 H   0  0  0  0  0  0  0  0  0  0  0  0
  126.5338  126.5121   72.9873 H   0  0  0  0  0  0  0  0  0  0  0  0
  1  2  1  0
  2  3  1  0
  3  4  2  0
  4  5  1  0
  5  6  2  0
  6  7  1  0
  7  8  1  0
  8  9  2  0
  9 10  1  0
 10 11  1  0
 11 12  1  0
 12 13  2  0
 12 14  1  0
 14 15  1  0
 15 16  1  0
 16 17  1  0
 17 18  1  0
 18 19  1  0
 19 20  1  0
 20 21  1  0
 21 22  1  0
 22 23  1  0
 14 24  1  0
 24 25  1  0
 25 26  2  0
 25 27  1  0
 27 28  1  0
 28 29  1  0
 29 30  1  0
 30 31  1  0
 31 32  1  0
 32 33  1  0
 24 34  1  0
 34 35  2  0
 35 36  1  0
 36 37  2  0
 37 38  1  0
 37 39  1  0
 39 40  2  0
 10 41  1  0
  6 42  1  0
 42 43  2  0
 43 44  1  0
 44 45  1  0
 43  3  1  0
 41  7  2  0
 23 18  1  0
 33 29  1  0
 40 34  1  0
  1 46  1  0
  1 47  1  0
  1 48  1  0
  4 49  1  0
  5 50  1  0
 11 51  1  0
 11 52  1  0
 15 53  1  0
 15 54  1  0
 16 55  1  0
 16 56  1  0
 17 57  1  0
 17 58  1  0
 19 59  1  0
 19 60  1  0
 20 61  1  0
 20 62  1  0
 22 63  1  0
 22 64  1  0
 23 65  1  0
 23 66  1  0
 24 67  1  1
 27 68  1  0
 28 69  1  0
 28 70  1  0
 29 71  1  6
 30 72  1  0
 30 73  1  0
 31 74  1  0
 31 75  1  0
 32 76  1  0
 32 77  1  0
 35 78  1  0
 36 79  1  0
 39 80  1  0
 40 81  1  0
 42 82  1  0
 45 83  1  0
 45 84  1  0
 45 85  1  0
M  END
>  <Binding energies>  (1) 
[-9.77]

>  <Ligand effiencies>  (1) 
[-0.21239130434782608]

>  <Interactions>  (1) 
["V-A:GLU:543:CD:4908, V-A:HIS:456:CD2:4068, V-B:GLU:543:CD:9880, V-A:ASP:366:CG:3213, V-B:TYR:539:CD2:9846, V-A:LEU:475:CD1:4258, H-B:ALA:541:N:9863, V-A:TYR:484:CZ:4347, V-B:GLU:543:C:9874, V-A:TYR:484:CE1:4345, V-B:TYR:539:CE2:9848, V-A:HIS:456:CE1:4069, V-B:GLU:543:CG:9879, V-A:PRO:540:C:4881, V-A:PRO:540:CA:4883, V-A:PRO:540:CB:4885, V-A:ARG:545:CZ:4926, V-B:PRO:540:CA:9855, V-B:GLY:544:C:9884, V-B:ALA:541:CB:9864, H-B:LYS:547:NZ:9923, V-A:ILE:369:CD1:3239, V-A:GLY:454:CA:4049, V-A:GLY:453:C:4042, H-A:GLU:543:OE1:4909, H-A:GLU:543:OE2:4910, V-A:ALA:541:CA:4890, V-A:ALA:541:C:4888, H-A:ALA:541:N:4891, V-A:ASN:362:CB:3176, V-A:ASN:362:C:3172, V-A:TYR:484:CE2:4346, V-A:HIS:456:CG:4066, V-A:TYR:484:CD1:4343, V-A:TYR:484:CD2:4344, V-A:HIS:456:CB:4065, V-A:ASP:473:CB:4239"]

$$$$
RR16_Rahimova_2017
     RDKit          3D

 80 85  0  0  0  0  0  0  0  0999 V2000
  135.1170  124.1820   61.6420 O   0  0  0  0  0  0  0  0  0  0  0  0
  134.2250  123.0600   61.9550 S   0  0  0  0  0  0  0  0  0  0  0  0
  134.7680  121.7540   62.3500 O   0  0  0  0  0  0  0  0  0  0  0  0
  133.1690  122.8160   60.5620 N   0  0  0  0  0  0  0  0  0  0  0  0
  131.9860  121.9270   60.6500 C   0  0  0  0  0  0  0  0  0  0  0  0
  132.3420  120.6900   61.5150 C   0  0  0  0  0  0  0  0  0  0  0  0
  131.5090  119.4120   61.2970 C   0  0  0  0  0  0  0  0  0  0  0  0
  130.1840  119.6500   60.5510 C   0  0  0  0  0  0  0  0  0  0  0  0
  129.2180  120.6590   61.2030 C   0  0  0  0  0  0  0  0  0  0  0  0
  129.4010  122.1460   60.8400 C   0  0  0  0  0  0  0  0  0  0  0  0
  130.7810  122.7640   61.1410 C   0  0  0  0  0  0  0  0  0  0  0  0
  133.1280  123.6160   63.2540 C   0  0  0  0  0  0  0  0  0  0  0  0
  132.3330  122.6990   63.9460 C   0  0  0  0  0  0  0  0  0  0  0  0
  131.3970  123.1570   64.8680 C   0  0  0  0  0  0  0  0  0  0  0  0
  131.2600  124.5290   65.0940 C   0  0  0  0  0  0  0  0  0  0  0  0
  129.9610  125.1290   66.1730 S   0  0  0  0  0  0  0  0  0  0  0  0
  130.5960  125.9640   67.2010 O   0  0  0  0  0  0  0  0  0  0  0  0
  129.1410  123.9740   66.5590 O   0  0  0  0  0  0  0  0  0  0  0  0
  128.9820  126.1780   65.1300 N   0  0  0  0  0  0  0  0  0  0  0  0
  128.9340  127.6000   65.5590 C   0  0  0  0  0  0  0  0  0  0  0  0
  127.8290  128.3580   64.7950 C   0  0  0  0  0  0  0  0  0  0  0  0
  127.9750  128.1930   63.2620 C   0  0  0  0  0  0  0  0  0  0  0  0
  126.8600  128.9000   62.4860 C   0  0  0  0  0  0  0  0  0  0  0  0
  125.7690  129.4460   63.1780 C   0  0  0  0  0  0  0  0  0  0  0  0
  124.7350  130.1050   62.5120 C   0  0  0  0  0  0  0  0  0  0  0  0
  123.6780  130.6370   63.2060 O   0  0  0  0  0  0  0  0  0  0  0  0
  124.8100  130.2140   61.1150 C   0  0  0  0  0  0  0  0  0  0  0  0
  123.9720  130.8080   60.2160 N   0  0  0  0  0  0  0  0  0  0  0  0
  124.5290  130.6540   58.9660 N   0  0  0  0  0  0  0  0  0  0  0  0
  125.6650  129.9400   59.0910 N   0  0  0  0  0  0  0  0  0  0  0  0
  126.5110  129.6980   57.9290 C   0  0  0  0  0  0  0  0  0  0  0  0
  127.7560  130.5750   57.9160 C   0  0  0  0  0  0  0  0  0  0  0  0
  128.1070  131.2780   56.7590 C   0  0  0  0  0  0  0  0  0  0  0  0
  129.2350  132.1000   56.7510 C   0  0  0  0  0  0  0  0  0  0  0  0
  130.0160  132.2240   57.9010 C   0  0  0  0  0  0  0  0  0  0  0  0
  129.6700  131.5270   59.0580 C   0  0  0  0  0  0  0  0  0  0  0  0
  130.6290  131.6860   60.4850 Cl  0  0  0  0  0  0  0  0  0  0  0  0
  128.5440  130.7010   59.0650 C   0  0  0  0  0  0  0  0  0  0  0  0
  125.9100  129.6530   60.4240 C   0  0  0  0  0  0  0  0  0  0  0  0
  126.9450  128.9890   61.0890 C   0  0  0  0  0  0  0  0  0  0  0  0
  128.1500  126.7100   62.8440 C   0  0  0  0  0  0  0  0  0  0  0  0
  129.2370  126.0020   63.6770 C   0  0  0  0  0  0  0  0  0  0  0  0
  132.0850  125.4410   64.4330 C   0  0  0  0  0  0  0  0  0  0  0  0
  133.0180  124.9830   63.5090 C   0  0  0  0  0  0  0  0  0  0  0  0
  133.1220  123.5730   59.8760 H   0  0  0  0  0  0  0  0  0  0  0  0
  131.6884  121.5165   59.6738 H   0  0  0  0  0  0  0  0  0  0  0  0
  133.3935  120.4375   61.3136 H   0  0  0  0  0  0  0  0  0  0  0  0
  132.1243  120.9962   62.5489 H   0  0  0  0  0  0  0  0  0  0  0  0
  132.1121  118.7010   60.7132 H   0  0  0  0  0  0  0  0  0  0  0  0
  131.2490  119.0268   62.2940 H   0  0  0  0  0  0  0  0  0  0  0  0
  130.4258  120.0176   59.5428 H   0  0  0  0  0  0  0  0  0  0  0  0
  129.6581  118.6839   60.5613 H   0  0  0  0  0  0  0  0  0  0  0  0
  128.1959  120.3717   60.9154 H   0  0  0  0  0  0  0  0  0  0  0  0
  129.4333  120.6018   62.2802 H   0  0  0  0  0  0  0  0  0  0  0  0
  129.2160  122.2515   59.7608 H   0  0  0  0  0  0  0  0  0  0  0  0
  128.6925  122.6909   61.4811 H   0  0  0  0  0  0  0  0  0  0  0  0
  130.8281  123.7498   60.6553 H   0  0  0  0  0  0  0  0  0  0  0  0
  130.8653  122.8164   62.2365 H   0  0  0  0  0  0  0  0  0  0  0  0
  132.4465  121.6203   63.7629 H   0  0  0  0  0  0  0  0  0  0  0  0
  130.7672  122.4415   65.4170 H   0  0  0  0  0  0  0  0  0  0  0  0
  128.7246  127.6457   66.6379 H   0  0  0  0  0  0  0  0  0  0  0  0
  129.9041  128.0703   65.3406 H   0  0  0  0  0  0  0  0  0  0  0  0
  126.8489  127.9656   65.1039 H   0  0  0  0  0  0  0  0  0  0  0  0
  127.9191  129.4278   65.0345 H   0  0  0  0  0  0  0  0  0  0  0  0
  128.9080  128.7034   62.9812 H   0  0  0  0  0  0  0  0  0  0  0  0
  125.7275  129.3523   64.2732 H   0  0  0  0  0  0  0  0  0  0  0  0
  123.8430  131.5270   63.5240 H   0  0  0  0  0  0  0  0  0  0  0  0
  126.8234  128.6433   57.9346 H   0  0  0  0  0  0  0  0  0  0  0  0
  125.9225  129.9430   57.0325 H   0  0  0  0  0  0  0  0  0  0  0  0
  127.4919  131.1827   55.8521 H   0  0  0  0  0  0  0  0  0  0  0  0
  129.5084  132.6500   55.8384 H   0  0  0  0  0  0  0  0  0  0  0  0
  130.9049  132.8719   57.8946 H   0  0  0  0  0  0  0  0  0  0  0  0
  128.2758  130.1476   59.9770 H   0  0  0  0  0  0  0  0  0  0  0  0
  127.7921  128.5538   60.5386 H   0  0  0  0  0  0  0  0  0  0  0  0
  127.1940  126.1850   62.9872 H   0  0  0  0  0  0  0  0  0  0  0  0
  128.4607  126.6877   61.7890 H   0  0  0  0  0  0  0  0  0  0  0  0
  129.2339  124.9285   63.4372 H   0  0  0  0  0  0  0  0  0  0  0  0
  130.2141  126.4444   63.4330 H   0  0  0  0  0  0  0  0  0  0  0  0
  131.9974  126.5174   64.6422 H   0  0  0  0  0  0  0  0  0  0  0  0
  133.6674  125.6966   62.9808 H   0  0  0  0  0  0  0  0  0  0  0  0
  1  2  2  0
  2  3  2  0
  2  4  1  0
  4  5  1  0
  5  6  1  0
  6  7  1  0
  7  8  1  0
  8  9  1  0
  9 10  1  0
 10 11  1  0
  2 12  1  0
 12 13  2  0
 13 14  1  0
 14 15  2  0
 15 16  1  0
 16 17  2  0
 16 18  2  0
 16 19  1  0
 19 20  1  0
 20 21  1  0
 21 22  1  0
 22 23  1  0
 23 24  2  0
 24 25  1  0
 25 26  1  0
 25 27  2  0
 27 28  1  0
 28 29  2  0
 29 30  1  0
 30 31  1  0
 31 32  1  0
 32 33  2  0
 33 34  1  0
 34 35  2  0
 35 36  1  0
 36 37  1  0
 36 38  2  0
 30 39  1  0
 39 40  2  0
 22 41  1  0
 41 42  1  0
 15 43  1  0
 43 44  2  0
 11  5  1  0
 44 12  1  0
 42 19  1  0
 40 23  1  0
 39 27  1  0
 38 32  1  0
  4 45  1  0
  5 46  1  0
  6 47  1  0
  6 48  1  0
  7 49  1  0
  7 50  1  0
  8 51  1  0
  8 52  1  0
  9 53  1  0
  9 54  1  0
 10 55  1  0
 10 56  1  0
 11 57  1  0
 11 58  1  0
 13 59  1  0
 14 60  1  0
 20 61  1  0
 20 62  1  0
 21 63  1  0
 21 64  1  0
 22 65  1  0
 24 66  1  0
 26 67  1  0
 31 68  1  0
 31 69  1  0
 33 70  1  0
 34 71  1  0
 35 72  1  0
 38 73  1  0
 40 74  1  0
 41 75  1  0
 41 76  1  0
 42 77  1  0
 42 78  1  0
 43 79  1  0
 44 80  1  0
M  END
>  <Binding energies>  (1) 
[-7.78]

>  <Ligand effiencies>  (1) 
[-0.16208333333333333]

>  <Interactions>  (1) 
["H-A:HIS:456:NE2:4070, V-A:GLU:543:CD:4908, V-B:GLU:543:CD:9880, V-B:TYR:539:CD2:9846, V-A:LEU:475:CD1:4258, V-B:GLU:543:CB:9878, H-A:TYR:484:OH:4348, V-A:TYR:484:CZ:4347, V-A:TYR:484:CE1:4345, V-B:TYR:539:CE2:9848, V-A:HIS:456:CE1:4069, V-B:GLU:543:CG:9879, V-B:ARG:545:CZ:9898, V-A:PRO:540:C:4881, V-A:PRO:540:CA:4883, V-A:TYR:539:CZ:4877, V-A:TYR:539:CE2:4876, V-A:PRO:540:CB:4885, V-A:TYR:539:C:4867, V-A:ARG:545:CZ:4926, V-B:ALA:541:CB:9864, V-B:PRO:540:C:9853, V-A:ILE:369:CD1:3239, V-A:GLY:454:CA:4049, H-A:GLY:454:N:4050, V-A:TRP:381:CZ2:3370, V-B:ALA:541:CA:9862, V-A:PRO:482:CG:4327, V-A:TRP:381:CH2:3372, H-B:GLY:454:N:9021, H-B:ARG:545:NH2:9900, V-B:ASP:366:CG:8184, H-A:ASP:366:OD2:3215, V-A:PRO:540:N:4884, H-A:TYR:539:OH:4878, V-A:TYR:539:CE1:4875, V-A:TYR:539:CD1:4873, V-A:TYR:539:CG:4872"]

$$$$
RR17_Rahimova_2017
     RDKit          3D

 63 66  0  0  0  0  0  0  0  0999 V2000
  134.3200  120.5370   61.9710 C   0  0  0  0  0  0  0  0  0  0  0  0
  133.9860  119.4960   60.8980 C   0  0  0  0  0  0  0  0  0  0  0  0
  132.6370  119.0730   61.0740 O   0  0  0  0  0  0  0  0  0  0  0  0
  131.6180  120.0030   60.9810 C   0  0  0  0  0  0  0  0  0  0  0  0
  130.3250  119.5330   61.2050 C   0  0  0  0  0  0  0  0  0  0  0  0
  129.2350  120.3940   61.1310 C   0  0  0  0  0  0  0  0  0  0  0  0
  129.4170  121.7510   60.8280 C   0  0  0  0  0  0  0  0  0  0  0  0
  128.2220  122.6570   60.7570 C   0  0  0  0  0  0  0  0  0  0  0  0
  127.2340  122.3950   60.0640 O   0  0  0  0  0  0  0  0  0  0  0  0
  128.2790  123.9600   61.5840 C   0  0  0  0  0  0  0  0  0  0  0  0
  128.0790  125.4480   60.5400 S   0  0  0  0  0  0  0  0  0  0  0  0
  127.6370  126.6330   61.7800 C   0  0  0  0  0  0  0  0  0  0  0  0
  126.5980  127.4340   61.7300 N   0  0  0  0  0  0  0  0  0  0  0  0
  126.5960  128.2000   62.8890 N   0  0  0  0  0  0  0  0  0  0  0  0
  127.6320  127.8300   63.5980 C   0  0  0  0  0  0  0  0  0  0  0  0
  128.0000  128.4090   64.9560 C   0  0  0  0  0  0  0  0  0  0  0  0
  127.0990  128.0060   66.0340 N   0  0  0  0  0  0  0  0  0  0  0  0
  127.5290  127.3810   67.2180 C   0  0  0  0  0  0  0  0  0  0  0  0
  128.9040  127.2700   67.4230 C   0  0  0  0  0  0  0  0  0  0  0  0
  129.3970  126.6580   68.5720 C   0  0  0  0  0  0  0  0  0  0  0  0
  128.5180  126.1520   69.5330 C   0  0  0  0  0  0  0  0  0  0  0  0
  129.0760  125.4770   70.7860 C   0  0  0  0  0  0  0  0  0  0  0  0
  128.1220  124.8850   71.5080 F   0  0  0  0  0  0  0  0  0  0  0  0
  129.9750  124.5490   70.4530 F   0  0  0  0  0  0  0  0  0  0  0  0
  129.6700  126.3940   71.5490 F   0  0  0  0  0  0  0  0  0  0  0  0
  127.1380  126.2690   69.3330 C   0  0  0  0  0  0  0  0  0  0  0  0
  126.6460  126.8830   68.1850 C   0  0  0  0  0  0  0  0  0  0  0  0
  128.3440  126.8450   62.9460 N   0  0  0  0  0  0  0  0  0  0  0  0
  129.5030  126.1870   63.3850 C   0  0  0  0  0  0  0  0  0  0  0  0
  129.4370  125.3460   64.4950 C   0  0  0  0  0  0  0  0  0  0  0  0
  130.5880  124.6970   64.9330 C   0  0  0  0  0  0  0  0  0  0  0  0
  131.8070  124.8870   64.2620 C   0  0  0  0  0  0  0  0  0  0  0  0
  132.9970  124.2850   64.6240 O   0  0  0  0  0  0  0  0  0  0  0  0
  133.9230  125.0060   65.4290 C   0  0  0  0  0  0  0  0  0  0  0  0
  131.8540  125.7340   63.1530 C   0  0  0  0  0  0  0  0  0  0  0  0
  130.7070  126.3860   62.7090 C   0  0  0  0  0  0  0  0  0  0  0  0
  130.7180  122.2230   60.6040 C   0  0  0  0  0  0  0  0  0  0  0  0
  131.8080  121.3590   60.6790 C   0  0  0  0  0  0  0  0  0  0  0  0
  134.1780  120.0945   62.9680 H   0  0  0  0  0  0  0  0  0  0  0  0
  135.3661  120.8576   61.8578 H   0  0  0  0  0  0  0  0  0  0  0  0
  133.6557  121.4064   61.8578 H   0  0  0  0  0  0  0  0  0  0  0  0
  134.1065  119.9420   59.8997 H   0  0  0  0  0  0  0  0  0  0  0  0
  134.6633  118.6341   60.9893 H   0  0  0  0  0  0  0  0  0  0  0  0
  130.1650  118.4709   61.4426 H   0  0  0  0  0  0  0  0  0  0  0  0
  128.2213  120.0070   61.3118 H   0  0  0  0  0  0  0  0  0  0  0  0
  127.4727  123.9407   62.3320 H   0  0  0  0  0  0  0  0  0  0  0  0
  129.2676  124.0135   62.0634 H   0  0  0  0  0  0  0  0  0  0  0  0
  129.0167  128.0754   65.2111 H   0  0  0  0  0  0  0  0  0  0  0  0
  127.9248  129.5029   64.8684 H   0  0  0  0  0  0  0  0  0  0  0  0
  126.1110  127.9900   65.8290 H   0  0  0  0  0  0  0  0  0  0  0  0
  129.6028  127.6682   66.6726 H   0  0  0  0  0  0  0  0  0  0  0  0
  130.4831  126.5724   68.7240 H   0  0  0  0  0  0  0  0  0  0  0  0
  126.4397  125.8743   70.0857 H   0  0  0  0  0  0  0  0  0  0  0  0
  125.5602  126.9776   68.0364 H   0  0  0  0  0  0  0  0  0  0  0  0
  128.4825  125.1964   65.0208 H   0  0  0  0  0  0  0  0  0  0  0  0
  130.5425  124.0325   65.8084 H   0  0  0  0  0  0  0  0  0  0  0  0
  133.6987  124.8314   66.4916 H   0  0  0  0  0  0  0  0  0  0  0  0
  134.9448  124.6633   65.2088 H   0  0  0  0  0  0  0  0  0  0  0  0
  133.8412  126.0806   65.2088 H   0  0  0  0  0  0  0  0  0  0  0  0
  132.8067  125.8876   62.6250 H   0  0  0  0  0  0  0  0  0  0  0  0
  130.7496  127.0513   61.8341 H   0  0  0  0  0  0  0  0  0  0  0  0
  130.8794  123.2850   60.3669 H   0  0  0  0  0  0  0  0  0  0  0  0
  132.8234  121.7426   60.5003 H   0  0  0  0  0  0  0  0  0  0  0  0
  1  2  1  0
  2  3  1  0
  3  4  1  0
  4  5  2  0
  5  6  1  0
  6  7  2  0
  7  8  1  0
  8  9  2  0
  8 10  1  0
 10 11  1  0
 11 12  1  0
 12 13  2  0
 13 14  1  0
 14 15  2  0
 15 16  1  0
 16 17  1  0
 17 18  1  0
 18 19  2  0
 19 20  1  0
 20 21  2  0
 21 22  1  0
 22 23  1  0
 22 24  1  0
 22 25  1  0
 21 26  1  0
 26 27  2  0
 15 28  1  0
 28 29  1  0
 29 30  2  0
 30 31  1  0
 31 32  2  0
 32 33  1  0
 33 34  1  0
 32 35  1  0
 35 36  2  0
  7 37  1  0
 37 38  2  0
 38  4  1  0
 28 12  1  0
 36 29  1  0
 27 18  1  0
  1 39  1  0
  1 40  1  0
  1 41  1  0
  2 42  1  0
  2 43  1  0
  5 44  1  0
  6 45  1  0
 10 46  1  0
 10 47  1  0
 16 48  1  0
 16 49  1  0
 17 50  1  0
 19 51  1  0
 20 52  1  0
 26 53  1  0
 27 54  1  0
 30 55  1  0
 31 56  1  0
 34 57  1  0
 34 58  1  0
 34 59  1  0
 35 60  1  0
 36 61  1  0
 37 62  1  0
 38 63  1  0
M  END
>  <Binding energies>  (1) 
[-7.45]

>  <Ligand effiencies>  (1) 
[-0.19102564102564104]

>  <Interactions>  (1) 
["V-A:GLU:543:CD:4908, V-A:HIS:456:CD2:4068, V-B:GLU:543:CD:9880, V-B:TYR:539:CD2:9846, V-A:LEU:475:CD1:4258, H-B:ALA:541:N:9863, V-B:GLU:543:CB:9878, H-A:TYR:484:OH:4348, V-A:TYR:484:CZ:4347, V-B:GLU:543:C:9874, V-A:TYR:484:CE1:4345, V-B:HIS:456:CE1:9040, V-B:TYR:539:CE2:9848, V-A:HIS:456:CE1:4069, V-B:GLU:543:CG:9879, V-B:ARG:545:CG:9894, V-A:ARG:545:CZ:4926, V-B:PRO:540:CA:9855, V-B:GLY:544:C:9884, V-B:ALA:541:CB:9864, V-B:PRO:540:C:9853, V-A:ILE:369:CD1:3239, V-A:GLY:453:CA:4044, V-A:GLY:454:CA:4049, V-A:ILE:369:CG2:3237, H-A:GLY:454:N:4050, V-B:ALA:541:CA:9862, V-A:PRO:482:CG:4327, V-A:PRO:482:CB:4326, V-A:ARG:545:CD:4923, V-A:TRP:381:CH2:3372, H-B:ARG:545:NH2:9900, H-B:GLU:543:OE1:9881, V-A:HIS:456:CG:4066, V-B:GLY:544:CA:9886, V-B:LYS:547:CE:9922, V-A:SER:385:CA:3407, V-A:SER:385:C:3405"]

$$$$
RR18_Rahimova_2017
     RDKit          3D

 56 61  0  0  0  0  0  0  0  0999 V2000
  130.5240  127.2830   59.0690 C   0  0  0  0  0  0  0  0  0  0  0  0
  129.2420  127.8110   59.6630 C   0  0  0  0  0  0  0  0  0  0  0  0
  127.9370  127.3490   59.7070 C   0  0  0  0  0  0  0  0  0  0  0  0
  127.1980  128.2990   60.4110 C   0  0  0  0  0  0  0  0  0  0  0  0
  128.0780  129.3060   60.7720 C   0  0  0  0  0  0  0  0  0  0  0  0
  127.9300  130.6130   61.5470 C   0  0  1  0  0  0  0  0  0  0  0  0
  127.4560  131.7750   60.6240 C   0  0  0  0  0  0  0  0  0  0  0  0
  128.3090  132.2530   59.5410 C   0  0  0  0  0  0  0  0  0  0  0  0
  128.0130  133.2430   58.8690 O   0  0  0  0  0  0  0  0  0  0  0  0
  129.4390  131.5290   59.3640 N   0  0  0  0  0  0  0  0  0  0  0  0
  130.4770  131.6740   58.4190 C   0  0  0  0  0  0  0  0  0  0  0  0
  130.3040  132.2890   57.1650 C   0  0  0  0  0  0  0  0  0  0  0  0
  131.3700  132.3940   56.2740 C   0  0  0  0  0  0  0  0  0  0  0  0
  132.6190  131.8840   56.6150 C   0  0  0  0  0  0  0  0  0  0  0  0
  132.8020  131.2630   57.8480 C   0  0  0  0  0  0  0  0  0  0  0  0
  131.7420  131.1510   58.7540 C   0  0  0  0  0  0  0  0  0  0  0  0
  131.9940  130.4570   60.0900 C   0  0  0  0  0  0  0  0  0  0  0  0
  126.1960  132.2570   60.7870 C   0  0  0  0  0  0  0  0  0  0  0  0
  125.3430  131.8830   61.7810 N   0  0  0  0  0  0  0  0  0  0  0  0
  125.7500  131.0790   62.6920 C   0  0  0  0  0  0  0  0  0  0  0  0
  124.8250  130.6300   64.1050 S   0  0  0  0  0  0  0  0  0  0  0  0
  126.1580  129.6010   64.7160 C   0  0  0  0  0  0  0  0  0  0  0  0
  126.1740  128.8610   65.8790 C   0  0  0  0  0  0  0  0  0  0  0  0
  125.0420  128.9260   66.8150 C   0  0  0  0  0  0  0  0  0  0  0  0
  123.9850  129.5510   66.7370 O   0  0  0  0  0  0  0  0  0  0  0  0
  125.3500  128.1610   67.8670 N   0  0  0  0  0  0  0  0  0  0  0  0
  126.5590  127.5460   67.7410 C   0  0  0  0  0  0  0  0  0  0  0  0
  127.1720  126.6750   68.6400 C   0  0  0  0  0  0  0  0  0  0  0  0
  128.4070  126.1250   68.3070 C   0  0  0  0  0  0  0  0  0  0  0  0
  128.9980  126.4450   67.0860 C   0  0  0  0  0  0  0  0  0  0  0  0
  128.3630  127.3210   66.2010 C   0  0  0  0  0  0  0  0  0  0  0  0
  127.1260  127.9060   66.5310 C   0  0  0  0  0  0  0  0  0  0  0  0
  127.2660  129.6850   63.7640 C   0  0  0  0  0  0  0  0  0  0  0  0
  128.3670  129.1540   63.8760 O   0  0  0  0  0  0  0  0  0  0  0  0
  126.9610  130.4650   62.6910 N   0  0  0  0  0  0  0  0  0  0  0  0
  129.3210  129.0020   60.3120 O   0  0  0  0  0  0  0  0  0  0  0  0
  131.2133  126.9991   59.8779 H   0  0  0  0  0  0  0  0  0  0  0  0
  130.3048  126.4019   58.4480 H   0  0  0  0  0  0  0  0  0  0  0  0
  130.9889  128.0629   58.4480 H   0  0  0  0  0  0  0  0  0  0  0  0
  127.5570  126.4134   59.2708 H   0  0  0  0  0  0  0  0  0  0  0  0
  126.1222  128.2568   60.6365 H   0  0  0  0  0  0  0  0  0  0  0  0
  128.9257  130.8570   61.9459 H   0  0  0  0  0  0  0  0  0  0  0  0
  129.6000  130.7960   60.0380 H   0  0  0  0  0  0  0  0  0  0  0  0
  129.3186  132.6903   56.8859 H   0  0  0  0  0  0  0  0  0  0  0  0
  131.2239  132.8812   55.2987 H   0  0  0  0  0  0  0  0  0  0  0  0
  133.4604  131.9712   55.9118 H   0  0  0  0  0  0  0  0  0  0  0  0
  133.7895  130.8567   58.1120 H   0  0  0  0  0  0  0  0  0  0  0  0
  131.7447  131.1435   60.9126 H   0  0  0  0  0  0  0  0  0  0  0  0
  131.3652  129.5572   60.1601 H   0  0  0  0  0  0  0  0  0  0  0  0
  133.0536  130.1702   60.1601 H   0  0  0  0  0  0  0  0  0  0  0  0
  125.8386  133.0041   60.0631 H   0  0  0  0  0  0  0  0  0  0  0  0
  124.7350  128.0380   68.6580 H   0  0  0  0  0  0  0  0  0  0  0  0
  126.6884  126.4264   69.5962 H   0  0  0  0  0  0  0  0  0  0  0  0
  128.9137  125.4414   69.0041 H   0  0  0  0  0  0  0  0  0  0  0  0
  129.9699  126.0056   66.8172 H   0  0  0  0  0  0  0  0  0  0  0  0
  128.8353  127.5559   65.2357 H   0  0  0  0  0  0  0  0  0  0  0  0
  1  2  1  0
  2  3  2  0
  3  4  1  0
  4  5  2  0
  5  6  1  0
  6  7  1  0
  7  8  1  0
  8  9  2  0
  8 10  1  0
 10 11  1  0
 11 12  2  0
 12 13  1  0
 13 14  2  0
 14 15  1  0
 15 16  2  0
 16 17  1  0
  7 18  2  0
 18 19  1  0
 19 20  2  0
 20 21  1  0
 21 22  1  0
 22 23  2  0
 23 24  1  0
 24 25  2  0
 24 26  1  0
 26 27  1  0
 27 28  2  0
 28 29  1  0
 29 30  2  0
 30 31  1  0
 31 32  2  0
 22 33  1  0
 33 34  2  0
 33 35  1  0
  5 36  1  0
 36  2  1  0
 35  6  1  0
 16 11  1  0
 35 20  1  0
 32 23  1  0
 32 27  1  0
  1 37  1  0
  1 38  1  0
  1 39  1  0
  3 40  1  0
  4 41  1  0
  6 42  1  1
 10 43  1  0
 12 44  1  0
 13 45  1  0
 14 46  1  0
 15 47  1  0
 17 48  1  0
 17 49  1  0
 17 50  1  0
 18 51  1  0
 26 52  1  0
 28 53  1  0
 29 54  1  0
 30 55  1  0
 31 56  1  0
M  END
>  <Binding energies>  (1) 
[-8.2]

>  <Ligand effiencies>  (1) 
[-0.2157894736842105]

>  <Interactions>  (1) 
["V-B:GLU:543:CB:9878, V-B:GLU:543:C:9874, V-B:HIS:456:CE1:9040, V-B:ARG:545:CD:9895, H-B:TYR:484:OH:9319, V-B:ARG:545:CG:9894, V-A:PRO:540:CA:4883, V-A:TYR:539:CE2:4876, V-A:PRO:540:CB:4885, V-A:TYR:539:C:4867, V-B:ARG:545:CA:9891, V-B:GLY:544:C:9884, H-B:ARG:545:NE:9896, V-A:PRO:540:N:4884, V-A:PRO:540:CD:4887, V-A:LEU:363:CD1:3189, V-B:ARG:545:CB:9893, H-B:HIS:456:ND1:9038, V-A:PRO:540:CG:4886, H-B:ILE:455:O:9024"]

$$$$
RR19_Rahimova_2017
     RDKit          3D

 72 77  0  0  0  0  0  0  0  0999 V2000
  129.1000  122.0640   62.2570 O   0  0  0  0  0  0  0  0  0  0  0  0
  128.7890  123.2550   62.1650 C   0  0  0  0  0  0  0  0  0  0  0  0
  128.8170  124.1660   63.1710 N   0  0  0  0  0  0  0  0  0  0  0  0
  129.3570  124.1490   64.4340 C   0  0  0  0  0  0  0  0  0  0  0  0
  130.4180  122.9760   65.0360 S   0  0  0  0  0  0  0  0  0  0  0  0
  128.8950  125.2430   65.1230 N   0  0  0  0  0  0  0  0  0  0  0  0
  129.2140  125.7760   66.3300 C   0  0  0  0  0  0  0  0  0  0  0  0
  130.1760  125.4670   67.0360 O   0  0  0  0  0  0  0  0  0  0  0  0
  128.2190  126.8590   66.8200 C   0  0  2  0  0  0  0  0  0  0  0  0
  128.2240  128.1740   65.9890 C   0  0  0  0  0  0  0  0  0  0  0  0
  126.8640  128.8280   65.8030 C   0  0  0  0  0  0  0  0  0  0  0  0
  126.5180  129.4440   64.5810 C   0  0  0  0  0  0  0  0  0  0  0  0
  125.2440  129.9650   64.4020 C   0  0  0  0  0  0  0  0  0  0  0  0
  124.2980  129.8680   65.4160 C   0  0  0  0  0  0  0  0  0  0  0  0
  124.6150  129.2370   66.6120 C   0  0  0  0  0  0  0  0  0  0  0  0
  125.8830  128.7070   66.8100 C   0  0  0  0  0  0  0  0  0  0  0  0
  128.3890  127.1300   68.2740 N   0  0  0  0  0  0  0  0  0  0  0  0
  127.5270  126.6160   69.1970 C   0  0  0  0  0  0  0  0  0  0  0  0
  126.5300  125.9230   68.9830 O   0  0  0  0  0  0  0  0  0  0  0  0
  128.0430  127.0620   70.5140 C   0  0  0  0  0  0  0  0  0  0  0  0
  127.5660  126.8410   71.8060 C   0  0  0  0  0  0  0  0  0  0  0  0
  128.2720  127.3860   72.8840 C   0  0  0  0  0  0  0  0  0  0  0  0
  129.4350  128.1350   72.6600 C   0  0  0  0  0  0  0  0  0  0  0  0
  129.8980  128.3440   71.3560 C   0  0  0  0  0  0  0  0  0  0  0  0
  129.1780  127.7940   70.2950 C   0  0  0  0  0  0  0  0  0  0  0  0
  129.4190  127.8340   68.8310 C   0  0  0  0  0  0  0  0  0  0  0  0
  130.3560  128.3810   68.2470 O   0  0  0  0  0  0  0  0  0  0  0  0
  128.2990  123.8160   60.8040 C   0  0  2  0  0  0  0  0  0  0  0  0
  128.3460  122.7810   59.6420 C   0  0  0  0  0  0  0  0  0  0  0  0
  127.2150  122.9270   58.6410 C   0  0  0  0  0  0  0  0  0  0  0  0
  126.0300  123.6020   59.0050 C   0  0  0  0  0  0  0  0  0  0  0  0
  125.0380  123.8240   58.0570 C   0  0  0  0  0  0  0  0  0  0  0  0
  125.2180  123.4070   56.7450 C   0  0  0  0  0  0  0  0  0  0  0  0
  126.3950  122.7760   56.3630 C   0  0  0  0  0  0  0  0  0  0  0  0
  127.3990  122.5450   57.2950 C   0  0  0  0  0  0  0  0  0  0  0  0
  128.9570  125.0970   60.4210 N   0  0  0  0  0  0  0  0  0  0  0  0
  128.6210  126.2800   61.0090 C   0  0  0  0  0  0  0  0  0  0  0  0
  127.7660  126.4650   61.8750 O   0  0  0  0  0  0  0  0  0  0  0  0
  129.5040  127.2950   60.3830 C   0  0  0  0  0  0  0  0  0  0  0  0
  129.6010  128.6730   60.5870 C   0  0  0  0  0  0  0  0  0  0  0  0
  130.5430  129.3950   59.8450 C   0  0  0  0  0  0  0  0  0  0  0  0
  131.3680  128.7390   58.9220 C   0  0  0  0  0  0  0  0  0  0  0  0
  131.2570  127.3570   58.7340 C   0  0  0  0  0  0  0  0  0  0  0  0
  130.3090  126.6550   59.4820 C   0  0  0  0  0  0  0  0  0  0  0  0
  129.9650  125.2130   59.5060 C   0  0  0  0  0  0  0  0  0  0  0  0
  130.4790  124.3120   58.8420 O   0  0  0  0  0  0  0  0  0  0  0  0
  128.4490  125.0670   62.9040 H   0  0  0  0  0  0  0  0  0  0  0  0
  128.0980  125.6850   64.6910 H   0  0  0  0  0  0  0  0  0  0  0  0
  127.2211  126.4269   66.6540 H   0  0  0  0  0  0  0  0  0  0  0  0
  128.8816  128.8949   66.4969 H   0  0  0  0  0  0  0  0  0  0  0  0
  128.5697  127.8972   64.9821 H   0  0  0  0  0  0  0  0  0  0  0  0
  127.2583  129.5112   63.7702 H   0  0  0  0  0  0  0  0  0  0  0  0
  124.9818  130.4568   63.4536 H   0  0  0  0  0  0  0  0  0  0  0  0
  123.2939  130.2929   65.2705 H   0  0  0  0  0  0  0  0  0  0  0  0
  123.8580  129.1568   67.4061 H   0  0  0  0  0  0  0  0  0  0  0  0
  126.1229  128.1926   67.7523 H   0  0  0  0  0  0  0  0  0  0  0  0
  126.6534  126.2503   71.9739 H   0  0  0  0  0  0  0  0  0  0  0  0
  127.9128  127.2259   73.9113 H   0  0  0  0  0  0  0  0  0  0  0  0
  129.9858  128.5601   73.5120 H   0  0  0  0  0  0  0  0  0  0  0  0
  130.8106  128.9297   71.1714 H   0  0  0  0  0  0  0  0  0  0  0  0
  127.2358  124.0411   60.9744 H   0  0  0  0  0  0  0  0  0  0  0  0
  129.2994  122.9039   59.1074 H   0  0  0  0  0  0  0  0  0  0  0  0
  128.2419  121.7852   60.0976 H   0  0  0  0  0  0  0  0  0  0  0  0
  125.8916  123.9522   60.0385 H   0  0  0  0  0  0  0  0  0  0  0  0
  124.1066  124.3321   58.3474 H   0  0  0  0  0  0  0  0  0  0  0  0
  124.4236  123.5774   56.0034 H   0  0  0  0  0  0  0  0  0  0  0  0
  126.5326  122.4581   55.3190 H   0  0  0  0  0  0  0  0  0  0  0  0
  128.3380  122.0640   56.9836 H   0  0  0  0  0  0  0  0  0  0  0  0
  128.9511  129.1802   61.3152 H   0  0  0  0  0  0  0  0  0  0  0  0
  130.6359  130.4818   59.9871 H   0  0  0  0  0  0  0  0  0  0  0  0
  132.1062  129.3129   58.3426 H   0  0  0  0  0  0  0  0  0  0  0  0
  131.9025  126.8345   58.0126 H   0  0  0  0  0  0  0  0  0  0  0  0
  1  2  2  0
  2  3  1  0
  3  4  1  0
  4  5  2  0
  4  6  1  0
  6  7  1  0
  7  8  2  0
  7  9  1  0
  9 10  1  0
 10 11  1  0
 11 12  2  0
 12 13  1  0
 13 14  2  0
 14 15  1  0
 15 16  2  0
  9 17  1  0
 17 18  1  0
 18 19  2  0
 18 20  1  0
 20 21  2  0
 21 22  1  0
 22 23  2  0
 23 24  1  0
 24 25  2  0
 25 26  1  0
 26 27  2  0
  2 28  1  0
 28 29  1  0
 29 30  1  0
 30 31  2  0
 31 32  1  0
 32 33  2  0
 33 34  1  0
 34 35  2  0
 28 36  1  0
 36 37  1  0
 37 38  2  0
 37 39  1  0
 39 40  2  0
 40 41  1  0
 41 42  2  0
 42 43  1  0
 43 44  2  0
 44 45  1  0
 45 46  2  0
 16 11  1  0
 26 17  1  0
 35 30  1  0
 45 36  1  0
 25 20  1  0
 44 39  1  0
  3 47  1  0
  6 48  1  0
  9 49  1  1
 10 50  1  0
 10 51  1  0
 12 52  1  0
 13 53  1  0
 14 54  1  0
 15 55  1  0
 16 56  1  0
 21 57  1  0
 22 58  1  0
 23 59  1  0
 24 60  1  0
 28 61  1  1
 29 62  1  0
 29 63  1  0
 31 64  1  0
 32 65  1  0
 33 66  1  0
 34 67  1  0
 35 68  1  0
 40 69  1  0
 41 70  1  0
 42 71  1  0
 43 72  1  0
M  END
>  <Binding energies>  (1) 
[-10.91]

>  <Ligand effiencies>  (1) 
[-0.22729166666666667]

>  <Interactions>  (1) 
["H-A:HIS:456:NE2:4070, V-A:GLU:543:CD:4908, V-A:HIS:456:CD2:4068, V-B:GLU:543:CD:9880, V-A:ASP:366:CG:3213, V-B:TYR:539:CD2:9846, H-B:ALA:541:N:9863, V-B:GLU:543:CB:9878, H-A:TYR:484:OH:4348, V-A:TYR:484:CZ:4347, V-A:TYR:484:CE1:4345, V-B:HIS:456:CE1:9040, V-B:TYR:539:CE2:9848, V-A:HIS:456:CE1:4069, V-B:GLU:543:CG:9879, V-B:ARG:545:CD:9895, V-B:ARG:545:CZ:9898, V-B:ARG:545:CG:9894, H-B:ARG:545:N:9892, V-B:PRO:540:CA:9855, V-B:GLY:544:C:9884, V-B:ALA:541:CB:9864, V-B:TYR:539:CZ:9849, V-B:TYR:539:C:9839, V-B:PRO:540:CB:9857, V-B:PRO:540:N:9856, H-B:GLU:543:OE2:9882, V-B:TYR:539:CG:9844, V-B:LEU:363:CD1:8160, V-A:ASP:366:CB:3212, H-B:GLU:543:OE1:9881, V-B:HIS:456:CD2:9039, V-B:PRO:540:CD:9859, H-B:TYR:539:OH:9850, V-B:ILE:538:CB:9834, H-B:GLY:544:N:9887"]

$$$$
RR19_Rahimova_2017-again1
     RDKit          3D

 71 76  0  0  0  0  0  0  0  0999 V2000
  129.4530  126.9600   64.6300 O   0  0  0  0  0  0  0  0  0  0  0  0
  129.8580  126.1760   65.4910 C   0  0  0  0  0  0  0  0  0  0  0  0
  129.6850  126.3100   66.8280 N   0  0  0  0  0  0  0  0  0  0  0  0
  128.9520  127.1780   67.5870 C   0  0  0  0  0  0  0  0  0  0  0  0
  128.0490  128.5210   67.1330 S   0  0  0  0  0  0  0  0  0  0  0  0
  129.0020  126.7070   68.8870 N   0  0  0  0  0  0  0  0  0  0  0  0
  129.4510  127.2890   69.9510 C   0  0  0  0  0  0  0  0  0  0  0  0
  129.8810  128.4480   70.1170 O   0  0  0  0  0  0  0  0  0  0  0  0
  129.4810  126.4020   71.2400 C   0  0  2  0  0  0  0  0  0  0  0  0
  129.5450  124.8790   70.8840 C   0  0  0  0  0  0  0  0  0  0  0  0
  130.2110  124.0070   71.9450 C   0  0  0  0  0  0  0  0  0  0  0  0
  130.0440  122.6200   71.9130 C   0  0  0  0  0  0  0  0  0  0  0  0
  130.6620  121.8220   72.8710 C   0  0  0  0  0  0  0  0  0  0  0  0
  131.4440  122.4140   73.8620 C   0  0  0  0  0  0  0  0  0  0  0  0
  131.6120  123.7970   73.9030 C   0  0  0  0  0  0  0  0  0  0  0  0
  130.9920  124.5950   72.9450 C   0  0  0  0  0  0  0  0  0  0  0  0
  128.4270  126.7640   72.2430 N   0  0  0  0  0  0  0  0  0  0  0  0
  127.1370  127.0010   71.8700 C   0  0  0  0  0  0  0  0  0  0  0  0
  126.6710  126.9700   70.7300 O   0  0  0  0  0  0  0  0  0  0  0  0
  126.4120  127.3070   73.1290 C   0  0  0  0  0  0  0  0  0  0  0  0
  125.0730  127.6300   73.3580 C   0  0  0  0  0  0  0  0  0  0  0  0
  124.6590  127.8740   74.6720 C   0  0  0  0  0  0  0  0  0  0  0  0
  125.5750  127.7900   75.7290 C   0  0  0  0  0  0  0  0  0  0  0  0
  126.9120  127.4650   75.4790 C   0  0  0  0  0  0  0  0  0  0  0  0
  127.3060  127.2270   74.1610 C   0  0  0  0  0  0  0  0  0  0  0  0
  128.6270  126.8670   73.5930 C   0  0  0  0  0  0  0  0  0  0  0  0
  129.6780  126.6980   74.2090 O   0  0  0  0  0  0  0  0  0  0  0  0
  130.6490  124.9040   65.0650 C   0  0  2  0  0  0  0  0  0  0  0  0
  132.1900  125.0410   65.2250 C   0  0  0  0  0  0  0  0  0  0  0  0
  132.9900  124.2710   64.1900 C   0  0  0  0  0  0  0  0  0  0  0  0
  132.8040  122.8800   64.0450 C   0  0  0  0  0  0  0  0  0  0  0  0
  133.4620  122.1920   63.0330 C   0  0  0  0  0  0  0  0  0  0  0  0
  134.2820  122.8740   62.1420 C   0  0  0  0  0  0  0  0  0  0  0  0
  134.4440  124.2490   62.2500 C   0  0  0  0  0  0  0  0  0  0  0  0
  133.7950  124.9550   63.2550 C   0  0  0  0  0  0  0  0  0  0  0  0
  130.2700  124.3740   63.7200 N   0  0  0  0  0  0  0  0  0  0  0  0
  129.6510  123.1690   63.5750 C   0  0  0  0  0  0  0  0  0  0  0  0
  129.3990  122.3470   64.4570 O   0  0  0  0  0  0  0  0  0  0  0  0
  129.3340  123.0580   62.1300 C   0  0  0  0  0  0  0  0  0  0  0  0
  128.6930  122.0490   61.4090 C   0  0  0  0  0  0  0  0  0  0  0  0
  128.5080  122.2240   60.0330 C   0  0  0  0  0  0  0  0  0  0  0  0
  128.9620  123.3890   59.4020 C   0  0  0  0  0  0  0  0  0  0  0  0
  129.6050  124.3880   60.1410 C   0  0  0  0  0  0  0  0  0  0  0  0
  129.7770  124.1960   61.5120 C   0  0  0  0  0  0  0  0  0  0  0  0
  130.3830  125.0690   62.5480 C   0  0  0  0  0  0  0  0  0  0  0  0
  130.8720  126.1870   62.3860 O   0  0  0  0  0  0  0  0  0  0  0  0
  130.1120  125.5740   67.3690 H   0  0  0  0  0  0  0  0  0  0  0  0
  130.4198  126.6290   71.7665 H   0  0  0  0  0  0  0  0  0  0  0  0
  128.5166  124.5170   70.7382 H   0  0  0  0  0  0  0  0  0  0  0  0
  130.1636  124.7958   69.9782 H   0  0  0  0  0  0  0  0  0  0  0  0
  129.4238  122.1588   71.1303 H   0  0  0  0  0  0  0  0  0  0  0  0
  130.5342  120.7297   72.8466 H   0  0  0  0  0  0  0  0  0  0  0  0
  131.9332  121.7833   74.6189 H   0  0  0  0  0  0  0  0  0  0  0  0
  132.2311  124.2557   74.6880 H   0  0  0  0  0  0  0  0  0  0  0  0
  131.1165  125.6875   72.9748 H   0  0  0  0  0  0  0  0  0  0  0  0
  124.3591  127.6913   72.5234 H   0  0  0  0  0  0  0  0  0  0  0  0
  123.6096  128.1330   74.8762 H   0  0  0  0  0  0  0  0  0  0  0  0
  125.2411  127.9805   76.7596 H   0  0  0  0  0  0  0  0  0  0  0  0
  127.6376  127.3983   76.3031 H   0  0  0  0  0  0  0  0  0  0  0  0
  130.3311  124.1411   65.7909 H   0  0  0  0  0  0  0  0  0  0  0  0
  132.4528  126.1060   65.1428 H   0  0  0  0  0  0  0  0  0  0  0  0
  132.4467  124.6153   66.2063 H   0  0  0  0  0  0  0  0  0  0  0  0
  132.1376  122.3398   64.7336 H   0  0  0  0  0  0  0  0  0  0  0  0
  133.3335  121.1038   62.9367 H   0  0  0  0  0  0  0  0  0  0  0  0
  134.8053  122.3220   61.3473 H   0  0  0  0  0  0  0  0  0  0  0  0
  135.0895  124.7817   61.5362 H   0  0  0  0  0  0  0  0  0  0  0  0
  133.9087  126.0471   63.3217 H   0  0  0  0  0  0  0  0  0  0  0  0
  128.3409  121.1361   61.9117 H   0  0  0  0  0  0  0  0  0  0  0  0
  128.0039  121.4433   59.4445 H   0  0  0  0  0  0  0  0  0  0  0  0
  128.8123  123.5192   58.3200 H   0  0  0  0  0  0  0  0  0  0  0  0
  129.9668  125.3044   59.6518 H   0  0  0  0  0  0  0  0  0  0  0  0
  1  2  2  0
  2  3  1  0
  3  4  1  0
  4  5  2  0
  4  6  1  0
  6  7  2  0
  7  8  1  0
  7  9  1  0
  9 10  1  0
 10 11  1  0
 11 12  2  0
 12 13  1  0
 13 14  2  0
 14 15  1  0
 15 16  2  0
  9 17  1  0
 17 18  1  0
 18 19  2  0
 18 20  1  0
 20 21  2  0
 21 22  1  0
 22 23  2  0
 23 24  1  0
 24 25  2  0
 25 26  1  0
 26 27  2  0
  2 28  1  0
 28 29  1  0
 29 30  1  0
 30 31  2  0
 31 32  1  0
 32 33  2  0
 33 34  1  0
 34 35  2  0
 28 36  1  0
 36 37  1  0
 37 38  2  0
 37 39  1  0
 39 40  2  0
 40 41  1  0
 41 42  2  0
 42 43  1  0
 43 44  2  0
 44 45  1  0
 45 46  2  0
 16 11  1  0
 26 17  1  0
 35 30  1  0
 45 36  1  0
 25 20  1  0
 44 39  1  0
  3 47  1  0
  9 48  1  1
 10 49  1  0
 10 50  1  0
 12 51  1  0
 13 52  1  0
 14 53  1  0
 15 54  1  0
 16 55  1  0
 21 56  1  0
 22 57  1  0
 23 58  1  0
 24 59  1  0
 28 60  1  1
 29 61  1  0
 29 62  1  0
 31 63  1  0
 32 64  1  0
 33 65  1  0
 34 66  1  0
 35 67  1  0
 40 68  1  0
 41 69  1  0
 42 70  1  0
 43 71  1  0
M  CHG  1   8  -1
M  END
>  <Binding energies>  (1) 
[-9.96]

>  <Ligand effiencies>  (1) 
[-0.2119148936170213]

>  <Interactions>  (1) 
["H-A:HIS:456:NE2:4070, V-A:GLU:543:CD:4908, V-A:HIS:456:CD2:4068, V-A:ASP:366:CG:3213, V-B:TYR:539:CD2:9846, V-A:LEU:475:CD1:4258, H-B:HIS:456:NE2:9041, H-A:TYR:484:OH:4348, V-A:TYR:484:CE1:4345, V-B:HIS:456:CE1:9040, V-B:TYR:539:CE2:9848, V-A:HIS:456:CE1:4069, V-B:GLU:543:CG:9879, V-A:ARG:545:CZ:4926, H-B:ARG:545:N:9892, V-B:PRO:540:CA:9855, V-B:GLY:544:C:9884, V-B:ALA:541:CB:9864, V-A:ILE:369:CD1:3239, V-A:GLY:453:CA:4044, V-A:GLY:454:CA:4049, V-A:GLY:453:C:4042, V-B:ALA:541:CA:9862, H-A:ARG:545:NH2:4928, V-B:HIS:456:CD2:9039, V-A:TYR:484:CG:4342, V-B:HIS:456:CG:9037, V-A:TYR:484:CE2:4346, V-A:HIS:456:CG:4066, V-A:TYR:484:CD1:4343, V-A:TYR:484:CD2:4344, V-A:HIS:456:CB:4065, V-A:ASP:473:CG:4240, V-A:ASP:473:CB:4239, H-A:LYS:547:NZ:4951, V-B:HIS:456:CB:9036, V-A:TYR:484:CB:4341, V-B:VAL:458:CG2:9058, V-B:ARG:545:C:9889, V-B:HIS:456:CA:9034, V-B:VAL:457:C:9044, V-B:HIS:456:C:9032"]

$$$$
RR1_Rahimova_2017
     RDKit          3D

 68 71  0  0  0  0  0  0  0  0999 V2000
  134.7480  118.2330   59.5190 C   0  0  0  0  0  0  0  0  0  0  0  0
  133.9830  118.5120   60.6870 O   0  0  0  0  0  0  0  0  0  0  0  0
  133.5770  119.8080   60.9330 C   0  0  0  0  0  0  0  0  0  0  0  0
  134.1480  120.6460   61.9050 C   0  0  0  0  0  0  0  0  0  0  0  0
  133.6670  121.9390   62.0870 C   0  0  0  0  0  0  0  0  0  0  0  0
  132.6170  122.4190   61.3030 C   0  0  0  0  0  0  0  0  0  0  0  0
  132.1710  123.7220   61.5950 N   0  0  0  0  0  0  0  0  0  0  0  0
  132.6270  124.5960   62.5170 C   0  0  0  0  0  0  0  0  0  0  0  0
  133.5090  124.3500   63.3400 O   0  0  0  0  0  0  0  0  0  0  0  0
  131.9470  125.9740   62.4850 C   0  0  0  0  0  0  0  0  0  0  0  0
  130.3230  126.0660   63.3170 S   0  0  0  0  0  0  0  0  0  0  0  0
  129.5340  124.7500   62.4510 C   0  0  0  0  0  0  0  0  0  0  0  0
  128.7780  124.9130   61.3950 N   0  0  0  0  0  0  0  0  0  0  0  0
  128.4130  123.6760   61.0720 C   0  0  0  0  0  0  0  0  0  0  0  0
  127.5340  123.3810   59.8890 C   0  0  0  0  0  0  0  0  0  0  0  0
  128.0240  122.7040   58.7610 C   0  0  0  0  0  0  0  0  0  0  0  0
  127.1850  122.4460   57.6760 C   0  0  0  0  0  0  0  0  0  0  0  0
  125.8600  122.8750   57.7440 C   0  0  0  0  0  0  0  0  0  0  0  0
  125.3530  123.5310   58.8180 N   0  0  0  0  0  0  0  0  0  0  0  0
  126.1860  123.7710   59.8640 C   0  0  0  0  0  0  0  0  0  0  0  0
  128.8790  122.7250   61.8580 N   0  0  0  0  0  0  0  0  0  0  0  0
  129.6000  123.4130   62.7480 N   0  0  0  0  0  0  0  0  0  0  0  0
  130.3270  122.7200   63.8120 C   0  0  0  0  0  0  0  0  0  0  0  0
  129.7350  122.8910   65.2220 C   0  0  0  0  0  0  0  0  0  0  0  0
  129.0820  121.9830   65.7480 O   0  0  0  0  0  0  0  0  0  0  0  0
  129.9840  124.0810   65.8020 N   0  0  0  0  0  0  0  0  0  0  0  0
  129.6090  124.2530   67.1270 N   0  0  0  0  0  0  0  0  0  0  0  0
  129.4920  125.5170   67.5900 C   0  0  0  0  0  0  0  0  0  0  0  0
  129.5970  126.5250   66.8840 O   0  0  0  0  0  0  0  0  0  0  0  0
  129.1880  125.6480   69.0690 C   0  0  0  0  0  0  0  0  0  0  0  0
  128.4400  126.7350   69.5340 C   0  0  0  0  0  0  0  0  0  0  0  0
  128.1590  126.8820   70.8880 C   0  0  0  0  0  0  0  0  0  0  0  0
  128.6260  125.9450   71.8240 C   0  0  0  0  0  0  0  0  0  0  0  0
  128.3930  126.0390   73.1850 O   0  0  0  0  0  0  0  0  0  0  0  0
  127.3170  126.8410   73.6580 C   0  0  0  0  0  0  0  0  0  0  0  0
  129.3820  124.8520   71.3790 C   0  0  0  0  0  0  0  0  0  0  0  0
  129.8360  123.9680   72.3440 O   0  0  0  0  0  0  0  0  0  0  0  0
  131.0000  123.1900   72.0940 C   0  0  0  0  0  0  0  0  0  0  0  0
  129.6540  124.7120   70.0060 C   0  0  0  0  0  0  0  0  0  0  0  0
  132.0440  121.5860   60.3300 C   0  0  0  0  0  0  0  0  0  0  0  0
  132.5290  120.2930   60.1500 C   0  0  0  0  0  0  0  0  0  0  0  0
  135.7443  117.8697   59.8113 H   0  0  0  0  0  0  0  0  0  0  0  0
  134.2376  117.4631   58.9217 H   0  0  0  0  0  0  0  0  0  0  0  0
  134.8531  119.1507   58.9217 H   0  0  0  0  0  0  0  0  0  0  0  0
  134.9790  120.2785   62.5250 H   0  0  0  0  0  0  0  0  0  0  0  0
  134.1172  122.5868   62.8536 H   0  0  0  0  0  0  0  0  0  0  0  0
  131.3740  124.0210   61.0500 H   0  0  0  0  0  0  0  0  0  0  0  0
  132.6193  126.6956   62.9722 H   0  0  0  0  0  0  0  0  0  0  0  0
  131.7569  126.1936   61.4240 H   0  0  0  0  0  0  0  0  0  0  0  0
  129.0734  122.3756   58.7322 H   0  0  0  0  0  0  0  0  0  0  0  0
  127.5603  121.9165   56.7878 H   0  0  0  0  0  0  0  0  0  0  0  0
  125.1970  122.6728   56.8899 H   0  0  0  0  0  0  0  0  0  0  0  0
  125.7817  124.3001   60.7396 H   0  0  0  0  0  0  0  0  0  0  0  0
  130.3378  121.6460   63.5744 H   0  0  0  0  0  0  0  0  0  0  0  0
  131.3300  123.1706   63.8429 H   0  0  0  0  0  0  0  0  0  0  0  0
  130.6780  124.7440   65.4860 H   0  0  0  0  0  0  0  0  0  0  0  0
  129.9670  123.5120   67.7120 H   0  0  0  0  0  0  0  0  0  0  0  0
  128.0690  127.4838   68.8187 H   0  0  0  0  0  0  0  0  0  0  0  0
  127.5642  127.7419   71.2297 H   0  0  0  0  0  0  0  0  0  0  0  0
  127.3161  126.8416   74.7580 H   0  0  0  0  0  0  0  0  0  0  0  0
  127.4383  127.8708   73.2908 H   0  0  0  0  0  0  0  0  0  0  0  0
  126.3648  126.4306   73.2908 H   0  0  0  0  0  0  0  0  0  0  0  0
  131.4517  122.8881   73.0505 H   0  0  0  0  0  0  0  0  0  0  0  0
  130.7252  122.2934   71.5191 H   0  0  0  0  0  0  0  0  0  0  0  0
  131.7234  123.7868   71.5191 H   0  0  0  0  0  0  0  0  0  0  0  0
  130.2443  123.8510   69.6591 H   0  0  0  0  0  0  0  0  0  0  0  0
  131.2129  121.9538   59.7103 H   0  0  0  0  0  0  0  0  0  0  0  0
  132.0805  119.6464   59.3814 H   0  0  0  0  0  0  0  0  0  0  0  0
  1  2  1  0
  2  3  1  0
  3  4  2  0
  4  5  1  0
  5  6  2  0
  6  7  1  0
  7  8  1  0
  8  9  2  0
  8 10  1  0
 10 11  1  0
 11 12  1  0
 12 13  2  0
 13 14  1  0
 14 15  1  0
 15 16  2  0
 16 17  1  0
 17 18  2  0
 18 19  1  0
 19 20  2  0
 14 21  2  0
 21 22  1  0
 22 23  1  0
 23 24  1  0
 24 25  2  0
 24 26  1  0
 26 27  1  0
 27 28  1  0
 28 29  2  0
 28 30  1  0
 30 31  2  0
 31 32  1  0
 32 33  2  0
 33 34  1  0
 34 35  1  0
 33 36  1  0
 36 37  1  0
 37 38  1  0
 36 39  2  0
  6 40  1  0
 40 41  2  0
 41  3  1  0
 22 12  1  0
 39 30  1  0
 20 15  1  0
  1 42  1  0
  1 43  1  0
  1 44  1  0
  4 45  1  0
  5 46  1  0
  7 47  1  0
 10 48  1  0
 10 49  1  0
 16 50  1  0
 17 51  1  0
 18 52  1  0
 20 53  1  0
 23 54  1  0
 23 55  1  0
 26 56  1  0
 27 57  1  0
 31 58  1  0
 32 59  1  0
 35 60  1  0
 35 61  1  0
 35 62  1  0
 38 63  1  0
 38 64  1  0
 38 65  1  0
 39 66  1  0
 40 67  1  0
 41 68  1  0
M  END
>  <Binding energies>  (1) 
[-8.27]

>  <Ligand effiencies>  (1) 
[-0.18795454545454546]

>  <Interactions>  (1) 
["V-B:GLU:543:CA:9876, V-A:HIS:456:CD2:4068, V-B:TYR:539:CD2:9846, V-A:LEU:475:CD1:4258, V-B:GLU:543:CB:9878, H-A:TYR:484:OH:4348, V-A:TYR:484:CZ:4347, V-B:GLU:543:C:9874, V-A:TYR:484:CE1:4345, V-B:HIS:456:CE1:9040, V-B:TYR:539:CE2:9848, V-A:HIS:456:CE1:4069, V-B:GLU:543:CG:9879, V-A:ARG:545:CZ:4926, V-B:PRO:540:CA:9855, V-B:ALA:541:CB:9864, H-B:LYS:547:NZ:9923, V-B:TYR:539:C:9839, V-B:PRO:540:CB:9857, V-B:PRO:540:N:9856, V-A:ILE:369:CD1:3239, V-A:GLY:454:CA:4049, V-A:ILE:369:CG2:3237, H-A:GLY:454:N:4050, V-A:TRP:381:CZ2:3370, V-A:TRP:381:CH2:3372, H-B:GLU:543:O:9875, V-A:TYR:484:CG:4342, V-A:TYR:484:CE2:4346, V-A:HIS:456:CG:4066, V-A:TYR:484:CD2:4344, V-A:HIS:456:CB:4065, V-B:PRO:540:CD:9859, V-A:SER:385:CA:3407, V-A:SER:385:C:3405, V-A:VAL:384:C:3397"]

$$$$
RR20_Rahimova_2017
     RDKit          3D

 68 73  0  0  0  0  0  0  0  0999 V2000
  127.2500  122.7370   58.8050 C   0  0  0  0  0  0  0  0  0  0  0  0
  128.5740  122.5610   59.5270 C   0  0  0  0  0  0  0  0  0  0  0  0
  129.5720  123.5260   59.3920 C   0  0  0  0  0  0  0  0  0  0  0  0
  130.7840  123.3710   60.0610 C   0  0  0  0  0  0  0  0  0  0  0  0
  131.0120  122.2440   60.8590 C   0  0  0  0  0  0  0  0  0  0  0  0
  132.3270  122.1050   61.5930 C   0  0  0  0  0  0  0  0  0  0  0  0
  133.0870  121.2020   61.2370 O   0  0  0  0  0  0  0  0  0  0  0  0
  132.6260  122.9770   62.6000 N   0  0  0  0  0  0  0  0  0  0  0  0
  133.8530  123.7900   62.5760 C   0  0  0  0  0  0  0  0  0  0  0  0
  133.7640  124.7350   63.7620 C   0  0  0  0  0  0  0  0  0  0  0  0
  132.3200  124.6460   64.1520 C   0  0  0  0  0  0  0  0  0  0  0  0
  131.6270  125.3620   65.1290 C   0  0  0  0  0  0  0  0  0  0  0  0
  130.3100  125.0230   65.4620 C   0  0  0  0  0  0  0  0  0  0  0  0
  129.5600  125.8000   66.5080 C   0  0  0  0  0  0  0  0  0  0  0  0
  129.4770  125.2940   67.7280 N   0  0  0  0  0  0  0  0  0  0  0  0
  128.8210  126.0620   68.5600 C   0  0  0  0  0  0  0  0  0  0  0  0
  128.5570  125.8380   69.9030 N   0  0  0  0  0  0  0  0  0  0  0  0
  128.8720  126.6490   70.9420 C   0  0  0  0  0  0  0  0  0  0  0  0
  129.4350  127.7380   70.8190 O   0  0  0  0  0  0  0  0  0  0  0  0
  128.4770  126.1920   72.3660 C   0  0  0  0  0  0  0  0  0  0  0  0
  129.5350  125.4110   73.0340 N   0  0  0  0  0  0  0  0  0  0  0  0
  130.1120  124.3810   72.1570 C   0  0  0  0  0  0  0  0  0  0  0  0
  131.0120  123.4280   72.9750 C   0  0  0  0  0  0  0  0  0  0  0  0
  131.9570  124.1660   73.9240 C   0  0  0  0  0  0  0  0  0  0  0  0
  133.0210  123.5020   74.5430 C   0  0  0  0  0  0  0  0  0  0  0  0
  133.8580  124.1650   75.4370 C   0  0  0  0  0  0  0  0  0  0  0  0
  133.6400  125.5090   75.7220 C   0  0  0  0  0  0  0  0  0  0  0  0
  132.5890  126.1850   75.1060 C   0  0  0  0  0  0  0  0  0  0  0  0
  131.7400  125.5310   74.2070 C   0  0  0  0  0  0  0  0  0  0  0  0
  130.6230  126.2870   73.4870 C   0  0  0  0  0  0  0  0  0  0  0  0
  128.2240  127.5180   67.8640 S   0  0  0  0  0  0  0  0  0  0  0  0
  128.9110  127.0410   66.3300 C   0  0  0  0  0  0  0  0  0  0  0  0
  128.7280  127.9100   65.1050 C   0  0  0  0  0  0  0  0  0  0  0  0
  129.7240  123.9140   64.8320 C   0  0  0  0  0  0  0  0  0  0  0  0
  130.4210  123.1850   63.8690 C   0  0  0  0  0  0  0  0  0  0  0  0
  131.7070  123.5870   63.4830 C   0  0  0  0  0  0  0  0  0  0  0  0
  129.9940  121.2940   61.0130 C   0  0  0  0  0  0  0  0  0  0  0  0
  128.7810  121.4490   60.3450 C   0  0  0  0  0  0  0  0  0  0  0  0
  126.4414  122.8445   59.5430 H   0  0  0  0  0  0  0  0  0  0  0  0
  127.2930  123.6373   58.1745 H   0  0  0  0  0  0  0  0  0  0  0  0
  127.0563  121.8567   58.1745 H   0  0  0  0  0  0  0  0  0  0  0  0
  129.4022  124.4086   58.7578 H   0  0  0  0  0  0  0  0  0  0  0  0
  131.5659  124.1383   59.9616 H   0  0  0  0  0  0  0  0  0  0  0  0
  134.7389  123.1447   62.6693 H   0  0  0  0  0  0  0  0  0  0  0  0
  133.9460  124.3442   61.6304 H   0  0  0  0  0  0  0  0  0  0  0  0
  134.4169  124.4030   64.5826 H   0  0  0  0  0  0  0  0  0  0  0  0
  134.0886  125.7594   63.5270 H   0  0  0  0  0  0  0  0  0  0  0  0
  132.1201  126.2006   65.6423 H   0  0  0  0  0  0  0  0  0  0  0  0
  128.0860  124.9710   70.1230 H   0  0  0  0  0  0  0  0  0  0  0  0
  128.2626  127.0836   72.9736 H   0  0  0  0  0  0  0  0  0  0  0  0
  127.5966  125.5395   72.2702 H   0  0  0  0  0  0  0  0  0  0  0  0
  129.2998  123.8036   71.6912 H   0  0  0  0  0  0  0  0  0  0  0  0
  130.7185  124.8693   71.3800 H   0  0  0  0  0  0  0  0  0  0  0  0
  130.3687  122.7619   73.5688 H   0  0  0  0  0  0  0  0  0  0  0  0
  131.6339  122.8688   72.2605 H   0  0  0  0  0  0  0  0  0  0  0  0
  133.1994  122.4397   74.3202 H   0  0  0  0  0  0  0  0  0  0  0  0
  134.6893  123.6274   75.9165 H   0  0  0  0  0  0  0  0  0  0  0  0
  134.2951  126.0362   76.4312 H   0  0  0  0  0  0  0  0  0  0  0  0
  132.4243  127.2493   75.3300 H   0  0  0  0  0  0  0  0  0  0  0  0
  130.2059  127.0357   74.1765 H   0  0  0  0  0  0  0  0  0  0  0  0
  131.0643  126.7518   72.5930 H   0  0  0  0  0  0  0  0  0  0  0  0
  128.5106  128.9422   65.4168 H   0  0  0  0  0  0  0  0  0  0  0  0
  129.6490  127.8949   64.5038 H   0  0  0  0  0  0  0  0  0  0  0  0
  127.8913  127.5247   64.5038 H   0  0  0  0  0  0  0  0  0  0  0  0
  128.7002  123.6156   65.1018 H   0  0  0  0  0  0  0  0  0  0  0  0
  129.9620  122.2955   63.4128 H   0  0  0  0  0  0  0  0  0  0  0  0
  130.1529  120.4218   61.6642 H   0  0  0  0  0  0  0  0  0  0  0  0
  127.9876  120.6961   60.4621 H   0  0  0  0  0  0  0  0  0  0  0  0
  1  2  1  0
  2  3  2  0
  3  4  1  0
  4  5  2  0
  5  6  1  0
  6  7  2  0
  6  8  1  0
  8  9  1  0
  9 10  1  0
 10 11  1  0
 11 12  2  0
 12 13  1  0
 13 14  1  0
 14 15  1  0
 15 16  2  0
 16 17  1  0
 17 18  1  0
 18 19  2  0
 18 20  1  0
 20 21  1  0
 21 22  1  0
 22 23  1  0
 23 24  1  0
 24 25  2  0
 25 26  1  0
 26 27  2  0
 27 28  1  0
 28 29  2  0
 29 30  1  0
 16 31  1  0
 31 32  1  0
 32 33  1  0
 13 34  2  0
 34 35  1  0
 35 36  2  0
  5 37  1  0
 37 38  2  0
 38  2  1  0
 36  8  1  0
 36 11  1  0
 32 14  2  0
 30 21  1  0
 29 24  1  0
  1 39  1  0
  1 40  1  0
  1 41  1  0
  3 42  1  0
  4 43  1  0
  9 44  1  0
  9 45  1  0
 10 46  1  0
 10 47  1  0
 12 48  1  0
 17 49  1  0
 20 50  1  0
 20 51  1  0
 22 52  1  0
 22 53  1  0
 23 54  1  0
 23 55  1  0
 25 56  1  0
 26 57  1  0
 27 58  1  0
 28 59  1  0
 30 60  1  0
 30 61  1  0
 33 62  1  0
 33 63  1  0
 33 64  1  0
 34 65  1  0
 35 66  1  0
 37 67  1  0
 38 68  1  0
M  END
>  <Binding energies>  (1) 
[-10.73]

>  <Ligand effiencies>  (1) 
[-0.2751282051282051]

>  <Interactions>  (1) 
["H-A:HIS:456:NE2:4070, V-A:GLU:543:CD:4908, V-A:HIS:456:CD2:4068, V-B:TYR:539:CD2:9846, V-A:LEU:475:CD1:4258, V-B:GLU:543:CB:9878, H-B:HIS:456:NE2:9041, H-A:TYR:484:OH:4348, V-B:GLU:543:C:9874, V-B:HIS:456:CE1:9040, V-B:TYR:539:CE2:9848, V-A:HIS:456:CE1:4069, V-B:GLU:543:CG:9879, V-A:ARG:545:CZ:4926, V-B:PRO:540:CA:9855, V-B:ALA:541:CB:9864, H-B:LYS:547:NZ:9923, V-B:TYR:539:C:9839, V-B:PRO:540:C:9853, V-B:PRO:540:N:9856, V-A:GLY:453:CA:4044, V-A:GLY:454:CA:4049, H-B:GLU:543:O:9875, V-A:HIS:456:CG:4066, V-A:HIS:456:CB:4065, V-A:ASP:473:CG:4240, V-A:ASP:473:CB:4239, H-B:GLY:544:O:9885, V-A:LYS:471:CD:4219, V-A:VAL:458:CG2:4087, V-A:LYS:547:CD:4949"]

$$$$
RR20_Rahimova_2017-again1
     RDKit          3D

 68 73  0  0  0  0  0  0  0  0999 V2000
  130.9290  122.3210   73.0810 C   0  0  0  0  0  0  0  0  0  0  0  0
  130.4550  123.5480   72.3230 C   0  0  0  0  0  0  0  0  0  0  0  0
  130.2780  124.7570   72.9980 C   0  0  0  0  0  0  0  0  0  0  0  0
  129.8510  125.8850   72.3030 C   0  0  0  0  0  0  0  0  0  0  0  0
  129.5860  125.8110   70.9300 C   0  0  0  0  0  0  0  0  0  0  0  0
  129.1400  127.0510   70.1880 C   0  0  0  0  0  0  0  0  0  0  0  0
  129.6700  128.1220   70.4900 O   0  0  0  0  0  0  0  0  0  0  0  0
  128.1990  126.9370   69.2040 N   0  0  0  0  0  0  0  0  0  0  0  0
  126.9550  126.1790   69.4160 C   0  0  0  0  0  0  0  0  0  0  0  0
  126.1020  126.4000   68.1780 C   0  0  0  0  0  0  0  0  0  0  0  0
  126.7700  127.5700   67.5190 C   0  0  0  0  0  0  0  0  0  0  0  0
  126.3820  128.2740   66.3790 C   0  0  0  0  0  0  0  0  0  0  0  0
  127.2290  129.2400   65.8130 C   0  0  0  0  0  0  0  0  0  0  0  0
  126.8150  129.9940   64.5820 C   0  0  0  0  0  0  0  0  0  0  0  0
  127.7630  130.4460   63.7760 N   0  0  0  0  0  0  0  0  0  0  0  0
  127.3130  131.0990   62.7330 C   0  0  0  0  0  0  0  0  0  0  0  0
  128.0160  131.7260   61.7380 N   0  0  0  0  0  0  0  0  0  0  0  0
  127.4930  132.2670   60.6890 C   0  0  0  0  0  0  0  0  0  0  0  0
  126.3050  132.4310   60.3500 O   0  0  0  0  0  0  0  0  0  0  0  0
  128.5280  132.8160   59.6870 C   0  0  0  0  0  0  0  0  0  0  0  0
  128.2130  132.2890   58.2560 N   0  0  2  0  0  0  0  0  0  0  0  0
  128.1230  130.7500   58.1990 C   0  0  0  0  0  0  0  0  0  0  0  0
  129.5000  130.1320   58.5040 C   0  0  0  0  0  0  0  0  0  0  0  0
  130.6320  130.7580   57.6950 C   0  0  0  0  0  0  0  0  0  0  0  0
  131.8370  130.0630   57.5340 C   0  0  0  0  0  0  0  0  0  0  0  0
  132.9090  130.6230   56.8440 C   0  0  0  0  0  0  0  0  0  0  0  0
  132.7860  131.8950   56.2990 C   0  0  0  0  0  0  0  0  0  0  0  0
  131.5900  132.5940   56.4390 C   0  0  0  0  0  0  0  0  0  0  0  0
  130.4990  132.0450   57.1220 C   0  0  0  0  0  0  0  0  0  0  0  0
  129.1920  132.8440   57.1940 C   0  0  0  0  0  0  0  0  0  0  0  0
  125.5930  131.2220   62.6980 S   0  0  0  0  0  0  0  0  0  0  0  0
  125.4990  130.2870   64.1710 C   0  0  0  0  0  0  0  0  0  0  0  0
  124.1550  129.9190   64.7620 C   0  0  0  0  0  0  0  0  0  0  0  0
  128.4880  129.4450   66.3920 C   0  0  0  0  0  0  0  0  0  0  0  0
  128.8860  128.7290   67.5220 C   0  0  0  0  0  0  0  0  0  0  0  0
  128.0010  127.8250   68.1230 C   0  0  0  0  0  0  0  0  0  0  0  0
  129.7960  124.6020   70.2540 C   0  0  0  0  0  0  0  0  0  0  0  0
  130.2230  123.4740   70.9490 C   0  0  0  0  0  0  0  0  0  0  0  0
  130.8569  122.5077   74.1626 H   0  0  0  0  0  0  0  0  0  0  0  0
  130.2990  121.4595   72.8148 H   0  0  0  0  0  0  0  0  0  0  0  0
  131.9746  122.1068   72.8148 H   0  0  0  0  0  0  0  0  0  0  0  0
  130.4758  124.8183   74.0783 H   0  0  0  0  0  0  0  0  0  0  0  0
  129.7211  126.8391   72.8349 H   0  0  0  0  0  0  0  0  0  0  0  0
  127.1777  125.1088   69.5385 H   0  0  0  0  0  0  0  0  0  0  0  0
  126.4336  126.5142   70.3247 H   0  0  0  0  0  0  0  0  0  0  0  0
  126.1161  125.5156   67.5240 H   0  0  0  0  0  0  0  0  0  0  0  0
  125.0405  126.5763   68.4062 H   0  0  0  0  0  0  0  0  0  0  0  0
  125.4036  128.0704   65.9194 H   0  0  0  0  0  0  0  0  0  0  0  0
  128.4885  133.9153   59.6876 H   0  0  0  0  0  0  0  0  0  0  0  0
  129.5324  132.4794   59.9835 H   0  0  0  0  0  0  0  0  0  0  0  0
  127.2900  132.6380   58.0290 H   0  0  0  0  0  0  0  0  0  0  0  0
  127.3931  130.3996   58.9437 H   0  0  0  0  0  0  0  0  0  0  0  0
  127.8038  130.4433   57.1920 H   0  0  0  0  0  0  0  0  0  0  0  0
  129.7164  130.2708   59.5735 H   0  0  0  0  0  0  0  0  0  0  0  0
  129.4497  129.0686   58.2273 H   0  0  0  0  0  0  0  0  0  0  0  0
  131.9387  129.0545   57.9612 H   0  0  0  0  0  0  0  0  0  0  0  0
  133.8480  130.0614   56.7311 H   0  0  0  0  0  0  0  0  0  0  0  0
  133.6303  132.3482   55.7589 H   0  0  0  0  0  0  0  0  0  0  0  0
  131.5008  133.6000   56.0031 H   0  0  0  0  0  0  0  0  0  0  0  0
  129.4306  133.8878   57.4461 H   0  0  0  0  0  0  0  0  0  0  0  0
  128.6993  132.7659   56.2136 H   0  0  0  0  0  0  0  0  0  0  0  0
  124.2200  129.9368   65.8599 H   0  0  0  0  0  0  0  0  0  0  0  0
  123.3969  130.6426   64.4278 H   0  0  0  0  0  0  0  0  0  0  0  0
  123.8713  128.9101   64.4278 H   0  0  0  0  0  0  0  0  0  0  0  0
  129.1739  130.1821   65.9490 H   0  0  0  0  0  0  0  0  0  0  0  0
  129.8931  128.8744   67.9399 H   0  0  0  0  0  0  0  0  0  0  0  0
  129.6227  124.5438   69.1693 H   0  0  0  0  0  0  0  0  0  0  0  0
  130.3775  122.5246   70.4153 H   0  0  0  0  0  0  0  0  0  0  0  0
  1  2  1  0
  2  3  2  0
  3  4  1  0
  4  5  2  0
  5  6  1  0
  6  7  2  0
  6  8  1  0
  8  9  1  0
  9 10  1  0
 10 11  1  0
 11 12  2  0
 12 13  1  0
 13 14  1  0
 14 15  1  0
 15 16  2  0
 16 17  1  0
 17 18  2  0
 18 19  1  0
 18 20  1  0
 20 21  1  0
 21 22  1  0
 22 23  1  0
 23 24  1  0
 24 25  2  0
 25 26  1  0
 26 27  2  0
 27 28  1  0
 28 29  2  0
 29 30  1  0
 16 31  1  0
 31 32  1  0
 32 33  1  0
 13 34  2  0
 34 35  1  0
 35 36  2  0
  5 37  1  0
 37 38  2  0
 38  2  1  0
 36  8  1  0
 36 11  1  0
 32 14  2  0
 30 21  1  0
 29 24  1  0
  1 39  1  0
  1 40  1  0
  1 41  1  0
  3 42  1  0
  4 43  1  0
  9 44  1  0
  9 45  1  0
 10 46  1  0
 10 47  1  0
 12 48  1  0
 20 49  1  0
 20 50  1  0
 21 51  1  6
 22 52  1  0
 22 53  1  0
 23 54  1  0
 23 55  1  0
 25 56  1  0
 26 57  1  0
 27 58  1  0
 28 59  1  0
 30 60  1  0
 30 61  1  0
 33 62  1  0
 33 63  1  0
 33 64  1  0
 34 65  1  0
 35 66  1  0
 37 67  1  0
 38 68  1  0
M  CHG  2  19  -1  21   1
M  END
>  <Binding energies>  (1) 
[-9.02]

>  <Ligand effiencies>  (1) 
[-0.23128205128205126]

>  <Interactions>  (1) 
["H-A:HIS:456:NE2:4070, V-A:GLU:543:CD:4908, V-A:HIS:456:CD2:4068, V-B:GLU:543:CB:9878, H-B:HIS:456:NE2:9041, V-A:TYR:484:CZ:4347, V-B:GLU:543:C:9874, V-A:TYR:484:CE1:4345, V-B:HIS:456:CE1:9040, V-A:HIS:456:CE1:4069, V-B:ARG:545:CZ:9898, V-B:ARG:545:CG:9894, V-A:PRO:540:CA:4883, V-A:TYR:539:CD2:4874, V-A:TYR:539:CZ:4877, V-A:TYR:539:CE2:4876, V-A:GLU:543:CB:4906, V-A:PRO:540:CB:4885, V-A:TYR:539:C:4867, V-B:ARG:545:CA:9891, V-B:GLY:544:C:9884, V-A:GLU:543:CG:4907, V-A:PRO:540:N:4884, H-A:TYR:539:OH:4878, V-A:TYR:484:CG:4342, V-A:TYR:484:CE2:4346, V-A:HIS:456:CG:4066, V-A:TYR:484:CD1:4343, V-A:TYR:484:CD2:4344, V-B:GLY:544:CA:9886, V-A:ASP:473:CB:4239, V-A:TYR:539:CA:4869, V-A:PRO:540:CD:4887, V-A:TYR:484:CB:4341, V-A:TYR:539:CE1:4875, V-A:TYR:539:CD1:4873, V-A:TYR:539:CG:4872, V-A:LEU:363:CD1:3189, V-B:ARG:545:CB:9893, V-A:TYR:531:CE2:4793"]

$$$$
RR21_Rahimova_2017
     RDKit          3D

 62 67  0  0  0  0  0  0  0  0999 V2000
  129.1800  132.6270   59.8790 C   0  0  0  0  0  0  0  0  0  0  0  0
  130.1830  132.1180   60.7540 O   0  0  0  0  0  0  0  0  0  0  0  0
  130.0980  130.8090   61.1890 C   0  0  0  0  0  0  0  0  0  0  0  0
  131.0850  129.8340   60.9590 C   0  0  0  0  0  0  0  0  0  0  0  0
  130.9230  128.5340   61.4350 C   0  0  0  0  0  0  0  0  0  0  0  0
  129.7780  128.1740   62.1550 C   0  0  0  0  0  0  0  0  0  0  0  0
  129.6090  126.7780   62.6700 C   0  0  0  0  0  0  0  0  0  0  0  0
  129.6460  125.7610   61.8310 N   0  0  0  0  0  0  0  0  0  0  0  0
  129.4710  124.6510   62.5640 N   0  0  0  0  0  0  0  0  0  0  0  0
  129.4780  123.3620   61.9700 C   0  0  0  0  0  0  0  0  0  0  0  0
  128.6390  123.0680   60.8840 C   0  0  0  0  0  0  0  0  0  0  0  0
  128.6590  121.8010   60.3060 C   0  0  0  0  0  0  0  0  0  0  0  0
  129.5130  120.8240   60.8120 C   0  0  0  0  0  0  0  0  0  0  0  0
  130.3480  121.1020   61.8920 C   0  0  0  0  0  0  0  0  0  0  0  0
  130.3310  122.3680   62.4720 C   0  0  0  0  0  0  0  0  0  0  0  0
  129.3370  124.9750   63.8910 C   0  0  0  0  0  0  0  0  0  0  0  0
  129.4060  126.3550   64.0040 C   0  0  0  0  0  0  0  0  0  0  0  0
  129.3610  127.1610   65.2140 C   0  0  0  0  0  0  0  0  0  0  0  0
  129.3690  126.7420   66.5000 C   0  0  0  0  0  0  0  0  0  0  0  0
  129.4280  125.0710   67.1040 S   0  0  0  0  0  0  0  0  0  0  0  0
  129.4270  125.6810   68.7520 C   0  0  0  0  0  0  0  0  0  0  0  0
  129.4800  124.9980   69.8530 N   0  0  0  0  0  0  0  0  0  0  0  0
  129.4850  125.6200   71.1320 C   0  0  0  0  0  0  0  0  0  0  0  0
  129.5530  125.0460   72.2190 O   0  0  0  0  0  0  0  0  0  0  0  0
  129.4050  127.1210   71.0780 C   0  0  0  0  0  0  0  0  0  0  0  0
  129.3830  127.9010   72.3980 C   0  0  0  0  0  0  0  0  0  0  0  0
  128.0200  127.9350   73.0860 C   0  0  0  0  0  0  0  0  0  0  0  0
  126.9350  127.2560   72.5250 C   0  0  0  0  0  0  0  0  0  0  0  0
  125.6970  127.2730   73.1620 C   0  0  0  0  0  0  0  0  0  0  0  0
  125.5400  127.9670   74.3620 C   0  0  0  0  0  0  0  0  0  0  0  0
  124.1910  127.9730   75.0580 C   0  0  0  0  0  0  0  0  0  0  0  0
  126.6250  128.6380   74.9310 C   0  0  0  0  0  0  0  0  0  0  0  0
  127.8630  128.6210   74.2950 C   0  0  0  0  0  0  0  0  0  0  0  0
  129.3470  127.7890   69.9720 N   0  0  0  0  0  0  0  0  0  0  0  0
  129.3620  127.0490   68.7830 N   0  0  0  0  0  0  0  0  0  0  0  0
  129.3220  127.7010   67.5950 C   0  0  0  0  0  0  0  0  0  0  0  0
  129.2610  128.9300   67.4680 O   0  0  0  0  0  0  0  0  0  0  0  0
  128.7920  129.1410   62.3780 C   0  0  0  0  0  0  0  0  0  0  0  0
  128.9510  130.4430   61.9020 C   0  0  0  0  0  0  0  0  0  0  0  0
  127.9800  131.3560   62.1360 F   0  0  0  0  0  0  0  0  0  0  0  0
  128.3541  133.0461   60.4724 H   0  0  0  0  0  0  0  0  0  0  0  0
  129.6123  133.4148   59.2446 H   0  0  0  0  0  0  0  0  0  0  0  0
  128.7994  131.8130   59.2446 H   0  0  0  0  0  0  0  0  0  0  0  0
  131.9933  130.0998   60.3983 H   0  0  0  0  0  0  0  0  0  0  0  0
  131.7034  127.7830   61.2427 H   0  0  0  0  0  0  0  0  0  0  0  0
  127.9635  123.8407   60.4881 H   0  0  0  0  0  0  0  0  0  0  0  0
  128.0028  121.5728   59.4531 H   0  0  0  0  0  0  0  0  0  0  0  0
  129.5283  119.8237   60.3547 H   0  0  0  0  0  0  0  0  0  0  0  0
  131.0187  120.3239   62.2854 H   0  0  0  0  0  0  0  0  0  0  0  0
  130.9882  122.5891   63.3260 H   0  0  0  0  0  0  0  0  0  0  0  0
  129.1991  124.2645   64.7193 H   0  0  0  0  0  0  0  0  0  0  0  0
  129.3146  128.2498   65.0641 H   0  0  0  0  0  0  0  0  0  0  0  0
  130.1042  127.4349   73.0855 H   0  0  0  0  0  0  0  0  0  0  0  0
  129.6376  128.9426   72.1524 H   0  0  0  0  0  0  0  0  0  0  0  0
  127.0591  126.7077   71.5795 H   0  0  0  0  0  0  0  0  0  0  0  0
  124.8430  126.7394   72.7192 H   0  0  0  0  0  0  0  0  0  0  0  0
  124.3407  127.9723   76.1478 H   0  0  0  0  0  0  0  0  0  0  0  0
  123.6314  128.8736   74.7653 H   0  0  0  0  0  0  0  0  0  0  0  0
  123.6234  127.0774   74.7653 H   0  0  0  0  0  0  0  0  0  0  0  0
  126.5012  129.1792   75.8806 H   0  0  0  0  0  0  0  0  0  0  0  0
  128.7185  129.1474   74.7434 H   0  0  0  0  0  0  0  0  0  0  0  0
  127.8819  128.8722   62.9343 H   0  0  0  0  0  0  0  0  0  0  0  0
  1  2  1  0
  2  3  1  0
  3  4  2  0
  4  5  1  0
  5  6  2  0
  6  7  1  0
  7  8  2  0
  8  9  1  0
  9 10  1  0
 10 11  2  0
 11 12  1  0
 12 13  2  0
 13 14  1  0
 14 15  2  0
  9 16  1  0
 16 17  2  0
 17 18  1  0
 18 19  2  0
 19 20  1  0
 20 21  1  0
 21 22  2  0
 22 23  1  0
 23 24  2  0
 23 25  1  0
 25 26  1  0
 26 27  1  0
 27 28  2  0
 28 29  1  0
 29 30  2  0
 30 31  1  0
 30 32  1  0
 32 33  2  0
 25 34  2  0
 34 35  1  0
 35 36  1  0
 36 37  2  0
  6 38  1  0
 38 39  2  0
 39 40  1  0
 39  3  1  0
 17  7  1  0
 36 19  1  0
 15 10  1  0
 35 21  1  0
 33 27  1  0
  1 41  1  0
  1 42  1  0
  1 43  1  0
  4 44  1  0
  5 45  1  0
 11 46  1  0
 12 47  1  0
 13 48  1  0
 14 49  1  0
 15 50  1  0
 16 51  1  0
 18 52  1  0
 26 53  1  0
 26 54  1  0
 28 55  1  0
 29 56  1  0
 31 57  1  0
 31 58  1  0
 31 59  1  0
 32 60  1  0
 33 61  1  0
 38 62  1  0
M  END
>  <Binding energies>  (1) 
[-9.53]

>  <Ligand effiencies>  (1) 
[-0.23825]

>  <Interactions>  (1) 
["H-A:HIS:456:NE2:4070, V-B:GLU:543:CA:9876, V-A:GLU:543:CD:4908, V-A:HIS:456:CD2:4068, V-B:GLU:543:CD:9880, V-B:TYR:539:CD2:9846, V-A:LEU:475:CD1:4258, V-B:GLU:543:CB:9878, H-B:HIS:456:NE2:9041, V-B:GLU:543:C:9874, V-A:TYR:484:CE1:4345, V-B:HIS:456:CE1:9040, V-B:TYR:539:CE2:9848, V-A:HIS:456:CE1:4069, V-B:GLU:543:CG:9879, V-A:PRO:540:C:4881, V-A:PRO:540:CA:4883, V-A:TYR:539:C:4867, V-B:PRO:540:CA:9855, V-B:GLY:544:C:9884, V-B:ALA:541:CB:9864, H-B:LYS:547:NZ:9923, V-B:TYR:539:C:9839, H-A:ALA:541:N:4891, V-A:PRO:540:N:4884, V-B:HIS:456:CD2:9039, V-B:HIS:456:CG:9037, V-B:HIS:456:CB:9036, V-B:VAL:458:CG2:9058, V-B:HIS:456:CA:9034, V-B:VAL:457:C:9044, V-B:HIS:456:C:9032, V-B:VAL:457:CA:9046"]

$$$$
RR22_Rahimova_2017
     RDKit          3D

 49 54  0  0  0  0  0  0  0  0999 V2000
  134.5380  124.9980   64.8180 O   0  0  0  0  0  0  0  0  0  0  0  0
  133.3480  124.9590   64.5140 C   0  0  0  0  0  0  0  0  0  0  0  0
  132.3270  125.7600   64.9960 N   0  0  0  0  0  0  0  0  0  0  0  0
  130.9960  125.6260   64.4890 C   0  0  1  0  0  0  0  0  0  0  0  0
  130.1790  125.3840   65.6380 O   0  0  0  0  0  0  0  0  0  0  0  0
  129.1510  126.2840   65.9220 C   0  0  0  0  0  0  0  0  0  0  0  0
  128.6250  126.2410   67.2130 C   0  0  0  0  0  0  0  0  0  0  0  0
  127.5670  127.0820   67.5590 C   0  0  0  0  0  0  0  0  0  0  0  0
  127.0330  127.9580   66.6140 C   0  0  0  0  0  0  0  0  0  0  0  0
  127.5590  128.0010   65.3210 C   0  0  0  0  0  0  0  0  0  0  0  0
  128.6350  127.1810   64.9670 C   0  0  0  0  0  0  0  0  0  0  0  0
  129.2470  127.1210   63.5860 C   0  0  1  0  0  0  0  0  0  0  0  0
  129.3090  128.3260   62.6690 C   0  0  0  0  0  0  0  0  0  0  0  0
  130.5840  127.9970   61.8880 C   0  0  0  0  0  0  0  0  0  0  0  0
  130.9180  128.6330   60.5990 C   0  0  0  0  0  0  0  0  0  0  0  0
  131.1580  130.0130   60.5250 C   0  0  0  0  0  0  0  0  0  0  0  0
  131.4730  130.6090   59.3070 C   0  0  0  0  0  0  0  0  0  0  0  0
  131.5500  129.8290   58.1560 C   0  0  0  0  0  0  0  0  0  0  0  0
  131.3140  128.4580   58.2120 C   0  0  0  0  0  0  0  0  0  0  0  0
  131.0000  127.8610   59.4300 C   0  0  0  0  0  0  0  0  0  0  0  0
  131.3000  127.1390   62.5130 N   0  0  0  0  0  0  0  0  0  0  0  0
  130.6420  126.8250   63.7150 N   0  0  0  0  0  0  0  0  0  0  0  0
  130.9750  124.3550   63.6520 C   0  0  0  0  0  0  0  0  0  0  0  0
  129.8300  123.7240   63.2980 C   0  0  0  0  0  0  0  0  0  0  0  0
  129.6660  122.5070   62.4800 C   0  0  0  0  0  0  0  0  0  0  0  0
  130.4810  121.3740   62.6180 C   0  0  0  0  0  0  0  0  0  0  0  0
  130.2670  120.2580   61.8080 C   0  0  0  0  0  0  0  0  0  0  0  0
  129.2380  120.3060   60.8670 C   0  0  0  0  0  0  0  0  0  0  0  0
  128.4400  121.3910   60.7060 N   0  0  0  0  0  0  0  0  0  0  0  0
  128.6630  122.4660   61.5040 C   0  0  0  0  0  0  0  0  0  0  0  0
  132.6210  123.7990   63.3170 S   0  0  0  0  0  0  0  0  0  0  0  0
  132.4950  126.4180   65.7410 H   0  0  0  0  0  0  0  0  0  0  0  0
  129.0431  125.5461   67.9562 H   0  0  0  0  0  0  0  0  0  0  0  0
  127.1536  127.0542   68.5780 H   0  0  0  0  0  0  0  0  0  0  0  0
  126.1956  128.6166   66.8878 H   0  0  0  0  0  0  0  0  0  0  0  0
  127.1242  128.6841   64.5765 H   0  0  0  0  0  0  0  0  0  0  0  0
  128.5493  126.4030   63.1304 H   0  0  0  0  0  0  0  0  0  0  0  0
  128.4299  128.3840   62.0104 H   0  0  0  0  0  0  0  0  0  0  0  0
  129.3164  129.2994   63.1813 H   0  0  0  0  0  0  0  0  0  0  0  0
  131.0969  130.6280   61.4349 H   0  0  0  0  0  0  0  0  0  0  0  0
  131.6603  131.6916   59.2540 H   0  0  0  0  0  0  0  0  0  0  0  0
  131.7995  130.3003   57.1939 H   0  0  0  0  0  0  0  0  0  0  0  0
  131.3754  127.8491   57.2979 H   0  0  0  0  0  0  0  0  0  0  0  0
  130.8151  126.7776   59.4762 H   0  0  0  0  0  0  0  0  0  0  0  0
  128.8998  124.1788   63.6693 H   0  0  0  0  0  0  0  0  0  0  0  0
  131.2888  121.3651   63.3646 H   0  0  0  0  0  0  0  0  0  0  0  0
  130.8953  119.3608   61.9091 H   0  0  0  0  0  0  0  0  0  0  0  0
  129.0666  119.4267   60.2286 H   0  0  0  0  0  0  0  0  0  0  0  0
  128.0223  123.3512   61.3773 H   0  0  0  0  0  0  0  0  0  0  0  0
  1  2  2  0
  2  3  1  0
  3  4  1  0
  4  5  1  1
  5  6  1  0
  6  7  2  0
  7  8  1  0
  8  9  2  0
  9 10  1  0
 10 11  2  0
 11 12  1  0
 12 13  1  0
 13 14  1  0
 14 15  1  0
 15 16  2  0
 16 17  1  0
 17 18  2  0
 18 19  1  0
 19 20  2  0
 14 21  2  0
 21 22  1  0
  4 23  1  0
 23 24  2  0
 24 25  1  0
 25 26  2  0
 26 27  1  0
 27 28  2  0
 28 29  1  0
 29 30  2  0
 23 31  1  0
 31  2  1  0
 22  4  1  0
 30 25  1  0
 11  6  1  0
 22 12  1  0
 20 15  1  0
  3 32  1  0
  7 33  1  0
  8 34  1  0
  9 35  1  0
 10 36  1  0
 12 37  1  6
 13 38  1  0
 13 39  1  0
 16 40  1  0
 17 41  1  0
 18 42  1  0
 19 43  1  0
 20 44  1  0
 24 45  1  0
 26 46  1  0
 27 47  1  0
 28 48  1  0
 30 49  1  0
M  END
>  <Binding energies>  (1) 
[-8.53]

>  <Ligand effiencies>  (1) 
[-0.2665625]

>  <Interactions>  (1) 
["V-A:GLU:543:CD:4908, V-B:GLU:543:CD:9880, V-A:ASP:366:CG:3213, V-B:TYR:539:CD2:9846, V-A:LEU:475:CD1:4258, H-B:ALA:541:N:9863, V-B:GLU:543:CB:9878, H-A:TYR:484:OH:4348, V-B:HIS:456:CE1:9040, V-A:HIS:456:CE1:4069, V-B:GLU:543:CG:9879, V-A:PRO:540:CA:4883, V-A:PRO:540:CB:4885, V-A:ARG:545:CZ:4926, V-B:ALA:541:CB:9864, V-B:TYR:539:C:9839, V-B:PRO:540:C:9853, H-A:GLY:454:N:4050, H-A:ARG:545:NH1:4927, V-B:ALA:541:CA:9862, H-A:ARG:545:NE:4924, V-A:PRO:482:CG:4327, V-A:PRO:482:CB:4326, H-A:ARG:545:NH2:4928, H-A:GLU:543:OE2:4910"]

$$$$
RR23_Rahimova_2017
     RDKit          3D

 65 70  0  0  0  0  0  0  0  0999 V2000
  133.1860  119.4130   60.8380 C   0  0  0  0  0  0  0  0  0  0  0  0
  131.9730  120.3090   61.0070 C   0  0  0  0  0  0  0  0  0  0  0  0
  132.1390  121.6840   61.1770 C   0  0  0  0  0  0  0  0  0  0  0  0
  131.0250  122.5070   61.3230 C   0  0  0  0  0  0  0  0  0  0  0  0
  129.7370  121.9600   61.3120 C   0  0  0  0  0  0  0  0  0  0  0  0
  128.5400  122.8730   61.4510 C   0  0  0  0  0  0  0  0  0  0  0  0
  127.4210  122.3750   61.3040 O   0  0  0  0  0  0  0  0  0  0  0  0
  128.7340  124.1930   61.7450 N   0  0  0  0  0  0  0  0  0  0  0  0
  128.1820  125.2610   60.8940 C   0  0  0  0  0  0  0  0  0  0  0  0
  128.4730  126.5700   61.6090 C   0  0  0  0  0  0  0  0  0  0  0  0
  128.8350  126.1220   62.9930 C   0  0  0  0  0  0  0  0  0  0  0  0
  129.1170  126.8930   64.1210 C   0  0  0  0  0  0  0  0  0  0  0  0
  129.5950  126.2870   65.2920 C   0  0  0  0  0  0  0  0  0  0  0  0
  129.9170  127.0980   66.5570 C   0  0  2  0  0  0  0  0  0  0  0  0
  129.8440  126.2920   67.7560 N   0  0  0  0  0  0  0  0  0  0  0  0
  129.4610  126.9720   68.7610 C   0  0  0  0  0  0  0  0  0  0  0  0
  129.2550  126.5420   70.0350 N   0  0  0  0  0  0  0  0  0  0  0  0
  129.2710  125.2720   70.5080 C   0  0  0  0  0  0  0  0  0  0  0  0
  129.5240  124.2640   69.8450 O   0  0  0  0  0  0  0  0  0  0  0  0
  128.9350  125.1170   72.0010 C   0  0  0  0  0  0  0  0  0  0  0  0
  130.1750  125.2730   72.7950 N   0  0  0  0  0  0  0  0  0  0  0  0
  130.4770  126.5730   73.1790 N   0  0  0  0  0  0  0  0  0  0  0  0
  131.5350  126.8440   73.8760 N   0  0  0  0  0  0  0  0  0  0  0  0
  132.3970  125.8130   74.2570 C   0  0  0  0  0  0  0  0  0  0  0  0
  133.5300  126.1390   75.0070 C   0  0  0  0  0  0  0  0  0  0  0  0
  134.4110  125.1320   75.4030 C   0  0  0  0  0  0  0  0  0  0  0  0
  134.1630  123.8030   75.0510 C   0  0  0  0  0  0  0  0  0  0  0  0
  133.0310  123.4750   74.3010 C   0  0  0  0  0  0  0  0  0  0  0  0
  132.1470  124.4860   73.9060 C   0  0  0  0  0  0  0  0  0  0  0  0
  130.9190  124.1520   73.0910 C   0  0  0  0  0  0  0  0  0  0  0  0
  130.6270  123.0100   72.7260 O   0  0  0  0  0  0  0  0  0  0  0  0
  129.1320  128.7070   68.4880 S   0  0  0  0  0  0  0  0  0  0  0  0
  129.0800  128.3890   66.7160 C   0  0  2  0  0  0  0  0  0  0  0  0
  127.6070  128.3180   66.2610 C   0  0  0  0  0  0  0  0  0  0  0  0
  129.8300  124.9070   65.2920 C   0  0  0  0  0  0  0  0  0  0  0  0
  129.5690  124.1380   64.1570 C   0  0  0  0  0  0  0  0  0  0  0  0
  129.0150  124.7380   63.0180 C   0  0  0  0  0  0  0  0  0  0  0  0
  129.5760  120.5820   61.1120 C   0  0  0  0  0  0  0  0  0  0  0  0
  130.6900  119.7600   60.9650 C   0  0  0  0  0  0  0  0  0  0  0  0
  133.5720  119.1279   61.8278 H   0  0  0  0  0  0  0  0  0  0  0  0
  132.8990  118.5084   60.2818 H   0  0  0  0  0  0  0  0  0  0  0  0
  133.9663  119.9532   60.2818 H   0  0  0  0  0  0  0  0  0  0  0  0
  133.1496  122.1179   61.1957 H   0  0  0  0  0  0  0  0  0  0  0  0
  131.1582  123.5918   61.4475 H   0  0  0  0  0  0  0  0  0  0  0  0
  128.6671  125.2503   59.9068 H   0  0  0  0  0  0  0  0  0  0  0  0
  127.1024  125.1254   60.7324 H   0  0  0  0  0  0  0  0  0  0  0  0
  129.3098  127.1030   61.1339 H   0  0  0  0  0  0  0  0  0  0  0  0
  127.6282  127.2741   61.5873 H   0  0  0  0  0  0  0  0  0  0  0  0
  128.9636  127.9819   64.0918 H   0  0  0  0  0  0  0  0  0  0  0  0
  130.9583  127.4233   66.4160 H   0  0  0  0  0  0  0  0  0  0  0  0
  129.0130  127.2540   70.7080 H   0  0  0  0  0  0  0  0  0  0  0  0
  128.2085  125.8880   72.2971 H   0  0  0  0  0  0  0  0  0  0  0  0
  128.5014  124.1224   72.1821 H   0  0  0  0  0  0  0  0  0  0  0  0
  133.7266  127.1852   75.2841 H   0  0  0  0  0  0  0  0  0  0  0  0
  135.3034  125.3853   75.9941 H   0  0  0  0  0  0  0  0  0  0  0  0
  134.8608  123.0129   75.3652 H   0  0  0  0  0  0  0  0  0  0  0  0
  132.8355  122.4289   74.0226 H   0  0  0  0  0  0  0  0  0  0  0  0
  129.5056  129.1685   66.0670 H   0  0  0  0  0  0  0  0  0  0  0  0
  126.9516  128.2864   67.1439 H   0  0  0  0  0  0  0  0  0  0  0  0
  127.3665  129.2056   65.6574 H   0  0  0  0  0  0  0  0  0  0  0  0
  127.4530  127.4114   65.6574 H   0  0  0  0  0  0  0  0  0  0  0  0
  130.2251  124.4230   66.1973 H   0  0  0  0  0  0  0  0  0  0  0  0
  129.7979  123.0621   64.1564 H   0  0  0  0  0  0  0  0  0  0  0  0
  128.5658  120.1485   61.0710 H   0  0  0  0  0  0  0  0  0  0  0  0
  130.5593  118.6780   60.8158 H   0  0  0  0  0  0  0  0  0  0  0  0
  1  2  1  0
  2  3  2  0
  3  4  1  0
  4  5  2  0
  5  6  1  0
  6  7  2  0
  6  8  1  0
  8  9  1  0
  9 10  1  0
 10 11  1  0
 11 12  2  0
 12 13  1  0
 13 14  1  0
 14 15  1  0
 15 16  2  0
 16 17  1  0
 17 18  1  0
 18 19  2  0
 18 20  1  0
 20 21  1  0
 21 22  1  0
 22 23  2  0
 23 24  1  0
 24 25  2  0
 25 26  1  0
 26 27  2  0
 27 28  1  0
 28 29  2  0
 29 30  1  0
 30 31  2  0
 16 32  1  0
 32 33  1  0
 33 34  1  0
 13 35  2  0
 35 36  1  0
 36 37  2  0
  5 38  1  0
 38 39  2  0
 39  2  1  0
 37  8  1  0
 37 11  1  0
 33 14  1  0
 30 21  1  0
 29 24  1  0
  1 40  1  0
  1 41  1  0
  1 42  1  0
  3 43  1  0
  4 44  1  0
  9 45  1  0
  9 46  1  0
 10 47  1  0
 10 48  1  0
 12 49  1  0
 14 50  1  6
 17 51  1  0
 20 52  1  0
 20 53  1  0
 25 54  1  0
 26 55  1  0
 27 56  1  0
 28 57  1  0
 33 58  1  6
 34 59  1  0
 34 60  1  0
 34 61  1  0
 35 62  1  0
 36 63  1  0
 38 64  1  0
 39 65  1  0
M  END
>  <Binding energies>  (1) 
[-10.85]

>  <Ligand effiencies>  (1) 
[-0.27125]

>  <Interactions>  (1) 
["H-A:HIS:456:NE2:4070, V-A:GLU:543:CD:4908, V-A:HIS:456:CD2:4068, V-B:GLU:543:CD:9880, V-B:TYR:539:CD2:9846, V-A:LEU:475:CD1:4258, H-B:ALA:541:N:9863, V-B:GLU:543:CB:9878, H-B:HIS:456:NE2:9041, V-B:HIS:456:CE1:9040, V-A:HIS:456:CE1:4069, V-B:GLU:543:CG:9879, V-A:GLU:543:CB:4906, V-B:ALA:541:CB:9864, H-B:LYS:547:NZ:9923, V-A:GLU:543:CG:4907, V-A:ILE:369:CG2:3237, V-A:TRP:381:CZ2:3370, V-A:PRO:482:CG:4327, V-A:TRP:381:CH2:3372, V-A:HIS:456:CG:4066, V-A:HIS:456:CB:4065, V-A:ASP:473:CG:4240, V-A:ASP:473:CB:4239, H-A:LYS:547:NZ:4951, V-A:VAL:458:CG2:4087, V-A:LYS:547:CD:4949, V-A:HIS:456:C:4061"]

$$$$
RR24_Rahimova_2017
     RDKit          3D

 65 71  0  0  0  0  0  0  0  0999 V2000
  127.9110  132.3390   64.8420 C   0  0  0  0  0  0  0  0  0  0  0  0
  126.9120  132.5260   63.6910 C   0  0  2  0  0  0  0  0  0  0  0  0
  125.6200  131.6730   63.8550 C   0  0  0  0  0  0  0  0  0  0  0  0
  124.5840  132.1390   64.3410 O   0  0  0  0  0  0  0  0  0  0  0  0
  125.7860  130.3850   63.4330 O   0  0  0  0  0  0  0  0  0  0  0  0
  126.7100  129.5790   64.0580 C   0  0  0  0  0  0  0  0  0  0  0  0
  127.8950  129.2540   63.3940 C   0  0  0  0  0  0  0  0  0  0  0  0
  128.8410  128.4480   64.0200 C   0  0  0  0  0  0  0  0  0  0  0  0
  128.6120  127.9700   65.3130 C   0  0  0  0  0  0  0  0  0  0  0  0
  129.6500  127.0660   65.9890 C   0  0  1  0  0  0  0  0  0  0  0  0
  129.4150  126.9580   67.5140 C   0  0  0  0  0  0  0  0  0  0  0  0
  129.3460  125.7790   68.1590 C   0  0  0  0  0  0  0  0  0  0  0  0
  129.4770  124.5780   67.5050 N   0  0  0  0  0  0  0  0  0  0  0  0
  129.6860  124.5230   66.1470 C   0  0  0  0  0  0  0  0  0  0  0  0
  129.8030  123.2620   65.6570 N   0  0  0  0  0  0  0  0  0  0  0  0
  129.9350  123.0080   64.3260 C   0  0  0  0  0  0  0  0  0  0  0  0
  129.7180  121.8700   63.9070 O   0  0  0  0  0  0  0  0  0  0  0  0
  130.1470  124.1380   63.5530 N   0  0  0  0  0  0  0  0  0  0  0  0
  130.3870  123.9100   62.1130 C   0  0  0  0  0  0  0  0  0  0  0  0
  130.0500  125.4620   63.9470 C   0  0  0  0  0  0  0  0  0  0  0  0
  130.2010  126.4240   63.1880 O   0  0  0  0  0  0  0  0  0  0  0  0
  129.7700  125.6390   65.3760 C   0  0  0  0  0  0  0  0  0  0  0  0
  129.1190  125.9780   69.5800 C   0  0  0  0  0  0  0  0  0  0  0  0
  128.9700  125.0980   70.6530 C   0  0  0  0  0  0  0  0  0  0  0  0
  128.7580  125.6140   71.9340 C   0  0  0  0  0  0  0  0  0  0  0  0
  128.6980  126.9970   72.1350 C   0  0  0  0  0  0  0  0  0  0  0  0
  128.8480  127.8730   71.0570 C   0  0  0  0  0  0  0  0  0  0  0  0
  129.0580  127.3510   69.7790 C   0  0  0  0  0  0  0  0  0  0  0  0
  129.2490  128.0360   68.4830 C   0  0  0  0  0  0  0  0  0  0  0  0
  129.2710  129.2380   68.2240 O   0  0  0  0  0  0  0  0  0  0  0  0
  127.4320  128.3120   65.9820 C   0  0  0  0  0  0  0  0  0  0  0  0
  126.4860  129.1200   65.3580 C   0  0  0  0  0  0  0  0  0  0  0  0
  127.5530  132.3350   62.3560 N   0  0  0  0  0  0  0  0  0  0  0  0
  126.8210  132.3460   61.2060 C   0  0  0  0  0  0  0  0  0  0  0  0
  125.6020  132.4940   61.0960 O   0  0  0  0  0  0  0  0  0  0  0  0
  127.8020  132.1400   60.1120 C   0  0  0  0  0  0  0  0  0  0  0  0
  127.6260  132.0600   58.7300 C   0  0  0  0  0  0  0  0  0  0  0  0
  128.7510  131.8590   57.9220 C   0  0  0  0  0  0  0  0  0  0  0  0
  130.0230  131.7450   58.4980 C   0  0  0  0  0  0  0  0  0  0  0  0
  130.1790  131.8290   59.8860 C   0  0  0  0  0  0  0  0  0  0  0  0
  129.0450  132.0270   60.6750 C   0  0  0  0  0  0  0  0  0  0  0  0
  128.8930  132.1580   62.1450 C   0  0  0  0  0  0  0  0  0  0  0  0
  129.7850  132.1200   62.9930 O   0  0  0  0  0  0  0  0  0  0  0  0
  127.3854  132.4374   65.8033 H   0  0  0  0  0  0  0  0  0  0  0  0
  128.3664  131.3400   64.7736 H   0  0  0  0  0  0  0  0  0  0  0  0
  128.6969  133.1056   64.7736 H   0  0  0  0  0  0  0  0  0  0  0  0
  126.5834  133.5745   63.7424 H   0  0  0  0  0  0  0  0  0  0  0  0
  128.0801  129.6343   62.3786 H   0  0  0  0  0  0  0  0  0  0  0  0
  129.7718  128.1864   63.4955 H   0  0  0  0  0  0  0  0  0  0  0  0
  130.6079  127.5711   65.7959 H   0  0  0  0  0  0  0  0  0  0  0  0
  129.4210  123.7160   68.0290 H   0  0  0  0  0  0  0  0  0  0  0  0
  129.7680  122.4630   66.2720 H   0  0  0  0  0  0  0  0  0  0  0  0
  131.1793  123.1573   61.9880 H   0  0  0  0  0  0  0  0  0  0  0  0
  129.4616  123.5503   61.6395 H   0  0  0  0  0  0  0  0  0  0  0  0
  130.6988  124.8526   61.6395 H   0  0  0  0  0  0  0  0  0  0  0  0
  129.0189  124.0109   70.4920 H   0  0  0  0  0  0  0  0  0  0  0  0
  128.6379  124.9304   72.7874 H   0  0  0  0  0  0  0  0  0  0  0  0
  128.5320  127.3966   73.1463 H   0  0  0  0  0  0  0  0  0  0  0  0
  128.8012  128.9609   71.2131 H   0  0  0  0  0  0  0  0  0  0  0  0
  127.2516  127.9420   67.0021 H   0  0  0  0  0  0  0  0  0  0  0  0
  125.5628  129.3968   65.8882 H   0  0  0  0  0  0  0  0  0  0  0  0
  126.6243  132.1529   58.2851 H   0  0  0  0  0  0  0  0  0  0  0  0
  128.6360  131.7903   56.8302 H   0  0  0  0  0  0  0  0  0  0  0  0
  130.9028  131.5888   57.8564 H   0  0  0  0  0  0  0  0  0  0  0  0
  131.1745  131.7408   60.3456 H   0  0  0  0  0  0  0  0  0  0  0  0
  1  2  1  0
  2  3  1  0
  3  4  2  0
  3  5  1  0
  5  6  1  0
  6  7  2  0
  7  8  1  0
  8  9  2  0
  9 10  1  0
 10 11  1  0
 11 12  2  0
 12 13  1  0
 13 14  1  0
 14 15  1  0
 15 16  1  0
 16 17  2  0
 16 18  1  0
 18 19  1  0
 18 20  1  0
 20 21  2  0
 20 22  1  0
 12 23  1  0
 23 24  2  0
 24 25  1  0
 25 26  2  0
 26 27  1  0
 27 28  2  0
 28 29  1  0
 29 30  2  0
  9 31  1  0
 31 32  2  0
  2 33  1  0
 33 34  1  0
 34 35  2  0
 34 36  1  0
 36 37  2  0
 37 38  1  0
 38 39  2  0
 39 40  1  0
 40 41  2  0
 41 42  1  0
 42 43  2  0
 32  6  1  0
 42 33  1  0
 22 10  1  0
 28 23  1  0
 41 36  1  0
 29 11  1  0
 22 14  2  0
  1 44  1  0
  1 45  1  0
  1 46  1  0
  2 47  1  6
  7 48  1  0
  8 49  1  0
 10 50  1  1
 13 51  1  0
 15 52  1  0
 19 53  1  0
 19 54  1  0
 19 55  1  0
 24 56  1  0
 25 57  1  0
 26 58  1  0
 27 59  1  0
 31 60  1  0
 32 61  1  0
 37 62  1  0
 38 63  1  0
 39 64  1  0
 40 65  1  0
M  END
>  <Binding energies>  (1) 
[-9.89]

>  <Ligand effiencies>  (1) 
[-0.2197777777777778]

>  <Interactions>  (1) 
["V-B:GLU:543:CA:9876, V-A:GLU:543:CD:4908, V-A:HIS:456:CD2:4068, V-B:GLU:543:CB:9878, H-B:HIS:456:NE2:9041, H-A:TYR:484:OH:4348, V-A:TYR:484:CZ:4347, V-B:GLU:543:C:9874, V-A:TYR:484:CE1:4345, V-B:HIS:456:CE1:9040, V-A:HIS:456:CE1:4069, V-B:GLU:543:CG:9879, H-B:TYR:484:OH:9319, V-A:ALA:541:CB:4892, V-A:PRO:540:CA:4883, V-A:TYR:539:CD2:4874, V-A:TYR:539:CZ:4877, V-A:TYR:539:CE2:4876, V-A:GLU:543:CB:4906, V-A:PRO:540:CB:4885, V-B:ALA:541:CB:9864, V-B:TYR:484:CE1:9316, V-B:LEU:475:CD1:9229, V-B:TYR:484:CZ:9318, H-B:GLY:454:N:9021, H-B:GLU:543:O:9875, H-A:ALA:541:N:4891, V-A:PRO:540:N:4884, V-B:HIS:456:CD2:9039"]

$$$$
RR24_Rahimova_2017-again1
     RDKit          3D

 63 69  0  0  0  0  0  0  0  0999 V2000
  129.6430  127.9600   68.5480 C   0  0  0  0  0  0  0  0  0  0  0  0
  128.5860  127.0500   67.9090 C   0  0  2  0  0  0  0  0  0  0  0  0
  129.1960  125.8530   67.1220 C   0  0  0  0  0  0  0  0  0  0  0  0
  129.0870  124.6860   67.5170 O   0  0  0  0  0  0  0  0  0  0  0  0
  129.8640  126.2470   65.9980 O   0  0  0  0  0  0  0  0  0  0  0  0
  129.7790  125.4870   64.8550 C   0  0  0  0  0  0  0  0  0  0  0  0
  129.2340  126.0440   63.6970 C   0  0  0  0  0  0  0  0  0  0  0  0
  129.1630  125.2890   62.5300 C   0  0  0  0  0  0  0  0  0  0  0  0
  129.6430  123.9750   62.5130 C   0  0  0  0  0  0  0  0  0  0  0  0
  129.5660  123.1370   61.2280 C   0  0  1  0  0  0  0  0  0  0  0  0
  128.2320  123.3730   60.4820 C   0  0  0  0  0  0  0  0  0  0  0  0
  126.9470  123.1210   60.8160 C   0  0  0  0  0  0  0  0  0  0  0  0
  126.5660  122.5510   61.9090 O   0  0  0  0  0  0  0  0  0  0  0  0
  126.0460  123.6120   59.7740 C   0  0  0  0  0  0  0  0  0  0  0  0
  124.6510  123.6050   59.6510 C   0  0  0  0  0  0  0  0  0  0  0  0
  124.0560  124.1660   58.5200 C   0  0  0  0  0  0  0  0  0  0  0  0
  124.8490  124.7270   57.5170 C   0  0  0  0  0  0  0  0  0  0  0  0
  126.2400  124.7290   57.6430 C   0  0  0  0  0  0  0  0  0  0  0  0
  126.8330  124.1710   58.7780 C   0  0  0  0  0  0  0  0  0  0  0  0
  128.2210  124.0130   59.1770 C   0  0  0  0  0  0  0  0  0  0  0  0
  129.2960  124.3340   58.5600 N   0  0  0  0  0  0  0  0  0  0  0  0
  130.5250  123.9930   59.0410 C   0  0  0  0  0  0  0  0  0  0  0  0
  131.5370  124.2750   58.1700 N   0  0  0  0  0  0  0  0  0  0  0  0
  132.7500  124.0190   58.5090 C   0  0  0  0  0  0  0  0  0  0  0  0
  133.5870  124.3210   57.6420 O   0  0  0  0  0  0  0  0  0  0  0  0
  133.0770  123.4500   59.7400 N   0  0  0  0  0  0  0  0  0  0  0  0
  134.4650  123.1450   60.1600 C   0  0  0  0  0  0  0  0  0  0  0  0
  132.1180  123.1160   60.6760 C   0  0  0  0  0  0  0  0  0  0  0  0
  132.3610  122.5900   61.7660 O   0  0  0  0  0  0  0  0  0  0  0  0
  130.7440  123.4310   60.2700 C   0  0  0  0  0  0  0  0  0  0  0  0
  130.1990  123.4240   63.6710 C   0  0  0  0  0  0  0  0  0  0  0  0
  130.2730  124.1800   64.8370 C   0  0  0  0  0  0  0  0  0  0  0  0
  127.6020  127.8210   67.0930 N   0  0  0  0  0  0  0  0  0  0  0  0
  126.2830  127.8750   67.4310 C   0  0  0  0  0  0  0  0  0  0  0  0
  125.7320  127.3320   68.3900 O   0  0  0  0  0  0  0  0  0  0  0  0
  125.6460  128.7280   66.3960 C   0  0  0  0  0  0  0  0  0  0  0  0
  124.3180  129.1250   66.2290 C   0  0  0  0  0  0  0  0  0  0  0  0
  123.9960  129.9450   65.1430 C   0  0  0  0  0  0  0  0  0  0  0  0
  124.9920  130.3560   64.2470 C   0  0  0  0  0  0  0  0  0  0  0  0
  126.3180  129.9480   64.4320 C   0  0  0  0  0  0  0  0  0  0  0  0
  126.6180  129.1280   65.5210 C   0  0  0  0  0  0  0  0  0  0  0  0
  127.9060  128.5450   65.9730 C   0  0  0  0  0  0  0  0  0  0  0  0
  129.0130  128.6850   65.4510 O   0  0  0  0  0  0  0  0  0  0  0  0
  129.5683  127.8957   69.6436 H   0  0  0  0  0  0  0  0  0  0  0  0
  130.6453  127.6378   68.2293 H   0  0  0  0  0  0  0  0  0  0  0  0
  129.4733  128.9991   68.2293 H   0  0  0  0  0  0  0  0  0  0  0  0
  128.0308  126.6012   68.7459 H   0  0  0  0  0  0  0  0  0  0  0  0
  128.8609  127.0788   63.7068 H   0  0  0  0  0  0  0  0  0  0  0  0
  128.7285  125.7264   61.6190 H   0  0  0  0  0  0  0  0  0  0  0  0
  129.6261  122.0846   61.5423 H   0  0  0  0  0  0  0  0  0  0  0  0
  124.0280  123.1601   60.4409 H   0  0  0  0  0  0  0  0  0  0  0  0
  122.9607  124.1662   58.4186 H   0  0  0  0  0  0  0  0  0  0  0  0
  124.3776  125.1680   56.6263 H   0  0  0  0  0  0  0  0  0  0  0  0
  126.8657  125.1680   56.8520 H   0  0  0  0  0  0  0  0  0  0  0  0
  134.5213  123.1326   61.2585 H   0  0  0  0  0  0  0  0  0  0  0  0
  134.7592  122.1608   59.7666 H   0  0  0  0  0  0  0  0  0  0  0  0
  135.1447  123.9152   59.7666 H   0  0  0  0  0  0  0  0  0  0  0  0
  130.5785  122.3916   63.6606 H   0  0  0  0  0  0  0  0  0  0  0  0
  130.7204  123.7487   65.7446 H   0  0  0  0  0  0  0  0  0  0  0  0
  123.5413  128.7996   66.9368 H   0  0  0  0  0  0  0  0  0  0  0  0
  122.9558  130.2690   64.9913 H   0  0  0  0  0  0  0  0  0  0  0  0
  124.7308  131.0014   63.3954 H   0  0  0  0  0  0  0  0  0  0  0  0
  127.1065  130.2666   63.7344 H   0  0  0  0  0  0  0  0  0  0  0  0
  1  2  1  0
  2  3  1  0
  3  4  2  0
  3  5  1  0
  5  6  1  0
  6  7  2  0
  7  8  1  0
  8  9  2  0
  9 10  1  0
 10 11  1  0
 11 12  2  0
 12 13  1  0
 12 14  1  0
 14 15  2  0
 15 16  1  0
 16 17  2  0
 17 18  1  0
 18 19  2  0
 19 20  1  0
 20 21  2  0
 21 22  1  0
 22 23  1  0
 23 24  2  0
 24 25  1  0
 24 26  1  0
 26 27  1  0
 26 28  1  0
 28 29  2  0
 28 30  1  0
  9 31  1  0
 31 32  2  0
  2 33  1  0
 33 34  1  0
 34 35  2  0
 34 36  1  0
 36 37  2  0
 37 38  1  0
 38 39  2  0
 39 40  1  0
 40 41  2  0
 41 42  1  0
 42 43  2  0
 32  6  1  0
 42 33  1  0
 30 10  1  0
 41 36  1  0
 20 11  1  0
 30 22  2  0
 19 14  1  0
  1 44  1  0
  1 45  1  0
  1 46  1  0
  2 47  1  1
  7 48  1  0
  8 49  1  0
 10 50  1  1
 15 51  1  0
 16 52  1  0
 17 53  1  0
 18 54  1  0
 27 55  1  0
 27 56  1  0
 27 57  1  0
 31 58  1  0
 32 59  1  0
 37 60  1  0
 38 61  1  0
 39 62  1  0
 40 63  1  0
M  CHG  2  13  -1  25  -1
M  END
>  <Binding energies>  (1) 
[-8.57]

>  <Ligand effiencies>  (1) 
[-0.19930232558139535]

>  <Interactions>  (1) 
["V-B:GLU:543:CD:9880, H-B:ALA:541:N:9863, V-B:GLU:543:CB:9878, H-A:TYR:484:OH:4348, V-B:HIS:456:CE1:9040, V-B:TYR:539:CE2:9848, V-A:HIS:456:CE1:4069, V-B:GLU:543:CG:9879, V-B:ARG:545:CD:9895, V-B:ARG:545:CZ:9898, V-B:ARG:545:CG:9894, H-B:ARG:545:N:9892, V-B:PRO:540:CA:9855, V-B:TYR:539:CZ:9849, V-B:PRO:540:CB:9857, V-B:PRO:540:C:9853, V-B:GLY:454:CA:9020, V-A:ILE:369:CD1:3239, V-A:ILE:369:CB:3236, V-A:ILE:369:CG2:3237, V-B:LEU:363:CD1:8160, V-A:ASP:366:CB:3212, H-B:TYR:539:OH:9850, V-A:ILE:369:CG1:3238"]

$$$$
RR25_Rahimova_2017
     RDKit          3D

 63 68  0  0  0  0  0  0  0  0999 V2000
  123.5520  130.2820   65.4860 O   0  0  0  0  0  0  0  0  0  0  0  0
  124.6160  130.3400   64.8690 C   0  0  0  0  0  0  0  0  0  0  0  0
  124.5550  130.8700   63.6040 O   0  0  0  0  0  0  0  0  0  0  0  0
  125.7010  131.2180   62.9110 C   0  0  0  0  0  0  0  0  0  0  0  0
  125.5690  132.2110   61.9410 C   0  0  0  0  0  0  0  0  0  0  0  0
  126.6810  132.6050   61.1990 C   0  0  0  0  0  0  0  0  0  0  0  0
  127.9340  132.0120   61.4120 C   0  0  0  0  0  0  0  0  0  0  0  0
  129.1180  132.4400   60.6270 N   0  0  0  0  0  0  0  0  0  0  0  0
  130.2320  132.3290   61.1350 O   0  0  0  0  0  0  0  0  0  0  0  0
  128.9430  132.8880   59.4980 O   0  0  0  0  0  0  0  0  0  0  0  0
  128.0430  131.0060   62.3860 C   0  0  0  0  0  0  0  0  0  0  0  0
  126.9360  130.5930   63.1330 C   0  0  0  0  0  0  0  0  0  0  0  0
  127.0040  129.5190   64.2030 C   0  0  0  0  0  0  0  0  0  0  0  0
  126.0160  129.8630   65.3540 C   0  0  2  0  0  0  0  0  0  0  0  0
  125.9860  128.7320   66.4230 C   0  0  0  0  0  0  0  0  0  0  0  0
  124.8680  128.3850   66.8140 O   0  0  0  0  0  0  0  0  0  0  0  0
  127.1170  128.0710   66.8160 N   0  0  0  0  0  0  0  0  0  0  0  0
  128.4740  128.6280   66.6330 C   0  0  0  0  0  0  0  0  0  0  0  0
  129.4450  127.4800   66.2860 C   0  0  0  0  0  0  0  0  0  0  0  0
  129.3970  126.4160   67.2940 N   0  0  0  0  0  0  0  0  0  0  0  0
  130.4140  125.3870   67.0380 C   0  0  0  0  0  0  0  0  0  0  0  0
  131.3060  125.7130   65.8100 C   0  0  0  0  0  0  0  0  0  0  0  0
  131.3410  124.6820   64.7320 N   0  0  0  0  0  0  0  0  0  0  0  0
  130.1110  124.3050   64.2380 C   0  0  0  0  0  0  0  0  0  0  0  0
  129.0420  124.7520   64.6700 O   0  0  0  0  0  0  0  0  0  0  0  0
  130.1670  123.3060   63.0980 C   0  0  0  0  0  0  0  0  0  0  0  0
  128.9750  122.8740   62.5030 C   0  0  0  0  0  0  0  0  0  0  0  0
  128.9900  121.9620   61.4490 C   0  0  0  0  0  0  0  0  0  0  0  0
  130.1920  121.4590   60.9540 C   0  0  0  0  0  0  0  0  0  0  0  0
  131.4220  121.8670   61.5240 C   0  0  0  0  0  0  0  0  0  0  0  0
  132.6770  121.3970   61.0710 C   0  0  0  0  0  0  0  0  0  0  0  0
  133.8510  121.8420   61.6750 C   0  0  0  0  0  0  0  0  0  0  0  0
  133.8130  122.7510   62.7300 C   0  0  0  0  0  0  0  0  0  0  0  0
  132.5930  123.2440   63.2130 C   0  0  0  0  0  0  0  0  0  0  0  0
  131.3940  122.7960   62.6020 C   0  0  0  0  0  0  0  0  0  0  0  0
  132.5930  124.2400   64.3570 C   0  0  0  0  0  0  0  0  0  0  0  0
  133.6390  124.6260   64.8890 O   0  0  0  0  0  0  0  0  0  0  0  0
  128.0510  125.8440   67.3500 C   0  0  0  0  0  0  0  0  0  0  0  0
  126.9930  126.9100   67.7250 C   0  0  0  0  0  0  0  0  0  0  0  0
  124.5910  132.6816   61.7621 H   0  0  0  0  0  0  0  0  0  0  0  0
  126.5746  133.3909   60.4368 H   0  0  0  0  0  0  0  0  0  0  0  0
  129.0200  130.5332   62.5648 H   0  0  0  0  0  0  0  0  0  0  0  0
  126.7307  128.5480   63.7644 H   0  0  0  0  0  0  0  0  0  0  0  0
  128.0271  129.4682   64.6039 H   0  0  0  0  0  0  0  0  0  0  0  0
  126.4106  130.7555   65.8617 H   0  0  0  0  0  0  0  0  0  0  0  0
  128.4639  129.3627   65.8144 H   0  0  0  0  0  0  0  0  0  0  0  0
  128.8004  129.1241   67.5590 H   0  0  0  0  0  0  0  0  0  0  0  0
  129.1673  127.0595   65.3082 H   0  0  0  0  0  0  0  0  0  0  0  0
  130.4668  127.8866   66.2599 H   0  0  0  0  0  0  0  0  0  0  0  0
  131.0572  125.3003   67.9261 H   0  0  0  0  0  0  0  0  0  0  0  0
  129.8857  124.4466   66.8224 H   0  0  0  0  0  0  0  0  0  0  0  0
  130.9383  126.6503   65.3669 H   0  0  0  0  0  0  0  0  0  0  0  0
  132.3337  125.7698   66.1980 H   0  0  0  0  0  0  0  0  0  0  0  0
  128.0135  123.2598   62.8726 H   0  0  0  0  0  0  0  0  0  0  0  0
  128.0399  121.6346   61.0016 H   0  0  0  0  0  0  0  0  0  0  0  0
  130.1849  120.7434   60.1186 H   0  0  0  0  0  0  0  0  0  0  0  0
  132.7261  120.6783   60.2397 H   0  0  0  0  0  0  0  0  0  0  0  0
  134.8213  121.4705   61.3139 H   0  0  0  0  0  0  0  0  0  0  0  0
  134.7539  123.0867   63.1906 H   0  0  0  0  0  0  0  0  0  0  0  0
  127.8006  125.4239   66.3647 H   0  0  0  0  0  0  0  0  0  0  0  0
  128.0414  125.0630   68.1245 H   0  0  0  0  0  0  0  0  0  0  0  0
  125.9865  126.4764   67.6304 H   0  0  0  0  0  0  0  0  0  0  0  0
  127.1556  127.2381   68.7622 H   0  0  0  0  0  0  0  0  0  0  0  0
  1  2  2  0
  2  3  1  0
  3  4  1  0
  4  5  2  0
  5  6  1  0
  6  7  2  0
  7  8  1  0
  8  9  2  0
  8 10  1  0
  7 11  1  0
 11 12  2  0
 12 13  1  0
 13 14  1  0
 14 15  1  0
 15 16  2  0
 15 17  1  0
 17 18  1  0
 18 19  1  0
 19 20  1  0
 20 21  1  0
 21 22  1  0
 22 23  1  0
 23 24  1  0
 24 25  2  0
 24 26  1  0
 26 27  2  0
 27 28  1  0
 28 29  2  0
 29 30  1  0
 30 31  2  0
 31 32  1  0
 32 33  2  0
 33 34  1  0
 34 35  2  0
 34 36  1  0
 36 37  2  0
 20 38  1  0
 38 39  1  0
 14  2  1  0
 39 17  1  0
 12  4  1  0
 36 23  1  0
 35 26  1  0
 35 30  1  0
  5 40  1  0
  6 41  1  0
 11 42  1  0
 13 43  1  0
 13 44  1  0
 14 45  1  1
 18 46  1  0
 18 47  1  0
 19 48  1  0
 19 49  1  0
 21 50  1  0
 21 51  1  0
 22 52  1  0
 22 53  1  0
 27 54  1  0
 28 55  1  0
 29 56  1  0
 31 57  1  0
 32 58  1  0
 33 59  1  0
 38 60  1  0
 38 61  1  0
 39 62  1  0
 39 63  1  0
M  CHG  2   8   1  10  -1
M  END
>  <Binding energies>  (1) 
[-10.48]

>  <Ligand effiencies>  (1) 
[-0.26871794871794874]

>  <Interactions>  (1) 
["V-B:GLU:543:CA:9876, V-A:GLU:543:CD:4908, V-B:TYR:539:CD2:9846, V-A:LEU:475:CD1:4258, V-B:GLU:543:CB:9878, H-A:TYR:484:OH:4348, V-A:TYR:484:CZ:4347, V-B:GLU:543:C:9874, V-A:TYR:484:CE1:4345, V-B:HIS:456:CE1:9040, V-B:TYR:539:CE2:9848, V-A:HIS:456:CE1:4069, V-B:GLU:543:CG:9879, V-B:ARG:545:CZ:9898, H-B:TYR:484:OH:9319, V-B:ARG:545:CG:9894, V-A:PRO:540:CA:4883, V-A:GLU:543:CB:4906, V-B:ALA:541:CB:9864, V-A:GLU:543:CG:4907, V-B:LEU:475:CD1:9229, V-B:GLY:454:CA:9020, V-B:TYR:484:CZ:9318, V-A:ILE:369:CD1:3239, V-A:GLY:454:CA:4049, H-A:GLY:454:N:4050, H-B:GLY:454:N:9021, H-B:ARG:545:NE:9896, H-A:ALA:541:N:4891, H-B:ILE:455:N:9026"]

$$$$
RR26_Rahimova_2017
     RDKit          3D

 59 65  0  0  0  0  0  0  0  0999 V2000
  129.7020  120.8210   60.5740 C   0  0  0  0  0  0  0  0  0  0  0  0
  131.2010  120.6520   60.7890 C   0  0  0  0  0  0  0  0  0  0  0  0
  131.8820  119.7180   60.0010 C   0  0  0  0  0  0  0  0  0  0  0  0
  133.2590  119.5500   60.1270 C   0  0  0  0  0  0  0  0  0  0  0  0
  133.9710  120.3220   61.0410 C   0  0  0  0  0  0  0  0  0  0  0  0
  133.3040  121.2560   61.8310 C   0  0  0  0  0  0  0  0  0  0  0  0
  131.9160  121.4330   61.7240 C   0  0  0  0  0  0  0  0  0  0  0  0
  131.2740  122.4490   62.6230 C   0  0  0  0  0  0  0  0  0  0  0  0
  130.9620  122.1830   63.8890 N   0  0  0  0  0  0  0  0  0  0  0  0
  130.4530  123.3180   64.2860 C   0  0  0  0  0  0  0  0  0  0  0  0
  129.7750  123.9240   65.7520 S   0  0  0  0  0  0  0  0  0  0  0  0
  129.5100  125.5150   64.9440 C   0  0  0  0  0  0  0  0  0  0  0  0
  128.9600  126.6300   65.4740 C   0  0  0  0  0  0  0  0  0  0  0  0
  128.4540  126.8270   66.8220 C   0  0  0  0  0  0  0  0  0  0  0  0
  128.9770  126.3460   68.0130 C   0  0  0  0  0  0  0  0  0  0  0  0
  128.1960  126.8150   69.0380 N   0  0  0  0  0  0  0  0  0  0  0  0
  128.3480  126.5910   70.4310 C   0  0  0  0  0  0  0  0  0  0  0  0
  127.5280  127.2500   71.3580 C   0  0  0  0  0  0  0  0  0  0  0  0
  127.6900  127.0230   72.7220 C   0  0  0  0  0  0  0  0  0  0  0  0
  128.6670  126.1350   73.1630 C   0  0  0  0  0  0  0  0  0  0  0  0
  129.4860  125.4710   72.2520 C   0  0  0  0  0  0  0  0  0  0  0  0
  129.3290  125.6980   70.8880 C   0  0  0  0  0  0  0  0  0  0  0  0
  127.2160  127.5950   68.5570 N   0  0  0  0  0  0  0  0  0  0  0  0
  127.3530  127.6060   67.2450 C   0  0  0  0  0  0  0  0  0  0  0  0
  126.3950  128.3900   66.4020 C   0  0  0  0  0  0  0  0  0  0  0  0
  125.1440  128.7690   66.9140 C   0  0  0  0  0  0  0  0  0  0  0  0
  124.2430  129.4960   66.1350 C   0  0  0  0  0  0  0  0  0  0  0  0
  124.5860  129.8490   64.8320 C   0  0  0  0  0  0  0  0  0  0  0  0
  125.8400  129.4920   64.3150 C   0  0  0  0  0  0  0  0  0  0  0  0
  126.7360  128.7600   65.0930 C   0  0  0  0  0  0  0  0  0  0  0  0
  126.2050  129.7810   63.0150 O   0  0  0  0  0  0  0  0  0  0  0  0
  125.4300  130.8200   62.4070 C   0  0  0  0  0  0  0  0  0  0  0  0
  123.9240  130.6170   62.7010 C   0  0  0  0  0  0  0  0  0  0  0  0
  123.6850  130.6090   64.1130 O   0  0  0  0  0  0  0  0  0  0  0  0
  129.9550  125.5120   63.5540 C   0  0  0  0  0  0  0  0  0  0  0  0
  129.9160  126.4220   62.7230 O   0  0  0  0  0  0  0  0  0  0  0  0
  130.4660  124.2310   63.2980 N   0  0  0  0  0  0  0  0  0  0  0  0
  131.0040  123.6770   62.2080 N   0  0  0  0  0  0  0  0  0  0  0  0
  129.1959  120.8781   61.5490 H   0  0  0  0  0  0  0  0  0  0  0  0
  129.5146  121.7460   60.0089 H   0  0  0  0  0  0  0  0  0  0  0  0
  129.3134  119.9610   60.0089 H   0  0  0  0  0  0  0  0  0  0  0  0
  131.3240  119.1097   59.2740 H   0  0  0  0  0  0  0  0  0  0  0  0
  133.7829  118.8088   59.5056 H   0  0  0  0  0  0  0  0  0  0  0  0
  135.0592  120.1947   61.1394 H   0  0  0  0  0  0  0  0  0  0  0  0
  133.8739  121.8637   62.5493 H   0  0  0  0  0  0  0  0  0  0  0  0
  128.8861  127.4968   64.8008 H   0  0  0  0  0  0  0  0  0  0  0  0
  129.8624  125.7017   68.1171 H   0  0  0  0  0  0  0  0  0  0  0  0
  126.7543  127.9485   71.0065 H   0  0  0  0  0  0  0  0  0  0  0  0
  127.0484  127.5434   73.4484 H   0  0  0  0  0  0  0  0  0  0  0  0
  128.7937  125.9557   74.2409 H   0  0  0  0  0  0  0  0  0  0  0  0
  130.2542  124.7697   72.6098 H   0  0  0  0  0  0  0  0  0  0  0  0
  129.9752  125.1763   70.1667 H   0  0  0  0  0  0  0  0  0  0  0  0
  124.8706  128.4894   67.9421 H   0  0  0  0  0  0  0  0  0  0  0  0
  123.2665  129.7889   66.5480 H   0  0  0  0  0  0  0  0  0  0  0  0
  127.7134  128.4718   64.6788 H   0  0  0  0  0  0  0  0  0  0  0  0
  125.7494  131.7925   62.8098 H   0  0  0  0  0  0  0  0  0  0  0  0
  125.5868  130.7898   61.3187 H   0  0  0  0  0  0  0  0  0  0  0  0
  123.3519  131.4366   62.2417 H   0  0  0  0  0  0  0  0  0  0  0  0
  123.6067  129.6511   62.2811 H   0  0  0  0  0  0  0  0  0  0  0  0
  1  2  1  0
  2  3  2  0
  3  4  1  0
  4  5  2  0
  5  6  1  0
  6  7  2  0
  7  8  1  0
  8  9  1  0
  9 10  2  0
 10 11  1  0
 11 12  1  0
 12 13  2  0
 13 14  1  0
 14 15  2  0
 15 16  1  0
 16 17  1  0
 17 18  2  0
 18 19  1  0
 19 20  2  0
 20 21  1  0
 21 22  2  0
 16 23  1  0
 23 24  2  0
 24 25  1  0
 25 26  2  0
 26 27  1  0
 27 28  2  0
 28 29  1  0
 29 30  2  0
 29 31  1  0
 31 32  1  0
 32 33  1  0
 33 34  1  0
 12 35  1  0
 35 36  2  0
 35 37  1  0
 37 38  1  0
  7  2  1  0
 38  8  2  0
 37 10  1  0
 24 14  1  0
 30 25  1  0
 22 17  1  0
 34 28  1  0
  1 39  1  0
  1 40  1  0
  1 41  1  0
  3 42  1  0
  4 43  1  0
  5 44  1  0
  6 45  1  0
 13 46  1  0
 15 47  1  0
 18 48  1  0
 19 49  1  0
 20 50  1  0
 21 51  1  0
 22 52  1  0
 26 53  1  0
 27 54  1  0
 30 55  1  0
 32 56  1  0
 32 57  1  0
 33 58  1  0
 33 59  1  0
M  END
>  <Binding energies>  (1) 
[-9.92]

>  <Ligand effiencies>  (1) 
[-0.26105263157894737]

>  <Interactions>  (1) 
["V-B:GLU:543:CA:9876, V-A:HIS:456:CD2:4068, V-B:GLU:543:CD:9880, V-B:TYR:539:CD2:9846, V-A:LEU:475:CD1:4258, V-B:GLU:543:CB:9878, H-B:HIS:456:NE2:9041, V-A:TYR:484:CZ:4347, V-A:TYR:484:CE1:4345, V-B:HIS:456:CE1:9040, V-B:TYR:539:CE2:9848, V-A:HIS:456:CE1:4069, V-B:GLU:543:CG:9879, V-B:ARG:545:CD:9895, V-B:ARG:545:CZ:9898, V-B:ARG:545:CG:9894, V-B:ALA:541:CB:9864, V-A:ILE:369:CD1:3239, V-A:ILE:369:CG2:3237, V-A:TRP:381:CZ2:3370, V-A:TRP:381:CH2:3372, H-B:GLY:454:N:9021, H-B:ARG:545:NH2:9900, V-B:HIS:456:CD2:9039, V-B:HIS:456:CG:9037, V-A:TRP:381:CZ3:3371"]

$$$$
RR27_Rahimova_2017
     RDKit          3D

 66 71  0  0  0  0  0  0  0  0999 V2000
  126.9060  122.7450   61.7320 O   0  0  0  0  0  0  0  0  0  0  0  0
  127.7740  123.1390   60.9480 C   0  0  0  0  0  0  0  0  0  0  0  0
  129.2410  123.2350   61.4590 C   0  0  0  0  0  0  0  0  0  0  0  0
  130.0420  121.9380   61.2430 C   0  0  0  0  0  0  0  0  0  0  0  0
  129.4120  120.6890   61.1230 C   0  0  0  0  0  0  0  0  0  0  0  0
  130.1670  119.5370   60.9260 C   0  0  0  0  0  0  0  0  0  0  0  0
  131.5540  119.6260   60.8500 C   0  0  0  0  0  0  0  0  0  0  0  0
  132.1940  120.8560   60.9700 C   0  0  0  0  0  0  0  0  0  0  0  0
  131.4390  122.0090   61.1660 C   0  0  0  0  0  0  0  0  0  0  0  0
  129.3130  123.8130   62.8850 C   0  0  0  0  0  0  0  0  0  0  0  0
  129.1150  125.1770   63.1380 C   0  0  0  0  0  0  0  0  0  0  0  0
  129.1990  125.6690   64.4390 C   0  0  0  0  0  0  0  0  0  0  0  0
  129.4860  124.8000   65.4890 C   0  0  0  0  0  0  0  0  0  0  0  0
  129.6960  123.4450   65.2500 C   0  0  0  0  0  0  0  0  0  0  0  0
  129.6130  122.9550   63.9500 C   0  0  0  0  0  0  0  0  0  0  0  0
  127.5050  123.3430   59.6270 N   0  0  0  0  0  0  0  0  0  0  0  0
  128.4180  124.0460   58.7130 C   0  0  0  0  0  0  0  0  0  0  0  0
  128.0860  125.5510   58.8180 C   0  0  0  0  0  0  0  0  0  0  0  0
  126.5800  125.8570   58.5400 C   0  0  0  0  0  0  0  0  0  0  0  0
  126.1720  127.3290   58.7420 C   0  0  0  0  0  0  0  0  0  0  0  0
  125.4320  127.8960   57.7460 N   0  0  0  0  0  0  0  0  0  0  0  0
  125.0220  129.1870   57.8880 C   0  0  0  0  0  0  0  0  0  0  0  0
  124.2730  129.8630   56.9610 O   0  0  0  0  0  0  0  0  0  0  0  0
  125.3830  129.8860   59.0560 C   0  0  0  0  0  0  0  0  0  0  0  0
  125.1430  131.1500   59.5090 N   0  0  0  0  0  0  0  0  0  0  0  0
  125.7640  131.2720   60.7380 N   0  0  0  0  0  0  0  0  0  0  0  0
  126.3670  130.1020   61.0390 N   0  0  0  0  0  0  0  0  0  0  0  0
  127.1250  129.9560   62.2790 C   0  0  0  0  0  0  0  0  0  0  0  0
  126.2500  129.8050   63.5170 C   0  0  0  0  0  0  0  0  0  0  0  0
  124.9800  130.3900   63.5570 C   0  0  0  0  0  0  0  0  0  0  0  0
  124.1750  130.2410   64.6880 C   0  0  0  0  0  0  0  0  0  0  0  0
  124.6320  129.5050   65.7800 C   0  0  0  0  0  0  0  0  0  0  0  0
  125.8950  128.9110   65.7410 C   0  0  0  0  0  0  0  0  0  0  0  0
  126.4520  127.9760   67.0820 Cl  0  0  0  0  0  0  0  0  0  0  0  0
  126.7030  129.0650   64.6150 C   0  0  0  0  0  0  0  0  0  0  0  0
  126.1610  129.1970   60.0110 C   0  0  0  0  0  0  0  0  0  0  0  0
  126.5820  127.9340   59.8940 N   0  0  0  0  0  0  0  0  0  0  0  0
  125.6370  124.8490   59.2670 C   0  0  0  0  0  0  0  0  0  0  0  0
  126.1120  123.3790   59.1530 C   0  0  0  0  0  0  0  0  0  0  0  0
  129.7616  123.9681   60.8253 H   0  0  0  0  0  0  0  0  0  0  0  0
  128.3159  120.6209   61.1851 H   0  0  0  0  0  0  0  0  0  0  0  0
  129.6700  118.5603   60.8307 H   0  0  0  0  0  0  0  0  0  0  0  0
  132.1503  118.7150   60.6935 H   0  0  0  0  0  0  0  0  0  0  0  0
  133.2907  120.9168   60.9103 H   0  0  0  0  0  0  0  0  0  0  0  0
  131.9427  122.9823   61.2610 H   0  0  0  0  0  0  0  0  0  0  0  0
  128.8924  125.8619   62.3065 H   0  0  0  0  0  0  0  0  0  0  0  0
  129.0393  126.7394   64.6360 H   0  0  0  0  0  0  0  0  0  0  0  0
  129.5472  125.1881   66.5164 H   0  0  0  0  0  0  0  0  0  0  0  0
  129.9262  122.7654   66.0837 H   0  0  0  0  0  0  0  0  0  0  0  0
  129.7844  121.8856   63.7578 H   0  0  0  0  0  0  0  0  0  0  0  0
  129.4621  123.8672   59.0096 H   0  0  0  0  0  0  0  0  0  0  0  0
  128.2958  123.6867   57.6806 H   0  0  0  0  0  0  0  0  0  0  0  0
  128.3337  125.8960   59.8327 H   0  0  0  0  0  0  0  0  0  0  0  0
  128.6782  126.0759   58.0539 H   0  0  0  0  0  0  0  0  0  0  0  0
  126.4475  125.6991   57.4595 H   0  0  0  0  0  0  0  0  0  0  0  0
  124.4020  130.8130   57.0010 H   0  0  0  0  0  0  0  0  0  0  0  0
  127.7626  129.0637   62.1934 H   0  0  0  0  0  0  0  0  0  0  0  0
  127.7098  130.8786   62.4090 H   0  0  0  0  0  0  0  0  0  0  0  0
  124.6148  130.9686   62.6957 H   0  0  0  0  0  0  0  0  0  0  0  0
  123.1782  130.7053   64.7174 H   0  0  0  0  0  0  0  0  0  0  0  0
  123.9981  129.3922   66.6719 H   0  0  0  0  0  0  0  0  0  0  0  0
  127.7009  128.6028   64.5897 H   0  0  0  0  0  0  0  0  0  0  0  0
  125.5901  125.1198   60.3321 H   0  0  0  0  0  0  0  0  0  0  0  0
  124.6523  124.9133   58.7809 H   0  0  0  0  0  0  0  0  0  0  0  0
  125.4826  122.7283   59.7779 H   0  0  0  0  0  0  0  0  0  0  0  0
  126.0392  123.0205   58.1156 H   0  0  0  0  0  0  0  0  0  0  0  0
  1  2  2  0
  2  3  1  0
  3  4  1  0
  4  5  2  0
  5  6  1  0
  6  7  2  0
  7  8  1  0
  8  9  2  0
  3 10  1  0
 10 11  2  0
 11 12  1  0
 12 13  2  0
 13 14  1  0
 14 15  2  0
  2 16  1  0
 16 17  1  0
 17 18  1  0
 18 19  1  0
 19 20  1  0
 20 21  2  0
 21 22  1  0
 22 23  1  0
 22 24  2  0
 24 25  1  0
 25 26  2  0
 26 27  1  0
 27 28  1  0
 28 29  1  0
 29 30  2  0
 30 31  1  0
 31 32  2  0
 32 33  1  0
 33 34  1  0
 33 35  2  0
 27 36  1  0
 36 37  2  0
 19 38  1  0
 38 39  1  0
  9  4  1  0
 15 10  1  0
 39 16  1  0
 37 20  1  0
 36 24  1  0
 35 29  1  0
  3 40  1  0
  5 41  1  0
  6 42  1  0
  7 43  1  0
  8 44  1  0
  9 45  1  0
 11 46  1  0
 12 47  1  0
 13 48  1  0
 14 49  1  0
 15 50  1  0
 17 51  1  0
 17 52  1  0
 18 53  1  0
 18 54  1  0
 19 55  1  0
 23 56  1  0
 28 57  1  0
 28 58  1  0
 30 59  1  0
 31 60  1  0
 32 61  1  0
 35 62  1  0
 38 63  1  0
 38 64  1  0
 39 65  1  0
 39 66  1  0
M  END
>  <Binding energies>  (1) 
[-9.63]

>  <Ligand effiencies>  (1) 
[-0.24075000000000002]

>  <Interactions>  (1) 
["V-B:GLU:543:CA:9876, V-B:GLU:543:CD:9880, V-B:TYR:539:CD2:9846, V-A:LEU:475:CD1:4258, H-B:ALA:541:N:9863, V-B:GLU:543:CB:9878, V-A:TYR:484:CZ:4347, V-A:TYR:484:CE1:4345, V-B:HIS:456:CE1:9040, V-B:TYR:539:CE2:9848, V-B:GLU:543:CG:9879, V-B:ARG:545:CD:9895, V-B:ARG:545:CZ:9898, V-B:ARG:545:CG:9894, V-B:PRO:540:CA:9855, V-B:ALA:541:CB:9864, V-B:PRO:540:CB:9857, V-B:PRO:540:N:9856, V-B:GLY:454:CA:9020, V-A:TRP:381:CZ2:3370, V-B:ALA:541:CA:9862, V-A:PRO:482:CG:4327, V-A:PRO:482:CB:4326, V-A:TRP:381:CH2:3372, V-B:ASP:366:CG:8184, V-B:ASP:366:CB:8183, H-A:TYR:539:OH:4878, H-B:TYR:531:OH:9767"]

$$$$
RR27_Rahimova_2017-again1
     RDKit          3D

 66 71  0  0  0  0  0  0  0  0999 V2000
  129.3050  125.4140   58.8890 O   0  0  0  0  0  0  0  0  0  0  0  0
  129.2320  124.9660   60.0370 C   0  0  0  0  0  0  0  0  0  0  0  0
  128.4290  123.6500   60.2650 C   0  0  0  0  0  0  0  0  0  0  0  0
  129.3440  122.4360   60.5150 C   0  0  0  0  0  0  0  0  0  0  0  0
  130.7420  122.5260   60.4280 C   0  0  0  0  0  0  0  0  0  0  0  0
  131.5360  121.4070   60.6630 C   0  0  0  0  0  0  0  0  0  0  0  0
  130.9380  120.1920   60.9850 C   0  0  0  0  0  0  0  0  0  0  0  0
  129.5530  120.0870   61.0770 C   0  0  0  0  0  0  0  0  0  0  0  0
  128.7590  121.2060   60.8420 C   0  0  0  0  0  0  0  0  0  0  0  0
  127.3780  123.4160   59.1630 C   0  0  0  0  0  0  0  0  0  0  0  0
  126.0500  123.8420   59.3150 C   0  0  0  0  0  0  0  0  0  0  0  0
  125.1130  123.6010   58.3140 C   0  0  0  0  0  0  0  0  0  0  0  0
  125.4990  122.9360   57.1540 C   0  0  0  0  0  0  0  0  0  0  0  0
  126.8120  122.5050   56.9880 C   0  0  0  0  0  0  0  0  0  0  0  0
  127.7480  122.7390   57.9930 C   0  0  0  0  0  0  0  0  0  0  0  0
  129.9640  125.5060   61.0550 N   0  0  0  0  0  0  0  0  0  0  0  0
  129.7250  125.2150   62.4750 C   0  0  0  0  0  0  0  0  0  0  0  0
  128.6190  126.1750   62.9720 C   0  0  0  0  0  0  0  0  0  0  0  0
  128.7570  127.6650   62.5140 C   0  0  0  0  0  0  0  0  0  0  0  0
  127.4240  128.4170   62.4740 C   0  0  0  0  0  0  0  0  0  0  0  0
  126.7410  128.6070   63.5600 N   0  0  0  0  0  0  0  0  0  0  0  0
  125.5690  129.2820   63.4040 C   0  0  0  0  0  0  0  0  0  0  0  0
  125.0520  129.7690   62.2130 C   0  0  0  0  0  0  0  0  0  0  0  0
  123.8910  130.3640   62.4240 N   0  0  0  0  0  0  0  0  0  0  0  0
  123.6200  130.2780   63.7860 N   0  0  0  0  0  0  0  0  0  0  0  0
  124.6530  129.6370   64.3600 N   0  0  0  0  0  0  0  0  0  0  0  0
  124.6630  129.3660   65.7920 C   0  0  0  0  0  0  0  0  0  0  0  0
  126.0420  129.0110   66.3290 C   0  0  0  0  0  0  0  0  0  0  0  0
  127.1420  129.8220   66.0290 C   0  0  0  0  0  0  0  0  0  0  0  0
  128.4090  129.4930   66.5120 C   0  0  0  0  0  0  0  0  0  0  0  0
  128.5820  128.3550   67.2990 C   0  0  0  0  0  0  0  0  0  0  0  0
  127.4880  127.5450   67.6060 C   0  0  0  0  0  0  0  0  0  0  0  0
  127.7040  126.1360   68.5770 Cl  0  0  0  0  0  0  0  0  0  0  0  0
  126.2200  127.8730   67.1250 C   0  0  0  0  0  0  0  0  0  0  0  0
  125.8060  129.5730   60.9750 C   0  0  0  0  0  0  0  0  0  0  0  0
  125.5150  129.9330   59.8360 O   0  0  0  0  0  0  0  0  0  0  0  0
  126.9710  128.8870   61.2450 N   0  0  0  0  0  0  0  0  0  0  0  0
  129.6130  127.9100   61.2310 C   0  0  0  0  0  0  0  0  0  0  0  0
  130.6330  126.8020   60.8700 C   0  0  0  0  0  0  0  0  0  0  0  0
  127.8596  123.7772   61.1975 H   0  0  0  0  0  0  0  0  0  0  0  0
  131.2131  123.4866   60.1726 H   0  0  0  0  0  0  0  0  0  0  0  0
  132.6313  121.4826   60.5945 H   0  0  0  0  0  0  0  0  0  0  0  0
  131.5653  119.3072   61.1683 H   0  0  0  0  0  0  0  0  0  0  0  0
  129.0880  119.1239   61.3343 H   0  0  0  0  0  0  0  0  0  0  0  0
  127.6644  121.1237   60.9136 H   0  0  0  0  0  0  0  0  0  0  0  0
  125.7471  124.3700   60.2312 H   0  0  0  0  0  0  0  0  0  0  0  0
  124.0723  123.9346   58.4393 H   0  0  0  0  0  0  0  0  0  0  0  0
  124.7597  122.7493   56.3611 H   0  0  0  0  0  0  0  0  0  0  0  0
  127.1094  121.9818   56.0672 H   0  0  0  0  0  0  0  0  0  0  0  0
  128.7837  122.3903   57.8674 H   0  0  0  0  0  0  0  0  0  0  0  0
  129.3967  124.1718   62.5936 H   0  0  0  0  0  0  0  0  0  0  0  0
  130.6474  125.3554   63.0576 H   0  0  0  0  0  0  0  0  0  0  0  0
  127.6534  125.7968   62.6051 H   0  0  0  0  0  0  0  0  0  0  0  0
  128.7052  126.1894   64.0685 H   0  0  0  0  0  0  0  0  0  0  0  0
  129.3558  128.1084   63.3232 H   0  0  0  0  0  0  0  0  0  0  0  0
  124.3033  130.2619   66.3192 H   0  0  0  0  0  0  0  0  0  0  0  0
  124.0133  128.4950   65.9628 H   0  0  0  0  0  0  0  0  0  0  0  0
  127.0075  130.7217   65.4105 H   0  0  0  0  0  0  0  0  0  0  0  0
  129.2718  130.1317   66.2718 H   0  0  0  0  0  0  0  0  0  0  0  0
  129.5815  128.0956   67.6781 H   0  0  0  0  0  0  0  0  0  0  0  0
  125.3579  127.2359   67.3718 H   0  0  0  0  0  0  0  0  0  0  0  0
  127.5520  128.7080   60.4390 H   0  0  0  0  0  0  0  0  0  0  0  0
  128.9221  128.0202   60.3821 H   0  0  0  0  0  0  0  0  0  0  0  0
  130.2139  128.8065   61.4437 H   0  0  0  0  0  0  0  0  0  0  0  0
  130.9531  126.9131   59.8235 H   0  0  0  0  0  0  0  0  0  0  0  0
  131.5238  126.8725   61.5115 H   0  0  0  0  0  0  0  0  0  0  0  0
  1  2  2  0
  2  3  1  0
  3  4  1  0
  4  5  2  0
  5  6  1  0
  6  7  2  0
  7  8  1  0
  8  9  2  0
  3 10  1  0
 10 11  2  0
 11 12  1  0
 12 13  2  0
 13 14  1  0
 14 15  2  0
  2 16  1  0
 16 17  1  0
 17 18  1  0
 18 19  1  0
 19 20  1  0
 20 21  2  0
 21 22  1  0
 22 23  2  0
 23 24  1  0
 24 25  2  0
 25 26  1  0
 26 27  1  0
 27 28  1  0
 28 29  2  0
 29 30  1  0
 30 31  2  0
 31 32  1  0
 32 33  1  0
 32 34  2  0
 23 35  1  0
 35 36  2  0
 35 37  1  0
 19 38  1  0
 38 39  1  0
  9  4  1  0
 15 10  1  0
 39 16  1  0
 37 20  1  0
 26 22  1  0
 34 28  1  0
  3 40  1  0
  5 41  1  0
  6 42  1  0
  7 43  1  0
  8 44  1  0
  9 45  1  0
 11 46  1  0
 12 47  1  0
 13 48  1  0
 14 49  1  0
 15 50  1  0
 17 51  1  0
 17 52  1  0
 18 53  1  0
 18 54  1  0
 19 55  1  0
 27 56  1  0
 27 57  1  0
 29 58  1  0
 30 59  1  0
 31 60  1  0
 34 61  1  0
 37 62  1  0
 38 63  1  0
 38 64  1  0
 39 65  1  0
 39 66  1  0
M  END
>  <Binding energies>  (1) 
[-9.82]

>  <Ligand effiencies>  (1) 
[-0.2455]

>  <Interactions>  (1) 
["V-A:GLU:543:CD:4908, V-B:GLU:543:CD:9880, V-B:TYR:539:CD2:9846, V-A:LEU:475:CD1:4258, V-B:GLU:543:CB:9878, V-B:GLU:543:C:9874, V-B:HIS:456:CE1:9040, V-B:TYR:539:CE2:9848, V-B:GLU:543:CG:9879, V-B:ARG:545:CD:9895, V-B:ARG:545:CZ:9898, V-B:ARG:545:CG:9894, V-A:GLU:543:CB:4906, V-B:PRO:540:CA:9855, V-B:ALA:541:CB:9864, V-B:TYR:539:CZ:9849, V-B:TYR:539:C:9839, V-A:GLU:543:CG:4907, V-B:PRO:540:CB:9857, V-B:PRO:540:C:9853, V-B:PRO:540:N:9856, V-B:TYR:484:CZ:9318, V-B:ALA:541:CA:9862, V-A:PRO:482:CG:4327, V-A:PRO:482:CB:4326, V-A:TRP:381:CH2:3372, H-B:GLY:454:N:9021, H-B:ARG:545:NH2:9900, H-B:ARG:545:NH1:9899, V-B:ASP:366:CG:8184, V-B:LEU:363:CD1:8160, V-B:PRO:540:CD:9859"]

$$$$
RR28_Rahimova_2017
     RDKit          3D

 82 85  0  0  0  0  0  0  0  0999 V2000
  127.5570  133.1180   64.0760 C   0  0  0  0  0  0  0  0  0  0  0  0
  127.7790  131.6320   63.8170 C   0  0  0  0  0  0  0  0  0  0  0  0
  128.6360  131.2780   63.0090 O   0  0  0  0  0  0  0  0  0  0  0  0
  126.9970  130.7810   64.5120 N   0  0  0  0  0  0  0  0  0  0  0  0
  126.9830  129.3010   64.4610 C   0  0  0  0  0  0  0  0  0  0  0  0
  127.0680  128.8650   62.9700 C   0  0  0  0  0  0  0  0  0  0  0  0
  128.2160  128.2010   62.5120 C   0  0  0  0  0  0  0  0  0  0  0  0
  128.3280  127.8000   61.1840 C   0  0  0  0  0  0  0  0  0  0  0  0
  127.2930  128.0550   60.2820 C   0  0  0  0  0  0  0  0  0  0  0  0
  127.4360  127.6110   58.8270 C   0  0  0  0  0  0  0  0  0  0  0  0
  126.2880  127.1520   58.3220 F   0  0  0  0  0  0  0  0  0  0  0  0
  127.8400  128.6310   58.0700 F   0  0  0  0  0  0  0  0  0  0  0  0
  128.3420  126.6360   58.7530 F   0  0  0  0  0  0  0  0  0  0  0  0
  126.1450  128.7170   60.7260 C   0  0  0  0  0  0  0  0  0  0  0  0
  126.0340  129.1180   62.0550 C   0  0  0  0  0  0  0  0  0  0  0  0
  125.7260  128.7370   65.2150 C   0  0  0  0  0  0  0  0  0  0  0  0
  125.7480  129.0170   66.7390 C   0  0  0  0  0  0  0  0  0  0  0  0
  126.9770  128.3970   67.2590 N   0  0  0  0  0  0  0  0  0  0  0  0
  126.9490  127.1320   67.7630 C   0  0  0  0  0  0  0  0  0  0  0  0
  125.8910  126.5300   67.9590 O   0  0  0  0  0  0  0  0  0  0  0  0
  128.2700  126.4940   68.2570 C   0  0  0  0  0  0  0  0  0  0  0  0
  128.8500  125.3600   67.3680 C   0  0  0  0  0  0  0  0  0  0  0  0
  129.9300  125.8070   66.3550 C   0  0  0  0  0  0  0  0  0  0  0  0
  130.2280  127.0040   66.3190 O   0  0  0  0  0  0  0  0  0  0  0  0
  130.6130  124.8700   65.6380 N   0  0  0  0  0  0  0  0  0  0  0  0
  130.1120  123.5110   65.4010 C   0  0  0  0  0  0  0  0  0  0  0  0
  129.1960  123.5890   64.1600 C   0  0  0  0  0  0  0  0  0  0  0  0
  129.8810  124.1710   62.8750 C   0  0  0  0  0  0  0  0  0  0  0  0
  128.8380  124.5660   61.9050 N   0  0  0  0  0  0  0  0  0  0  0  0
  127.8600  123.8010   61.3780 C   0  0  0  0  0  0  0  0  0  0  0  0
  126.9320  124.4850   60.3790 C   0  0  0  0  0  0  0  0  0  0  0  0
  127.6870  122.6150   61.6560 O   0  0  0  0  0  0  0  0  0  0  0  0
  130.7150  123.0190   62.2260 C   0  0  0  0  0  0  0  0  0  0  0  0
  131.8490  123.2540   61.4310 C   0  0  0  0  0  0  0  0  0  0  0  0
  132.5650  122.1990   60.8720 C   0  0  0  0  0  0  0  0  0  0  0  0
  132.1640  120.8790   61.0920 C   0  0  0  0  0  0  0  0  0  0  0  0
  132.9420  119.7100   60.4900 C   0  0  0  0  0  0  0  0  0  0  0  0
  134.2540  119.9470   60.5300 F   0  0  0  0  0  0  0  0  0  0  0  0
  132.6860  118.6070   61.1920 F   0  0  0  0  0  0  0  0  0  0  0  0
  132.6050  119.4840   59.2190 F   0  0  0  0  0  0  0  0  0  0  0  0
  131.0350  120.6290   61.8740 C   0  0  0  0  0  0  0  0  0  0  0  0
  130.3220  121.6860   62.4300 C   0  0  0  0  0  0  0  0  0  0  0  0
  130.7570  125.4200   63.2800 C   0  0  0  0  0  0  0  0  0  0  0  0
  131.5640  125.2870   64.5990 C   0  0  0  0  0  0  0  0  0  0  0  0
  128.2060  129.0180   66.7460 C   0  0  0  0  0  0  0  0  0  0  0  0
  128.2410  128.7610   65.2170 C   0  0  0  0  0  0  0  0  0  0  0  0
  127.5296  133.3011   65.1603 H   0  0  0  0  0  0  0  0  0  0  0  0
  128.3789  133.6952   63.6273 H   0  0  0  0  0  0  0  0  0  0  0  0
  126.6023  133.4298   63.6273 H   0  0  0  0  0  0  0  0  0  0  0  0
  126.3130  131.1890   65.1320 H   0  0  0  0  0  0  0  0  0  0  0  0
  129.0389  127.9945   63.2122 H   0  0  0  0  0  0  0  0  0  0  0  0
  129.2356  127.2800   60.8435 H   0  0  0  0  0  0  0  0  0  0  0  0
  125.3250  128.9223   60.0221 H   0  0  0  0  0  0  0  0  0  0  0  0
  125.1256  129.6390   62.3916 H   0  0  0  0  0  0  0  0  0  0  0  0
  124.8251  129.2016   64.7877 H   0  0  0  0  0  0  0  0  0  0  0  0
  125.7310  127.6448   65.0845 H   0  0  0  0  0  0  0  0  0  0  0  0
  125.7603  130.1009   66.9263 H   0  0  0  0  0  0  0  0  0  0  0  0
  124.8550  128.6057   67.2324 H   0  0  0  0  0  0  0  0  0  0  0  0
  129.0254  127.2909   68.3221 H   0  0  0  0  0  0  0  0  0  0  0  0
  128.0304  126.0228   69.2216 H   0  0  0  0  0  0  0  0  0  0  0  0
  129.2961  124.6029   68.0296 H   0  0  0  0  0  0  0  0  0  0  0  0
  128.0088  124.9790   66.7703 H   0  0  0  0  0  0  0  0  0  0  0  0
  130.9507  122.8250   65.2113 H   0  0  0  0  0  0  0  0  0  0  0  0
  129.5635  123.1321   66.2759 H   0  0  0  0  0  0  0  0  0  0  0  0
  128.8436  122.5727   63.9299 H   0  0  0  0  0  0  0  0  0  0  0  0
  128.3814  124.2816   64.4184 H   0  0  0  0  0  0  0  0  0  0  0  0
  128.9010  125.5180   61.5790 H   0  0  0  0  0  0  0  0  0  0  0  0
  126.1622  125.0524   60.9226 H   0  0  0  0  0  0  0  0  0  0  0  0
  127.5152  125.1709   59.7470 H   0  0  0  0  0  0  0  0  0  0  0  0
  126.4494  123.7249   59.7470 H   0  0  0  0  0  0  0  0  0  0  0  0
  132.1764  124.2879   61.2472 H   0  0  0  0  0  0  0  0  0  0  0  0
  133.4511  122.4059   60.2539 H   0  0  0  0  0  0  0  0  0  0  0  0
  130.7084  119.5936   62.0509 H   0  0  0  0  0  0  0  0  0  0  0  0
  129.4327  121.4738   63.0416 H   0  0  0  0  0  0  0  0  0  0  0  0
  131.4722  125.6076   62.4655 H   0  0  0  0  0  0  0  0  0  0  0  0
  130.0434  126.2395   63.4507 H   0  0  0  0  0  0  0  0  0  0  0  0
  132.3551  124.5313   64.4844 H   0  0  0  0  0  0  0  0  0  0  0  0
  132.0462  126.2394   64.8645 H   0  0  0  0  0  0  0  0  0  0  0  0
  128.1949  130.0994   66.9470 H   0  0  0  0  0  0  0  0  0  0  0  0
  129.0943  128.5923   67.2356 H   0  0  0  0  0  0  0  0  0  0  0  0
  129.1333  129.2528   64.8023 H   0  0  0  0  0  0  0  0  0  0  0  0
  128.2590  127.6705   65.0741 H   0  0  0  0  0  0  0  0  0  0  0  0
  1  2  1  0
  2  3  2  0
  2  4  1  0
  4  5  1  0
  5  6  1  0
  6  7  2  0
  7  8  1  0
  8  9  2  0
  9 10  1  0
 10 11  1  0
 10 12  1  0
 10 13  1  0
  9 14  1  0
 14 15  2  0
  5 16  1  0
 16 17  1  0
 17 18  1  0
 18 19  1  0
 19 20  2  0
 19 21  1  0
 21 22  1  0
 22 23  1  0
 23 24  2  0
 23 25  1  0
 25 26  1  0
 26 27  1  0
 27 28  1  0
 28 29  1  0
 29 30  1  0
 30 31  1  0
 30 32  2  0
 28 33  1  0
 33 34  2  0
 34 35  1  0
 35 36  2  0
 36 37  1  0
 37 38  1  0
 37 39  1  0
 37 40  1  0
 36 41  1  0
 41 42  2  0
 28 43  1  0
 43 44  1  0
 18 45  1  0
 45 46  1  0
 46  5  1  0
 15  6  1  0
 44 25  1  0
 42 33  1  0
  1 47  1  0
  1 48  1  0
  1 49  1  0
  4 50  1  0
  7 51  1  0
  8 52  1  0
 14 53  1  0
 15 54  1  0
 16 55  1  0
 16 56  1  0
 17 57  1  0
 17 58  1  0
 21 59  1  0
 21 60  1  0
 22 61  1  0
 22 62  1  0
 26 63  1  0
 26 64  1  0
 27 65  1  0
 27 66  1  0
 29 67  1  0
 31 68  1  0
 31 69  1  0
 31 70  1  0
 34 71  1  0
 35 72  1  0
 41 73  1  0
 42 74  1  0
 43 75  1  0
 43 76  1  0
 44 77  1  0
 44 78  1  0
 45 79  1  0
 45 80  1  0
 46 81  1  0
 46 82  1  0
M  END
>  <Binding energies>  (1) 
[-7.71]

>  <Ligand effiencies>  (1) 
[-0.160625]

>  <Interactions>  (1) 
["V-B:GLU:543:CA:9876, V-A:GLU:543:CD:4908, V-B:GLU:543:CD:9880, V-B:TYR:539:CD2:9846, V-A:LEU:475:CD1:4258, H-B:ALA:541:N:9863, V-B:GLU:543:CB:9878, V-A:TYR:484:CZ:4347, V-B:GLU:543:C:9874, V-A:TYR:484:CE1:4345, V-B:HIS:456:CE1:9040, V-B:TYR:539:CE2:9848, V-A:HIS:456:CE1:4069, V-B:GLU:543:CG:9879, V-B:ARG:545:CZ:9898, H-B:TYR:484:OH:9319, V-B:ARG:545:CG:9894, V-A:ALA:541:CB:4892, V-A:GLU:543:CB:4906, H-B:ARG:545:N:9892, V-B:ALA:541:CB:9864, V-B:LEU:475:CD1:9229, V-A:ILE:369:CD1:3239, V-A:ILE:369:CB:3236, V-A:ILE:369:CG2:3237, V-A:TRP:381:CZ2:3370, V-A:TRP:381:CH2:3372, V-B:ASP:366:CG:8184, V-A:ILE:369:CG1:3238, V-A:SER:385:C:3405, V-A:TRP:381:CZ3:3371, V-B:LEU:475:CD2:9230, V-B:LEU:475:CG:9228"]

$$$$
RR29_Rahimova_2017
     RDKit          3D

 35 36  0  0  0  0  0  0  0  0999 V2000
  126.4540  127.5790   67.1240 C   0  0  0  0  0  0  0  0  0  0  0  0
  127.9370  127.2680   66.9800 C   0  0  0  0  0  0  0  0  0  0  0  0
  128.7250  127.4620   68.2940 C   0  0  0  0  0  0  0  0  0  0  0  0
  127.9990  126.8180   69.4940 C   0  0  0  0  0  0  0  0  0  0  0  0
  128.8210  126.8930   70.7720 C   0  0  0  0  0  0  0  0  0  0  0  0
  129.4970  128.0830   71.1060 C   0  0  0  0  0  0  0  0  0  0  0  0
  130.2590  128.1730   72.2790 C   0  0  0  0  0  0  0  0  0  0  0  0
  130.3290  127.0450   73.0890 C   0  0  0  0  0  0  0  0  0  0  0  0
  129.6760  125.8870   72.7690 C   0  0  0  0  0  0  0  0  0  0  0  0
  128.9060  125.7720   71.6180 C   0  0  0  0  0  0  0  0  0  0  0  0
  129.8890  124.9670   73.7470 O   0  0  0  0  0  0  0  0  0  0  0  0
  130.8720  125.5200   74.5800 C   0  0  0  0  0  0  0  0  0  0  0  0
  130.9700  126.8870   74.2770 O   0  0  0  0  0  0  0  0  0  0  0  0
  128.3780  126.9000   65.8340 N   0  0  0  0  0  0  0  0  0  0  0  0
  129.7320  126.7010   65.6790 N   0  0  0  0  0  0  0  0  0  0  0  0
  130.4080  125.6760   66.2240 C   0  0  0  0  0  0  0  0  0  0  0  0
  129.8620  124.7120   66.9670 N   0  0  0  0  0  0  0  0  0  0  0  0
  131.7140  125.6160   66.0100 N   0  0  0  0  0  0  0  0  0  0  0  0
  126.1928  127.6338   68.1911 H   0  0  0  0  0  0  0  0  0  0  0  0
  126.2331  128.5430   66.6425 H   0  0  0  0  0  0  0  0  0  0  0  0
  125.8644  126.7850   66.6425 H   0  0  0  0  0  0  0  0  0  0  0  0
  129.7169  126.9988   68.1868 H   0  0  0  0  0  0  0  0  0  0  0  0
  128.8134  128.5416   68.4852 H   0  0  0  0  0  0  0  0  0  0  0  0
  127.0460  127.3433   69.6547 H   0  0  0  0  0  0  0  0  0  0  0  0
  127.8366  125.7557   69.2593 H   0  0  0  0  0  0  0  0  0  0  0  0
  129.4259  128.9534   70.4371 H   0  0  0  0  0  0  0  0  0  0  0  0
  130.7825  129.1020   72.5489 H   0  0  0  0  0  0  0  0  0  0  0  0
  128.3807  124.8362   71.3765 H   0  0  0  0  0  0  0  0  0  0  0  0
  130.5861  125.3897   75.6342 H   0  0  0  0  0  0  0  0  0  0  0  0
  131.8385  125.0200   74.4191 H   0  0  0  0  0  0  0  0  0  0  0  0
  130.2340  127.3940   65.1420 H   0  0  0  0  0  0  0  0  0  0  0  0
  130.3370  123.8280   67.0800 H   0  0  0  0  0  0  0  0  0  0  0  0
  128.9660  124.8690   67.4050 H   0  0  0  0  0  0  0  0  0  0  0  0
  132.2220  126.4480   65.7470 H   0  0  0  0  0  0  0  0  0  0  0  0
  132.2010  124.7380   66.1170 H   0  0  0  0  0  0  0  0  0  0  0  0
  1  2  1  0
  2  3  1  0
  3  4  1  0
  4  5  1  0
  5  6  2  0
  6  7  1  0
  7  8  2  0
  8  9  1  0
  9 10  2  0
  9 11  1  0
 11 12  1  0
 12 13  1  0
  2 14  2  0
 14 15  1  0
 15 16  1  0
 16 17  1  0
 16 18  2  0
 10  5  1  0
 13  8  1  0
  1 19  1  0
  1 20  1  0
  1 21  1  0
  3 22  1  0
  3 23  1  0
  4 24  1  0
  4 25  1  0
  6 26  1  0
  7 27  1  0
 10 28  1  0
 12 29  1  0
 12 30  1  0
 15 31  1  0
 17 32  1  0
 17 33  1  0
 18 34  1  0
 18 35  1  0
M  CHG  1  18   1
M  END
>  <Binding energies>  (1) 
[-7.02]

>  <Ligand effiencies>  (1) 
[-0.30521739130434783]

>  <Interactions>  (1) 
["V-B:GLU:543:CA:9876, V-A:GLU:543:CD:4908, V-A:HIS:456:CD2:4068, V-B:GLU:543:CB:9878, H-A:TYR:484:OH:4348, V-A:TYR:484:CZ:4347, V-A:TYR:484:CE1:4345, V-B:HIS:456:CE1:9040, V-A:HIS:456:CE1:4069, V-B:ARG:545:CG:9894, H-B:LYS:547:NZ:9923, H-B:GLU:543:O:9875, H-A:GLU:543:OE1:4909, H-A:GLU:543:OE2:4910, V-B:HIS:456:CD2:9039, H-A:LYS:547:NZ:4951, H-A:HIS:456:ND1:4067, V-A:LYS:547:CE:4950"]

$$$$
RR29_Rahimova_2017-again1
     RDKit          3D

 34 35  0  0  0  0  0  0  0  0999 V2000
  129.8270  125.4220   66.7460 C   0  0  0  0  0  0  0  0  0  0  0  0
  128.9340  126.1760   67.7190 C   0  0  0  0  0  0  0  0  0  0  0  0
  127.6620  126.7500   67.0650 C   0  0  0  0  0  0  0  0  0  0  0  0
  127.7650  128.2770   66.8700 C   0  0  0  0  0  0  0  0  0  0  0  0
  126.5790  128.8410   66.1010 C   0  0  0  0  0  0  0  0  0  0  0  0
  125.3330  128.9880   66.7410 C   0  0  0  0  0  0  0  0  0  0  0  0
  124.2270  129.5070   66.0520 C   0  0  0  0  0  0  0  0  0  0  0  0
  124.4070  129.8600   64.7190 C   0  0  0  0  0  0  0  0  0  0  0  0
  125.6140  129.7160   64.0930 C   0  0  0  0  0  0  0  0  0  0  0  0
  126.7290  129.2140   64.7550 C   0  0  0  0  0  0  0  0  0  0  0  0
  125.5130  130.1660   62.8150 O   0  0  0  0  0  0  0  0  0  0  0  0
  124.1450  130.3920   62.6010 C   0  0  0  0  0  0  0  0  0  0  0  0
  123.5130  130.4030   63.8530 O   0  0  0  0  0  0  0  0  0  0  0  0
  129.2980  126.2900   68.9470 N   0  0  0  0  0  0  0  0  0  0  0  0
  128.5240  126.9640   69.7350 N   0  0  0  0  0  0  0  0  0  0  0  0
  127.9500  126.3240   70.6880 C   0  0  0  0  0  0  0  0  0  0  0  0
  128.0520  124.9400   71.0000 N   0  0  0  0  0  0  0  0  0  0  0  0
  127.0940  126.9790   71.5990 N   0  0  0  0  0  0  0  0  0  0  0  0
  130.5493  124.8121   67.3084 H   0  0  0  0  0  0  0  0  0  0  0  0
  129.2094  124.7680   66.1129 H   0  0  0  0  0  0  0  0  0  0  0  0
  130.3682  126.1405   66.1129 H   0  0  0  0  0  0  0  0  0  0  0  0
  127.5185  126.2735   66.0840 H   0  0  0  0  0  0  0  0  0  0  0  0
  126.8098  126.5441   67.7294 H   0  0  0  0  0  0  0  0  0  0  0  0
  127.8071  128.7580   67.8583 H   0  0  0  0  0  0  0  0  0  0  0  0
  128.6740  128.4816   66.2853 H   0  0  0  0  0  0  0  0  0  0  0  0
  125.2259  128.6919   67.7950 H   0  0  0  0  0  0  0  0  0  0  0  0
  123.2529  129.6303   66.5479 H   0  0  0  0  0  0  0  0  0  0  0  0
  127.6965  129.1123   64.2417 H   0  0  0  0  0  0  0  0  0  0  0  0
  123.9993  131.3601   62.0994 H   0  0  0  0  0  0  0  0  0  0  0  0
  123.7199  129.6039   61.9621 H   0  0  0  0  0  0  0  0  0  0  0  0
  128.6180  124.3070   70.4520 H   0  0  0  0  0  0  0  0  0  0  0  0
  127.5580  124.5200   71.7720 H   0  0  0  0  0  0  0  0  0  0  0  0
  126.8960  127.9670   71.5330 H   0  0  0  0  0  0  0  0  0  0  0  0
  126.6300  126.4940   72.3520 H   0  0  0  0  0  0  0  0  0  0  0  0
  1  2  1  0
  2  3  1  0
  3  4  1  0
  4  5  1  0
  5  6  2  0
  6  7  1  0
  7  8  2  0
  8  9  1  0
  9 10  2  0
  9 11  1  0
 11 12  1  0
 12 13  1  0
  2 14  2  0
 14 15  1  0
 15 16  2  0
 16 17  1  0
 16 18  1  0
 10  5  1  0
 13  8  1  0
  1 19  1  0
  1 20  1  0
  1 21  1  0
  3 22  1  0
  3 23  1  0
  4 24  1  0
  4 25  1  0
  6 26  1  0
  7 27  1  0
 10 28  1  0
 12 29  1  0
 12 30  1  0
 17 31  1  0
 17 32  1  0
 18 33  1  0
 18 34  1  0
M  END
>  <Binding energies>  (1) 
[-6.09]

>  <Ligand effiencies>  (1) 
[-0.2768181818181818]

>  <Interactions>  (1) 
["H-A:HIS:456:NE2:4070, V-B:GLU:543:CD:9880, V-B:GLU:543:CB:9878, V-B:GLU:543:C:9874, V-B:HIS:456:CE1:9040, V-A:HIS:456:CE1:4069, V-B:ARG:545:CD:9895, V-B:ARG:545:CZ:9898, V-B:ARG:545:CG:9894, V-B:GLY:544:C:9884, H-B:GLY:454:N:9021, H-B:ARG:545:NH2:9900, H-B:GLU:543:O:9875, H-B:ARG:545:NH1:9899, V-B:HIS:456:CD2:9039, V-B:HIS:456:CG:9037, V-B:GLY:544:CA:9886, H-B:GLY:544:O:9885, H-B:HIS:456:ND1:9038"]

$$$$
RR2_Rahimova_2017
     RDKit          3D

 76 80  0  0  0  0  0  0  0  0999 V2000
  128.6280  126.2090   70.1580 C   0  0  0  0  0  0  0  0  0  0  0  0
  127.4550  126.0580   69.3660 O   0  0  0  0  0  0  0  0  0  0  0  0
  127.3100  126.8220   68.2230 C   0  0  0  0  0  0  0  0  0  0  0  0
  126.1120  127.4270   67.8220 C   0  0  0  0  0  0  0  0  0  0  0  0
  126.0600  128.1770   66.6510 C   0  0  0  0  0  0  0  0  0  0  0  0
  127.2000  128.3360   65.8510 C   0  0  0  0  0  0  0  0  0  0  0  0
  127.1160  129.1520   64.5760 C   0  0  0  0  0  0  0  0  0  0  0  0
  127.3550  128.6260   63.4830 O   0  0  0  0  0  0  0  0  0  0  0  0
  126.7840  130.4550   64.7300 N   0  0  0  0  0  0  0  0  0  0  0  0
  126.7820  131.2690   63.6030 N   0  0  0  0  0  0  0  0  0  0  0  0
  127.3690  132.4800   63.6900 C   0  0  0  0  0  0  0  0  0  0  0  0
  127.7530  133.0040   64.7400 O   0  0  0  0  0  0  0  0  0  0  0  0
  127.5730  133.2140   62.3580 C   0  0  0  0  0  0  0  0  0  0  0  0
  126.0680  133.3880   61.3310 S   0  0  0  0  0  0  0  0  0  0  0  0
  125.7120  131.6920   60.9850 C   0  0  0  0  0  0  0  0  0  0  0  0
  124.8480  130.9890   61.6740 N   0  0  0  0  0  0  0  0  0  0  0  0
  124.8770  129.6920   61.1800 N   0  0  0  0  0  0  0  0  0  0  0  0
  125.7370  129.6670   60.1890 C   0  0  0  0  0  0  0  0  0  0  0  0
  126.0330  128.4400   59.3890 C   0  0  0  0  0  0  0  0  0  0  0  0
  125.6260  128.3660   58.0550 C   0  0  0  0  0  0  0  0  0  0  0  0
  125.8890  127.2250   57.3040 C   0  0  0  0  0  0  0  0  0  0  0  0
  126.5800  126.1500   57.8770 C   0  0  0  0  0  0  0  0  0  0  0  0
  126.8640  124.9720   57.1710 N   0  0  0  0  0  0  0  0  0  0  0  0
  126.3760  123.3410   57.6860 S   0  0  0  0  0  0  0  0  0  0  0  0
  126.9250  122.4210   56.6830 O   0  0  0  0  0  0  0  0  0  0  0  0
  124.9380  123.3670   57.9760 O   0  0  0  0  0  0  0  0  0  0  0  0
  127.2730  123.0420   59.2070 C   0  0  0  0  0  0  0  0  0  0  0  0
  126.6920  123.3300   60.4440 C   0  0  0  0  0  0  0  0  0  0  0  0
  127.4110  123.1050   61.6140 C   0  0  0  0  0  0  0  0  0  0  0  0
  128.7070  122.5860   61.5480 C   0  0  0  0  0  0  0  0  0  0  0  0
  129.4950  122.3550   62.8250 C   0  0  0  0  0  0  0  0  0  0  0  0
  129.2860  122.3030   60.3100 C   0  0  0  0  0  0  0  0  0  0  0  0
  128.5690  122.5290   59.1390 C   0  0  0  0  0  0  0  0  0  0  0  0
  126.9880  126.2270   59.2090 C   0  0  0  0  0  0  0  0  0  0  0  0
  126.7190  127.3650   59.9620 C   0  0  0  0  0  0  0  0  0  0  0  0
  126.3130  130.9140   60.0130 N   0  0  0  0  0  0  0  0  0  0  0  0
  127.3100  131.2960   59.0920 C   0  0  0  0  0  0  0  0  0  0  0  0
  127.1280  131.0580   57.7290 C   0  0  0  0  0  0  0  0  0  0  0  0
  128.1140  131.4430   56.8250 C   0  0  0  0  0  0  0  0  0  0  0  0
  129.2830  132.0620   57.2690 C   0  0  0  0  0  0  0  0  0  0  0  0
  130.2040  132.4060   56.2970 O   0  0  0  0  0  0  0  0  0  0  0  0
  131.5500  131.9600   56.4270 C   0  0  0  0  0  0  0  0  0  0  0  0
  129.4580  132.2980   58.6420 C   0  0  0  0  0  0  0  0  0  0  0  0
  128.4740  131.9180   59.5500 C   0  0  0  0  0  0  0  0  0  0  0  0
  128.3990  127.7320   66.2620 C   0  0  0  0  0  0  0  0  0  0  0  0
  128.4480  126.9840   67.4350 C   0  0  0  0  0  0  0  0  0  0  0  0
  128.3578  126.1742   71.2237 H   0  0  0  0  0  0  0  0  0  0  0  0
  129.3310  125.3939   69.9312 H   0  0  0  0  0  0  0  0  0  0  0  0
  129.1017  127.1755   69.9312 H   0  0  0  0  0  0  0  0  0  0  0  0
  125.2072  127.3086   68.4362 H   0  0  0  0  0  0  0  0  0  0  0  0
  125.1138  128.6503   66.3498 H   0  0  0  0  0  0  0  0  0  0  0  0
  127.0350  130.9690   65.5620 H   0  0  0  0  0  0  0  0  0  0  0  0
  126.6950  130.7540   62.7370 H   0  0  0  0  0  0  0  0  0  0  0  0
  127.9536  134.2221   62.5789 H   0  0  0  0  0  0  0  0  0  0  0  0
  128.2742  132.6003   61.7735 H   0  0  0  0  0  0  0  0  0  0  0  0
  125.0953  129.2134   57.5964 H   0  0  0  0  0  0  0  0  0  0  0  0
  125.5536  127.1670   56.2580 H   0  0  0  0  0  0  0  0  0  0  0  0
  127.3590  125.0570   56.2960 H   0  0  0  0  0  0  0  0  0  0  0  0
  125.6698  123.7332   60.4932 H   0  0  0  0  0  0  0  0  0  0  0  0
  126.9596  123.3355   62.5903 H   0  0  0  0  0  0  0  0  0  0  0  0
  128.8482  122.5446   63.6943 H   0  0  0  0  0  0  0  0  0  0  0  0
  129.8512  121.3146   62.8529 H   0  0  0  0  0  0  0  0  0  0  0  0
  130.3565  123.0384   62.8529 H   0  0  0  0  0  0  0  0  0  0  0  0
  130.3088  121.9014   60.2600 H   0  0  0  0  0  0  0  0  0  0  0  0
  129.0225  122.3039   58.1625 H   0  0  0  0  0  0  0  0  0  0  0  0
  127.5254  125.3830   59.6661 H   0  0  0  0  0  0  0  0  0  0  0  0
  127.0467  127.4193   61.0106 H   0  0  0  0  0  0  0  0  0  0  0  0
  126.2102  130.5687   57.3709 H   0  0  0  0  0  0  0  0  0  0  0  0
  127.9702  131.2575   55.7503 H   0  0  0  0  0  0  0  0  0  0  0  0
  131.8067  131.8749   57.4932 H   0  0  0  0  0  0  0  0  0  0  0  0
  131.6590  130.9777   55.9441 H   0  0  0  0  0  0  0  0  0  0  0  0
  132.2240  132.6828   55.9441 H   0  0  0  0  0  0  0  0  0  0  0  0
  130.3764  132.7851   59.0014 H   0  0  0  0  0  0  0  0  0  0  0  0
  128.6124  132.1068   60.6248 H   0  0  0  0  0  0  0  0  0  0  0  0
  129.3068  127.8508   65.6523 H   0  0  0  0  0  0  0  0  0  0  0  0
  129.3946  126.5160   67.7431 H   0  0  0  0  0  0  0  0  0  0  0  0
  1  2  1  0
  2  3  1  0
  3  4  2  0
  4  5  1  0
  5  6  2  0
  6  7  1  0
  7  8  2  0
  7  9  1  0
  9 10  1  0
 10 11  1  0
 11 12  2  0
 11 13  1  0
 13 14  1  0
 14 15  1  0
 15 16  2  0
 16 17  1  0
 17 18  2  0
 18 19  1  0
 19 20  2  0
 20 21  1  0
 21 22  2  0
 22 23  1  0
 23 24  1  0
 24 25  2  0
 24 26  2  0
 24 27  1  0
 27 28  2  0
 28 29  1  0
 29 30  2  0
 30 31  1  0
 30 32  1  0
 32 33  2  0
 22 34  1  0
 34 35  2  0
 18 36  1  0
 36 37  1  0
 37 38  2  0
 38 39  1  0
 39 40  2  0
 40 41  1  0
 41 42  1  0
 40 43  1  0
 43 44  2  0
  6 45  1  0
 45 46  2  0
 46  3  1  0
 36 15  1  0
 44 37  1  0
 35 19  1  0
 33 27  1  0
  1 47  1  0
  1 48  1  0
  1 49  1  0
  4 50  1  0
  5 51  1  0
  9 52  1  0
 10 53  1  0
 13 54  1  0
 13 55  1  0
 20 56  1  0
 21 57  1  0
 23 58  1  0
 28 59  1  0
 29 60  1  0
 31 61  1  0
 31 62  1  0
 31 63  1  0
 32 64  1  0
 33 65  1  0
 34 66  1  0
 35 67  1  0
 38 68  1  0
 39 69  1  0
 42 70  1  0
 42 71  1  0
 42 72  1  0
 43 73  1  0
 44 74  1  0
 45 75  1  0
 46 76  1  0
M  END
>  <Binding energies>  (1) 
[-9.08]

>  <Ligand effiencies>  (1) 
[-0.1853061224489796]

>  <Interactions>  (1) 
["V-A:GLU:543:CD:4908, V-B:GLU:543:CD:9880, V-B:TYR:539:CD2:9846, V-B:GLU:543:CB:9878, V-B:HIS:456:CE1:9040, V-B:TYR:539:CE2:9848, V-B:GLU:543:CG:9879, H-B:TYR:484:OH:9319, V-B:ARG:545:CG:9894, V-A:ALA:541:CB:4892, V-A:PRO:540:CA:4883, V-A:TYR:539:CZ:4877, V-A:TYR:539:CE2:4876, V-A:TYR:539:C:4867, V-B:ARG:545:CA:9891, V-B:PRO:540:CA:9855, V-B:ALA:541:CB:9864, V-B:PRO:540:N:9856, V-B:LEU:475:CD1:9229, H-B:ARG:545:NH2:9900, V-B:ASP:366:CG:8184, V-A:PRO:540:N:4884, V-B:ASP:366:CB:8183, H-A:TYR:539:N:4870, V-A:PRO:540:CD:4887, V-A:TYR:539:CE1:4875, V-A:TYR:539:CD1:4873, H-B:TYR:539:N:9842"]

$$$$
RR30_Rahimova_2017
     RDKit          3D

 29 30  0  0  0  0  0  0  0  0999 V2000
  134.2800  125.3050   75.0580 C   0  0  0  0  0  0  0  0  0  0  0  0
  132.9440  124.5480   75.0200 C   0  0  0  0  0  0  0  0  0  0  0  0
  131.8350  125.3740   74.4080 C   0  0  0  0  0  0  0  0  0  0  0  0
  131.4070  126.5560   74.7750 N   0  0  0  0  0  0  0  0  0  0  0  0
  130.3700  126.8760   73.9030 N   0  0  0  0  0  0  0  0  0  0  0  0
  130.2540  125.8570   73.0900 C   0  0  0  0  0  0  0  0  0  0  0  0
  129.1210  125.6730   71.7510 S   0  0  0  0  0  0  0  0  0  0  0  0
  129.8840  124.2640   70.8860 C   0  0  0  0  0  0  0  0  0  0  0  0
  129.6430  122.9380   71.6150 C   0  0  0  0  0  0  0  0  0  0  0  0
  130.4720  122.5450   72.4380 O   0  0  0  0  0  0  0  0  0  0  0  0
  128.5240  122.2660   71.2630 N   0  0  0  0  0  0  0  0  0  0  0  0
  128.0970  121.0510   71.7780 C   0  0  0  0  0  0  0  0  0  0  0  0
  128.3900  120.5120   72.9400 N   0  0  0  0  0  0  0  0  0  0  0  0
  127.7790  119.2770   73.1180 N   0  0  0  0  0  0  0  0  0  0  0  0
  127.0410  118.9090   72.0970 C   0  0  0  0  0  0  0  0  0  0  0  0
  126.2790  117.6050   72.0520 C   0  0  0  0  0  0  0  0  0  0  0  0
  127.0370  120.0800   70.8060 S   0  0  0  0  0  0  0  0  0  0  0  0
  131.1520  124.8720   73.3480 O   0  0  0  0  0  0  0  0  0  0  0  0
  134.5766  125.4731   76.1038 H   0  0  0  0  0  0  0  0  0  0  0  0
  135.0528  124.7106   74.5487 H   0  0  0  0  0  0  0  0  0  0  0  0
  134.1673  126.2735   74.5487 H   0  0  0  0  0  0  0  0  0  0  0  0
  133.0730  123.6320   74.4247 H   0  0  0  0  0  0  0  0  0  0  0  0
  132.6586  124.3158   76.0566 H   0  0  0  0  0  0  0  0  0  0  0  0
  129.4562  124.1952   69.8749 H   0  0  0  0  0  0  0  0  0  0  0  0
  130.9697  124.4373   70.8504 H   0  0  0  0  0  0  0  0  0  0  0  0
  127.9350  122.6760   70.5530 H   0  0  0  0  0  0  0  0  0  0  0  0
  126.0785  117.2619   73.0777 H   0  0  0  0  0  0  0  0  0  0  0  0
  125.3264  117.7550   71.5228 H   0  0  0  0  0  0  0  0  0  0  0  0
  126.8773  116.8488   71.5228 H   0  0  0  0  0  0  0  0  0  0  0  0
  1  2  1  0
  2  3  1  0
  3  4  2  0
  4  5  1  0
  5  6  2  0
  6  7  1  0
  7  8  1  0
  8  9  1  0
  9 10  2  0
  9 11  1  0
 11 12  1  0
 12 13  2  0
 13 14  1  0
 14 15  2  0
 15 16  1  0
 15 17  1  0
  6 18  1  0
 18  3  1  0
 17 12  1  0
  1 19  1  0
  1 20  1  0
  1 21  1  0
  2 22  1  0
  2 23  1  0
  8 24  1  0
  8 25  1  0
 11 26  1  0
 16 27  1  0
 16 28  1  0
 16 29  1  0
M  END
>  <Binding energies>  (1) 
[-6.19]

>  <Ligand effiencies>  (1) 
[-0.3257894736842106]

>  <Interactions>  (1) 
["V-A:HIS:456:CD2:4068, V-A:TYR:484:CZ:4347, V-B:GLU:543:C:9874, V-A:TYR:484:CE1:4345, V-A:HIS:456:CE1:4069, H-B:LYS:547:NZ:9923, H-B:GLU:543:O:9875, V-A:TYR:484:CG:4342, V-A:HIS:456:CG:4066, V-A:TYR:484:CD1:4343, V-A:TYR:484:CD2:4344, V-B:GLY:544:CA:9886, V-A:HIS:456:CB:4065, V-B:LYS:547:CE:9922, H-A:LYS:547:NZ:4951, H-B:GLY:544:O:9885, V-A:TYR:484:CB:4341, V-A:VAL:458:CG2:4087, V-A:HIS:456:C:4061"]

$$$$
RR31_Rahimova_2017
     RDKit          3D

 44 45  0  0  0  0  0  0  0  0999 V2000
  129.5440  126.1310   73.2950 C   0  0  0  0  0  0  0  0  0  0  0  0
  129.4120  126.3230   71.7900 C   0  0  0  0  0  0  0  0  0  0  0  0
  129.2350  127.6100   71.2810 C   0  0  0  0  0  0  0  0  0  0  0  0
  129.1150  127.8190   69.9090 C   0  0  0  0  0  0  0  0  0  0  0  0
  129.1750  126.7480   69.0030 C   0  0  0  0  0  0  0  0  0  0  0  0
  129.0460  126.9400   67.6260 N   0  0  0  0  0  0  0  0  0  0  0  0
  129.3960  125.8870   66.6530 C   0  0  0  0  0  0  0  0  0  0  0  0
  129.5830  126.4020   65.2060 C   0  0  0  0  0  0  0  0  0  0  0  0
  128.3900  127.1170   64.7460 N   0  0  0  0  0  0  0  0  0  0  0  0
  128.5240  127.5870   63.3640 C   0  0  0  0  0  0  0  0  0  0  0  0
  127.1880  128.0590   62.7560 C   0  0  0  0  0  0  0  0  0  0  0  0
  127.0740  127.7170   61.2620 C   0  0  0  0  0  0  0  0  0  0  0  0
  125.7530  126.9880   60.9910 N   0  0  0  0  0  0  0  0  0  0  0  0
  128.1940  128.2590   65.6380 C   0  0  0  0  0  0  0  0  0  0  0  0
  127.9610  127.7880   67.0910 C   0  0  0  0  0  0  0  0  0  0  0  0
  129.3440  125.4580   69.5290 C   0  0  0  0  0  0  0  0  0  0  0  0
  129.4650  125.2350   70.9050 C   0  0  0  0  0  0  0  0  0  0  0  0
  129.6430  123.8090   71.4130 C   0  0  0  0  0  0  0  0  0  0  0  0
  128.9952  126.9293   73.8160 H   0  0  0  0  0  0  0  0  0  0  0  0
  129.1260  125.1537   73.5780 H   0  0  0  0  0  0  0  0  0  0  0  0
  130.6062  126.1713   73.5780 H   0  0  0  0  0  0  0  0  0  0  0  0
  129.1898  128.4670   71.9691 H   0  0  0  0  0  0  0  0  0  0  0  0
  128.9707  128.8410   69.5287 H   0  0  0  0  0  0  0  0  0  0  0  0
  130.3361  125.4162   66.9765 H   0  0  0  0  0  0  0  0  0  0  0  0
  128.5528  125.1808   66.6323 H   0  0  0  0  0  0  0  0  0  0  0  0
  130.4455  127.0840   65.1754 H   0  0  0  0  0  0  0  0  0  0  0  0
  129.7513  125.5388   64.5453 H   0  0  0  0  0  0  0  0  0  0  0  0
  129.2333  128.4276   63.3468 H   0  0  0  0  0  0  0  0  0  0  0  0
  128.8784  126.7382   62.7607 H   0  0  0  0  0  0  0  0  0  0  0  0
  126.3623  127.5711   63.2946 H   0  0  0  0  0  0  0  0  0  0  0  0
  127.1411  129.1535   62.8552 H   0  0  0  0  0  0  0  0  0  0  0  0
  127.1057  128.6450   60.6723 H   0  0  0  0  0  0  0  0  0  0  0  0
  127.9121  127.0646   60.9757 H   0  0  0  0  0  0  0  0  0  0  0  0
  124.9730  127.5620   61.2810 H   0  0  0  0  0  0  0  0  0  0  0  0
  125.7240  126.1180   61.5020 H   0  0  0  0  0  0  0  0  0  0  0  0
  125.6600  126.7890   60.0050 H   0  0  0  0  0  0  0  0  0  0  0  0
  129.0879  128.8992   65.6056 H   0  0  0  0  0  0  0  0  0  0  0  0
  127.3086  128.8194   65.3032 H   0  0  0  0  0  0  0  0  0  0  0  0
  127.8675  128.6767   67.7325 H   0  0  0  0  0  0  0  0  0  0  0  0
  127.0485  127.1737   67.0854 H   0  0  0  0  0  0  0  0  0  0  0  0
  129.3823  124.6000   68.8418 H   0  0  0  0  0  0  0  0  0  0  0  0
  129.6430  123.8090   72.5130 H   0  0  0  0  0  0  0  0  0  0  0  0
  128.8160  123.1832   71.0463 H   0  0  0  0  0  0  0  0  0  0  0  0
  130.5985  123.4057   71.0463 H   0  0  0  0  0  0  0  0  0  0  0  0
  1  2  1  0
  2  3  2  0
  3  4  1  0
  4  5  2  0
  5  6  1  0
  6  7  1  0
  7  8  1  0
  8  9  1  0
  9 10  1  0
 10 11  1  0
 11 12  1  0
 12 13  1  0
  9 14  1  0
 14 15  1  0
  5 16  1  0
 16 17  2  0
 17 18  1  0
 17  2  1  0
 15  6  1  0
  1 19  1  0
  1 20  1  0
  1 21  1  0
  3 22  1  0
  4 23  1  0
  7 24  1  0
  7 25  1  0
  8 26  1  0
  8 27  1  0
 10 28  1  0
 10 29  1  0
 11 30  1  0
 11 31  1  0
 12 32  1  0
 12 33  1  0
 13 34  1  0
 13 35  1  0
 13 36  1  0
 14 37  1  0
 14 38  1  0
 15 39  1  0
 15 40  1  0
 16 41  1  0
 18 42  1  0
 18 43  1  0
 18 44  1  0
M  CHG  1  13   1
M  END
>  <Binding energies>  (1) 
[-6.23]

>  <Ligand effiencies>  (1) 
[-0.2966666666666667]

>  <Interactions>  (1) 
["V-A:GLU:543:CD:4908, V-A:HIS:456:CD2:4068, V-B:GLU:543:CD:9880, V-B:GLU:543:CB:9878, V-B:GLU:543:C:9874, V-B:HIS:456:CE1:9040, V-A:HIS:456:CE1:4069, H-B:GLU:543:OE2:9882, V-B:ASP:366:CG:8184, H-B:GLU:543:OE1:9881, H-B:ASP:366:OD1:8185, H-B:ASP:366:OD2:8186"]

$$$$
RR32_Rahimova_2017
     RDKit          3D

 37 39  0  0  0  0  0  0  0  0999 V2000
  127.2060  124.8120   57.4760 C   0  0  0  0  0  0  0  0  0  0  0  0
  127.1560  123.9760   58.7510 C   0  0  0  0  0  0  0  0  0  0  0  0
  128.3350  123.3750   59.1920 C   0  0  0  0  0  0  0  0  0  0  0  0
  128.3290  122.6070   60.3530 C   0  0  0  0  0  0  0  0  0  0  0  0
  129.5010  122.0130   60.7870 N   0  0  0  0  0  0  0  0  0  0  0  0
  129.5650  120.5400   60.7520 C   0  0  0  0  0  0  0  0  0  0  0  0
  130.8360  119.9680   61.4230 C   0  0  0  0  0  0  0  0  0  0  0  0
  132.0330  120.5030   60.7760 N   0  0  0  0  0  0  0  0  0  0  0  0
  133.2320  119.9390   61.3870 C   0  0  0  0  0  0  0  0  0  0  0  0
  132.0200  121.9560   60.9320 C   0  0  0  0  0  0  0  0  0  0  0  0
  130.7660  122.5580   60.2580 C   0  0  0  0  0  0  0  0  0  0  0  0
  127.2070  122.4070   61.0920 N   0  0  0  0  0  0  0  0  0  0  0  0
  126.0400  122.9780   60.6850 C   0  0  0  0  0  0  0  0  0  0  0  0
  124.8860  122.7500   61.4740 C   0  0  0  0  0  0  0  0  0  0  0  0
  123.6660  123.3080   61.1070 C   0  0  0  0  0  0  0  0  0  0  0  0
  123.5660  124.0940   59.9660 C   0  0  0  0  0  0  0  0  0  0  0  0
  124.6810  124.3370   59.1690 C   0  0  0  0  0  0  0  0  0  0  0  0
  125.9510  123.7860   59.5050 C   0  0  0  0  0  0  0  0  0  0  0  0
  127.2698  125.8782   57.7389 H   0  0  0  0  0  0  0  0  0  0  0  0
  128.0887  124.5267   56.8848 H   0  0  0  0  0  0  0  0  0  0  0  0
  126.2956  124.6339   56.8848 H   0  0  0  0  0  0  0  0  0  0  0  0
  129.2674  123.5076   58.6236 H   0  0  0  0  0  0  0  0  0  0  0  0
  128.6837  120.1395   61.2744 H   0  0  0  0  0  0  0  0  0  0  0  0
  129.5910  120.2395   59.6942 H   0  0  0  0  0  0  0  0  0  0  0  0
  130.8423  120.2475   62.4869 H   0  0  0  0  0  0  0  0  0  0  0  0
  130.8329  118.8726   61.3224 H   0  0  0  0  0  0  0  0  0  0  0  0
  133.1403  119.9821   62.4823 H   0  0  0  0  0  0  0  0  0  0  0  0
  133.3475  118.8921   61.0696 H   0  0  0  0  0  0  0  0  0  0  0  0
  134.1121  120.5176   61.0696 H   0  0  0  0  0  0  0  0  0  0  0  0
  132.0111  122.2056   62.0033 H   0  0  0  0  0  0  0  0  0  0  0  0
  132.9181  122.3747   60.4543 H   0  0  0  0  0  0  0  0  0  0  0  0
  130.7716  123.6462   60.4186 H   0  0  0  0  0  0  0  0  0  0  0  0
  130.8124  122.2965   59.1905 H   0  0  0  0  0  0  0  0  0  0  0  0
  124.9549  122.1297   62.3798 H   0  0  0  0  0  0  0  0  0  0  0  0
  122.7741  123.1256   61.7245 H   0  0  0  0  0  0  0  0  0  0  0  0
  122.5945  124.5294   59.6891 H   0  0  0  0  0  0  0  0  0  0  0  0
  124.5803  124.9618   58.2693 H   0  0  0  0  0  0  0  0  0  0  0  0
  1  2  1  0
  2  3  2  0
  3  4  1  0
  4  5  1  0
  5  6  1  0
  6  7  1  0
  7  8  1  0
  8  9  1  0
  8 10  1  0
 10 11  1  0
  4 12  2  0
 12 13  1  0
 13 14  2  0
 14 15  1  0
 15 16  2  0
 16 17  1  0
 17 18  2  0
 18  2  1  0
 11  5  1  0
 18 13  1  0
  1 19  1  0
  1 20  1  0
  1 21  1  0
  3 22  1  0
  6 23  1  0
  6 24  1  0
  7 25  1  0
  7 26  1  0
  9 27  1  0
  9 28  1  0
  9 29  1  0
 10 30  1  0
 10 31  1  0
 11 32  1  0
 11 33  1  0
 14 34  1  0
 15 35  1  0
 16 36  1  0
 17 37  1  0
M  END
>  <Binding energies>  (1) 
[-6.06]

>  <Ligand effiencies>  (1) 
[-0.33666666666666667]

>  <Interactions>  (1) 
["V-B:GLU:543:CD:9880, V-B:TYR:539:CD2:9846, V-A:LEU:475:CD1:4258, H-B:ALA:541:N:9863, V-B:TYR:539:CE2:9848, V-B:GLU:543:CG:9879, V-B:PRO:540:CA:9855, V-B:ALA:541:CB:9864, V-B:PRO:540:CB:9857, V-B:PRO:540:C:9853, V-A:ILE:369:CD1:3239, V-B:ALA:541:CA:9862, V-A:TRP:381:CH2:3372, V-B:ASP:366:CG:8184, V-B:LEU:363:CA:8156, V-B:ASN:362:CB:8147, V-B:ALA:541:C:9860, V-B:ASN:362:C:8143"]

$$$$
RR32_Rahimova_2017-again1
     RDKit          3D

 38 40  0  0  0  0  0  0  0  0999 V2000
  131.9700  124.0280   59.7070 C   0  0  0  0  0  0  0  0  0  0  0  0
  130.7080  123.3090   60.1630 C   0  0  0  0  0  0  0  0  0  0  0  0
  129.5070  124.0060   60.2890 C   0  0  0  0  0  0  0  0  0  0  0  0
  128.3480  123.3420   60.7040 C   0  0  0  0  0  0  0  0  0  0  0  0
  127.1350  124.0240   60.8470 N   0  0  0  0  0  0  0  0  0  0  0  0
  127.0870  125.4940   60.7290 C   0  0  0  0  0  0  0  0  0  0  0  0
  126.9260  125.9680   59.2650 C   0  0  0  0  0  0  0  0  0  0  0  0
  125.6000  125.4120   58.7120 N   0  0  0  0  0  0  0  0  0  0  0  0
  125.3960  125.8400   57.2460 C   0  0  0  0  0  0  0  0  0  0  0  0
  125.6190  123.8750   58.8330 C   0  0  0  0  0  0  0  0  0  0  0  0
  125.8590  123.5000   60.3150 C   0  0  0  0  0  0  0  0  0  0  0  0
  128.3660  122.0180   61.0200 N   0  0  0  0  0  0  0  0  0  0  0  0
  129.5220  121.3100   60.9040 C   0  0  0  0  0  0  0  0  0  0  0  0
  129.5000  119.9320   61.2260 C   0  0  0  0  0  0  0  0  0  0  0  0
  130.6590  119.1690   61.1190 C   0  0  0  0  0  0  0  0  0  0  0  0
  131.8510  119.7500   60.6970 C   0  0  0  0  0  0  0  0  0  0  0  0
  131.9050  121.1040   60.3760 C   0  0  0  0  0  0  0  0  0  0  0  0
  130.7410  121.9150   60.4710 C   0  0  0  0  0  0  0  0  0  0  0  0
  132.5439  124.3550   60.5866 H   0  0  0  0  0  0  0  0  0  0  0  0
  132.5836  123.3439   59.1024 H   0  0  0  0  0  0  0  0  0  0  0  0
  131.6944  124.9047   59.1024 H   0  0  0  0  0  0  0  0  0  0  0  0
  129.4709  125.0816   60.0613 H   0  0  0  0  0  0  0  0  0  0  0  0
  126.2347  125.8670   61.3159 H   0  0  0  0  0  0  0  0  0  0  0  0
  128.0421  125.8899   61.1045 H   0  0  0  0  0  0  0  0  0  0  0  0
  126.9099  127.0674   59.2310 H   0  0  0  0  0  0  0  0  0  0  0  0
  127.7683  125.6053   58.6575 H   0  0  0  0  0  0  0  0  0  0  0  0
  124.8420  125.7690   59.2770 H   0  0  0  0  0  0  0  0  0  0  0  0
  124.9229  126.8326   57.2163 H   0  0  0  0  0  0  0  0  0  0  0  0
  126.3705  125.8829   56.7376 H   0  0  0  0  0  0  0  0  0  0  0  0
  124.7490  125.1100   56.7376 H   0  0  0  0  0  0  0  0  0  0  0  0
  124.6547  123.4649   58.4983 H   0  0  0  0  0  0  0  0  0  0  0  0
  126.4203  123.4582   58.2051 H   0  0  0  0  0  0  0  0  0  0  0  0
  125.0344  123.9088   60.9174 H   0  0  0  0  0  0  0  0  0  0  0  0
  125.9062  122.4025   60.3719 H   0  0  0  0  0  0  0  0  0  0  0  0
  128.5637  119.4625   61.5620 H   0  0  0  0  0  0  0  0  0  0  0  0
  130.6326  118.0983   61.3700 H   0  0  0  0  0  0  0  0  0  0  0  0
  132.7588  119.1341   60.6162 H   0  0  0  0  0  0  0  0  0  0  0  0
  132.8553  121.5494   60.0465 H   0  0  0  0  0  0  0  0  0  0  0  0
  1  2  1  0
  2  3  2  0
  3  4  1  0
  4  5  1  0
  5  6  1  0
  6  7  1  0
  7  8  1  0
  8  9  1  0
  8 10  1  0
 10 11  1  0
  4 12  2  0
 12 13  1  0
 13 14  2  0
 14 15  1  0
 15 16  2  0
 16 17  1  0
 17 18  2  0
 18  2  1  0
 11  5  1  0
 18 13  1  0
  1 19  1  0
  1 20  1  0
  1 21  1  0
  3 22  1  0
  6 23  1  0
  6 24  1  0
  7 25  1  0
  7 26  1  0
  8 27  1  0
  9 28  1  0
  9 29  1  0
  9 30  1  0
 10 31  1  0
 10 32  1  0
 11 33  1  0
 11 34  1  0
 14 35  1  0
 15 36  1  0
 16 37  1  0
 17 38  1  0
M  CHG  1   8   1
M  END
>  <Binding energies>  (1) 
[-6.39]

>  <Ligand effiencies>  (1) 
[-0.3363157894736842]

>  <Interactions>  (1) 
["V-B:GLU:543:CD:9880, V-B:TYR:539:CD2:9846, V-A:LEU:475:CD1:4258, H-B:ALA:541:N:9863, V-B:TYR:539:CE2:9848, V-B:GLU:543:CG:9879, V-B:PRO:540:CA:9855, V-B:ALA:541:CB:9864, V-B:PRO:540:CB:9857, V-A:TRP:381:CZ2:3370, V-B:ALA:541:CA:9862, V-A:PRO:482:CG:4327, V-A:PRO:482:CB:4326, H-B:GLU:543:OE2:9882, V-A:TRP:381:CH2:3372, H-B:ASP:366:OD1:8185"]

$$$$
RR32_Rahimova_2017-again2
     RDKit          3D

 39 41  0  0  0  0  0  0  0  0999 V2000
  128.7020  132.1370   58.2530 C   0  0  0  0  0  0  0  0  0  0  0  0
  129.2450  132.0060   59.6700 C   0  0  0  0  0  0  0  0  0  0  0  0
  128.4130  132.2480   60.7670 C   0  0  0  0  0  0  0  0  0  0  0  0
  128.8960  132.1380   62.0770 C   0  0  0  0  0  0  0  0  0  0  0  0
  128.0760  132.3620   63.2410 N   0  0  0  0  0  0  0  0  0  0  0  0
  126.6130  132.0970   63.2050 C   0  0  0  0  0  0  0  0  0  0  0  0
  126.3180  130.6030   63.5060 C   0  0  0  0  0  0  0  0  0  0  0  0
  126.8720  130.2400   64.9050 N   0  0  0  0  0  0  0  0  0  0  0  0
  126.6480  128.7470   65.2170 C   0  0  0  0  0  0  0  0  0  0  0  0
  128.3720  130.6060   64.9970 C   0  0  0  0  0  0  0  0  0  0  0  0
  128.5580  132.1000   64.6210 C   0  0  0  0  0  0  0  0  0  0  0  0
  130.1860  131.7830   62.2460 N   0  0  0  0  0  0  0  0  0  0  0  0
  131.0770  131.5250   61.2310 C   0  0  0  0  0  0  0  0  0  0  0  0
  132.4120  131.1600   61.5190 C   0  0  0  0  0  0  0  0  0  0  0  0
  133.2850  130.9020   60.4660 C   0  0  0  0  0  0  0  0  0  0  0  0
  132.8540  131.0010   59.1450 C   0  0  0  0  0  0  0  0  0  0  0  0
  131.5400  131.3600   58.8460 C   0  0  0  0  0  0  0  0  0  0  0  0
  130.6090  131.6340   59.8880 C   0  0  0  0  0  0  0  0  0  0  0  0
  127.6334  132.3948   58.2922 H   0  0  0  0  0  0  0  0  0  0  0  0
  129.2509  132.9285   57.7217 H   0  0  0  0  0  0  0  0  0  0  0  0
  128.8296  131.1823   57.7217 H   0  0  0  0  0  0  0  0  0  0  0  0
  127.3629  132.5291   60.5987 H   0  0  0  0  0  0  0  0  0  0  0  0
  126.1141  132.7227   63.9597 H   0  0  0  0  0  0  0  0  0  0  0  0
  126.2350  132.3364   62.2001 H   0  0  0  0  0  0  0  0  0  0  0  0
  125.2315  130.4325   63.4862 H   0  0  0  0  0  0  0  0  0  0  0  0
  126.8017  129.9729   62.7450 H   0  0  0  0  0  0  0  0  0  0  0  0
  126.3760  130.7980   65.5880 H   0  0  0  0  0  0  0  0  0  0  0  0
  126.6259  128.5995   66.3068 H   0  0  0  0  0  0  0  0  0  0  0  0
  125.6909  128.4214   64.7834 H   0  0  0  0  0  0  0  0  0  0  0  0
  127.4674  128.1548   64.7834 H   0  0  0  0  0  0  0  0  0  0  0  0
  128.7291  130.4380   66.0238 H   0  0  0  0  0  0  0  0  0  0  0  0
  128.9487  129.9764   64.3035 H   0  0  0  0  0  0  0  0  0  0  0  0
  127.9879  132.7227   65.3261 H   0  0  0  0  0  0  0  0  0  0  0  0
  129.6291  132.3450   64.6721 H   0  0  0  0  0  0  0  0  0  0  0  0
  130.5210  131.6950   63.1940 H   0  0  0  0  0  0  0  0  0  0  0  0
  132.7561  131.0810   62.5608 H   0  0  0  0  0  0  0  0  0  0  0  0
  134.3258  130.6170   60.6791 H   0  0  0  0  0  0  0  0  0  0  0  0
  133.5594  130.7933   58.3269 H   0  0  0  0  0  0  0  0  0  0  0  0
  131.2200  131.4321   57.7961 H   0  0  0  0  0  0  0  0  0  0  0  0
  1  2  1  0
  2  3  2  0
  3  4  1  0
  4  5  1  0
  5  6  1  0
  6  7  1  0
  7  8  1  0
  8  9  1  0
  8 10  1  0
 10 11  1  0
  4 12  2  0
 12 13  1  0
 13 14  2  0
 14 15  1  0
 15 16  2  0
 16 17  1  0
 17 18  2  0
 18  2  1  0
 11  5  1  0
 18 13  1  0
  1 19  1  0
  1 20  1  0
  1 21  1  0
  3 22  1  0
  6 23  1  0
  6 24  1  0
  7 25  1  0
  7 26  1  0
  8 27  1  0
  9 28  1  0
  9 29  1  0
  9 30  1  0
 10 31  1  0
 10 32  1  0
 11 33  1  0
 11 34  1  0
 12 35  1  0
 14 36  1  0
 15 37  1  0
 16 38  1  0
 17 39  1  0
M  CHG  2   8   1  12   1
M  END
>  <Binding energies>  (1) 
[-6.95]

>  <Ligand effiencies>  (1) 
[-0.34750000000000003]

>  <Interactions>  (1) 
["V-A:GLU:543:CD:4908, V-B:GLU:543:CD:9880, V-A:ASP:366:CG:3213, H-B:TYR:484:OH:9319, V-A:ALA:541:CB:4892, V-A:PRO:540:C:4881, V-A:PRO:540:CA:4883, V-A:TYR:539:CD2:4874, V-A:TYR:539:CZ:4877, V-A:TYR:539:CE2:4876, V-A:GLU:543:CB:4906, V-A:PRO:540:CB:4885, V-A:TYR:539:C:4867, V-A:GLU:543:CG:4907, V-B:TYR:484:CE1:9316, V-B:LEU:475:CD1:9229, H-A:GLU:543:OE1:4909, V-A:ALA:541:CA:4890, V-A:PRO:540:N:4884, V-A:ASN:362:CB:3176, V-A:ASN:362:C:3172"]

$$$$
RR33_Rahimova_2017
     RDKit          3D

 36 37  0  0  0  0  0  0  0  0999 V2000
  125.9480  126.8650   74.1670 C   0  0  0  0  0  0  0  0  0  0  0  0
  127.4670  127.0370   74.0750 C   0  0  0  0  0  0  0  0  0  0  0  0
  128.0280  125.8590   73.5020 O   0  0  0  0  0  0  0  0  0  0  0  0
  128.3430  125.8440   72.1570 C   0  0  0  0  0  0  0  0  0  0  0  0
  127.7110  126.7970   71.3600 C   0  0  0  0  0  0  0  0  0  0  0  0
  127.9640  126.8560   69.9920 C   0  0  0  0  0  0  0  0  0  0  0  0
  128.8560  125.9580   69.3990 C   0  0  0  0  0  0  0  0  0  0  0  0
  129.1260  126.0210   67.9300 C   0  0  0  0  0  0  0  0  0  0  0  0
  129.7930  125.1570   67.1980 N   0  0  0  0  0  0  0  0  0  0  0  0
  129.7600  125.6430   65.9670 C   0  0  0  0  0  0  0  0  0  0  0  0
  130.4230  124.9060   64.8230 C   0  0  0  0  0  0  0  0  0  0  0  0
  130.8310  123.5720   65.2380 N   0  0  0  0  0  0  0  0  0  0  0  0
  129.8220  122.5910   64.8760 C   0  0  0  0  0  0  0  0  0  0  0  0
  129.0520  126.8380   65.9550 C   0  0  0  0  0  0  0  0  0  0  0  0
  128.6660  127.8460   64.9010 C   0  0  0  0  0  0  0  0  0  0  0  0
  128.6460  127.0780   67.2230 O   0  0  0  0  0  0  0  0  0  0  0  0
  129.4950  125.0030   70.1960 C   0  0  0  0  0  0  0  0  0  0  0  0
  129.2420  124.9430   71.5640 C   0  0  0  0  0  0  0  0  0  0  0  0
  125.6462  126.8308   75.2242 H   0  0  0  0  0  0  0  0  0  0  0  0
  125.4523  127.7128   73.6714 H   0  0  0  0  0  0  0  0  0  0  0  0
  125.6544  125.9279   73.6714 H   0  0  0  0  0  0  0  0  0  0  0  0
  127.7032  127.9049   73.4418 H   0  0  0  0  0  0  0  0  0  0  0  0
  127.8863  127.2010   75.0786 H   0  0  0  0  0  0  0  0  0  0  0  0
  127.0065  127.5084   71.8155 H   0  0  0  0  0  0  0  0  0  0  0  0
  127.4591  127.6135   69.3746 H   0  0  0  0  0  0  0  0  0  0  0  0
  129.7127  124.8227   63.9872 H   0  0  0  0  0  0  0  0  0  0  0  0
  131.3157  125.4677   64.5107 H   0  0  0  0  0  0  0  0  0  0  0  0
  130.9550  123.5600   66.2410 H   0  0  0  0  0  0  0  0  0  0  0  0
  129.3822  122.1634   65.7890 H   0  0  0  0  0  0  0  0  0  0  0  0
  129.0339  123.0775   64.2825 H   0  0  0  0  0  0  0  0  0  0  0  0
  130.2861  121.7896   64.2825 H   0  0  0  0  0  0  0  0  0  0  0  0
  128.3131  128.7676   65.3868 H   0  0  0  0  0  0  0  0  0  0  0  0
  129.5405  128.0739   64.2738 H   0  0  0  0  0  0  0  0  0  0  0  0
  127.8630  127.4315   64.2738 H   0  0  0  0  0  0  0  0  0  0  0  0
  130.2020  124.2947   69.7394 H   0  0  0  0  0  0  0  0  0  0  0  0
  129.7482  124.1871   72.1823 H   0  0  0  0  0  0  0  0  0  0  0  0
  1  2  1  0
  2  3  1  0
  3  4  1  0
  4  5  2  0
  5  6  1  0
  6  7  2  0
  7  8  1  0
  8  9  2  0
  9 10  1  0
 10 11  1  0
 11 12  1  0
 12 13  1  0
 10 14  2  0
 14 15  1  0
 14 16  1  0
  7 17  1  0
 17 18  2  0
 18  4  1  0
 16  8  1  0
  1 19  1  0
  1 20  1  0
  1 21  1  0
  2 22  1  0
  2 23  1  0
  5 24  1  0
  6 25  1  0
 11 26  1  0
 11 27  1  0
 12 28  1  0
 13 29  1  0
 13 30  1  0
 13 31  1  0
 15 32  1  0
 15 33  1  0
 15 34  1  0
 17 35  1  0
 18 36  1  0
M  END
>  <Binding energies>  (1) 
[-5.24]

>  <Ligand effiencies>  (1) 
[-0.27578947368421053]

>  <Interactions>  (1) 
["V-B:GLU:543:CA:9876, V-A:GLU:543:CD:4908, V-A:HIS:456:CD2:4068, V-B:GLU:543:CB:9878, H-A:TYR:484:OH:4348, V-A:TYR:484:CE1:4345, V-B:HIS:456:CE1:9040, V-A:HIS:456:CE1:4069, V-B:GLU:543:CG:9879, V-B:GLY:544:C:9884, V-B:ALA:541:CB:9864, H-B:LYS:547:NZ:9923, V-B:LYS:547:CD:9921"]

$$$$
RR33_Rahimova_2017-again1
     RDKit          3D

 37 38  0  0  0  0  0  0  0  0999 V2000
  125.9450  126.8220   74.2160 C   0  0  0  0  0  0  0  0  0  0  0  0
  127.4600  126.9970   74.0740 C   0  0  0  0  0  0  0  0  0  0  0  0
  128.0020  125.8290   73.4640 O   0  0  0  0  0  0  0  0  0  0  0  0
  128.3140  125.8500   72.1170 C   0  0  0  0  0  0  0  0  0  0  0  0
  127.6360  126.7850   71.3350 C   0  0  0  0  0  0  0  0  0  0  0  0
  127.8840  126.8810   69.9690 C   0  0  0  0  0  0  0  0  0  0  0  0
  128.8200  126.0370   69.3620 C   0  0  0  0  0  0  0  0  0  0  0  0
  129.0900  126.1370   67.8950 C   0  0  0  0  0  0  0  0  0  0  0  0
  128.5130  126.9380   67.0260 N   0  0  0  0  0  0  0  0  0  0  0  0
  129.0830  126.6640   65.8620 C   0  0  0  0  0  0  0  0  0  0  0  0
  128.6680  127.3870   64.5950 C   0  0  0  0  0  0  0  0  0  0  0  0
  127.2740  128.0030   64.8010 N   0  0  0  0  0  0  0  0  0  0  0  0
  127.2890  129.5340   64.9070 C   0  0  0  0  0  0  0  0  0  0  0  0
  130.0280  125.6590   66.0330 C   0  0  0  0  0  0  0  0  0  0  0  0
  130.9830  124.9160   65.1320 C   0  0  0  0  0  0  0  0  0  0  0  0
  130.0290  125.3260   67.3460 O   0  0  0  0  0  0  0  0  0  0  0  0
  129.5020  125.0980   70.1430 C   0  0  0  0  0  0  0  0  0  0  0  0
  129.2530  125.0040   71.5090 C   0  0  0  0  0  0  0  0  0  0  0  0
  125.6778  126.7911   75.2826 H   0  0  0  0  0  0  0  0  0  0  0  0
  125.4315  127.6668   73.7337 H   0  0  0  0  0  0  0  0  0  0  0  0
  125.6376  125.8824   73.7337 H   0  0  0  0  0  0  0  0  0  0  0  0
  127.6735  127.8748   73.4464 H   0  0  0  0  0  0  0  0  0  0  0  0
  127.9135  127.1458   75.0650 H   0  0  0  0  0  0  0  0  0  0  0  0
  126.8979  127.4532   71.8027 H   0  0  0  0  0  0  0  0  0  0  0  0
  127.3421  127.6232   69.3644 H   0  0  0  0  0  0  0  0  0  0  0  0
  129.3931  128.1832   64.3709 H   0  0  0  0  0  0  0  0  0  0  0  0
  128.6390  126.6768   63.7555 H   0  0  0  0  0  0  0  0  0  0  0  0
  126.6810  127.7330   64.0300 H   0  0  0  0  0  0  0  0  0  0  0  0
  126.8760  127.6210   65.6480 H   0  0  0  0  0  0  0  0  0  0  0  0
  127.2919  129.8281   65.9669 H   0  0  0  0  0  0  0  0  0  0  0  0
  128.1910  129.9268   64.4150 H   0  0  0  0  0  0  0  0  0  0  0  0
  126.3948  129.9444   64.4150 H   0  0  0  0  0  0  0  0  0  0  0  0
  131.7040  124.3551   65.7448 H   0  0  0  0  0  0  0  0  0  0  0  0
  130.4192  124.2167   64.4971 H   0  0  0  0  0  0  0  0  0  0  0  0
  131.5222  125.6345   64.4971 H   0  0  0  0  0  0  0  0  0  0  0  0
  130.2396  124.4298   69.6746 H   0  0  0  0  0  0  0  0  0  0  0  0
  129.7951  124.2628   72.1146 H   0  0  0  0  0  0  0  0  0  0  0  0
  1  2  1  0
  2  3  1  0
  3  4  1  0
  4  5  2  0
  5  6  1  0
  6  7  2  0
  7  8  1  0
  8  9  2  0
  9 10  1  0
 10 11  1  0
 11 12  1  0
 12 13  1  0
 10 14  2  0
 14 15  1  0
 14 16  1  0
  7 17  1  0
 17 18  2  0
 18  4  1  0
 16  8  1  0
  1 19  1  0
  1 20  1  0
  1 21  1  0
  2 22  1  0
  2 23  1  0
  5 24  1  0
  6 25  1  0
 11 26  1  0
 11 27  1  0
 12 28  1  0
 12 29  1  0
 13 30  1  0
 13 31  1  0
 13 32  1  0
 15 33  1  0
 15 34  1  0
 15 35  1  0
 17 36  1  0
 18 37  1  0
M  CHG  1  12   1
M  END
>  <Binding energies>  (1) 
[-6.2]

>  <Ligand effiencies>  (1) 
[-0.31]

>  <Interactions>  (1) 
["H-A:HIS:456:NE2:4070, V-A:GLU:543:CD:4908, V-A:HIS:456:CD2:4068, V-B:GLU:543:CD:9880, H-A:TYR:484:OH:4348, V-B:HIS:456:CE1:9040, V-A:HIS:456:CE1:4069, V-B:GLY:544:C:9884, H-B:LYS:547:NZ:9923, H-B:GLU:543:OE2:9882, H-B:GLU:543:OE1:9881, V-B:LYS:547:CD:9921"]

$$$$
RR3_Rahimova_2017
     RDKit          3D

 63 69  0  0  0  0  0  0  0  0999 V2000
  124.2270  132.2030   62.1890 C   0  0  0  0  0  0  0  0  0  0  0  0
  123.5940  131.0430   62.6240 C   0  0  0  0  0  0  0  0  0  0  0  0
  124.2410  130.2010   63.5240 C   0  0  0  0  0  0  0  0  0  0  0  0
  125.5250  130.5050   64.0000 C   0  0  0  0  0  0  0  0  0  0  0  0
  126.2180  129.5980   64.9690 C   0  0  0  0  0  0  0  0  0  0  0  0
  125.4990  128.9190   65.9610 C   0  0  0  0  0  0  0  0  0  0  0  0
  126.1450  128.0790   66.8640 C   0  0  0  0  0  0  0  0  0  0  0  0
  127.5300  127.9050   66.7990 C   0  0  0  0  0  0  0  0  0  0  0  0
  128.2310  127.0070   67.7700 C   0  0  0  0  0  0  0  0  0  0  0  0
  128.2910  127.3360   69.0550 N   0  0  0  0  0  0  0  0  0  0  0  0
  128.9160  126.3570   69.6640 C   0  0  0  0  0  0  0  0  0  0  0  0
  129.2040  126.3030   71.0950 C   0  0  0  0  0  0  0  0  0  0  0  0
  128.8360  127.2540   72.0320 C   0  0  0  0  0  0  0  0  0  0  0  0
  129.2620  126.8790   73.2790 N   0  0  0  0  0  0  0  0  0  0  0  0
  129.9240  125.6730   73.2050 C   0  0  0  0  0  0  0  0  0  0  0  0
  130.5290  124.9010   74.2030 C   0  0  0  0  0  0  0  0  0  0  0  0
  131.1290  123.7080   73.8030 C   0  0  0  0  0  0  0  0  0  0  0  0
  131.1310  123.2970   72.4740 C   0  0  0  0  0  0  0  0  0  0  0  0
  130.5270  124.0650   71.4800 C   0  0  0  0  0  0  0  0  0  0  0  0
  129.9080  125.2790   71.8300 C   0  0  0  0  0  0  0  0  0  0  0  0
  129.2760  125.3810   68.7770 N   0  0  0  0  0  0  0  0  0  0  0  0
  128.8690  125.7780   67.5300 C   0  0  0  0  0  0  0  0  0  0  0  0
  129.1460  124.9840   66.2950 C   0  0  0  0  0  0  0  0  0  0  0  0
  129.0870  125.5950   65.0420 C   0  0  0  0  0  0  0  0  0  0  0  0
  129.3320  124.8560   63.8890 C   0  0  0  0  0  0  0  0  0  0  0  0
  129.6460  123.4910   63.9610 C   0  0  0  0  0  0  0  0  0  0  0  0
  129.8900  122.6960   62.7180 C   0  0  0  0  0  0  0  0  0  0  0  0
  128.9140  122.6130   61.7130 C   0  0  0  0  0  0  0  0  0  0  0  0
  129.1430  121.8750   60.5540 C   0  0  0  0  0  0  0  0  0  0  0  0
  130.3540  121.2120   60.3860 C   0  0  0  0  0  0  0  0  0  0  0  0
  131.3370  121.2820   61.3680 C   0  0  0  0  0  0  0  0  0  0  0  0
  131.1040  122.0180   62.5260 C   0  0  0  0  0  0  0  0  0  0  0  0
  129.7200  122.8940   65.2270 C   0  0  0  0  0  0  0  0  0  0  0  0
  129.4750  123.6300   66.3820 C   0  0  0  0  0  0  0  0  0  0  0  0
  128.2530  128.5670   65.8050 C   0  0  0  0  0  0  0  0  0  0  0  0
  127.6050  129.4070   64.9040 C   0  0  0  0  0  0  0  0  0  0  0  0
  126.1440  131.6790   63.5460 C   0  0  0  0  0  0  0  0  0  0  0  0
  125.5010  132.5240   62.6470 C   0  0  0  0  0  0  0  0  0  0  0  0
  123.7172  132.8704   61.4787 H   0  0  0  0  0  0  0  0  0  0  0  0
  122.5872  130.7925   62.2585 H   0  0  0  0  0  0  0  0  0  0  0  0
  123.7384  129.2845   63.8667 H   0  0  0  0  0  0  0  0  0  0  0  0
  124.4090  129.0513   66.0275 H   0  0  0  0  0  0  0  0  0  0  0  0
  125.5623  127.5497   67.6324 H   0  0  0  0  0  0  0  0  0  0  0  0
  128.2817  128.1772   71.8075 H   0  0  0  0  0  0  0  0  0  0  0  0
  129.0900  127.4380   74.1020 H   0  0  0  0  0  0  0  0  0  0  0  0
  130.5310  125.2210   75.2554 H   0  0  0  0  0  0  0  0  0  0  0  0
  131.6145  123.0739   74.5594 H   0  0  0  0  0  0  0  0  0  0  0  0
  131.6181  122.3488   72.2027 H   0  0  0  0  0  0  0  0  0  0  0  0
  130.5342  123.7258   70.4336 H   0  0  0  0  0  0  0  0  0  0  0  0
  129.7790  124.5330   68.9970 H   0  0  0  0  0  0  0  0  0  0  0  0
  128.8458  126.6655   64.9655 H   0  0  0  0  0  0  0  0  0  0  0  0
  129.2787  125.3492   62.9072 H   0  0  0  0  0  0  0  0  0  0  0  0
  127.9558  123.1375   61.8422 H   0  0  0  0  0  0  0  0  0  0  0  0
  128.3690  121.8168   59.7746 H   0  0  0  0  0  0  0  0  0  0  0  0
  130.5357  120.6288   59.4712 H   0  0  0  0  0  0  0  0  0  0  0  0
  132.2942  120.7579   61.2298 H   0  0  0  0  0  0  0  0  0  0  0  0
  131.8822  122.0691   63.3018 H   0  0  0  0  0  0  0  0  0  0  0  0
  129.9757  121.8272   65.3086 H   0  0  0  0  0  0  0  0  0  0  0  0
  129.5407  123.1437   67.3665 H   0  0  0  0  0  0  0  0  0  0  0  0
  129.3413  128.4239   65.7334 H   0  0  0  0  0  0  0  0  0  0  0  0
  128.1890  129.9277   64.1309 H   0  0  0  0  0  0  0  0  0  0  0  0
  127.1515  131.9351   63.9056 H   0  0  0  0  0  0  0  0  0  0  0  0
  125.9977  133.4420   62.2998 H   0  0  0  0  0  0  0  0  0  0  0  0
  1  2  2  0
  2  3  1  0
  3  4  2  0
  4  5  1  0
  5  6  2  0
  6  7  1  0
  7  8  2  0
  8  9  1  0
  9 10  1  0
 10 11  2  0
 11 12  1  0
 12 13  2  0
 13 14  1  0
 14 15  1  0
 15 16  2  0
 16 17  1  0
 17 18  2  0
 18 19  1  0
 19 20  2  0
 11 21  1  0
 21 22  1  0
 22 23  1  0
 23 24  2  0
 24 25  1  0
 25 26  2  0
 26 27  1  0
 27 28  2  0
 28 29  1  0
 29 30  2  0
 30 31  1  0
 31 32  2  0
 26 33  1  0
 33 34  2  0
  8 35  1  0
 35 36  2  0
  4 37  1  0
 37 38  2  0
 38  1  1  0
 36  5  1  0
 22  9  2  0
 34 23  1  0
 20 12  1  0
 32 27  1  0
 20 15  1  0
  1 39  1  0
  2 40  1  0
  3 41  1  0
  6 42  1  0
  7 43  1  0
 13 44  1  0
 14 45  1  0
 16 46  1  0
 17 47  1  0
 18 48  1  0
 19 49  1  0
 21 50  1  0
 24 51  1  0
 25 52  1  0
 28 53  1  0
 29 54  1  0
 30 55  1  0
 31 56  1  0
 32 57  1  0
 33 58  1  0
 34 59  1  0
 35 60  1  0
 36 61  1  0
 37 62  1  0
 38 63  1  0
M  END
>  <Binding energies>  (1) 
[-10.29]

>  <Ligand effiencies>  (1) 
[-0.25725]

>  <Interactions>  (1) 
["V-B:GLU:543:CA:9876, V-A:GLU:543:CD:4908, V-A:HIS:456:CD2:4068, V-B:GLU:543:CD:9880, V-B:TYR:539:CD2:9846, V-A:LEU:475:CD1:4258, V-B:GLU:543:CB:9878, H-B:HIS:456:NE2:9041, H-A:TYR:484:OH:4348, V-A:TYR:484:CZ:4347, V-B:GLU:543:C:9874, V-A:TYR:484:CE1:4345, V-B:HIS:456:CE1:9040, V-B:TYR:539:CE2:9848, V-A:HIS:456:CE1:4069, V-B:GLU:543:CG:9879, V-B:ARG:545:CD:9895, V-B:ARG:545:CZ:9898, V-B:ARG:545:CG:9894, V-A:GLU:543:CB:4906, V-B:ALA:541:CB:9864, V-B:ILE:369:CD1:8210, V-B:LEU:475:CD1:9229, V-B:GLY:454:CA:9020, H-B:GLU:543:O:9875, V-A:TYR:484:CE2:4346, V-A:HIS:456:CG:4066, V-A:TYR:484:CD2:4344, V-A:HIS:456:CB:4065"]

$$$$
RR4_Rahimova_2017
     RDKit          3D

 66 70  0  0  0  0  0  0  0  0999 V2000
  127.6140  126.7290   74.3050 C   0  0  0  0  0  0  0  0  0  0  0  0
  128.3050  125.7860   73.4930 O   0  0  0  0  0  0  0  0  0  0  0  0
  128.4040  126.0120   72.1330 C   0  0  0  0  0  0  0  0  0  0  0  0
  129.3130  125.2220   71.4330 C   0  0  0  0  0  0  0  0  0  0  0  0
  129.4780  125.3780   70.0600 C   0  0  0  0  0  0  0  0  0  0  0  0
  128.7400  126.3330   69.3460 C   0  0  0  0  0  0  0  0  0  0  0  0
  128.9220  126.5000   67.8640 C   0  0  0  0  0  0  0  0  0  0  0  0
  129.8200  125.7280   67.1190 C   0  0  0  0  0  0  0  0  0  0  0  0
  129.9500  125.9190   65.7380 C   0  0  0  0  0  0  0  0  0  0  0  0
  130.9080  125.0380   65.0040 C   0  0  0  0  0  0  0  0  0  0  0  0
  132.2660  125.3680   64.9500 C   0  0  0  0  0  0  0  0  0  0  0  0
  133.1670  124.5460   64.2790 C   0  0  0  0  0  0  0  0  0  0  0  0
  132.7310  123.3780   63.6540 C   0  0  0  0  0  0  0  0  0  0  0  0
  133.6960  122.6250   63.0130 O   0  0  0  0  0  0  0  0  0  0  0  0
  134.3650  123.1720   61.8810 C   0  0  0  0  0  0  0  0  0  0  0  0
  131.3710  123.0400   63.7100 C   0  0  0  0  0  0  0  0  0  0  0  0
  130.4710  123.8630   64.3830 C   0  0  0  0  0  0  0  0  0  0  0  0
  129.1740  126.9300   65.1200 C   0  0  0  0  0  0  0  0  0  0  0  0
  129.2710  127.1710   63.6770 C   0  0  0  0  0  0  0  0  0  0  0  0
  129.3480  127.3610   62.5380 N   0  0  0  0  0  0  0  0  0  0  0  0
  128.3090  127.6930   65.9380 C   0  0  0  0  0  0  0  0  0  0  0  0
  127.2720  129.0080   65.3360 S   0  0  0  0  0  0  0  0  0  0  0  0
  128.3560  130.2880   64.6200 C   0  0  0  0  0  0  0  0  0  0  0  0
  128.2150  130.4670   63.1020 C   0  0  0  0  0  0  0  0  0  0  0  0
  127.1930  130.0970   62.5200 O   0  0  0  0  0  0  0  0  0  0  0  0
  129.2860  131.0320   62.4960 N   0  0  0  0  0  0  0  0  0  0  0  0
  129.4620  131.3270   61.1420 C   0  0  0  0  0  0  0  0  0  0  0  0
  128.1570  131.8360   60.1040 S   0  0  0  0  0  0  0  0  0  0  0  0
  129.2180  131.9530   58.7340 C   0  0  0  0  0  0  0  0  0  0  0  0
  130.5350  131.6050   59.0700 C   0  0  0  0  0  0  0  0  0  0  0  0
  130.6750  131.2660   60.4380 C   0  0  0  0  0  0  0  0  0  0  0  0
  131.9460  130.8860   61.0470 C   0  0  0  0  0  0  0  0  0  0  0  0
  132.9540  130.5840   61.5290 N   0  0  0  0  0  0  0  0  0  0  0  0
  131.6690  131.6660   58.0400 C   0  0  0  0  0  0  0  0  0  0  0  0
  131.2460  132.5020   56.8120 C   0  0  0  0  0  0  0  0  0  0  0  0
  129.8360  132.1330   56.3160 C   0  0  0  0  0  0  0  0  0  0  0  0
  128.7520  132.4450   57.3700 C   0  0  0  0  0  0  0  0  0  0  0  0
  128.1790  127.4660   67.2660 N   0  0  0  0  0  0  0  0  0  0  0  0
  127.8240  127.1210   70.0600 C   0  0  0  0  0  0  0  0  0  0  0  0
  127.6560  126.9680   71.4330 C   0  0  0  0  0  0  0  0  0  0  0  0
  127.7857  126.4947   75.3660 H   0  0  0  0  0  0  0  0  0  0  0  0
  127.9856  127.7414   74.0883 H   0  0  0  0  0  0  0  0  0  0  0  0
  126.5367  126.6797   74.0883 H   0  0  0  0  0  0  0  0  0  0  0  0
  129.9061  124.4676   71.9707 H   0  0  0  0  0  0  0  0  0  0  0  0
  130.1992  124.7417   69.5261 H   0  0  0  0  0  0  0  0  0  0  0  0
  130.4297  124.9637   67.6230 H   0  0  0  0  0  0  0  0  0  0  0  0
  132.6249  126.2843   65.4416 H   0  0  0  0  0  0  0  0  0  0  0  0
  134.2317  124.8200   64.2414 H   0  0  0  0  0  0  0  0  0  0  0  0
  135.1754  123.8346   62.2189 H   0  0  0  0  0  0  0  0  0  0  0  0
  134.7867  122.3566   61.2749 H   0  0  0  0  0  0  0  0  0  0  0  0
  133.6496  123.7472   61.2749 H   0  0  0  0  0  0  0  0  0  0  0  0
  131.0138  122.1218   63.2208 H   0  0  0  0  0  0  0  0  0  0  0  0
  129.4072  123.5866   64.4266 H   0  0  0  0  0  0  0  0  0  0  0  0
  128.1190  131.2478   65.1024 H   0  0  0  0  0  0  0  0  0  0  0  0
  129.3898  129.9586   64.8009 H   0  0  0  0  0  0  0  0  0  0  0  0
  130.0590  131.2890   63.0920 H   0  0  0  0  0  0  0  0  0  0  0  0
  132.5536  132.1271   58.5036 H   0  0  0  0  0  0  0  0  0  0  0  0
  131.9016  130.6432   57.7087 H   0  0  0  0  0  0  0  0  0  0  0  0
  131.2574  133.5669   57.0873 H   0  0  0  0  0  0  0  0  0  0  0  0
  131.9562  132.2915   55.9988 H   0  0  0  0  0  0  0  0  0  0  0  0
  129.6192  132.7070   55.4030 H   0  0  0  0  0  0  0  0  0  0  0  0
  129.8174  131.0508   56.1196 H   0  0  0  0  0  0  0  0  0  0  0  0
  128.5806  133.5308   57.4102 H   0  0  0  0  0  0  0  0  0  0  0  0
  127.8154  131.9373   57.0960 H   0  0  0  0  0  0  0  0  0  0  0  0
  127.2274  127.8740   69.5241 H   0  0  0  0  0  0  0  0  0  0  0  0
  126.9335  127.5997   71.9706 H   0  0  0  0  0  0  0  0  0  0  0  0
  1  2  1  0
  2  3  1  0
  3  4  2  0
  4  5  1  0
  5  6  2  0
  6  7  1  0
  7  8  2  0
  8  9  1  0
  9 10  1  0
 10 11  2  0
 11 12  1  0
 12 13  2  0
 13 14  1  0
 14 15  1  0
 13 16  1  0
 16 17  2  0
  9 18  2  0
 18 19  1  0
 19 20  3  0
 18 21  1  0
 21 22  1  0
 22 23  1  0
 23 24  1  0
 24 25  2  0
 24 26  1  0
 26 27  1  0
 27 28  1  0
 28 29  1  0
 29 30  2  0
 30 31  1  0
 31 32  1  0
 32 33  3  0
 30 34  1  0
 34 35  1  0
 35 36  1  0
 36 37  1  0
 21 38  2  0
  6 39  1  0
 39 40  2  0
 40  3  1  0
 38  7  1  0
 17 10  1  0
 31 27  2  0
 37 29  1  0
  1 41  1  0
  1 42  1  0
  1 43  1  0
  4 44  1  0
  5 45  1  0
  8 46  1  0
 11 47  1  0
 12 48  1  0
 15 49  1  0
 15 50  1  0
 15 51  1  0
 16 52  1  0
 17 53  1  0
 23 54  1  0
 23 55  1  0
 26 56  1  0
 34 57  1  0
 34 58  1  0
 35 59  1  0
 35 60  1  0
 36 61  1  0
 36 62  1  0
 37 63  1  0
 37 64  1  0
 39 65  1  0
 40 66  1  0
M  END
>  <Binding energies>  (1) 
[-10.82]

>  <Ligand effiencies>  (1) 
[-0.26390243902439026]

>  <Interactions>  (1) 
["V-A:GLU:543:CD:4908, V-A:HIS:456:CD2:4068, V-A:LEU:475:CD1:4258, V-B:HIS:456:CE1:9040, V-A:HIS:456:CE1:4069, V-A:PRO:540:CA:4883, V-A:TYR:539:CD2:4874, V-A:TYR:539:CZ:4877, V-A:TYR:539:CE2:4876, V-A:GLU:543:CB:4906, V-A:PRO:540:CB:4885, V-A:TYR:539:C:4867, V-A:ARG:545:CZ:4926, V-B:GLY:544:C:9884, H-B:LYS:547:NZ:9923, V-A:ILE:369:CD1:3239, V-A:GLY:454:CA:4049, V-A:GLY:453:C:4042, H-A:GLY:454:N:4050, H-A:ARG:545:NH2:4928, H-A:GLU:543:OE1:4909, V-A:PRO:540:N:4884, V-B:LYS:547:CD:9921, V-A:PRO:540:CD:4887, V-A:TYR:539:CE1:4875, V-A:TYR:539:CD1:4873, V-A:TYR:539:CG:4872"]

$$$$
RR5_Rahimova_2017
     RDKit          3D

 77 82  0  0  0  0  0  0  0  0999 V2000
  132.1590  126.1410   60.8800 O   0  0  0  0  0  0  0  0  0  0  0  0
  131.5250  125.4990   61.7170 C   0  0  0  0  0  0  0  0  0  0  0  0
  131.4890  125.9790   63.1800 C   0  0  0  0  0  0  0  0  0  0  0  0
  131.9760  124.9050   64.2170 C   0  0  2  0  0  0  0  0  0  0  0  0
  131.0480  124.6560   65.3390 N   0  0  0  0  0  0  0  0  0  0  0  0
  129.8790  123.9270   65.1680 C   0  0  0  0  0  0  0  0  0  0  0  0
  129.4990  123.3770   64.1310 O   0  0  0  0  0  0  0  0  0  0  0  0
  129.2060  123.9260   66.3310 O   0  0  0  0  0  0  0  0  0  0  0  0
  129.6990  124.6180   67.4750 C   0  0  0  0  0  0  0  0  0  0  0  0
  128.6490  125.6180   68.0070 C   0  0  0  0  0  0  0  0  0  0  0  0
  128.9740  126.1660   69.3850 C   0  0  0  0  0  0  0  0  0  0  0  0
  129.1800  125.4850   70.5880 C   0  0  0  0  0  0  0  0  0  0  0  0
  129.4940  126.1990   71.7460 C   0  0  0  0  0  0  0  0  0  0  0  0
  129.6010  127.5900   71.7050 C   0  0  0  0  0  0  0  0  0  0  0  0
  129.3930  128.2730   70.5060 C   0  0  0  0  0  0  0  0  0  0  0  0
  129.0790  127.5570   69.3490 C   0  0  0  0  0  0  0  0  0  0  0  0
  128.8050  128.0090   67.9760 C   0  0  0  0  0  0  0  0  0  0  0  0
  128.7690  129.2900   67.4190 C   0  0  0  0  0  0  0  0  0  0  0  0
  128.4560  129.4470   66.0680 C   0  0  0  0  0  0  0  0  0  0  0  0
  128.1820  128.3280   65.2780 C   0  0  0  0  0  0  0  0  0  0  0  0
  128.2220  127.0510   65.8370 C   0  0  0  0  0  0  0  0  0  0  0  0
  128.5380  126.8890   67.1880 C   0  0  0  0  0  0  0  0  0  0  0  0
  133.3760  125.2690   64.7690 C   0  0  0  0  0  0  0  0  0  0  0  0
  134.4280  124.9900   64.2280 O   0  0  0  0  0  0  0  0  0  0  0  0
  133.2430  125.9620   65.9380 O   0  0  0  0  0  0  0  0  0  0  0  0
  130.8050  124.3860   61.4510 N   0  0  0  0  0  0  0  0  0  0  0  0
  130.5590  123.5930   60.2100 C   0  0  0  0  0  0  0  0  0  0  0  0
  131.2350  122.2240   60.5580 C   0  0  0  0  0  0  0  0  0  0  0  0
  132.5540  122.1580   61.0360 C   0  0  0  0  0  0  0  0  0  0  0  0
  133.1440  120.9350   61.3440 C   0  0  0  0  0  0  0  0  0  0  0  0
  132.4280  119.7560   61.1690 C   0  0  0  0  0  0  0  0  0  0  0  0
  131.1200  119.7910   60.6990 C   0  0  0  0  0  0  0  0  0  0  0  0
  130.5280  121.0150   60.4010 C   0  0  0  0  0  0  0  0  0  0  0  0
  129.0090  123.4710   60.0320 C   0  0  0  0  0  0  0  0  0  0  0  0
  128.1300  123.5770   61.1220 C   0  0  0  0  0  0  0  0  0  0  0  0
  126.7550  123.4460   60.9440 C   0  0  0  0  0  0  0  0  0  0  0  0
  126.2410  123.2050   59.6740 C   0  0  0  0  0  0  0  0  0  0  0  0
  127.0910  123.1000   58.5780 C   0  0  0  0  0  0  0  0  0  0  0  0
  128.4640  123.2400   58.7560 C   0  0  0  0  0  0  0  0  0  0  0  0
  131.2910  124.3560   59.0550 C   0  0  0  0  0  0  0  0  0  0  0  0
  132.6290  124.0670   58.7300 C   0  0  0  0  0  0  0  0  0  0  0  0
  133.2870  124.7480   57.7090 C   0  0  0  0  0  0  0  0  0  0  0  0
  132.6150  125.7280   56.9890 C   0  0  0  0  0  0  0  0  0  0  0  0
  131.2890  126.0260   57.2760 C   0  0  0  0  0  0  0  0  0  0  0  0
  130.6340  125.3430   58.2980 C   0  0  0  0  0  0  0  0  0  0  0  0
  132.1356  126.8643   63.2695 H   0  0  0  0  0  0  0  0  0  0  0  0
  130.4373  126.1967   63.4176 H   0  0  0  0  0  0  0  0  0  0  0  0
  132.0187  123.9655   63.6465 H   0  0  0  0  0  0  0  0  0  0  0  0
  131.1860  125.1700   66.1960 H   0  0  0  0  0  0  0  0  0  0  0  0
  129.9341  123.8884   68.2640 H   0  0  0  0  0  0  0  0  0  0  0  0
  130.6023  125.1758   67.1870 H   0  0  0  0  0  0  0  0  0  0  0  0
  127.7364  125.0044   67.9814 H   0  0  0  0  0  0  0  0  0  0  0  0
  129.0949  124.3888   70.6224 H   0  0  0  0  0  0  0  0  0  0  0  0
  129.6575  125.6639   72.6931 H   0  0  0  0  0  0  0  0  0  0  0  0
  129.8497  128.1488   72.6193 H   0  0  0  0  0  0  0  0  0  0  0  0
  129.4759  129.3694   70.4725 H   0  0  0  0  0  0  0  0  0  0  0  0
  128.9862  130.1701   68.0421 H   0  0  0  0  0  0  0  0  0  0  0  0
  128.4250  130.4532   65.6247 H   0  0  0  0  0  0  0  0  0  0  0  0
  127.9344  128.4543   64.2137 H   0  0  0  0  0  0  0  0  0  0  0  0
  128.0046  126.1710   65.2138 H   0  0  0  0  0  0  0  0  0  0  0  0
  132.7420  126.7730   65.8250 H   0  0  0  0  0  0  0  0  0  0  0  0
  130.4290  123.9340   62.2720 H   0  0  0  0  0  0  0  0  0  0  0  0
  133.1293  123.0861   61.1690 H   0  0  0  0  0  0  0  0  0  0  0  0
  134.1753  120.9016   61.7253 H   0  0  0  0  0  0  0  0  0  0  0  0
  132.8991  118.7901   61.4037 H   0  0  0  0  0  0  0  0  0  0  0  0
  130.5560  118.8564   60.5634 H   0  0  0  0  0  0  0  0  0  0  0  0
  129.4904  121.0391   60.0367 H   0  0  0  0  0  0  0  0  0  0  0  0
  128.5323  123.7657   62.1283 H   0  0  0  0  0  0  0  0  0  0  0  0
  126.0769  123.5329   61.8057 H   0  0  0  0  0  0  0  0  0  0  0  0
  125.1551  123.0967   59.5356 H   0  0  0  0  0  0  0  0  0  0  0  0
  126.6801  122.9073   57.5760 H   0  0  0  0  0  0  0  0  0  0  0  0
  129.1331  123.1690   57.8858 H   0  0  0  0  0  0  0  0  0  0  0  0
  133.1653  123.2887   59.2928 H   0  0  0  0  0  0  0  0  0  0  0  0
  134.3350  124.5109   57.4734 H   0  0  0  0  0  0  0  0  0  0  0  0
  133.1362  126.2711   56.1869 H   0  0  0  0  0  0  0  0  0  0  0  0
  130.7587  126.7978   56.6988 H   0  0  0  0  0  0  0  0  0  0  0  0
  129.5825  125.5800   58.5175 H   0  0  0  0  0  0  0  0  0  0  0  0
  1  2  2  0
  2  3  1  0
  3  4  1  0
  4  5  1  0
  5  6  1  0
  6  7  2  0
  6  8  1  0
  8  9  1  0
  9 10  1  0
 10 11  1  0
 11 12  2  0
 12 13  1  0
 13 14  2  0
 14 15  1  0
 15 16  2  0
 16 17  1  0
 17 18  2  0
 18 19  1  0
 19 20  2  0
 20 21  1  0
 21 22  2  0
  4 23  1  0
 23 24  2  0
 23 25  1  0
  2 26  1  0
 26 27  1  0
 27 28  1  0
 28 29  2  0
 29 30  1  0
 30 31  2  0
 31 32  1  0
 32 33  2  0
 27 34  1  0
 34 35  2  0
 35 36  1  0
 36 37  2  0
 37 38  1  0
 38 39  2  0
 27 40  1  0
 40 41  2  0
 41 42  1  0
 42 43  2  0
 43 44  1  0
 44 45  2  0
 22 10  1  0
 33 28  1  0
 39 34  1  0
 45 40  1  0
 16 11  1  0
 22 17  1  0
  3 46  1  0
  3 47  1  0
  4 48  1  6
  5 49  1  0
  9 50  1  0
  9 51  1  0
 10 52  1  0
 12 53  1  0
 13 54  1  0
 14 55  1  0
 15 56  1  0
 18 57  1  0
 19 58  1  0
 20 59  1  0
 21 60  1  0
 25 61  1  0
 26 62  1  0
 29 63  1  0
 30 64  1  0
 31 65  1  0
 32 66  1  0
 33 67  1  0
 35 68  1  0
 36 69  1  0
 37 70  1  0
 38 71  1  0
 39 72  1  0
 41 73  1  0
 42 74  1  0
 43 75  1  0
 44 76  1  0
 45 77  1  0
M  END
>  <Binding energies>  (1) 
[-10.18]

>  <Ligand effiencies>  (1) 
[-0.21208333333333332]

>  <Interactions>  (1) 
["V-B:GLU:543:CA:9876, V-A:GLU:543:CD:4908, V-A:HIS:456:CD2:4068, V-B:GLU:543:CD:9880, V-A:ASP:366:CG:3213, V-B:TYR:539:CD2:9846, V-A:LEU:475:CD1:4258, V-B:GLU:543:CB:9878, H-A:TYR:484:OH:4348, V-A:TYR:484:CZ:4347, V-B:GLU:543:C:9874, V-A:TYR:484:CE1:4345, V-B:HIS:456:CE1:9040, V-B:TYR:539:CE2:9848, V-A:HIS:456:CE1:4069, V-B:GLU:543:CG:9879, V-A:GLU:543:CB:4906, V-A:ARG:545:CZ:4926, V-B:PRO:540:CA:9855, V-B:TYR:539:CZ:9849, V-A:GLU:543:CG:4907, V-B:PRO:540:CB:9857, V-B:PRO:540:N:9856, V-A:ILE:369:CD1:3239, V-A:ASP:366:CA:3210, H-A:GLY:454:N:4050, V-A:TRP:381:CZ2:3370, H-A:ARG:545:NH1:4927, H-A:ARG:545:NE:4924, H-A:ARG:545:NH2:4928, V-A:ARG:545:CD:4923, V-A:TRP:381:CH2:3372, H-A:GLU:543:OE2:4910, V-A:ASP:366:CB:3212, V-A:ASP:366:C:3208, V-B:HIS:456:CD2:9039, V-A:GLU:543:CA:4904"]

$$$$
RR5_Rahimova_2017-again1
     RDKit          3D

 76 81  0  0  0  0  0  0  0  0999 V2000
  131.0660  125.7610   60.0460 O   0  0  0  0  0  0  0  0  0  0  0  0
  130.0520  125.0670   60.1110 C   0  0  0  0  0  0  0  0  0  0  0  0
  128.7870  125.5260   59.3560 C   0  0  0  0  0  0  0  0  0  0  0  0
  127.4120  125.1980   60.0260 C   0  0  2  0  0  0  0  0  0  0  0  0
  127.3950  125.7580   61.3940 N   0  0  0  0  0  0  0  0  0  0  0  0
  127.6050  127.1120   61.6320 C   0  0  0  0  0  0  0  0  0  0  0  0
  127.8450  127.9770   60.7860 O   0  0  0  0  0  0  0  0  0  0  0  0
  127.5060  127.3380   62.9560 O   0  0  0  0  0  0  0  0  0  0  0  0
  128.6520  127.6760   63.7280 C   0  0  0  0  0  0  0  0  0  0  0  0
  128.2430  128.5510   64.9280 C   0  0  0  0  0  0  0  0  0  0  0  0
  126.8700  129.1820   64.7780 C   0  0  0  0  0  0  0  0  0  0  0  0
  126.3920  130.0540   63.7960 C   0  0  0  0  0  0  0  0  0  0  0  0
  125.0710  130.5040   63.8470 C   0  0  0  0  0  0  0  0  0  0  0  0
  124.2280  130.0880   64.8790 C   0  0  0  0  0  0  0  0  0  0  0  0
  124.7030  129.2210   65.8640 C   0  0  0  0  0  0  0  0  0  0  0  0
  126.0250  128.7720   65.8110 C   0  0  0  0  0  0  0  0  0  0  0  0
  126.7800  127.8810   66.7050 C   0  0  0  0  0  0  0  0  0  0  0  0
  126.4040  127.2190   67.8750 C   0  0  0  0  0  0  0  0  0  0  0  0
  127.3350  126.4300   68.5520 C   0  0  0  0  0  0  0  0  0  0  0  0
  128.6360  126.3040   68.0610 C   0  0  0  0  0  0  0  0  0  0  0  0
  129.0090  126.9650   66.8890 C   0  0  0  0  0  0  0  0  0  0  0  0
  128.0780  127.7540   66.2070 C   0  0  0  0  0  0  0  0  0  0  0  0
  127.1040  123.6470   60.0200 C   0  0  0  0  0  0  0  0  0  0  0  0
  127.0320  123.1300   61.1600 O   0  0  0  0  0  0  0  0  0  0  0  0
  126.9280  123.1080   58.9010 O   0  0  0  0  0  0  0  0  0  0  0  0
  130.0290  123.8570   60.7110 N   0  0  0  0  0  0  0  0  0  0  0  0
  131.0910  123.1640   61.4830 C   0  0  0  0  0  0  0  0  0  0  0  0
  130.9250  121.6160   61.3540 C   0  0  0  0  0  0  0  0  0  0  0  0
  129.6500  121.0340   61.2380 C   0  0  0  0  0  0  0  0  0  0  0  0
  129.4990  119.6560   61.1100 C   0  0  0  0  0  0  0  0  0  0  0  0
  130.6240  118.8390   61.0910 C   0  0  0  0  0  0  0  0  0  0  0  0
  131.8980  119.3900   61.2000 C   0  0  0  0  0  0  0  0  0  0  0  0
  132.0460  120.7680   61.3290 C   0  0  0  0  0  0  0  0  0  0  0  0
  132.5500  123.4190   60.9860 C   0  0  0  0  0  0  0  0  0  0  0  0
  133.6110  123.5530   61.8990 C   0  0  0  0  0  0  0  0  0  0  0  0
  134.9120  123.7810   61.4600 C   0  0  0  0  0  0  0  0  0  0  0  0
  135.1720  123.8750   60.0970 C   0  0  0  0  0  0  0  0  0  0  0  0
  134.1420  123.7360   59.1710 C   0  0  0  0  0  0  0  0  0  0  0  0
  132.8420  123.5080   59.6140 C   0  0  0  0  0  0  0  0  0  0  0  0
  130.8520  123.6230   62.9630 C   0  0  0  0  0  0  0  0  0  0  0  0
  131.1950  124.9140   63.4010 C   0  0  0  0  0  0  0  0  0  0  0  0
  130.9600  125.3120   64.7130 C   0  0  0  0  0  0  0  0  0  0  0  0
  130.3630  124.4290   65.6060 C   0  0  0  0  0  0  0  0  0  0  0  0
  129.9930  123.1540   65.1940 C   0  0  0  0  0  0  0  0  0  0  0  0
  130.2300  122.7580   63.8800 C   0  0  0  0  0  0  0  0  0  0  0  0
  128.8477  126.6178   59.2366 H   0  0  0  0  0  0  0  0  0  0  0  0
  128.7916  124.9601   58.4128 H   0  0  0  0  0  0  0  0  0  0  0  0
  126.6093  125.6662   59.4374 H   0  0  0  0  0  0  0  0  0  0  0  0
  127.1590  125.1470   62.1640 H   0  0  0  0  0  0  0  0  0  0  0  0
  129.1280  126.7547   64.0950 H   0  0  0  0  0  0  0  0  0  0  0  0
  129.3579  128.2367   63.0977 H   0  0  0  0  0  0  0  0  0  0  0  0
  129.0572  129.2897   64.9652 H   0  0  0  0  0  0  0  0  0  0  0  0
  127.0556  130.3855   62.9838 H   0  0  0  0  0  0  0  0  0  0  0  0
  124.6939  131.1878   63.0723 H   0  0  0  0  0  0  0  0  0  0  0  0
  123.1879  130.4441   64.9158 H   0  0  0  0  0  0  0  0  0  0  0  0
  124.0399  128.8928   66.6780 H   0  0  0  0  0  0  0  0  0  0  0  0
  125.3790  127.3187   68.2615 H   0  0  0  0  0  0  0  0  0  0  0  0
  127.0433  125.9063   69.4743 H   0  0  0  0  0  0  0  0  0  0  0  0
  129.3681  125.6832   68.5982 H   0  0  0  0  0  0  0  0  0  0  0  0
  130.0341  126.8650   66.5028 H   0  0  0  0  0  0  0  0  0  0  0  0
  129.1270  123.4060   60.7590 H   0  0  0  0  0  0  0  0  0  0  0  0
  128.7581  121.6777   61.2486 H   0  0  0  0  0  0  0  0  0  0  0  0
  128.4946  119.2157   61.0243 H   0  0  0  0  0  0  0  0  0  0  0  0
  130.5067  117.7500   60.9892 H   0  0  0  0  0  0  0  0  0  0  0  0
  132.7843  118.7387   61.1842 H   0  0  0  0  0  0  0  0  0  0  0  0
  133.0543  121.1996   61.4126 H   0  0  0  0  0  0  0  0  0  0  0  0
  133.4095  123.4764   62.9777 H   0  0  0  0  0  0  0  0  0  0  0  0
  135.7304  123.8863   62.1874 H   0  0  0  0  0  0  0  0  0  0  0  0
  136.1986  124.0605   59.7483 H   0  0  0  0  0  0  0  0  0  0  0  0
  134.3543  123.8060   58.0940 H   0  0  0  0  0  0  0  0  0  0  0  0
  132.0311  123.3958   58.8792 H   0  0  0  0  0  0  0  0  0  0  0  0
  131.6564  125.6204   62.6953 H   0  0  0  0  0  0  0  0  0  0  0  0
  131.2455  126.3218   65.0429 H   0  0  0  0  0  0  0  0  0  0  0  0
  130.1824  124.7414   66.6451 H   0  0  0  0  0  0  0  0  0  0  0  0
  129.5153  122.4612   65.9024 H   0  0  0  0  0  0  0  0  0  0  0  0
  129.9256  121.7523   63.5545 H   0  0  0  0  0  0  0  0  0  0  0  0
  1  2  2  0
  2  3  1  0
  3  4  1  0
  4  5  1  0
  5  6  1  0
  6  7  2  0
  6  8  1  0
  8  9  1  0
  9 10  1  0
 10 11  1  0
 11 12  2  0
 12 13  1  0
 13 14  2  0
 14 15  1  0
 15 16  2  0
 16 17  1  0
 17 18  2  0
 18 19  1  0
 19 20  2  0
 20 21  1  0
 21 22  2  0
  4 23  1  0
 23 24  2  0
 23 25  1  0
  2 26  1  0
 26 27  1  0
 27 28  1  0
 28 29  2  0
 29 30  1  0
 30 31  2  0
 31 32  1  0
 32 33  2  0
 27 34  1  0
 34 35  2  0
 35 36  1  0
 36 37  2  0
 37 38  1  0
 38 39  2  0
 27 40  1  0
 40 41  2  0
 41 42  1  0
 42 43  2  0
 43 44  1  0
 44 45  2  0
 22 10  1  0
 33 28  1  0
 39 34  1  0
 45 40  1  0
 16 11  1  0
 22 17  1  0
  3 46  1  0
  3 47  1  0
  4 48  1  6
  5 49  1  0
  9 50  1  0
  9 51  1  0
 10 52  1  0
 12 53  1  0
 13 54  1  0
 14 55  1  0
 15 56  1  0
 18 57  1  0
 19 58  1  0
 20 59  1  0
 21 60  1  0
 26 61  1  0
 29 62  1  0
 30 63  1  0
 31 64  1  0
 32 65  1  0
 33 66  1  0
 35 67  1  0
 36 68  1  0
 37 69  1  0
 38 70  1  0
 39 71  1  0
 41 72  1  0
 42 73  1  0
 43 74  1  0
 44 75  1  0
 45 76  1  0
M  CHG  1  25  -1
M  END
>  <Binding energies>  (1) 
[-8.69]

>  <Ligand effiencies>  (1) 
[-0.18489361702127657]

>  <Interactions>  (1) 
["V-B:GLU:543:CA:9876, V-A:GLU:543:CD:4908, V-B:GLU:543:CD:9880, V-A:ASP:366:CG:3213, V-B:TYR:539:CD2:9846, V-A:LEU:475:CD1:4258, H-B:ALA:541:N:9863, V-B:GLU:543:CB:9878, V-A:TYR:484:CZ:4347, V-B:GLU:543:C:9874, V-A:TYR:484:CE1:4345, V-B:HIS:456:CE1:9040, V-B:TYR:539:CE2:9848, V-B:GLU:543:CG:9879, V-B:ARG:545:CD:9895, V-B:ARG:545:CZ:9898, V-B:ARG:545:CG:9894, V-B:PRO:540:CA:9855, V-B:GLY:544:C:9884, V-B:ALA:541:CB:9864, V-B:GLY:454:CA:9020, V-A:ILE:369:CD1:3239, V-A:GLY:453:CA:4044, V-A:GLY:453:C:4042, V-A:ASP:366:CA:3210, V-A:ILE:369:CB:3236, V-A:ILE:369:CG2:3237, V-A:TRP:381:CZ2:3370, V-B:ALA:541:CA:9862, V-A:PRO:482:CG:4327, V-A:PRO:482:CB:4326, H-B:GLU:543:OE2:9882, V-A:TRP:381:CH2:3372, V-A:ASP:366:CB:3212, H-B:GLU:543:OE1:9881, V-A:ILE:369:CG1:3238"]

$$$$
RR6_Rahimova_2017
     RDKit          3D

 63 66  0  0  0  0  0  0  0  0999 V2000
  132.0220  131.1720   56.2760 C   0  0  0  0  0  0  0  0  0  0  0  0
  131.6690  132.1870   57.2060 O   0  0  0  0  0  0  0  0  0  0  0  0
  130.3680  132.4920   57.4470 C   0  0  0  0  0  0  0  0  0  0  0  0
  129.6340  133.0430   56.6200 O   0  0  0  0  0  0  0  0  0  0  0  0
  129.9080  132.0910   58.8200 C   0  0  0  0  0  0  0  0  0  0  0  0
  128.7010  132.5540   59.3640 C   0  0  0  0  0  0  0  0  0  0  0  0
  128.3060  132.1700   60.6430 C   0  0  0  0  0  0  0  0  0  0  0  0
  129.1190  131.3170   61.4040 C   0  0  0  0  0  0  0  0  0  0  0  0
  128.8300  130.8910   62.7140 N   0  0  0  0  0  0  0  0  0  0  0  0
  128.1630  131.5360   63.6970 C   0  0  0  0  0  0  0  0  0  0  0  0
  127.6620  132.6560   63.6030 O   0  0  0  0  0  0  0  0  0  0  0  0
  128.1000  130.8050   65.0430 C   0  0  0  0  0  0  0  0  0  0  0  0
  127.2490  129.1940   64.9630 S   0  0  0  0  0  0  0  0  0  0  0  0
  128.3480  127.9970   65.6920 C   0  0  0  0  0  0  0  0  0  0  0  0
  128.2740  127.9220   67.0420 N   0  0  0  0  0  0  0  0  0  0  0  0
  129.0430  127.0250   67.7100 C   0  0  0  0  0  0  0  0  0  0  0  0
  128.8570  126.9630   69.1970 C   0  0  0  0  0  0  0  0  0  0  0  0
  128.2400  125.8580   69.8030 C   0  0  0  0  0  0  0  0  0  0  0  0
  128.0550  125.8060   71.1820 C   0  0  0  0  0  0  0  0  0  0  0  0
  128.4910  126.8600   71.9840 C   0  0  0  0  0  0  0  0  0  0  0  0
  128.2790  126.8040   73.4860 C   0  0  0  0  0  0  0  0  0  0  0  0
  129.1080  127.9660   71.4030 C   0  0  0  0  0  0  0  0  0  0  0  0
  129.2900  128.0120   70.0250 C   0  0  0  0  0  0  0  0  0  0  0  0
  129.9230  126.1840   67.0200 C   0  0  0  0  0  0  0  0  0  0  0  0
  130.0200  126.2450   65.6230 C   0  0  0  0  0  0  0  0  0  0  0  0
  130.9650  125.3060   64.9490 C   0  0  0  0  0  0  0  0  0  0  0  0
  130.4850  124.3560   64.0420 C   0  0  0  0  0  0  0  0  0  0  0  0
  131.3610  123.4860   63.3980 C   0  0  0  0  0  0  0  0  0  0  0  0
  132.7320  123.5530   63.6420 C   0  0  0  0  0  0  0  0  0  0  0  0
  133.5250  122.6530   62.9560 O   0  0  0  0  0  0  0  0  0  0  0  0
  134.2360  123.0930   61.8040 C   0  0  0  0  0  0  0  0  0  0  0  0
  133.2200  124.5080   64.5460 C   0  0  0  0  0  0  0  0  0  0  0  0
  132.3410  125.3760   65.1890 C   0  0  0  0  0  0  0  0  0  0  0  0
  129.2140  127.1840   64.9330 C   0  0  0  0  0  0  0  0  0  0  0  0
  129.2880  127.3210   63.4740 C   0  0  0  0  0  0  0  0  0  0  0  0
  129.3450  127.4270   62.3230 N   0  0  0  0  0  0  0  0  0  0  0  0
  130.3120  130.8410   60.8600 C   0  0  0  0  0  0  0  0  0  0  0  0
  130.7060  131.2280   59.5820 C   0  0  0  0  0  0  0  0  0  0  0  0
  132.3360  130.2691   56.8203 H   0  0  0  0  0  0  0  0  0  0  0  0
  131.1533  130.9356   55.6440 H   0  0  0  0  0  0  0  0  0  0  0  0
  132.8499  131.5257   55.6440 H   0  0  0  0  0  0  0  0  0  0  0  0
  128.0604  133.2267   58.7749 H   0  0  0  0  0  0  0  0  0  0  0  0
  127.3550  132.5361   61.0572 H   0  0  0  0  0  0  0  0  0  0  0  0
  129.2580  130.0130   62.9700 H   0  0  0  0  0  0  0  0  0  0  0  0
  129.1284  130.6374   65.3957 H   0  0  0  0  0  0  0  0  0  0  0  0
  127.5200  131.4413   65.7276 H   0  0  0  0  0  0  0  0  0  0  0  0
  127.8971  125.0197   69.1788 H   0  0  0  0  0  0  0  0  0  0  0  0
  127.5649  124.9335   71.6387 H   0  0  0  0  0  0  0  0  0  0  0  0
  129.2200  127.0526   73.9986 H   0  0  0  0  0  0  0  0  0  0  0  0
  127.5023  127.5278   73.7739 H   0  0  0  0  0  0  0  0  0  0  0  0
  127.9611  125.7911   73.7739 H   0  0  0  0  0  0  0  0  0  0  0  0
  129.4502  128.8006   72.0326 H   0  0  0  0  0  0  0  0  0  0  0  0
  129.7824  128.8865   69.5748 H   0  0  0  0  0  0  0  0  0  0  0  0
  130.5442  125.4686   67.5788 H   0  0  0  0  0  0  0  0  0  0  0  0
  129.4062  124.2955   63.8355 H   0  0  0  0  0  0  0  0  0  0  0  0
  130.9682  122.7401   62.6913 H   0  0  0  0  0  0  0  0  0  0  0  0
  135.1328  123.6480   62.1164 H   0  0  0  0  0  0  0  0  0  0  0  0
  134.5349  122.2218   61.2027 H   0  0  0  0  0  0  0  0  0  0  0  0
  133.5897  123.7492   61.2027 H   0  0  0  0  0  0  0  0  0  0  0  0
  134.2995  124.5715   64.7475 H   0  0  0  0  0  0  0  0  0  0  0  0
  132.7332  126.1246   65.8931 H   0  0  0  0  0  0  0  0  0  0  0  0
  130.9448  130.1563   61.4438 H   0  0  0  0  0  0  0  0  0  0  0  0
  131.6529  130.8525   59.1667 H   0  0  0  0  0  0  0  0  0  0  0  0
  1  2  1  0
  2  3  1  0
  3  4  2  0
  3  5  1  0
  5  6  2  0
  6  7  1  0
  7  8  2  0
  8  9  1  0
  9 10  1  0
 10 11  2  0
 10 12  1  0
 12 13  1  0
 13 14  1  0
 14 15  2  0
 15 16  1  0
 16 17  1  0
 17 18  2  0
 18 19  1  0
 19 20  2  0
 20 21  1  0
 20 22  1  0
 22 23  2  0
 16 24  2  0
 24 25  1  0
 25 26  1  0
 26 27  2  0
 27 28  1  0
 28 29  2  0
 29 30  1  0
 30 31  1  0
 29 32  1  0
 32 33  2  0
 25 34  2  0
 34 35  1  0
 35 36  3  0
  8 37  1  0
 37 38  2  0
 38  5  1  0
 34 14  1  0
 23 17  1  0
 33 26  1  0
  1 39  1  0
  1 40  1  0
  1 41  1  0
  6 42  1  0
  7 43  1  0
  9 44  1  0
 12 45  1  0
 12 46  1  0
 18 47  1  0
 19 48  1  0
 21 49  1  0
 21 50  1  0
 21 51  1  0
 22 52  1  0
 23 53  1  0
 24 54  1  0
 27 55  1  0
 28 56  1  0
 31 57  1  0
 31 58  1  0
 31 59  1  0
 32 60  1  0
 33 61  1  0
 37 62  1  0
 38 63  1  0
M  END
>  <Binding energies>  (1) 
[-8.91]

>  <Ligand effiencies>  (1) 
[-0.22846153846153847]

>  <Interactions>  (1) 
["V-A:GLU:543:CD:4908, V-A:HIS:456:CD2:4068, V-B:GLU:543:C:9874, V-B:HIS:456:CE1:9040, V-A:HIS:456:CE1:4069, V-A:ALA:541:CB:4892, V-A:PRO:540:CA:4883, V-A:TYR:539:CD2:4874, V-A:TYR:539:CE2:4876, V-A:GLU:543:CB:4906, V-A:PRO:540:CB:4885, V-A:TYR:539:C:4867, V-B:GLY:544:C:9884, V-A:ILE:369:CD1:3239, V-A:GLY:454:CA:4049, H-A:GLY:454:N:4050, H-A:GLU:543:OE1:4909, V-A:PRO:540:N:4884, V-B:HIS:456:CD2:9039, H-A:TYR:539:N:4870, V-A:PRO:540:CD:4887, V-A:LEU:363:CD1:3189, V-A:TYR:531:CE2:4793"]

$$$$
RR7_Rahimova_2017
     RDKit          3D

 80 86  0  0  0  0  0  0  0  0999 V2000
  131.9430  125.4290   61.2220 C   0  0  0  0  0  0  0  0  0  0  0  0
  130.9990  125.5530   62.2820 O   0  0  0  0  0  0  0  0  0  0  0  0
  129.9680  126.4640   62.1610 C   0  0  0  0  0  0  0  0  0  0  0  0
  130.3280  127.8090   62.1100 C   0  0  0  0  0  0  0  0  0  0  0  0
  129.3580  128.7990   61.9840 C   0  0  0  0  0  0  0  0  0  0  0  0
  127.9970  128.4650   61.9170 C   0  0  0  0  0  0  0  0  0  0  0  0
  126.8910  129.5510   61.7430 C   0  0  0  0  0  0  0  0  0  0  0  0
  126.0310  129.0880   60.6780 O   0  0  0  0  0  0  0  0  0  0  0  0
  125.2390  130.0230   59.9370 C   0  0  0  0  0  0  0  0  0  0  0  0
  125.6110  129.9270   58.4490 C   0  0  1  0  0  0  0  0  0  0  0  0
  126.7160  129.0310   58.3570 O   0  0  0  0  0  0  0  0  0  0  0  0
  126.4330  127.9340   57.5370 C   0  0  1  0  0  0  0  0  0  0  0  0
  127.1260  126.7560   58.0230 N   0  0  0  0  0  0  0  0  0  0  0  0
  128.4150  126.6690   58.5190 C   0  0  0  0  0  0  0  0  0  0  0  0
  128.8100  125.4640   58.8470 N   0  0  0  0  0  0  0  0  0  0  0  0
  127.7460  124.6700   58.5160 C   0  0  0  0  0  0  0  0  0  0  0  0
  127.5420  123.2790   58.6070 C   0  0  0  0  0  0  0  0  0  0  0  0
  128.5710  122.4800   59.1410 N   0  0  0  0  0  0  0  0  0  0  0  0
  128.7160  122.0070   60.4020 C   0  0  0  0  0  0  0  0  0  0  0  0
  127.9300  122.2370   61.3240 O   0  0  0  0  0  0  0  0  0  0  0  0
  129.9550  121.1730   60.6500 C   0  0  0  0  0  0  0  0  0  0  0  0
  131.2210  121.7110   60.3690 C   0  0  0  0  0  0  0  0  0  0  0  0
  132.3730  120.9640   60.5950 C   0  0  0  0  0  0  0  0  0  0  0  0
  132.2710  119.6750   61.1090 C   0  0  0  0  0  0  0  0  0  0  0  0
  131.0250  119.1250   61.3980 C   0  0  0  0  0  0  0  0  0  0  0  0
  129.8710  119.8710   61.1710 C   0  0  0  0  0  0  0  0  0  0  0  0
  126.3590  122.7470   58.1750 N   0  0  0  0  0  0  0  0  0  0  0  0
  125.4280  123.5990   57.6700 C   0  0  0  0  0  0  0  0  0  0  0  0
  125.5190  124.9500   57.5400 N   0  0  0  0  0  0  0  0  0  0  0  0
  126.6850  125.4430   57.9780 C   0  0  0  0  0  0  0  0  0  0  0  0
  124.9130  127.8260   57.5220 C   0  0  0  0  0  0  0  0  0  0  0  0
  124.5370  129.2970   57.5510 C   0  0  2  0  0  0  0  0  0  0  0  0
  124.5160  129.8660   56.2520 O   0  0  0  0  0  0  0  0  0  0  0  0
  126.0040  129.7000   63.0080 C   0  0  0  0  0  0  0  0  0  0  0  0
  126.5250  129.3980   64.2770 C   0  0  0  0  0  0  0  0  0  0  0  0
  125.7360  129.5150   65.4160 C   0  0  0  0  0  0  0  0  0  0  0  0
  124.4140  129.9340   65.2990 C   0  0  0  0  0  0  0  0  0  0  0  0
  123.8770  130.2380   64.0520 C   0  0  0  0  0  0  0  0  0  0  0  0
  124.6670  130.1200   62.9120 C   0  0  0  0  0  0  0  0  0  0  0  0
  127.3960  130.9850   61.4160 C   0  0  0  0  0  0  0  0  0  0  0  0
  127.4720  131.9590   62.4240 C   0  0  0  0  0  0  0  0  0  0  0  0
  127.9130  133.2470   62.1400 C   0  0  0  0  0  0  0  0  0  0  0  0
  128.2750  133.5790   60.8370 C   0  0  0  0  0  0  0  0  0  0  0  0
  128.1950  132.6340   59.8190 C   0  0  0  0  0  0  0  0  0  0  0  0
  127.7530  131.3460   60.1060 C   0  0  0  0  0  0  0  0  0  0  0  0
  127.6410  127.1090   61.9550 C   0  0  0  0  0  0  0  0  0  0  0  0
  128.6120  126.1180   62.0800 C   0  0  0  0  0  0  0  0  0  0  0  0
  132.9509  125.2966   61.6422 H   0  0  0  0  0  0  0  0  0  0  0  0
  131.6865  124.5568   60.6027 H   0  0  0  0  0  0  0  0  0  0  0  0
  131.9204  126.3378   60.6027 H   0  0  0  0  0  0  0  0  0  0  0  0
  131.3895  128.0912   62.1699 H   0  0  0  0  0  0  0  0  0  0  0  0
  129.6618  129.8551   61.9364 H   0  0  0  0  0  0  0  0  0  0  0  0
  124.1725  129.7866   60.0663 H   0  0  0  0  0  0  0  0  0  0  0  0
  125.4302  131.0428   60.3023 H   0  0  0  0  0  0  0  0  0  0  0  0
  125.7871  130.9592   58.1120 H   0  0  0  0  0  0  0  0  0  0  0  0
  126.7928  128.0458   56.5035 H   0  0  0  0  0  0  0  0  0  0  0  0
  129.0631  127.5509   58.6301 H   0  0  0  0  0  0  0  0  0  0  0  0
  129.2950  122.2360   58.4820 H   0  0  0  0  0  0  0  0  0  0  0  0
  131.3029  122.7316   59.9668 H   0  0  0  0  0  0  0  0  0  0  0  0
  133.3610  121.3910   60.3681 H   0  0  0  0  0  0  0  0  0  0  0  0
  133.1823  119.0857   61.2885 H   0  0  0  0  0  0  0  0  0  0  0  0
  130.9523  118.1053   61.8040 H   0  0  0  0  0  0  0  0  0  0  0  0
  128.8866  119.4376   61.4013 H   0  0  0  0  0  0  0  0  0  0  0  0
  124.4890  123.1414   57.3253 H   0  0  0  0  0  0  0  0  0  0  0  0
  124.5490  127.3307   56.6098 H   0  0  0  0  0  0  0  0  0  0  0  0
  124.4857  127.2251   58.3383 H   0  0  0  0  0  0  0  0  0  0  0  0
  123.5198  129.4684   57.9329 H   0  0  0  0  0  0  0  0  0  0  0  0
  125.0780  130.6450   56.2500 H   0  0  0  0  0  0  0  0  0  0  0  0
  127.5692  129.0651   64.3708 H   0  0  0  0  0  0  0  0  0  0  0  0
  126.1548  129.2775   66.4050 H   0  0  0  0  0  0  0  0  0  0  0  0
  123.7888  130.0255   66.1994 H   0  0  0  0  0  0  0  0  0  0  0  0
  122.8319  130.5704   63.9673 H   0  0  0  0  0  0  0  0  0  0  0  0
  124.2402  130.3579   61.9265 H   0  0  0  0  0  0  0  0  0  0  0  0
  127.1789  131.7001   63.4521 H   0  0  0  0  0  0  0  0  0  0  0  0
  127.9755  133.9992   62.9401 H   0  0  0  0  0  0  0  0  0  0  0  0
  128.6270  134.5963   60.6108 H   0  0  0  0  0  0  0  0  0  0  0  0
  128.4800  132.9039   58.7914 H   0  0  0  0  0  0  0  0  0  0  0  0
  127.6824  130.6025   59.2984 H   0  0  0  0  0  0  0  0  0  0  0  0
  126.5808  126.8242   61.8852 H   0  0  0  0  0  0  0  0  0  0  0  0
  128.3135  125.0599   62.1153 H   0  0  0  0  0  0  0  0  0  0  0  0
  1  2  1  0
  2  3  1  0
  3  4  2  0
  4  5  1  0
  5  6  2  0
  6  7  1  0
  7  8  1  0
  8  9  1  0
  9 10  1  0
 10 11  1  0
 11 12  1  0
 12 13  1  0
 13 14  1  0
 14 15  2  0
 15 16  1  0
 16 17  2  0
 17 18  1  0
 18 19  1  0
 19 20  2  0
 19 21  1  0
 21 22  2  0
 22 23  1  0
 23 24  2  0
 24 25  1  0
 25 26  2  0
 17 27  1  0
 27 28  2  0
 28 29  1  0
 29 30  2  0
 12 31  1  0
 31 32  1  0
 32 33  1  0
  7 34  1  0
 34 35  2  0
 35 36  1  0
 36 37  2  0
 37 38  1  0
 38 39  2  0
  7 40  1  0
 40 41  2  0
 41 42  1  0
 42 43  2  0
 43 44  1  0
 44 45  2  0
  6 46  1  0
 46 47  2  0
 47  3  1  0
 32 10  1  0
 39 34  1  0
 45 40  1  0
 30 13  1  0
 30 16  1  0
 26 21  1  0
  1 48  1  0
  1 49  1  0
  1 50  1  0
  4 51  1  0
  5 52  1  0
  9 53  1  0
  9 54  1  0
 10 55  1  6
 12 56  1  6
 14 57  1  0
 18 58  1  0
 22 59  1  0
 23 60  1  0
 24 61  1  0
 25 62  1  0
 26 63  1  0
 28 64  1  0
 31 65  1  0
 31 66  1  0
 32 67  1  1
 33 68  1  0
 35 69  1  0
 36 70  1  0
 37 71  1  0
 38 72  1  0
 39 73  1  0
 41 74  1  0
 42 75  1  0
 43 76  1  0
 44 77  1  0
 45 78  1  0
 46 79  1  0
 47 80  1  0
M  END
>  <Binding energies>  (1) 
[-8.37]

>  <Ligand effiencies>  (1) 
[-0.17081632653061224]

>  <Interactions>  (1) 
["V-A:GLU:543:CD:4908, V-B:GLU:543:CD:9880, V-A:ASP:366:CG:3213, V-B:TYR:539:CD2:9846, V-A:LEU:475:CD1:4258, H-B:ALA:541:N:9863, H-B:TYR:539:O:9840, V-B:TYR:539:CE2:9848, V-B:ARG:545:CZ:9898, V-A:ALA:541:CB:4892, V-A:PRO:540:C:4881, V-A:PRO:540:CA:4883, V-A:TYR:539:CD2:4874, V-A:TYR:539:CE2:4876, V-B:PRO:540:CA:9855, V-B:ALA:541:CB:9864, V-B:TYR:539:C:9839, V-B:PRO:540:CB:9857, V-B:GLY:454:CA:9020, V-A:ILE:369:CG2:3237, V-A:TRP:381:CZ2:3370, V-A:PRO:482:CG:4327, V-A:PRO:482:CB:4326, V-A:TRP:381:CH2:3372, V-B:ASP:366:CG:8184, V-B:LEU:363:CD1:8160, V-B:ASP:366:CB:8183, V-B:TYR:531:CZ:9766, H-A:TYR:539:OH:4878, H-B:TYR:531:OH:9767"]

$$$$
RR8_A_Rahimova_2017
     RDKit          3D

 73 77  0  0  0  0  0  0  0  0999 V2000
  129.0550  128.9260   67.7790 O   0  0  0  0  0  0  0  0  0  0  0  0
  129.0750  127.7570   68.1810 C   0  0  0  0  0  0  0  0  0  0  0  0
  129.0710  126.6580   67.3640 O   0  0  0  0  0  0  0  0  0  0  0  0
  129.9280  126.6710   66.2560 C   0  0  1  0  0  0  0  0  0  0  0  0
  131.0090  125.8010   66.4300 O   0  0  0  0  0  0  0  0  0  0  0  0
  131.3530  125.1350   65.2180 C   0  0  2  0  0  0  0  0  0  0  0  0
  132.8380  125.4000   64.9170 C   0  0  0  0  0  0  0  0  0  0  0  0
  133.3830  124.2630   64.2610 O   0  0  0  0  0  0  0  0  0  0  0  0
  133.9710  124.5500   63.0000 C   0  0  0  0  0  0  0  0  0  0  0  0
  133.5890  123.4730   61.9950 C   0  0  0  0  0  0  0  0  0  0  0  0
  133.9070  122.1370   62.2530 C   0  0  0  0  0  0  0  0  0  0  0  0
  133.5530  121.1470   61.3380 C   0  0  0  0  0  0  0  0  0  0  0  0
  132.8790  121.4970   60.1690 C   0  0  0  0  0  0  0  0  0  0  0  0
  132.5530  122.8260   59.9080 C   0  0  0  0  0  0  0  0  0  0  0  0
  132.9050  123.8150   60.8230 C   0  0  0  0  0  0  0  0  0  0  0  0
  130.3600  125.7030   64.1940 C   0  0  1  0  0  0  0  0  0  0  0  0
  129.8880  124.7260   63.2690 O   0  0  0  0  0  0  0  0  0  0  0  0
  129.5440  123.4640   63.8270 C   0  0  0  0  0  0  0  0  0  0  0  0
  129.5320  122.4000   62.7380 C   0  0  0  0  0  0  0  0  0  0  0  0
  130.2750  121.2280   62.9060 C   0  0  0  0  0  0  0  0  0  0  0  0
  130.2770  120.2550   61.9100 C   0  0  0  0  0  0  0  0  0  0  0  0
  129.5380  120.4580   60.7460 C   0  0  0  0  0  0  0  0  0  0  0  0
  128.8020  121.6260   60.5670 C   0  0  0  0  0  0  0  0  0  0  0  0
  128.8010  122.6000   61.5620 C   0  0  0  0  0  0  0  0  0  0  0  0
  129.1790  126.1240   65.0490 C   0  0  2  0  0  0  0  0  0  0  0  0
  128.3920  127.1000   64.3720 O   0  0  0  0  0  0  0  0  0  0  0  0
  128.3790  128.3970   64.9590 C   0  0  0  0  0  0  0  0  0  0  0  0
  126.9520  128.7950   65.3040 C   0  0  0  0  0  0  0  0  0  0  0  0
  126.1880  129.5360   64.3960 C   0  0  0  0  0  0  0  0  0  0  0  0
  124.8800  129.8900   64.7130 C   0  0  0  0  0  0  0  0  0  0  0  0
  124.3360  129.4990   65.9340 C   0  0  0  0  0  0  0  0  0  0  0  0
  125.0870  128.7570   66.8420 C   0  0  0  0  0  0  0  0  0  0  0  0
  126.3970  128.4020   66.5260 C   0  0  0  0  0  0  0  0  0  0  0  0
  129.1190  127.3950   69.6370 C   0  0  0  0  0  0  0  0  0  0  0  0
  128.7680  126.1150   70.0940 C   0  0  0  0  0  0  0  0  0  0  0  0
  128.8180  125.8110   71.4520 C   0  0  0  0  0  0  0  0  0  0  0  0
  129.2180  126.7750   72.3860 C   0  0  0  0  0  0  0  0  0  0  0  0
  129.2730  126.4490   73.8320 N   0  0  0  0  0  0  0  0  0  0  0  0
  128.3660  125.7800   74.3190 O   0  0  0  0  0  0  0  0  0  0  0  0
  130.2230  126.8580   74.4920 O   0  0  0  0  0  0  0  0  0  0  0  0
  129.5660  128.0520   71.9290 C   0  0  0  0  0  0  0  0  0  0  0  0
  129.5160  128.3590   70.5730 C   0  0  0  0  0  0  0  0  0  0  0  0
  130.2741  127.7073   66.1279 H   0  0  0  0  0  0  0  0  0  0  0  0
  131.2691  124.0383   65.2312 H   0  0  0  0  0  0  0  0  0  0  0  0
  132.9316  126.2821   64.2665 H   0  0  0  0  0  0  0  0  0  0  0  0
  133.3817  125.5863   65.8549 H   0  0  0  0  0  0  0  0  0  0  0  0
  133.6112  125.5263   62.6432 H   0  0  0  0  0  0  0  0  0  0  0  0
  135.0655  124.5744   63.1072 H   0  0  0  0  0  0  0  0  0  0  0  0
  134.4368  121.8666   63.1783 H   0  0  0  0  0  0  0  0  0  0  0  0
  133.8042  120.0948   61.5373 H   0  0  0  0  0  0  0  0  0  0  0  0
  132.6019  120.7161   59.4456 H   0  0  0  0  0  0  0  0  0  0  0  0
  132.0200  123.0929   58.9835 H   0  0  0  0  0  0  0  0  0  0  0  0
  132.6453  124.8653   60.6245 H   0  0  0  0  0  0  0  0  0  0  0  0
  130.8330  126.4984   63.5992 H   0  0  0  0  0  0  0  0  0  0  0  0
  130.2830  123.1914   64.5948 H   0  0  0  0  0  0  0  0  0  0  0  0
  128.5435  123.5295   64.2794 H   0  0  0  0  0  0  0  0  0  0  0  0
  130.8585  121.0743   63.8257 H   0  0  0  0  0  0  0  0  0  0  0  0
  130.8589  119.3308   62.0412 H   0  0  0  0  0  0  0  0  0  0  0  0
  129.5363  119.6876   59.9608 H   0  0  0  0  0  0  0  0  0  0  0  0
  128.2239  121.7787   59.6437 H   0  0  0  0  0  0  0  0  0  0  0  0
  128.2253  123.5270   61.4234 H   0  0  0  0  0  0  0  0  0  0  0  0
  128.4470  125.3421   65.2994 H   0  0  0  0  0  0  0  0  0  0  0  0
  128.9870  128.3886   65.8756 H   0  0  0  0  0  0  0  0  0  0  0  0
  128.7944  129.1223   64.2439 H   0  0  0  0  0  0  0  0  0  0  0  0
  126.6213  129.8389   63.4313 H   0  0  0  0  0  0  0  0  0  0  0  0
  124.2785  130.4760   64.0024 H   0  0  0  0  0  0  0  0  0  0  0  0
  123.3021  129.7793   66.1838 H   0  0  0  0  0  0  0  0  0  0  0  0
  124.6484  128.4526   67.8038 H   0  0  0  0  0  0  0  0  0  0  0  0
  126.9943  127.8129   67.2375 H   0  0  0  0  0  0  0  0  0  0  0  0
  128.4510  125.3462   69.3739 H   0  0  0  0  0  0  0  0  0  0  0  0
  128.5405  124.8033   71.7948 H   0  0  0  0  0  0  0  0  0  0  0  0
  129.8822  128.8205   72.6497 H   0  0  0  0  0  0  0  0  0  0  0  0
  129.7908  129.3682   70.2325 H   0  0  0  0  0  0  0  0  0  0  0  0
  1  2  2  0
  2  3  1  0
  3  4  1  0
  4  5  1  0
  5  6  1  0
  6  7  1  0
  7  8  1  0
  8  9  1  0
  9 10  1  0
 10 11  2  0
 11 12  1  0
 12 13  2  0
 13 14  1  0
 14 15  2  0
  6 16  1  0
 16 17  1  0
 17 18  1  0
 18 19  1  0
 19 20  2  0
 20 21  1  0
 21 22  2  0
 22 23  1  0
 23 24  2  0
 16 25  1  0
 25 26  1  0
 26 27  1  0
 27 28  1  0
 28 29  2  0
 29 30  1  0
 30 31  2  0
 31 32  1  0
 32 33  2  0
  2 34  1  0
 34 35  2  0
 35 36  1  0
 36 37  2  0
 37 38  1  0
 38 39  2  0
 38 40  1  0
 37 41  1  0
 41 42  2  0
 25  4  1  0
 33 28  1  0
 42 34  1  0
 15 10  1  0
 24 19  1  0
  4 43  1  6
  6 44  1  1
  7 45  1  0
  7 46  1  0
  9 47  1  0
  9 48  1  0
 11 49  1  0
 12 50  1  0
 13 51  1  0
 14 52  1  0
 15 53  1  0
 16 54  1  6
 18 55  1  0
 18 56  1  0
 20 57  1  0
 21 58  1  0
 22 59  1  0
 23 60  1  0
 24 61  1  0
 25 62  1  1
 27 63  1  0
 27 64  1  0
 29 65  1  0
 30 66  1  0
 31 67  1  0
 32 68  1  0
 33 69  1  0
 35 70  1  0
 36 71  1  0
 41 72  1  0
 42 73  1  0
M  CHG  2  38   1  40  -1
M  END
>  <Binding energies>  (1) 
[-10.24]

>  <Ligand effiencies>  (1) 
[-0.2438095238095238]

>  <Interactions>  (1) 
["V-A:GLU:543:CD:4908, V-A:HIS:456:CD2:4068, V-B:GLU:543:CD:9880, V-B:TYR:539:CD2:9846, V-A:LEU:475:CD1:4258, V-B:GLU:543:CB:9878, H-B:HIS:456:NE2:9041, H-A:TYR:484:OH:4348, V-B:HIS:456:CE1:9040, V-B:TYR:539:CE2:9848, V-A:HIS:456:CE1:4069, V-B:GLU:543:CG:9879, V-B:ARG:545:CD:9895, V-B:ARG:545:CZ:9898, V-B:ARG:545:CG:9894, V-A:ARG:545:CZ:4926, V-B:PRO:540:CA:9855, V-B:ALA:541:CB:9864, H-B:LYS:547:NZ:9923, V-A:ILE:369:CD1:3239, V-A:GLY:453:CA:4044, V-A:GLY:454:CA:4049, V-A:GLY:453:C:4042, V-A:ILE:369:CG2:3237, H-A:GLY:454:N:4050, V-A:PRO:482:CB:4326, V-B:HIS:456:CD2:9039, H-A:LYS:547:NZ:4951"]

$$$$
RR8_B_Rahimova_2017
     RDKit          3D

 73 77  0  0  0  0  0  0  0  0999 V2000
  127.0890  127.2040   61.5060 O   0  0  0  0  0  0  0  0  0  0  0  0
  127.6750  126.1190   61.4490 C   0  0  0  0  0  0  0  0  0  0  0  0
  128.6050  125.6940   62.3580 O   0  0  0  0  0  0  0  0  0  0  0  0
  129.6520  126.5710   62.6960 C   0  0  2  0  0  0  0  0  0  0  0  0
  130.8560  125.8890   62.9050 O   0  0  0  0  0  0  0  0  0  0  0  0
  131.0210  125.5290   64.2760 C   0  0  2  0  0  0  0  0  0  0  0  0
  131.1840  124.0030   64.3900 C   0  0  0  0  0  0  0  0  0  0  0  0
  130.5780  123.3820   63.2630 O   0  0  0  0  0  0  0  0  0  0  0  0
  131.4510  123.1460   62.1690 C   0  0  0  0  0  0  0  0  0  0  0  0
  131.1530  121.7770   61.5760 C   0  0  0  0  0  0  0  0  0  0  0  0
  129.8570  121.2590   61.6440 C   0  0  0  0  0  0  0  0  0  0  0  0
  129.5820  119.9960   61.1250 C   0  0  0  0  0  0  0  0  0  0  0  0
  130.6070  119.2560   60.5380 C   0  0  0  0  0  0  0  0  0  0  0  0
  131.9000  119.7690   60.4610 C   0  0  0  0  0  0  0  0  0  0  0  0
  132.1750  121.0300   60.9830 C   0  0  0  0  0  0  0  0  0  0  0  0
  129.7880  126.1150   64.9730 C   0  0  1  0  0  0  0  0  0  0  0  0
  130.1410  126.5740   66.2810 O   0  0  0  0  0  0  0  0  0  0  0  0
  129.3840  127.6630   66.8150 C   0  0  0  0  0  0  0  0  0  0  0  0
  128.8480  127.3640   68.2110 C   0  0  0  0  0  0  0  0  0  0  0  0
  127.7670  126.4940   68.3760 C   0  0  0  0  0  0  0  0  0  0  0  0
  127.3010  126.1980   69.6540 C   0  0  0  0  0  0  0  0  0  0  0  0
  127.9150  126.7770   70.7630 C   0  0  0  0  0  0  0  0  0  0  0  0
  128.9900  127.6490   70.6060 C   0  0  0  0  0  0  0  0  0  0  0  0
  129.4590  127.9420   69.3280 C   0  0  0  0  0  0  0  0  0  0  0  0
  129.3470  127.2350   64.0370 C   0  0  2  0  0  0  0  0  0  0  0  0
  127.9660  127.5310   64.2320 O   0  0  0  0  0  0  0  0  0  0  0  0
  127.6190  128.9060   64.1760 C   0  0  0  0  0  0  0  0  0  0  0  0
  126.3400  129.1060   64.9700 C   0  0  0  0  0  0  0  0  0  0  0  0
  125.2200  129.6860   64.3680 C   0  0  0  0  0  0  0  0  0  0  0  0
  124.0580  129.8830   65.1110 C   0  0  0  0  0  0  0  0  0  0  0  0
  124.0210  129.5000   66.4500 C   0  0  0  0  0  0  0  0  0  0  0  0
  125.1340  128.9200   67.0550 C   0  0  0  0  0  0  0  0  0  0  0  0
  126.2950  128.7220   66.3130 C   0  0  0  0  0  0  0  0  0  0  0  0
  127.4650  125.1300   60.3390 C   0  0  0  0  0  0  0  0  0  0  0  0
  127.8540  123.7870   60.4620 C   0  0  0  0  0  0  0  0  0  0  0  0
  127.6550  122.8950   59.4140 C   0  0  0  0  0  0  0  0  0  0  0  0
  127.0730  123.3220   58.2140 C   0  0  0  0  0  0  0  0  0  0  0  0
  126.8860  122.3750   57.0880 N   0  0  0  0  0  0  0  0  0  0  0  0
  125.7480  122.0050   56.8130 O   0  0  0  0  0  0  0  0  0  0  0  0
  127.8760  121.9970   56.4660 O   0  0  0  0  0  0  0  0  0  0  0  0
  126.6790  124.6610   58.0940 C   0  0  0  0  0  0  0  0  0  0  0  0
  126.8710  125.5530   59.1450 C   0  0  0  0  0  0  0  0  0  0  0  0
  129.7403  127.2852   61.8641 H   0  0  0  0  0  0  0  0  0  0  0  0
  131.9271  125.9264   64.7567 H   0  0  0  0  0  0  0  0  0  0  0  0
  132.2538  123.7485   64.4192 H   0  0  0  0  0  0  0  0  0  0  0  0
  130.7004  123.6477   65.3119 H   0  0  0  0  0  0  0  0  0  0  0  0
  131.2976  123.9200   61.4026 H   0  0  0  0  0  0  0  0  0  0  0  0
  132.4944  123.1789   62.5157 H   0  0  0  0  0  0  0  0  0  0  0  0
  129.0531  121.8493   62.1079 H   0  0  0  0  0  0  0  0  0  0  0  0
  128.5629  119.5854   61.1780 H   0  0  0  0  0  0  0  0  0  0  0  0
  130.3928  118.2566   60.1313 H   0  0  0  0  0  0  0  0  0  0  0  0
  132.7005  119.1800   59.9896 H   0  0  0  0  0  0  0  0  0  0  0  0
  133.1951  121.4380   60.9289 H   0  0  0  0  0  0  0  0  0  0  0  0
  128.9729  125.3950   65.1379 H   0  0  0  0  0  0  0  0  0  0  0  0
  130.0303  128.5516   66.8668 H   0  0  0  0  0  0  0  0  0  0  0  0
  128.5225  127.8317   66.1522 H   0  0  0  0  0  0  0  0  0  0  0  0
  127.2844  126.0432   67.4963 H   0  0  0  0  0  0  0  0  0  0  0  0
  126.4526  125.5107   69.7877 H   0  0  0  0  0  0  0  0  0  0  0  0
  127.5470  126.5430   71.7729 H   0  0  0  0  0  0  0  0  0  0  0  0
  129.4660  128.1038   71.4872 H   0  0  0  0  0  0  0  0  0  0  0  0
  130.3093  128.6275   69.1973 H   0  0  0  0  0  0  0  0  0  0  0  0
  129.8345  128.2125   64.1666 H   0  0  0  0  0  0  0  0  0  0  0  0
  128.4267  129.5118   64.6125 H   0  0  0  0  0  0  0  0  0  0  0  0
  127.4703  129.2178   63.1317 H   0  0  0  0  0  0  0  0  0  0  0  0
  125.2558  129.9862   63.3104 H   0  0  0  0  0  0  0  0  0  0  0  0
  123.1735  130.3390   64.6424 H   0  0  0  0  0  0  0  0  0  0  0  0
  123.1033  129.6572   67.0358 H   0  0  0  0  0  0  0  0  0  0  0  0
  125.0955  128.6203   68.1127 H   0  0  0  0  0  0  0  0  0  0  0  0
  127.1770  128.2633   66.7837 H   0  0  0  0  0  0  0  0  0  0  0  0
  128.3201  123.4373   61.3950 H   0  0  0  0  0  0  0  0  0  0  0  0
  127.9577  121.8437   59.5287 H   0  0  0  0  0  0  0  0  0  0  0  0
  126.2136  125.0106   57.1606 H   0  0  0  0  0  0  0  0  0  0  0  0
  126.5528  126.6003   59.0359 H   0  0  0  0  0  0  0  0  0  0  0  0
  1  2  2  0
  2  3  1  0
  3  4  1  0
  4  5  1  0
  5  6  1  0
  6  7  1  0
  7  8  1  0
  8  9  1  0
  9 10  1  0
 10 11  2  0
 11 12  1  0
 12 13  2  0
 13 14  1  0
 14 15  2  0
  6 16  1  0
 16 17  1  0
 17 18  1  0
 18 19  1  0
 19 20  2  0
 20 21  1  0
 21 22  2  0
 22 23  1  0
 23 24  2  0
 16 25  1  0
 25 26  1  0
 26 27  1  0
 27 28  1  0
 28 29  2  0
 29 30  1  0
 30 31  2  0
 31 32  1  0
 32 33  2  0
  2 34  1  0
 34 35  2  0
 35 36  1  0
 36 37  2  0
 37 38  1  0
 38 39  2  0
 38 40  1  0
 37 41  1  0
 41 42  2  0
 25  4  1  0
 33 28  1  0
 42 34  1  0
 15 10  1  0
 24 19  1  0
  4 43  1  6
  6 44  1  1
  7 45  1  0
  7 46  1  0
  9 47  1  0
  9 48  1  0
 11 49  1  0
 12 50  1  0
 13 51  1  0
 14 52  1  0
 15 53  1  0
 16 54  1  1
 18 55  1  0
 18 56  1  0
 20 57  1  0
 21 58  1  0
 22 59  1  0
 23 60  1  0
 24 61  1  0
 25 62  1  1
 27 63  1  0
 27 64  1  0
 29 65  1  0
 30 66  1  0
 31 67  1  0
 32 68  1  0
 33 69  1  0
 35 70  1  0
 36 71  1  0
 41 72  1  0
 42 73  1  0
M  CHG  2  38   1  40  -1
M  END
>  <Binding energies>  (1) 
[-9.24]

>  <Ligand effiencies>  (1) 
[-0.22]

>  <Interactions>  (1) 
["V-A:GLU:543:CD:4908, V-B:GLU:543:CD:9880, V-B:TYR:539:CD2:9846, V-A:LEU:475:CD1:4258, V-B:GLU:543:CB:9878, V-B:GLU:543:C:9874, V-B:HIS:456:CE1:9040, V-B:TYR:539:CE2:9848, V-A:HIS:456:CE1:4069, V-B:ARG:545:CD:9895, V-B:ARG:545:CZ:9898, V-B:ARG:545:CG:9894, V-A:GLU:543:CB:4906, V-B:PRO:540:CA:9855, V-B:GLY:544:C:9884, V-B:ALA:541:CB:9864, V-B:TYR:539:C:9839, V-A:GLU:543:CG:4907, V-B:PRO:540:N:9856, V-B:GLY:454:CA:9020, V-A:TRP:381:CZ2:3370, V-B:ALA:541:CA:9862, V-A:PRO:482:CG:4327, V-A:PRO:482:CB:4326, V-A:TRP:381:CH2:3372, V-B:GLY:544:CA:9886, V-B:PRO:540:CD:9859, V-B:TYR:539:CA:9841, H-B:TYR:539:N:9842, V-A:TRP:381:CZ3:3371"]

$$$$
RR9_Rahimova_2017
     RDKit          3D

 64 68  0  0  0  0  0  0  0  0999 V2000
  130.9590  122.5750   72.5160 C   0  0  0  0  0  0  0  0  0  0  0  0
  129.9380  123.1320   71.5200 C   0  0  0  0  0  0  0  0  0  0  0  0
  130.5440  124.1930   70.7880 O   0  0  0  0  0  0  0  0  0  0  0  0
  129.7550  125.0180   70.0100 C   0  0  0  0  0  0  0  0  0  0  0  0
  129.8190  124.8240   68.6320 C   0  0  0  0  0  0  0  0  0  0  0  0
  129.0620  125.6090   67.7690 C   0  0  0  0  0  0  0  0  0  0  0  0
  128.2160  126.6150   68.2620 C   0  0  0  0  0  0  0  0  0  0  0  0
  127.4010  127.4680   67.3360 C   0  0  0  0  0  0  0  0  0  0  0  0
  127.8430  127.7800   66.0410 C   0  0  0  0  0  0  0  0  0  0  0  0
  127.0690  128.5700   65.1730 C   0  0  0  0  0  0  0  0  0  0  0  0
  127.5510  128.7850   63.7640 C   0  0  0  0  0  0  0  0  0  0  0  0
  128.5470  129.4740   63.5450 O   0  0  0  0  0  0  0  0  0  0  0  0
  126.8140  128.2020   62.7980 N   0  0  0  0  0  0  0  0  0  0  0  0
  127.0030  128.3710   61.3530 C   0  0  0  0  0  0  0  0  0  0  0  0
  126.4630  129.7200   60.8260 C   0  0  0  0  0  0  0  0  0  0  0  0
  126.0010  129.6970   59.3730 C   0  0  0  0  0  0  0  0  0  0  0  0
  126.8610  129.2380   58.3700 C   0  0  0  0  0  0  0  0  0  0  0  0
  126.4240  129.1860   57.0490 C   0  0  0  0  0  0  0  0  0  0  0  0
  125.1310  129.5980   56.7340 C   0  0  0  0  0  0  0  0  0  0  0  0
  124.2700  130.0610   57.7270 C   0  0  0  0  0  0  0  0  0  0  0  0
  124.7060  130.1120   59.0490 C   0  0  0  0  0  0  0  0  0  0  0  0
  125.8430  129.0550   65.6910 C   0  0  0  0  0  0  0  0  0  0  0  0
  124.7410  129.8900   65.2740 C   0  0  0  0  0  0  0  0  0  0  0  0
  124.5640  130.6660   64.0110 C   0  0  0  0  0  0  0  0  0  0  0  0
  125.2530  131.8680   63.8220 C   0  0  0  0  0  0  0  0  0  0  0  0
  125.0750  132.5990   62.6500 C   0  0  0  0  0  0  0  0  0  0  0  0
  124.2090  132.1280   61.6610 C   0  0  0  0  0  0  0  0  0  0  0  0
  124.0000  132.9340   60.3920 C   0  0  0  0  0  0  0  0  0  0  0  0
  123.5180  130.9300   61.8470 C   0  0  0  0  0  0  0  0  0  0  0  0
  123.7000  130.2000   63.0180 C   0  0  0  0  0  0  0  0  0  0  0  0
  123.8170  129.9340   66.2080 N   0  0  0  0  0  0  0  0  0  0  0  0
  124.2560  129.2230   67.2580 N   0  0  0  0  0  0  0  0  0  0  0  0
  125.4910  128.6720   67.0080 C   0  0  0  0  0  0  0  0  0  0  0  0
  126.2140  127.9160   67.8330 N   0  0  0  0  0  0  0  0  0  0  0  0
  128.1590  126.8060   69.6500 C   0  0  0  0  0  0  0  0  0  0  0  0
  128.9150  126.0190   70.5160 C   0  0  0  0  0  0  0  0  0  0  0  0
  130.6113  122.7647   73.5422 H   0  0  0  0  0  0  0  0  0  0  0  0
  131.0694  121.4916   72.3606 H   0  0  0  0  0  0  0  0  0  0  0  0
  131.9297  123.0685   72.3606 H   0  0  0  0  0  0  0  0  0  0  0  0
  129.6248  122.3367   70.8277 H   0  0  0  0  0  0  0  0  0  0  0  0
  129.0550  123.5059   72.0590 H   0  0  0  0  0  0  0  0  0  0  0  0
  130.4750  124.0419   68.2223 H   0  0  0  0  0  0  0  0  0  0  0  0
  129.1271  125.4392   66.6841 H   0  0  0  0  0  0  0  0  0  0  0  0
  128.8159  127.3982   65.6978 H   0  0  0  0  0  0  0  0  0  0  0  0
  126.0660  127.5840   63.0770 H   0  0  0  0  0  0  0  0  0  0  0  0
  128.0789  128.3136   61.1313 H   0  0  0  0  0  0  0  0  0  0  0  0
  126.4368  127.5721   60.8519 H   0  0  0  0  0  0  0  0  0  0  0  0
  125.6086  130.0155   61.4527 H   0  0  0  0  0  0  0  0  0  0  0  0
  127.3012  130.4307   60.8745 H   0  0  0  0  0  0  0  0  0  0  0  0
  127.8822  128.9182   58.6247 H   0  0  0  0  0  0  0  0  0  0  0  0
  127.0962  128.8215   56.2582 H   0  0  0  0  0  0  0  0  0  0  0  0
  124.7861  129.5574   55.6903 H   0  0  0  0  0  0  0  0  0  0  0  0
  123.2510  130.3846   57.4682 H   0  0  0  0  0  0  0  0  0  0  0  0
  124.0319  130.4785   59.8373 H   0  0  0  0  0  0  0  0  0  0  0  0
  125.9369  132.2369   64.6005 H   0  0  0  0  0  0  0  0  0  0  0  0
  125.6156  133.5457   62.5037 H   0  0  0  0  0  0  0  0  0  0  0  0
  123.7319  133.9680   60.6544 H   0  0  0  0  0  0  0  0  0  0  0  0
  124.9277  132.9345   59.8010 H   0  0  0  0  0  0  0  0  0  0  0  0
  123.1889  132.4836   59.8010 H   0  0  0  0  0  0  0  0  0  0  0  0
  122.8311  130.5634   61.0700 H   0  0  0  0  0  0  0  0  0  0  0  0
  123.1609  129.2520   63.1618 H   0  0  0  0  0  0  0  0  0  0  0  0
  123.6960  129.1410   68.0950 H   0  0  0  0  0  0  0  0  0  0  0  0
  127.5066  127.5901   70.0618 H   0  0  0  0  0  0  0  0  0  0  0  0
  128.8523  126.1841   71.6017 H   0  0  0  0  0  0  0  0  0  0  0  0
  1  2  1  0
  2  3  1  0
  3  4  1  0
  4  5  2  0
  5  6  1  0
  6  7  2  0
  7  8  1  0
  8  9  2  0
  9 10  1  0
 10 11  1  0
 11 12  2  0
 11 13  1  0
 13 14  1  0
 14 15  1  0
 15 16  1  0
 16 17  2  0
 17 18  1  0
 18 19  2  0
 19 20  1  0
 20 21  2  0
 10 22  2  0
 22 23  1  0
 23 24  1  0
 24 25  2  0
 25 26  1  0
 26 27  2  0
 27 28  1  0
 27 29  1  0
 29 30  2  0
 23 31  2  0
 31 32  1  0
 32 33  1  0
 33 34  2  0
  7 35  1  0
 35 36  2  0
 36  4  1  0
 34  8  1  0
 21 16  1  0
 33 22  1  0
 30 24  1  0
  1 37  1  0
  1 38  1  0
  1 39  1  0
  2 40  1  0
  2 41  1  0
  5 42  1  0
  6 43  1  0
  9 44  1  0
 13 45  1  0
 14 46  1  0
 14 47  1  0
 15 48  1  0
 15 49  1  0
 17 50  1  0
 18 51  1  0
 19 52  1  0
 20 53  1  0
 21 54  1  0
 25 55  1  0
 26 56  1  0
 28 57  1  0
 28 58  1  0
 28 59  1  0
 29 60  1  0
 30 61  1  0
 32 62  1  0
 35 63  1  0
 36 64  1  0
M  END
>  <Binding energies>  (1) 
[-8.73]

>  <Ligand effiencies>  (1) 
[-0.22973684210526316]

>  <Interactions>  (1) 
["H-A:HIS:456:NE2:4070, V-A:HIS:456:CD2:4068, V-B:GLU:543:CD:9880, V-B:GLU:543:CB:9878, V-A:TYR:484:CZ:4347, V-B:GLU:543:C:9874, V-A:TYR:484:CE1:4345, V-B:HIS:456:CE1:9040, V-A:HIS:456:CE1:4069, V-B:ARG:545:CD:9895, V-B:ARG:545:CZ:9898, H-B:TYR:484:OH:9319, V-B:ARG:545:CG:9894, V-A:TYR:539:CE2:4876, V-B:ILE:369:CG2:8208, V-B:ILE:369:CD1:8210, V-B:LEU:475:CD1:9229, V-B:GLY:454:CA:9020, H-B:GLU:543:OE2:9882, H-B:GLY:454:N:9021, H-B:ARG:545:NE:9896, V-B:ASP:366:CG:8184, H-B:GLU:543:OE1:9881, V-B:TYR:531:CE1:9764, V-B:ASP:366:CA:8181, V-B:ASP:366:CB:8183, V-B:TYR:531:CZ:9766, V-B:ILE:455:C:9023, V-A:TYR:484:CG:4342, V-A:TYR:484:CE2:4346, V-A:HIS:456:CG:4066, V-A:TYR:484:CD1:4343, V-A:TYR:484:CD2:4344, H-B:ILE:455:N:9026, V-A:TYR:484:CB:4341, V-B:ARG:545:CB:9893, H-B:HIS:456:ND1:9038, H-B:ILE:455:O:9024"]

$$$$
