1a_Grossjean_2025
     RDKit          3D

 26 27  0  0  0  0  0  0  0  0999 V2000
  124.6400  127.2380   73.6670 C   0  0  0  0  0  0  0  0  0  0  0  0
  126.1130  127.3200   74.0780 C   0  0  0  0  0  0  0  0  0  0  0  0
  126.9340  127.2230   72.9220 O   0  0  0  0  0  0  0  0  0  0  0  0
  127.9700  126.3460   72.8690 C   0  0  0  0  0  0  0  0  0  0  0  0
  128.4880  125.8450   73.8720 O   0  0  0  0  0  0  0  0  0  0  0  0
  128.4350  126.0590   71.4700 C   0  0  0  0  0  0  0  0  0  0  0  0
  129.3520  125.0220   71.2530 C   0  0  0  0  0  0  0  0  0  0  0  0
  129.8040  124.7350   69.9690 C   0  0  0  0  0  0  0  0  0  0  0  0
  129.3530  125.4760   68.8770 C   0  0  0  0  0  0  0  0  0  0  0  0
  129.8790  125.1010   67.6250 N   0  0  0  0  0  0  0  0  0  0  0  0
  129.5470  125.5160   66.3840 C   0  0  0  0  0  0  0  0  0  0  0  0
  128.6770  126.3460   66.1160 O   0  0  0  0  0  0  0  0  0  0  0  0
  130.3430  124.8770   65.2440 C   0  0  0  0  0  0  0  0  0  0  0  0
  130.1720  123.0680   65.2190 S   0  0  0  0  0  0  0  0  0  0  0  0
  131.0360  122.4700   63.7840 C   0  0  0  0  0  0  0  0  0  0  0  0
  130.3030  121.6250   63.0160 N   0  0  0  0  0  0  0  0  0  0  0  0
  130.8660  121.1060   61.8990 C   0  0  0  0  0  0  0  0  0  0  0  0
  129.9920  120.1590   61.0980 C   0  0  0  0  0  0  0  0  0  0  0  0
  132.1660  121.4110   61.5010 C   0  0  0  0  0  0  0  0  0  0  0  0
  132.9230  122.2980   62.2740 C   0  0  0  0  0  0  0  0  0  0  0  0
  134.3400  122.6300   61.8090 C   0  0  0  0  0  0  0  0  0  0  0  0
  132.3540  122.8550   63.4430 C   0  0  0  0  0  0  0  0  0  0  0  0
  133.1110  123.8240   64.2410 C   0  0  0  0  0  0  0  0  0  0  0  0
  133.7100  124.5870   64.8700 N   0  0  0  0  0  0  0  0  0  0  0  0
  128.4280  126.5110   69.0830 C   0  0  0  0  0  0  0  0  0  0  0  0
  127.9770  126.7980   70.3680 C   0  0  0  0  0  0  0  0  0  0  0  0
  1  2  1  0
  2  3  1  0
  3  4  1  0
  4  5  2  0
  4  6  1  0
  6  7  2  0
  7  8  1  0
  8  9  2  0
  9 10  1  0
 10 11  1  0
 11 12  2  0
 11 13  1  0
 13 14  1  0
 14 15  1  0
 15 16  2  0
 16 17  1  0
 17 18  1  0
 17 19  2  0
 19 20  1  0
 20 21  1  0
 20 22  2  0
 22 23  1  0
 23 24  3  0
  9 25  1  0
 25 26  2  0
 26  6  1  0
 22 15  1  0
M  END
>  <Binding energies>  (1) 
[-8.06]

>  <Ligand effiencies>  (1) 
[-0.2985185185185185]

>  <Interactions>  (1) 
["V-A:HIS:456:CD2:4068, V-B:TYR:539:CD2:9846, V-A:LEU:475:CD1:4258, V-B:GLU:543:CB:9878, H-A:TYR:484:OH:4348, V-A:TYR:484:CZ:4347, V-B:GLU:543:C:9874, V-A:TYR:484:CE1:4345, V-B:HIS:456:CE1:9040, V-A:HIS:456:CE1:4069, V-B:ARG:545:CA:9891, V-B:GLY:544:C:9884, V-B:ALA:541:CB:9864, H-B:LYS:547:NZ:9923, V-A:ILE:369:CD1:3239, V-A:GLY:454:CA:4049, H-A:GLY:454:N:4050, V-A:PRO:482:CG:4327, H-B:GLU:543:O:9875, V-B:HIS:456:CG:9037, V-A:HIS:456:CG:4066, H-A:HIS:456:ND1:4067, V-B:HIS:456:CB:9036, V-B:ARG:545:C:9889, V-B:HIS:456:CA:9034"]

$$$$
1aa_Ghoteimi_2023
     RDKit          3D

 40 43  0  0  0  0  0  0  0  0999 V2000
  132.8230  131.0180   57.3700 C   0  0  0  0  0  0  0  0  0  0  0  0
  131.4770  131.5080   56.8300 C   0  0  0  0  0  0  0  0  0  0  0  0
  130.9500  132.5030   57.7000 O   0  0  0  0  0  0  0  0  0  0  0  0
  129.6530  132.4690   58.0990 C   0  0  0  0  0  0  0  0  0  0  0  0
  128.7160  132.8720   57.4030 O   0  0  0  0  0  0  0  0  0  0  0  0
  129.4700  131.8920   59.4740 C   0  0  0  0  0  0  0  0  0  0  0  0
  130.5460  131.3750   60.2110 C   0  0  0  0  0  0  0  0  0  0  0  0
  130.3460  130.8470   61.4850 C   0  0  0  0  0  0  0  0  0  0  0  0
  129.0600  130.8290   62.0450 C   0  0  0  0  0  0  0  0  0  0  0  0
  128.7380  130.3210   63.3170 N   0  0  0  0  0  0  0  0  0  0  0  0
  128.0170  130.8690   64.3230 C   0  0  0  0  0  0  0  0  0  0  0  0
  127.4830  131.9770   64.2830 O   0  0  0  0  0  0  0  0  0  0  0  0
  127.8570  130.0390   65.6070 C   0  0  0  0  0  0  0  0  0  0  0  0
  127.6310  128.6600   65.2880 O   0  0  0  0  0  0  0  0  0  0  0  0
  128.4070  127.6690   65.8710 C   0  0  0  0  0  0  0  0  0  0  0  0
  128.2590  127.4410   67.2050 N   0  0  0  0  0  0  0  0  0  0  0  0
  129.0120  126.4880   67.8160 C   0  0  0  0  0  0  0  0  0  0  0  0
  128.7870  126.2970   69.2880 C   0  0  0  0  0  0  0  0  0  0  0  0
  127.8720  127.0960   69.9890 C   0  0  0  0  0  0  0  0  0  0  0  0
  127.6630  126.9220   71.3540 C   0  0  0  0  0  0  0  0  0  0  0  0
  128.3590  125.9440   72.0610 C   0  0  0  0  0  0  0  0  0  0  0  0
  128.0880  125.8440   73.4120 O   0  0  0  0  0  0  0  0  0  0  0  0
  127.0510  126.6430   73.9720 C   0  0  0  0  0  0  0  0  0  0  0  0
  129.2730  125.1340   71.3740 C   0  0  0  0  0  0  0  0  0  0  0  0
  129.4790  125.3090   70.0090 C   0  0  0  0  0  0  0  0  0  0  0  0
  129.9260  125.7220   67.0820 C   0  0  0  0  0  0  0  0  0  0  0  0
  130.0900  125.9290   65.7060 C   0  0  0  0  0  0  0  0  0  0  0  0
  131.0740  125.0730   64.9780 C   0  0  0  0  0  0  0  0  0  0  0  0
  132.4400  125.3700   65.0330 C   0  0  0  0  0  0  0  0  0  0  0  0
  133.3640  124.5710   64.3660 C   0  0  0  0  0  0  0  0  0  0  0  0
  132.9450  123.4580   63.6360 C   0  0  0  0  0  0  0  0  0  0  0  0
  133.9320  122.7250   63.0070 O   0  0  0  0  0  0  0  0  0  0  0  0
  134.4190  123.1580   61.7420 C   0  0  0  0  0  0  0  0  0  0  0  0
  131.5760  123.1530   63.5860 C   0  0  0  0  0  0  0  0  0  0  0  0
  130.6530  123.9530   64.2530 C   0  0  0  0  0  0  0  0  0  0  0  0
  129.3150  126.9370   65.0860 C   0  0  0  0  0  0  0  0  0  0  0  0
  129.4490  127.2550   63.6640 C   0  0  0  0  0  0  0  0  0  0  0  0
  129.5540  127.5070   62.5390 N   0  0  0  0  0  0  0  0  0  0  0  0
  127.9870  131.3400   61.3120 C   0  0  0  0  0  0  0  0  0  0  0  0
  128.1890  131.8670   60.0410 C   0  0  0  0  0  0  0  0  0  0  0  0
  1  2  1  0
  2  3  1  0
  3  4  1  0
  4  5  2  0
  4  6  1  0
  6  7  2  0
  7  8  1  0
  8  9  2  0
  9 10  1  0
 10 11  1  0
 11 12  2  0
 11 13  1  0
 13 14  1  0
 14 15  1  0
 15 16  2  0
 16 17  1  0
 17 18  1  0
 18 19  2  0
 19 20  1  0
 20 21  2  0
 21 22  1  0
 22 23  1  0
 21 24  1  0
 24 25  2  0
 17 26  2  0
 26 27  1  0
 27 28  1  0
 28 29  2  0
 29 30  1  0
 30 31  2  0
 31 32  1  0
 32 33  1  0
 31 34  1  0
 34 35  2  0
 27 36  2  0
 36 37  1  0
 37 38  3  0
  9 39  1  0
 39 40  2  0
 40  6  1  0
 36 15  1  0
 25 18  1  0
 35 28  1  0
M  END
>  <Binding energies>  (2) 
[-8.55]

>  <Ligand effiencies>  (2) 
[-0.20853658536585368]

>  <Interactions>  (2) 
["V-A:GLU:543:CD:4908, V-A:HIS:456:CD2:4068, V-A:LEU:475:CD1:4258, V-B:HIS:456:CE1:9040, V-A:HIS:456:CE1:4069, H-B:TYR:484:OH:9319, V-A:PRO:540:CA:4883, V-A:GLU:543:CB:4906, V-A:PRO:540:CB:4885, V-A:TYR:539:C:4867, V-A:ARG:545:CZ:4926, V-B:GLY:544:C:9884, H-B:LYS:547:NZ:9923, V-A:ILE:369:CD1:3239, V-A:GLY:454:CA:4049, H-A:GLY:454:N:4050, H-A:GLU:543:OE1:4909, H-A:GLU:543:OE2:4910, V-A:PRO:540:N:4884, V-B:LYS:547:CD:9921, V-B:LYS:547:CE:9922, V-A:LEU:363:CD1:3189"]

$$$$
1b_Grossjean_2025
     RDKit          3D

 25 26  0  0  0  0  0  0  0  0999 V2000
  127.1330  126.5780   73.9210 C   0  0  0  0  0  0  0  0  0  0  0  0
  128.3560  125.8580   73.9910 O   0  0  0  0  0  0  0  0  0  0  0  0
  129.4590  126.2890   73.3270 C   0  0  0  0  0  0  0  0  0  0  0  0
  130.3940  126.8820   73.8740 O   0  0  0  0  0  0  0  0  0  0  0  0
  129.4330  125.9660   71.8600 C   0  0  0  0  0  0  0  0  0  0  0  0
  129.9000  124.7410   71.3620 C   0  0  0  0  0  0  0  0  0  0  0  0
  129.8630  124.4730   69.9970 C   0  0  0  0  0  0  0  0  0  0  0  0
  129.3620  125.4190   69.1030 C   0  0  0  0  0  0  0  0  0  0  0  0
  129.3750  125.0420   67.7460 N   0  0  0  0  0  0  0  0  0  0  0  0
  129.9640  125.6330   66.6840 C   0  0  0  0  0  0  0  0  0  0  0  0
  130.6370  126.6620   66.7200 O   0  0  0  0  0  0  0  0  0  0  0  0
  129.7610  124.9230   65.3440 C   0  0  0  0  0  0  0  0  0  0  0  0
  130.0960  123.1400   65.4550 S   0  0  0  0  0  0  0  0  0  0  0  0
  130.9180  122.6600   63.9510 C   0  0  0  0  0  0  0  0  0  0  0  0
  130.1850  121.8300   63.1680 N   0  0  0  0  0  0  0  0  0  0  0  0
  130.7150  121.4040   61.9980 C   0  0  0  0  0  0  0  0  0  0  0  0
  129.8310  120.4910   61.1670 C   0  0  0  0  0  0  0  0  0  0  0  0
  131.9880  121.7730   61.5700 C   0  0  0  0  0  0  0  0  0  0  0  0
  132.7610  122.6100   62.3820 C   0  0  0  0  0  0  0  0  0  0  0  0
  134.1600  122.9880   61.9000 C   0  0  0  0  0  0  0  0  0  0  0  0
  132.2280  123.0680   63.6080 C   0  0  0  0  0  0  0  0  0  0  0  0
  133.0360  123.9100   64.4950 C   0  0  0  0  0  0  0  0  0  0  0  0
  133.6760  124.5740   65.1930 N   0  0  0  0  0  0  0  0  0  0  0  0
  128.8930  126.6470   69.5930 C   0  0  0  0  0  0  0  0  0  0  0  0
  128.9290  126.9130   70.9590 C   0  0  0  0  0  0  0  0  0  0  0  0
  1  2  1  0
  2  3  1  0
  3  4  2  0
  3  5  1  0
  5  6  2  0
  6  7  1  0
  7  8  2  0
  8  9  1  0
  9 10  1  0
 10 11  2  0
 10 12  1  0
 12 13  1  0
 13 14  1  0
 14 15  2  0
 15 16  1  0
 16 17  1  0
 16 18  2  0
 18 19  1  0
 19 20  1  0
 19 21  2  0
 21 22  1  0
 22 23  3  0
  8 24  1  0
 24 25  2  0
 25  5  1  0
 21 14  1  0
M  END
>  <Binding energies>  (3) 
[-7.85]

>  <Ligand effiencies>  (3) 
[-0.3019230769230769]

>  <Interactions>  (3) 
["H-A:HIS:456:NE2:4070, V-B:GLU:543:CA:9876, V-A:HIS:456:CD2:4068, V-B:TYR:539:CD2:9846, V-A:LEU:475:CD1:4258, V-B:GLU:543:CB:9878, H-A:TYR:484:OH:4348, V-A:TYR:484:CZ:4347, V-B:GLU:543:C:9874, V-A:TYR:484:CE1:4345, V-B:HIS:456:CE1:9040, V-A:HIS:456:CE1:4069, V-B:GLU:543:CG:9879, V-B:ALA:541:CB:9864, H-B:LYS:547:NZ:9923, V-A:ILE:369:CD1:3239, V-A:GLY:454:CA:4049, H-A:GLY:454:N:4050, H-B:GLU:543:O:9875, V-B:LYS:547:CD:9921, V-A:HIS:456:CG:4066, V-B:LYS:547:CE:9922, H-A:LYS:547:NZ:4951"]

$$$$
1c_Grossjean_2025
     RDKit          3D

 23 24  0  0  0  0  0  0  0  0999 V2000
  127.4090  126.8780   73.6640 C   0  0  0  0  0  0  0  0  0  0  0  0
  128.4640  125.9910   73.3100 O   0  0  0  0  0  0  0  0  0  0  0  0
  128.7210  125.7500   71.9740 C   0  0  0  0  0  0  0  0  0  0  0  0
  128.0270  126.5370   71.0550 C   0  0  0  0  0  0  0  0  0  0  0  0
  128.2180  126.3710   69.6860 C   0  0  0  0  0  0  0  0  0  0  0  0
  129.1230  125.4070   69.2170 C   0  0  0  0  0  0  0  0  0  0  0  0
  129.3850  125.1480   67.8580 N   0  0  0  0  0  0  0  0  0  0  0  0
  129.9710  125.9370   66.9330 C   0  0  0  0  0  0  0  0  0  0  0  0
  130.4140  127.0680   67.1350 O   0  0  0  0  0  0  0  0  0  0  0  0
  130.0800  125.3350   65.5310 C   0  0  0  0  0  0  0  0  0  0  0  0
  130.1060  123.5180   65.5750 S   0  0  0  0  0  0  0  0  0  0  0  0
  130.8930  122.9310   64.0890 C   0  0  0  0  0  0  0  0  0  0  0  0
  130.0920  122.1380   63.3310 N   0  0  0  0  0  0  0  0  0  0  0  0
  130.5820  121.6310   62.1760 C   0  0  0  0  0  0  0  0  0  0  0  0
  129.6260  120.7640   61.3790 C   0  0  0  0  0  0  0  0  0  0  0  0
  131.8800  121.8810   61.7370 C   0  0  0  0  0  0  0  0  0  0  0  0
  132.7220  122.6750   62.5210 C   0  0  0  0  0  0  0  0  0  0  0  0
  134.1470  122.9200   62.0270 C   0  0  0  0  0  0  0  0  0  0  0  0
  132.2330  123.2140   63.7340 C   0  0  0  0  0  0  0  0  0  0  0  0
  133.1170  124.0040   64.5950 C   0  0  0  0  0  0  0  0  0  0  0  0
  133.8150  124.6270   65.2750 N   0  0  0  0  0  0  0  0  0  0  0  0
  129.8120  124.6100   70.1330 C   0  0  0  0  0  0  0  0  0  0  0  0
  129.6170  124.7790   71.5010 C   0  0  0  0  0  0  0  0  0  0  0  0
  1  2  1  0
  2  3  1  0
  3  4  2  0
  4  5  1  0
  5  6  2  0
  6  7  1  0
  7  8  1  0
  8  9  2  0
  8 10  1  0
 10 11  1  0
 11 12  1  0
 12 13  2  0
 13 14  1  0
 14 15  1  0
 14 16  2  0
 16 17  1  0
 17 18  1  0
 17 19  2  0
 19 20  1  0
 20 21  3  0
  6 22  1  0
 22 23  2  0
 23  3  1  0
 19 12  1  0
M  END
>  <Binding energies>  (4) 
[-7.22]

>  <Ligand effiencies>  (4) 
[-0.30083333333333334]

>  <Interactions>  (4) 
["H-A:HIS:456:NE2:4070, V-B:GLU:543:CA:9876, V-A:HIS:456:CD2:4068, V-A:LEU:475:CD1:4258, V-B:GLU:543:CB:9878, H-A:TYR:484:OH:4348, V-A:TYR:484:CZ:4347, V-B:GLU:543:C:9874, V-A:TYR:484:CE1:4345, V-B:HIS:456:CE1:9040, V-A:HIS:456:CE1:4069, V-B:GLY:544:C:9884, V-B:ALA:541:CB:9864, H-B:LYS:547:NZ:9923, V-A:ILE:369:CD1:3239, V-A:GLY:454:CA:4049, H-A:GLY:454:N:4050, V-B:ALA:541:CA:9862, H-B:GLU:543:O:9875, V-A:HIS:456:CG:4066"]

$$$$
1d_Grossjean_2025
     RDKit          3D

 21 22  0  0  0  0  0  0  0  0999 V2000
  129.8730  120.2530   61.0230 C   0  0  0  0  0  0  0  0  0  0  0  0
  130.7750  121.1750   61.8190 C   0  0  0  0  0  0  0  0  0  0  0  0
  132.0540  121.5060   61.3760 C   0  0  0  0  0  0  0  0  0  0  0  0
  132.8380  122.3700   62.1480 C   0  0  0  0  0  0  0  0  0  0  0  0
  134.2310  122.7310   61.6330 C   0  0  0  0  0  0  0  0  0  0  0  0
  132.3190  122.8780   63.3610 C   0  0  0  0  0  0  0  0  0  0  0  0
  133.1030  123.8220   64.1600 C   0  0  0  0  0  0  0  0  0  0  0  0
  133.7260  124.5670   64.7900 N   0  0  0  0  0  0  0  0  0  0  0  0
  131.0200  122.4690   63.7450 C   0  0  0  0  0  0  0  0  0  0  0  0
  130.2130  123.0080   65.2360 S   0  0  0  0  0  0  0  0  0  0  0  0
  130.2470  124.8260   65.2440 C   0  0  0  0  0  0  0  0  0  0  0  0
  129.5040  125.4110   66.4470 C   0  0  0  0  0  0  0  0  0  0  0  0
  128.5690  126.1890   66.2550 O   0  0  0  0  0  0  0  0  0  0  0  0
  129.9370  124.9890   67.6550 N   0  0  0  0  0  0  0  0  0  0  0  0
  129.4930  125.3380   68.9440 C   0  0  0  0  0  0  0  0  0  0  0  0
  128.6120  126.4200   69.0090 C   0  0  0  0  0  0  0  0  0  0  0  0
  128.1080  126.8440   70.2360 C   0  0  0  0  0  0  0  0  0  0  0  0
  128.4800  126.1790   71.4010 C   0  0  0  0  0  0  0  0  0  0  0  0
  129.3510  125.0930   71.3500 C   0  0  0  0  0  0  0  0  0  0  0  0
  129.8570  124.6680   70.1250 C   0  0  0  0  0  0  0  0  0  0  0  0
  130.2590  121.6470   62.9780 N   0  0  0  0  0  0  0  0  0  0  0  0
  1  2  1  0
  2  3  2  0
  3  4  1  0
  4  5  1  0
  4  6  2  0
  6  7  1  0
  7  8  3  0
  6  9  1  0
  9 10  1  0
 10 11  1  0
 11 12  1  0
 12 13  2  0
 12 14  1  0
 14 15  1  0
 15 16  2  0
 16 17  1  0
 17 18  2  0
 18 19  1  0
 19 20  2  0
  9 21  2  0
 21  2  1  0
 20 15  1  0
M  END
>  <Binding energies>  (5) 
[-6.96]

>  <Ligand effiencies>  (5) 
[-0.31636363636363635]

>  <Interactions>  (5) 
["V-A:HIS:456:CD2:4068, V-B:TYR:539:CD2:9846, V-A:LEU:475:CD1:4258, V-B:GLU:543:CB:9878, H-A:TYR:484:OH:4348, V-A:TYR:484:CZ:4347, V-B:GLU:543:C:9874, V-A:TYR:484:CE1:4345, V-B:HIS:456:CE1:9040, V-A:HIS:456:CE1:4069, V-B:ALA:541:CB:9864, V-A:ILE:369:CD1:3239, V-A:GLY:454:CA:4049, H-A:GLY:454:N:4050, H-B:GLU:543:O:9875, V-A:HIS:456:CG:4066, H-A:HIS:456:ND1:4067"]

$$$$
1e_Grossjean_2025
     RDKit          3D

 22 23  0  0  0  0  0  0  0  0999 V2000
  130.2390  124.0550   72.2920 C   0  0  0  0  0  0  0  0  0  0  0  0
  129.6020  124.8390   71.1600 C   0  0  0  0  0  0  0  0  0  0  0  0
  128.6330  125.8160   71.4010 C   0  0  0  0  0  0  0  0  0  0  0  0
  128.0900  126.4940   70.3100 C   0  0  0  0  0  0  0  0  0  0  0  0
  128.5210  126.1830   69.0180 C   0  0  0  0  0  0  0  0  0  0  0  0
  129.5000  125.1970   68.8480 C   0  0  0  0  0  0  0  0  0  0  0  0
  129.8850  124.9190   67.5240 N   0  0  0  0  0  0  0  0  0  0  0  0
  129.7510  125.6980   66.4280 C   0  0  0  0  0  0  0  0  0  0  0  0
  129.2380  126.8180   66.4160 O   0  0  0  0  0  0  0  0  0  0  0  0
  130.2620  125.0960   65.1180 C   0  0  0  0  0  0  0  0  0  0  0  0
  129.9880  123.3000   65.0410 S   0  0  0  0  0  0  0  0  0  0  0  0
  130.9360  122.6360   63.6860 C   0  0  0  0  0  0  0  0  0  0  0  0
  130.2550  121.7210   62.9490 N   0  0  0  0  0  0  0  0  0  0  0  0
  130.8730  121.1440   61.8920 C   0  0  0  0  0  0  0  0  0  0  0  0
  130.0480  120.1390   61.1130 C   0  0  0  0  0  0  0  0  0  0  0  0
  132.1870  121.4420   61.5360 C   0  0  0  0  0  0  0  0  0  0  0  0
  132.9060  122.3640   62.3020 C   0  0  0  0  0  0  0  0  0  0  0  0
  134.3500  122.6600   61.9010 C   0  0  0  0  0  0  0  0  0  0  0  0
  132.2820  122.9780   63.4130 C   0  0  0  0  0  0  0  0  0  0  0  0
  133.0400  123.9010   64.2600 C   0  0  0  0  0  0  0  0  0  0  0  0
  133.6410  124.6310   64.9280 N   0  0  0  0  0  0  0  0  0  0  0  0
  130.0320  124.5260   69.9110 N   0  0  0  0  0  0  0  0  0  0  0  0
  1  2  1  0
  2  3  2  0
  3  4  1  0
  4  5  2  0
  5  6  1  0
  6  7  1  0
  7  8  1  0
  8  9  2  0
  8 10  1  0
 10 11  1  0
 11 12  1  0
 12 13  2  0
 13 14  1  0
 14 15  1  0
 14 16  2  0
 16 17  1  0
 17 18  1  0
 17 19  2  0
 19 20  1  0
 20 21  3  0
  6 22  2  0
 22  2  1  0
 19 12  1  0
M  END
>  <Binding energies>  (6) 
[-6.95]

>  <Ligand effiencies>  (6) 
[-0.3021739130434783]

>  <Interactions>  (6) 
["H-A:HIS:456:NE2:4070, V-A:HIS:456:CD2:4068, V-B:TYR:539:CD2:9846, V-A:LEU:475:CD1:4258, V-B:GLU:543:CB:9878, H-A:TYR:484:OH:4348, V-A:TYR:484:CZ:4347, V-B:GLU:543:C:9874, V-A:TYR:484:CE1:4345, V-B:HIS:456:CE1:9040, V-A:HIS:456:CE1:4069, V-B:GLY:544:C:9884, V-B:ALA:541:CB:9864, V-A:ILE:369:CD1:3239, V-A:GLY:454:CA:4049, H-A:GLY:454:N:4050, V-A:PRO:482:CG:4327, H-B:GLU:543:O:9875, V-A:HIS:456:CG:4066"]

$$$$
1f_Grossjean_2025
     RDKit          3D

 21 22  0  0  0  0  0  0  0  0999 V2000
  134.0790  124.2530   62.5660 C   0  0  0  0  0  0  0  0  0  0  0  0
  133.1730  123.0820   62.2330 C   0  0  0  0  0  0  0  0  0  0  0  0
  133.6150  122.0150   61.4550 C   0  0  0  0  0  0  0  0  0  0  0  0
  132.7310  120.9690   61.1700 C   0  0  0  0  0  0  0  0  0  0  0  0
  133.2340  119.8200   60.2990 C   0  0  0  0  0  0  0  0  0  0  0  0
  131.4150  121.0160   61.6860 C   0  0  0  0  0  0  0  0  0  0  0  0
  130.4580  119.9580   61.3520 C   0  0  0  0  0  0  0  0  0  0  0  0
  129.7040  119.1210   61.0880 N   0  0  0  0  0  0  0  0  0  0  0  0
  131.0610  122.1240   62.4900 C   0  0  0  0  0  0  0  0  0  0  0  0
  129.4540  122.3550   63.2250 S   0  0  0  0  0  0  0  0  0  0  0  0
  128.4810  123.4600   62.1460 C   0  0  0  0  0  0  0  0  0  0  0  0
  128.0120  122.8280   60.8270 C   0  0  0  0  0  0  0  0  0  0  0  0
  128.3840  121.6980   60.5090 O   0  0  0  0  0  0  0  0  0  0  0  0
  127.2100  123.6180   60.0810 N   0  0  0  0  0  0  0  0  0  0  0  0
  126.6010  123.3600   58.8380 C   0  0  0  0  0  0  0  0  0  0  0  0
  125.3640  123.8780   58.4090 C   0  0  0  0  0  0  0  0  0  0  0  0
  124.8760  123.5420   57.1430 C   0  0  0  0  0  0  0  0  0  0  0  0
  125.6390  122.6990   56.3350 C   0  0  0  0  0  0  0  0  0  0  0  0
  126.8360  122.1910   56.7220 N   0  0  0  0  0  0  0  0  0  0  0  0
  127.2960  122.5260   57.9550 C   0  0  0  0  0  0  0  0  0  0  0  0
  131.9190  123.1450   62.7400 N   0  0  0  0  0  0  0  0  0  0  0  0
  1  2  1  0
  2  3  2  0
  3  4  1  0
  4  5  1  0
  4  6  2  0
  6  7  1  0
  7  8  3  0
  6  9  1  0
  9 10  1  0
 10 11  1  0
 11 12  1  0
 12 13  2  0
 12 14  1  0
 14 15  1  0
 15 16  2  0
 16 17  1  0
 17 18  2  0
 18 19  1  0
 19 20  2  0
  9 21  2  0
 21  2  1  0
 20 15  1  0
M  END
>  <Binding energies>  (7) 
[-6.79]

>  <Ligand effiencies>  (7) 
[-0.30863636363636365]

>  <Interactions>  (7) 
["V-B:GLU:543:CD:9880, V-B:TYR:539:CD2:9846, V-A:LEU:475:CD1:4258, H-B:ALA:541:N:9863, V-B:TYR:539:CE2:9848, V-B:GLU:543:CG:9879, V-A:ARG:545:CZ:4926, V-B:PRO:540:CA:9855, V-B:ALA:541:CB:9864, V-B:TYR:539:C:9839, V-B:PRO:540:CB:9857, V-B:PRO:540:N:9856, V-A:ILE:369:CD1:3239, V-A:GLY:453:CA:4044, V-A:GLY:453:C:4042, V-A:ILE:369:CG2:3237, V-A:PRO:482:CG:4327, V-A:PRO:482:CB:4326, H-B:GLU:543:OE2:9882, V-A:TRP:381:CH2:3372, V-B:LEU:363:CD1:8160, V-B:PRO:540:CD:9859, V-B:ILE:538:CB:9834, H-B:TYR:539:N:9842, V-B:ILE:538:CG2:9835"]

$$$$
1g_Grossjean_2025
     RDKit          3D

 22 23  0  0  0  0  0  0  0  0999 V2000
  128.6970  123.8060   60.9720 C   0  0  0  0  0  0  0  0  0  0  0  0
  129.8020  122.7660   60.9620 C   0  0  0  0  0  0  0  0  0  0  0  0
  129.5220  121.4050   60.8510 C   0  0  0  0  0  0  0  0  0  0  0  0
  130.5810  120.4910   60.8630 C   0  0  0  0  0  0  0  0  0  0  0  0
  130.2490  119.0030   60.7550 C   0  0  0  0  0  0  0  0  0  0  0  0
  131.9060  120.9690   60.9780 C   0  0  0  0  0  0  0  0  0  0  0  0
  133.0270  120.0280   61.0460 C   0  0  0  0  0  0  0  0  0  0  0  0
  133.9100  119.2810   61.1000 N   0  0  0  0  0  0  0  0  0  0  0  0
  132.0980  122.3680   61.0600 C   0  0  0  0  0  0  0  0  0  0  0  0
  133.6950  123.1400   61.1990 S   0  0  0  0  0  0  0  0  0  0  0  0
  133.4940  124.6100   62.2500 C   0  0  0  0  0  0  0  0  0  0  0  0
  132.9570  124.2540   63.6370 C   0  0  0  0  0  0  0  0  0  0  0  0
  133.6920  124.3380   64.6220 O   0  0  0  0  0  0  0  0  0  0  0  0
  131.6750  123.8540   63.6940 N   0  0  0  0  0  0  0  0  0  0  0  0
  130.9440  123.5220   64.9170 C   0  0  0  0  0  0  0  0  0  0  0  0
  130.1760  124.6910   65.5260 C   0  0  0  0  0  0  0  0  0  0  0  0
  129.7970  125.7720   64.7230 C   0  0  0  0  0  0  0  0  0  0  0  0
  129.0960  126.8390   65.2780 C   0  0  0  0  0  0  0  0  0  0  0  0
  128.7710  126.8200   66.6330 C   0  0  0  0  0  0  0  0  0  0  0  0
  129.1420  125.7450   67.4380 C   0  0  0  0  0  0  0  0  0  0  0  0
  129.8450  124.6780   66.8840 C   0  0  0  0  0  0  0  0  0  0  0  0
  131.0630  123.2460   61.0710 N   0  0  0  0  0  0  0  0  0  0  0  0
  1  2  1  0
  2  3  2  0
  3  4  1  0
  4  5  1  0
  4  6  2  0
  6  7  1  0
  7  8  3  0
  6  9  1  0
  9 10  1  0
 10 11  1  0
 11 12  1  0
 12 13  2  0
 12 14  1  0
 14 15  1  0
 15 16  1  0
 16 17  2  0
 17 18  1  0
 18 19  2  0
 19 20  1  0
 20 21  2  0
  9 22  2  0
 22  2  1  0
 21 16  1  0
M  END
>  <Binding energies>  (8) 
[-6.24]

>  <Ligand effiencies>  (8) 
[-0.271304347826087]

>  <Interactions>  (8) 
["V-B:GLU:543:CA:9876, V-A:GLU:543:CD:4908, V-A:ASP:366:CG:3213, V-B:TYR:539:CD2:9846, V-A:LEU:475:CD1:4258, V-B:GLU:543:CB:9878, H-A:TYR:484:OH:4348, V-A:TYR:484:CZ:4347, V-A:TYR:484:CE1:4345, V-B:TYR:539:CE2:9848, V-A:HIS:456:CE1:4069, V-A:ARG:545:CZ:4926, V-B:ALA:541:CB:9864, V-A:ILE:369:CG2:3237, H-A:GLY:454:N:4050, V-A:TRP:381:CZ2:3370, V-A:PRO:482:CG:4327, V-A:PRO:482:CB:4326, V-A:TRP:381:CH2:3372"]

$$$$
1h_Grossjean_2025
     RDKit          3D

 28 29  0  0  0  0  0  0  0  0999 V2000
  127.2290  127.8620   73.3820 C   0  0  0  0  0  0  0  0  0  0  0  0
  128.4940  127.9140   72.7320 O   0  0  0  0  0  0  0  0  0  0  0  0
  128.8160  126.9470   71.7980 C   0  0  0  0  0  0  0  0  0  0  0  0
  128.8430  127.1740   70.4130 C   0  0  0  0  0  0  0  0  0  0  0  0
  129.1650  126.1460   69.5260 C   0  0  0  0  0  0  0  0  0  0  0  0
  129.2130  126.4120   68.0240 C   0  0  0  0  0  0  0  0  0  0  0  0
  129.0850  125.2080   67.2030 N   0  0  0  0  0  0  0  0  0  0  0  0
  129.7420  124.9800   66.0510 C   0  0  0  0  0  0  0  0  0  0  0  0
  130.5590  125.7620   65.5640 O   0  0  0  0  0  0  0  0  0  0  0  0
  129.4250  123.6680   65.3340 C   0  0  0  0  0  0  0  0  0  0  0  0
  130.8730  122.5720   65.2460 S   0  0  0  0  0  0  0  0  0  0  0  0
  131.3180  122.3790   63.5270 C   0  0  0  0  0  0  0  0  0  0  0  0
  130.5310  121.5390   62.8050 N   0  0  0  0  0  0  0  0  0  0  0  0
  130.8100  121.3510   61.4940 C   0  0  0  0  0  0  0  0  0  0  0  0
  129.8840  120.4040   60.7540 C   0  0  0  0  0  0  0  0  0  0  0  0
  131.8740  121.9810   60.8530 C   0  0  0  0  0  0  0  0  0  0  0  0
  132.6930  122.8460   61.5870 C   0  0  0  0  0  0  0  0  0  0  0  0
  133.8530  123.5280   60.8640 C   0  0  0  0  0  0  0  0  0  0  0  0
  132.4200  123.0580   62.9570 C   0  0  0  0  0  0  0  0  0  0  0  0
  133.2620  123.9560   63.7510 C   0  0  0  0  0  0  0  0  0  0  0  0
  133.9290  124.6660   64.3780 N   0  0  0  0  0  0  0  0  0  0  0  0
  129.4990  124.8860   70.0240 C   0  0  0  0  0  0  0  0  0  0  0  0
  129.4850  124.6320   71.4050 C   0  0  0  0  0  0  0  0  0  0  0  0
  129.8020  123.4090   71.9680 O   0  0  0  0  0  0  0  0  0  0  0  0
  131.1630  123.1030   72.2560 C   0  0  0  0  0  0  0  0  0  0  0  0
  129.1310  125.6680   72.2810 C   0  0  0  0  0  0  0  0  0  0  0  0
  129.1200  125.4360   73.6350 O   0  0  0  0  0  0  0  0  0  0  0  0
  130.3320  125.7810   74.2910 C   0  0  0  0  0  0  0  0  0  0  0  0
  1  2  1  0
  2  3  1  0
  3  4  2  0
  4  5  1  0
  5  6  1  0
  6  7  1  0
  7  8  1  0
  8  9  2  0
  8 10  1  0
 10 11  1  0
 11 12  1  0
 12 13  2  0
 13 14  1  0
 14 15  1  0
 14 16  2  0
 16 17  1  0
 17 18  1  0
 17 19  2  0
 19 20  1  0
 20 21  3  0
  5 22  2  0
 22 23  1  0
 23 24  1  0
 24 25  1  0
 23 26  2  0
 26 27  1  0
 27 28  1  0
 26  3  1  0
 19 12  1  0
M  END
>  <Binding energies>  (9) 
[-7.19]

>  <Ligand effiencies>  (9) 
[-0.24793103448275863]

>  <Interactions>  (9) 
["V-B:GLU:543:CA:9876, V-A:HIS:456:CD2:4068, V-B:TYR:539:CD2:9846, V-A:LEU:475:CD1:4258, V-B:GLU:543:CB:9878, H-B:HIS:456:NE2:9041, H-A:TYR:484:OH:4348, V-B:GLU:543:C:9874, V-A:TYR:484:CE1:4345, V-B:HIS:456:CE1:9040, V-B:TYR:539:CE2:9848, V-A:HIS:456:CE1:4069, V-B:GLU:543:CG:9879, V-B:ALA:541:CB:9864, H-B:LYS:547:NZ:9923, V-A:ILE:369:CD1:3239, V-A:GLY:454:CA:4049, H-A:GLY:454:N:4050, H-A:ARG:545:NE:4924, H-B:GLU:543:O:9875, V-B:HIS:456:CD2:9039, V-A:TYR:484:CG:4342, V-B:HIS:456:CG:9037, V-A:TYR:484:CE2:4346, V-A:HIS:456:CG:4066, V-A:TYR:484:CD2:4344, V-A:HIS:456:CB:4065, V-B:HIS:456:CB:9036"]

$$$$
1i_Grossjean_2025
     RDKit          3D

 20 21  0  0  0  0  0  0  0  0999 V2000
  123.9540  129.5430   66.8110 C   0  0  0  0  0  0  0  0  0  0  0  0
  125.2990  128.8440   66.7470 C   0  0  0  0  0  0  0  0  0  0  0  0
  126.2240  129.1330   65.7450 C   0  0  0  0  0  0  0  0  0  0  0  0
  127.4530  128.4630   65.7420 C   0  0  0  0  0  0  0  0  0  0  0  0
  128.4570  128.8090   64.6440 C   0  0  0  0  0  0  0  0  0  0  0  0
  127.7230  127.5080   66.7490 C   0  0  0  0  0  0  0  0  0  0  0  0
  129.0220  126.8330   66.7930 C   0  0  0  0  0  0  0  0  0  0  0  0
  130.0500  126.3020   66.8270 N   0  0  0  0  0  0  0  0  0  0  0  0
  126.7150  127.2620   67.7110 C   0  0  0  0  0  0  0  0  0  0  0  0
  126.8850  126.0960   69.0440 S   0  0  0  0  0  0  0  0  0  0  0  0
  127.9770  126.8410   70.2920 C   0  0  0  0  0  0  0  0  0  0  0  0
  128.4760  125.8120   71.3090 C   0  0  0  0  0  0  0  0  0  0  0  0
  128.3530  126.0450   72.5130 O   0  0  0  0  0  0  0  0  0  0  0  0
  129.0250  124.6940   70.7860 N   0  0  0  0  0  0  0  0  0  0  0  0
  129.5550  123.6150   71.4770 C   0  0  0  0  0  0  0  0  0  0  0  0
  130.7900  123.6560   72.1220 C   0  0  0  0  0  0  0  0  0  0  0  0
  130.9460  122.4070   72.6770 C   0  0  0  0  0  0  0  0  0  0  0  0
  129.8620  121.6520   72.3810 O   0  0  0  0  0  0  0  0  0  0  0  0
  128.9880  122.4280   71.6180 N   0  0  0  0  0  0  0  0  0  0  0  0
  125.5350  127.9310   67.7180 N   0  0  0  0  0  0  0  0  0  0  0  0
  1  2  1  0
  2  3  2  0
  3  4  1  0
  4  5  1  0
  4  6  2  0
  6  7  1  0
  7  8  3  0
  6  9  1  0
  9 10  1  0
 10 11  1  0
 11 12  1  0
 12 13  2  0
 12 14  1  0
 14 15  1  0
 15 16  1  0
 16 17  2  0
 17 18  1  0
 18 19  1  0
  9 20  2  0
 20  2  1  0
 19 15  2  0
M  END
>  <Binding energies>  (10) 
[-7.54]

>  <Ligand effiencies>  (10) 
[-0.35904761904761906]

>  <Interactions>  (10) 
["V-A:GLU:543:CD:4908, V-A:HIS:456:CD2:4068, V-B:GLU:543:CB:9878, V-B:GLU:543:C:9874, V-B:HIS:456:CE1:9040, V-B:ARG:545:CD:9895, V-B:ARG:545:CG:9894, H-B:ARG:545:N:9892, V-B:GLY:544:C:9884, H-B:LYS:547:NZ:9923, H-B:GLU:543:O:9875, V-B:ILE:455:C:9023, V-A:TYR:484:CG:4342, V-A:TYR:484:CE2:4346, V-A:HIS:456:CG:4066, V-A:TYR:484:CD1:4343, V-A:TYR:484:CD2:4344, V-A:HIS:456:CB:4065, V-A:ASP:473:CB:4239, V-A:TYR:484:CB:4341"]

$$$$
1k_Grossjean_2025
     RDKit          3D

 25 25  0  0  0  0  0  0  0  0999 V2000
  131.0810  122.4080   72.7720 C   0  0  0  0  0  0  0  0  0  0  0  0
  129.8470  122.6760   72.1270 O   0  0  0  0  0  0  0  0  0  0  0  0
  129.8840  123.8230   71.2880 C   0  0  0  0  0  0  0  0  0  0  0  0
  128.6380  124.6820   71.5400 C   0  0  0  0  0  0  0  0  0  0  0  0
  128.8770  125.5520   72.6390 O   0  0  0  0  0  0  0  0  0  0  0  0
  129.0820  126.9070   72.2600 C   0  0  0  0  0  0  0  0  0  0  0  0
  128.5180  127.1340   70.8520 C   0  0  0  0  0  0  0  0  0  0  0  0
  129.4910  127.7930   70.0520 O   0  0  0  0  0  0  0  0  0  0  0  0
  129.4990  127.3670   68.6960 C   0  0  0  0  0  0  0  0  0  0  0  0
  129.4870  125.8280   68.6380 C   0  0  0  0  0  0  0  0  0  0  0  0
  129.8780  125.2780   67.3400 N   0  0  0  0  0  0  0  0  0  0  0  0
  129.3100  125.5900   66.1620 C   0  0  0  0  0  0  0  0  0  0  0  0
  128.3830  126.3960   66.0550 O   0  0  0  0  0  0  0  0  0  0  0  0
  129.8880  124.8690   64.9340 C   0  0  0  0  0  0  0  0  0  0  0  0
  130.1890  123.0790   65.1390 S   0  0  0  0  0  0  0  0  0  0  0  0
  131.0480  122.4600   63.6990 C   0  0  0  0  0  0  0  0  0  0  0  0
  130.3650  121.5650   62.9400 N   0  0  0  0  0  0  0  0  0  0  0  0
  130.9610  121.0490   61.8400 C   0  0  0  0  0  0  0  0  0  0  0  0
  130.1380  120.0510   61.0500 C   0  0  0  0  0  0  0  0  0  0  0  0
  132.2500  121.4050   61.4480 C   0  0  0  0  0  0  0  0  0  0  0  0
  132.9620  122.3310   62.2180 C   0  0  0  0  0  0  0  0  0  0  0  0
  134.3730  122.7070   61.7710 C   0  0  0  0  0  0  0  0  0  0  0  0
  132.3590  122.8780   63.3720 C   0  0  0  0  0  0  0  0  0  0  0  0
  133.0830  123.8480   64.1990 C   0  0  0  0  0  0  0  0  0  0  0  0
  133.6560  124.6130   64.8520 N   0  0  0  0  0  0  0  0  0  0  0  0
  1  2  1  0
  2  3  1  0
  3  4  1  0
  4  5  1  0
  5  6  1  0
  6  7  1  0
  7  8  1  0
  8  9  1  0
  9 10  1  0
 10 11  1  0
 11 12  1  0
 12 13  2  0
 12 14  1  0
 14 15  1  0
 15 16  1  0
 16 17  2  0
 17 18  1  0
 18 19  1  0
 18 20  2  0
 20 21  1  0
 21 22  1  0
 21 23  2  0
 23 24  1  0
 24 25  3  0
 23 16  1  0
M  END
>  <Binding energies>  (11) 
[-6.54]

>  <Ligand effiencies>  (11) 
[-0.25153846153846154]

>  <Interactions>  (11) 
["H-A:HIS:456:NE2:4070, V-A:HIS:456:CD2:4068, V-B:TYR:539:CD2:9846, V-A:LEU:475:CD1:4258, V-B:GLU:543:CB:9878, H-B:HIS:456:NE2:9041, H-A:TYR:484:OH:4348, V-A:TYR:484:CZ:4347, V-A:TYR:484:CE1:4345, V-B:HIS:456:CE1:9040, V-A:HIS:456:CE1:4069, V-B:GLU:543:CG:9879, V-B:GLY:544:C:9884, V-B:ALA:541:CB:9864, H-B:LYS:547:NZ:9923, V-A:ILE:369:CD1:3239, V-A:GLY:454:CA:4049, H-A:GLY:454:N:4050, V-A:PRO:482:CG:4327, H-B:GLU:543:O:9875, V-A:TYR:484:CG:4342, V-A:TYR:484:CE2:4346, V-A:TYR:484:CD1:4343, V-A:TYR:484:CD2:4344, V-B:GLY:544:CA:9886, V-B:LYS:547:CE:9922, V-A:ASP:473:CB:4239, H-A:HIS:456:ND1:4067, V-A:TYR:484:CB:4341"]

$$$$
1l_Grossjean_2025
     RDKit          3D

 17 17  0  0  0  0  0  0  0  0999 V2000
  130.5190  122.8760   71.9550 C   0  0  0  0  0  0  0  0  0  0  0  0
  129.1720  123.2270   71.6700 O   0  0  0  0  0  0  0  0  0  0  0  0
  129.1340  124.4160   70.9420 N   0  0  0  0  0  0  0  0  0  0  0  0
  128.6470  125.5260   71.5280 C   0  0  0  0  0  0  0  0  0  0  0  0
  128.4380  125.6230   72.7400 O   0  0  0  0  0  0  0  0  0  0  0  0
  128.3740  126.6990   70.5760 C   0  0  0  0  0  0  0  0  0  0  0  0
  126.8870  126.5170   69.5330 S   0  0  0  0  0  0  0  0  0  0  0  0
  127.3010  127.0440   67.8790 C   0  0  0  0  0  0  0  0  0  0  0  0
  126.5000  128.0040   67.3480 N   0  0  0  0  0  0  0  0  0  0  0  0
  126.7570  128.4500   66.0950 C   0  0  0  0  0  0  0  0  0  0  0  0
  125.8200  129.5220   65.5720 C   0  0  0  0  0  0  0  0  0  0  0  0
  127.8120  127.9640   65.3260 C   0  0  0  0  0  0  0  0  0  0  0  0
  128.6440  126.9760   65.8620 C   0  0  0  0  0  0  0  0  0  0  0  0
  129.7950  126.4580   65.0020 C   0  0  0  0  0  0  0  0  0  0  0  0
  128.3940  126.4960   67.1670 C   0  0  0  0  0  0  0  0  0  0  0  0
  129.2500  125.4610   67.7550 C   0  0  0  0  0  0  0  0  0  0  0  0
  129.9260  124.6440   68.2160 N   0  0  0  0  0  0  0  0  0  0  0  0
  1  2  1  0
  2  3  1  0
  3  4  1  0
  4  5  2  0
  4  6  1  0
  6  7  1  0
  7  8  1  0
  8  9  2  0
  9 10  1  0
 10 11  1  0
 10 12  2  0
 12 13  1  0
 13 14  1  0
 13 15  2  0
 15 16  1  0
 16 17  3  0
 15  8  1  0
M  END
>  <Binding energies>  (12) 
[-5.83]

>  <Ligand effiencies>  (12) 
[-0.3238888888888889]

>  <Interactions>  (12) 
["H-A:HIS:456:NE2:4070, V-A:GLU:543:CD:4908, V-B:GLU:543:CD:9880, V-B:GLU:543:CB:9878, H-A:TYR:484:OH:4348, V-B:GLU:543:C:9874, V-B:HIS:456:CE1:9040, V-A:HIS:456:CE1:4069, H-B:ARG:545:N:9892, V-B:GLY:544:C:9884, H-B:LYS:547:NZ:9923, H-B:GLU:543:O:9875, V-A:TYR:484:CG:4342, V-A:TYR:484:CE2:4346, V-A:TYR:484:CD1:4343, V-A:TYR:484:CD2:4344, V-A:TYR:484:CB:4341"]

$$$$
1m_Grossjean_2025
     RDKit          3D

 20 20  0  0  0  0  0  0  0  0999 V2000
  130.9400  121.6350   73.4200 C   0  0  0  0  0  0  0  0  0  0  0  0
  129.9810  122.4380   72.7460 O   0  0  0  0  0  0  0  0  0  0  0  0
  130.3510  123.5850   72.1400 C   0  0  0  0  0  0  0  0  0  0  0  0
  130.9900  124.5010   72.6680 O   0  0  0  0  0  0  0  0  0  0  0  0
  129.8840  123.6250   70.6710 C   0  0  0  0  0  0  0  0  0  0  0  0
  129.1390  124.8510   70.3430 N   0  0  0  0  0  0  0  0  0  0  0  0
  128.4510  125.6090   71.2170 C   0  0  0  0  0  0  0  0  0  0  0  0
  128.3600  125.3370   72.4160 O   0  0  0  0  0  0  0  0  0  0  0  0
  127.7690  126.8490   70.6240 C   0  0  0  0  0  0  0  0  0  0  0  0
  126.6190  126.5010   69.2490 S   0  0  0  0  0  0  0  0  0  0  0  0
  127.4560  126.8730   67.7230 C   0  0  0  0  0  0  0  0  0  0  0  0
  128.6300  126.2080   67.5730 N   0  0  0  0  0  0  0  0  0  0  0  0
  129.3520  126.4080   66.4460 C   0  0  0  0  0  0  0  0  0  0  0  0
  130.6420  125.6170   66.3400 C   0  0  0  0  0  0  0  0  0  0  0  0
  128.9450  127.2780   65.4360 C   0  0  0  0  0  0  0  0  0  0  0  0
  127.7500  127.9880   65.5930 C   0  0  0  0  0  0  0  0  0  0  0  0
  127.3320  128.9480   64.4810 C   0  0  0  0  0  0  0  0  0  0  0  0
  126.9790  127.7970   66.7620 C   0  0  0  0  0  0  0  0  0  0  0  0
  125.7500  128.5670   66.9680 C   0  0  0  0  0  0  0  0  0  0  0  0
  124.7790  129.1750   67.1300 N   0  0  0  0  0  0  0  0  0  0  0  0
  1  2  1  0
  2  3  1  0
  3  4  2  0
  3  5  1  0
  5  6  1  0
  6  7  1  0
  7  8  2  0
  7  9  1  0
  9 10  1  0
 10 11  1  0
 11 12  2  0
 12 13  1  0
 13 14  1  0
 13 15  2  0
 15 16  1  0
 16 17  1  0
 16 18  2  0
 18 19  1  0
 19 20  3  0
 18 11  1  0
M  END
>  <Binding energies>  (13) 
[-5.79]

>  <Ligand effiencies>  (13) 
[-0.2757142857142857]

>  <Interactions>  (13) 
["V-A:GLU:543:CD:4908, V-A:HIS:456:CD2:4068, V-B:GLU:543:CD:9880, V-B:GLU:543:CB:9878, V-A:TYR:484:CZ:4347, V-B:GLU:543:C:9874, V-A:TYR:484:CE1:4345, V-B:HIS:456:CE1:9040, V-A:HIS:456:CE1:4069, V-B:ARG:545:CD:9895, H-B:TYR:484:OH:9319, V-B:ARG:545:CG:9894, H-B:ARG:545:N:9892, V-B:GLY:544:C:9884, H-B:LYS:547:NZ:9923, H-B:ARG:545:NE:9896, H-B:GLU:543:O:9875, V-A:TYR:484:CG:4342, V-A:TYR:484:CE2:4346, V-A:HIS:456:CG:4066, V-A:TYR:484:CD1:4343, V-A:TYR:484:CD2:4344, V-A:ASP:473:CG:4240, V-A:ASP:473:CB:4239, V-A:TYR:484:CB:4341"]

$$$$
1n_Grossjean_2025
     RDKit          3D

 27 28  0  0  0  0  0  0  0  0999 V2000
  125.9130  127.0270   73.8710 C   0  0  0  0  0  0  0  0  0  0  0  0
  127.1430  127.1250   74.7780 C   0  0  0  0  0  0  0  0  0  0  0  0
  128.0770  126.1150   74.4180 O   0  0  0  0  0  0  0  0  0  0  0  0
  129.2440  126.4270   73.7980 C   0  0  0  0  0  0  0  0  0  0  0  0
  130.2300  126.8760   74.3900 O   0  0  0  0  0  0  0  0  0  0  0  0
  129.2210  126.1600   72.3200 C   0  0  0  0  0  0  0  0  0  0  0  0
  128.6410  127.0590   71.4120 C   0  0  0  0  0  0  0  0  0  0  0  0
  128.6330  126.7790   70.0490 C   0  0  0  0  0  0  0  0  0  0  0  0
  129.1950  125.5970   69.5650 C   0  0  0  0  0  0  0  0  0  0  0  0
  129.1280  125.4130   68.1700 N   0  0  0  0  0  0  0  0  0  0  0  0
  129.2470  126.3160   67.1730 C   0  0  0  0  0  0  0  0  0  0  0  0
  129.4550  127.5200   67.3220 O   0  0  0  0  0  0  0  0  0  0  0  0
  129.1120  125.7550   65.7510 C   0  0  0  0  0  0  0  0  0  0  0  0
  130.3570  124.9700   65.2890 C   0  0  0  0  0  0  0  0  0  0  0  0
  130.1300  123.1670   65.2220 S   0  0  0  0  0  0  0  0  0  0  0  0
  130.9770  122.5700   63.7750 C   0  0  0  0  0  0  0  0  0  0  0  0
  130.2570  121.6700   63.0580 N   0  0  0  0  0  0  0  0  0  0  0  0
  130.7960  121.1600   61.9260 C   0  0  0  0  0  0  0  0  0  0  0  0
  129.9310  120.1700   61.1710 C   0  0  0  0  0  0  0  0  0  0  0  0
  132.0630  121.5170   61.4690 C   0  0  0  0  0  0  0  0  0  0  0  0
  132.8220  122.4280   62.2130 C   0  0  0  0  0  0  0  0  0  0  0  0
  134.2130  122.7940   61.7000 C   0  0  0  0  0  0  0  0  0  0  0  0
  132.2810  122.9700   63.4010 C   0  0  0  0  0  0  0  0  0  0  0  0
  133.0770  123.8850   64.2210 C   0  0  0  0  0  0  0  0  0  0  0  0
  133.7080  124.6080   64.8690 N   0  0  0  0  0  0  0  0  0  0  0  0
  129.7850  124.6980   70.4650 C   0  0  0  0  0  0  0  0  0  0  0  0
  129.7950  124.9810   71.8290 C   0  0  0  0  0  0  0  0  0  0  0  0
  1  2  1  0
  2  3  1  0
  3  4  1  0
  4  5  2  0
  4  6  1  0
  6  7  2  0
  7  8  1  0
  8  9  2  0
  9 10  1  0
 10 11  1  0
 11 12  2  0
 11 13  1  0
 13 14  1  0
 14 15  1  0
 15 16  1  0
 16 17  2  0
 17 18  1  0
 18 19  1  0
 18 20  2  0
 20 21  1  0
 21 22  1  0
 21 23  2  0
 23 24  1  0
 24 25  3  0
  9 26  1  0
 26 27  2  0
 27  6  1  0
 23 16  1  0
M  END
>  <Binding energies>  (14) 
[-8.33]

>  <Ligand effiencies>  (14) 
[-0.2975]

>  <Interactions>  (14) 
["V-A:HIS:456:CD2:4068, V-B:GLU:543:CD:9880, V-B:TYR:539:CD2:9846, V-A:LEU:475:CD1:4258, V-B:GLU:543:CB:9878, H-A:TYR:484:OH:4348, V-A:TYR:484:CZ:4347, V-B:GLU:543:C:9874, V-A:TYR:484:CE1:4345, V-B:HIS:456:CE1:9040, V-A:HIS:456:CE1:4069, V-B:GLU:543:CG:9879, V-B:ALA:541:CB:9864, H-B:LYS:547:NZ:9923, V-A:ILE:369:CD1:3239, V-A:GLY:454:CA:4049, H-A:GLY:454:N:4050, V-A:PRO:482:CG:4327, H-B:GLU:543:O:9875, V-B:LYS:547:CD:9921, V-A:HIS:456:CG:4066, H-A:LYS:547:NZ:4951"]

$$$$
1q_Grossjean_2025
     RDKit          3D

 21 21  0  0  0  0  0  0  0  0999 V2000
  128.0560  126.5730   71.9800 C   0  0  0  0  0  0  0  0  0  0  0  0
  128.3450  125.2470   72.3990 O   0  0  0  0  0  0  0  0  0  0  0  0
  128.9110  124.3620   71.5420 C   0  0  0  0  0  0  0  0  0  0  0  0
  128.7290  123.1430   71.5490 O   0  0  0  0  0  0  0  0  0  0  0  0
  129.8740  125.0040   70.5210 C   0  0  0  0  0  0  0  0  0  0  0  0
  129.2120  125.3700   69.2590 N   0  0  0  0  0  0  0  0  0  0  0  0
  129.0950  126.6160   68.7620 C   0  0  0  0  0  0  0  0  0  0  0  0
  129.5460  127.6130   69.3290 O   0  0  0  0  0  0  0  0  0  0  0  0
  128.3690  126.7370   67.4140 C   0  0  0  0  0  0  0  0  0  0  0  0
  129.2560  126.4430   66.1880 C   0  0  0  0  0  0  0  0  0  0  0  0
  130.3440  125.0030   66.4050 S   0  0  0  0  0  0  0  0  0  0  0  0
  130.6850  124.3030   64.8020 C   0  0  0  0  0  0  0  0  0  0  0  0
  129.5660  123.9450   64.1220 N   0  0  0  0  0  0  0  0  0  0  0  0
  129.6990  123.3990   62.8910 C   0  0  0  0  0  0  0  0  0  0  0  0
  128.4050  123.0080   62.2000 C   0  0  0  0  0  0  0  0  0  0  0  0
  130.9380  123.1980   62.2870 C   0  0  0  0  0  0  0  0  0  0  0  0
  132.0950  123.5870   62.9670 C   0  0  0  0  0  0  0  0  0  0  0  0
  133.4420  123.3740   62.2750 C   0  0  0  0  0  0  0  0  0  0  0  0
  131.9830  124.1620   64.2530 C   0  0  0  0  0  0  0  0  0  0  0  0
  133.1800  124.6280   64.9560 C   0  0  0  0  0  0  0  0  0  0  0  0
  134.1290  124.9940   65.5080 N   0  0  0  0  0  0  0  0  0  0  0  0
  1  2  1  0
  2  3  1  0
  3  4  2  0
  3  5  1  0
  5  6  1  0
  6  7  1  0
  7  8  2  0
  7  9  1  0
  9 10  1  0
 10 11  1  0
 11 12  1  0
 12 13  2  0
 13 14  1  0
 14 15  1  0
 14 16  2  0
 16 17  1  0
 17 18  1  0
 17 19  2  0
 19 20  1  0
 20 21  3  0
 19 12  1  0
M  END
>  <Binding energies>  (15) 
[-6.14]

>  <Ligand effiencies>  (15) 
[-0.27909090909090906]

>  <Interactions>  (15) 
["H-A:HIS:456:NE2:4070, V-A:HIS:456:CD2:4068, V-B:GLU:543:CD:9880, V-B:GLU:543:CB:9878, H-A:TYR:484:OH:4348, V-B:GLU:543:C:9874, V-A:HIS:456:CE1:4069, V-B:GLU:543:CG:9879, V-B:ALA:541:CB:9864, H-B:LYS:547:NZ:9923, H-A:GLY:454:N:4050, H-A:ARG:545:NE:4924, H-B:GLU:543:O:9875, V-A:HIS:456:CG:4066, V-B:GLY:544:CA:9886, V-B:LYS:547:CE:9922"]

$$$$
2a_Grossjean_2025
     RDKit          3D

 29 30  0  0  0  0  0  0  0  0999 V2000
  126.0800  127.2420   73.5120 C   0  0  0  0  0  0  0  0  0  0  0  0
  127.0940  126.9830   74.6300 C   0  0  0  0  0  0  0  0  0  0  0  0
  128.0360  126.0100   74.1940 O   0  0  0  0  0  0  0  0  0  0  0  0
  129.2050  126.3780   73.6100 C   0  0  0  0  0  0  0  0  0  0  0  0
  130.1320  126.9150   74.2220 O   0  0  0  0  0  0  0  0  0  0  0  0
  129.2640  126.0460   72.1460 C   0  0  0  0  0  0  0  0  0  0  0  0
  128.7960  126.9330   71.1650 C   0  0  0  0  0  0  0  0  0  0  0  0
  128.8640  126.5940   69.8170 C   0  0  0  0  0  0  0  0  0  0  0  0
  129.3910  125.3640   69.4210 C   0  0  0  0  0  0  0  0  0  0  0  0
  129.3970  125.1220   68.0350 N   0  0  0  0  0  0  0  0  0  0  0  0
  129.7610  125.9280   67.0150 C   0  0  0  0  0  0  0  0  0  0  0  0
  130.1480  127.0910   67.1260 O   0  0  0  0  0  0  0  0  0  0  0  0
  129.6650  125.3070   65.6170 C   0  0  0  0  0  0  0  0  0  0  0  0
  129.9960  123.5140   65.5990 S   0  0  0  0  0  0  0  0  0  0  0  0
  130.6360  123.0340   63.9990 C   0  0  0  0  0  0  0  0  0  0  0  0
  129.7590  122.3990   63.1800 N   0  0  0  0  0  0  0  0  0  0  0  0
  130.1790  121.9970   61.9590 C   0  0  0  0  0  0  0  0  0  0  0  0
  129.1500  121.2710   61.1130 C   0  0  0  0  0  0  0  0  0  0  0  0
  131.4750  122.2130   61.5010 C   0  0  0  0  0  0  0  0  0  0  0  0
  132.3970  122.8750   62.3280 C   0  0  0  0  0  0  0  0  0  0  0  0
  133.8270  123.1090   61.8060 C   0  0  0  0  0  0  0  0  0  0  0  0
  134.6410  122.1560   62.2600 F   0  0  0  0  0  0  0  0  0  0  0  0
  133.8350  123.0870   60.4720 F   0  0  0  0  0  0  0  0  0  0  0  0
  134.3310  124.2840   62.1910 F   0  0  0  0  0  0  0  0  0  0  0  0
  131.9700  123.3000   63.6120 C   0  0  0  0  0  0  0  0  0  0  0  0
  132.8920  123.9930   64.5180 C   0  0  0  0  0  0  0  0  0  0  0  0
  133.6200  124.5400   65.2320 N   0  0  0  0  0  0  0  0  0  0  0  0
  129.8690  124.4760   70.3960 C   0  0  0  0  0  0  0  0  0  0  0  0
  129.8040  124.8180   71.7440 C   0  0  0  0  0  0  0  0  0  0  0  0
  1  2  1  0
  2  3  1  0
  3  4  1  0
  4  5  2  0
  4  6  1  0
  6  7  2  0
  7  8  1  0
  8  9  2  0
  9 10  1  0
 10 11  1  0
 11 12  2  0
 11 13  1  0
 13 14  1  0
 14 15  1  0
 15 16  2  0
 16 17  1  0
 17 18  1  0
 17 19  2  0
 19 20  1  0
 20 21  1  0
 21 22  1  0
 21 23  1  0
 21 24  1  0
 20 25  2  0
 25 26  1  0
 26 27  3  0
  9 28  1  0
 28 29  2  0
 29  6  1  0
 25 15  1  0
M  END
>  <Binding energies>  (16) 
[-7.7]

>  <Ligand effiencies>  (16) 
[-0.25666666666666665]

>  <Interactions>  (16) 
["H-A:HIS:456:NE2:4070, V-A:HIS:456:CD2:4068, V-A:ASP:366:CG:3213, V-B:TYR:539:CD2:9846, V-A:LEU:475:CD1:4258, V-B:GLU:543:CB:9878, H-A:TYR:484:OH:4348, V-A:TYR:484:CZ:4347, V-B:GLU:543:C:9874, V-A:TYR:484:CE1:4345, V-B:HIS:456:CE1:9040, V-A:HIS:456:CE1:4069, V-B:GLU:543:CG:9879, V-B:ALA:541:CB:9864, H-B:LYS:547:NZ:9923, V-A:ILE:369:CD1:3239, V-A:GLY:453:CA:4044, V-A:GLY:454:CA:4049, V-A:GLY:453:C:4042, V-A:ILE:369:CG2:3237, H-A:GLY:454:N:4050, V-B:ALA:541:CA:9862, H-B:GLU:543:O:9875, V-B:LYS:547:CD:9921, V-B:HIS:456:CG:9037, V-A:HIS:456:CG:4066, H-A:LYS:547:NZ:4951, V-B:HIS:456:CB:9036"]

$$$$
2b_Grossjean_2025
     RDKit          3D

 28 29  0  0  0  0  0  0  0  0999 V2000
  126.9080  126.8770   73.9240 C   0  0  0  0  0  0  0  0  0  0  0  0
  128.0750  126.1060   74.1780 O   0  0  0  0  0  0  0  0  0  0  0  0
  129.2590  126.4180   73.5930 C   0  0  0  0  0  0  0  0  0  0  0  0
  130.2030  126.9330   74.2010 O   0  0  0  0  0  0  0  0  0  0  0  0
  129.3070  126.0770   72.1320 C   0  0  0  0  0  0  0  0  0  0  0  0
  128.8490  126.9640   71.1470 C   0  0  0  0  0  0  0  0  0  0  0  0
  128.9060  126.6160   69.8000 C   0  0  0  0  0  0  0  0  0  0  0  0
  129.4240  125.3820   69.4100 C   0  0  0  0  0  0  0  0  0  0  0  0
  129.4290  125.1300   68.0250 N   0  0  0  0  0  0  0  0  0  0  0  0
  129.7170  125.9590   66.9990 C   0  0  0  0  0  0  0  0  0  0  0  0
  130.0160  127.1490   67.1060 O   0  0  0  0  0  0  0  0  0  0  0  0
  129.6340  125.3270   65.6060 C   0  0  0  0  0  0  0  0  0  0  0  0
  130.0090  123.5430   65.6050 S   0  0  0  0  0  0  0  0  0  0  0  0
  130.6510  123.0550   64.0090 C   0  0  0  0  0  0  0  0  0  0  0  0
  129.7750  122.4170   63.1920 N   0  0  0  0  0  0  0  0  0  0  0  0
  130.1940  122.0140   61.9710 C   0  0  0  0  0  0  0  0  0  0  0  0
  129.1590  121.2980   61.1250 C   0  0  0  0  0  0  0  0  0  0  0  0
  131.4890  122.2350   61.5110 C   0  0  0  0  0  0  0  0  0  0  0  0
  132.4090  122.9000   62.3360 C   0  0  0  0  0  0  0  0  0  0  0  0
  133.8370  123.1400   61.8100 C   0  0  0  0  0  0  0  0  0  0  0  0
  134.6550  122.1880   62.2600 F   0  0  0  0  0  0  0  0  0  0  0  0
  133.8440  123.1210   60.4760 F   0  0  0  0  0  0  0  0  0  0  0  0
  134.3380  124.3160   62.1950 F   0  0  0  0  0  0  0  0  0  0  0  0
  131.9850  123.3220   63.6220 C   0  0  0  0  0  0  0  0  0  0  0  0
  132.9070  124.0150   64.5280 C   0  0  0  0  0  0  0  0  0  0  0  0
  133.6340  124.5620   65.2420 N   0  0  0  0  0  0  0  0  0  0  0  0
  129.8770  124.4850   70.3880 C   0  0  0  0  0  0  0  0  0  0  0  0
  129.8190  124.8340   71.7350 C   0  0  0  0  0  0  0  0  0  0  0  0
  1  2  1  0
  2  3  1  0
  3  4  2  0
  3  5  1  0
  5  6  2  0
  6  7  1  0
  7  8  2  0
  8  9  1  0
  9 10  1  0
 10 11  2  0
 10 12  1  0
 12 13  1  0
 13 14  1  0
 14 15  2  0
 15 16  1  0
 16 17  1  0
 16 18  2  0
 18 19  1  0
 19 20  1  0
 20 21  1  0
 20 22  1  0
 20 23  1  0
 19 24  2  0
 24 25  1  0
 25 26  3  0
  8 27  1  0
 27 28  2  0
 28  5  1  0
 24 14  1  0
M  END
>  <Binding energies>  (17) 
[-7.58]

>  <Ligand effiencies>  (17) 
[-0.2613793103448276]

>  <Interactions>  (17) 
["H-A:HIS:456:NE2:4070, V-A:HIS:456:CD2:4068, V-A:ASP:366:CG:3213, V-A:LEU:475:CD1:4258, V-B:GLU:543:CB:9878, H-A:TYR:484:OH:4348, V-A:TYR:484:CZ:4347, V-B:GLU:543:C:9874, V-A:TYR:484:CE1:4345, V-B:HIS:456:CE1:9040, V-A:HIS:456:CE1:4069, V-B:GLU:543:CG:9879, V-A:ARG:545:CZ:4926, V-B:ALA:541:CB:9864, H-B:LYS:547:NZ:9923, V-A:ILE:369:CD1:3239, V-A:GLY:453:CA:4044, V-A:GLY:454:CA:4049, V-A:GLY:453:C:4042, V-A:ILE:369:CG2:3237, H-A:GLY:454:N:4050, V-B:ALA:541:CA:9862, H-B:GLU:543:O:9875, V-B:LYS:547:CD:9921, V-A:HIS:456:CG:4066, H-A:LYS:547:NZ:4951"]

$$$$
2c_Grossjean_2025
     RDKit          3D

 26 27  0  0  0  0  0  0  0  0999 V2000
  127.2710  126.9130   73.5760 C   0  0  0  0  0  0  0  0  0  0  0  0
  128.3360  126.0130   73.2870 O   0  0  0  0  0  0  0  0  0  0  0  0
  128.6880  125.7870   71.9700 C   0  0  0  0  0  0  0  0  0  0  0  0
  129.4710  124.6610   71.7190 C   0  0  0  0  0  0  0  0  0  0  0  0
  129.8770  124.3510   70.4240 C   0  0  0  0  0  0  0  0  0  0  0  0
  129.5060  125.1810   69.3570 C   0  0  0  0  0  0  0  0  0  0  0  0
  129.8520  124.9400   68.0140 N   0  0  0  0  0  0  0  0  0  0  0  0
  129.2680  125.4180   66.8950 C   0  0  0  0  0  0  0  0  0  0  0  0
  128.2620  126.1300   66.8780 O   0  0  0  0  0  0  0  0  0  0  0  0
  129.9290  124.9750   65.5810 C   0  0  0  0  0  0  0  0  0  0  0  0
  130.1370  123.1720   65.3740 S   0  0  0  0  0  0  0  0  0  0  0  0
  130.9020  122.8390   63.7920 C   0  0  0  0  0  0  0  0  0  0  0  0
  130.1420  122.1450   62.9060 N   0  0  0  0  0  0  0  0  0  0  0  0
  130.6600  121.8490   61.6940 C   0  0  0  0  0  0  0  0  0  0  0  0
  129.7560  121.0580   60.7680 C   0  0  0  0  0  0  0  0  0  0  0  0
  131.9410  122.2360   61.3090 C   0  0  0  0  0  0  0  0  0  0  0  0
  132.7410  122.9600   62.2050 C   0  0  0  0  0  0  0  0  0  0  0  0
  134.1560  123.3820   61.7640 C   0  0  0  0  0  0  0  0  0  0  0  0
  135.0590  122.5300   62.2510 F   0  0  0  0  0  0  0  0  0  0  0  0
  134.2390  123.3870   60.4330 F   0  0  0  0  0  0  0  0  0  0  0  0
  134.4860  124.6040   62.1910 F   0  0  0  0  0  0  0  0  0  0  0  0
  132.2130  123.2730   63.4830 C   0  0  0  0  0  0  0  0  0  0  0  0
  133.0060  124.0260   64.4610 C   0  0  0  0  0  0  0  0  0  0  0  0
  133.6310  124.6210   65.2310 N   0  0  0  0  0  0  0  0  0  0  0  0
  128.7090  126.3010   69.6000 C   0  0  0  0  0  0  0  0  0  0  0  0
  128.3050  126.6070   70.8960 C   0  0  0  0  0  0  0  0  0  0  0  0
  1  2  1  0
  2  3  1  0
  3  4  2  0
  4  5  1  0
  5  6  2  0
  6  7  1  0
  7  8  1  0
  8  9  2  0
  8 10  1  0
 10 11  1  0
 11 12  1  0
 12 13  2  0
 13 14  1  0
 14 15  1  0
 14 16  2  0
 16 17  1  0
 17 18  1  0
 18 19  1  0
 18 20  1  0
 18 21  1  0
 17 22  2  0
 22 23  1  0
 23 24  3  0
  6 25  1  0
 25 26  2  0
 26  3  1  0
 22 12  1  0
M  END
>  <Binding energies>  (18) 
[-7.12]

>  <Ligand effiencies>  (18) 
[-0.2637037037037037]

>  <Interactions>  (18) 
["V-B:GLU:543:CA:9876, V-A:HIS:456:CD2:4068, V-A:ASP:366:CG:3213, V-B:TYR:539:CD2:9846, V-A:LEU:475:CD1:4258, V-B:GLU:543:CB:9878, H-A:TYR:484:OH:4348, V-A:TYR:484:CZ:4347, V-B:GLU:543:C:9874, V-A:TYR:484:CE1:4345, V-B:HIS:456:CE1:9040, V-B:TYR:539:CE2:9848, V-A:HIS:456:CE1:4069, V-A:ARG:545:CZ:4926, V-B:ALA:541:CB:9864, H-B:LYS:547:NZ:9923, V-A:ILE:369:CD1:3239, V-A:GLY:453:CA:4044, V-A:GLY:454:CA:4049, V-A:GLY:453:C:4042, V-A:ILE:369:CB:3236, V-A:ILE:369:CG2:3237, H-A:GLY:454:N:4050, H-B:GLU:543:O:9875, V-A:HIS:456:CG:4066, H-A:HIS:456:ND1:4067"]

$$$$
2d_Ghoteimi_2023
     RDKit          3D

 38 42  0  0  0  0  0  0  0  0999 V2000
  123.8980  131.3810   58.9350 C   0  0  0  0  0  0  0  0  0  0  0  0
  124.1500  132.4830   59.7940 O   0  0  0  0  0  0  0  0  0  0  0  0
  123.9390  132.3790   61.1220 C   0  0  0  0  0  0  0  0  0  0  0  0
  123.8420  133.3260   61.9080 O   0  0  0  0  0  0  0  0  0  0  0  0
  123.8240  130.9100   61.5560 C   0  0  0  0  0  0  0  0  0  0  0  0
  123.8680  130.7520   63.3740 S   0  0  0  0  0  0  0  0  0  0  0  0
  125.4820  130.1640   63.8450 C   0  0  0  0  0  0  0  0  0  0  0  0
  126.4230  130.3590   62.8890 N   0  0  0  0  0  0  0  0  0  0  0  0
  127.6980  129.9520   63.1100 C   0  0  0  0  0  0  0  0  0  0  0  0
  128.6760  130.1830   62.0040 C   0  0  0  0  0  0  0  0  0  0  0  0
  129.5320  129.1600   61.5840 C   0  0  0  0  0  0  0  0  0  0  0  0
  130.4450  129.3680   60.5530 C   0  0  0  0  0  0  0  0  0  0  0  0
  130.5270  130.6060   59.8980 C   0  0  0  0  0  0  0  0  0  0  0  0
  131.4520  130.8380   58.8730 N   0  0  0  0  0  0  0  0  0  0  0  0
  132.4560  129.8240   58.4940 C   0  0  0  0  0  0  0  0  0  0  0  0
  133.6030  130.3830   57.6280 C   0  0  0  0  0  0  0  0  0  0  0  0
  133.0730  131.0230   56.4780 O   0  0  0  0  0  0  0  0  0  0  0  0
  132.2260  132.1050   56.8270 C   0  0  0  0  0  0  0  0  0  0  0  0
  131.0400  131.5990   57.6750 C   0  0  0  0  0  0  0  0  0  0  0  0
  129.6770  131.6330   60.3310 C   0  0  0  0  0  0  0  0  0  0  0  0
  128.7660  131.4250   61.3630 C   0  0  0  0  0  0  0  0  0  0  0  0
  128.0610  129.3390   64.3120 C   0  0  0  0  0  0  0  0  0  0  0  0
  127.1160  129.1560   65.3300 C   0  0  0  0  0  0  0  0  0  0  0  0
  127.5820  128.5190   66.5980 C   0  0  0  0  0  0  0  0  0  0  0  0
  126.8600  127.4650   67.1600 C   0  0  0  0  0  0  0  0  0  0  0  0
  127.2920  126.8560   68.3350 C   0  0  0  0  0  0  0  0  0  0  0  0
  128.4600  127.2880   68.9840 C   0  0  0  0  0  0  0  0  0  0  0  0
  128.9190  126.6840   70.1570 N   0  0  0  0  0  0  0  0  0  0  0  0
  129.1390  125.2260   70.2370 C   0  0  0  0  0  0  0  0  0  0  0  0
  129.9730  124.7960   71.4620 C   0  0  0  0  0  0  0  0  0  0  0  0
  129.3760  125.2840   72.6530 O   0  0  0  0  0  0  0  0  0  0  0  0
  129.2900  126.7010   72.6530 C   0  0  0  0  0  0  0  0  0  0  0  0
  128.4350  127.1790   71.4600 C   0  0  0  0  0  0  0  0  0  0  0  0
  129.1880  128.3360   68.4030 C   0  0  0  0  0  0  0  0  0  0  0  0
  128.7560  128.9430   67.2270 C   0  0  0  0  0  0  0  0  0  0  0  0
  125.7850  129.5850   65.0990 C   0  0  0  0  0  0  0  0  0  0  0  0
  124.7640  129.4330   66.1400 C   0  0  0  0  0  0  0  0  0  0  0  0
  123.9610  129.3120   66.9650 N   0  0  0  0  0  0  0  0  0  0  0  0
  1  2  1  0
  2  3  1  0
  3  4  2  0
  3  5  1  0
  5  6  1  0
  6  7  1  0
  7  8  2  0
  8  9  1  0
  9 10  1  0
 10 11  2  0
 11 12  1  0
 12 13  2  0
 13 14  1  0
 14 15  1  0
 15 16  1  0
 16 17  1  0
 17 18  1  0
 18 19  1  0
 13 20  1  0
 20 21  2  0
  9 22  2  0
 22 23  1  0
 23 24  1  0
 24 25  2  0
 25 26  1  0
 26 27  2  0
 27 28  1  0
 28 29  1  0
 29 30  1  0
 30 31  1  0
 31 32  1  0
 32 33  1  0
 27 34  1  0
 34 35  2  0
 23 36  2  0
 36 37  1  0
 37 38  3  0
 36  7  1  0
 21 10  1  0
 35 24  1  0
 19 14  1  0
 33 28  1  0
M  END
>  <Binding energies>  (19) 
[-9.08]

>  <Ligand effiencies>  (19) 
[-0.23894736842105263]

>  <Interactions>  (19) 
["V-A:GLU:543:CD:4908, V-A:HIS:456:CD2:4068, V-A:ASP:366:CG:3213, V-B:GLU:543:CB:9878, V-B:GLU:543:C:9874, V-B:HIS:456:CE1:9040, V-A:HIS:456:CE1:4069, V-B:ARG:545:CD:9895, V-B:ARG:545:CZ:9898, H-B:TYR:484:OH:9319, V-B:ARG:545:CG:9894, V-A:PRO:540:CA:4883, V-A:TYR:539:CZ:4877, V-A:TYR:539:CE2:4876, V-A:GLU:543:CB:4906, V-A:PRO:540:CB:4885, H-B:LYS:547:NZ:9923, V-A:GLU:543:CG:4907, V-B:ILE:369:CG2:8208, V-B:ILE:369:CD1:8210, H-B:GLY:454:N:9021, H-B:ARG:545:NH2:9900, H-B:ARG:545:NE:9896, V-B:ASP:366:CG:8184, V-A:ASP:366:CB:3212, V-A:PRO:540:N:4884, V-B:ASP:366:CB:8183, V-A:LEU:363:CB:3187, V-A:LEU:363:CA:3185, V-A:HIS:456:CG:4066, V-A:PRO:540:CD:4887, V-A:LEU:363:CD1:3189, H-A:TYR:531:OH:4795, V-A:PRO:540:CG:4886"]

$$$$
2d_Grossjean_2025
     RDKit          3D

 24 25  0  0  0  0  0  0  0  0999 V2000
  129.2360  120.9840   60.9780 C   0  0  0  0  0  0  0  0  0  0  0  0
  130.2750  121.7270   61.7960 C   0  0  0  0  0  0  0  0  0  0  0  0
  131.5710  121.9220   61.3260 C   0  0  0  0  0  0  0  0  0  0  0  0
  132.4950  122.6200   62.1180 C   0  0  0  0  0  0  0  0  0  0  0  0
  133.9210  122.8340   61.5760 C   0  0  0  0  0  0  0  0  0  0  0  0
  134.7840  122.0710   62.2480 F   0  0  0  0  0  0  0  0  0  0  0  0
  133.9740  122.5080   60.2830 F   0  0  0  0  0  0  0  0  0  0  0  0
  134.3320  124.0980   61.6870 F   0  0  0  0  0  0  0  0  0  0  0  0
  132.0750  123.1010   63.3840 C   0  0  0  0  0  0  0  0  0  0  0  0
  132.9880  123.8760   64.2290 C   0  0  0  0  0  0  0  0  0  0  0  0
  133.7090  124.4890   64.8940 N   0  0  0  0  0  0  0  0  0  0  0  0
  130.7460  122.8340   63.7900 C   0  0  0  0  0  0  0  0  0  0  0  0
  130.0640  123.3370   65.3590 S   0  0  0  0  0  0  0  0  0  0  0  0
  130.0790  125.1580   65.4470 C   0  0  0  0  0  0  0  0  0  0  0  0
  129.4450  125.7010   66.7310 C   0  0  0  0  0  0  0  0  0  0  0  0
  128.6460  126.6350   66.6560 O   0  0  0  0  0  0  0  0  0  0  0  0
  129.8510  125.1120   67.8760 N   0  0  0  0  0  0  0  0  0  0  0  0
  129.4560  125.3790   69.2000 C   0  0  0  0  0  0  0  0  0  0  0  0
  129.8740  124.4560   70.1620 C   0  0  0  0  0  0  0  0  0  0  0  0
  129.5280  124.6300   71.4990 C   0  0  0  0  0  0  0  0  0  0  0  0
  128.7540  125.7250   71.8750 C   0  0  0  0  0  0  0  0  0  0  0  0
  128.3200  126.6450   70.9230 C   0  0  0  0  0  0  0  0  0  0  0  0
  128.6650  126.4740   69.5860 C   0  0  0  0  0  0  0  0  0  0  0  0
  129.8600  122.1770   63.0030 N   0  0  0  0  0  0  0  0  0  0  0  0
  1  2  1  0
  2  3  2  0
  3  4  1  0
  4  5  1  0
  5  6  1  0
  5  7  1  0
  5  8  1  0
  4  9  2  0
  9 10  1  0
 10 11  3  0
  9 12  1  0
 12 13  1  0
 13 14  1  0
 14 15  1  0
 15 16  2  0
 15 17  1  0
 17 18  1  0
 18 19  2  0
 19 20  1  0
 20 21  2  0
 21 22  1  0
 22 23  2  0
 12 24  2  0
 24  2  1  0
 23 18  1  0
M  END
>  <Binding energies>  (20) 
[-6.43]

>  <Ligand effiencies>  (20) 
[-0.2572]

>  <Interactions>  (20) 
["V-A:HIS:456:CD2:4068, V-A:ASP:366:CG:3213, V-B:TYR:539:CD2:9846, V-A:LEU:475:CD1:4258, V-B:GLU:543:CB:9878, H-A:TYR:484:OH:4348, V-A:TYR:484:CZ:4347, V-B:GLU:543:C:9874, V-A:TYR:484:CE1:4345, V-B:HIS:456:CE1:9040, V-A:HIS:456:CE1:4069, V-B:ALA:541:CB:9864, V-A:ILE:369:CD1:3239, V-A:GLY:454:CA:4049, V-A:GLY:453:C:4042, V-A:ILE:369:CB:3236, V-A:ILE:369:CG2:3237, H-A:GLY:454:N:4050, V-B:ALA:541:CA:9862, H-B:GLU:543:O:9875, V-A:HIS:456:CG:4066, V-A:ILE:369:CG1:3238, H-A:HIS:456:ND1:4067"]

$$$$
2e_Grossjean_2025
     RDKit          3D

 25 26  0  0  0  0  0  0  0  0999 V2000
  127.2180  130.5810   75.6250 C   0  0  0  0  0  0  0  0  0  0  0  0
  126.4640  129.3930   75.0580 C   0  0  0  0  0  0  0  0  0  0  0  0
  125.2240  129.0010   75.5690 C   0  0  0  0  0  0  0  0  0  0  0  0
  124.5840  127.9050   74.9890 C   0  0  0  0  0  0  0  0  0  0  0  0
  125.1910  127.2340   73.9250 C   0  0  0  0  0  0  0  0  0  0  0  0
  126.4390  127.6730   73.4680 C   0  0  0  0  0  0  0  0  0  0  0  0
  126.9850  126.9900   72.3680 N   0  0  0  0  0  0  0  0  0  0  0  0
  128.0850  127.3080   71.6510 C   0  0  0  0  0  0  0  0  0  0  0  0
  128.8480  128.2420   71.9050 O   0  0  0  0  0  0  0  0  0  0  0  0
  128.3440  126.4480   70.4110 C   0  0  0  0  0  0  0  0  0  0  0  0
  126.9390  126.4760   69.2520 S   0  0  0  0  0  0  0  0  0  0  0  0
  127.6430  126.8450   67.6600 C   0  0  0  0  0  0  0  0  0  0  0  0
  128.8180  126.2190   67.4040 N   0  0  0  0  0  0  0  0  0  0  0  0
  129.4450  126.4770   66.2340 C   0  0  0  0  0  0  0  0  0  0  0  0
  130.7530  125.7440   66.0110 C   0  0  0  0  0  0  0  0  0  0  0  0
  128.9350  127.3640   65.2860 C   0  0  0  0  0  0  0  0  0  0  0  0
  127.7250  128.0260   65.5410 C   0  0  0  0  0  0  0  0  0  0  0  0
  127.1850  129.0190   64.4940 C   0  0  0  0  0  0  0  0  0  0  0  0
  127.8780  128.9110   63.3600 F   0  0  0  0  0  0  0  0  0  0  0  0
  125.9010  128.7630   64.2430 F   0  0  0  0  0  0  0  0  0  0  0  0
  127.2710  130.2890   64.8970 F   0  0  0  0  0  0  0  0  0  0  0  0
  127.0530  127.7620   66.7610 C   0  0  0  0  0  0  0  0  0  0  0  0
  125.8000  128.4440   67.0990 C   0  0  0  0  0  0  0  0  0  0  0  0
  124.8110  128.9840   67.3660 N   0  0  0  0  0  0  0  0  0  0  0  0
  127.0680  128.7500   74.0250 N   0  0  0  0  0  0  0  0  0  0  0  0
  1  2  1  0
  2  3  2  0
  3  4  1  0
  4  5  2  0
  5  6  1  0
  6  7  1  0
  7  8  1  0
  8  9  2  0
  8 10  1  0
 10 11  1  0
 11 12  1  0
 12 13  2  0
 13 14  1  0
 14 15  1  0
 14 16  2  0
 16 17  1  0
 17 18  1  0
 18 19  1  0
 18 20  1  0
 18 21  1  0
 17 22  2  0
 22 23  1  0
 23 24  3  0
  6 25  2  0
 25  2  1  0
 22 12  1  0
M  END
>  <Binding energies>  (21) 
[-6.44]

>  <Ligand effiencies>  (21) 
[-0.2476923076923077]

>  <Interactions>  (21) 
["V-A:GLU:543:CD:4908, V-B:GLU:543:CD:9880, V-B:GLU:543:CB:9878, H-B:HIS:456:NE2:9041, V-B:HIS:456:CE1:9040, V-A:HIS:456:CE1:4069, V-B:ARG:545:CD:9895, V-B:ARG:545:CZ:9898, H-B:TYR:484:OH:9319, V-B:ARG:545:CG:9894, H-B:ARG:545:N:9892, V-B:GLY:544:C:9884, H-B:ARG:545:NE:9896, V-B:HIS:456:CD2:9039, V-B:HIS:456:CG:9037, V-B:HIS:456:CB:9036, H-B:GLY:544:O:9885, V-B:VAL:458:CG2:9058, V-B:LYS:471:CE:9191, V-B:VAL:457:C:9044, V-B:HIS:456:C:9032"]

$$$$
2f_Grossjean_2025
     RDKit          3D

 24 25  0  0  0  0  0  0  0  0999 V2000
  127.8760  130.4970   64.5900 C   0  0  0  0  0  0  0  0  0  0  0  0
  128.3440  129.1750   65.1700 C   0  0  0  0  0  0  0  0  0  0  0  0
  128.5860  128.0680   64.3610 C   0  0  0  0  0  0  0  0  0  0  0  0
  129.0110  126.8650   64.9460 C   0  0  0  0  0  0  0  0  0  0  0  0
  129.2620  125.6480   64.0360 C   0  0  0  0  0  0  0  0  0  0  0  0
  128.6950  125.8430   62.8430 F   0  0  0  0  0  0  0  0  0  0  0  0
  130.5720  125.4680   63.8670 F   0  0  0  0  0  0  0  0  0  0  0  0
  128.7610  124.5160   64.5350 F   0  0  0  0  0  0  0  0  0  0  0  0
  129.1870  126.8200   66.3530 C   0  0  0  0  0  0  0  0  0  0  0  0
  129.5730  125.5730   67.0170 C   0  0  0  0  0  0  0  0  0  0  0  0
  129.8800  124.5870   67.5410 N   0  0  0  0  0  0  0  0  0  0  0  0
  128.9420  128.0030   67.0920 C   0  0  0  0  0  0  0  0  0  0  0  0
  129.1230  128.1310   68.8600 S   0  0  0  0  0  0  0  0  0  0  0  0
  127.9840  126.9340   69.6340 C   0  0  0  0  0  0  0  0  0  0  0  0
  128.5710  126.1440   70.8130 C   0  0  0  0  0  0  0  0  0  0  0  0
  128.6000  126.6330   71.9440 O   0  0  0  0  0  0  0  0  0  0  0  0
  129.0480  124.9230   70.4880 N   0  0  0  0  0  0  0  0  0  0  0  0
  129.6360  123.9440   71.3100 C   0  0  0  0  0  0  0  0  0  0  0  0
  130.7220  124.1540   72.1810 C   0  0  0  0  0  0  0  0  0  0  0  0
  131.2070  123.0930   72.9480 C   0  0  0  0  0  0  0  0  0  0  0  0
  130.5920  121.8470   72.8290 C   0  0  0  0  0  0  0  0  0  0  0  0
  129.5390  121.6200   72.0040 N   0  0  0  0  0  0  0  0  0  0  0  0
  129.0780  122.6620   71.2650 C   0  0  0  0  0  0  0  0  0  0  0  0
  128.5110  129.1490   66.5120 N   0  0  0  0  0  0  0  0  0  0  0  0
  1  2  1  0
  2  3  2  0
  3  4  1  0
  4  5  1  0
  5  6  1  0
  5  7  1  0
  5  8  1  0
  4  9  2  0
  9 10  1  0
 10 11  3  0
  9 12  1  0
 12 13  1  0
 13 14  1  0
 14 15  1  0
 15 16  2  0
 15 17  1  0
 17 18  1  0
 18 19  2  0
 19 20  1  0
 20 21  2  0
 21 22  1  0
 22 23  2  0
 12 24  2  0
 24  2  1  0
 23 18  1  0
M  END
>  <Binding energies>  (22) 
[-5.91]

>  <Ligand effiencies>  (22) 
[-0.2364]

>  <Interactions>  (22) 
["H-A:HIS:456:NE2:4070, V-B:GLU:543:CA:9876, V-A:GLU:543:CD:4908, V-A:HIS:456:CD2:4068, V-B:GLU:543:CD:9880, V-B:GLU:543:CB:9878, H-B:HIS:456:NE2:9041, H-A:TYR:484:OH:4348, V-B:GLU:543:C:9874, V-A:TYR:484:CE1:4345, V-B:HIS:456:CE1:9040, V-A:HIS:456:CE1:4069, V-B:GLU:543:CG:9879, V-A:GLU:543:CB:4906, H-B:LYS:547:NZ:9923, V-A:GLU:543:CG:4907, H-B:GLU:543:O:9875, V-A:TYR:484:CG:4342, V-A:HIS:456:CG:4066, V-A:TYR:484:CD1:4343, V-A:TYR:484:CD2:4344, V-B:GLY:544:CA:9886, V-A:HIS:456:CB:4065, V-B:LYS:547:CE:9922, V-A:ASP:473:CB:4239, V-A:TYR:484:CB:4341"]

$$$$
2g_Grossjean_2025
     RDKit          3D

 25 26  0  0  0  0  0  0  0  0999 V2000
  128.4970  126.8130   62.1170 C   0  0  0  0  0  0  0  0  0  0  0  0
  128.6790  127.1210   63.5910 C   0  0  0  0  0  0  0  0  0  0  0  0
  128.0730  128.2250   64.1860 C   0  0  0  0  0  0  0  0  0  0  0  0
  128.2780  128.4720   65.5520 C   0  0  0  0  0  0  0  0  0  0  0  0
  127.6070  129.7040   66.1900 C   0  0  0  0  0  0  0  0  0  0  0  0
  127.3520  130.6260   65.2600 F   0  0  0  0  0  0  0  0  0  0  0  0
  126.4600  129.3450   66.7680 F   0  0  0  0  0  0  0  0  0  0  0  0
  128.3660  130.2800   67.1250 F   0  0  0  0  0  0  0  0  0  0  0  0
  129.0950  127.5770   66.2880 C   0  0  0  0  0  0  0  0  0  0  0  0
  129.3880  127.8200   67.7040 C   0  0  0  0  0  0  0  0  0  0  0  0
  129.6180  128.0130   68.8210 N   0  0  0  0  0  0  0  0  0  0  0  0
  129.6450  126.4640   65.6060 C   0  0  0  0  0  0  0  0  0  0  0  0
  130.6700  125.2320   66.3810 S   0  0  0  0  0  0  0  0  0  0  0  0
  132.4050  125.6270   65.9740 C   0  0  0  0  0  0  0  0  0  0  0  0
  132.8600  125.1590   64.5850 C   0  0  0  0  0  0  0  0  0  0  0  0
  133.7300  124.2960   64.4510 O   0  0  0  0  0  0  0  0  0  0  0  0
  132.2510  125.7580   63.5450 N   0  0  0  0  0  0  0  0  0  0  0  0
  132.5090  125.4750   62.1320 C   0  0  0  0  0  0  0  0  0  0  0  0
  132.4800  123.9930   61.7720 C   0  0  0  0  0  0  0  0  0  0  0  0
  133.6450  123.3640   61.3210 C   0  0  0  0  0  0  0  0  0  0  0  0
  133.6300  122.0020   61.0280 C   0  0  0  0  0  0  0  0  0  0  0  0
  132.4560  121.2730   61.1960 C   0  0  0  0  0  0  0  0  0  0  0  0
  131.2950  121.8920   61.6570 C   0  0  0  0  0  0  0  0  0  0  0  0
  131.3090  123.2520   61.9510 C   0  0  0  0  0  0  0  0  0  0  0  0
  129.4550  126.2540   64.2800 N   0  0  0  0  0  0  0  0  0  0  0  0
  1  2  1  0
  2  3  2  0
  3  4  1  0
  4  5  1  0
  5  6  1  0
  5  7  1  0
  5  8  1  0
  4  9  2  0
  9 10  1  0
 10 11  3  0
  9 12  1  0
 12 13  1  0
 13 14  1  0
 14 15  1  0
 15 16  2  0
 15 17  1  0
 17 18  1  0
 18 19  1  0
 19 20  2  0
 20 21  1  0
 21 22  2  0
 22 23  1  0
 23 24  2  0
 12 25  2  0
 25  2  1  0
 24 19  1  0
M  END
>  <Binding energies>  (23) 
[-5.67]

>  <Ligand effiencies>  (23) 
[-0.21807692307692308]

>  <Interactions>  (23) 
["H-A:HIS:456:NE2:4070, V-A:GLU:543:CD:4908, V-B:GLU:543:CD:9880, V-A:ASP:366:CG:3213, V-A:LEU:475:CD1:4258, H-A:TYR:484:OH:4348, V-B:HIS:456:CE1:9040, V-A:HIS:456:CE1:4069, V-A:GLU:543:CB:4906, V-A:ARG:545:CZ:4926, V-A:GLU:543:CG:4907, V-B:TYR:484:CE1:9316, V-B:TYR:484:CZ:9318, V-A:ILE:369:CD1:3239, V-A:ILE:369:CG2:3237, H-A:GLY:454:N:4050, H-A:GLU:543:OE1:4909, H-A:GLU:543:OE2:4910, V-A:GLU:543:CA:4904"]

$$$$
2h_Grossjean_2025
     RDKit          3D

 31 32  0  0  0  0  0  0  0  0999 V2000
  132.8200  126.6170   74.2550 C   0  0  0  0  0  0  0  0  0  0  0  0
  131.4260  126.8490   74.4220 O   0  0  0  0  0  0  0  0  0  0  0  0
  130.5820  126.7270   73.3320 C   0  0  0  0  0  0  0  0  0  0  0  0
  130.1830  127.8050   72.5260 C   0  0  0  0  0  0  0  0  0  0  0  0
  129.3360  127.6030   71.4390 C   0  0  0  0  0  0  0  0  0  0  0  0
  128.8690  126.3240   71.1320 C   0  0  0  0  0  0  0  0  0  0  0  0
  127.9580  126.1240   69.9230 C   0  0  0  0  0  0  0  0  0  0  0  0
  128.6830  125.9670   68.6610 N   0  0  0  0  0  0  0  0  0  0  0  0
  129.4990  126.8890   68.1220 C   0  0  0  0  0  0  0  0  0  0  0  0
  129.6590  128.0130   68.6020 O   0  0  0  0  0  0  0  0  0  0  0  0
  130.2430  126.4530   66.8520 C   0  0  0  0  0  0  0  0  0  0  0  0
  130.2350  124.6570   66.5320 S   0  0  0  0  0  0  0  0  0  0  0  0
  130.6400  124.4400   64.8120 C   0  0  0  0  0  0  0  0  0  0  0  0
  129.5550  124.3280   64.0060 N   0  0  0  0  0  0  0  0  0  0  0  0
  129.7480  124.1400   62.6820 C   0  0  0  0  0  0  0  0  0  0  0  0
  128.4900  124.0160   61.8430 C   0  0  0  0  0  0  0  0  0  0  0  0
  131.0170  124.0630   62.1100 C   0  0  0  0  0  0  0  0  0  0  0  0
  132.1510  124.1970   62.9250 C   0  0  0  0  0  0  0  0  0  0  0  0
  133.5450  124.1180   62.2740 C   0  0  0  0  0  0  0  0  0  0  0  0
  134.1350  122.9680   62.6000 F   0  0  0  0  0  0  0  0  0  0  0  0
  133.4960  124.1790   60.9410 F   0  0  0  0  0  0  0  0  0  0  0  0
  134.3060  125.1290   62.6950 F   0  0  0  0  0  0  0  0  0  0  0  0
  131.9650  124.4020   64.3170 C   0  0  0  0  0  0  0  0  0  0  0  0
  133.1150  124.6070   65.2010 C   0  0  0  0  0  0  0  0  0  0  0  0
  134.0240  124.7710   65.8970 N   0  0  0  0  0  0  0  0  0  0  0  0
  129.2410  125.2410   71.9430 C   0  0  0  0  0  0  0  0  0  0  0  0
  128.7830  123.9780   71.6500 O   0  0  0  0  0  0  0  0  0  0  0  0
  129.6820  123.1940   70.8760 C   0  0  0  0  0  0  0  0  0  0  0  0
  130.1110  125.4440   73.0280 C   0  0  0  0  0  0  0  0  0  0  0  0
  130.4920  124.3820   73.8140 O   0  0  0  0  0  0  0  0  0  0  0  0
  131.6520  123.7040   73.3510 C   0  0  0  0  0  0  0  0  0  0  0  0
  1  2  1  0
  2  3  1  0
  3  4  2  0
  4  5  1  0
  5  6  2  0
  6  7  1  0
  7  8  1  0
  8  9  1  0
  9 10  2  0
  9 11  1  0
 11 12  1  0
 12 13  1  0
 13 14  2  0
 14 15  1  0
 15 16  1  0
 15 17  2  0
 17 18  1  0
 18 19  1  0
 19 20  1  0
 19 21  1  0
 19 22  1  0
 18 23  2  0
 23 24  1  0
 24 25  3  0
  6 26  1  0
 26 27  1  0
 27 28  1  0
 26 29  2  0
 29 30  1  0
 30 31  1  0
 29  3  1  0
 23 13  1  0
M  END
>  <Binding energies>  (24) 
[-6.79]

>  <Ligand effiencies>  (24) 
[-0.2121875]

>  <Interactions>  (24) 
["H-A:HIS:456:NE2:4070, V-A:GLU:543:CD:4908, V-A:HIS:456:CD2:4068, V-B:GLU:543:CD:9880, V-A:ASP:366:CG:3213, H-A:TYR:484:OH:4348, V-A:TYR:484:CZ:4347, V-B:GLU:543:C:9874, V-A:TYR:484:CE1:4345, V-B:HIS:456:CE1:9040, V-A:HIS:456:CE1:4069, V-B:GLU:543:CG:9879, V-A:ARG:545:CZ:4926, V-B:GLY:544:C:9884, H-B:LYS:547:NZ:9923, V-A:ILE:369:CD1:3239, V-A:GLY:453:CA:4044, V-A:GLY:454:CA:4049, V-A:GLY:453:C:4042, H-A:GLY:454:N:4050, H-A:ARG:545:NE:4924, H-B:GLU:543:O:9875, V-A:TYR:484:CG:4342, V-A:TYR:484:CE2:4346, V-A:HIS:456:CG:4066, V-A:TYR:484:CD1:4343, V-A:TYR:484:CD2:4344, V-A:HIS:456:CB:4065, H-A:LYS:547:NZ:4951, V-A:LYS:547:CE:4950, V-A:LYS:547:CD:4949"]

$$$$
2i_Grossjean_2025
     RDKit          3D

 23 24  0  0  0  0  0  0  0  0999 V2000
  127.9890  130.6610   65.5460 C   0  0  0  0  0  0  0  0  0  0  0  0
  128.4040  129.2800   66.0210 C   0  0  0  0  0  0  0  0  0  0  0  0
  128.6290  128.2380   65.1260 C   0  0  0  0  0  0  0  0  0  0  0  0
  129.0130  126.9810   65.6150 C   0  0  0  0  0  0  0  0  0  0  0  0
  129.2570  125.8380   64.6110 C   0  0  0  0  0  0  0  0  0  0  0  0
  128.6950  126.1340   63.4380 F   0  0  0  0  0  0  0  0  0  0  0  0
  130.5660  125.6580   64.4310 F   0  0  0  0  0  0  0  0  0  0  0  0
  128.7450  124.6740   65.0190 F   0  0  0  0  0  0  0  0  0  0  0  0
  129.1600  126.8150   67.0160 C   0  0  0  0  0  0  0  0  0  0  0  0
  129.5620  125.5220   67.5810 C   0  0  0  0  0  0  0  0  0  0  0  0
  129.8780  124.5030   68.0280 N   0  0  0  0  0  0  0  0  0  0  0  0
  128.9100  127.9270   67.8520 C   0  0  0  0  0  0  0  0  0  0  0  0
  129.0550  127.8340   69.6300 S   0  0  0  0  0  0  0  0  0  0  0  0
  127.8370  126.6270   70.2340 C   0  0  0  0  0  0  0  0  0  0  0  0
  128.4340  125.6700   71.2680 C   0  0  0  0  0  0  0  0  0  0  0  0
  128.3260  125.9390   72.4660 O   0  0  0  0  0  0  0  0  0  0  0  0
  129.0720  124.5890   70.7700 N   0  0  0  0  0  0  0  0  0  0  0  0
  129.7040  123.5940   71.4960 C   0  0  0  0  0  0  0  0  0  0  0  0
  130.9350  123.6090   72.1680 C   0  0  0  0  0  0  0  0  0  0  0  0
  131.0520  122.3520   72.7140 C   0  0  0  0  0  0  0  0  0  0  0  0
  129.9530  121.6270   72.3960 O   0  0  0  0  0  0  0  0  0  0  0  0
  129.1060  122.4300   71.6290 N   0  0  0  0  0  0  0  0  0  0  0  0
  128.5390  129.1360   67.3580 N   0  0  0  0  0  0  0  0  0  0  0  0
  1  2  1  0
  2  3  2  0
  3  4  1  0
  4  5  1  0
  5  6  1  0
  5  7  1  0
  5  8  1  0
  4  9  2  0
  9 10  1  0
 10 11  3  0
  9 12  1  0
 12 13  1  0
 13 14  1  0
 14 15  1  0
 15 16  2  0
 15 17  1  0
 17 18  1  0
 18 19  1  0
 19 20  2  0
 20 21  1  0
 21 22  1  0
 12 23  2  0
 23  2  1  0
 22 18  2  0
M  END
>  <Binding energies>  (25) 
[-6.7]

>  <Ligand effiencies>  (25) 
[-0.2791666666666667]

>  <Interactions>  (25) 
["H-A:HIS:456:NE2:4070, V-B:GLU:543:CA:9876, V-A:GLU:543:CD:4908, V-A:HIS:456:CD2:4068, V-B:GLU:543:CD:9880, V-B:GLU:543:CB:9878, H-B:HIS:456:NE2:9041, H-A:TYR:484:OH:4348, V-B:GLU:543:C:9874, V-B:HIS:456:CE1:9040, V-A:HIS:456:CE1:4069, V-B:GLU:543:CG:9879, V-A:GLU:543:CB:4906, V-B:GLY:544:C:9884, H-B:LYS:547:NZ:9923, V-A:GLU:543:CG:4907, V-B:TYR:484:CE1:9316, V-B:TYR:484:CZ:9318, H-B:GLU:543:O:9875, V-A:TYR:484:CG:4342, V-A:TYR:484:CE2:4346, V-A:HIS:456:CG:4066, V-A:TYR:484:CD1:4343, V-A:TYR:484:CD2:4344, V-A:HIS:456:CB:4065, V-A:ASP:473:CB:4239, V-A:TYR:484:CB:4341"]

$$$$
2k_Grossjean_2025
     RDKit          3D

 28 28  0  0  0  0  0  0  0  0999 V2000
  132.8310  131.3890   61.8450 C   0  0  0  0  0  0  0  0  0  0  0  0
  131.6410  131.9370   61.3010 O   0  0  0  0  0  0  0  0  0  0  0  0
  130.5720  131.0030   61.2210 C   0  0  0  0  0  0  0  0  0  0  0  0
  129.4060  131.4730   62.1010 C   0  0  0  0  0  0  0  0  0  0  0  0
  129.1750  132.8540   61.8640 O   0  0  0  0  0  0  0  0  0  0  0  0
  128.5430  133.1360   60.6220 C   0  0  0  0  0  0  0  0  0  0  0  0
  127.0280  133.1990   60.8510 C   0  0  0  0  0  0  0  0  0  0  0  0
  126.5470  131.8680   60.9480 O   0  0  0  0  0  0  0  0  0  0  0  0
  125.7750  131.5870   62.1060 C   0  0  0  0  0  0  0  0  0  0  0  0
  125.5610  130.0650   62.2070 C   0  0  0  0  0  0  0  0  0  0  0  0
  125.7900  129.5440   63.5570 N   0  0  0  0  0  0  0  0  0  0  0  0
  124.9560  129.6890   64.6050 C   0  0  0  0  0  0  0  0  0  0  0  0
  123.8690  130.2660   64.5310 O   0  0  0  0  0  0  0  0  0  0  0  0
  125.4500  129.1030   65.9350 C   0  0  0  0  0  0  0  0  0  0  0  0
  127.1790  129.5000   66.3720 S   0  0  0  0  0  0  0  0  0  0  0  0
  128.0720  127.9850   66.6950 C   0  0  0  0  0  0  0  0  0  0  0  0
  128.1540  127.6170   68.0000 N   0  0  0  0  0  0  0  0  0  0  0  0
  128.8190  126.4840   68.3180 C   0  0  0  0  0  0  0  0  0  0  0  0
  128.8750  126.1480   69.7950 C   0  0  0  0  0  0  0  0  0  0  0  0
  129.4150  125.6690   67.3600 C   0  0  0  0  0  0  0  0  0  0  0  0
  129.3370  126.0260   66.0050 C   0  0  0  0  0  0  0  0  0  0  0  0
  129.9980  125.1090   64.9580 C   0  0  0  0  0  0  0  0  0  0  0  0
  129.1860  124.8170   63.9400 F   0  0  0  0  0  0  0  0  0  0  0  0
  131.0800  125.7030   64.4500 F   0  0  0  0  0  0  0  0  0  0  0  0
  130.3630  123.9580   65.5230 F   0  0  0  0  0  0  0  0  0  0  0  0
  128.6490  127.2160   65.6570 C   0  0  0  0  0  0  0  0  0  0  0  0
  128.5390  127.6390   64.2570 C   0  0  0  0  0  0  0  0  0  0  0  0
  128.4510  127.9710   63.1520 N   0  0  0  0  0  0  0  0  0  0  0  0
  1  2  1  0
  2  3  1  0
  3  4  1  0
  4  5  1  0
  5  6  1  0
  6  7  1  0
  7  8  1  0
  8  9  1  0
  9 10  1  0
 10 11  1  0
 11 12  1  0
 12 13  2  0
 12 14  1  0
 14 15  1  0
 15 16  1  0
 16 17  2  0
 17 18  1  0
 18 19  1  0
 18 20  2  0
 20 21  1  0
 21 22  1  0
 22 23  1  0
 22 24  1  0
 22 25  1  0
 21 26  2  0
 26 27  1  0
 27 28  3  0
 26 16  1  0
M  END
>  <Binding energies>  (26) 
[-4.71]

>  <Ligand effiencies>  (26) 
[-0.16241379310344828]

>  <Interactions>  (26) 
["V-A:GLU:543:CD:4908, V-B:GLU:543:CD:9880, V-B:GLU:543:CB:9878, V-A:TYR:484:CZ:4347, V-A:TYR:484:CE1:4345, V-B:HIS:456:CE1:9040, V-A:HIS:456:CE1:4069, V-B:GLU:543:CG:9879, V-B:ARG:545:CD:9895, V-B:ARG:545:CZ:9898, H-B:TYR:484:OH:9319, V-A:ALA:541:CB:4892, V-A:PRO:540:C:4881, V-A:PRO:540:CA:4883, V-A:TYR:539:CD2:4874, V-A:TYR:539:CE2:4876, V-A:PRO:540:CB:4885, H-B:GLY:454:N:9021, H-B:ARG:545:NH2:9900, H-B:ARG:545:NE:9896, H-A:ALA:541:N:4891, H-B:GLU:543:OE1:9881, V-A:ASN:362:CB:3176"]

$$$$
3aa_Grossjean_2025
     RDKit          3D

 34 36  0  0  0  0  0  0  0  0999 V2000
  125.8700  126.9740   73.9130 C   0  0  0  0  0  0  0  0  0  0  0  0
  127.0470  127.0640   74.8900 C   0  0  0  0  0  0  0  0  0  0  0  0
  128.0150  126.0760   74.5590 O   0  0  0  0  0  0  0  0  0  0  0  0
  129.1830  126.4170   73.9560 C   0  0  0  0  0  0  0  0  0  0  0  0
  130.1560  126.8700   74.5660 O   0  0  0  0  0  0  0  0  0  0  0  0
  129.1690  126.2030   72.4690 C   0  0  0  0  0  0  0  0  0  0  0  0
  129.5880  124.9980   71.8880 C   0  0  0  0  0  0  0  0  0  0  0  0
  129.5580  124.8310   70.5060 C   0  0  0  0  0  0  0  0  0  0  0  0
  129.1030  125.8600   69.6790 C   0  0  0  0  0  0  0  0  0  0  0  0
  129.1090  125.5880   68.2960 N   0  0  0  0  0  0  0  0  0  0  0  0
  129.2650  126.4320   67.2530 C   0  0  0  0  0  0  0  0  0  0  0  0
  129.4130  127.6520   67.3380 O   0  0  0  0  0  0  0  0  0  0  0  0
  129.2370  125.7820   65.8700 C   0  0  0  0  0  0  0  0  0  0  0  0
  130.1460  124.2080   65.8450 S   0  0  0  0  0  0  0  0  0  0  0  0
  130.7640  123.9890   64.1910 C   0  0  0  0  0  0  0  0  0  0  0  0
  129.7940  123.7480   63.2760 N   0  0  0  0  0  0  0  0  0  0  0  0
  130.1300  123.5600   61.9740 C   0  0  0  0  0  0  0  0  0  0  0  0
  128.9990  123.3140   61.0200 C   0  0  0  0  0  0  0  0  0  0  0  0
  129.2530  123.0250   59.6700 C   0  0  0  0  0  0  0  0  0  0  0  0
  128.2080  122.7950   58.7790 C   0  0  0  0  0  0  0  0  0  0  0  0
  126.8930  122.8510   59.2270 C   0  0  0  0  0  0  0  0  0  0  0  0
  126.6150  123.1330   60.5610 C   0  0  0  0  0  0  0  0  0  0  0  0
  127.6620  123.3600   61.4500 C   0  0  0  0  0  0  0  0  0  0  0  0
  131.4640  123.6190   61.5600 C   0  0  0  0  0  0  0  0  0  0  0  0
  132.4880  123.8490   62.4920 C   0  0  0  0  0  0  0  0  0  0  0  0
  133.9460  123.8940   61.9980 C   0  0  0  0  0  0  0  0  0  0  0  0
  134.6080  122.7590   62.2330 F   0  0  0  0  0  0  0  0  0  0  0  0
  133.9800  124.1100   60.6830 F   0  0  0  0  0  0  0  0  0  0  0  0
  134.6030  124.8780   62.6140 F   0  0  0  0  0  0  0  0  0  0  0  0
  132.1340  124.0280   63.8520 C   0  0  0  0  0  0  0  0  0  0  0  0
  133.1650  124.2140   64.8770 C   0  0  0  0  0  0  0  0  0  0  0  0
  133.9790  124.3600   65.6880 N   0  0  0  0  0  0  0  0  0  0  0  0
  128.6950  127.0740   70.2530 C   0  0  0  0  0  0  0  0  0  0  0  0
  128.7280  127.2380   71.6340 C   0  0  0  0  0  0  0  0  0  0  0  0
  1  2  1  0
  2  3  1  0
  3  4  1  0
  4  5  2  0
  4  6  1  0
  6  7  2  0
  7  8  1  0
  8  9  2  0
  9 10  1  0
 10 11  1  0
 11 12  2  0
 11 13  1  0
 13 14  1  0
 14 15  1  0
 15 16  2  0
 16 17  1  0
 17 18  1  0
 18 19  2  0
 19 20  1  0
 20 21  2  0
 21 22  1  0
 22 23  2  0
 17 24  2  0
 24 25  1  0
 25 26  1  0
 26 27  1  0
 26 28  1  0
 26 29  1  0
 25 30  2  0
 30 31  1  0
 31 32  3  0
  9 33  1  0
 33 34  2  0
 34  6  1  0
 30 15  1  0
 23 18  1  0
M  END
>  <Binding energies>  (27) 
[-8.45]

>  <Ligand effiencies>  (27) 
[-0.2414285714285714]

>  <Interactions>  (27) 
["V-A:HIS:456:CD2:4068, V-B:GLU:543:CD:9880, V-A:ASP:366:CG:3213, V-B:TYR:539:CD2:9846, V-B:GLU:543:CB:9878, H-A:TYR:484:OH:4348, V-B:GLU:543:C:9874, V-B:HIS:456:CE1:9040, V-B:TYR:539:CE2:9848, V-A:HIS:456:CE1:4069, V-B:GLU:543:CG:9879, V-A:ARG:545:CZ:4926, V-B:PRO:540:CA:9855, V-B:ALA:541:CB:9864, H-B:LYS:547:NZ:9923, V-B:TYR:539:C:9839, V-B:PRO:540:CB:9857, V-B:PRO:540:C:9853, V-B:PRO:540:N:9856, V-A:ILE:369:CD1:3239, V-A:GLY:453:CA:4044, V-A:GLY:454:CA:4049, V-A:GLY:453:C:4042, H-A:GLY:454:N:4050, H-B:GLU:543:O:9875, V-B:LYS:547:CD:9921, H-A:LYS:547:NZ:4951"]

$$$$
3ad_Grossjean_2025
     RDKit          3D

 29 31  0  0  0  0  0  0  0  0999 V2000
  133.1630  124.5630   61.5040 N   0  0  0  0  0  0  0  0  0  0  0  0
  132.4930  124.8530   62.4030 C   0  0  0  0  0  0  0  0  0  0  0  0
  131.6480  125.2190   63.5440 C   0  0  0  0  0  0  0  0  0  0  0  0
  132.1360  125.1150   64.8690 C   0  0  0  0  0  0  0  0  0  0  0  0
  133.5730  124.6630   65.1940 C   0  0  0  0  0  0  0  0  0  0  0  0
  134.4560  125.0350   64.2650 F   0  0  0  0  0  0  0  0  0  0  0  0
  133.9640  125.1930   66.3550 F   0  0  0  0  0  0  0  0  0  0  0  0
  133.6260  123.3340   65.2860 F   0  0  0  0  0  0  0  0  0  0  0  0
  131.2720  125.4340   65.9280 C   0  0  0  0  0  0  0  0  0  0  0  0
  129.9580  125.8400   65.6710 C   0  0  0  0  0  0  0  0  0  0  0  0
  128.9890  126.1770   66.7650 C   0  0  0  0  0  0  0  0  0  0  0  0
  127.8160  126.8980   66.4870 C   0  0  0  0  0  0  0  0  0  0  0  0
  126.9120  127.2130   67.4970 C   0  0  0  0  0  0  0  0  0  0  0  0
  127.1690  126.8100   68.8040 C   0  0  0  0  0  0  0  0  0  0  0  0
  128.3220  126.0930   69.1050 C   0  0  0  0  0  0  0  0  0  0  0  0
  129.2240  125.7790   68.0910 C   0  0  0  0  0  0  0  0  0  0  0  0
  129.4940  125.9320   64.3990 N   0  0  0  0  0  0  0  0  0  0  0  0
  130.3150  125.6500   63.3610 C   0  0  0  0  0  0  0  0  0  0  0  0
  129.5430  125.8360   61.7690 S   0  0  0  0  0  0  0  0  0  0  0  0
  128.0750  124.7630   61.7530 C   0  0  0  0  0  0  0  0  0  0  0  0
  128.4420  123.2840   61.6170 C   0  0  0  0  0  0  0  0  0  0  0  0
  127.5440  122.4420   61.6260 O   0  0  0  0  0  0  0  0  0  0  0  0
  129.7610  123.0230   61.4960 N   0  0  0  0  0  0  0  0  0  0  0  0
  130.4260  121.7920   61.3420 C   0  0  0  0  0  0  0  0  0  0  0  0
  131.8230  121.8550   61.3350 C   0  0  0  0  0  0  0  0  0  0  0  0
  132.5780  120.6950   61.1840 C   0  0  0  0  0  0  0  0  0  0  0  0
  131.9360  119.4690   61.0360 C   0  0  0  0  0  0  0  0  0  0  0  0
  130.5460  119.3920   61.0340 C   0  0  0  0  0  0  0  0  0  0  0  0
  129.7870  120.5500   61.1840 C   0  0  0  0  0  0  0  0  0  0  0  0
  1  2  3  0
  2  3  1  0
  3  4  2  0
  4  5  1  0
  5  6  1  0
  5  7  1  0
  5  8  1  0
  4  9  1  0
  9 10  2  0
 10 11  1  0
 11 12  2  0
 12 13  1  0
 13 14  2  0
 14 15  1  0
 15 16  2  0
 10 17  1  0
 17 18  2  0
 18 19  1  0
 19 20  1  0
 20 21  1  0
 21 22  2  0
 21 23  1  0
 23 24  1  0
 24 25  2  0
 25 26  1  0
 26 27  2  0
 27 28  1  0
 28 29  2  0
 18  3  1  0
 29 24  1  0
 16 11  1  0
M  END
>  <Binding energies>  (28) 
[-7.21]

>  <Ligand effiencies>  (28) 
[-0.24033333333333334]

>  <Interactions>  (28) 
["V-B:GLU:543:CD:9880, V-B:TYR:539:CD2:9846, V-A:LEU:475:CD1:4258, H-B:ALA:541:N:9863, V-B:GLU:543:CB:9878, V-A:TYR:484:CZ:4347, V-B:GLU:543:C:9874, V-B:HIS:456:CE1:9040, V-A:HIS:456:CE1:4069, V-B:GLU:543:CG:9879, V-B:ARG:545:CG:9894, V-A:ARG:545:CZ:4926, V-B:GLY:544:C:9884, V-B:ALA:541:CB:9864, V-A:GLY:453:CA:4044, V-A:GLY:454:CA:4049, V-A:GLY:453:C:4042, V-A:TRP:381:CZ2:3370, V-A:ARG:545:CG:4922, V-A:PRO:482:CG:4327, V-A:PRO:482:CB:4326, V-A:ARG:545:CD:4923, V-A:TRP:381:CH2:3372, V-A:GLY:454:C:4047"]

$$$$
3ai_Grossjean_2025
     RDKit          3D

 28 30  0  0  0  0  0  0  0  0999 V2000
  129.9250  124.4230   68.4300 N   0  0  0  0  0  0  0  0  0  0  0  0
  129.3330  125.2400   67.8640 C   0  0  0  0  0  0  0  0  0  0  0  0
  128.5840  126.2750   67.1450 C   0  0  0  0  0  0  0  0  0  0  0  0
  128.9700  126.6760   65.8430 C   0  0  0  0  0  0  0  0  0  0  0  0
  130.1510  126.0330   65.0910 C   0  0  0  0  0  0  0  0  0  0  0  0
  130.4030  126.6240   63.9210 F   0  0  0  0  0  0  0  0  0  0  0  0
  131.2590  126.1150   65.8290 F   0  0  0  0  0  0  0  0  0  0  0  0
  129.8920  124.7490   64.8410 F   0  0  0  0  0  0  0  0  0  0  0  0
  128.2490  127.7040   65.2170 C   0  0  0  0  0  0  0  0  0  0  0  0
  127.1760  128.3170   65.8720 C   0  0  0  0  0  0  0  0  0  0  0  0
  126.3790  129.4260   65.2550 C   0  0  0  0  0  0  0  0  0  0  0  0
  124.9860  129.4870   65.4240 C   0  0  0  0  0  0  0  0  0  0  0  0
  124.2400  130.5170   64.8580 C   0  0  0  0  0  0  0  0  0  0  0  0
  124.8790  131.5040   64.1140 C   0  0  0  0  0  0  0  0  0  0  0  0
  126.2570  131.4680   63.9340 C   0  0  0  0  0  0  0  0  0  0  0  0
  127.0000  130.4370   64.5010 C   0  0  0  0  0  0  0  0  0  0  0  0
  126.8150  127.9350   67.1230 N   0  0  0  0  0  0  0  0  0  0  0  0
  127.4800  126.9280   67.7390 C   0  0  0  0  0  0  0  0  0  0  0  0
  126.8510  126.5510   69.3620 S   0  0  0  0  0  0  0  0  0  0  0  0
  128.1200  127.0380   70.5810 C   0  0  0  0  0  0  0  0  0  0  0  0
  128.5450  125.9290   71.5540 C   0  0  0  0  0  0  0  0  0  0  0  0
  128.4890  126.1040   72.7730 O   0  0  0  0  0  0  0  0  0  0  0  0
  128.9690  124.7900   70.9600 N   0  0  0  0  0  0  0  0  0  0  0  0
  129.4050  123.6290   71.5840 C   0  0  0  0  0  0  0  0  0  0  0  0
  130.6110  123.5420   72.2770 C   0  0  0  0  0  0  0  0  0  0  0  0
  130.6700  122.2460   72.7350 C   0  0  0  0  0  0  0  0  0  0  0  0
  129.5560  121.5850   72.3390 O   0  0  0  0  0  0  0  0  0  0  0  0
  128.7610  122.4730   71.6110 N   0  0  0  0  0  0  0  0  0  0  0  0
  1  2  3  0
  2  3  1  0
  3  4  2  0
  4  5  1  0
  5  6  1  0
  5  7  1  0
  5  8  1  0
  4  9  1  0
  9 10  2  0
 10 11  1  0
 11 12  2  0
 12 13  1  0
 13 14  2  0
 14 15  1  0
 15 16  2  0
 10 17  1  0
 17 18  2  0
 18 19  1  0
 19 20  1  0
 20 21  1  0
 21 22  2  0
 21 23  1  0
 23 24  1  0
 24 25  1  0
 25 26  2  0
 26 27  1  0
 27 28  1  0
 18  3  1  0
 28 24  2  0
 16 11  1  0
M  END
>  <Binding energies>  (29) 
[-7.92]

>  <Ligand effiencies>  (29) 
[-0.2731034482758621]

>  <Interactions>  (29) 
["H-A:HIS:456:NE2:4070, V-A:GLU:543:CD:4908, V-A:HIS:456:CD2:4068, V-B:GLU:543:CD:9880, V-B:GLU:543:CB:9878, H-A:TYR:484:OH:4348, V-B:GLU:543:C:9874, V-A:TYR:484:CE1:4345, V-B:HIS:456:CE1:9040, V-A:HIS:456:CE1:4069, V-B:GLU:543:CG:9879, V-B:ARG:545:CD:9895, V-B:ARG:545:CZ:9898, H-B:ARG:545:N:9892, H-B:LYS:547:NZ:9923, V-B:LEU:475:CD1:9229, V-B:GLY:454:CA:9020, H-B:GLU:543:O:9875, V-A:TYR:484:CG:4342, V-A:HIS:456:CG:4066, V-A:TYR:484:CD2:4344, V-A:HIS:456:CB:4065, V-B:LYS:547:CE:9922, V-A:ASP:473:CB:4239, V-A:TYR:484:CB:4341"]

$$$$
3aj_Grossjean_2025
     RDKit          3D

 28 30  0  0  0  0  0  0  0  0999 V2000
  124.9640  129.0600   67.4590 N   0  0  0  0  0  0  0  0  0  0  0  0
  125.8900  128.4600   67.1120 C   0  0  0  0  0  0  0  0  0  0  0  0
  127.0640  127.7020   66.6700 C   0  0  0  0  0  0  0  0  0  0  0  0
  127.7110  128.0150   65.4490 C   0  0  0  0  0  0  0  0  0  0  0  0
  127.2600  129.1770   64.5440 C   0  0  0  0  0  0  0  0  0  0  0  0
  127.4220  130.3720   65.1170 F   0  0  0  0  0  0  0  0  0  0  0  0
  127.9650  129.1740   63.4120 F   0  0  0  0  0  0  0  0  0  0  0  0
  125.9660  129.0500   64.2480 F   0  0  0  0  0  0  0  0  0  0  0  0
  128.8020  127.2280   65.0480 C   0  0  0  0  0  0  0  0  0  0  0  0
  129.2320  126.1590   65.8400 C   0  0  0  0  0  0  0  0  0  0  0  0
  130.3840  125.2820   65.4540 C   0  0  0  0  0  0  0  0  0  0  0  0
  131.7060  125.7270   65.6080 C   0  0  0  0  0  0  0  0  0  0  0  0
  132.7820  124.9160   65.2550 C   0  0  0  0  0  0  0  0  0  0  0  0
  132.5470  123.6450   64.7400 C   0  0  0  0  0  0  0  0  0  0  0  0
  131.2460  123.1800   64.5780 C   0  0  0  0  0  0  0  0  0  0  0  0
  130.1750  123.9930   64.9340 C   0  0  0  0  0  0  0  0  0  0  0  0
  128.6040  125.8580   67.0050 N   0  0  0  0  0  0  0  0  0  0  0  0
  127.5640  126.6170   67.4260 C   0  0  0  0  0  0  0  0  0  0  0  0
  126.8840  126.0880   68.9830 S   0  0  0  0  0  0  0  0  0  0  0  0
  127.9440  126.7510   70.3120 C   0  0  0  0  0  0  0  0  0  0  0  0
  128.4030  125.7200   71.3530 C   0  0  0  0  0  0  0  0  0  0  0  0
  128.1470  125.8740   72.5490 O   0  0  0  0  0  0  0  0  0  0  0  0
  129.0860  124.6700   70.8440 N   0  0  0  0  0  0  0  0  0  0  0  0
  129.6060  123.5960   71.5550 C   0  0  0  0  0  0  0  0  0  0  0  0
  129.1400  122.3680   71.6190 N   0  0  0  0  0  0  0  0  0  0  0  0
  129.8900  121.6030   72.3880 C   0  0  0  0  0  0  0  0  0  0  0  0
  130.9970  122.2150   72.9710 C   0  0  0  0  0  0  0  0  0  0  0  0
  131.0470  123.8800   72.4790 S   0  0  0  0  0  0  0  0  0  0  0  0
  1  2  3  0
  2  3  1  0
  3  4  2  0
  4  5  1  0
  5  6  1  0
  5  7  1  0
  5  8  1  0
  4  9  1  0
  9 10  2  0
 10 11  1  0
 11 12  2  0
 12 13  1  0
 13 14  2  0
 14 15  1  0
 15 16  2  0
 10 17  1  0
 17 18  2  0
 18 19  1  0
 19 20  1  0
 20 21  1  0
 21 22  2  0
 21 23  1  0
 23 24  1  0
 24 25  2  0
 25 26  1  0
 26 27  2  0
 27 28  1  0
 18  3  1  0
 28 24  1  0
 16 11  1  0
M  END
>  <Binding energies>  (30) 
[-7.32]

>  <Ligand effiencies>  (30) 
[-0.2524137931034483]

>  <Interactions>  (30) 
["V-A:GLU:543:CD:4908, V-A:HIS:456:CD2:4068, V-B:GLU:543:CD:9880, V-A:LEU:475:CD1:4258, V-B:GLU:543:CB:9878, V-A:TYR:484:CZ:4347, V-B:GLU:543:C:9874, V-A:TYR:484:CE1:4345, V-B:HIS:456:CE1:9040, V-A:HIS:456:CE1:4069, V-B:GLU:543:CG:9879, V-B:ARG:545:CZ:9898, H-B:TYR:484:OH:9319, V-B:ARG:545:CG:9894, V-A:GLU:543:CB:4906, H-B:ARG:545:N:9892, V-B:GLY:544:C:9884, H-B:LYS:547:NZ:9923, V-B:TYR:484:CZ:9318, V-A:GLY:454:CA:4049, H-B:GLU:543:O:9875, V-A:TYR:484:CG:4342, V-A:HIS:456:CG:4066, V-A:TYR:484:CD1:4343, V-A:TYR:484:CD2:4344, V-A:HIS:456:CB:4065, V-B:LYS:547:CE:9922, V-A:ASP:473:CB:4239, V-A:TYR:484:CB:4341"]

$$$$
3ak_Grossjean_2025
     RDKit          3D

 33 34  0  0  0  0  0  0  0  0999 V2000
  125.3530  123.1410   56.7360 C   0  0  0  0  0  0  0  0  0  0  0  0
  126.2140  122.0460   56.4660 O   0  0  0  0  0  0  0  0  0  0  0  0
  127.5760  122.4230   56.3160 C   0  0  0  0  0  0  0  0  0  0  0  0
  127.8110  123.7490   57.0490 C   0  0  0  0  0  0  0  0  0  0  0  0
  128.5830  123.5000   58.2200 O   0  0  0  0  0  0  0  0  0  0  0  0
  128.0020  122.6000   59.1590 C   0  0  0  0  0  0  0  0  0  0  0  0
  127.1320  123.2910   60.2250 C   0  0  0  0  0  0  0  0  0  0  0  0
  127.4250  122.7350   61.4990 O   0  0  0  0  0  0  0  0  0  0  0  0
  128.3780  123.4790   62.2470 C   0  0  0  0  0  0  0  0  0  0  0  0
  128.9160  124.6500   61.4060 C   0  0  0  0  0  0  0  0  0  0  0  0
  128.6830  125.9630   62.0120 N   0  0  0  0  0  0  0  0  0  0  0  0
  129.1200  127.1430   61.5340 C   0  0  0  0  0  0  0  0  0  0  0  0
  129.7690  127.2410   60.4910 O   0  0  0  0  0  0  0  0  0  0  0  0
  128.7990  128.4260   62.3190 C   0  0  0  0  0  0  0  0  0  0  0  0
  127.6300  128.2570   63.7180 S   0  0  0  0  0  0  0  0  0  0  0  0
  128.3950  127.2610   64.9870 C   0  0  0  0  0  0  0  0  0  0  0  0
  129.4080  126.4600   64.5730 N   0  0  0  0  0  0  0  0  0  0  0  0
  130.0480  125.6600   65.4630 C   0  0  0  0  0  0  0  0  0  0  0  0
  131.1560  124.8090   64.9190 C   0  0  0  0  0  0  0  0  0  0  0  0
  132.4100  125.3660   64.6240 C   0  0  0  0  0  0  0  0  0  0  0  0
  133.4440  124.5790   64.1230 C   0  0  0  0  0  0  0  0  0  0  0  0
  133.2370  123.2210   63.9100 C   0  0  0  0  0  0  0  0  0  0  0  0
  132.0050  122.6430   64.1970 C   0  0  0  0  0  0  0  0  0  0  0  0
  130.9740  123.4320   64.6990 C   0  0  0  0  0  0  0  0  0  0  0  0
  129.6880  125.6610   66.8150 C   0  0  0  0  0  0  0  0  0  0  0  0
  128.6450  126.4800   67.2710 C   0  0  0  0  0  0  0  0  0  0  0  0
  128.2750  126.4510   68.7670 C   0  0  0  0  0  0  0  0  0  0  0  0
  126.9790  126.1790   68.9120 F   0  0  0  0  0  0  0  0  0  0  0  0
  128.9870  125.5150   69.3950 F   0  0  0  0  0  0  0  0  0  0  0  0
  128.5130  127.6130   69.3810 F   0  0  0  0  0  0  0  0  0  0  0  0
  127.9750  127.3040   66.3340 C   0  0  0  0  0  0  0  0  0  0  0  0
  126.8770  128.1820   66.7530 C   0  0  0  0  0  0  0  0  0  0  0  0
  126.0090  128.8740   67.0830 N   0  0  0  0  0  0  0  0  0  0  0  0
  1  2  1  0
  2  3  1  0
  3  4  1  0
  4  5  1  0
  5  6  1  0
  6  7  1  0
  7  8  1  0
  8  9  1  0
  9 10  1  0
 10 11  1  0
 11 12  1  0
 12 13  2  0
 12 14  1  0
 14 15  1  0
 15 16  1  0
 16 17  2  0
 17 18  1  0
 18 19  1  0
 19 20  2  0
 20 21  1  0
 21 22  2  0
 22 23  1  0
 23 24  2  0
 18 25  2  0
 25 26  1  0
 26 27  1  0
 27 28  1  0
 27 29  1  0
 27 30  1  0
 26 31  2  0
 31 32  1  0
 32 33  3  0
 31 16  1  0
 24 19  1  0
M  END
>  <Binding energies>  (31) 
[-5.66]

>  <Ligand effiencies>  (31) 
[-0.16647058823529412]

>  <Interactions>  (31) 
["V-B:GLU:543:CD:9880, V-B:TYR:539:CD2:9846, V-A:LEU:475:CD1:4258, H-B:ALA:541:N:9863, V-B:GLU:543:CB:9878, V-A:TYR:484:CZ:4347, V-B:GLU:543:C:9874, V-A:TYR:484:CE1:4345, V-B:HIS:456:CE1:9040, V-B:TYR:539:CE2:9848, V-A:HIS:456:CE1:4069, V-B:GLU:543:CG:9879, H-B:TYR:484:OH:9319, V-A:ARG:545:CZ:4926, V-B:ARG:545:CA:9891, V-B:PRO:540:CA:9855, V-B:GLY:544:C:9884, V-B:ALA:541:CB:9864, V-B:TYR:539:CZ:9849, V-B:TYR:539:C:9839, V-B:PRO:540:CB:9857, V-B:PRO:540:N:9856, V-A:GLY:454:CA:4049, H-B:GLU:543:OE2:9882, V-B:TYR:539:CG:9844, V-B:LEU:363:CD1:8160, H-B:GLU:543:OE1:9881, V-B:PRO:540:CD:9859, V-B:TYR:539:CA:9841, V-B:TYR:539:CE1:9847, V-B:TYR:539:CD1:9845, H-B:TYR:539:N:9842"]

$$$$
3bk_Grossjean_2025
     RDKit          3D

 30 31  0  0  0  0  0  0  0  0999 V2000
  132.8920  125.3720   57.2060 C   0  0  0  0  0  0  0  0  0  0  0  0
  133.6000  124.1550   57.3810 O   0  0  0  0  0  0  0  0  0  0  0  0
  133.7830  123.7970   58.7440 C   0  0  0  0  0  0  0  0  0  0  0  0
  132.4540  123.9410   59.4980 C   0  0  0  0  0  0  0  0  0  0  0  0
  132.0040  122.6580   59.9080 O   0  0  0  0  0  0  0  0  0  0  0  0
  133.0340  121.6800   59.9690 C   0  0  0  0  0  0  0  0  0  0  0  0
  133.0090  121.0040   61.3460 C   0  0  0  0  0  0  0  0  0  0  0  0
  131.6630  120.8840   61.7880 O   0  0  0  0  0  0  0  0  0  0  0  0
  130.8570  120.0580   60.9580 C   0  0  0  0  0  0  0  0  0  0  0  0
  129.4920  120.7280   60.7420 C   0  0  0  0  0  0  0  0  0  0  0  0
  129.5040  122.1460   61.1080 N   0  0  0  0  0  0  0  0  0  0  0  0
  128.4160  122.9050   61.3250 C   0  0  0  0  0  0  0  0  0  0  0  0
  127.2610  122.4800   61.2570 O   0  0  0  0  0  0  0  0  0  0  0  0
  128.6680  124.3670   61.7010 C   0  0  0  0  0  0  0  0  0  0  0  0
  130.4430  124.7740   61.6980 S   0  0  0  0  0  0  0  0  0  0  0  0
  130.9680  125.1000   63.3720 C   0  0  0  0  0  0  0  0  0  0  0  0
  130.0040  125.5370   64.2220 N   0  0  0  0  0  0  0  0  0  0  0  0
  130.3130  125.8130   65.5160 C   0  0  0  0  0  0  0  0  0  0  0  0
  129.1850  126.2710   66.3920 C   0  0  0  0  0  0  0  0  0  0  0  0
  128.2730  127.2380   65.9400 C   0  0  0  0  0  0  0  0  0  0  0  0
  127.2270  127.6710   66.7510 C   0  0  0  0  0  0  0  0  0  0  0  0
  127.0780  127.1410   68.0280 C   0  0  0  0  0  0  0  0  0  0  0  0
  127.9660  126.1780   68.4980 C   0  0  0  0  0  0  0  0  0  0  0  0
  129.0090  125.7470   67.6840 C   0  0  0  0  0  0  0  0  0  0  0  0
  131.6180  125.6470   65.9940 C   0  0  0  0  0  0  0  0  0  0  0  0
  132.6240  125.1980   65.1320 C   0  0  0  0  0  0  0  0  0  0  0  0
  134.0350  125.0300   65.6930 C   0  0  0  0  0  0  0  0  0  0  0  0
  132.3050  124.9140   63.7870 C   0  0  0  0  0  0  0  0  0  0  0  0
  133.3380  124.4400   62.8620 C   0  0  0  0  0  0  0  0  0  0  0  0
  134.1540  124.0660   62.1310 N   0  0  0  0  0  0  0  0  0  0  0  0
  1  2  1  0
  2  3  1  0
  3  4  1  0
  4  5  1  0
  5  6  1  0
  6  7  1  0
  7  8  1  0
  8  9  1  0
  9 10  1  0
 10 11  1  0
 11 12  1  0
 12 13  2  0
 12 14  1  0
 14 15  1  0
 15 16  1  0
 16 17  2  0
 17 18  1  0
 18 19  1  0
 19 20  2  0
 20 21  1  0
 21 22  2  0
 22 23  1  0
 23 24  2  0
 18 25  2  0
 25 26  1  0
 26 27  1  0
 26 28  2  0
 28 29  1  0
 29 30  3  0
 28 16  1  0
 24 19  1  0
M  END
>  <Binding energies>  (32) 
[-6.25]

>  <Ligand effiencies>  (32) 
[-0.20161290322580644]

>  <Interactions>  (32) 
["V-A:GLU:543:CD:4908, V-B:GLU:543:CD:9880, V-A:ASP:366:CG:3213, V-B:TYR:539:CD2:9846, V-A:LEU:475:CD1:4258, H-B:ALA:541:N:9863, V-B:GLU:543:CB:9878, V-B:GLU:543:C:9874, V-B:HIS:456:CE1:9040, V-B:TYR:539:CE2:9848, V-A:HIS:456:CE1:4069, V-B:GLU:543:CG:9879, V-A:ARG:545:CZ:4926, V-B:ALA:541:CB:9864, V-A:ILE:369:CD1:3239, V-A:GLY:453:CA:4044, V-A:ASP:366:CA:3210, V-A:ILE:369:CB:3236, V-A:ILE:369:CG2:3237, H-A:GLY:454:N:4050, V-A:ARG:545:CG:4922, V-A:ARG:545:CD:4923, V-A:TRP:381:CH2:3372, V-A:ASP:366:CB:3212, V-A:ASP:366:C:3208, H-B:TYR:539:OH:9850"]

$$$$
3cb_Grossjean_2025
     RDKit          3D

 30 32  0  0  0  0  0  0  0  0999 V2000
  129.8770  128.4610   71.6590 C   0  0  0  0  0  0  0  0  0  0  0  0
  128.8370  127.8050   72.3690 O   0  0  0  0  0  0  0  0  0  0  0  0
  128.3870  126.5840   71.9790 C   0  0  0  0  0  0  0  0  0  0  0  0
  128.0020  125.7170   72.7690 O   0  0  0  0  0  0  0  0  0  0  0  0
  128.4050  126.3930   70.4890 C   0  0  0  0  0  0  0  0  0  0  0  0
  129.4760  125.7660   69.8330 C   0  0  0  0  0  0  0  0  0  0  0  0
  129.4600  125.6030   68.4510 C   0  0  0  0  0  0  0  0  0  0  0  0
  128.3820  126.0630   67.6950 C   0  0  0  0  0  0  0  0  0  0  0  0
  128.4690  125.8420   66.3060 N   0  0  0  0  0  0  0  0  0  0  0  0
  129.5120  125.4200   65.5580 C   0  0  0  0  0  0  0  0  0  0  0  0
  130.6230  125.1230   66.0000 O   0  0  0  0  0  0  0  0  0  0  0  0
  129.2130  125.3080   64.0550 C   0  0  0  0  0  0  0  0  0  0  0  0
  130.5360  124.5350   63.0630 S   0  0  0  0  0  0  0  0  0  0  0  0
  129.7760  123.3640   61.9580 C   0  0  0  0  0  0  0  0  0  0  0  0
  130.2180  122.0950   62.1290 N   0  0  0  0  0  0  0  0  0  0  0  0
  129.7090  121.1190   61.3440 C   0  0  0  0  0  0  0  0  0  0  0  0
  130.2400  119.7220   61.6000 C   0  0  0  0  0  0  0  0  0  0  0  0
  128.7530  121.3690   60.3630 C   0  0  0  0  0  0  0  0  0  0  0  0
  128.2930  122.6760   60.1570 C   0  0  0  0  0  0  0  0  0  0  0  0
  127.2710  122.8930   59.0880 C   0  0  0  0  0  0  0  0  0  0  0  0
  126.0530  123.5120   59.3930 C   0  0  0  0  0  0  0  0  0  0  0  0
  125.0990  123.7290   58.4020 C   0  0  0  0  0  0  0  0  0  0  0  0
  125.3630  123.3280   57.0950 C   0  0  0  0  0  0  0  0  0  0  0  0
  126.5710  122.7180   56.7710 C   0  0  0  0  0  0  0  0  0  0  0  0
  127.5230  122.5050   57.7650 C   0  0  0  0  0  0  0  0  0  0  0  0
  128.8280  123.7130   60.9640 C   0  0  0  0  0  0  0  0  0  0  0  0
  128.4530  125.1110   60.7300 C   0  0  0  0  0  0  0  0  0  0  0  0
  128.1570  126.2140   60.5450 N   0  0  0  0  0  0  0  0  0  0  0  0
  127.3050  126.6870   68.3440 C   0  0  0  0  0  0  0  0  0  0  0  0
  127.3210  126.8490   69.7270 C   0  0  0  0  0  0  0  0  0  0  0  0
  1  2  1  0
  2  3  1  0
  3  4  2  0
  3  5  1  0
  5  6  2  0
  6  7  1  0
  7  8  2  0
  8  9  1  0
  9 10  1  0
 10 11  2  0
 10 12  1  0
 12 13  1  0
 13 14  1  0
 14 15  2  0
 15 16  1  0
 16 17  1  0
 16 18  2  0
 18 19  1  0
 19 20  1  0
 20 21  2  0
 21 22  1  0
 22 23  2  0
 23 24  1  0
 24 25  2  0
 19 26  2  0
 26 27  1  0
 27 28  3  0
  8 29  1  0
 29 30  2  0
 30  5  1  0
 26 14  1  0
 25 20  1  0
M  END
>  <Binding energies>  (33) 
[-8.17]

>  <Ligand effiencies>  (33) 
[-0.2635483870967742]

>  <Interactions>  (33) 
["V-B:GLU:543:CA:9876, V-A:HIS:456:CD2:4068, V-B:GLU:543:CD:9880, V-B:TYR:539:CD2:9846, V-A:LEU:475:CD1:4258, V-B:GLU:543:CB:9878, H-B:HIS:456:NE2:9041, H-A:TYR:484:OH:4348, V-B:GLU:543:C:9874, V-B:HIS:456:CE1:9040, V-B:TYR:539:CE2:9848, V-A:HIS:456:CE1:4069, V-B:GLU:543:CG:9879, V-B:PRO:540:CA:9855, V-B:GLY:544:C:9884, V-B:ALA:541:CB:9864, V-B:TYR:539:CZ:9849, H-B:LYS:547:NZ:9923, V-B:TYR:539:C:9839, V-B:PRO:540:CB:9857, V-B:PRO:540:C:9853, V-B:PRO:540:N:9856, V-A:PRO:482:CG:4327, V-A:PRO:482:CB:4326, V-B:TYR:539:CG:9844, V-B:LEU:363:CD1:8160, H-B:GLU:543:OE1:9881, V-B:HIS:456:CD2:9039, V-B:PRO:540:CD:9859"]

$$$$
3ch_Grossjean_2025
     RDKit          3D

 32 34  0  0  0  0  0  0  0  0999 V2000
  127.3080  127.8890   73.5280 C   0  0  0  0  0  0  0  0  0  0  0  0
  128.6220  127.7680   72.9940 O   0  0  0  0  0  0  0  0  0  0  0  0
  128.9010  126.7580   72.0900 C   0  0  0  0  0  0  0  0  0  0  0  0
  128.8090  126.9040   70.6970 C   0  0  0  0  0  0  0  0  0  0  0  0
  129.1180  125.8370   69.8400 C   0  0  0  0  0  0  0  0  0  0  0  0
  129.0600  125.8890   68.4340 N   0  0  0  0  0  0  0  0  0  0  0  0
  129.4110  126.8870   67.5930 C   0  0  0  0  0  0  0  0  0  0  0  0
  129.8780  127.9750   67.9300 O   0  0  0  0  0  0  0  0  0  0  0  0
  129.2360  126.5850   66.1050 C   0  0  0  0  0  0  0  0  0  0  0  0
  129.5560  124.8390   65.7160 S   0  0  0  0  0  0  0  0  0  0  0  0
  131.1130  124.8020   64.8540 C   0  0  0  0  0  0  0  0  0  0  0  0
  132.1880  125.0210   65.6510 N   0  0  0  0  0  0  0  0  0  0  0  0
  133.4180  125.0210   65.0900 C   0  0  0  0  0  0  0  0  0  0  0  0
  134.5750  125.2780   66.0370 C   0  0  0  0  0  0  0  0  0  0  0  0
  133.6230  124.8060   63.7300 C   0  0  0  0  0  0  0  0  0  0  0  0
  132.5250  124.5690   62.8910 C   0  0  0  0  0  0  0  0  0  0  0  0
  132.7930  124.3530   61.4360 C   0  0  0  0  0  0  0  0  0  0  0  0
  132.1240  125.1220   60.4770 C   0  0  0  0  0  0  0  0  0  0  0  0
  132.3610  124.9210   59.1190 C   0  0  0  0  0  0  0  0  0  0  0  0
  133.2690  123.9450   58.7160 C   0  0  0  0  0  0  0  0  0  0  0  0
  133.9370  123.1670   59.6570 C   0  0  0  0  0  0  0  0  0  0  0  0
  133.6960  123.3700   61.0140 C   0  0  0  0  0  0  0  0  0  0  0  0
  131.2290  124.5470   63.4670 C   0  0  0  0  0  0  0  0  0  0  0  0
  130.0550  124.2120   62.6560 C   0  0  0  0  0  0  0  0  0  0  0  0
  129.1280  123.9480   62.0160 N   0  0  0  0  0  0  0  0  0  0  0  0
  129.5010  124.6130   70.3900 C   0  0  0  0  0  0  0  0  0  0  0  0
  129.5990  124.4420   71.7800 C   0  0  0  0  0  0  0  0  0  0  0  0
  129.9810  123.2580   72.3880 O   0  0  0  0  0  0  0  0  0  0  0  0
  131.3540  122.8820   72.3880 C   0  0  0  0  0  0  0  0  0  0  0  0
  129.2940  125.5210   72.6190 C   0  0  0  0  0  0  0  0  0  0  0  0
  129.4030  125.3720   73.9810 O   0  0  0  0  0  0  0  0  0  0  0  0
  130.7090  125.6070   74.4870 C   0  0  0  0  0  0  0  0  0  0  0  0
  1  2  1  0
  2  3  1  0
  3  4  2  0
  4  5  1  0
  5  6  1  0
  6  7  1  0
  7  8  2  0
  7  9  1  0
  9 10  1  0
 10 11  1  0
 11 12  2  0
 12 13  1  0
 13 14  1  0
 13 15  2  0
 15 16  1  0
 16 17  1  0
 17 18  2  0
 18 19  1  0
 19 20  2  0
 20 21  1  0
 21 22  2  0
 16 23  2  0
 23 24  1  0
 24 25  3  0
  5 26  2  0
 26 27  1  0
 27 28  1  0
 28 29  1  0
 27 30  2  0
 30 31  1  0
 31 32  1  0
 30  3  1  0
 23 11  1  0
 22 17  1  0
M  END
>  <Binding energies>  (34) 
[-7.91]

>  <Ligand effiencies>  (34) 
[-0.23969696969696971]

>  <Interactions>  (34) 
["H-A:HIS:456:NE2:4070, V-A:GLU:543:CD:4908, V-A:HIS:456:CD2:4068, V-A:ASP:366:CG:3213, H-A:TYR:484:OH:4348, V-B:GLU:543:C:9874, V-A:TYR:484:CE1:4345, V-B:HIS:456:CE1:9040, V-B:TYR:539:CE2:9848, V-A:HIS:456:CE1:4069, V-A:ARG:545:CZ:4926, H-B:LYS:547:NZ:9923, V-A:ILE:369:CD1:3239, V-A:GLY:453:CA:4044, V-A:GLY:453:C:4042, V-A:ASP:366:CA:3210, V-A:ILE:369:CB:3236, V-A:ILE:369:CG2:3237, V-A:ARG:545:CG:4922, V-A:ARG:545:CD:4923, H-B:GLU:543:O:9875, V-A:ASP:366:CB:3212, V-B:HIS:456:CD2:9039, V-A:TYR:484:CG:4342, V-B:HIS:456:CG:9037, V-A:TYR:484:CE2:4346, V-A:HIS:456:CG:4066, V-A:TYR:484:CD2:4344, V-A:HIS:456:CB:4065, H-A:LYS:547:NZ:4951"]

$$$$
3ci_Grossjean_2025
     RDKit          3D

 25 27  0  0  0  0  0  0  0  0999 V2000
  130.8880  125.5040   66.1540 C   0  0  0  0  0  0  0  0  0  0  0  0
  129.6040  126.2870   66.3510 C   0  0  0  0  0  0  0  0  0  0  0  0
  129.1860  127.2480   65.4350 C   0  0  0  0  0  0  0  0  0  0  0  0
  127.9830  127.9340   65.6520 C   0  0  0  0  0  0  0  0  0  0  0  0
  127.5670  128.9460   64.6350 C   0  0  0  0  0  0  0  0  0  0  0  0
  126.9920  128.5480   63.4210 C   0  0  0  0  0  0  0  0  0  0  0  0
  126.6130  129.4950   62.4730 C   0  0  0  0  0  0  0  0  0  0  0  0
  126.8150  130.8470   62.7330 C   0  0  0  0  0  0  0  0  0  0  0  0
  127.3930  131.2600   63.9310 C   0  0  0  0  0  0  0  0  0  0  0  0
  127.7700  130.3100   64.8770 C   0  0  0  0  0  0  0  0  0  0  0  0
  127.2330  127.6280   66.8160 C   0  0  0  0  0  0  0  0  0  0  0  0
  125.9880  128.3440   67.1180 C   0  0  0  0  0  0  0  0  0  0  0  0
  125.0060  128.9090   67.3550 N   0  0  0  0  0  0  0  0  0  0  0  0
  127.7280  126.6320   67.6930 C   0  0  0  0  0  0  0  0  0  0  0  0
  126.8540  126.1520   69.1770 S   0  0  0  0  0  0  0  0  0  0  0  0
  127.6880  126.8640   70.6320 C   0  0  0  0  0  0  0  0  0  0  0  0
  128.3070  125.8080   71.5560 C   0  0  0  0  0  0  0  0  0  0  0  0
  128.2880  125.9900   72.7750 O   0  0  0  0  0  0  0  0  0  0  0  0
  128.8530  124.7370   70.9400 N   0  0  0  0  0  0  0  0  0  0  0  0
  129.4470  123.6340   71.5390 C   0  0  0  0  0  0  0  0  0  0  0  0
  130.7070  123.6790   72.1330 C   0  0  0  0  0  0  0  0  0  0  0  0
  130.9290  122.4030   72.5990 C   0  0  0  0  0  0  0  0  0  0  0  0
  129.8570  121.6310   72.3000 O   0  0  0  0  0  0  0  0  0  0  0  0
  128.9250  122.4220   71.6270 N   0  0  0  0  0  0  0  0  0  0  0  0
  128.8970  125.9820   67.4610 N   0  0  0  0  0  0  0  0  0  0  0  0
  1  2  1  0
  2  3  2  0
  3  4  1  0
  4  5  1  0
  5  6  2  0
  6  7  1  0
  7  8  2  0
  8  9  1  0
  9 10  2  0
  4 11  2  0
 11 12  1  0
 12 13  3  0
 11 14  1  0
 14 15  1  0
 15 16  1  0
 16 17  1  0
 17 18  2  0
 17 19  1  0
 19 20  1  0
 20 21  1  0
 21 22  2  0
 22 23  1  0
 23 24  1  0
 14 25  2  0
 25  2  1  0
 10  5  1  0
 24 20  2  0
M  END
>  <Binding energies>  (35) 
[-8.14]

>  <Ligand effiencies>  (35) 
[-0.3130769230769231]

>  <Interactions>  (35) 
["V-A:GLU:543:CD:4908, V-A:HIS:456:CD2:4068, V-B:GLU:543:CD:9880, V-B:GLU:543:CB:9878, V-B:GLU:543:C:9874, V-B:HIS:456:CE1:9040, V-A:HIS:456:CE1:4069, H-B:TYR:484:OH:9319, V-B:ARG:545:CG:9894, V-A:GLU:543:CB:4906, H-B:ARG:545:N:9892, V-B:GLY:544:C:9884, H-B:LYS:547:NZ:9923, H-B:ARG:545:NE:9896, H-B:GLU:543:O:9875, V-A:TYR:484:CG:4342, V-A:TYR:484:CE2:4346, V-A:HIS:456:CG:4066, V-A:TYR:484:CD2:4344, V-B:GLY:544:CA:9886, V-A:HIS:456:CB:4065, V-A:ASP:473:CB:4239, V-A:TYR:484:CB:4341"]

$$$$
3ck_Grossjean_2025
     RDKit          3D

 30 31  0  0  0  0  0  0  0  0999 V2000
  131.0610  122.5920   72.7150 C   0  0  0  0  0  0  0  0  0  0  0  0
  129.8260  122.7420   72.0330 O   0  0  0  0  0  0  0  0  0  0  0  0
  129.9320  123.4870   70.8280 C   0  0  0  0  0  0  0  0  0  0  0  0
  129.8060  124.9850   71.1370 C   0  0  0  0  0  0  0  0  0  0  0  0
  129.0190  125.6080   70.1310 O   0  0  0  0  0  0  0  0  0  0  0  0
  129.4920  125.3860   68.8090 C   0  0  0  0  0  0  0  0  0  0  0  0
  128.5870  126.1330   67.8210 C   0  0  0  0  0  0  0  0  0  0  0  0
  128.9430  125.7400   66.5030 O   0  0  0  0  0  0  0  0  0  0  0  0
  130.0860  124.9030   66.4200 C   0  0  0  0  0  0  0  0  0  0  0  0
  131.1200  125.5370   65.4700 C   0  0  0  0  0  0  0  0  0  0  0  0
  131.6860  124.5940   64.5000 N   0  0  0  0  0  0  0  0  0  0  0  0
  132.9680  124.1870   64.4580 C   0  0  0  0  0  0  0  0  0  0  0  0
  133.8200  124.5540   65.2690 O   0  0  0  0  0  0  0  0  0  0  0  0
  133.3150  123.2120   63.3210 C   0  0  0  0  0  0  0  0  0  0  0  0
  132.6910  123.6810   61.6700 S   0  0  0  0  0  0  0  0  0  0  0  0
  131.2940  122.6460   61.2580 C   0  0  0  0  0  0  0  0  0  0  0  0
  131.4490  121.3230   61.5150 N   0  0  0  0  0  0  0  0  0  0  0  0
  130.4330  120.4810   61.2230 C   0  0  0  0  0  0  0  0  0  0  0  0
  130.6790  119.0180   61.5350 C   0  0  0  0  0  0  0  0  0  0  0  0
  129.2320  120.9170   60.6680 C   0  0  0  0  0  0  0  0  0  0  0  0
  129.0520  122.2780   60.3890 C   0  0  0  0  0  0  0  0  0  0  0  0
  127.7580  122.6960   59.7720 C   0  0  0  0  0  0  0  0  0  0  0  0
  127.6050  122.6820   58.3800 C   0  0  0  0  0  0  0  0  0  0  0  0
  126.4030  123.0810   57.7980 C   0  0  0  0  0  0  0  0  0  0  0  0
  125.3520  123.5010   58.6070 C   0  0  0  0  0  0  0  0  0  0  0  0
  125.4920  123.5300   59.9930 C   0  0  0  0  0  0  0  0  0  0  0  0
  126.6930  123.1310   60.5720 C   0  0  0  0  0  0  0  0  0  0  0  0
  130.1060  123.1750   60.7010 C   0  0  0  0  0  0  0  0  0  0  0  0
  129.9580  124.6160   60.4690 C   0  0  0  0  0  0  0  0  0  0  0  0
  129.8410  125.7530   60.2860 N   0  0  0  0  0  0  0  0  0  0  0  0
  1  2  1  0
  2  3  1  0
  3  4  1  0
  4  5  1  0
  5  6  1  0
  6  7  1  0
  7  8  1  0
  8  9  1  0
  9 10  1  0
 10 11  1  0
 11 12  1  0
 12 13  2  0
 12 14  1  0
 14 15  1  0
 15 16  1  0
 16 17  2  0
 17 18  1  0
 18 19  1  0
 18 20  2  0
 20 21  1  0
 21 22  1  0
 22 23  2  0
 23 24  1  0
 24 25  2  0
 25 26  1  0
 26 27  2  0
 21 28  2  0
 28 29  1  0
 29 30  3  0
 28 16  1  0
 27 22  1  0
M  END
>  <Binding energies>  (36) 
[-6.48]

>  <Ligand effiencies>  (36) 
[-0.20903225806451614]

>  <Interactions>  (36) 
["H-A:HIS:456:NE2:4070, V-A:HIS:456:CD2:4068, V-B:TYR:539:CD2:9846, V-A:LEU:475:CD1:4258, V-B:GLU:543:CB:9878, H-A:TYR:484:OH:4348, V-A:TYR:484:CZ:4347, V-B:GLU:543:C:9874, V-A:TYR:484:CE1:4345, V-B:TYR:539:CE2:9848, V-A:HIS:456:CE1:4069, V-B:PRO:540:CA:9855, V-B:ALA:541:CB:9864, H-B:LYS:547:NZ:9923, V-B:TYR:539:C:9839, V-B:PRO:540:CB:9857, V-B:PRO:540:C:9853, V-B:PRO:540:N:9856, V-A:GLY:454:CA:4049, H-A:GLY:454:N:4050, V-A:TRP:381:CZ2:3370, V-A:PRO:482:CG:4327, V-A:PRO:482:CB:4326, V-A:TRP:381:CH2:3372, V-A:TYR:484:CG:4342, V-A:TYR:484:CE2:4346, V-A:HIS:456:CG:4066, V-A:TYR:484:CD1:4343, V-A:TYR:484:CD2:4344, V-A:ASP:473:CB:4239"]

$$$$
4aa_Grossjean_2025
     RDKit          3D

 26 28  0  0  0  0  0  0  0  0999 V2000
  125.3300  126.5370   74.2960 C   0  0  0  0  0  0  0  0  0  0  0  0
  126.5370  127.0550   73.5070 C   0  0  0  0  0  0  0  0  0  0  0  0
  127.6340  126.1690   73.6860 O   0  0  0  0  0  0  0  0  0  0  0  0
  128.8710  126.4810   73.2180 C   0  0  0  0  0  0  0  0  0  0  0  0
  129.7280  127.0610   73.8930 O   0  0  0  0  0  0  0  0  0  0  0  0
  129.0910  126.0540   71.7960 C   0  0  0  0  0  0  0  0  0  0  0  0
  129.6590  124.7990   71.5380 C   0  0  0  0  0  0  0  0  0  0  0  0
  129.8810  124.3760   70.2310 C   0  0  0  0  0  0  0  0  0  0  0  0
  129.5320  125.1940   69.1550 C   0  0  0  0  0  0  0  0  0  0  0  0
  129.8080  124.6720   67.8760 N   0  0  0  0  0  0  0  0  0  0  0  0
  129.3560  125.0590   66.6590 C   0  0  0  0  0  0  0  0  0  0  0  0
  128.5430  125.9660   66.4780 O   0  0  0  0  0  0  0  0  0  0  0  0
  129.8840  124.2980   65.5250 C   0  0  0  0  0  0  0  0  0  0  0  0
  129.2010  122.7220   65.1140 S   0  0  0  0  0  0  0  0  0  0  0  0
  130.3390  122.5190   63.8020 C   0  0  0  0  0  0  0  0  0  0  0  0
  130.3390  121.4300   63.0310 N   0  0  0  0  0  0  0  0  0  0  0  0
  131.2760  121.3960   62.0510 C   0  0  0  0  0  0  0  0  0  0  0  0
  131.2630  120.1470   61.1890 C   0  0  0  0  0  0  0  0  0  0  0  0
  132.1990  122.4150   61.8250 C   0  0  0  0  0  0  0  0  0  0  0  0
  132.1940  123.5560   62.6350 C   0  0  0  0  0  0  0  0  0  0  0  0
  133.2210  124.6410   62.3490 C   0  0  0  0  0  0  0  0  0  0  0  0
  131.2300  123.6270   63.6760 C   0  0  0  0  0  0  0  0  0  0  0  0
  130.9510  124.6250   64.6740 C   0  0  0  0  0  0  0  0  0  0  0  0
  131.6740  125.7880   64.7660 N   0  0  0  0  0  0  0  0  0  0  0  0
  128.9680  126.4540   69.4020 C   0  0  0  0  0  0  0  0  0  0  0  0
  128.7500  126.8760   70.7110 C   0  0  0  0  0  0  0  0  0  0  0  0
  1  2  1  0
  2  3  1  0
  3  4  1  0
  4  5  2  0
  4  6  1  0
  6  7  2  0
  7  8  1  0
  8  9  2  0
  9 10  1  0
 10 11  1  0
 11 12  2  0
 11 13  1  0
 13 14  1  0
 14 15  1  0
 15 16  2  0
 16 17  1  0
 17 18  1  0
 17 19  2  0
 19 20  1  0
 20 21  1  0
 20 22  2  0
 22 23  1  0
 23 24  1  0
  9 25  1  0
 25 26  2  0
 26  6  1  0
 23 13  2  0
 22 15  1  0
M  END
>  <Binding energies>  (37) 
[-7.58]

>  <Ligand effiencies>  (37) 
[-0.2613793103448276]

>  <Interactions>  (37) 
["V-B:GLU:543:CA:9876, V-A:GLU:543:CD:4908, V-A:HIS:456:CD2:4068, V-A:ASP:366:CG:3213, V-B:TYR:539:CD2:9846, V-A:LEU:475:CD1:4258, V-B:GLU:543:CB:9878, H-A:TYR:484:OH:4348, V-A:TYR:484:CZ:4347, V-B:GLU:543:C:9874, V-A:TYR:484:CE1:4345, V-B:HIS:456:CE1:9040, V-A:HIS:456:CE1:4069, V-B:GLU:543:CG:9879, V-A:ARG:545:CZ:4926, V-B:ALA:541:CB:9864, H-B:LYS:547:NZ:9923, V-A:TRP:381:CH2:3372, H-B:GLU:543:O:9875, H-A:GLU:543:OE1:4909, H-A:GLU:543:OE2:4910, V-B:LYS:547:CD:9921, V-A:HIS:456:CG:4066, V-A:TYR:484:CD1:4343, V-B:LYS:547:CE:9922, H-A:LYS:547:NZ:4951, H-A:HIS:456:ND1:4067, V-B:LYS:547:CG:9920"]

$$$$
4ab_Grossjean_2025
     RDKit          3D

 25 27  0  0  0  0  0  0  0  0999 V2000
  126.4300  126.8370   73.9060 C   0  0  0  0  0  0  0  0  0  0  0  0
  127.6490  126.1170   73.7870 O   0  0  0  0  0  0  0  0  0  0  0  0
  128.7470  126.6880   73.2290 C   0  0  0  0  0  0  0  0  0  0  0  0
  129.4740  127.4890   73.8250 O   0  0  0  0  0  0  0  0  0  0  0  0
  128.9850  126.2540   71.8120 C   0  0  0  0  0  0  0  0  0  0  0  0
  129.6250  125.0310   71.5700 C   0  0  0  0  0  0  0  0  0  0  0  0
  129.8620  124.6020   70.2660 C   0  0  0  0  0  0  0  0  0  0  0  0
  129.4590  125.3800   69.1810 C   0  0  0  0  0  0  0  0  0  0  0  0
  129.7550  124.8530   67.9100 N   0  0  0  0  0  0  0  0  0  0  0  0
  130.3050  125.4500   66.8240 C   0  0  0  0  0  0  0  0  0  0  0  0
  130.6140  126.6410   66.7700 O   0  0  0  0  0  0  0  0  0  0  0  0
  130.4980  124.5780   65.6640 C   0  0  0  0  0  0  0  0  0  0  0  0
  129.4950  123.1400   65.4530 S   0  0  0  0  0  0  0  0  0  0  0  0
  130.3450  122.7040   63.9880 C   0  0  0  0  0  0  0  0  0  0  0  0
  130.0310  121.6130   63.2880 N   0  0  0  0  0  0  0  0  0  0  0  0
  130.7680  121.3880   62.1740 C   0  0  0  0  0  0  0  0  0  0  0  0
  130.3980  120.1390   61.3950 C   0  0  0  0  0  0  0  0  0  0  0  0
  131.7990  122.2210   61.7450 C   0  0  0  0  0  0  0  0  0  0  0  0
  132.1260  123.3650   62.4820 C   0  0  0  0  0  0  0  0  0  0  0  0
  133.2610  124.2420   61.9740 C   0  0  0  0  0  0  0  0  0  0  0  0
  131.3780  123.6320   63.6600 C   0  0  0  0  0  0  0  0  0  0  0  0
  131.4470  124.6870   64.6350 C   0  0  0  0  0  0  0  0  0  0  0  0
  132.3650  125.7040   64.5490 N   0  0  0  0  0  0  0  0  0  0  0  0
  128.8230  126.6080   69.4130 C   0  0  0  0  0  0  0  0  0  0  0  0
  128.5880  127.0370   70.7170 C   0  0  0  0  0  0  0  0  0  0  0  0
  1  2  1  0
  2  3  1  0
  3  4  2  0
  3  5  1  0
  5  6  2  0
  6  7  1  0
  7  8  2  0
  8  9  1  0
  9 10  1  0
 10 11  2  0
 10 12  1  0
 12 13  1  0
 13 14  1  0
 14 15  2  0
 15 16  1  0
 16 17  1  0
 16 18  2  0
 18 19  1  0
 19 20  1  0
 19 21  2  0
 21 22  1  0
 22 23  1  0
  8 24  1  0
 24 25  2  0
 25  5  1  0
 22 12  2  0
 21 14  1  0
M  END
>  <Binding energies>  (38) 
[-7.2]

>  <Ligand effiencies>  (38) 
[-0.2571428571428572]

>  <Interactions>  (38) 
["H-A:HIS:456:NE2:4070, V-B:GLU:543:CA:9876, V-A:GLU:543:CD:4908, V-A:HIS:456:CD2:4068, V-A:LEU:475:CD1:4258, V-B:GLU:543:CB:9878, H-A:TYR:484:OH:4348, V-A:TYR:484:CZ:4347, V-B:GLU:543:C:9874, V-A:TYR:484:CE1:4345, V-B:HIS:456:CE1:9040, V-A:HIS:456:CE1:4069, V-B:GLU:543:CG:9879, V-A:ARG:545:CZ:4926, V-B:ALA:541:CB:9864, H-B:LYS:547:NZ:9923, H-B:GLU:543:O:9875, H-A:GLU:543:OE2:4910, V-B:LYS:547:CD:9921, V-A:HIS:456:CG:4066, H-A:LYS:547:NZ:4951"]

$$$$
4ac_Grossjean_2025
     RDKit          3D

 23 25  0  0  0  0  0  0  0  0999 V2000
  126.9860  126.9770   73.4600 C   0  0  0  0  0  0  0  0  0  0  0  0
  127.9190  125.9300   73.2140 O   0  0  0  0  0  0  0  0  0  0  0  0
  128.3980  125.7410   71.9320 C   0  0  0  0  0  0  0  0  0  0  0  0
  129.3310  124.7190   71.7610 C   0  0  0  0  0  0  0  0  0  0  0  0
  129.8700  124.4530   70.5050 C   0  0  0  0  0  0  0  0  0  0  0  0
  129.4730  125.2040   69.3980 C   0  0  0  0  0  0  0  0  0  0  0  0
  130.0800  124.8730   68.1720 N   0  0  0  0  0  0  0  0  0  0  0  0
  129.7200  125.2250   66.9150 C   0  0  0  0  0  0  0  0  0  0  0  0
  128.7260  125.9020   66.6470 O   0  0  0  0  0  0  0  0  0  0  0  0
  130.6000  124.7360   65.8500 C   0  0  0  0  0  0  0  0  0  0  0  0
  132.2080  125.4290   65.6330 S   0  0  0  0  0  0  0  0  0  0  0  0
  132.5310  124.3720   64.2760 C   0  0  0  0  0  0  0  0  0  0  0  0
  133.6880  124.4080   63.6140 N   0  0  0  0  0  0  0  0  0  0  0  0
  133.8110  123.5380   62.5830 C   0  0  0  0  0  0  0  0  0  0  0  0
  135.1340  123.5940   61.8430 C   0  0  0  0  0  0  0  0  0  0  0  0
  132.8130  122.6430   62.2010 C   0  0  0  0  0  0  0  0  0  0  0  0
  131.6000  122.6080   62.8980 C   0  0  0  0  0  0  0  0  0  0  0  0
  130.5420  121.6140   62.4440 C   0  0  0  0  0  0  0  0  0  0  0  0
  131.4360  123.5050   63.9880 C   0  0  0  0  0  0  0  0  0  0  0  0
  130.3480  123.7320   64.9010 C   0  0  0  0  0  0  0  0  0  0  0  0
  129.1760  123.0220   64.8340 N   0  0  0  0  0  0  0  0  0  0  0  0
  128.5450  126.2420   69.5630 C   0  0  0  0  0  0  0  0  0  0  0  0
  128.0080  126.5050   70.8220 C   0  0  0  0  0  0  0  0  0  0  0  0
  1  2  1  0
  2  3  1  0
  3  4  2  0
  4  5  1  0
  5  6  2  0
  6  7  1  0
  7  8  1  0
  8  9  2  0
  8 10  1  0
 10 11  1  0
 11 12  1  0
 12 13  2  0
 13 14  1  0
 14 15  1  0
 14 16  2  0
 16 17  1  0
 17 18  1  0
 17 19  2  0
 19 20  1  0
 20 21  1  0
  6 22  1  0
 22 23  2  0
 23  3  1  0
 20 10  2  0
 19 12  1  0
M  END
>  <Binding energies>  (39) 
[-6.9]

>  <Ligand effiencies>  (39) 
[-0.2653846153846154]

>  <Interactions>  (39) 
["V-B:GLU:543:CA:9876, V-A:HIS:456:CD2:4068, V-A:LEU:475:CD1:4258, V-B:GLU:543:CB:9878, H-A:TYR:484:OH:4348, V-A:TYR:484:CZ:4347, V-B:GLU:543:C:9874, V-A:TYR:484:CE1:4345, V-B:HIS:456:CE1:9040, V-A:HIS:456:CE1:4069, V-B:GLU:543:CG:9879, V-B:GLY:544:C:9884, V-B:ALA:541:CB:9864, H-B:LYS:547:NZ:9923, V-A:ILE:369:CD1:3239, V-A:GLY:453:CA:4044, V-A:GLY:454:CA:4049, V-A:GLY:453:C:4042, H-A:GLY:454:N:4050, H-B:GLU:543:O:9875, V-A:HIS:456:CG:4066, H-A:HIS:456:ND1:4067"]

$$$$
4ad_Grossjean_2025
     RDKit          3D

 21 23  0  0  0  0  0  0  0  0999 V2000
  130.8910  120.3880   61.3530 C   0  0  0  0  0  0  0  0  0  0  0  0
  131.2020  121.5760   62.2450 C   0  0  0  0  0  0  0  0  0  0  0  0
  132.3430  122.3470   62.0410 C   0  0  0  0  0  0  0  0  0  0  0  0
  132.6110  123.4370   62.8780 C   0  0  0  0  0  0  0  0  0  0  0  0
  133.8710  124.2480   62.6170 C   0  0  0  0  0  0  0  0  0  0  0  0
  131.6870  123.7140   63.9210 C   0  0  0  0  0  0  0  0  0  0  0  0
  131.6490  124.7290   64.9400 C   0  0  0  0  0  0  0  0  0  0  0  0
  132.6230  125.6900   65.0500 N   0  0  0  0  0  0  0  0  0  0  0  0
  130.5380  124.6410   65.7930 C   0  0  0  0  0  0  0  0  0  0  0  0
  130.1960  125.4910   66.9350 C   0  0  0  0  0  0  0  0  0  0  0  0
  130.4830  126.6900   66.9340 O   0  0  0  0  0  0  0  0  0  0  0  0
  129.5500  124.8660   67.9510 N   0  0  0  0  0  0  0  0  0  0  0  0
  129.1260  125.3800   69.1920 C   0  0  0  0  0  0  0  0  0  0  0  0
  128.0960  126.3240   69.1420 C   0  0  0  0  0  0  0  0  0  0  0  0
  127.5990  126.8830   70.3160 C   0  0  0  0  0  0  0  0  0  0  0  0
  128.1270  126.4920   71.5440 C   0  0  0  0  0  0  0  0  0  0  0  0
  129.1440  125.5420   71.6080 C   0  0  0  0  0  0  0  0  0  0  0  0
  129.6430  124.9820   70.4350 C   0  0  0  0  0  0  0  0  0  0  0  0
  129.4990  123.2870   65.3460 S   0  0  0  0  0  0  0  0  0  0  0  0
  130.5570  122.8480   64.0250 C   0  0  0  0  0  0  0  0  0  0  0  0
  130.2990  121.8090   63.2280 N   0  0  0  0  0  0  0  0  0  0  0  0
  1  2  1  0
  2  3  2  0
  3  4  1  0
  4  5  1  0
  4  6  2  0
  6  7  1  0
  7  8  1  0
  7  9  2  0
  9 10  1  0
 10 11  2  0
 10 12  1  0
 12 13  1  0
 13 14  2  0
 14 15  1  0
 15 16  2  0
 16 17  1  0
 17 18  2  0
  9 19  1  0
 19 20  1  0
 20 21  2  0
 21  2  1  0
 20  6  1  0
 18 13  1  0
M  END
>  <Binding energies>  (40) 
[-6.27]

>  <Ligand effiencies>  (40) 
[-0.26125]

>  <Interactions>  (40) 
["H-A:HIS:456:NE2:4070, V-B:GLU:543:CA:9876, V-A:GLU:543:CD:4908, V-A:HIS:456:CD2:4068, V-A:LEU:475:CD1:4258, V-B:GLU:543:CB:9878, H-A:TYR:484:OH:4348, V-A:TYR:484:CZ:4347, V-B:GLU:543:C:9874, V-A:TYR:484:CE1:4345, V-B:HIS:456:CE1:9040, V-A:HIS:456:CE1:4069, V-B:GLU:543:CG:9879, V-A:ARG:545:CZ:4926, V-B:GLY:544:C:9884, H-B:GLU:543:O:9875, H-A:GLU:543:OE2:4910, V-A:HIS:456:CG:4066"]

$$$$
4ae_Grossjean_2025
     RDKit          3D

 22 24  0  0  0  0  0  0  0  0999 V2000
  128.0190  119.8230   72.9170 C   0  0  0  0  0  0  0  0  0  0  0  0
  129.0970  120.8770   72.7490 C   0  0  0  0  0  0  0  0  0  0  0  0
  130.2600  120.8620   73.5230 C   0  0  0  0  0  0  0  0  0  0  0  0
  131.2050  121.8680   73.3190 C   0  0  0  0  0  0  0  0  0  0  0  0
  130.9670  122.8540   72.3590 C   0  0  0  0  0  0  0  0  0  0  0  0
  129.7840  122.8050   71.6130 C   0  0  0  0  0  0  0  0  0  0  0  0
  129.5910  123.8360   70.6770 N   0  0  0  0  0  0  0  0  0  0  0  0
  129.4150  125.1620   70.9000 C   0  0  0  0  0  0  0  0  0  0  0  0
  129.3920  125.6720   72.0210 O   0  0  0  0  0  0  0  0  0  0  0  0
  129.2440  125.9830   69.6990 C   0  0  0  0  0  0  0  0  0  0  0  0
  128.7150  127.6600   69.8350 S   0  0  0  0  0  0  0  0  0  0  0  0
  128.7300  127.8560   68.0970 C   0  0  0  0  0  0  0  0  0  0  0  0
  128.3930  129.0070   67.5140 N   0  0  0  0  0  0  0  0  0  0  0  0
  128.4420  129.0240   66.1600 C   0  0  0  0  0  0  0  0  0  0  0  0
  128.0470  130.3410   65.5170 C   0  0  0  0  0  0  0  0  0  0  0  0
  128.8190  127.9300   65.3830 C   0  0  0  0  0  0  0  0  0  0  0  0
  129.1730  126.7240   65.9990 C   0  0  0  0  0  0  0  0  0  0  0  0
  129.5740  125.5570   65.1100 C   0  0  0  0  0  0  0  0  0  0  0  0
  129.1320  126.6670   67.4190 C   0  0  0  0  0  0  0  0  0  0  0  0
  129.4210  125.6140   68.3560 C   0  0  0  0  0  0  0  0  0  0  0  0
  129.8310  124.3670   67.9540 N   0  0  0  0  0  0  0  0  0  0  0  0
  128.8520  121.8270   71.8120 N   0  0  0  0  0  0  0  0  0  0  0  0
  1  2  1  0
  2  3  2  0
  3  4  1  0
  4  5  2  0
  5  6  1  0
  6  7  1  0
  7  8  1  0
  8  9  2  0
  8 10  1  0
 10 11  1  0
 11 12  1  0
 12 13  2  0
 13 14  1  0
 14 15  1  0
 14 16  2  0
 16 17  1  0
 17 18  1  0
 17 19  2  0
 19 20  1  0
 20 21  1  0
  6 22  2  0
 22  2  1  0
 20 10  2  0
 19 12  1  0
M  END
>  <Binding energies>  (41) 
[-7.44]

>  <Ligand effiencies>  (41) 
[-0.29760000000000003]

>  <Interactions>  (41) 
["V-B:GLU:543:CA:9876, V-A:GLU:543:CD:4908, V-A:HIS:456:CD2:4068, V-B:GLU:543:CB:9878, H-B:HIS:456:NE2:9041, H-A:TYR:484:OH:4348, V-A:TYR:484:CZ:4347, V-B:GLU:543:C:9874, V-A:TYR:484:CE1:4345, V-B:HIS:456:CE1:9040, V-A:HIS:456:CE1:4069, V-B:GLU:543:CG:9879, V-A:GLU:543:CB:4906, H-B:LYS:547:NZ:9923, V-A:GLU:543:CG:4907, V-B:TYR:484:CZ:9318, H-B:GLU:543:O:9875, V-A:TYR:484:CG:4342, V-A:TYR:484:CE2:4346, V-A:HIS:456:CG:4066, V-A:TYR:484:CD1:4343, V-A:TYR:484:CD2:4344, V-A:HIS:456:CB:4065, V-A:ASP:473:CG:4240, V-B:LYS:547:CE:9922, V-A:ASP:473:CB:4239, H-A:HIS:456:ND1:4067, V-A:TYR:484:CB:4341"]

$$$$
4af_Grossjean_2025
     RDKit          3D

 21 23  0  0  0  0  0  0  0  0999 V2000
  127.9110  130.2270   64.6100 C   0  0  0  0  0  0  0  0  0  0  0  0
  128.3150  128.9690   65.3570 C   0  0  0  0  0  0  0  0  0  0  0  0
  128.6270  127.7970   64.6710 C   0  0  0  0  0  0  0  0  0  0  0  0
  128.9950  126.6470   65.3810 C   0  0  0  0  0  0  0  0  0  0  0  0
  129.3250  125.3920   64.5890 C   0  0  0  0  0  0  0  0  0  0  0  0
  129.0330  126.7280   66.8000 C   0  0  0  0  0  0  0  0  0  0  0  0
  129.3570  125.7640   67.8170 C   0  0  0  0  0  0  0  0  0  0  0  0
  129.7200  124.4760   67.5160 N   0  0  0  0  0  0  0  0  0  0  0  0
  129.2670  126.2640   69.1260 C   0  0  0  0  0  0  0  0  0  0  0  0
  129.4950  125.5590   70.3890 C   0  0  0  0  0  0  0  0  0  0  0  0
  129.5200  126.1750   71.4550 O   0  0  0  0  0  0  0  0  0  0  0  0
  129.6520  124.2170   70.2830 N   0  0  0  0  0  0  0  0  0  0  0  0
  129.9290  123.2660   71.2830 C   0  0  0  0  0  0  0  0  0  0  0  0
  131.0790  123.2470   72.0940 C   0  0  0  0  0  0  0  0  0  0  0  0
  131.2400  122.2330   73.0400 C   0  0  0  0  0  0  0  0  0  0  0  0
  130.2480  121.2580   73.1510 C   0  0  0  0  0  0  0  0  0  0  0  0
  129.1350  121.2490   72.3760 N   0  0  0  0  0  0  0  0  0  0  0  0
  128.9920  122.2410   71.4610 C   0  0  0  0  0  0  0  0  0  0  0  0
  128.7700  127.9580   69.1280 S   0  0  0  0  0  0  0  0  0  0  0  0
  128.6910  127.9860   67.3810 C   0  0  0  0  0  0  0  0  0  0  0  0
  128.3420  129.0830   66.7080 N   0  0  0  0  0  0  0  0  0  0  0  0
  1  2  1  0
  2  3  2  0
  3  4  1  0
  4  5  1  0
  4  6  2  0
  6  7  1  0
  7  8  1  0
  7  9  2  0
  9 10  1  0
 10 11  2  0
 10 12  1  0
 12 13  1  0
 13 14  2  0
 14 15  1  0
 15 16  2  0
 16 17  1  0
 17 18  2  0
  9 19  1  0
 19 20  1  0
 20 21  2  0
 21  2  1  0
 20  6  1  0
 18 13  1  0
M  END
>  <Binding energies>  (42) 
[-6.9]

>  <Ligand effiencies>  (42) 
[-0.28750000000000003]

>  <Interactions>  (42) 
["H-A:HIS:456:NE2:4070, V-B:GLU:543:CA:9876, V-A:GLU:543:CD:4908, V-A:HIS:456:CD2:4068, V-B:GLU:543:CD:9880, V-B:GLU:543:CB:9878, H-A:TYR:484:OH:4348, V-A:TYR:484:CZ:4347, V-B:GLU:543:C:9874, V-A:TYR:484:CE1:4345, V-B:HIS:456:CE1:9040, V-A:HIS:456:CE1:4069, V-B:GLU:543:CG:9879, V-A:GLU:543:CB:4906, H-B:LYS:547:NZ:9923, H-B:GLU:543:O:9875, V-A:TYR:484:CG:4342, V-A:TYR:484:CE2:4346, V-A:HIS:456:CG:4066, V-A:TYR:484:CD1:4343, V-A:TYR:484:CD2:4344, V-B:GLY:544:CA:9886, V-A:HIS:456:CB:4065, V-A:ASP:473:CG:4240, V-B:LYS:547:CE:9922, V-A:ASP:473:CB:4239, H-A:HIS:456:ND1:4067, V-A:TYR:484:CB:4341"]

$$$$
4ag_Grossjean_2025
     RDKit          3D

 22 24  0  0  0  0  0  0  0  0999 V2000
  133.4070  125.8470   75.7490 C   0  0  0  0  0  0  0  0  0  0  0  0
  132.3650  125.4690   74.7130 C   0  0  0  0  0  0  0  0  0  0  0  0
  132.2710  124.1640   74.2340 C   0  0  0  0  0  0  0  0  0  0  0  0
  131.3010  123.8370   73.2790 C   0  0  0  0  0  0  0  0  0  0  0  0
  131.2380  122.3990   72.7870 C   0  0  0  0  0  0  0  0  0  0  0  0
  130.4370  124.8710   72.8310 C   0  0  0  0  0  0  0  0  0  0  0  0
  129.3560  124.8880   71.8830 C   0  0  0  0  0  0  0  0  0  0  0  0
  128.9640  123.7650   71.1970 N   0  0  0  0  0  0  0  0  0  0  0  0
  128.7550  126.1450   71.7280 C   0  0  0  0  0  0  0  0  0  0  0  0
  127.6330  126.5160   70.8640 C   0  0  0  0  0  0  0  0  0  0  0  0
  126.7780  127.3230   71.2330 O   0  0  0  0  0  0  0  0  0  0  0  0
  127.5860  125.9100   69.6590 N   0  0  0  0  0  0  0  0  0  0  0  0
  126.5740  126.1470   68.6300 C   0  0  0  0  0  0  0  0  0  0  0  0
  126.9050  127.3020   67.6910 C   0  0  0  0  0  0  0  0  0  0  0  0
  125.8720  128.0260   67.0890 C   0  0  0  0  0  0  0  0  0  0  0  0
  126.1720  129.0970   66.2500 C   0  0  0  0  0  0  0  0  0  0  0  0
  127.5010  129.4470   66.0260 C   0  0  0  0  0  0  0  0  0  0  0  0
  128.5350  128.7400   66.6360 C   0  0  0  0  0  0  0  0  0  0  0  0
  128.2360  127.6690   67.4750 C   0  0  0  0  0  0  0  0  0  0  0  0
  129.5110  127.3490   72.7700 S   0  0  0  0  0  0  0  0  0  0  0  0
  130.6350  126.1650   73.3990 C   0  0  0  0  0  0  0  0  0  0  0  0
  131.5570  126.4800   74.3100 N   0  0  0  0  0  0  0  0  0  0  0  0
  1  2  1  0
  2  3  2  0
  3  4  1  0
  4  5  1  0
  4  6  2  0
  6  7  1  0
  7  8  1  0
  7  9  2  0
  9 10  1  0
 10 11  2  0
 10 12  1  0
 12 13  1  0
 13 14  1  0
 14 15  2  0
 15 16  1  0
 16 17  2  0
 17 18  1  0
 18 19  2  0
  9 20  1  0
 20 21  1  0
 21 22  2  0
 22  2  1  0
 21  6  1  0
 19 14  1  0
M  END
>  <Binding energies>  (43) 
[-7.15]

>  <Ligand effiencies>  (43) 
[-0.28600000000000003]

>  <Interactions>  (43) 
["V-B:GLU:543:CA:9876, V-A:GLU:543:CD:4908, V-A:HIS:456:CD2:4068, V-B:GLU:543:CB:9878, H-B:HIS:456:NE2:9041, V-B:GLU:543:C:9874, V-B:HIS:456:CE1:9040, V-B:ARG:545:CD:9895, V-B:ARG:545:CG:9894, V-A:GLU:543:CB:4906, V-B:ARG:545:CA:9891, V-B:GLY:544:C:9884, V-A:GLU:543:CG:4907, H-B:GLU:543:O:9875, V-A:TYR:484:CG:4342, V-A:TYR:484:CE2:4346, V-A:HIS:456:CG:4066, V-A:TYR:484:CD2:4344, V-B:GLY:544:CA:9886, V-A:HIS:456:CB:4065, V-A:ASP:473:CB:4239, H-A:LYS:547:NZ:4951, H-B:GLY:544:O:9885, V-A:TYR:484:CB:4341, V-A:VAL:458:CG2:4087, V-A:LYS:547:CD:4949"]

$$$$
4ah_Grossjean_2025
     RDKit          3D

 28 30  0  0  0  0  0  0  0  0999 V2000
  130.7860  121.5600   73.4910 C   0  0  0  0  0  0  0  0  0  0  0  0
  131.1280  122.5040   72.4830 O   0  0  0  0  0  0  0  0  0  0  0  0
  130.6920  123.8120   72.6020 C   0  0  0  0  0  0  0  0  0  0  0  0
  129.6220  124.3510   71.8710 C   0  0  0  0  0  0  0  0  0  0  0  0
  129.2370  125.6820   72.0420 C   0  0  0  0  0  0  0  0  0  0  0  0
  128.0430  126.2360   71.2730 C   0  0  0  0  0  0  0  0  0  0  0  0
  128.2230  126.2220   69.8220 N   0  0  0  0  0  0  0  0  0  0  0  0
  128.9520  127.1110   69.1150 C   0  0  0  0  0  0  0  0  0  0  0  0
  129.5200  128.0710   69.6400 O   0  0  0  0  0  0  0  0  0  0  0  0
  128.9970  126.8980   67.6690 C   0  0  0  0  0  0  0  0  0  0  0  0
  128.4340  128.1580   66.5700 S   0  0  0  0  0  0  0  0  0  0  0  0
  128.7650  127.1520   65.1770 C   0  0  0  0  0  0  0  0  0  0  0  0
  128.5380  127.5730   63.9330 N   0  0  0  0  0  0  0  0  0  0  0  0
  128.8400  126.6970   62.9440 C   0  0  0  0  0  0  0  0  0  0  0  0
  128.5700  127.1950   61.5350 C   0  0  0  0  0  0  0  0  0  0  0  0
  129.3600  125.4250   63.1680 C   0  0  0  0  0  0  0  0  0  0  0  0
  129.5960  124.9840   64.4750 C   0  0  0  0  0  0  0  0  0  0  0  0
  130.1640  123.5870   64.6690 C   0  0  0  0  0  0  0  0  0  0  0  0
  129.2900  125.8750   65.5400 C   0  0  0  0  0  0  0  0  0  0  0  0
  129.4000  125.7520   66.9690 C   0  0  0  0  0  0  0  0  0  0  0  0
  129.8680  124.6140   67.5740 N   0  0  0  0  0  0  0  0  0  0  0  0
  129.9080  126.4780   72.9710 C   0  0  0  0  0  0  0  0  0  0  0  0
  130.9850  125.9680   73.7120 C   0  0  0  0  0  0  0  0  0  0  0  0
  131.7030  126.7040   74.6380 O   0  0  0  0  0  0  0  0  0  0  0  0
  133.1050  126.8760   74.4560 C   0  0  0  0  0  0  0  0  0  0  0  0
  131.3710  124.6340   73.5140 C   0  0  0  0  0  0  0  0  0  0  0  0
  132.4120  124.1160   74.2460 O   0  0  0  0  0  0  0  0  0  0  0  0
  132.1120  123.9210   75.6210 C   0  0  0  0  0  0  0  0  0  0  0  0
  1  2  1  0
  2  3  1  0
  3  4  2  0
  4  5  1  0
  5  6  1  0
  6  7  1  0
  7  8  1  0
  8  9  2  0
  8 10  1  0
 10 11  1  0
 11 12  1  0
 12 13  2  0
 13 14  1  0
 14 15  1  0
 14 16  2  0
 16 17  1  0
 17 18  1  0
 17 19  2  0
 19 20  1  0
 20 21  1  0
  5 22  2  0
 22 23  1  0
 23 24  1  0
 24 25  1  0
 23 26  2  0
 26 27  1  0
 27 28  1  0
 26  3  1  0
 20 10  2  0
 19 12  1  0
M  END
>  <Binding energies>  (44) 
[-6.87]

>  <Ligand effiencies>  (44) 
[-0.22161290322580646]

>  <Interactions>  (44) 
["H-A:HIS:456:NE2:4070, V-B:GLU:543:CA:9876, V-A:GLU:543:CD:4908, V-A:HIS:456:CD2:4068, V-B:GLU:543:CD:9880, V-B:GLU:543:CB:9878, H-B:HIS:456:NE2:9041, H-A:TYR:484:OH:4348, V-A:TYR:484:CZ:4347, V-B:GLU:543:C:9874, V-A:TYR:484:CE1:4345, V-B:HIS:456:CE1:9040, V-A:HIS:456:CE1:4069, V-B:GLU:543:CG:9879, V-B:GLY:544:C:9884, H-B:LYS:547:NZ:9923, H-B:GLU:543:O:9875, V-A:TYR:484:CG:4342, V-A:HIS:456:CG:4066, V-A:TYR:484:CD2:4344, V-A:HIS:456:CB:4065, V-A:ASP:473:CG:4240, V-A:ASP:473:CB:4239, H-A:LYS:547:NZ:4951, H-A:HIS:456:ND1:4067, V-A:LYS:547:CE:4950, H-B:GLY:544:O:9885, V-A:TYR:484:CB:4341, V-A:LYS:547:CD:4949"]

$$$$
4ai_Grossjean_2025
     RDKit          3D

 20 22  0  0  0  0  0  0  0  0999 V2000
  127.9700  130.3710   65.1920 C   0  0  0  0  0  0  0  0  0  0  0  0
  128.3630  129.0650   65.8590 C   0  0  0  0  0  0  0  0  0  0  0  0
  128.6990  127.9450   65.1000 C   0  0  0  0  0  0  0  0  0  0  0  0
  129.0650  126.7530   65.7360 C   0  0  0  0  0  0  0  0  0  0  0  0
  129.4250  125.5600   64.8650 C   0  0  0  0  0  0  0  0  0  0  0  0
  129.0770  126.7360   67.1570 C   0  0  0  0  0  0  0  0  0  0  0  0
  129.3950  125.7080   68.1110 C   0  0  0  0  0  0  0  0  0  0  0  0
  129.7700  124.4450   67.7290 N   0  0  0  0  0  0  0  0  0  0  0  0
  129.2910  126.1200   69.4490 C   0  0  0  0  0  0  0  0  0  0  0  0
  129.5290  125.3380   70.6640 C   0  0  0  0  0  0  0  0  0  0  0  0
  129.6150  125.8910   71.7620 O   0  0  0  0  0  0  0  0  0  0  0  0
  129.6250  123.9970   70.4820 N   0  0  0  0  0  0  0  0  0  0  0  0
  129.8360  123.0260   71.4520 C   0  0  0  0  0  0  0  0  0  0  0  0
  130.9560  123.0100   72.2840 C   0  0  0  0  0  0  0  0  0  0  0  0
  130.7910  121.9050   73.0870 C   0  0  0  0  0  0  0  0  0  0  0  0
  129.6310  121.2880   72.7580 O   0  0  0  0  0  0  0  0  0  0  0  0
  129.0340  122.0080   71.7220 N   0  0  0  0  0  0  0  0  0  0  0  0
  128.7670  127.8020   69.5590 S   0  0  0  0  0  0  0  0  0  0  0  0
  128.7120  127.9480   67.8160 C   0  0  0  0  0  0  0  0  0  0  0  0
  128.3620  129.0860   67.2140 N   0  0  0  0  0  0  0  0  0  0  0  0
  1  2  1  0
  2  3  2  0
  3  4  1  0
  4  5  1  0
  4  6  2  0
  6  7  1  0
  7  8  1  0
  7  9  2  0
  9 10  1  0
 10 11  2  0
 10 12  1  0
 12 13  1  0
 13 14  1  0
 14 15  2  0
 15 16  1  0
 16 17  1  0
  9 18  1  0
 18 19  1  0
 19 20  2  0
 20  2  1  0
 19  6  1  0
 17 13  2  0
M  END
>  <Binding energies>  (45) 
[-7.58]

>  <Ligand effiencies>  (45) 
[-0.32956521739130434]

>  <Interactions>  (45) 
["H-A:HIS:456:NE2:4070, V-B:GLU:543:CA:9876, V-A:GLU:543:CD:4908, V-A:HIS:456:CD2:4068, V-B:GLU:543:CD:9880, V-B:GLU:543:CB:9878, H-A:TYR:484:OH:4348, V-A:TYR:484:CZ:4347, V-B:GLU:543:C:9874, V-A:TYR:484:CE1:4345, V-B:HIS:456:CE1:9040, V-A:HIS:456:CE1:4069, V-B:GLU:543:CG:9879, V-A:GLU:543:CB:4906, H-B:LYS:547:NZ:9923, V-A:GLU:543:CG:4907, H-B:GLU:543:O:9875, V-A:TYR:484:CG:4342, V-A:TYR:484:CE2:4346, V-A:HIS:456:CG:4066, V-A:TYR:484:CD1:4343, V-A:TYR:484:CD2:4344, V-A:HIS:456:CB:4065, V-A:ASP:473:CB:4239, H-A:HIS:456:ND1:4067, V-A:TYR:484:CB:4341"]

$$$$
4aj_Grossjean_2025
     RDKit          3D

 20 22  0  0  0  0  0  0  0  0999 V2000
  127.9120  130.2700   65.3960 C   0  0  0  0  0  0  0  0  0  0  0  0
  128.3500  128.9750   66.0560 C   0  0  0  0  0  0  0  0  0  0  0  0
  128.6960  127.8630   65.2940 C   0  0  0  0  0  0  0  0  0  0  0  0
  129.0930  126.6770   65.9240 C   0  0  0  0  0  0  0  0  0  0  0  0
  129.4600  125.4900   65.0460 C   0  0  0  0  0  0  0  0  0  0  0  0
  129.1270  126.6600   67.3430 C   0  0  0  0  0  0  0  0  0  0  0  0
  129.4760  125.6370   68.2930 C   0  0  0  0  0  0  0  0  0  0  0  0
  129.8690  124.3820   67.9050 N   0  0  0  0  0  0  0  0  0  0  0  0
  129.3810  126.0470   69.6320 C   0  0  0  0  0  0  0  0  0  0  0  0
  129.6480  125.2690   70.8430 C   0  0  0  0  0  0  0  0  0  0  0  0
  129.7030  125.8180   71.9460 O   0  0  0  0  0  0  0  0  0  0  0  0
  129.8100  123.9360   70.6550 N   0  0  0  0  0  0  0  0  0  0  0  0
  130.0590  122.9800   71.6310 C   0  0  0  0  0  0  0  0  0  0  0  0
  129.3020  121.9600   71.9730 N   0  0  0  0  0  0  0  0  0  0  0  0
  129.8530  121.2510   72.9400 C   0  0  0  0  0  0  0  0  0  0  0  0
  131.0870  121.6970   73.4040 C   0  0  0  0  0  0  0  0  0  0  0  0
  131.5420  123.1220   72.5170 S   0  0  0  0  0  0  0  0  0  0  0  0
  128.8360  127.7210   69.7500 S   0  0  0  0  0  0  0  0  0  0  0  0
  128.7520  127.8670   68.0090 C   0  0  0  0  0  0  0  0  0  0  0  0
  128.3730  128.9970   67.4120 N   0  0  0  0  0  0  0  0  0  0  0  0
  1  2  1  0
  2  3  2  0
  3  4  1  0
  4  5  1  0
  4  6  2  0
  6  7  1  0
  7  8  1  0
  7  9  2  0
  9 10  1  0
 10 11  2  0
 10 12  1  0
 12 13  1  0
 13 14  2  0
 14 15  1  0
 15 16  2  0
 16 17  1  0
  9 18  1  0
 18 19  1  0
 19 20  2  0
 20  2  1  0
 19  6  1  0
 17 13  1  0
M  END
>  <Binding energies>  (46) 
[-6.76]

>  <Ligand effiencies>  (46) 
[-0.29391304347826086]

>  <Interactions>  (46) 
["H-A:HIS:456:NE2:4070, V-B:GLU:543:CA:9876, V-A:GLU:543:CD:4908, V-A:HIS:456:CD2:4068, V-B:GLU:543:CD:9880, V-B:GLU:543:CB:9878, H-B:HIS:456:NE2:9041, H-A:TYR:484:OH:4348, V-A:TYR:484:CZ:4347, V-B:GLU:543:C:9874, V-A:TYR:484:CE1:4345, V-B:HIS:456:CE1:9040, V-A:HIS:456:CE1:4069, V-B:GLU:543:CG:9879, V-A:GLU:543:CB:4906, H-B:LYS:547:NZ:9923, V-A:GLU:543:CG:4907, H-B:GLU:543:O:9875, V-A:TYR:484:CG:4342, V-A:TYR:484:CE2:4346, V-A:HIS:456:CG:4066, V-A:TYR:484:CD1:4343, V-A:TYR:484:CD2:4344, V-A:HIS:456:CB:4065, V-A:ASP:473:CG:4240, V-B:LYS:547:CE:9922, V-A:ASP:473:CB:4239, H-A:HIS:456:ND1:4067, V-A:TYR:484:CB:4341"]

$$$$
4ak_Grossjean_2025
     RDKit          3D

 25 26  0  0  0  0  0  0  0  0999 V2000
  125.6540  122.9130   56.7320 C   0  0  0  0  0  0  0  0  0  0  0  0
  126.7240  122.0170   56.9920 O   0  0  0  0  0  0  0  0  0  0  0  0
  127.6570  122.5120   57.9450 C   0  0  0  0  0  0  0  0  0  0  0  0
  126.9210  122.8760   59.2410 C   0  0  0  0  0  0  0  0  0  0  0  0
  127.6170  122.3240   60.3490 O   0  0  0  0  0  0  0  0  0  0  0  0
  128.8150  121.6450   59.9950 C   0  0  0  0  0  0  0  0  0  0  0  0
  129.4490  121.0430   61.2550 C   0  0  0  0  0  0  0  0  0  0  0  0
  130.2920  122.0110   61.8640 O   0  0  0  0  0  0  0  0  0  0  0  0
  131.6610  121.6300   61.9170 C   0  0  0  0  0  0  0  0  0  0  0  0
  132.3590  122.3950   63.0550 C   0  0  0  0  0  0  0  0  0  0  0  0
  131.5830  123.5260   63.5630 N   0  0  0  0  0  0  0  0  0  0  0  0
  130.6550  123.4610   64.5400 C   0  0  0  0  0  0  0  0  0  0  0  0
  130.3860  122.4100   65.1250 O   0  0  0  0  0  0  0  0  0  0  0  0
  129.9860  124.7160   64.8770 C   0  0  0  0  0  0  0  0  0  0  0  0
  129.5190  125.8450   63.6050 S   0  0  0  0  0  0  0  0  0  0  0  0
  128.8380  126.9520   64.7760 C   0  0  0  0  0  0  0  0  0  0  0  0
  128.2800  128.1080   64.4120 N   0  0  0  0  0  0  0  0  0  0  0  0
  127.7930  128.8760   65.4180 C   0  0  0  0  0  0  0  0  0  0  0  0
  127.1610  130.1850   64.9830 C   0  0  0  0  0  0  0  0  0  0  0  0
  127.8490  128.5180   66.7630 C   0  0  0  0  0  0  0  0  0  0  0  0
  128.4350  127.3040   67.1410 C   0  0  0  0  0  0  0  0  0  0  0  0
  128.4760  126.9590   68.6220 C   0  0  0  0  0  0  0  0  0  0  0  0
  128.9580  126.4730   66.1140 C   0  0  0  0  0  0  0  0  0  0  0  0
  129.6120  125.1920   66.1430 C   0  0  0  0  0  0  0  0  0  0  0  0
  129.8430  124.5120   67.3120 N   0  0  0  0  0  0  0  0  0  0  0  0
  1  2  1  0
  2  3  1  0
  3  4  1  0
  4  5  1  0
  5  6  1  0
  6  7  1  0
  7  8  1  0
  8  9  1  0
  9 10  1  0
 10 11  1  0
 11 12  1  0
 12 13  2  0
 12 14  1  0
 14 15  1  0
 15 16  1  0
 16 17  2  0
 17 18  1  0
 18 19  1  0
 18 20  2  0
 20 21  1  0
 21 22  1  0
 21 23  2  0
 23 24  1  0
 24 25  1  0
 24 14  2  0
 23 16  1  0
M  END
>  <Binding energies>  (47) 
[-5.8]

>  <Ligand effiencies>  (47) 
[-0.20714285714285713]

>  <Interactions>  (47) 
["V-B:GLU:543:CA:9876, V-A:GLU:543:CD:4908, V-B:GLU:543:CD:9880, V-B:TYR:539:CD2:9846, V-A:LEU:475:CD1:4258, H-B:ALA:541:N:9863, V-B:GLU:543:CB:9878, H-A:TYR:484:OH:4348, V-A:TYR:484:CZ:4347, V-B:GLU:543:C:9874, V-A:TYR:484:CE1:4345, V-B:HIS:456:CE1:9040, V-B:TYR:539:CE2:9848, V-A:HIS:456:CE1:4069, V-B:GLU:543:CG:9879, V-B:PRO:540:CA:9855, V-B:ALA:541:CB:9864, V-B:TYR:539:CZ:9849, V-B:TYR:539:C:9839, V-B:PRO:540:CB:9857, V-B:PRO:540:N:9856, V-B:ALA:541:CA:9862, H-B:GLU:543:O:9875, V-B:TYR:539:CG:9844, V-B:LEU:363:CD1:8160, V-B:PRO:540:CD:9859, H-A:HIS:456:ND1:4067, H-B:TYR:539:N:9842"]

$$$$
4al_Grossjean_2025
     RDKit          3D

 16 17  0  0  0  0  0  0  0  0999 V2000
  127.1040  126.5460   73.7270 C   0  0  0  0  0  0  0  0  0  0  0  0
  128.3450  125.8660   73.8390 O   0  0  0  0  0  0  0  0  0  0  0  0
  129.4680  126.3640   73.2590 C   0  0  0  0  0  0  0  0  0  0  0  0
  130.4050  126.8630   73.8860 O   0  0  0  0  0  0  0  0  0  0  0  0
  129.4540  126.2480   71.7840 C   0  0  0  0  0  0  0  0  0  0  0  0
  129.5890  124.6600   71.0240 S   0  0  0  0  0  0  0  0  0  0  0  0
  129.4960  125.3710   69.4290 C   0  0  0  0  0  0  0  0  0  0  0  0
  129.5470  124.6280   68.3230 N   0  0  0  0  0  0  0  0  0  0  0  0
  129.4650  125.3020   67.1480 C   0  0  0  0  0  0  0  0  0  0  0  0
  129.5240  124.4380   65.9020 C   0  0  0  0  0  0  0  0  0  0  0  0
  129.3340  126.6860   67.0570 C   0  0  0  0  0  0  0  0  0  0  0  0
  129.2810  127.4630   68.2200 C   0  0  0  0  0  0  0  0  0  0  0  0
  129.1380  128.9690   68.0700 C   0  0  0  0  0  0  0  0  0  0  0  0
  129.3650  126.7910   69.4690 C   0  0  0  0  0  0  0  0  0  0  0  0
  129.3430  127.2620   70.8260 C   0  0  0  0  0  0  0  0  0  0  0  0
  129.2250  128.5910   71.1440 N   0  0  0  0  0  0  0  0  0  0  0  0
  1  2  1  0
  2  3  1  0
  3  4  2  0
  3  5  1  0
  5  6  1  0
  6  7  1  0
  7  8  2  0
  8  9  1  0
  9 10  1  0
  9 11  2  0
 11 12  1  0
 12 13  1  0
 12 14  2  0
 14 15  1  0
 15 16  1  0
 15  5  2  0
 14  7  1  0
M  END
>  <Binding energies>  (48) 
[-4.96]

>  <Ligand effiencies>  (48) 
[-0.27555555555555555]

>  <Interactions>  (48) 
["V-B:GLU:543:CA:9876, V-A:HIS:456:CD2:4068, V-B:GLU:543:CB:9878, H-A:TYR:484:OH:4348, V-A:TYR:484:CE1:4345, V-B:HIS:456:CE1:9040, V-A:HIS:456:CE1:4069, V-B:GLU:543:CG:9879, V-A:GLU:543:CB:4906, H-B:LYS:547:NZ:9923, V-A:GLU:543:CG:4907, V-B:HIS:456:CD2:9039, V-B:LYS:547:CD:9921, V-B:LYS:547:CE:9922, H-A:LYS:547:NZ:4951, H-A:GLU:543:O:4903, V-A:GLU:543:CA:4904, V-A:GLU:543:C:4902, H-B:HIS:456:ND1:9038"]

$$$$
4bc_Grossjean_2025
     RDKit          3D

 26 28  0  0  0  0  0  0  0  0999 V2000
  127.0210  126.8630   73.4240 C   0  0  0  0  0  0  0  0  0  0  0  0
  127.9170  125.7900   73.1550 O   0  0  0  0  0  0  0  0  0  0  0  0
  128.4040  125.6240   71.8720 C   0  0  0  0  0  0  0  0  0  0  0  0
  129.3290  124.5980   71.6860 C   0  0  0  0  0  0  0  0  0  0  0  0
  129.8750  124.3550   70.4280 C   0  0  0  0  0  0  0  0  0  0  0  0
  129.4940  125.1340   69.3340 C   0  0  0  0  0  0  0  0  0  0  0  0
  130.1090  124.8250   68.1070 N   0  0  0  0  0  0  0  0  0  0  0  0
  129.7260  125.1540   66.8490 C   0  0  0  0  0  0  0  0  0  0  0  0
  128.7000  125.7810   66.5860 O   0  0  0  0  0  0  0  0  0  0  0  0
  130.6220  124.7030   65.7800 C   0  0  0  0  0  0  0  0  0  0  0  0
  132.2370  125.3910   65.6270 S   0  0  0  0  0  0  0  0  0  0  0  0
  132.5810  124.3920   64.2350 C   0  0  0  0  0  0  0  0  0  0  0  0
  133.7550  124.4540   63.6080 N   0  0  0  0  0  0  0  0  0  0  0  0
  133.9040  123.6350   62.5420 C   0  0  0  0  0  0  0  0  0  0  0  0
  135.2500  123.7170   61.8450 C   0  0  0  0  0  0  0  0  0  0  0  0
  132.9150  122.7630   62.0920 C   0  0  0  0  0  0  0  0  0  0  0  0
  131.6760  122.6940   62.7490 C   0  0  0  0  0  0  0  0  0  0  0  0
  130.6180  121.7210   62.2150 C   0  0  0  0  0  0  0  0  0  0  0  0
  131.0580  120.9810   61.1950 F   0  0  0  0  0  0  0  0  0  0  0  0
  130.2460  120.8850   63.1840 F   0  0  0  0  0  0  0  0  0  0  0  0
  129.5550  122.4000   61.7850 F   0  0  0  0  0  0  0  0  0  0  0  0
  131.4880  123.5450   63.8780 C   0  0  0  0  0  0  0  0  0  0  0  0
  130.3820  123.7440   64.7840 C   0  0  0  0  0  0  0  0  0  0  0  0
  129.2020  123.0530   64.6750 N   0  0  0  0  0  0  0  0  0  0  0  0
  128.5740  126.1770   69.5160 C   0  0  0  0  0  0  0  0  0  0  0  0
  128.0310  126.4170   70.7750 C   0  0  0  0  0  0  0  0  0  0  0  0
  1  2  1  0
  2  3  1  0
  3  4  2  0
  4  5  1  0
  5  6  2  0
  6  7  1  0
  7  8  1  0
  8  9  2  0
  8 10  1  0
 10 11  1  0
 11 12  1  0
 12 13  2  0
 13 14  1  0
 14 15  1  0
 14 16  2  0
 16 17  1  0
 17 18  1  0
 18 19  1  0
 18 20  1  0
 18 21  1  0
 17 22  2  0
 22 23  1  0
 23 24  1  0
  6 25  1  0
 25 26  2  0
 26  3  1  0
 23 10  2  0
 22 12  1  0
M  END
>  <Binding energies>  (49) 
[-6.61]

>  <Ligand effiencies>  (49) 
[-0.22793103448275864]

>  <Interactions>  (49) 
["V-B:GLU:543:CA:9876, V-A:HIS:456:CD2:4068, V-B:TYR:539:CD2:9846, V-A:LEU:475:CD1:4258, V-B:GLU:543:CB:9878, H-A:TYR:484:OH:4348, V-A:TYR:484:CZ:4347, V-B:GLU:543:C:9874, V-A:TYR:484:CE1:4345, V-B:HIS:456:CE1:9040, V-A:HIS:456:CE1:4069, V-B:GLU:543:CG:9879, V-B:GLY:544:C:9884, V-B:ALA:541:CB:9864, H-B:LYS:547:NZ:9923, V-A:ILE:369:CD1:3239, V-A:GLY:453:CA:4044, V-A:GLY:454:CA:4049, V-A:GLY:453:C:4042, H-A:GLY:454:N:4050, H-A:ARG:545:NH2:4928, H-B:GLU:543:O:9875, V-A:HIS:456:CG:4066, H-A:HIS:456:ND1:4067, V-A:LEU:475:CD2:4259"]

$$$$
4bf_Grossjean_2025
     RDKit          3D

 24 26  0  0  0  0  0  0  0  0999 V2000
  127.9690  130.3250   64.7030 C   0  0  0  0  0  0  0  0  0  0  0  0
  128.3680  129.0530   65.4320 C   0  0  0  0  0  0  0  0  0  0  0  0
  128.6920  127.8960   64.7290 C   0  0  0  0  0  0  0  0  0  0  0  0
  129.0550  126.7270   65.4160 C   0  0  0  0  0  0  0  0  0  0  0  0
  129.4000  125.4760   64.6000 C   0  0  0  0  0  0  0  0  0  0  0  0
  128.9300  124.3510   65.1450 F   0  0  0  0  0  0  0  0  0  0  0  0
  128.8790  125.5750   63.3780 F   0  0  0  0  0  0  0  0  0  0  0  0
  130.7240  125.3500   64.5060 F   0  0  0  0  0  0  0  0  0  0  0  0
  129.0750  126.7860   66.8410 C   0  0  0  0  0  0  0  0  0  0  0  0
  129.3870  125.8140   67.8590 C   0  0  0  0  0  0  0  0  0  0  0  0
  129.7630  124.5280   67.5630 N   0  0  0  0  0  0  0  0  0  0  0  0
  129.2770  126.3010   69.1720 C   0  0  0  0  0  0  0  0  0  0  0  0
  129.4880  125.5830   70.4340 C   0  0  0  0  0  0  0  0  0  0  0  0
  129.4960  126.1890   71.5060 O   0  0  0  0  0  0  0  0  0  0  0  0
  129.6510  124.2420   70.3190 N   0  0  0  0  0  0  0  0  0  0  0  0
  129.9170  123.2830   71.3140 C   0  0  0  0  0  0  0  0  0  0  0  0
  131.0420  123.2750   72.1570 C   0  0  0  0  0  0  0  0  0  0  0  0
  131.1950  122.2530   73.0970 C   0  0  0  0  0  0  0  0  0  0  0  0
  130.2180  121.2590   73.1670 C   0  0  0  0  0  0  0  0  0  0  0  0
  129.1270  121.2410   72.3600 N   0  0  0  0  0  0  0  0  0  0  0  0
  128.9930  122.2410   71.4520 C   0  0  0  0  0  0  0  0  0  0  0  0
  128.7750  127.9890   69.1850 S   0  0  0  0  0  0  0  0  0  0  0  0
  128.7220  128.0350   67.4380 C   0  0  0  0  0  0  0  0  0  0  0  0
  128.3780  129.1430   66.7820 N   0  0  0  0  0  0  0  0  0  0  0  0
  1  2  1  0
  2  3  2  0
  3  4  1  0
  4  5  1  0
  5  6  1  0
  5  7  1  0
  5  8  1  0
  4  9  2  0
  9 10  1  0
 10 11  1  0
 10 12  2  0
 12 13  1  0
 13 14  2  0
 13 15  1  0
 15 16  1  0
 16 17  2  0
 17 18  1  0
 18 19  2  0
 19 20  1  0
 20 21  2  0
 12 22  1  0
 22 23  1  0
 23 24  2  0
 24  2  1  0
 23  9  1  0
 21 16  1  0
M  END
>  <Binding energies>  (50) 
[-6.57]

>  <Ligand effiencies>  (50) 
[-0.24333333333333335]

>  <Interactions>  (50) 
["H-A:HIS:456:NE2:4070, V-B:GLU:543:CA:9876, V-A:GLU:543:CD:4908, V-A:HIS:456:CD2:4068, V-B:GLU:543:CD:9880, V-B:GLU:543:CB:9878, H-A:TYR:484:OH:4348, V-A:TYR:484:CZ:4347, V-B:GLU:543:C:9874, V-A:TYR:484:CE1:4345, V-B:HIS:456:CE1:9040, V-A:HIS:456:CE1:4069, V-B:GLU:543:CG:9879, V-A:GLU:543:CB:4906, H-B:LYS:547:NZ:9923, H-B:GLU:543:O:9875, V-A:TYR:484:CG:4342, V-A:TYR:484:CE2:4346, V-A:HIS:456:CG:4066, V-A:TYR:484:CD1:4343, V-A:TYR:484:CD2:4344, V-B:GLY:544:CA:9886, V-A:HIS:456:CB:4065, V-A:ASP:473:CG:4240, V-B:LYS:547:CE:9922, V-A:ASP:473:CB:4239, H-A:HIS:456:ND1:4067, V-A:TYR:484:CB:4341"]

$$$$
4bh_Grossjean_2025
     RDKit          3D

 31 33  0  0  0  0  0  0  0  0999 V2000
  132.5250  126.4060   74.4580 C   0  0  0  0  0  0  0  0  0  0  0  0
  131.1060  126.5050   74.4580 O   0  0  0  0  0  0  0  0  0  0  0  0
  130.3910  126.0380   73.3700 C   0  0  0  0  0  0  0  0  0  0  0  0
  129.6640  126.8610   72.4970 C   0  0  0  0  0  0  0  0  0  0  0  0
  128.9630  126.3200   71.4190 C   0  0  0  0  0  0  0  0  0  0  0  0
  128.2160  127.2350   70.4560 C   0  0  0  0  0  0  0  0  0  0  0  0
  128.3650  126.8510   69.0520 N   0  0  0  0  0  0  0  0  0  0  0  0
  129.2670  127.3660   68.1910 C   0  0  0  0  0  0  0  0  0  0  0  0
  130.0470  128.2660   68.5100 O   0  0  0  0  0  0  0  0  0  0  0  0
  129.2390  126.8270   66.8310 C   0  0  0  0  0  0  0  0  0  0  0  0
  128.7800  127.8610   65.4820 S   0  0  0  0  0  0  0  0  0  0  0  0
  128.9500  126.5360   64.3540 C   0  0  0  0  0  0  0  0  0  0  0  0
  128.7220  126.6990   63.0510 N   0  0  0  0  0  0  0  0  0  0  0  0
  128.8890  125.6020   62.2770 C   0  0  0  0  0  0  0  0  0  0  0  0
  128.6230  125.8090   60.7970 C   0  0  0  0  0  0  0  0  0  0  0  0
  129.2750  124.3580   62.7690 C   0  0  0  0  0  0  0  0  0  0  0  0
  129.5140  124.1790   64.1410 C   0  0  0  0  0  0  0  0  0  0  0  0
  129.9400  122.7930   64.6360 C   0  0  0  0  0  0  0  0  0  0  0  0
  129.1270  122.2990   65.5730 F   0  0  0  0  0  0  0  0  0  0  0  0
  129.9430  121.9320   63.6180 F   0  0  0  0  0  0  0  0  0  0  0  0
  131.1630  122.8580   65.1620 F   0  0  0  0  0  0  0  0  0  0  0  0
  129.3450  125.3160   64.9860 C   0  0  0  0  0  0  0  0  0  0  0  0
  129.4890  125.5130   66.4070 C   0  0  0  0  0  0  0  0  0  0  0  0
  129.8480  124.5040   67.2640 N   0  0  0  0  0  0  0  0  0  0  0  0
  129.0100  124.9440   71.1900 C   0  0  0  0  0  0  0  0  0  0  0  0
  129.7230  124.0950   72.0510 C   0  0  0  0  0  0  0  0  0  0  0  0
  129.8010  122.7230   71.8920 O   0  0  0  0  0  0  0  0  0  0  0  0
  128.7240  122.0300   71.2690 C   0  0  0  0  0  0  0  0  0  0  0  0
  130.4050  124.6540   73.1410 C   0  0  0  0  0  0  0  0  0  0  0  0
  131.1220  123.8360   73.9820 O   0  0  0  0  0  0  0  0  0  0  0  0
  132.1240  123.0700   73.3260 C   0  0  0  0  0  0  0  0  0  0  0  0
  1  2  1  0
  2  3  1  0
  3  4  2  0
  4  5  1  0
  5  6  1  0
  6  7  1  0
  7  8  1  0
  8  9  2  0
  8 10  1  0
 10 11  1  0
 11 12  1  0
 12 13  2  0
 13 14  1  0
 14 15  1  0
 14 16  2  0
 16 17  1  0
 17 18  1  0
 18 19  1  0
 18 20  1  0
 18 21  1  0
 17 22  2  0
 22 23  1  0
 23 24  1  0
  5 25  2  0
 25 26  1  0
 26 27  1  0
 27 28  1  0
 26 29  2  0
 29 30  1  0
 30 31  1  0
 29  3  1  0
 23 10  2  0
 22 12  1  0
M  END
>  <Binding energies>  (51) 
[-6.62]

>  <Ligand effiencies>  (51) 
[-0.19470588235294117]

>  <Interactions>  (51) 
["H-A:HIS:456:NE2:4070, V-B:GLU:543:CA:9876, V-A:GLU:543:CD:4908, V-A:HIS:456:CD2:4068, V-B:GLU:543:CD:9880, V-A:LEU:475:CD1:4258, V-B:GLU:543:CB:9878, H-A:TYR:484:OH:4348, V-A:TYR:484:CZ:4347, V-B:GLU:543:C:9874, V-A:TYR:484:CE1:4345, V-B:HIS:456:CE1:9040, V-A:HIS:456:CE1:4069, V-B:GLU:543:CG:9879, V-B:ALA:541:CB:9864, H-B:LYS:547:NZ:9923, H-B:GLU:543:O:9875, V-A:TYR:484:CG:4342, V-A:HIS:456:CG:4066, V-A:TYR:484:CD1:4343, V-B:GLY:544:CA:9886, V-A:HIS:456:CB:4065, V-A:ASP:473:CG:4240, V-B:LYS:547:CE:9922, V-A:ASP:473:CB:4239, H-A:LYS:547:NZ:4951, H-A:HIS:456:ND1:4067, V-A:LYS:547:CE:4950, V-A:TYR:484:CB:4341, V-A:LYS:547:CD:4949"]

$$$$
4bi_Grossjean_2025
     RDKit          3D

 23 25  0  0  0  0  0  0  0  0999 V2000
  127.9640  130.2820   65.1810 C   0  0  0  0  0  0  0  0  0  0  0  0
  128.3750  128.9820   65.8490 C   0  0  0  0  0  0  0  0  0  0  0  0
  128.7410  127.8710   65.0930 C   0  0  0  0  0  0  0  0  0  0  0  0
  129.1240  126.6760   65.7240 C   0  0  0  0  0  0  0  0  0  0  0  0
  129.5260  125.4840   64.8500 C   0  0  0  0  0  0  0  0  0  0  0  0
  129.0980  124.3150   65.3340 F   0  0  0  0  0  0  0  0  0  0  0  0
  129.0090  125.6230   63.6300 F   0  0  0  0  0  0  0  0  0  0  0  0
  130.8540  125.4160   64.7610 F   0  0  0  0  0  0  0  0  0  0  0  0
  129.1150  126.6610   67.1510 C   0  0  0  0  0  0  0  0  0  0  0  0
  129.4330  125.6440   68.1220 C   0  0  0  0  0  0  0  0  0  0  0  0
  129.8340  124.3810   67.7700 N   0  0  0  0  0  0  0  0  0  0  0  0
  129.3010  126.0630   69.4570 C   0  0  0  0  0  0  0  0  0  0  0  0
  129.5280  125.2930   70.6830 C   0  0  0  0  0  0  0  0  0  0  0  0
  129.5900  125.8560   71.7780 O   0  0  0  0  0  0  0  0  0  0  0  0
  129.6390  123.9510   70.5160 N   0  0  0  0  0  0  0  0  0  0  0  0
  129.8430  122.9910   71.4980 C   0  0  0  0  0  0  0  0  0  0  0  0
  130.9770  122.9570   72.3070 C   0  0  0  0  0  0  0  0  0  0  0  0
  130.7960  121.8720   73.1340 C   0  0  0  0  0  0  0  0  0  0  0  0
  129.6130  121.2830   72.8390 O   0  0  0  0  0  0  0  0  0  0  0  0
  129.0180  122.0020   71.7990 N   0  0  0  0  0  0  0  0  0  0  0  0
  128.7520  127.7350   69.5480 S   0  0  0  0  0  0  0  0  0  0  0  0
  128.7200  127.8670   67.8060 C   0  0  0  0  0  0  0  0  0  0  0  0
  128.3580  128.9990   67.2010 N   0  0  0  0  0  0  0  0  0  0  0  0
  1  2  1  0
  2  3  2  0
  3  4  1  0
  4  5  1  0
  5  6  1  0
  5  7  1  0
  5  8  1  0
  4  9  2  0
  9 10  1  0
 10 11  1  0
 10 12  2  0
 12 13  1  0
 13 14  2  0
 13 15  1  0
 15 16  1  0
 16 17  1  0
 17 18  2  0
 18 19  1  0
 19 20  1  0
 12 21  1  0
 21 22  1  0
 22 23  2  0
 23  2  1  0
 22  9  1  0
 20 16  2  0
M  END
>  <Binding energies>  (52) 
[-7.29]

>  <Ligand effiencies>  (52) 
[-0.2803846153846154]

>  <Interactions>  (52) 
["H-A:HIS:456:NE2:4070, V-B:GLU:543:CA:9876, V-A:GLU:543:CD:4908, V-A:HIS:456:CD2:4068, V-B:GLU:543:CD:9880, V-B:GLU:543:CB:9878, H-A:TYR:484:OH:4348, V-A:TYR:484:CZ:4347, V-B:GLU:543:C:9874, V-A:TYR:484:CE1:4345, V-B:HIS:456:CE1:9040, V-A:HIS:456:CE1:4069, V-B:GLU:543:CG:9879, V-A:GLU:543:CB:4906, H-B:LYS:547:NZ:9923, V-A:GLU:543:CG:4907, H-B:GLU:543:O:9875, V-A:TYR:484:CG:4342, V-A:TYR:484:CE2:4346, V-A:HIS:456:CG:4066, V-A:TYR:484:CD1:4343, V-A:TYR:484:CD2:4344, V-A:HIS:456:CB:4065, V-A:ASP:473:CB:4239, H-A:HIS:456:ND1:4067, V-A:TYR:484:CB:4341"]

$$$$
4bj_Grossjean_2025
     RDKit          3D

 23 25  0  0  0  0  0  0  0  0999 V2000
  127.9400  130.2490   65.3470 C   0  0  0  0  0  0  0  0  0  0  0  0
  128.3690  128.9530   66.0100 C   0  0  0  0  0  0  0  0  0  0  0  0
  128.7510  127.8500   65.2490 C   0  0  0  0  0  0  0  0  0  0  0  0
  129.1400  126.6550   65.8750 C   0  0  0  0  0  0  0  0  0  0  0  0
  129.5490  125.4680   64.9960 C   0  0  0  0  0  0  0  0  0  0  0  0
  129.0890  124.3000   65.4500 F   0  0  0  0  0  0  0  0  0  0  0  0
  129.0710  125.6340   63.7630 F   0  0  0  0  0  0  0  0  0  0  0  0
  130.8780  125.3820   64.9470 F   0  0  0  0  0  0  0  0  0  0  0  0
  129.1270  126.6320   67.3020 C   0  0  0  0  0  0  0  0  0  0  0  0
  129.4480  125.6110   68.2700 C   0  0  0  0  0  0  0  0  0  0  0  0
  129.8620  124.3540   67.9110 N   0  0  0  0  0  0  0  0  0  0  0  0
  129.3060  126.0220   69.6050 C   0  0  0  0  0  0  0  0  0  0  0  0
  129.5350  125.2490   70.8270 C   0  0  0  0  0  0  0  0  0  0  0  0
  129.4670  125.7850   71.9360 O   0  0  0  0  0  0  0  0  0  0  0  0
  129.8030  123.9330   70.6420 N   0  0  0  0  0  0  0  0  0  0  0  0
  130.0450  122.9840   71.6270 C   0  0  0  0  0  0  0  0  0  0  0  0
  129.3110  121.9390   71.9400 N   0  0  0  0  0  0  0  0  0  0  0  0
  129.8470  121.2480   72.9260 C   0  0  0  0  0  0  0  0  0  0  0  0
  131.0470  121.7320   73.4360 C   0  0  0  0  0  0  0  0  0  0  0  0
  131.4870  123.1750   72.5720 S   0  0  0  0  0  0  0  0  0  0  0  0
  128.7440  127.6900   69.7030 S   0  0  0  0  0  0  0  0  0  0  0  0
  128.7190  127.8320   67.9610 C   0  0  0  0  0  0  0  0  0  0  0  0
  128.3480  128.9630   67.3630 N   0  0  0  0  0  0  0  0  0  0  0  0
  1  2  1  0
  2  3  2  0
  3  4  1  0
  4  5  1  0
  5  6  1  0
  5  7  1  0
  5  8  1  0
  4  9  2  0
  9 10  1  0
 10 11  1  0
 10 12  2  0
 12 13  1  0
 13 14  2  0
 13 15  1  0
 15 16  1  0
 16 17  2  0
 17 18  1  0
 18 19  2  0
 19 20  1  0
 12 21  1  0
 21 22  1  0
 22 23  2  0
 23  2  1  0
 22  9  1  0
 20 16  1  0
M  END
>  <Binding energies>  (53) 
[-6.48]

>  <Ligand effiencies>  (53) 
[-0.24923076923076926]

>  <Interactions>  (53) 
["H-A:HIS:456:NE2:4070, V-B:GLU:543:CA:9876, V-A:GLU:543:CD:4908, V-A:HIS:456:CD2:4068, V-B:GLU:543:CD:9880, V-B:GLU:543:CB:9878, H-B:HIS:456:NE2:9041, H-A:TYR:484:OH:4348, V-A:TYR:484:CZ:4347, V-B:GLU:543:C:9874, V-A:TYR:484:CE1:4345, V-B:HIS:456:CE1:9040, V-A:HIS:456:CE1:4069, V-B:GLU:543:CG:9879, V-A:GLU:543:CB:4906, H-B:LYS:547:NZ:9923, V-A:GLU:543:CG:4907, H-B:GLU:543:O:9875, V-A:TYR:484:CG:4342, V-A:TYR:484:CE2:4346, V-A:HIS:456:CG:4066, V-A:TYR:484:CD1:4343, V-A:TYR:484:CD2:4344, V-A:HIS:456:CB:4065, V-A:ASP:473:CG:4240, V-B:LYS:547:CE:9922, V-A:ASP:473:CB:4239, H-A:HIS:456:ND1:4067, V-A:TYR:484:CB:4341"]

$$$$
4bk_Grossjean_2025
     RDKit          3D

 28 29  0  0  0  0  0  0  0  0999 V2000
  126.2680  118.6020   71.5450 C   0  0  0  0  0  0  0  0  0  0  0  0
  127.2480  119.0410   70.6160 O   0  0  0  0  0  0  0  0  0  0  0  0
  127.5400  120.4290   70.7140 C   0  0  0  0  0  0  0  0  0  0  0  0
  128.2520  120.7090   72.0440 C   0  0  0  0  0  0  0  0  0  0  0  0
  128.8570  121.9930   71.9940 O   0  0  0  0  0  0  0  0  0  0  0  0
  130.2250  121.9990   72.3800 C   0  0  0  0  0  0  0  0  0  0  0  0
  130.9170  123.2330   71.7860 C   0  0  0  0  0  0  0  0  0  0  0  0
  129.9550  124.0340   71.1150 O   0  0  0  0  0  0  0  0  0  0  0  0
  129.2370  124.9120   71.9750 C   0  0  0  0  0  0  0  0  0  0  0  0
  129.0660  126.2760   71.2840 C   0  0  0  0  0  0  0  0  0  0  0  0
  129.0460  126.1950   69.8230 N   0  0  0  0  0  0  0  0  0  0  0  0
  129.2450  127.2320   68.9830 C   0  0  0  0  0  0  0  0  0  0  0  0
  129.4880  128.3710   69.3850 O   0  0  0  0  0  0  0  0  0  0  0  0
  129.1660  126.9270   67.5530 C   0  0  0  0  0  0  0  0  0  0  0  0
  128.6800  128.1760   66.4090 S   0  0  0  0  0  0  0  0  0  0  0  0
  128.8660  127.0760   65.0640 C   0  0  0  0  0  0  0  0  0  0  0  0
  128.6210  127.4610   63.8120 N   0  0  0  0  0  0  0  0  0  0  0  0
  128.8020  126.5220   62.8540 C   0  0  0  0  0  0  0  0  0  0  0  0
  128.5190  126.9840   61.4360 C   0  0  0  0  0  0  0  0  0  0  0  0
  129.2170  125.2190   63.1170 C   0  0  0  0  0  0  0  0  0  0  0  0
  129.4750  124.8060   64.4340 C   0  0  0  0  0  0  0  0  0  0  0  0
  129.9250  123.3620   64.6730 C   0  0  0  0  0  0  0  0  0  0  0  0
  129.2320  122.7510   65.6370 F   0  0  0  0  0  0  0  0  0  0  0  0
  129.7700  122.6500   63.5570 F   0  0  0  0  0  0  0  0  0  0  0  0
  131.2080  123.3430   65.0320 F   0  0  0  0  0  0  0  0  0  0  0  0
  129.2950  125.7730   65.4670 C   0  0  0  0  0  0  0  0  0  0  0  0
  129.4620  125.7230   66.8990 C   0  0  0  0  0  0  0  0  0  0  0  0
  129.8720  124.5920   67.5580 N   0  0  0  0  0  0  0  0  0  0  0  0
  1  2  1  0
  2  3  1  0
  3  4  1  0
  4  5  1  0
  5  6  1  0
  6  7  1  0
  7  8  1  0
  8  9  1  0
  9 10  1  0
 10 11  1  0
 11 12  1  0
 12 13  2  0
 12 14  1  0
 14 15  1  0
 15 16  1  0
 16 17  2  0
 17 18  1  0
 18 19  1  0
 18 20  2  0
 20 21  1  0
 21 22  1  0
 22 23  1  0
 22 24  1  0
 22 25  1  0
 21 26  2  0
 26 27  1  0
 27 28  1  0
 27 14  2  0
 26 16  1  0
M  END
>  <Binding energies>  (54) 
[-5.96]

>  <Ligand effiencies>  (54) 
[-0.19225806451612903]

>  <Interactions>  (54) 
["H-A:HIS:456:NE2:4070, V-B:GLU:543:CA:9876, V-A:GLU:543:CD:4908, V-A:HIS:456:CD2:4068, V-B:GLU:543:CD:9880, V-B:GLU:543:CB:9878, H-B:HIS:456:NE2:9041, H-A:TYR:484:OH:4348, V-A:TYR:484:CZ:4347, V-B:GLU:543:C:9874, V-A:TYR:484:CE1:4345, V-B:HIS:456:CE1:9040, V-A:HIS:456:CE1:4069, V-B:GLU:543:CG:9879, V-A:GLU:543:CB:4906, V-B:ALA:541:CB:9864, H-B:LYS:547:NZ:9923, H-B:GLU:543:O:9875, V-A:TYR:484:CG:4342, V-A:TYR:484:CE2:4346, V-A:HIS:456:CG:4066, V-A:TYR:484:CD1:4343, V-A:TYR:484:CD2:4344, V-B:GLY:544:CA:9886, V-A:HIS:456:CB:4065, V-B:LYS:547:CE:9922, H-A:HIS:456:ND1:4067, V-A:TYR:484:CB:4341, V-B:VAL:542:CG1:9871, H-A:SER:483:OG:4334, H-A:TYR:484:N:4340"]

$$$$
4cd_Grossjean_2025
     RDKit          3D

 29 32  0  0  0  0  0  0  0  0999 V2000
  129.7510  124.2500   66.9620 N   0  0  0  0  0  0  0  0  0  0  0  0
  129.5010  124.9320   65.7990 C   0  0  0  0  0  0  0  0  0  0  0  0
  129.7920  124.4150   64.5260 C   0  0  0  0  0  0  0  0  0  0  0  0
  130.4030  123.1280   64.1810 C   0  0  0  0  0  0  0  0  0  0  0  0
  130.8540  122.3910   65.0580 O   0  0  0  0  0  0  0  0  0  0  0  0
  130.4190  122.8290   62.8590 N   0  0  0  0  0  0  0  0  0  0  0  0
  130.9700  121.7150   62.1980 C   0  0  0  0  0  0  0  0  0  0  0  0
  132.3250  121.8060   61.8700 C   0  0  0  0  0  0  0  0  0  0  0  0
  132.9640  120.7500   61.2270 C   0  0  0  0  0  0  0  0  0  0  0  0
  132.2490  119.5960   60.9180 C   0  0  0  0  0  0  0  0  0  0  0  0
  130.9010  119.4860   61.2510 C   0  0  0  0  0  0  0  0  0  0  0  0
  130.2580  120.5410   61.8950 C   0  0  0  0  0  0  0  0  0  0  0  0
  129.3320  125.5500   63.2580 S   0  0  0  0  0  0  0  0  0  0  0  0
  128.7650  126.7070   64.4380 C   0  0  0  0  0  0  0  0  0  0  0  0
  128.2560  127.8810   64.0700 N   0  0  0  0  0  0  0  0  0  0  0  0
  127.8540  128.7210   65.0600 C   0  0  0  0  0  0  0  0  0  0  0  0
  127.2880  130.0380   64.6150 C   0  0  0  0  0  0  0  0  0  0  0  0
  125.9410  130.1490   64.2340 C   0  0  0  0  0  0  0  0  0  0  0  0
  125.4080  131.3680   63.8210 C   0  0  0  0  0  0  0  0  0  0  0  0
  126.2190  132.4970   63.7830 C   0  0  0  0  0  0  0  0  0  0  0  0
  127.5560  132.4160   64.1590 C   0  0  0  0  0  0  0  0  0  0  0  0
  128.0830  131.1970   64.5730 C   0  0  0  0  0  0  0  0  0  0  0  0
  127.9470  128.3710   66.4100 C   0  0  0  0  0  0  0  0  0  0  0  0
  128.4780  127.1330   66.8080 C   0  0  0  0  0  0  0  0  0  0  0  0
  128.5530  126.8150   68.3060 C   0  0  0  0  0  0  0  0  0  0  0  0
  129.6210  126.0820   68.6330 F   0  0  0  0  0  0  0  0  0  0  0  0
  128.6170  127.9480   69.0060 F   0  0  0  0  0  0  0  0  0  0  0  0
  127.4720  126.1290   68.6760 F   0  0  0  0  0  0  0  0  0  0  0  0
  128.9140  126.2500   65.7800 C   0  0  0  0  0  0  0  0  0  0  0  0
  1  2  1  0
  2  3  2  0
  3  4  1  0
  4  5  2  0
  4  6  1  0
  6  7  1  0
  7  8  2  0
  8  9  1  0
  9 10  2  0
 10 11  1  0
 11 12  2  0
  3 13  1  0
 13 14  1  0
 14 15  2  0
 15 16  1  0
 16 17  1  0
 17 18  2  0
 18 19  1  0
 19 20  2  0
 20 21  1  0
 21 22  2  0
 16 23  2  0
 23 24  1  0
 24 25  1  0
 25 26  1  0
 25 27  1  0
 25 28  1  0
 24 29  2  0
 29  2  1  0
 12  7  1  0
 29 14  1  0
 22 17  1  0
M  END
>  <Binding energies>  (55) 
[-7.06]

>  <Ligand effiencies>  (55) 
[-0.220625]

>  <Interactions>  (55) 
["V-B:GLU:543:CA:9876, V-A:GLU:543:CD:4908, V-A:HIS:456:CD2:4068, V-B:GLU:543:CD:9880, V-B:TYR:539:CD2:9846, V-A:LEU:475:CD1:4258, V-B:GLU:543:CB:9878, H-A:TYR:484:OH:4348, V-A:TYR:484:CZ:4347, V-B:GLU:543:C:9874, V-A:TYR:484:CE1:4345, V-B:HIS:456:CE1:9040, V-A:HIS:456:CE1:4069, V-B:GLU:543:CG:9879, V-A:ALA:541:CB:4892, V-A:GLU:543:CB:4906, V-B:GLY:544:C:9884, V-B:ALA:541:CB:9864, V-B:LEU:475:CD1:9229, V-A:ILE:369:CD1:3239, V-A:TRP:381:CZ2:3370, V-A:PRO:482:CG:4327, V-A:PRO:482:CB:4326, V-A:TRP:381:CH2:3372, H-B:GLU:543:O:9875"]

$$$$
4cg_Grossjean_2025
     RDKit          3D

 30 33  0  0  0  0  0  0  0  0999 V2000
  125.5500  125.9590   58.8610 N   0  0  0  0  0  0  0  0  0  0  0  0
  126.5130  125.6960   59.8020 C   0  0  0  0  0  0  0  0  0  0  0  0
  126.8390  126.5870   60.8350 C   0  0  0  0  0  0  0  0  0  0  0  0
  126.2360  127.8810   61.1480 C   0  0  0  0  0  0  0  0  0  0  0  0
  125.7470  128.5920   60.2680 O   0  0  0  0  0  0  0  0  0  0  0  0
  126.2840  128.2590   62.4430 N   0  0  0  0  0  0  0  0  0  0  0  0
  125.7270  129.4960   62.9860 C   0  0  0  0  0  0  0  0  0  0  0  0
  125.3530  129.3970   64.4610 C   0  0  0  0  0  0  0  0  0  0  0  0
  124.1190  129.8840   64.8990 C   0  0  0  0  0  0  0  0  0  0  0  0
  123.7600  129.7670   66.2400 C   0  0  0  0  0  0  0  0  0  0  0  0
  124.6340  129.1540   67.1360 C   0  0  0  0  0  0  0  0  0  0  0  0
  125.8590  128.6520   66.7020 C   0  0  0  0  0  0  0  0  0  0  0  0
  126.2170  128.7670   65.3620 C   0  0  0  0  0  0  0  0  0  0  0  0
  128.1000  125.9290   61.8750 S   0  0  0  0  0  0  0  0  0  0  0  0
  128.1970  124.4760   60.9080 C   0  0  0  0  0  0  0  0  0  0  0  0
  129.0480  123.4990   61.2070 N   0  0  0  0  0  0  0  0  0  0  0  0
  129.0500  122.4060   60.4010 C   0  0  0  0  0  0  0  0  0  0  0  0
  130.0240  121.3210   60.7640 C   0  0  0  0  0  0  0  0  0  0  0  0
  131.4080  121.5570   60.7430 C   0  0  0  0  0  0  0  0  0  0  0  0
  132.3140  120.5560   61.0780 C   0  0  0  0  0  0  0  0  0  0  0  0
  131.8470  119.2950   61.4390 C   0  0  0  0  0  0  0  0  0  0  0  0
  130.4820  119.0320   61.4660 C   0  0  0  0  0  0  0  0  0  0  0  0
  129.5800  120.0370   61.1300 C   0  0  0  0  0  0  0  0  0  0  0  0
  128.2090  122.3090   59.2860 C   0  0  0  0  0  0  0  0  0  0  0  0
  127.3070  123.3350   58.9610 C   0  0  0  0  0  0  0  0  0  0  0  0
  126.4150  123.1640   57.7260 C   0  0  0  0  0  0  0  0  0  0  0  0
  126.6680  122.0430   57.0480 F   0  0  0  0  0  0  0  0  0  0  0  0
  125.1350  123.1270   58.0970 F   0  0  0  0  0  0  0  0  0  0  0  0
  126.6020  124.1850   56.8910 F   0  0  0  0  0  0  0  0  0  0  0  0
  127.2870  124.4790   59.8090 C   0  0  0  0  0  0  0  0  0  0  0  0
  1  2  1  0
  2  3  2  0
  3  4  1  0
  4  5  2  0
  4  6  1  0
  6  7  1  0
  7  8  1  0
  8  9  2  0
  9 10  1  0
 10 11  2  0
 11 12  1  0
 12 13  2  0
  3 14  1  0
 14 15  1  0
 15 16  2  0
 16 17  1  0
 17 18  1  0
 18 19  2  0
 19 20  1  0
 20 21  2  0
 21 22  1  0
 22 23  2  0
 17 24  2  0
 24 25  1  0
 25 26  1  0
 26 27  1  0
 26 28  1  0
 26 29  1  0
 25 30  2  0
 30  2  1  0
 13  8  1  0
 30 15  1  0
 23 18  1  0
M  END
>  <Binding energies>  (56) 
[-7.29]

>  <Ligand effiencies>  (56) 
[-0.22090909090909092]

>  <Interactions>  (56) 
["V-B:GLU:543:CD:9880, V-B:TYR:539:CD2:9846, V-A:LEU:475:CD1:4258, V-B:HIS:456:CE1:9040, V-B:TYR:539:CE2:9848, V-B:ARG:545:CD:9895, V-B:ARG:545:CZ:9898, V-B:ARG:545:CG:9894, V-B:PRO:540:CA:9855, V-B:ALA:541:CB:9864, V-B:TYR:539:C:9839, V-B:PRO:540:CB:9857, V-B:PRO:540:N:9856, V-B:GLY:454:CA:9020, V-A:TRP:381:CZ2:3370, V-B:ALA:541:CA:9862, V-A:PRO:482:CG:4327, V-A:PRO:482:CB:4326, H-B:GLU:543:OE2:9882, V-A:TRP:381:CH2:3372, V-B:ASP:366:CG:8184, V-B:TYR:539:CG:9844, V-B:LEU:363:CD1:8160, H-B:GLU:543:OE1:9881, V-B:PRO:540:CD:9859, H-B:ASP:366:OD1:8185, V-B:TYR:539:CA:9841, V-B:PRO:540:CG:9858"]

$$$$
4ch_Grossjean_2025
     RDKit          3D

 36 39  0  0  0  0  0  0  0  0999 V2000
  129.9320  130.1240   72.3750 C   0  0  0  0  0  0  0  0  0  0  0  0
  129.4860  128.9840   73.1020 O   0  0  0  0  0  0  0  0  0  0  0  0
  129.3010  127.7860   72.4380 C   0  0  0  0  0  0  0  0  0  0  0  0
  128.4830  127.6350   71.3050 C   0  0  0  0  0  0  0  0  0  0  0  0
  128.3440  126.3930   70.6830 C   0  0  0  0  0  0  0  0  0  0  0  0
  127.4310  126.2430   69.4720 C   0  0  0  0  0  0  0  0  0  0  0  0
  128.1180  125.8240   68.2500 N   0  0  0  0  0  0  0  0  0  0  0  0
  128.3420  126.6010   67.1700 C   0  0  0  0  0  0  0  0  0  0  0  0
  128.0000  127.7840   67.1230 O   0  0  0  0  0  0  0  0  0  0  0  0
  129.0530  125.9660   66.0600 C   0  0  0  0  0  0  0  0  0  0  0  0
  129.5400  124.2780   66.1730 S   0  0  0  0  0  0  0  0  0  0  0  0
  130.2280  124.3230   64.5680 C   0  0  0  0  0  0  0  0  0  0  0  0
  130.8110  123.2540   64.0310 N   0  0  0  0  0  0  0  0  0  0  0  0
  131.3120  123.3830   62.7750 C   0  0  0  0  0  0  0  0  0  0  0  0
  131.9690  122.1600   62.2010 C   0  0  0  0  0  0  0  0  0  0  0  0
  133.3620  121.9950   62.2670 C   0  0  0  0  0  0  0  0  0  0  0  0
  133.9780  120.8640   61.7360 C   0  0  0  0  0  0  0  0  0  0  0  0
  133.2070  119.8800   61.1290 C   0  0  0  0  0  0  0  0  0  0  0  0
  131.8250  120.0200   61.0470 C   0  0  0  0  0  0  0  0  0  0  0  0
  131.2140  121.1530   61.5770 C   0  0  0  0  0  0  0  0  0  0  0  0
  131.2400  124.5890   62.0710 C   0  0  0  0  0  0  0  0  0  0  0  0
  130.6280  125.7240   62.6280 C   0  0  0  0  0  0  0  0  0  0  0  0
  130.5830  127.0140   61.8020 C   0  0  0  0  0  0  0  0  0  0  0  0
  131.0530  126.8590   60.5610 F   0  0  0  0  0  0  0  0  0  0  0  0
  129.3260  127.4420   61.7010 F   0  0  0  0  0  0  0  0  0  0  0  0
  131.3210  127.9540   62.3920 F   0  0  0  0  0  0  0  0  0  0  0  0
  130.0880  125.5960   63.9390 C   0  0  0  0  0  0  0  0  0  0  0  0
  129.4000  126.5140   64.8150 C   0  0  0  0  0  0  0  0  0  0  0  0
  129.1210  127.8100   64.4620 N   0  0  0  0  0  0  0  0  0  0  0  0
  129.0130  125.2840   71.2040 C   0  0  0  0  0  0  0  0  0  0  0  0
  129.8350  125.4060   72.3350 C   0  0  0  0  0  0  0  0  0  0  0  0
  130.5270  124.3510   72.9030 O   0  0  0  0  0  0  0  0  0  0  0  0
  131.0200  123.3080   72.0680 C   0  0  0  0  0  0  0  0  0  0  0  0
  129.9750  126.6640   72.9390 C   0  0  0  0  0  0  0  0  0  0  0  0
  130.7650  126.7940   74.0560 O   0  0  0  0  0  0  0  0  0  0  0  0
  130.2520  126.1370   75.2070 C   0  0  0  0  0  0  0  0  0  0  0  0
  1  2  1  0
  2  3  1  0
  3  4  2  0
  4  5  1  0
  5  6  1  0
  6  7  1  0
  7  8  1  0
  8  9  2  0
  8 10  1  0
 10 11  1  0
 11 12  1  0
 12 13  2  0
 13 14  1  0
 14 15  1  0
 15 16  2  0
 16 17  1  0
 17 18  2  0
 18 19  1  0
 19 20  2  0
 14 21  2  0
 21 22  1  0
 22 23  1  0
 23 24  1  0
 23 25  1  0
 23 26  1  0
 22 27  2  0
 27 28  1  0
 28 29  1  0
  5 30  2  0
 30 31  1  0
 31 32  1  0
 32 33  1  0
 31 34  2  0
 34 35  1  0
 35 36  1  0
 34  3  1  0
 28 10  2  0
 27 12  1  0
 20 15  1  0
M  END
>  <Binding energies>  (57) 
[-6.96]

>  <Ligand effiencies>  (57) 
[-0.17846153846153845]

>  <Interactions>  (57) 
["V-B:GLU:543:CA:9876, V-A:GLU:543:CD:4908, V-A:HIS:456:CD2:4068, V-A:ASP:366:CG:3213, V-A:LEU:475:CD1:4258, V-B:GLU:543:CB:9878, H-B:HIS:456:NE2:9041, V-A:TYR:484:CZ:4347, V-B:GLU:543:C:9874, V-A:TYR:484:CE1:4345, V-B:HIS:456:CE1:9040, V-B:GLU:543:CG:9879, V-A:ARG:545:CZ:4926, V-B:GLY:544:C:9884, H-B:LYS:547:NZ:9923, V-A:ILE:369:CD1:3239, V-A:GLY:454:CA:4049, V-A:ILE:369:CG2:3237, V-A:TRP:381:CH2:3372, H-B:GLU:543:O:9875, H-A:GLU:543:OE1:4909, H-A:GLU:543:OE2:4910, H-B:GLU:543:OE1:9881, V-B:HIS:456:CD2:9039, V-A:TYR:484:CG:4342, V-A:TYR:484:CE2:4346, V-A:HIS:456:CG:4066, V-A:TYR:484:CD2:4344, V-A:HIS:456:CB:4065, H-A:LYS:547:NZ:4951, V-A:LYS:547:CE:4950, V-A:GLY:544:CA:4914, V-A:GLU:543:C:4902"]

$$$$
4cj_Grossjean_2025
     RDKit          3D

 28 31  0  0  0  0  0  0  0  0999 V2000
  129.8940  124.3100   67.7980 N   0  0  0  0  0  0  0  0  0  0  0  0
  129.3220  125.5130   68.1250 C   0  0  0  0  0  0  0  0  0  0  0  0
  129.1170  125.9320   69.4500 C   0  0  0  0  0  0  0  0  0  0  0  0
  129.4520  125.2310   70.6920 C   0  0  0  0  0  0  0  0  0  0  0  0
  129.5830  125.8510   71.7500 O   0  0  0  0  0  0  0  0  0  0  0  0
  129.6110  123.8890   70.5790 N   0  0  0  0  0  0  0  0  0  0  0  0
  129.9270  122.9990   71.5960 C   0  0  0  0  0  0  0  0  0  0  0  0
  129.3000  121.8890   71.9210 N   0  0  0  0  0  0  0  0  0  0  0  0
  129.8790  121.2860   72.9400 C   0  0  0  0  0  0  0  0  0  0  0  0
  131.0060  121.9100   73.4660 C   0  0  0  0  0  0  0  0  0  0  0  0
  131.3170  123.3660   72.5680 S   0  0  0  0  0  0  0  0  0  0  0  0
  128.3750  127.5290   69.5040 S   0  0  0  0  0  0  0  0  0  0  0  0
  128.3420  127.6220   67.7590 C   0  0  0  0  0  0  0  0  0  0  0  0
  127.8560  128.6890   67.1300 N   0  0  0  0  0  0  0  0  0  0  0  0
  127.8790  128.6750   65.7730 C   0  0  0  0  0  0  0  0  0  0  0  0
  127.3350  129.9000   65.0940 C   0  0  0  0  0  0  0  0  0  0  0  0
  126.0060  129.9400   64.6420 C   0  0  0  0  0  0  0  0  0  0  0  0
  125.4970  131.0700   64.0070 C   0  0  0  0  0  0  0  0  0  0  0  0
  126.3150  132.1800   63.8130 C   0  0  0  0  0  0  0  0  0  0  0  0
  127.6340  132.1650   64.2490 C   0  0  0  0  0  0  0  0  0  0  0  0
  128.1380  131.0330   64.8840 C   0  0  0  0  0  0  0  0  0  0  0  0
  128.3670  127.5790   65.0540 C   0  0  0  0  0  0  0  0  0  0  0  0
  128.8810  126.4480   65.7070 C   0  0  0  0  0  0  0  0  0  0  0  0
  129.4030  125.2830   64.8580 C   0  0  0  0  0  0  0  0  0  0  0  0
  129.1030  124.0870   65.3670 F   0  0  0  0  0  0  0  0  0  0  0  0
  128.8710  125.3430   63.6370 F   0  0  0  0  0  0  0  0  0  0  0  0
  130.7310  125.3540   64.7620 F   0  0  0  0  0  0  0  0  0  0  0  0
  128.8790  126.4600   67.1310 C   0  0  0  0  0  0  0  0  0  0  0  0
  1  2  1  0
  2  3  2  0
  3  4  1  0
  4  5  2  0
  4  6  1  0
  6  7  1  0
  7  8  2  0
  8  9  1  0
  9 10  2  0
 10 11  1  0
  3 12  1  0
 12 13  1  0
 13 14  2  0
 14 15  1  0
 15 16  1  0
 16 17  2  0
 17 18  1  0
 18 19  2  0
 19 20  1  0
 20 21  2  0
 15 22  2  0
 22 23  1  0
 23 24  1  0
 24 25  1  0
 24 26  1  0
 24 27  1  0
 23 28  2  0
 28  2  1  0
 11  7  1  0
 28 13  1  0
 21 16  1  0
M  END
>  <Binding energies>  (58) 
[-7.71]

>  <Ligand effiencies>  (58) 
[-0.24870967741935485]

>  <Interactions>  (58) 
["H-A:HIS:456:NE2:4070, V-B:GLU:543:CA:9876, V-A:GLU:543:CD:4908, V-A:HIS:456:CD2:4068, V-B:GLU:543:CD:9880, V-B:GLU:543:CB:9878, H-A:TYR:484:OH:4348, V-A:TYR:484:CZ:4347, V-B:GLU:543:C:9874, V-A:TYR:484:CE1:4345, V-B:HIS:456:CE1:9040, V-A:HIS:456:CE1:4069, V-B:GLU:543:CG:9879, V-A:ALA:541:CB:4892, V-A:GLU:543:CB:4906, H-B:LYS:547:NZ:9923, V-B:LEU:475:CD1:9229, H-B:GLU:543:O:9875, V-A:TYR:484:CG:4342, V-A:TYR:484:CE2:4346, V-A:HIS:456:CG:4066, V-A:TYR:484:CD1:4343, V-A:TYR:484:CD2:4344, V-A:HIS:456:CB:4065, V-A:ASP:473:CG:4240, V-B:LYS:547:CE:9922, V-A:ASP:473:CB:4239, H-A:HIS:456:ND1:4067, V-A:TYR:484:CB:4341"]

$$$$
4ck_Grossjean_2025
     RDKit          3D

 33 35  0  0  0  0  0  0  0  0999 V2000
  135.1330  127.2520   73.9820 C   0  0  0  0  0  0  0  0  0  0  0  0
  133.7550  126.9230   74.0590 O   0  0  0  0  0  0  0  0  0  0  0  0
  133.4950  125.7550   74.8250 C   0  0  0  0  0  0  0  0  0  0  0  0
  131.9790  125.5890   74.9860 C   0  0  0  0  0  0  0  0  0  0  0  0
  131.3370  126.8020   74.6180 O   0  0  0  0  0  0  0  0  0  0  0  0
  130.0790  126.6090   73.9850 C   0  0  0  0  0  0  0  0  0  0  0  0
  130.2470  125.6180   72.8260 C   0  0  0  0  0  0  0  0  0  0  0  0
  128.9870  125.0200   72.5500 O   0  0  0  0  0  0  0  0  0  0  0  0
  128.1540  125.8000   71.7030 C   0  0  0  0  0  0  0  0  0  0  0  0
  129.0200  126.7490   70.8600 C   0  0  0  0  0  0  0  0  0  0  0  0
  129.1000  126.3250   69.4620 N   0  0  0  0  0  0  0  0  0  0  0  0
  129.4950  127.0930   68.4250 C   0  0  0  0  0  0  0  0  0  0  0  0
  129.8680  128.2590   68.5650 O   0  0  0  0  0  0  0  0  0  0  0  0
  129.4690  126.4530   67.1090 C   0  0  0  0  0  0  0  0  0  0  0  0
  129.8600  124.7420   66.9510 S   0  0  0  0  0  0  0  0  0  0  0  0
  129.5520  124.7880   65.2310 C   0  0  0  0  0  0  0  0  0  0  0  0
  129.6850  123.7030   64.4730 N   0  0  0  0  0  0  0  0  0  0  0  0
  129.4250  123.8350   63.1450 C   0  0  0  0  0  0  0  0  0  0  0  0
  129.5660  122.5880   62.3210 C   0  0  0  0  0  0  0  0  0  0  0  0
  128.7900  122.3980   61.1660 C   0  0  0  0  0  0  0  0  0  0  0  0
  128.9140  121.2420   60.3980 C   0  0  0  0  0  0  0  0  0  0  0  0
  129.8210  120.2580   60.7750 C   0  0  0  0  0  0  0  0  0  0  0  0
  130.6060  120.4230   61.9110 C   0  0  0  0  0  0  0  0  0  0  0  0
  130.4790  121.5800   62.6750 C   0  0  0  0  0  0  0  0  0  0  0  0
  129.0240  125.0540   62.5890 C   0  0  0  0  0  0  0  0  0  0  0  0
  128.8820  126.2050   63.3800 C   0  0  0  0  0  0  0  0  0  0  0  0
  128.4430  127.5100   62.7040 C   0  0  0  0  0  0  0  0  0  0  0  0
  127.3420  128.0340   63.2430 F   0  0  0  0  0  0  0  0  0  0  0  0
  129.4120  128.4190   62.8090 F   0  0  0  0  0  0  0  0  0  0  0  0
  128.1890  127.2850   61.4150 F   0  0  0  0  0  0  0  0  0  0  0  0
  129.1540  126.0780   64.7720 C   0  0  0  0  0  0  0  0  0  0  0  0
  129.1090  127.0100   65.8730 C   0  0  0  0  0  0  0  0  0  0  0  0
  128.7480  128.3240   65.7190 N   0  0  0  0  0  0  0  0  0  0  0  0
  1  2  1  0
  2  3  1  0
  3  4  1  0
  4  5  1  0
  5  6  1  0
  6  7  1  0
  7  8  1  0
  8  9  1  0
  9 10  1  0
 10 11  1  0
 11 12  1  0
 12 13  2  0
 12 14  1  0
 14 15  1  0
 15 16  1  0
 16 17  2  0
 17 18  1  0
 18 19  1  0
 19 20  2  0
 20 21  1  0
 21 22  2  0
 22 23  1  0
 23 24  2  0
 18 25  2  0
 25 26  1  0
 26 27  1  0
 27 28  1  0
 27 29  1  0
 27 30  1  0
 26 31  2  0
 31 32  1  0
 32 33  1  0
 32 14  2  0
 31 16  1  0
 24 19  1  0
M  END
>  <Binding energies>  (59) 
[-6.07]

>  <Ligand effiencies>  (59) 
[-0.16861111111111113]

>  <Interactions>  (59) 
["H-A:HIS:456:NE2:4070, V-A:GLU:543:CD:4908, V-A:HIS:456:CD2:4068, V-B:GLU:543:CD:9880, V-B:TYR:539:CD2:9846, V-A:LEU:475:CD1:4258, V-B:GLU:543:CB:9878, V-A:TYR:484:CZ:4347, V-A:TYR:484:CE1:4345, V-B:TYR:539:CE2:9848, V-A:HIS:456:CE1:4069, V-B:GLU:543:CG:9879, V-A:GLU:543:CB:4906, V-B:PRO:540:CA:9855, V-B:GLY:544:C:9884, V-B:ALA:541:CB:9864, H-B:LYS:547:NZ:9923, V-B:TYR:539:C:9839, V-A:GLU:543:CG:4907, V-B:PRO:540:C:9853, H-B:GLU:543:O:9875, H-A:GLU:543:OE1:4909, H-A:GLU:543:OE2:4910, H-B:GLU:543:OE1:9881, V-A:HIS:456:CG:4066, V-A:HIS:456:CB:4065, H-A:LYS:547:NZ:4951, V-A:VAL:458:CG2:4087, V-A:LYS:547:CG:4948, V-A:LYS:547:CD:4949, V-A:HIS:456:C:4061, V-A:VAL:457:C:4073, V-A:HIS:456:CA:4063, V-A:LYS:547:CB:4947, V-A:ARG:545:C:4917"]

$$$$
4dd_Grossjean_2025
     RDKit          3D

 26 29  0  0  0  0  0  0  0  0999 V2000
  128.5450  126.7790   68.2700 C   0  0  0  0  0  0  0  0  0  0  0  0
  128.4720  127.1080   66.7860 C   0  0  0  0  0  0  0  0  0  0  0  0
  127.9380  128.3470   66.4100 C   0  0  0  0  0  0  0  0  0  0  0  0
  127.8440  128.7100   65.0610 C   0  0  0  0  0  0  0  0  0  0  0  0
  127.2710  130.0270   64.6290 C   0  0  0  0  0  0  0  0  0  0  0  0
  128.0730  131.1790   64.5800 C   0  0  0  0  0  0  0  0  0  0  0  0
  127.5490  132.4050   64.1760 C   0  0  0  0  0  0  0  0  0  0  0  0
  126.2090  132.4960   63.8170 C   0  0  0  0  0  0  0  0  0  0  0  0
  125.3920  131.3720   63.8540 C   0  0  0  0  0  0  0  0  0  0  0  0
  125.9210  130.1480   64.2560 C   0  0  0  0  0  0  0  0  0  0  0  0
  128.2510  127.8790   64.0630 N   0  0  0  0  0  0  0  0  0  0  0  0
  128.7650  126.7020   64.4200 C   0  0  0  0  0  0  0  0  0  0  0  0
  129.3430  125.5460   63.2410 S   0  0  0  0  0  0  0  0  0  0  0  0
  129.8020  124.4100   64.5120 C   0  0  0  0  0  0  0  0  0  0  0  0
  130.4190  123.1260   64.1710 C   0  0  0  0  0  0  0  0  0  0  0  0
  130.8960  122.4060   65.0490 O   0  0  0  0  0  0  0  0  0  0  0  0
  130.4100  122.8100   62.8530 N   0  0  0  0  0  0  0  0  0  0  0  0
  130.9590  121.6940   62.1950 C   0  0  0  0  0  0  0  0  0  0  0  0
  132.3110  121.7920   61.8510 C   0  0  0  0  0  0  0  0  0  0  0  0
  132.9500  120.7340   61.2100 C   0  0  0  0  0  0  0  0  0  0  0  0
  132.2390  119.5730   60.9180 C   0  0  0  0  0  0  0  0  0  0  0  0
  130.8960  119.4580   61.2660 C   0  0  0  0  0  0  0  0  0  0  0  0
  130.2540  120.5140   61.9070 C   0  0  0  0  0  0  0  0  0  0  0  0
  129.5040  124.9260   65.7820 C   0  0  0  0  0  0  0  0  0  0  0  0
  129.7480  124.2550   66.9550 N   0  0  0  0  0  0  0  0  0  0  0  0
  128.9120  126.2370   65.7570 C   0  0  0  0  0  0  0  0  0  0  0  0
  1  2  1  0
  2  3  2  0
  3  4  1  0
  4  5  1  0
  5  6  2  0
  6  7  1  0
  7  8  2  0
  8  9  1  0
  9 10  2  0
  4 11  2  0
 11 12  1  0
 12 13  1  0
 13 14  1  0
 14 15  1  0
 15 16  2  0
 15 17  1  0
 17 18  1  0
 18 19  2  0
 19 20  1  0
 20 21  2  0
 21 22  1  0
 22 23  2  0
 14 24  2  0
 24 25  1  0
 24 26  1  0
 26  2  1  0
 10  5  1  0
 26 12  2  0
 23 18  1  0
M  END
>  <Binding energies>  (60) 
[-7.22]

>  <Ligand effiencies>  (60) 
[-0.2489655172413793]

>  <Interactions>  (60) 
["V-B:GLU:543:CA:9876, V-A:GLU:543:CD:4908, V-B:GLU:543:CD:9880, V-A:LEU:475:CD1:4258, V-B:GLU:543:CB:9878, H-A:TYR:484:OH:4348, V-A:TYR:484:CZ:4347, V-B:GLU:543:C:9874, V-A:TYR:484:CE1:4345, V-B:HIS:456:CE1:9040, V-A:HIS:456:CE1:4069, V-B:GLU:543:CG:9879, V-A:ALA:541:CB:4892, V-A:GLU:543:CB:4906, V-B:ALA:541:CB:9864, V-B:LEU:475:CD1:9229, V-A:ILE:369:CD1:3239, V-A:TRP:381:CZ2:3370, V-A:PRO:482:CG:4327, V-A:PRO:482:CB:4326, V-A:TRP:381:CH2:3372, H-B:GLU:543:O:9875, V-B:LEU:475:CG:9228"]

$$$$
4dg_Grossjean_2025
     RDKit          3D

 27 30  0  0  0  0  0  0  0  0999 V2000
  127.9370  126.5620   68.4220 C   0  0  0  0  0  0  0  0  0  0  0  0
  128.0210  127.0070   66.9700 C   0  0  0  0  0  0  0  0  0  0  0  0
  127.2980  128.1420   66.5840 C   0  0  0  0  0  0  0  0  0  0  0  0
  127.3340  128.6030   65.2620 C   0  0  0  0  0  0  0  0  0  0  0  0
  126.5700  129.8190   64.8190 C   0  0  0  0  0  0  0  0  0  0  0  0
  127.2420  130.9730   64.3860 C   0  0  0  0  0  0  0  0  0  0  0  0
  126.5390  132.1050   63.9780 C   0  0  0  0  0  0  0  0  0  0  0  0
  125.1490  132.0970   63.9950 C   0  0  0  0  0  0  0  0  0  0  0  0
  124.4570  130.9670   64.4230 C   0  0  0  0  0  0  0  0  0  0  0  0
  125.1640  129.8400   64.8310 C   0  0  0  0  0  0  0  0  0  0  0  0
  128.0800  127.9850   64.3070 N   0  0  0  0  0  0  0  0  0  0  0  0
  128.7680  126.9040   64.6720 C   0  0  0  0  0  0  0  0  0  0  0  0
  129.7610  126.0130   63.5430 S   0  0  0  0  0  0  0  0  0  0  0  0
  130.2380  124.8690   64.7970 C   0  0  0  0  0  0  0  0  0  0  0  0
  131.1110  123.7430   64.4710 C   0  0  0  0  0  0  0  0  0  0  0  0
  131.2590  122.7980   65.2500 O   0  0  0  0  0  0  0  0  0  0  0  0
  131.7650  123.8260   63.2940 N   0  0  0  0  0  0  0  0  0  0  0  0
  132.6690  122.8110   62.7540 C   0  0  0  0  0  0  0  0  0  0  0  0
  131.9460  121.6690   62.0490 C   0  0  0  0  0  0  0  0  0  0  0  0
  130.5580  121.5460   62.1700 C   0  0  0  0  0  0  0  0  0  0  0  0
  129.8900  120.5240   61.5020 C   0  0  0  0  0  0  0  0  0  0  0  0
  130.6090  119.6340   60.7060 C   0  0  0  0  0  0  0  0  0  0  0  0
  131.9900  119.7610   60.5680 C   0  0  0  0  0  0  0  0  0  0  0  0
  132.6580  120.7840   61.2350 C   0  0  0  0  0  0  0  0  0  0  0  0
  129.6300  125.1750   66.0240 C   0  0  0  0  0  0  0  0  0  0  0  0
  129.8120  124.4430   67.1700 N   0  0  0  0  0  0  0  0  0  0  0  0
  128.7930  126.3440   65.9810 C   0  0  0  0  0  0  0  0  0  0  0  0
  1  2  1  0
  2  3  2  0
  3  4  1  0
  4  5  1  0
  5  6  2  0
  6  7  1  0
  7  8  2  0
  8  9  1  0
  9 10  2  0
  4 11  2  0
 11 12  1  0
 12 13  1  0
 13 14  1  0
 14 15  1  0
 15 16  2  0
 15 17  1  0
 17 18  1  0
 18 19  1  0
 19 20  2  0
 20 21  1  0
 21 22  2  0
 22 23  1  0
 23 24  2  0
 14 25  2  0
 25 26  1  0
 25 27  1  0
 27  2  1  0
 10  5  1  0
 27 12  2  0
 24 19  1  0
M  END
>  <Binding energies>  (61) 
[-7.41]

>  <Ligand effiencies>  (61) 
[-0.247]

>  <Interactions>  (61) 
["V-B:GLU:543:CA:9876, V-A:GLU:543:CD:4908, V-B:GLU:543:CD:9880, V-B:TYR:539:CD2:9846, V-A:LEU:475:CD1:4258, V-B:GLU:543:CB:9878, H-A:TYR:484:OH:4348, V-A:TYR:484:CZ:4347, V-B:GLU:543:C:9874, V-A:TYR:484:CE1:4345, V-B:HIS:456:CE1:9040, V-B:TYR:539:CE2:9848, V-A:HIS:456:CE1:4069, V-B:GLU:543:CG:9879, V-B:ARG:545:CZ:9898, V-B:ALA:541:CB:9864, V-B:LEU:475:CD1:9229, V-B:GLY:454:CA:9020, V-A:TRP:381:CZ2:3370, V-A:PRO:482:CG:4327, V-A:TRP:381:CH2:3372, H-B:GLU:543:O:9875"]

$$$$
4dj_Grossjean_2025
     RDKit          3D

 25 28  0  0  0  0  0  0  0  0999 V2000
  129.4030  125.2990   64.9060 C   0  0  0  0  0  0  0  0  0  0  0  0
  128.8960  126.4640   65.7430 C   0  0  0  0  0  0  0  0  0  0  0  0
  128.3910  127.5850   65.0740 C   0  0  0  0  0  0  0  0  0  0  0  0
  127.9110  128.6910   65.7860 C   0  0  0  0  0  0  0  0  0  0  0  0
  127.3570  129.9050   65.0960 C   0  0  0  0  0  0  0  0  0  0  0  0
  126.0300  129.9320   64.6380 C   0  0  0  0  0  0  0  0  0  0  0  0
  125.5100  131.0540   63.9980 C   0  0  0  0  0  0  0  0  0  0  0  0
  126.3170  132.1700   63.8010 C   0  0  0  0  0  0  0  0  0  0  0  0
  127.6360  132.1700   64.2400 C   0  0  0  0  0  0  0  0  0  0  0  0
  128.1510  131.0470   64.8810 C   0  0  0  0  0  0  0  0  0  0  0  0
  127.8980  128.7200   67.1470 N   0  0  0  0  0  0  0  0  0  0  0  0
  128.3800  127.6540   67.7840 C   0  0  0  0  0  0  0  0  0  0  0  0
  128.4310  127.5610   69.5300 S   0  0  0  0  0  0  0  0  0  0  0  0
  129.1500  125.9500   69.4710 C   0  0  0  0  0  0  0  0  0  0  0  0
  129.4830  125.2420   70.7070 C   0  0  0  0  0  0  0  0  0  0  0  0
  129.6220  125.8580   71.7680 O   0  0  0  0  0  0  0  0  0  0  0  0
  129.6300  123.9000   70.5900 N   0  0  0  0  0  0  0  0  0  0  0  0
  129.9460  123.0030   71.6010 C   0  0  0  0  0  0  0  0  0  0  0  0
  129.3090  121.8990   71.9300 N   0  0  0  0  0  0  0  0  0  0  0  0
  129.8900  121.2890   72.9440 C   0  0  0  0  0  0  0  0  0  0  0  0
  131.0280  121.9000   73.4620 C   0  0  0  0  0  0  0  0  0  0  0  0
  131.3450  123.3540   72.5640 S   0  0  0  0  0  0  0  0  0  0  0  0
  129.3350  125.5280   68.1450 C   0  0  0  0  0  0  0  0  0  0  0  0
  129.8790  124.3170   67.7990 N   0  0  0  0  0  0  0  0  0  0  0  0
  128.9000  126.4830   67.1620 C   0  0  0  0  0  0  0  0  0  0  0  0
  1  2  1  0
  2  3  2  0
  3  4  1  0
  4  5  1  0
  5  6  2  0
  6  7  1  0
  7  8  2  0
  8  9  1  0
  9 10  2  0
  4 11  2  0
 11 12  1  0
 12 13  1  0
 13 14  1  0
 14 15  1  0
 15 16  2  0
 15 17  1  0
 17 18  1  0
 18 19  2  0
 19 20  1  0
 20 21  2  0
 21 22  1  0
 14 23  2  0
 23 24  1  0
 23 25  1  0
 25  2  1  0
 10  5  1  0
 25 12  2  0
 22 18  1  0
M  END
>  <Binding energies>  (62) 
[-8.03]

>  <Ligand effiencies>  (62) 
[-0.28678571428571425]

>  <Interactions>  (62) 
["H-A:HIS:456:NE2:4070, V-B:GLU:543:CA:9876, V-A:GLU:543:CD:4908, V-A:HIS:456:CD2:4068, V-B:GLU:543:CD:9880, V-B:GLU:543:CB:9878, H-A:TYR:484:OH:4348, V-A:TYR:484:CZ:4347, V-B:GLU:543:C:9874, V-A:TYR:484:CE1:4345, V-B:HIS:456:CE1:9040, V-A:HIS:456:CE1:4069, V-B:GLU:543:CG:9879, V-A:ALA:541:CB:4892, V-A:GLU:543:CB:4906, H-B:LYS:547:NZ:9923, V-B:LEU:475:CD1:9229, H-B:GLU:543:O:9875, V-A:TYR:484:CG:4342, V-A:TYR:484:CE2:4346, V-A:HIS:456:CG:4066, V-A:TYR:484:CD1:4343, V-A:TYR:484:CD2:4344, V-A:HIS:456:CB:4065, V-A:ASP:473:CG:4240, V-B:LYS:547:CE:9922, V-A:ASP:473:CB:4239, H-A:HIS:456:ND1:4067, V-A:TYR:484:CB:4341"]

$$$$
4ea_Grossjean_2025
     RDKit          3D

 31 34  0  0  0  0  0  0  0  0999 V2000
  124.5200  127.1690   73.8950 C   0  0  0  0  0  0  0  0  0  0  0  0
  125.9890  127.5990   73.9310 C   0  0  0  0  0  0  0  0  0  0  0  0
  126.6270  127.1990   72.7260 O   0  0  0  0  0  0  0  0  0  0  0  0
  127.6790  126.3400   72.7400 C   0  0  0  0  0  0  0  0  0  0  0  0
  128.1020  125.8010   73.7670 O   0  0  0  0  0  0  0  0  0  0  0  0
  128.2760  126.1120   71.3810 C   0  0  0  0  0  0  0  0  0  0  0  0
  129.2840  125.1510   71.2310 C   0  0  0  0  0  0  0  0  0  0  0  0
  129.8580  124.9150   69.9850 C   0  0  0  0  0  0  0  0  0  0  0  0
  129.4380  125.6330   68.8650 C   0  0  0  0  0  0  0  0  0  0  0  0
  130.0890  125.3110   67.6580 N   0  0  0  0  0  0  0  0  0  0  0  0
  129.7610  125.6080   66.3770 C   0  0  0  0  0  0  0  0  0  0  0  0
  128.7660  126.2550   66.0470 O   0  0  0  0  0  0  0  0  0  0  0  0
  130.6870  125.0990   65.3610 C   0  0  0  0  0  0  0  0  0  0  0  0
  132.4240  125.3750   65.5180 S   0  0  0  0  0  0  0  0  0  0  0  0
  132.7440  124.5180   64.0280 C   0  0  0  0  0  0  0  0  0  0  0  0
  133.9810  124.3660   63.5540 N   0  0  0  0  0  0  0  0  0  0  0  0
  134.0930  123.6810   62.3890 C   0  0  0  0  0  0  0  0  0  0  0  0
  135.5090  123.5190   61.8680 C   0  0  0  0  0  0  0  0  0  0  0  0
  133.0080  123.1510   61.6940 C   0  0  0  0  0  0  0  0  0  0  0  0
  131.7120  123.3130   62.1950 C   0  0  0  0  0  0  0  0  0  0  0  0
  130.5700  122.7440   61.4450 C   0  0  0  0  0  0  0  0  0  0  0  0
  130.3150  121.3700   61.4880 C   0  0  0  0  0  0  0  0  0  0  0  0
  129.2390  120.8340   60.7860 C   0  0  0  0  0  0  0  0  0  0  0  0
  128.4190  121.6740   60.0350 C   0  0  0  0  0  0  0  0  0  0  0  0
  128.6660  123.0430   59.9810 C   0  0  0  0  0  0  0  0  0  0  0  0
  129.7430  123.5770   60.6850 C   0  0  0  0  0  0  0  0  0  0  0  0
  131.5520  124.0260   63.4150 C   0  0  0  0  0  0  0  0  0  0  0  0
  130.3930  124.3710   64.1970 C   0  0  0  0  0  0  0  0  0  0  0  0
  129.1240  124.0130   63.8220 N   0  0  0  0  0  0  0  0  0  0  0  0
  128.4290  126.5980   69.0060 C   0  0  0  0  0  0  0  0  0  0  0  0
  127.8560  126.8330   70.2530 C   0  0  0  0  0  0  0  0  0  0  0  0
  1  2  1  0
  2  3  1  0
  3  4  1  0
  4  5  2  0
  4  6  1  0
  6  7  2  0
  7  8  1  0
  8  9  2  0
  9 10  1  0
 10 11  1  0
 11 12  2  0
 11 13  1  0
 13 14  1  0
 14 15  1  0
 15 16  2  0
 16 17  1  0
 17 18  1  0
 17 19  2  0
 19 20  1  0
 20 21  1  0
 21 22  2  0
 22 23  1  0
 23 24  2  0
 24 25  1  0
 25 26  2  0
 20 27  2  0
 27 28  1  0
 28 29  1  0
  9 30  1  0
 30 31  2  0
 31  6  1  0
 28 13  2  0
 27 15  1  0
 26 21  1  0
M  END
>  <Binding energies>  (63) 
[-8.43]

>  <Ligand effiencies>  (63) 
[-0.24794117647058822]

>  <Interactions>  (63) 
["V-A:HIS:456:CD2:4068, V-B:GLU:543:CD:9880, V-B:TYR:539:CD2:9846, V-B:GLU:543:CB:9878, H-A:TYR:484:OH:4348, V-A:TYR:484:CZ:4347, V-A:TYR:484:CE1:4345, V-B:HIS:456:CE1:9040, V-B:TYR:539:CE2:9848, V-A:HIS:456:CE1:4069, V-B:GLU:543:CG:9879, V-B:PRO:540:CA:9855, V-B:GLY:544:C:9884, V-B:ALA:541:CB:9864, H-B:LYS:547:NZ:9923, V-B:TYR:539:C:9839, V-B:PRO:540:C:9853, V-B:PRO:540:N:9856, V-A:ILE:369:CD1:3239, V-A:GLY:453:CA:4044, V-A:GLY:454:CA:4049, V-A:GLY:453:C:4042, H-A:GLY:454:N:4050, V-B:ALA:541:CA:9862, H-B:GLU:543:OE2:9882, H-B:GLU:543:OE1:9881, V-B:HIS:456:CG:9037, V-A:HIS:456:CG:4066, H-A:HIS:456:ND1:4067, V-B:HIS:456:CB:9036, V-B:ARG:545:C:9889, V-B:HIS:456:CA:9034"]

$$$$
4eb_Grossjean_2025
     RDKit          3D

 30 33  0  0  0  0  0  0  0  0999 V2000
  125.6670  127.2420   73.6030 C   0  0  0  0  0  0  0  0  0  0  0  0
  126.7700  127.3340   72.7130 O   0  0  0  0  0  0  0  0  0  0  0  0
  127.7460  126.3900   72.7100 C   0  0  0  0  0  0  0  0  0  0  0  0
  128.1090  125.7840   73.7220 O   0  0  0  0  0  0  0  0  0  0  0  0
  128.3410  126.1560   71.3500 C   0  0  0  0  0  0  0  0  0  0  0  0
  129.3040  125.1510   71.1890 C   0  0  0  0  0  0  0  0  0  0  0  0
  129.8730  124.9100   69.9430 C   0  0  0  0  0  0  0  0  0  0  0  0
  129.4940  125.6650   68.8330 C   0  0  0  0  0  0  0  0  0  0  0  0
  130.1350  125.3330   67.6230 N   0  0  0  0  0  0  0  0  0  0  0  0
  129.7790  125.5900   66.3410 C   0  0  0  0  0  0  0  0  0  0  0  0
  128.7600  126.1990   66.0130 O   0  0  0  0  0  0  0  0  0  0  0  0
  130.7030  125.0850   65.3220 C   0  0  0  0  0  0  0  0  0  0  0  0
  132.4380  125.3760   65.4690 S   0  0  0  0  0  0  0  0  0  0  0  0
  132.7570  124.5170   63.9790 C   0  0  0  0  0  0  0  0  0  0  0  0
  133.9930  124.3730   63.4990 N   0  0  0  0  0  0  0  0  0  0  0  0
  134.1050  123.6860   62.3370 C   0  0  0  0  0  0  0  0  0  0  0  0
  135.5210  123.5350   61.8090 C   0  0  0  0  0  0  0  0  0  0  0  0
  133.0220  123.1450   61.6490 C   0  0  0  0  0  0  0  0  0  0  0  0
  131.7260  123.2980   62.1560 C   0  0  0  0  0  0  0  0  0  0  0  0
  130.5840  122.7170   61.4140 C   0  0  0  0  0  0  0  0  0  0  0  0
  130.3480  121.3400   61.4550 C   0  0  0  0  0  0  0  0  0  0  0  0
  129.2720  120.7930   60.7580 C   0  0  0  0  0  0  0  0  0  0  0  0
  128.4350  121.6250   60.0180 C   0  0  0  0  0  0  0  0  0  0  0  0
  128.6650  122.9980   59.9690 C   0  0  0  0  0  0  0  0  0  0  0  0
  129.7390  123.5430   60.6660 C   0  0  0  0  0  0  0  0  0  0  0  0
  131.5660  124.0130   63.3750 C   0  0  0  0  0  0  0  0  0  0  0  0
  130.4100  124.3520   64.1620 C   0  0  0  0  0  0  0  0  0  0  0  0
  129.1400  123.9820   63.7950 N   0  0  0  0  0  0  0  0  0  0  0  0
  128.5300  126.6740   68.9840 C   0  0  0  0  0  0  0  0  0  0  0  0
  127.9610  126.9140   70.2320 C   0  0  0  0  0  0  0  0  0  0  0  0
  1  2  1  0
  2  3  1  0
  3  4  2  0
  3  5  1  0
  5  6  2  0
  6  7  1  0
  7  8  2  0
  8  9  1  0
  9 10  1  0
 10 11  2  0
 10 12  1  0
 12 13  1  0
 13 14  1  0
 14 15  2  0
 15 16  1  0
 16 17  1  0
 16 18  2  0
 18 19  1  0
 19 20  1  0
 20 21  2  0
 21 22  1  0
 22 23  2  0
 23 24  1  0
 24 25  2  0
 19 26  2  0
 26 27  1  0
 27 28  1  0
  8 29  1  0
 29 30  2  0
 30  5  1  0
 27 12  2  0
 26 14  1  0
 25 20  1  0
M  END
>  <Binding energies>  (64) 
[-8.07]

>  <Ligand effiencies>  (64) 
[-0.24454545454545457]

>  <Interactions>  (64) 
["V-A:HIS:456:CD2:4068, V-B:GLU:543:CD:9880, V-B:TYR:539:CD2:9846, V-B:GLU:543:CB:9878, H-A:TYR:484:OH:4348, V-A:TYR:484:CZ:4347, V-A:TYR:484:CE1:4345, V-B:HIS:456:CE1:9040, V-B:TYR:539:CE2:9848, V-A:HIS:456:CE1:4069, V-B:GLU:543:CG:9879, V-B:PRO:540:CA:9855, V-B:GLY:544:C:9884, V-B:ALA:541:CB:9864, H-B:LYS:547:NZ:9923, V-B:TYR:539:C:9839, V-B:PRO:540:C:9853, V-B:PRO:540:N:9856, V-A:ILE:369:CD1:3239, V-A:GLY:453:CA:4044, V-A:GLY:454:CA:4049, V-A:GLY:453:C:4042, H-A:GLY:454:N:4050, H-B:GLU:543:OE2:9882, H-B:GLU:543:OE1:9881, V-B:HIS:456:CG:9037, V-A:HIS:456:CG:4066, H-A:HIS:456:ND1:4067, V-B:HIS:456:CB:9036"]

$$$$
8b_Ghoteimi_2023
     RDKit          3D

 34 38  0  0  0  0  0  0  0  0999 V2000
  123.7330  131.6920   62.0010 C   0  0  0  0  0  0  0  0  0  0  0  0
  123.8810  131.8760   63.4050 O   0  0  0  0  0  0  0  0  0  0  0  0
  124.6030  130.9500   64.1330 C   0  0  0  0  0  0  0  0  0  0  0  0
  125.9100  130.7110   63.7130 C   0  0  0  0  0  0  0  0  0  0  0  0
  126.7130  129.7940   64.3850 C   0  0  0  0  0  0  0  0  0  0  0  0
  126.2270  129.0900   65.4970 C   0  0  0  0  0  0  0  0  0  0  0  0
  127.0850  128.1020   66.2220 C   0  0  0  0  0  0  0  0  0  0  0  0
  128.1260  127.4210   65.5820 C   0  0  0  0  0  0  0  0  0  0  0  0
  128.9130  126.5020   66.2830 C   0  0  0  0  0  0  0  0  0  0  0  0
  130.0010  125.7900   65.5730 C   0  0  0  0  0  0  0  0  0  0  0  0
  129.7110  124.9820   64.4730 C   0  0  0  0  0  0  0  0  0  0  0  0
  130.7360  124.3210   63.8010 C   0  0  0  0  0  0  0  0  0  0  0  0
  132.0610  124.4550   64.2190 C   0  0  0  0  0  0  0  0  0  0  0  0
  133.0110  123.7650   63.4920 O   0  0  0  0  0  0  0  0  0  0  0  0
  133.5910  124.3790   62.3460 C   0  0  0  0  0  0  0  0  0  0  0  0
  132.3490  125.2660   65.3280 C   0  0  0  0  0  0  0  0  0  0  0  0
  131.3230  125.9270   65.9990 C   0  0  0  0  0  0  0  0  0  0  0  0
  128.6290  126.2910   67.6590 C   0  0  0  0  0  0  0  0  0  0  0  0
  129.2260  125.4460   68.6600 C   0  0  0  0  0  0  0  0  0  0  0  0
  130.2890  124.6230   68.3870 N   0  0  0  0  0  0  0  0  0  0  0  0
  128.6230  125.5480   69.9230 C   0  0  0  0  0  0  0  0  0  0  0  0
  128.9720  124.8450   71.1590 C   0  0  0  0  0  0  0  0  0  0  0  0
  128.8140  125.3850   72.2570 O   0  0  0  0  0  0  0  0  0  0  0  0
  129.4680  123.5920   70.9960 N   0  0  0  0  0  0  0  0  0  0  0  0
  129.8730  122.7080   71.9870 C   0  0  0  0  0  0  0  0  0  0  0  0
  131.0500  122.8690   72.7160 C   0  0  0  0  0  0  0  0  0  0  0  0
  131.0860  121.7970   73.5790 C   0  0  0  0  0  0  0  0  0  0  0  0
  129.9870  121.0320   73.3820 O   0  0  0  0  0  0  0  0  0  0  0  0
  129.2240  121.6200   72.3710 N   0  0  0  0  0  0  0  0  0  0  0  0
  127.2910  126.7050   69.9010 S   0  0  0  0  0  0  0  0  0  0  0  0
  127.5510  127.0430   68.2050 C   0  0  0  0  0  0  0  0  0  0  0  0
  126.7970  127.9160   67.5380 N   0  0  0  0  0  0  0  0  0  0  0  0
  124.9130  129.3370   65.9150 C   0  0  0  0  0  0  0  0  0  0  0  0
  124.1070  130.2540   65.2440 C   0  0  0  0  0  0  0  0  0  0  0  0
  1  2  1  0
  2  3  1  0
  3  4  2  0
  4  5  1  0
  5  6  2  0
  6  7  1  0
  7  8  2  0
  8  9  1  0
  9 10  1  0
 10 11  2  0
 11 12  1  0
 12 13  2  0
 13 14  1  0
 14 15  1  0
 13 16  1  0
 16 17  2  0
  9 18  2  0
 18 19  1  0
 19 20  1  0
 19 21  2  0
 21 22  1  0
 22 23  2  0
 22 24  1  0
 24 25  1  0
 25 26  1  0
 26 27  2  0
 27 28  1  0
 28 29  1  0
 21 30  1  0
 30 31  1  0
 31 32  2  0
  6 33  1  0
 33 34  2  0
 34  3  1  0
 32  7  1  0
 17 10  1  0
 31 18  1  0
 29 25  2  0
M  END
>  <Binding energies>  (65) 
[-9.45]

>  <Ligand effiencies>  (65) 
[-0.2554054054054054]

>  <Interactions>  (65) 
["V-A:GLU:543:CD:4908, V-B:GLU:543:CD:9880, V-B:GLU:543:CB:9878, H-A:TYR:484:OH:4348, V-A:TYR:484:CZ:4347, V-B:GLU:543:C:9874, V-A:TYR:484:CE1:4345, V-B:HIS:456:CE1:9040, V-A:HIS:456:CE1:4069, V-B:GLU:543:CG:9879, V-B:ARG:545:CD:9895, V-B:ARG:545:CZ:9898, V-B:ARG:545:CG:9894, V-B:GLY:544:C:9884, H-B:LYS:547:NZ:9923, V-B:ILE:369:CD1:8210, V-B:GLY:454:CA:9020, H-A:GLY:454:N:4050, H-B:GLY:454:N:9021, H-B:GLU:543:O:9875, V-A:TYR:484:CG:4342, V-A:TYR:484:CE2:4346, V-A:TYR:484:CD1:4343, V-A:TYR:484:CD2:4344, V-A:HIS:456:CB:4065, V-A:ASP:473:CG:4240, V-A:ASP:473:CB:4239, H-A:HIS:456:ND1:4067, V-A:TYR:484:CB:4341"]

$$$$
9d_Ghoteimi_2023
     RDKit          3D

 38 43  0  0  0  0  0  0  0  0999 V2000
  124.8390  130.2580   58.7140 C   0  0  0  0  0  0  0  0  0  0  0  0
  125.4310  130.5750   59.9660 O   0  0  0  0  0  0  0  0  0  0  0  0
  124.7470  130.3910   61.1260 C   0  0  0  0  0  0  0  0  0  0  0  0
  123.5690  130.7170   61.2900 O   0  0  0  0  0  0  0  0  0  0  0  0
  125.5670  129.7600   62.1830 C   0  0  0  0  0  0  0  0  0  0  0  0
  125.1650  130.0240   63.8800 S   0  0  0  0  0  0  0  0  0  0  0  0
  126.4810  128.9950   64.3930 C   0  0  0  0  0  0  0  0  0  0  0  0
  126.7080  128.7430   65.6810 N   0  0  0  0  0  0  0  0  0  0  0  0
  127.7460  127.9160   65.9750 C   0  0  0  0  0  0  0  0  0  0  0  0
  127.9660  127.6270   67.4250 C   0  0  0  0  0  0  0  0  0  0  0  0
  129.0490  128.1930   68.1060 C   0  0  0  0  0  0  0  0  0  0  0  0
  129.2640  127.9280   69.4550 C   0  0  0  0  0  0  0  0  0  0  0  0
  128.3950  127.0950   70.1780 C   0  0  0  0  0  0  0  0  0  0  0  0
  128.6080  126.8060   71.5300 N   0  0  0  0  0  0  0  0  0  0  0  0
  127.5240  126.9400   72.5250 C   0  0  0  0  0  0  0  0  0  0  0  0
  128.0130  126.9210   73.9880 C   0  0  0  0  0  0  0  0  0  0  0  0
  128.7810  125.7540   74.2270 O   0  0  0  0  0  0  0  0  0  0  0  0
  129.9250  125.7030   73.3900 C   0  0  0  0  0  0  0  0  0  0  0  0
  129.4960  125.6860   71.9070 C   0  0  0  0  0  0  0  0  0  0  0  0
  127.3200  126.5180   69.4870 C   0  0  0  0  0  0  0  0  0  0  0  0
  127.1070  126.7810   68.1360 C   0  0  0  0  0  0  0  0  0  0  0  0
  128.5710  127.3740   64.9850 C   0  0  0  0  0  0  0  0  0  0  0  0
  128.3480  127.6520   63.6320 C   0  0  0  0  0  0  0  0  0  0  0  0
  129.2730  127.0720   62.6220 C   0  0  0  0  0  0  0  0  0  0  0  0
  130.0640  127.8980   61.8220 C   0  0  0  0  0  0  0  0  0  0  0  0
  130.9420  127.3500   60.8900 C   0  0  0  0  0  0  0  0  0  0  0  0
  131.0630  125.9580   60.7470 C   0  0  0  0  0  0  0  0  0  0  0  0
  131.9290  125.3840   59.8140 N   0  0  0  0  0  0  0  0  0  0  0  0
  131.6730  125.5910   58.3750 C   0  0  0  0  0  0  0  0  0  0  0  0
  132.8880  125.2490   57.4860 C   0  0  0  0  0  0  0  0  0  0  0  0
  133.3180  123.9200   57.7380 O   0  0  0  0  0  0  0  0  0  0  0  0
  133.7000  123.7410   59.0940 C   0  0  0  0  0  0  0  0  0  0  0  0
  132.5030  124.0410   60.0210 C   0  0  0  0  0  0  0  0  0  0  0  0
  130.2620  125.1380   61.5550 C   0  0  0  0  0  0  0  0  0  0  0  0
  129.3840  125.6870   62.4840 C   0  0  0  0  0  0  0  0  0  0  0  0
  127.2410  128.4820   63.3000 C   0  0  0  0  0  0  0  0  0  0  0  0
  126.6800  128.9220   62.0490 C   0  0  0  0  0  0  0  0  0  0  0  0
  127.1800  128.5350   60.8320 N   0  0  0  0  0  0  0  0  0  0  0  0
  1  2  1  0
  2  3  1  0
  3  4  2  0
  3  5  1  0
  5  6  1  0
  6  7  1  0
  7  8  2  0
  8  9  1  0
  9 10  1  0
 10 11  2  0
 11 12  1  0
 12 13  2  0
 13 14  1  0
 14 15  1  0
 15 16  1  0
 16 17  1  0
 17 18  1  0
 18 19  1  0
 13 20  1  0
 20 21  2  0
  9 22  2  0
 22 23  1  0
 23 24  1  0
 24 25  2  0
 25 26  1  0
 26 27  2  0
 27 28  1  0
 28 29  1  0
 29 30  1  0
 30 31  1  0
 31 32  1  0
 32 33  1  0
 27 34  1  0
 34 35  2  0
 23 36  2  0
 36 37  1  0
 37 38  1  0
 37  5  2  0
 36  7  1  0
 21 10  1  0
 35 24  1  0
 19 14  1  0
 33 28  1  0
M  END
>  <Binding energies>  (66) 
[-8.0]

>  <Ligand effiencies>  (66) 
[-0.2]

>  <Interactions>  (66) 
["V-A:GLU:543:CD:4908, V-A:HIS:456:CD2:4068, V-B:GLU:543:CD:9880, V-A:ASP:366:CG:3213, V-B:GLU:543:CB:9878, V-B:GLU:543:C:9874, V-B:HIS:456:CE1:9040, V-B:ARG:545:CZ:9898, H-B:TYR:484:OH:9319, V-A:GLU:543:CB:4906, V-B:GLY:544:C:9884, H-B:LYS:547:NZ:9923, V-A:ASP:366:CA:3210, V-A:ILE:369:CB:3236, V-A:ILE:369:CG2:3237, V-B:ASP:366:CG:8184, V-A:ASP:366:CB:3212, V-B:ASP:366:CB:8183, V-A:ASP:366:C:3208, H-B:TYR:539:OH:9850"]

$$$$
RR10_Rahimova_2017
     RDKit          3D

 34 38  0  0  0  0  0  0  0  0999 V2000
  124.2410  129.9310   65.1890 C   0  0  0  0  0  0  0  0  0  0  0  0
  124.8650  130.3090   63.8340 C   0  0  1  0  0  0  0  0  0  0  0  0
  126.2510  129.6530   63.6340 C   0  0  0  0  0  0  0  0  0  0  0  0
  126.8730  130.0740   62.2840 C   0  0  0  0  0  0  0  0  0  0  0  0
  125.9620  129.7130   61.0820 C   0  0  1  0  0  0  0  0  0  0  0  0
  125.8820  128.2570   60.9080 N   0  0  0  0  0  0  0  0  0  0  0  0
  126.8230  127.4870   60.3330 C   0  0  0  0  0  0  0  0  0  0  0  0
  127.8880  127.9370   59.9020 O   0  0  0  0  0  0  0  0  0  0  0  0
  126.5120  125.9800   60.2150 C   0  0  1  0  0  0  0  0  0  0  0  0
  125.7120  125.7210   58.9120 C   0  0  0  0  0  0  0  0  0  0  0  0
  125.4780  124.2000   58.7430 C   0  0  0  0  0  0  0  0  0  0  0  0
  126.7860  123.3830   58.8510 C   0  0  0  0  0  0  0  0  0  0  0  0
  127.5240  123.7370   60.0940 N   0  0  0  0  0  0  0  0  0  0  0  0
  128.8780  122.6590   60.4750 S   0  0  0  0  0  0  0  0  0  0  0  0
  130.0180  123.0420   59.6330 O   0  0  0  0  0  0  0  0  0  0  0  0
  128.3750  121.2790   60.4550 O   0  0  0  0  0  0  0  0  0  0  0  0
  129.3280  123.0560   62.1640 C   0  0  0  0  0  0  0  0  0  0  0  0
  130.1730  122.1920   62.8690 C   0  0  0  0  0  0  0  0  0  0  0  0
  130.5590  122.4430   64.1890 C   0  0  0  0  0  0  0  0  0  0  0  0
  130.0610  123.6090   64.7740 C   0  0  0  0  0  0  0  0  0  0  0  0
  130.2000  124.1870   66.0130 N   0  0  0  0  0  0  0  0  0  0  0  0
  129.4630  125.3540   66.0230 C   0  0  0  0  0  0  0  0  0  0  0  0
  129.3620  126.2620   67.2150 C   0  0  0  0  0  0  0  0  0  0  0  0
  129.5220  127.6470   67.0670 C   0  0  0  0  0  0  0  0  0  0  0  0
  129.4250  128.4910   68.1700 C   0  0  0  0  0  0  0  0  0  0  0  0
  129.1670  127.9540   69.4290 C   0  0  0  0  0  0  0  0  0  0  0  0
  129.0040  126.5810   69.5920 C   0  0  0  0  0  0  0  0  0  0  0  0
  129.1020  125.7380   68.4880 C   0  0  0  0  0  0  0  0  0  0  0  0
  128.8660  125.5680   64.8720 N   0  0  0  0  0  0  0  0  0  0  0  0
  129.2130  124.5050   64.0800 C   0  0  0  0  0  0  0  0  0  0  0  0
  128.8440  124.2280   62.7560 C   0  0  0  0  0  0  0  0  0  0  0  0
  127.8390  125.1830   60.2050 C   0  0  0  0  0  0  0  0  0  0  0  0
  124.5700  130.3640   61.3050 C   0  0  0  0  0  0  0  0  0  0  0  0
  123.9410  129.9400   62.6510 C   0  0  0  0  0  0  0  0  0  0  0  0
  2  1  1  1
  2  3  1  0
  3  4  1  0
  4  5  1  0
  5  6  1  1
  6  7  1  0
  7  8  2  0
  9  7  1  6
  9 10  1  0
 10 11  1  0
 11 12  1  0
 12 13  1  0
 13 14  1  0
 14 15  2  0
 14 16  2  0
 14 17  1  0
 17 18  2  0
 18 19  1  0
 19 20  2  0
 20 21  1  0
 21 22  1  0
 22 23  1  0
 23 24  2  0
 24 25  1  0
 25 26  2  0
 26 27  1  0
 27 28  2  0
 22 29  2  0
 29 30  1  0
 30 31  2  0
 13 32  1  0
  5 33  1  0
 33 34  1  0
 34  2  1  0
 32  9  1  0
 31 17  1  0
 30 20  1  0
 28 23  1  0
M  END
>  <Binding energies>  (67) 
[-9.17]

>  <Ligand effiencies>  (67) 
[-0.25472222222222224]

>  <Interactions>  (67) 
["V-A:GLU:543:CD:4908, V-B:GLU:543:CD:9880, V-A:LEU:475:CD1:4258, H-B:ALA:541:N:9863, V-B:GLU:543:CB:9878, H-A:TYR:484:OH:4348, V-A:TYR:484:CZ:4347, V-B:GLU:543:C:9874, V-A:TYR:484:CE1:4345, V-B:HIS:456:CE1:9040, V-B:TYR:539:CE2:9848, V-A:HIS:456:CE1:4069, V-B:GLU:543:CG:9879, V-B:ARG:545:CD:9895, V-B:ARG:545:CZ:9898, V-A:GLU:543:CB:4906, V-B:PRO:540:CA:9855, V-B:ALA:541:CB:9864, V-A:GLU:543:CG:4907, V-B:PRO:540:CB:9857, H-B:GLU:543:OE2:9882, V-B:ASP:366:CG:8184, H-B:ASP:366:OD1:8185, H-B:ASP:366:OD2:8186, V-A:GLU:543:C:4902"]

$$$$
RR12_Rahimova_2017
     RDKit          3D

 26 28  0  0  0  0  0  0  0  0999 V2000
  128.5710  125.6460   70.5740 C   0  0  0  0  0  0  0  0  0  0  0  0
  127.8950  126.8570   69.9170 C   0  0  0  0  0  0  0  0  0  0  0  0
  127.0260  126.4650   68.7080 C   0  0  0  0  0  0  0  0  0  0  0  0
  127.4410  127.1960   67.5130 N   0  0  0  0  0  0  0  0  0  0  0  0
  128.6650  127.1290   66.8660 C   0  0  0  0  0  0  0  0  0  0  0  0
  129.8320  126.2820   67.3450 C   0  0  0  0  0  0  0  0  0  0  0  0
  129.5430  124.7730   67.2400 C   0  0  0  0  0  0  0  0  0  0  0  0
  129.6700  124.2410   65.7990 C   0  0  0  0  0  0  0  0  0  0  0  0
  131.0380  124.2550   65.2830 N   0  0  0  0  0  0  0  0  0  0  0  0
  131.5350  125.1770   64.4380 C   0  0  0  0  0  0  0  0  0  0  0  0
  130.8710  126.1200   64.0020 O   0  0  0  0  0  0  0  0  0  0  0  0
  133.0040  124.9890   64.0400 C   0  0  0  0  0  0  0  0  0  0  0  0
  133.3560  123.6100   64.1530 O   0  0  0  0  0  0  0  0  0  0  0  0
  133.0530  122.7470   63.1170 C   0  0  0  0  0  0  0  0  0  0  0  0
  131.7150  122.3600   63.0040 C   0  0  0  0  0  0  0  0  0  0  0  0
  131.3120  121.4960   61.9890 C   0  0  0  0  0  0  0  0  0  0  0  0
  132.2510  121.0150   61.0810 C   0  0  0  0  0  0  0  0  0  0  0  0
  133.5890  121.3880   61.1810 C   0  0  0  0  0  0  0  0  0  0  0  0
  133.9910  122.2520   62.1970 C   0  0  0  0  0  0  0  0  0  0  0  0
  128.7300  127.8860   65.7990 N   0  0  0  0  0  0  0  0  0  0  0  0
  127.4970  128.4680   65.7050 C   0  0  0  0  0  0  0  0  0  0  0  0
  127.0140  129.3630   64.7380 C   0  0  0  0  0  0  0  0  0  0  0  0
  125.7000  129.8150   64.8590 C   0  0  0  0  0  0  0  0  0  0  0  0
  124.8830  129.3940   65.9090 C   0  0  0  0  0  0  0  0  0  0  0  0
  125.3340  128.5060   66.8870 C   0  0  0  0  0  0  0  0  0  0  0  0
  126.6540  128.0530   66.7660 C   0  0  0  0  0  0  0  0  0  0  0  0
  1  2  1  0
  2  3  1  0
  3  4  1  0
  4  5  1  0
  5  6  1  0
  6  7  1  0
  7  8  1  0
  8  9  1  0
  9 10  1  0
 10 11  2  0
 10 12  1  0
 12 13  1  0
 13 14  1  0
 14 15  2  0
 15 16  1  0
 16 17  2  0
 17 18  1  0
 18 19  2  0
  5 20  2  0
 20 21  1  0
 21 22  2  0
 22 23  1  0
 23 24  2  0
 24 25  1  0
 25 26  2  0
 26  4  1  0
 19 14  1  0
 26 21  1  0
M  END
>  <Binding energies>  (68) 
[-6.18]

>  <Ligand effiencies>  (68) 
[-0.2288888888888889]

>  <Interactions>  (68) 
["V-B:GLU:543:CA:9876, V-A:LEU:475:CD1:4258, V-B:GLU:543:CB:9878, H-A:TYR:484:OH:4348, V-A:TYR:484:CZ:4347, V-B:GLU:543:C:9874, V-A:TYR:484:CE1:4345, V-B:HIS:456:CE1:9040, V-A:HIS:456:CE1:4069, V-B:GLU:543:CG:9879, V-B:ARG:545:CD:9895, V-B:ARG:545:CZ:9898, V-B:ARG:545:CG:9894, V-A:ARG:545:CZ:4926, V-B:GLY:544:C:9884, V-A:ILE:369:CD1:3239, V-A:GLY:454:CA:4049, V-A:ILE:369:CG2:3237, H-A:GLY:454:N:4050"]

$$$$
RR13_Rahimova_2017
     RDKit          3D

 48 54  0  0  0  0  0  0  0  0999 V2000
  129.9180  121.9070   64.8850 Cl  0  0  0  0  0  0  0  0  0  0  0  0
  130.2710  121.9580   63.1910 C   0  0  0  0  0  0  0  0  0  0  0  0
  130.2720  120.7500   62.4910 C   0  0  0  0  0  0  0  0  0  0  0  0
  130.5700  120.7210   61.1310 C   0  0  0  0  0  0  0  0  0  0  0  0
  130.8720  121.9040   60.4620 C   0  0  0  0  0  0  0  0  0  0  0  0
  130.8730  123.1140   61.1540 C   0  0  0  0  0  0  0  0  0  0  0  0
  130.5630  123.1640   62.5230 C   0  0  0  0  0  0  0  0  0  0  0  0
  130.5960  124.5150   63.2720 C   0  0  1  0  0  0  0  0  0  0  0  0
  131.9090  124.6820   64.0510 C   0  0  0  0  0  0  0  0  0  0  0  0
  133.0940  124.2310   63.7000 N   0  0  0  0  0  0  0  0  0  0  0  0
  133.9610  124.6000   64.7240 N   0  0  0  0  0  0  0  0  0  0  0  0
  133.2680  125.2690   65.7140 N   0  0  0  0  0  0  0  0  0  0  0  0
  132.0010  125.2850   65.2870 N   0  0  0  0  0  0  0  0  0  0  0  0
  130.9680  125.9540   66.0700 C   0  0  0  0  0  0  0  0  0  0  0  0
  130.0860  124.9150   66.7880 C   0  0  0  0  0  0  0  0  0  0  0  0
  129.1830  125.5520   67.8330 C   0  0  0  0  0  0  0  0  0  0  0  0
  129.4970  125.4380   69.1890 C   0  0  0  0  0  0  0  0  0  0  0  0
  128.6650  126.0150   70.1450 C   0  0  0  0  0  0  0  0  0  0  0  0
  127.5220  126.7030   69.7410 C   0  0  0  0  0  0  0  0  0  0  0  0
  127.2030  126.8190   68.3910 C   0  0  0  0  0  0  0  0  0  0  0  0
  128.0350  126.2420   67.4330 C   0  0  0  0  0  0  0  0  0  0  0  0
  130.3030  125.6790   62.4030 N   0  0  0  0  0  0  0  0  0  0  0  0
  130.2530  126.9190   63.2000 C   0  0  0  0  0  0  0  0  0  0  0  0
  130.0800  128.1540   62.2840 C   0  0  0  0  0  0  0  0  0  0  0  0
  128.8190  128.0670   61.5290 N   0  0  0  0  0  0  0  0  0  0  0  0
  128.5720  129.2690   60.6990 C   0  0  1  0  0  0  0  0  0  0  0  0
  127.1010  129.7320   60.6190 C   0  0  0  0  0  0  0  0  0  0  0  0
  126.1920  129.1320   61.5010 C   0  0  0  0  0  0  0  0  0  0  0  0
  124.8470  129.5000   61.5110 C   0  0  0  0  0  0  0  0  0  0  0  0
  124.3880  130.4750   60.6290 C   0  0  0  0  0  0  0  0  0  0  0  0
  125.2710  131.0710   59.7340 C   0  0  0  0  0  0  0  0  0  0  0  0
  126.6200  130.7070   59.7130 C   0  0  0  0  0  0  0  0  0  0  0  0
  127.6220  131.4560   58.5160 Cl  0  0  0  0  0  0  0  0  0  0  0  0
  129.4750  130.4490   61.0650 C   0  0  0  0  0  0  0  0  0  0  0  0
  130.6150  130.7440   60.4850 N   0  0  0  0  0  0  0  0  0  0  0  0
  131.0810  131.8920   61.1180 N   0  0  0  0  0  0  0  0  0  0  0  0
  130.1850  132.2940   62.0870 N   0  0  0  0  0  0  0  0  0  0  0  0
  129.1910  131.4000   62.0220 N   0  0  0  0  0  0  0  0  0  0  0  0
  128.0570  131.5000   62.9350 C   0  0  0  0  0  0  0  0  0  0  0  0
  128.2150  130.5060   64.0990 C   0  0  0  0  0  0  0  0  0  0  0  0
  126.8800  130.1530   64.7370 C   0  0  0  0  0  0  0  0  0  0  0  0
  126.8250  129.1990   65.7570 C   0  0  0  0  0  0  0  0  0  0  0  0
  125.6040  128.8800   66.3460 C   0  0  0  0  0  0  0  0  0  0  0  0
  124.4420  129.5170   65.9120 C   0  0  0  0  0  0  0  0  0  0  0  0
  124.4910  130.4700   64.8960 C   0  0  0  0  0  0  0  0  0  0  0  0
  125.7120  130.7890   64.3080 C   0  0  0  0  0  0  0  0  0  0  0  0
  128.8750  126.8290   60.7300 C   0  0  0  0  0  0  0  0  0  0  0  0
  129.0380  125.5980   61.6520 C   0  0  0  0  0  0  0  0  0  0  0  0
  1  2  1  0
  2  3  2  0
  3  4  1  0
  4  5  2  0
  5  6  1  0
  6  7  2  0
  7  8  1  0
  8  9  1  0
  9 10  2  0
 10 11  1  0
 11 12  2  0
 12 13  1  0
 13 14  1  0
 14 15  1  0
 15 16  1  0
 16 17  2  0
 17 18  1  0
 18 19  2  0
 19 20  1  0
 20 21  2  0
  8 22  1  6
 22 23  1  0
 23 24  1  0
 24 25  1  0
 26 25  1  1
 26 27  1  0
 27 28  2  0
 28 29  1  0
 29 30  2  0
 30 31  1  0
 31 32  2  0
 32 33  1  0
 26 34  1  0
 34 35  2  0
 35 36  1  0
 36 37  2  0
 37 38  1  0
 38 39  1  0
 39 40  1  0
 40 41  1  0
 41 42  2  0
 42 43  1  0
 43 44  2  0
 44 45  1  0
 45 46  2  0
 25 47  1  0
 47 48  1  0
  7  2  1  0
 13  9  1  0
 21 16  1  0
 48 22  1  0
 32 27  1  0
 38 34  1  0
 46 41  1  0
M  END
>  <Binding energies>  (69) 
[-11.41]

>  <Ligand effiencies>  (69) 
[-0.23770833333333333]

>  <Interactions>  (69) 
["V-A:GLU:543:CD:4908, V-A:HIS:456:CD2:4068, V-B:TYR:539:CD2:9846, V-A:LEU:475:CD1:4258, V-B:GLU:543:CB:9878, H-A:TYR:484:OH:4348, V-A:TYR:484:CZ:4347, V-B:GLU:543:C:9874, V-A:TYR:484:CE1:4345, V-B:HIS:456:CE1:9040, V-B:TYR:539:CE2:9848, V-A:HIS:456:CE1:4069, V-B:ARG:545:CD:9895, V-B:ARG:545:CZ:9898, V-B:ARG:545:CG:9894, V-A:ALA:541:CB:4892, V-A:TYR:539:CZ:4877, V-A:TYR:539:CE2:4876, V-A:GLU:543:CB:4906, V-B:GLY:544:C:9884, V-B:ALA:541:CB:9864, V-B:GLY:454:CA:9020, H-A:GLY:454:N:4050, H-A:ARG:545:NE:4924, V-B:ASP:366:CG:8184, H-A:ALA:541:N:4891, V-A:LEU:475:CD2:4259"]

$$$$
RR14_Rahimova_2017
     RDKit          3D

 39 43  0  0  0  0  0  0  0  0999 V2000
  126.7060  123.3740   60.7300 C   0  0  0  0  0  0  0  0  0  0  0  0
  127.6820  122.3560   60.9240 O   0  0  0  0  0  0  0  0  0  0  0  0
  128.9180  122.6990   61.4370 C   0  0  0  0  0  0  0  0  0  0  0  0
  129.6110  123.7100   60.7700 C   0  0  0  0  0  0  0  0  0  0  0  0
  130.8740  124.1060   61.1990 C   0  0  0  0  0  0  0  0  0  0  0  0
  131.4620  123.4850   62.3030 C   0  0  0  0  0  0  0  0  0  0  0  0
  132.8710  123.8700   62.7360 C   0  0  0  0  0  0  0  0  0  0  0  0
  132.9150  124.5380   64.0370 N   0  0  0  0  0  0  0  0  0  0  0  0
  133.9520  124.3470   64.8600 N   0  0  0  0  0  0  0  0  0  0  0  0
  133.6500  125.0920   65.9840 N   0  0  0  0  0  0  0  0  0  0  0  0
  132.4190  125.7200   65.8240 N   0  0  0  0  0  0  0  0  0  0  0  0
  131.9890  125.3640   64.6370 C   0  0  0  0  0  0  0  0  0  0  0  0
  130.6620  125.7860   64.0220 C   0  0  0  0  0  0  0  0  0  0  0  0
  129.5750  125.8440   65.0140 N   0  0  0  0  0  0  0  0  0  0  0  0
  129.7630  124.8650   66.0920 C   0  0  0  0  0  0  0  0  0  0  0  0
  129.9630  125.5120   67.4800 C   0  0  0  0  0  0  0  0  0  0  0  0
  128.6450  125.7580   68.2440 C   0  0  0  0  0  0  0  0  0  0  0  0
  128.8480  126.0880   69.6590 N   0  0  0  0  0  0  0  0  0  0  0  0
  129.5040  124.9720   70.3540 C   0  0  0  0  0  0  0  0  0  0  0  0
  129.6850  125.2660   71.8580 C   0  0  0  0  0  0  0  0  0  0  0  0
  128.4330  125.6060   72.4450 O   0  0  0  0  0  0  0  0  0  0  0  0
  127.8520  126.7570   71.8440 C   0  0  0  0  0  0  0  0  0  0  0  0
  127.6130  126.5080   70.3390 C   0  0  0  0  0  0  0  0  0  0  0  0
  129.4660  127.2020   65.5650 C   0  0  0  0  0  0  0  0  0  0  0  0
  128.3230  128.0570   65.0210 C   0  0  0  0  0  0  0  0  0  0  0  0
  127.8730  127.8980   63.7520 C   0  0  0  0  0  0  0  0  0  0  0  0
  126.7970  128.7380   63.1890 C   0  0  0  0  0  0  0  0  0  0  0  0
  126.2930  128.5880   61.8850 C   0  0  0  0  0  0  0  0  0  0  0  0
  126.8330  127.5230   60.9390 C   0  0  0  0  0  0  0  0  0  0  0  0
  125.2700  129.4340   61.4500 C   0  0  0  0  0  0  0  0  0  0  0  0
  124.7520  130.4160   62.2930 C   0  0  0  0  0  0  0  0  0  0  0  0
  125.2450  130.5720   63.5920 C   0  0  0  0  0  0  0  0  0  0  0  0
  124.6560  131.6530   64.4890 C   0  0  0  0  0  0  0  0  0  0  0  0
  126.2720  129.7280   64.0390 C   0  0  0  0  0  0  0  0  0  0  0  0
  126.8030  129.8500   65.3410 N   0  0  0  0  0  0  0  0  0  0  0  0
  127.7880  129.1030   65.8990 C   0  0  0  0  0  0  0  0  0  0  0  0
  128.1680  129.3290   67.0480 O   0  0  0  0  0  0  0  0  0  0  0  0
  130.7650  122.4930   62.9960 C   0  0  0  0  0  0  0  0  0  0  0  0
  129.5020  122.0980   62.5640 C   0  0  0  0  0  0  0  0  0  0  0  0
  1  2  1  0
  2  3  1  0
  3  4  2  0
  4  5  1  0
  5  6  2  0
  6  7  1  0
  7  8  1  0
  8  9  1  0
  9 10  2  0
 10 11  1  0
 11 12  2  0
 12 13  1  0
 13 14  1  0
 14 15  1  0
 15 16  1  0
 16 17  1  0
 17 18  1  0
 18 19  1  0
 19 20  1  0
 20 21  1  0
 21 22  1  0
 22 23  1  0
 14 24  1  0
 24 25  1  0
 25 26  2  0
 26 27  1  0
 27 28  2  0
 28 29  1  0
 28 30  1  0
 30 31  2  0
 31 32  1  0
 32 33  1  0
 32 34  2  0
 34 35  1  0
 35 36  1  0
 36 37  2  0
  6 38  1  0
 38 39  2  0
 39  3  1  0
 12  8  1  0
 23 18  1  0
 36 25  1  0
 34 27  1  0
M  END
>  <Binding energies>  (70) 
[-9.39]

>  <Ligand effiencies>  (70) 
[-0.23475000000000001]

>  <Interactions>  (70) 
["H-A:HIS:456:NE2:4070, V-A:GLU:543:CD:4908, V-A:HIS:456:CD2:4068, V-B:GLU:543:CD:9880, V-A:LEU:475:CD1:4258, H-B:ALA:541:N:9863, V-B:GLU:543:CB:9878, H-A:TYR:484:OH:4348, V-A:TYR:484:CZ:4347, V-B:GLU:543:C:9874, V-A:TYR:484:CE1:4345, V-B:HIS:456:CE1:9040, V-A:HIS:456:CE1:4069, V-B:GLU:543:CG:9879, H-B:TYR:484:OH:9319, V-A:GLU:543:CB:4906, V-B:PRO:540:CA:9855, V-B:GLY:544:C:9884, V-B:ALA:541:CB:9864, H-B:LYS:547:NZ:9923, V-B:LEU:475:CD1:9229, V-B:GLY:454:CA:9020, H-A:GLY:454:N:4050, H-A:ARG:545:NE:4924, V-B:ASP:366:CG:8184"]

$$$$
RR15_Rahimova_2017
     RDKit          3D

 45 49  0  0  0  0  0  0  0  0999 V2000
  131.4400  123.0620   73.1040 C   0  0  0  0  0  0  0  0  0  0  0  0
  130.2500  123.8440   73.0920 O   0  0  0  0  0  0  0  0  0  0  0  0
  129.8410  124.4470   71.9150 C   0  0  0  0  0  0  0  0  0  0  0  0
  130.3200  124.0810   70.6480 C   0  0  0  0  0  0  0  0  0  0  0  0
  129.8690  124.7310   69.5010 C   0  0  0  0  0  0  0  0  0  0  0  0
  128.9310  125.7650   69.5870 C   0  0  0  0  0  0  0  0  0  0  0  0
  128.4480  126.4710   68.3500 C   0  0  0  0  0  0  0  0  0  0  0  0
  127.2670  127.0670   68.2750 N   0  0  0  0  0  0  0  0  0  0  0  0
  127.1810  127.5870   67.0000 N   0  0  0  0  0  0  0  0  0  0  0  0
  128.3570  127.2750   66.4550 N   0  0  0  0  0  0  0  0  0  0  0  0
  128.6370  127.4980   65.0370 C   0  0  0  0  0  0  0  0  0  0  0  0
  129.1380  126.2490   64.2700 C   0  0  0  0  0  0  0  0  0  0  0  0
  129.2880  125.2000   64.9000 O   0  0  0  0  0  0  0  0  0  0  0  0
  129.3700  126.3290   62.9240 N   0  0  0  0  0  0  0  0  0  0  0  0
  128.2940  126.0810   61.9440 C   0  0  0  0  0  0  0  0  0  0  0  0
  128.5490  124.8540   61.0420 C   0  0  0  0  0  0  0  0  0  0  0  0
  127.6400  123.6360   61.3320 C   0  0  0  0  0  0  0  0  0  0  0  0
  128.3800  122.4090   61.6450 N   0  0  0  0  0  0  0  0  0  0  0  0
  128.8240  121.6700   60.4540 C   0  0  0  0  0  0  0  0  0  0  0  0
  129.6690  120.4360   60.8370 C   0  0  0  0  0  0  0  0  0  0  0  0
  130.7580  120.8250   61.6670 O   0  0  0  0  0  0  0  0  0  0  0  0
  130.3260  121.4490   62.8720 C   0  0  0  0  0  0  0  0  0  0  0  0
  129.5020  122.7130   62.5440 C   0  0  0  0  0  0  0  0  0  0  0  0
  130.6430  126.8510   62.3380 C   0  0  2  0  0  0  0  0  0  0  0  0
  130.4430  127.7420   61.0730 C   0  0  0  0  0  0  0  0  0  0  0  0
  130.2180  127.2410   59.9710 O   0  0  0  0  0  0  0  0  0  0  0  0
  130.4910  129.0700   61.2830 N   0  0  0  0  0  0  0  0  0  0  0  0
  130.2330  130.0930   60.2770 C   0  0  0  0  0  0  0  0  0  0  0  0
  131.2090  131.2750   60.4200 C   0  0  2  0  0  0  0  0  0  0  0  0
  132.6700  130.9740   60.0390 C   0  0  0  0  0  0  0  0  0  0  0  0
  133.3740  130.7820   61.3600 C   0  0  0  0  0  0  0  0  0  0  0  0
  132.6170  131.7540   62.2470 C   0  0  0  0  0  0  0  0  0  0  0  0
  131.2710  131.5740   61.8220 O   0  0  0  0  0  0  0  0  0  0  0  0
  131.6910  125.7470   62.2600 C   0  0  0  0  0  0  0  0  0  0  0  0
  132.2970  125.3270   63.4510 C   0  0  0  0  0  0  0  0  0  0  0  0
  133.2610  124.3240   63.4400 C   0  0  0  0  0  0  0  0  0  0  0  0
  133.6280  123.7310   62.2360 C   0  0  0  0  0  0  0  0  0  0  0  0
  134.5640  122.7550   62.2250 F   0  0  0  0  0  0  0  0  0  0  0  0
  133.0360  124.1340   61.0420 C   0  0  0  0  0  0  0  0  0  0  0  0
  132.0720  125.1380   61.0530 C   0  0  0  0  0  0  0  0  0  0  0  0
  129.1600  126.5480   67.2410 N   0  0  0  0  0  0  0  0  0  0  0  0
  128.4530  126.1260   70.8540 C   0  0  0  0  0  0  0  0  0  0  0  0
  128.8960  125.4780   72.0190 C   0  0  0  0  0  0  0  0  0  0  0  0
  128.4520  125.7960   73.2910 O   0  0  0  0  0  0  0  0  0  0  0  0
  127.4780  126.8220   73.4590 C   0  0  0  0  0  0  0  0  0  0  0  0
  1  2  1  0
  2  3  1  0
  3  4  2  0
  4  5  1  0
  5  6  2  0
  6  7  1  0
  7  8  1  0
  8  9  2  0
  9 10  1  0
 10 11  1  0
 11 12  1  0
 12 13  2  0
 12 14  1  0
 14 15  1  0
 15 16  1  0
 16 17  1  0
 17 18  1  0
 18 19  1  0
 19 20  1  0
 20 21  1  0
 21 22  1  0
 22 23  1  0
 24 14  1  6
 24 25  1  0
 25 26  2  0
 25 27  1  0
 27 28  1  0
 29 28  1  1
 29 30  1  0
 30 31  1  0
 31 32  1  0
 32 33  1  0
 24 34  1  0
 34 35  2  0
 35 36  1  0
 36 37  2  0
 37 38  1  0
 37 39  1  0
 39 40  2  0
 10 41  1  0
  6 42  1  0
 42 43  2  0
 43 44  1  0
 44 45  1  0
 43  3  1  0
 41  7  2  0
 23 18  1  0
 33 29  1  0
 40 34  1  0
M  END
>  <Binding energies>  (71) 
[-9.77]

>  <Ligand effiencies>  (71) 
[-0.21239130434782608]

>  <Interactions>  (71) 
["V-A:GLU:543:CD:4908, V-A:HIS:456:CD2:4068, V-B:GLU:543:CD:9880, V-A:ASP:366:CG:3213, V-B:TYR:539:CD2:9846, V-A:LEU:475:CD1:4258, H-B:ALA:541:N:9863, V-A:TYR:484:CZ:4347, V-B:GLU:543:C:9874, V-A:TYR:484:CE1:4345, V-B:TYR:539:CE2:9848, V-A:HIS:456:CE1:4069, V-B:GLU:543:CG:9879, V-A:PRO:540:C:4881, V-A:PRO:540:CA:4883, V-A:PRO:540:CB:4885, V-A:ARG:545:CZ:4926, V-B:PRO:540:CA:9855, V-B:GLY:544:C:9884, V-B:ALA:541:CB:9864, H-B:LYS:547:NZ:9923, V-A:ILE:369:CD1:3239, V-A:GLY:454:CA:4049, V-A:GLY:453:C:4042, H-A:GLU:543:OE1:4909, H-A:GLU:543:OE2:4910, V-A:ALA:541:CA:4890, V-A:ALA:541:C:4888, H-A:ALA:541:N:4891, V-A:ASN:362:CB:3176, V-A:ASN:362:C:3172, V-A:TYR:484:CE2:4346, V-A:HIS:456:CG:4066, V-A:TYR:484:CD1:4343, V-A:TYR:484:CD2:4344, V-A:HIS:456:CB:4065, V-A:ASP:473:CB:4239"]

$$$$
RR17_Rahimova_2017
     RDKit          3D

 38 41  0  0  0  0  0  0  0  0999 V2000
  134.3200  120.5370   61.9710 C   0  0  0  0  0  0  0  0  0  0  0  0
  133.9860  119.4960   60.8980 C   0  0  0  0  0  0  0  0  0  0  0  0
  132.6370  119.0730   61.0740 O   0  0  0  0  0  0  0  0  0  0  0  0
  131.6180  120.0030   60.9810 C   0  0  0  0  0  0  0  0  0  0  0  0
  130.3250  119.5330   61.2050 C   0  0  0  0  0  0  0  0  0  0  0  0
  129.2350  120.3940   61.1310 C   0  0  0  0  0  0  0  0  0  0  0  0
  129.4170  121.7510   60.8280 C   0  0  0  0  0  0  0  0  0  0  0  0
  128.2220  122.6570   60.7570 C   0  0  0  0  0  0  0  0  0  0  0  0
  127.2340  122.3950   60.0640 O   0  0  0  0  0  0  0  0  0  0  0  0
  128.2790  123.9600   61.5840 C   0  0  0  0  0  0  0  0  0  0  0  0
  128.0790  125.4480   60.5400 S   0  0  0  0  0  0  0  0  0  0  0  0
  127.6370  126.6330   61.7800 C   0  0  0  0  0  0  0  0  0  0  0  0
  126.5980  127.4340   61.7300 N   0  0  0  0  0  0  0  0  0  0  0  0
  126.5960  128.2000   62.8890 N   0  0  0  0  0  0  0  0  0  0  0  0
  127.6320  127.8300   63.5980 C   0  0  0  0  0  0  0  0  0  0  0  0
  128.0000  128.4090   64.9560 C   0  0  0  0  0  0  0  0  0  0  0  0
  127.0990  128.0060   66.0340 N   0  0  0  0  0  0  0  0  0  0  0  0
  127.5290  127.3810   67.2180 C   0  0  0  0  0  0  0  0  0  0  0  0
  128.9040  127.2700   67.4230 C   0  0  0  0  0  0  0  0  0  0  0  0
  129.3970  126.6580   68.5720 C   0  0  0  0  0  0  0  0  0  0  0  0
  128.5180  126.1520   69.5330 C   0  0  0  0  0  0  0  0  0  0  0  0
  129.0760  125.4770   70.7860 C   0  0  0  0  0  0  0  0  0  0  0  0
  128.1220  124.8850   71.5080 F   0  0  0  0  0  0  0  0  0  0  0  0
  129.9750  124.5490   70.4530 F   0  0  0  0  0  0  0  0  0  0  0  0
  129.6700  126.3940   71.5490 F   0  0  0  0  0  0  0  0  0  0  0  0
  127.1380  126.2690   69.3330 C   0  0  0  0  0  0  0  0  0  0  0  0
  126.6460  126.8830   68.1850 C   0  0  0  0  0  0  0  0  0  0  0  0
  128.3440  126.8450   62.9460 N   0  0  0  0  0  0  0  0  0  0  0  0
  129.5030  126.1870   63.3850 C   0  0  0  0  0  0  0  0  0  0  0  0
  129.4370  125.3460   64.4950 C   0  0  0  0  0  0  0  0  0  0  0  0
  130.5880  124.6970   64.9330 C   0  0  0  0  0  0  0  0  0  0  0  0
  131.8070  124.8870   64.2620 C   0  0  0  0  0  0  0  0  0  0  0  0
  132.9970  124.2850   64.6240 O   0  0  0  0  0  0  0  0  0  0  0  0
  133.9230  125.0060   65.4290 C   0  0  0  0  0  0  0  0  0  0  0  0
  131.8540  125.7340   63.1530 C   0  0  0  0  0  0  0  0  0  0  0  0
  130.7070  126.3860   62.7090 C   0  0  0  0  0  0  0  0  0  0  0  0
  130.7180  122.2230   60.6040 C   0  0  0  0  0  0  0  0  0  0  0  0
  131.8080  121.3590   60.6790 C   0  0  0  0  0  0  0  0  0  0  0  0
  1  2  1  0
  2  3  1  0
  3  4  1  0
  4  5  2  0
  5  6  1  0
  6  7  2  0
  7  8  1  0
  8  9  2  0
  8 10  1  0
 10 11  1  0
 11 12  1  0
 12 13  2  0
 13 14  1  0
 14 15  2  0
 15 16  1  0
 16 17  1  0
 17 18  1  0
 18 19  2  0
 19 20  1  0
 20 21  2  0
 21 22  1  0
 22 23  1  0
 22 24  1  0
 22 25  1  0
 21 26  1  0
 26 27  2  0
 15 28  1  0
 28 29  1  0
 29 30  2  0
 30 31  1  0
 31 32  2  0
 32 33  1  0
 33 34  1  0
 32 35  1  0
 35 36  2  0
  7 37  1  0
 37 38  2  0
 38  4  1  0
 28 12  1  0
 36 29  1  0
 27 18  1  0
M  END
>  <Binding energies>  (72) 
[-7.45]

>  <Ligand effiencies>  (72) 
[-0.19102564102564104]

>  <Interactions>  (72) 
["V-A:GLU:543:CD:4908, V-A:HIS:456:CD2:4068, V-B:GLU:543:CD:9880, V-B:TYR:539:CD2:9846, V-A:LEU:475:CD1:4258, H-B:ALA:541:N:9863, V-B:GLU:543:CB:9878, H-A:TYR:484:OH:4348, V-A:TYR:484:CZ:4347, V-B:GLU:543:C:9874, V-A:TYR:484:CE1:4345, V-B:HIS:456:CE1:9040, V-B:TYR:539:CE2:9848, V-A:HIS:456:CE1:4069, V-B:GLU:543:CG:9879, V-B:ARG:545:CG:9894, V-A:ARG:545:CZ:4926, V-B:PRO:540:CA:9855, V-B:GLY:544:C:9884, V-B:ALA:541:CB:9864, V-B:PRO:540:C:9853, V-A:ILE:369:CD1:3239, V-A:GLY:453:CA:4044, V-A:GLY:454:CA:4049, V-A:ILE:369:CG2:3237, H-A:GLY:454:N:4050, V-B:ALA:541:CA:9862, V-A:PRO:482:CG:4327, V-A:PRO:482:CB:4326, V-A:ARG:545:CD:4923, V-A:TRP:381:CH2:3372, H-B:ARG:545:NH2:9900, H-B:GLU:543:OE1:9881, V-A:HIS:456:CG:4066, V-B:GLY:544:CA:9886, V-B:LYS:547:CE:9922, V-A:SER:385:CA:3407, V-A:SER:385:C:3405"]

$$$$
RR19_Rahimova_2017
     RDKit          3D

 46 51  0  0  0  0  0  0  0  0999 V2000
  129.1000  122.0640   62.2570 O   0  0  0  0  0  0  0  0  0  0  0  0
  128.7890  123.2550   62.1650 C   0  0  0  0  0  0  0  0  0  0  0  0
  128.8170  124.1660   63.1710 N   0  0  0  0  0  0  0  0  0  0  0  0
  129.3570  124.1490   64.4340 C   0  0  0  0  0  0  0  0  0  0  0  0
  130.4180  122.9760   65.0360 S   0  0  0  0  0  0  0  0  0  0  0  0
  128.8950  125.2430   65.1230 N   0  0  0  0  0  0  0  0  0  0  0  0
  129.2140  125.7760   66.3300 C   0  0  0  0  0  0  0  0  0  0  0  0
  130.1760  125.4670   67.0360 O   0  0  0  0  0  0  0  0  0  0  0  0
  128.2190  126.8590   66.8200 C   0  0  2  0  0  0  0  0  0  0  0  0
  128.2240  128.1740   65.9890 C   0  0  0  0  0  0  0  0  0  0  0  0
  126.8640  128.8280   65.8030 C   0  0  0  0  0  0  0  0  0  0  0  0
  126.5180  129.4440   64.5810 C   0  0  0  0  0  0  0  0  0  0  0  0
  125.2440  129.9650   64.4020 C   0  0  0  0  0  0  0  0  0  0  0  0
  124.2980  129.8680   65.4160 C   0  0  0  0  0  0  0  0  0  0  0  0
  124.6150  129.2370   66.6120 C   0  0  0  0  0  0  0  0  0  0  0  0
  125.8830  128.7070   66.8100 C   0  0  0  0  0  0  0  0  0  0  0  0
  128.3890  127.1300   68.2740 N   0  0  0  0  0  0  0  0  0  0  0  0
  127.5270  126.6160   69.1970 C   0  0  0  0  0  0  0  0  0  0  0  0
  126.5300  125.9230   68.9830 O   0  0  0  0  0  0  0  0  0  0  0  0
  128.0430  127.0620   70.5140 C   0  0  0  0  0  0  0  0  0  0  0  0
  127.5660  126.8410   71.8060 C   0  0  0  0  0  0  0  0  0  0  0  0
  128.2720  127.3860   72.8840 C   0  0  0  0  0  0  0  0  0  0  0  0
  129.4350  128.1350   72.6600 C   0  0  0  0  0  0  0  0  0  0  0  0
  129.8980  128.3440   71.3560 C   0  0  0  0  0  0  0  0  0  0  0  0
  129.1780  127.7940   70.2950 C   0  0  0  0  0  0  0  0  0  0  0  0
  129.4190  127.8340   68.8310 C   0  0  0  0  0  0  0  0  0  0  0  0
  130.3560  128.3810   68.2470 O   0  0  0  0  0  0  0  0  0  0  0  0
  128.2990  123.8160   60.8040 C   0  0  2  0  0  0  0  0  0  0  0  0
  128.3460  122.7810   59.6420 C   0  0  0  0  0  0  0  0  0  0  0  0
  127.2150  122.9270   58.6410 C   0  0  0  0  0  0  0  0  0  0  0  0
  126.0300  123.6020   59.0050 C   0  0  0  0  0  0  0  0  0  0  0  0
  125.0380  123.8240   58.0570 C   0  0  0  0  0  0  0  0  0  0  0  0
  125.2180  123.4070   56.7450 C   0  0  0  0  0  0  0  0  0  0  0  0
  126.3950  122.7760   56.3630 C   0  0  0  0  0  0  0  0  0  0  0  0
  127.3990  122.5450   57.2950 C   0  0  0  0  0  0  0  0  0  0  0  0
  128.9570  125.0970   60.4210 N   0  0  0  0  0  0  0  0  0  0  0  0
  128.6210  126.2800   61.0090 C   0  0  0  0  0  0  0  0  0  0  0  0
  127.7660  126.4650   61.8750 O   0  0  0  0  0  0  0  0  0  0  0  0
  129.5040  127.2950   60.3830 C   0  0  0  0  0  0  0  0  0  0  0  0
  129.6010  128.6730   60.5870 C   0  0  0  0  0  0  0  0  0  0  0  0
  130.5430  129.3950   59.8450 C   0  0  0  0  0  0  0  0  0  0  0  0
  131.3680  128.7390   58.9220 C   0  0  0  0  0  0  0  0  0  0  0  0
  131.2570  127.3570   58.7340 C   0  0  0  0  0  0  0  0  0  0  0  0
  130.3090  126.6550   59.4820 C   0  0  0  0  0  0  0  0  0  0  0  0
  129.9650  125.2130   59.5060 C   0  0  0  0  0  0  0  0  0  0  0  0
  130.4790  124.3120   58.8420 O   0  0  0  0  0  0  0  0  0  0  0  0
  1  2  2  0
  2  3  1  0
  3  4  1  0
  4  5  2  0
  4  6  1  0
  6  7  1  0
  7  8  2  0
  7  9  1  0
  9 10  1  6
 10 11  1  0
 11 12  2  0
 12 13  1  0
 13 14  2  0
 14 15  1  0
 15 16  2  0
  9 17  1  0
 17 18  1  0
 18 19  2  0
 18 20  1  0
 20 21  2  0
 21 22  1  0
 22 23  2  0
 23 24  1  0
 24 25  2  0
 25 26  1  0
 26 27  2  0
  2 28  1  0
 28 29  1  6
 29 30  1  0
 30 31  2  0
 31 32  1  0
 32 33  2  0
 33 34  1  0
 34 35  2  0
 28 36  1  0
 36 37  1  0
 37 38  2  0
 37 39  1  0
 39 40  2  0
 40 41  1  0
 41 42  2  0
 42 43  1  0
 43 44  2  0
 44 45  1  0
 45 46  2  0
 16 11  1  0
 26 17  1  0
 35 30  1  0
 45 36  1  0
 25 20  1  0
 44 39  1  0
M  END
>  <Binding energies>  (73) 
[-10.91]

>  <Ligand effiencies>  (73) 
[-0.22729166666666667]

>  <Interactions>  (73) 
["H-A:HIS:456:NE2:4070, V-A:GLU:543:CD:4908, V-A:HIS:456:CD2:4068, V-B:GLU:543:CD:9880, V-A:ASP:366:CG:3213, V-B:TYR:539:CD2:9846, H-B:ALA:541:N:9863, V-B:GLU:543:CB:9878, H-A:TYR:484:OH:4348, V-A:TYR:484:CZ:4347, V-A:TYR:484:CE1:4345, V-B:HIS:456:CE1:9040, V-B:TYR:539:CE2:9848, V-A:HIS:456:CE1:4069, V-B:GLU:543:CG:9879, V-B:ARG:545:CD:9895, V-B:ARG:545:CZ:9898, V-B:ARG:545:CG:9894, H-B:ARG:545:N:9892, V-B:PRO:540:CA:9855, V-B:GLY:544:C:9884, V-B:ALA:541:CB:9864, V-B:TYR:539:CZ:9849, V-B:TYR:539:C:9839, V-B:PRO:540:CB:9857, V-B:PRO:540:N:9856, H-B:GLU:543:OE2:9882, V-B:TYR:539:CG:9844, V-B:LEU:363:CD1:8160, V-A:ASP:366:CB:3212, H-B:GLU:543:OE1:9881, V-B:HIS:456:CD2:9039, V-B:PRO:540:CD:9859, H-B:TYR:539:OH:9850, V-B:ILE:538:CB:9834, H-B:GLY:544:N:9887"]

$$$$
RR1_Rahimova_2017
     RDKit          3D

 41 44  0  0  0  0  0  0  0  0999 V2000
  134.7480  118.2330   59.5190 C   0  0  0  0  0  0  0  0  0  0  0  0
  133.9830  118.5120   60.6870 O   0  0  0  0  0  0  0  0  0  0  0  0
  133.5770  119.8080   60.9330 C   0  0  0  0  0  0  0  0  0  0  0  0
  134.1480  120.6460   61.9050 C   0  0  0  0  0  0  0  0  0  0  0  0
  133.6670  121.9390   62.0870 C   0  0  0  0  0  0  0  0  0  0  0  0
  132.6170  122.4190   61.3030 C   0  0  0  0  0  0  0  0  0  0  0  0
  132.1710  123.7220   61.5950 N   0  0  0  0  0  0  0  0  0  0  0  0
  132.6270  124.5960   62.5170 C   0  0  0  0  0  0  0  0  0  0  0  0
  133.5090  124.3500   63.3400 O   0  0  0  0  0  0  0  0  0  0  0  0
  131.9470  125.9740   62.4850 C   0  0  0  0  0  0  0  0  0  0  0  0
  130.3230  126.0660   63.3170 S   0  0  0  0  0  0  0  0  0  0  0  0
  129.5340  124.7500   62.4510 C   0  0  0  0  0  0  0  0  0  0  0  0
  128.7780  124.9130   61.3950 N   0  0  0  0  0  0  0  0  0  0  0  0
  128.4130  123.6760   61.0720 C   0  0  0  0  0  0  0  0  0  0  0  0
  127.5340  123.3810   59.8890 C   0  0  0  0  0  0  0  0  0  0  0  0
  128.0240  122.7040   58.7610 C   0  0  0  0  0  0  0  0  0  0  0  0
  127.1850  122.4460   57.6760 C   0  0  0  0  0  0  0  0  0  0  0  0
  125.8600  122.8750   57.7440 C   0  0  0  0  0  0  0  0  0  0  0  0
  125.3530  123.5310   58.8180 N   0  0  0  0  0  0  0  0  0  0  0  0
  126.1860  123.7710   59.8640 C   0  0  0  0  0  0  0  0  0  0  0  0
  128.8790  122.7250   61.8580 N   0  0  0  0  0  0  0  0  0  0  0  0
  129.6000  123.4130   62.7480 N   0  0  0  0  0  0  0  0  0  0  0  0
  130.3270  122.7200   63.8120 C   0  0  0  0  0  0  0  0  0  0  0  0
  129.7350  122.8910   65.2220 C   0  0  0  0  0  0  0  0  0  0  0  0
  129.0820  121.9830   65.7480 O   0  0  0  0  0  0  0  0  0  0  0  0
  129.9840  124.0810   65.8020 N   0  0  0  0  0  0  0  0  0  0  0  0
  129.6090  124.2530   67.1270 N   0  0  0  0  0  0  0  0  0  0  0  0
  129.4920  125.5170   67.5900 C   0  0  0  0  0  0  0  0  0  0  0  0
  129.5970  126.5250   66.8840 O   0  0  0  0  0  0  0  0  0  0  0  0
  129.1880  125.6480   69.0690 C   0  0  0  0  0  0  0  0  0  0  0  0
  128.4400  126.7350   69.5340 C   0  0  0  0  0  0  0  0  0  0  0  0
  128.1590  126.8820   70.8880 C   0  0  0  0  0  0  0  0  0  0  0  0
  128.6260  125.9450   71.8240 C   0  0  0  0  0  0  0  0  0  0  0  0
  128.3930  126.0390   73.1850 O   0  0  0  0  0  0  0  0  0  0  0  0
  127.3170  126.8410   73.6580 C   0  0  0  0  0  0  0  0  0  0  0  0
  129.3820  124.8520   71.3790 C   0  0  0  0  0  0  0  0  0  0  0  0
  129.8360  123.9680   72.3440 O   0  0  0  0  0  0  0  0  0  0  0  0
  131.0000  123.1900   72.0940 C   0  0  0  0  0  0  0  0  0  0  0  0
  129.6540  124.7120   70.0060 C   0  0  0  0  0  0  0  0  0  0  0  0
  132.0440  121.5860   60.3300 C   0  0  0  0  0  0  0  0  0  0  0  0
  132.5290  120.2930   60.1500 C   0  0  0  0  0  0  0  0  0  0  0  0
  1  2  1  0
  2  3  1  0
  3  4  2  0
  4  5  1  0
  5  6  2  0
  6  7  1  0
  7  8  1  0
  8  9  2  0
  8 10  1  0
 10 11  1  0
 11 12  1  0
 12 13  2  0
 13 14  1  0
 14 15  1  0
 15 16  2  0
 16 17  1  0
 17 18  2  0
 18 19  1  0
 19 20  2  0
 14 21  2  0
 21 22  1  0
 22 23  1  0
 23 24  1  0
 24 25  2  0
 24 26  1  0
 26 27  1  0
 27 28  1  0
 28 29  2  0
 28 30  1  0
 30 31  2  0
 31 32  1  0
 32 33  2  0
 33 34  1  0
 34 35  1  0
 33 36  1  0
 36 37  1  0
 37 38  1  0
 36 39  2  0
  6 40  1  0
 40 41  2  0
 41  3  1  0
 22 12  1  0
 39 30  1  0
 20 15  1  0
M  END
>  <Binding energies>  (74) 
[-8.27]

>  <Ligand effiencies>  (74) 
[-0.18795454545454546]

>  <Interactions>  (74) 
["V-B:GLU:543:CA:9876, V-A:HIS:456:CD2:4068, V-B:TYR:539:CD2:9846, V-A:LEU:475:CD1:4258, V-B:GLU:543:CB:9878, H-A:TYR:484:OH:4348, V-A:TYR:484:CZ:4347, V-B:GLU:543:C:9874, V-A:TYR:484:CE1:4345, V-B:HIS:456:CE1:9040, V-B:TYR:539:CE2:9848, V-A:HIS:456:CE1:4069, V-B:GLU:543:CG:9879, V-A:ARG:545:CZ:4926, V-B:PRO:540:CA:9855, V-B:ALA:541:CB:9864, H-B:LYS:547:NZ:9923, V-B:TYR:539:C:9839, V-B:PRO:540:CB:9857, V-B:PRO:540:N:9856, V-A:ILE:369:CD1:3239, V-A:GLY:454:CA:4049, V-A:ILE:369:CG2:3237, H-A:GLY:454:N:4050, V-A:TRP:381:CZ2:3370, V-A:TRP:381:CH2:3372, H-B:GLU:543:O:9875, V-A:TYR:484:CG:4342, V-A:TYR:484:CE2:4346, V-A:HIS:456:CG:4066, V-A:TYR:484:CD2:4344, V-A:HIS:456:CB:4065, V-B:PRO:540:CD:9859, V-A:SER:385:CA:3407, V-A:SER:385:C:3405, V-A:VAL:384:C:3397"]

$$$$
RR22_Rahimova_2017
     RDKit          3D

 31 36  0  0  0  0  0  0  0  0999 V2000
  134.5380  124.9980   64.8180 O   0  0  0  0  0  0  0  0  0  0  0  0
  133.3480  124.9590   64.5140 C   0  0  0  0  0  0  0  0  0  0  0  0
  132.3270  125.7600   64.9960 N   0  0  0  0  0  0  0  0  0  0  0  0
  130.9960  125.6260   64.4890 C   0  0  1  0  0  0  0  0  0  0  0  0
  130.1790  125.3840   65.6380 O   0  0  0  0  0  0  0  0  0  0  0  0
  129.1510  126.2840   65.9220 C   0  0  0  0  0  0  0  0  0  0  0  0
  128.6250  126.2410   67.2130 C   0  0  0  0  0  0  0  0  0  0  0  0
  127.5670  127.0820   67.5590 C   0  0  0  0  0  0  0  0  0  0  0  0
  127.0330  127.9580   66.6140 C   0  0  0  0  0  0  0  0  0  0  0  0
  127.5590  128.0010   65.3210 C   0  0  0  0  0  0  0  0  0  0  0  0
  128.6350  127.1810   64.9670 C   0  0  0  0  0  0  0  0  0  0  0  0
  129.2470  127.1210   63.5860 C   0  0  1  0  0  0  0  0  0  0  0  0
  129.3090  128.3260   62.6690 C   0  0  0  0  0  0  0  0  0  0  0  0
  130.5840  127.9970   61.8880 C   0  0  0  0  0  0  0  0  0  0  0  0
  130.9180  128.6330   60.5990 C   0  0  0  0  0  0  0  0  0  0  0  0
  131.1580  130.0130   60.5250 C   0  0  0  0  0  0  0  0  0  0  0  0
  131.4730  130.6090   59.3070 C   0  0  0  0  0  0  0  0  0  0  0  0
  131.5500  129.8290   58.1560 C   0  0  0  0  0  0  0  0  0  0  0  0
  131.3140  128.4580   58.2120 C   0  0  0  0  0  0  0  0  0  0  0  0
  131.0000  127.8610   59.4300 C   0  0  0  0  0  0  0  0  0  0  0  0
  131.3000  127.1390   62.5130 N   0  0  0  0  0  0  0  0  0  0  0  0
  130.6420  126.8250   63.7150 N   0  0  0  0  0  0  0  0  0  0  0  0
  130.9750  124.3550   63.6520 C   0  0  0  0  0  0  0  0  0  0  0  0
  129.8300  123.7240   63.2980 C   0  0  0  0  0  0  0  0  0  0  0  0
  129.6660  122.5070   62.4800 C   0  0  0  0  0  0  0  0  0  0  0  0
  130.4810  121.3740   62.6180 C   0  0  0  0  0  0  0  0  0  0  0  0
  130.2670  120.2580   61.8080 C   0  0  0  0  0  0  0  0  0  0  0  0
  129.2380  120.3060   60.8670 C   0  0  0  0  0  0  0  0  0  0  0  0
  128.4400  121.3910   60.7060 N   0  0  0  0  0  0  0  0  0  0  0  0
  128.6630  122.4660   61.5040 C   0  0  0  0  0  0  0  0  0  0  0  0
  132.6210  123.7990   63.3170 S   0  0  0  0  0  0  0  0  0  0  0  0
  1  2  2  0
  2  3  1  0
  4  3  1  1
  4  5  1  0
  5  6  1  0
  6  7  2  0
  7  8  1  0
  8  9  2  0
  9 10  1  0
 10 11  2  0
 11 12  1  0
 12 13  1  1
 13 14  1  0
 14 15  1  0
 15 16  2  0
 16 17  1  0
 17 18  2  0
 18 19  1  0
 19 20  2  0
 14 21  2  0
 21 22  1  0
  4 23  1  0
 23 24  2  0
 24 25  1  0
 25 26  2  0
 26 27  1  0
 27 28  2  0
 28 29  1  0
 29 30  2  0
 23 31  1  0
 31  2  1  0
 22  4  1  0
 30 25  1  0
 11  6  1  0
 22 12  1  0
 20 15  1  0
M  END
>  <Binding energies>  (75) 
[-8.53]

>  <Ligand effiencies>  (75) 
[-0.2665625]

>  <Interactions>  (75) 
["V-A:GLU:543:CD:4908, V-B:GLU:543:CD:9880, V-A:ASP:366:CG:3213, V-B:TYR:539:CD2:9846, V-A:LEU:475:CD1:4258, H-B:ALA:541:N:9863, V-B:GLU:543:CB:9878, H-A:TYR:484:OH:4348, V-B:HIS:456:CE1:9040, V-A:HIS:456:CE1:4069, V-B:GLU:543:CG:9879, V-A:PRO:540:CA:4883, V-A:PRO:540:CB:4885, V-A:ARG:545:CZ:4926, V-B:ALA:541:CB:9864, V-B:TYR:539:C:9839, V-B:PRO:540:C:9853, H-A:GLY:454:N:4050, H-A:ARG:545:NH1:4927, V-B:ALA:541:CA:9862, H-A:ARG:545:NE:4924, V-A:PRO:482:CG:4327, V-A:PRO:482:CB:4326, H-A:ARG:545:NH2:4928, H-A:GLU:543:OE2:4910"]

$$$$
RR24_Rahimova_2017
     RDKit          3D

 43 49  0  0  0  0  0  0  0  0999 V2000
  127.9110  132.3390   64.8420 C   0  0  0  0  0  0  0  0  0  0  0  0
  126.9120  132.5260   63.6910 C   0  0  2  0  0  0  0  0  0  0  0  0
  125.6200  131.6730   63.8550 C   0  0  0  0  0  0  0  0  0  0  0  0
  124.5840  132.1390   64.3410 O   0  0  0  0  0  0  0  0  0  0  0  0
  125.7860  130.3850   63.4330 O   0  0  0  0  0  0  0  0  0  0  0  0
  126.7100  129.5790   64.0580 C   0  0  0  0  0  0  0  0  0  0  0  0
  127.8950  129.2540   63.3940 C   0  0  0  0  0  0  0  0  0  0  0  0
  128.8410  128.4480   64.0200 C   0  0  0  0  0  0  0  0  0  0  0  0
  128.6120  127.9700   65.3130 C   0  0  0  0  0  0  0  0  0  0  0  0
  129.6500  127.0660   65.9890 C   0  0  1  0  0  0  0  0  0  0  0  0
  129.4150  126.9580   67.5140 C   0  0  0  0  0  0  0  0  0  0  0  0
  129.3460  125.7790   68.1590 C   0  0  0  0  0  0  0  0  0  0  0  0
  129.4770  124.5780   67.5050 N   0  0  0  0  0  0  0  0  0  0  0  0
  129.6860  124.5230   66.1470 C   0  0  0  0  0  0  0  0  0  0  0  0
  129.8030  123.2620   65.6570 N   0  0  0  0  0  0  0  0  0  0  0  0
  129.9350  123.0080   64.3260 C   0  0  0  0  0  0  0  0  0  0  0  0
  129.7180  121.8700   63.9070 O   0  0  0  0  0  0  0  0  0  0  0  0
  130.1470  124.1380   63.5530 N   0  0  0  0  0  0  0  0  0  0  0  0
  130.3870  123.9100   62.1130 C   0  0  0  0  0  0  0  0  0  0  0  0
  130.0500  125.4620   63.9470 C   0  0  0  0  0  0  0  0  0  0  0  0
  130.2010  126.4240   63.1880 O   0  0  0  0  0  0  0  0  0  0  0  0
  129.7700  125.6390   65.3760 C   0  0  0  0  0  0  0  0  0  0  0  0
  129.1190  125.9780   69.5800 C   0  0  0  0  0  0  0  0  0  0  0  0
  128.9700  125.0980   70.6530 C   0  0  0  0  0  0  0  0  0  0  0  0
  128.7580  125.6140   71.9340 C   0  0  0  0  0  0  0  0  0  0  0  0
  128.6980  126.9970   72.1350 C   0  0  0  0  0  0  0  0  0  0  0  0
  128.8480  127.8730   71.0570 C   0  0  0  0  0  0  0  0  0  0  0  0
  129.0580  127.3510   69.7790 C   0  0  0  0  0  0  0  0  0  0  0  0
  129.2490  128.0360   68.4830 C   0  0  0  0  0  0  0  0  0  0  0  0
  129.2710  129.2380   68.2240 O   0  0  0  0  0  0  0  0  0  0  0  0
  127.4320  128.3120   65.9820 C   0  0  0  0  0  0  0  0  0  0  0  0
  126.4860  129.1200   65.3580 C   0  0  0  0  0  0  0  0  0  0  0  0
  127.5530  132.3350   62.3560 N   0  0  0  0  0  0  0  0  0  0  0  0
  126.8210  132.3460   61.2060 C   0  0  0  0  0  0  0  0  0  0  0  0
  125.6020  132.4940   61.0960 O   0  0  0  0  0  0  0  0  0  0  0  0
  127.8020  132.1400   60.1120 C   0  0  0  0  0  0  0  0  0  0  0  0
  127.6260  132.0600   58.7300 C   0  0  0  0  0  0  0  0  0  0  0  0
  128.7510  131.8590   57.9220 C   0  0  0  0  0  0  0  0  0  0  0  0
  130.0230  131.7450   58.4980 C   0  0  0  0  0  0  0  0  0  0  0  0
  130.1790  131.8290   59.8860 C   0  0  0  0  0  0  0  0  0  0  0  0
  129.0450  132.0270   60.6750 C   0  0  0  0  0  0  0  0  0  0  0  0
  128.8930  132.1580   62.1450 C   0  0  0  0  0  0  0  0  0  0  0  0
  129.7850  132.1200   62.9930 O   0  0  0  0  0  0  0  0  0  0  0  0
  2  1  1  1
  2  3  1  0
  3  4  2  0
  3  5  1  0
  5  6  1  0
  6  7  2  0
  7  8  1  0
  8  9  2  0
 10  9  1  6
 10 11  1  0
 11 12  2  0
 12 13  1  0
 13 14  1  0
 14 15  1  0
 15 16  1  0
 16 17  2  0
 16 18  1  0
 18 19  1  0
 18 20  1  0
 20 21  2  0
 20 22  1  0
 12 23  1  0
 23 24  2  0
 24 25  1  0
 25 26  2  0
 26 27  1  0
 27 28  2  0
 28 29  1  0
 29 30  2  0
  9 31  1  0
 31 32  2  0
  2 33  1  0
 33 34  1  0
 34 35  2  0
 34 36  1  0
 36 37  2  0
 37 38  1  0
 38 39  2  0
 39 40  1  0
 40 41  2  0
 41 42  1  0
 42 43  2  0
 32  6  1  0
 42 33  1  0
 22 10  1  0
 28 23  1  0
 41 36  1  0
 29 11  1  0
 22 14  2  0
M  END
>  <Binding energies>  (76) 
[-9.89]

>  <Ligand effiencies>  (76) 
[-0.2197777777777778]

>  <Interactions>  (76) 
["V-B:GLU:543:CA:9876, V-A:GLU:543:CD:4908, V-A:HIS:456:CD2:4068, V-B:GLU:543:CB:9878, H-B:HIS:456:NE2:9041, H-A:TYR:484:OH:4348, V-A:TYR:484:CZ:4347, V-B:GLU:543:C:9874, V-A:TYR:484:CE1:4345, V-B:HIS:456:CE1:9040, V-A:HIS:456:CE1:4069, V-B:GLU:543:CG:9879, H-B:TYR:484:OH:9319, V-A:ALA:541:CB:4892, V-A:PRO:540:CA:4883, V-A:TYR:539:CD2:4874, V-A:TYR:539:CZ:4877, V-A:TYR:539:CE2:4876, V-A:GLU:543:CB:4906, V-A:PRO:540:CB:4885, V-B:ALA:541:CB:9864, V-B:TYR:484:CE1:9316, V-B:LEU:475:CD1:9229, V-B:TYR:484:CZ:9318, H-B:GLY:454:N:9021, H-B:GLU:543:O:9875, H-A:ALA:541:N:4891, V-A:PRO:540:N:4884, V-B:HIS:456:CD2:9039"]

$$$$
RR25_Rahimova_2017
     RDKit          3D

 39 44  0  0  0  0  0  0  0  0999 V2000
  123.5520  130.2820   65.4860 O   0  0  0  0  0  0  0  0  0  0  0  0
  124.6160  130.3400   64.8690 C   0  0  0  0  0  0  0  0  0  0  0  0
  124.5550  130.8700   63.6040 O   0  0  0  0  0  0  0  0  0  0  0  0
  125.7010  131.2180   62.9110 C   0  0  0  0  0  0  0  0  0  0  0  0
  125.5690  132.2110   61.9410 C   0  0  0  0  0  0  0  0  0  0  0  0
  126.6810  132.6050   61.1990 C   0  0  0  0  0  0  0  0  0  0  0  0
  127.9340  132.0120   61.4120 C   0  0  0  0  0  0  0  0  0  0  0  0
  129.1180  132.4400   60.6270 N   0  0  0  0  0  0  0  0  0  0  0  0
  130.2320  132.3290   61.1350 O   0  0  0  0  0  0  0  0  0  0  0  0
  128.9430  132.8880   59.4980 O   0  0  0  0  0  0  0  0  0  0  0  0
  128.0430  131.0060   62.3860 C   0  0  0  0  0  0  0  0  0  0  0  0
  126.9360  130.5930   63.1330 C   0  0  0  0  0  0  0  0  0  0  0  0
  127.0040  129.5190   64.2030 C   0  0  0  0  0  0  0  0  0  0  0  0
  126.0160  129.8630   65.3540 C   0  0  2  0  0  0  0  0  0  0  0  0
  125.9860  128.7320   66.4230 C   0  0  0  0  0  0  0  0  0  0  0  0
  124.8680  128.3850   66.8140 O   0  0  0  0  0  0  0  0  0  0  0  0
  127.1170  128.0710   66.8160 N   0  0  0  0  0  0  0  0  0  0  0  0
  128.4740  128.6280   66.6330 C   0  0  0  0  0  0  0  0  0  0  0  0
  129.4450  127.4800   66.2860 C   0  0  0  0  0  0  0  0  0  0  0  0
  129.3970  126.4160   67.2940 N   0  0  0  0  0  0  0  0  0  0  0  0
  130.4140  125.3870   67.0380 C   0  0  0  0  0  0  0  0  0  0  0  0
  131.3060  125.7130   65.8100 C   0  0  0  0  0  0  0  0  0  0  0  0
  131.3410  124.6820   64.7320 N   0  0  0  0  0  0  0  0  0  0  0  0
  130.1110  124.3050   64.2380 C   0  0  0  0  0  0  0  0  0  0  0  0
  129.0420  124.7520   64.6700 O   0  0  0  0  0  0  0  0  0  0  0  0
  130.1670  123.3060   63.0980 C   0  0  0  0  0  0  0  0  0  0  0  0
  128.9750  122.8740   62.5030 C   0  0  0  0  0  0  0  0  0  0  0  0
  128.9900  121.9620   61.4490 C   0  0  0  0  0  0  0  0  0  0  0  0
  130.1920  121.4590   60.9540 C   0  0  0  0  0  0  0  0  0  0  0  0
  131.4220  121.8670   61.5240 C   0  0  0  0  0  0  0  0  0  0  0  0
  132.6770  121.3970   61.0710 C   0  0  0  0  0  0  0  0  0  0  0  0
  133.8510  121.8420   61.6750 C   0  0  0  0  0  0  0  0  0  0  0  0
  133.8130  122.7510   62.7300 C   0  0  0  0  0  0  0  0  0  0  0  0
  132.5930  123.2440   63.2130 C   0  0  0  0  0  0  0  0  0  0  0  0
  131.3940  122.7960   62.6020 C   0  0  0  0  0  0  0  0  0  0  0  0
  132.5930  124.2400   64.3570 C   0  0  0  0  0  0  0  0  0  0  0  0
  133.6390  124.6260   64.8890 O   0  0  0  0  0  0  0  0  0  0  0  0
  128.0510  125.8440   67.3500 C   0  0  0  0  0  0  0  0  0  0  0  0
  126.9930  126.9100   67.7250 C   0  0  0  0  0  0  0  0  0  0  0  0
  1  2  2  0
  2  3  1  0
  3  4  1  0
  4  5  2  0
  5  6  1  0
  6  7  2  0
  7  8  1  0
  8  9  2  0
  8 10  1  0
  7 11  1  0
 11 12  2  0
 12 13  1  0
 13 14  1  0
 14 15  1  1
 15 16  2  0
 15 17  1  0
 17 18  1  0
 18 19  1  0
 19 20  1  0
 20 21  1  0
 21 22  1  0
 22 23  1  0
 23 24  1  0
 24 25  2  0
 24 26  1  0
 26 27  2  0
 27 28  1  0
 28 29  2  0
 29 30  1  0
 30 31  2  0
 31 32  1  0
 32 33  2  0
 33 34  1  0
 34 35  2  0
 34 36  1  0
 36 37  2  0
 20 38  1  0
 38 39  1  0
 14  2  1  0
 39 17  1  0
 12  4  1  0
 36 23  1  0
 35 26  1  0
 35 30  1  0
M  CHG  2   8   1  10  -1
M  END
>  <Binding energies>  (77) 
[-10.48]

>  <Ligand effiencies>  (77) 
[-0.26871794871794874]

>  <Interactions>  (77) 
["V-B:GLU:543:CA:9876, V-A:GLU:543:CD:4908, V-B:TYR:539:CD2:9846, V-A:LEU:475:CD1:4258, V-B:GLU:543:CB:9878, H-A:TYR:484:OH:4348, V-A:TYR:484:CZ:4347, V-B:GLU:543:C:9874, V-A:TYR:484:CE1:4345, V-B:HIS:456:CE1:9040, V-B:TYR:539:CE2:9848, V-A:HIS:456:CE1:4069, V-B:GLU:543:CG:9879, V-B:ARG:545:CZ:9898, H-B:TYR:484:OH:9319, V-B:ARG:545:CG:9894, V-A:PRO:540:CA:4883, V-A:GLU:543:CB:4906, V-B:ALA:541:CB:9864, V-A:GLU:543:CG:4907, V-B:LEU:475:CD1:9229, V-B:GLY:454:CA:9020, V-B:TYR:484:CZ:9318, V-A:ILE:369:CD1:3239, V-A:GLY:454:CA:4049, H-A:GLY:454:N:4050, H-B:GLY:454:N:9021, H-B:ARG:545:NE:9896, H-A:ALA:541:N:4891, H-B:ILE:455:N:9026"]

$$$$
RR27_Rahimova_2017
     RDKit          3D

 39 44  0  0  0  0  0  0  0  0999 V2000
  126.9060  122.7450   61.7320 O   0  0  0  0  0  0  0  0  0  0  0  0
  127.7740  123.1390   60.9480 C   0  0  0  0  0  0  0  0  0  0  0  0
  129.2410  123.2350   61.4590 C   0  0  0  0  0  0  0  0  0  0  0  0
  130.0420  121.9380   61.2430 C   0  0  0  0  0  0  0  0  0  0  0  0
  129.4120  120.6890   61.1230 C   0  0  0  0  0  0  0  0  0  0  0  0
  130.1670  119.5370   60.9260 C   0  0  0  0  0  0  0  0  0  0  0  0
  131.5540  119.6260   60.8500 C   0  0  0  0  0  0  0  0  0  0  0  0
  132.1940  120.8560   60.9700 C   0  0  0  0  0  0  0  0  0  0  0  0
  131.4390  122.0090   61.1660 C   0  0  0  0  0  0  0  0  0  0  0  0
  129.3130  123.8130   62.8850 C   0  0  0  0  0  0  0  0  0  0  0  0
  129.1150  125.1770   63.1380 C   0  0  0  0  0  0  0  0  0  0  0  0
  129.1990  125.6690   64.4390 C   0  0  0  0  0  0  0  0  0  0  0  0
  129.4860  124.8000   65.4890 C   0  0  0  0  0  0  0  0  0  0  0  0
  129.6960  123.4450   65.2500 C   0  0  0  0  0  0  0  0  0  0  0  0
  129.6130  122.9550   63.9500 C   0  0  0  0  0  0  0  0  0  0  0  0
  127.5050  123.3430   59.6270 N   0  0  0  0  0  0  0  0  0  0  0  0
  128.4180  124.0460   58.7130 C   0  0  0  0  0  0  0  0  0  0  0  0
  128.0860  125.5510   58.8180 C   0  0  0  0  0  0  0  0  0  0  0  0
  126.5800  125.8570   58.5400 C   0  0  0  0  0  0  0  0  0  0  0  0
  126.1720  127.3290   58.7420 C   0  0  0  0  0  0  0  0  0  0  0  0
  125.4320  127.8960   57.7460 N   0  0  0  0  0  0  0  0  0  0  0  0
  125.0220  129.1870   57.8880 C   0  0  0  0  0  0  0  0  0  0  0  0
  124.2730  129.8630   56.9610 O   0  0  0  0  0  0  0  0  0  0  0  0
  125.3830  129.8860   59.0560 C   0  0  0  0  0  0  0  0  0  0  0  0
  125.1430  131.1500   59.5090 N   0  0  0  0  0  0  0  0  0  0  0  0
  125.7640  131.2720   60.7380 N   0  0  0  0  0  0  0  0  0  0  0  0
  126.3670  130.1020   61.0390 N   0  0  0  0  0  0  0  0  0  0  0  0
  127.1250  129.9560   62.2790 C   0  0  0  0  0  0  0  0  0  0  0  0
  126.2500  129.8050   63.5170 C   0  0  0  0  0  0  0  0  0  0  0  0
  124.9800  130.3900   63.5570 C   0  0  0  0  0  0  0  0  0  0  0  0
  124.1750  130.2410   64.6880 C   0  0  0  0  0  0  0  0  0  0  0  0
  124.6320  129.5050   65.7800 C   0  0  0  0  0  0  0  0  0  0  0  0
  125.8950  128.9110   65.7410 C   0  0  0  0  0  0  0  0  0  0  0  0
  126.4520  127.9760   67.0820 Cl  0  0  0  0  0  0  0  0  0  0  0  0
  126.7030  129.0650   64.6150 C   0  0  0  0  0  0  0  0  0  0  0  0
  126.1610  129.1970   60.0110 C   0  0  0  0  0  0  0  0  0  0  0  0
  126.5820  127.9340   59.8940 N   0  0  0  0  0  0  0  0  0  0  0  0
  125.6370  124.8490   59.2670 C   0  0  0  0  0  0  0  0  0  0  0  0
  126.1120  123.3790   59.1530 C   0  0  0  0  0  0  0  0  0  0  0  0
  1  2  2  0
  2  3  1  0
  3  4  1  0
  4  5  2  0
  5  6  1  0
  6  7  2  0
  7  8  1  0
  8  9  2  0
  3 10  1  0
 10 11  2  0
 11 12  1  0
 12 13  2  0
 13 14  1  0
 14 15  2  0
  2 16  1  0
 16 17  1  0
 17 18  1  0
 18 19  1  0
 19 20  1  0
 20 21  2  0
 21 22  1  0
 22 23  1  0
 22 24  2  0
 24 25  1  0
 25 26  2  0
 26 27  1  0
 27 28  1  0
 28 29  1  0
 29 30  2  0
 30 31  1  0
 31 32  2  0
 32 33  1  0
 33 34  1  0
 33 35  2  0
 27 36  1  0
 36 37  2  0
 19 38  1  0
 38 39  1  0
  9  4  1  0
 15 10  1  0
 39 16  1  0
 37 20  1  0
 36 24  1  0
 35 29  1  0
M  END
>  <Binding energies>  (78) 
[-9.63]

>  <Ligand effiencies>  (78) 
[-0.24075000000000002]

>  <Interactions>  (78) 
["V-B:GLU:543:CA:9876, V-B:GLU:543:CD:9880, V-B:TYR:539:CD2:9846, V-A:LEU:475:CD1:4258, H-B:ALA:541:N:9863, V-B:GLU:543:CB:9878, V-A:TYR:484:CZ:4347, V-A:TYR:484:CE1:4345, V-B:HIS:456:CE1:9040, V-B:TYR:539:CE2:9848, V-B:GLU:543:CG:9879, V-B:ARG:545:CD:9895, V-B:ARG:545:CZ:9898, V-B:ARG:545:CG:9894, V-B:PRO:540:CA:9855, V-B:ALA:541:CB:9864, V-B:PRO:540:CB:9857, V-B:PRO:540:N:9856, V-B:GLY:454:CA:9020, V-A:TRP:381:CZ2:3370, V-B:ALA:541:CA:9862, V-A:PRO:482:CG:4327, V-A:PRO:482:CB:4326, V-A:TRP:381:CH2:3372, V-B:ASP:366:CG:8184, V-B:ASP:366:CB:8183, H-A:TYR:539:OH:4878, H-B:TYR:531:OH:9767"]

$$$$
RR28_Rahimova_2017
     RDKit          3D

 46 49  0  0  0  0  0  0  0  0999 V2000
  127.5570  133.1180   64.0760 C   0  0  0  0  0  0  0  0  0  0  0  0
  127.7790  131.6320   63.8170 C   0  0  0  0  0  0  0  0  0  0  0  0
  128.6360  131.2780   63.0090 O   0  0  0  0  0  0  0  0  0  0  0  0
  126.9970  130.7810   64.5120 N   0  0  0  0  0  0  0  0  0  0  0  0
  126.9830  129.3010   64.4610 C   0  0  0  0  0  0  0  0  0  0  0  0
  127.0680  128.8650   62.9700 C   0  0  0  0  0  0  0  0  0  0  0  0
  128.2160  128.2010   62.5120 C   0  0  0  0  0  0  0  0  0  0  0  0
  128.3280  127.8000   61.1840 C   0  0  0  0  0  0  0  0  0  0  0  0
  127.2930  128.0550   60.2820 C   0  0  0  0  0  0  0  0  0  0  0  0
  127.4360  127.6110   58.8270 C   0  0  0  0  0  0  0  0  0  0  0  0
  126.2880  127.1520   58.3220 F   0  0  0  0  0  0  0  0  0  0  0  0
  127.8400  128.6310   58.0700 F   0  0  0  0  0  0  0  0  0  0  0  0
  128.3420  126.6360   58.7530 F   0  0  0  0  0  0  0  0  0  0  0  0
  126.1450  128.7170   60.7260 C   0  0  0  0  0  0  0  0  0  0  0  0
  126.0340  129.1180   62.0550 C   0  0  0  0  0  0  0  0  0  0  0  0
  125.7260  128.7370   65.2150 C   0  0  0  0  0  0  0  0  0  0  0  0
  125.7480  129.0170   66.7390 C   0  0  0  0  0  0  0  0  0  0  0  0
  126.9770  128.3970   67.2590 N   0  0  0  0  0  0  0  0  0  0  0  0
  126.9490  127.1320   67.7630 C   0  0  0  0  0  0  0  0  0  0  0  0
  125.8910  126.5300   67.9590 O   0  0  0  0  0  0  0  0  0  0  0  0
  128.2700  126.4940   68.2570 C   0  0  0  0  0  0  0  0  0  0  0  0
  128.8500  125.3600   67.3680 C   0  0  0  0  0  0  0  0  0  0  0  0
  129.9300  125.8070   66.3550 C   0  0  0  0  0  0  0  0  0  0  0  0
  130.2280  127.0040   66.3190 O   0  0  0  0  0  0  0  0  0  0  0  0
  130.6130  124.8700   65.6380 N   0  0  0  0  0  0  0  0  0  0  0  0
  130.1120  123.5110   65.4010 C   0  0  0  0  0  0  0  0  0  0  0  0
  129.1960  123.5890   64.1600 C   0  0  0  0  0  0  0  0  0  0  0  0
  129.8810  124.1710   62.8750 C   0  0  0  0  0  0  0  0  0  0  0  0
  128.8380  124.5660   61.9050 N   0  0  0  0  0  0  0  0  0  0  0  0
  127.8600  123.8010   61.3780 C   0  0  0  0  0  0  0  0  0  0  0  0
  126.9320  124.4850   60.3790 C   0  0  0  0  0  0  0  0  0  0  0  0
  127.6870  122.6150   61.6560 O   0  0  0  0  0  0  0  0  0  0  0  0
  130.7150  123.0190   62.2260 C   0  0  0  0  0  0  0  0  0  0  0  0
  131.8490  123.2540   61.4310 C   0  0  0  0  0  0  0  0  0  0  0  0
  132.5650  122.1990   60.8720 C   0  0  0  0  0  0  0  0  0  0  0  0
  132.1640  120.8790   61.0920 C   0  0  0  0  0  0  0  0  0  0  0  0
  132.9420  119.7100   60.4900 C   0  0  0  0  0  0  0  0  0  0  0  0
  134.2540  119.9470   60.5300 F   0  0  0  0  0  0  0  0  0  0  0  0
  132.6860  118.6070   61.1920 F   0  0  0  0  0  0  0  0  0  0  0  0
  132.6050  119.4840   59.2190 F   0  0  0  0  0  0  0  0  0  0  0  0
  131.0350  120.6290   61.8740 C   0  0  0  0  0  0  0  0  0  0  0  0
  130.3220  121.6860   62.4300 C   0  0  0  0  0  0  0  0  0  0  0  0
  130.7570  125.4200   63.2800 C   0  0  0  0  0  0  0  0  0  0  0  0
  131.5640  125.2870   64.5990 C   0  0  0  0  0  0  0  0  0  0  0  0
  128.2060  129.0180   66.7460 C   0  0  0  0  0  0  0  0  0  0  0  0
  128.2410  128.7610   65.2170 C   0  0  0  0  0  0  0  0  0  0  0  0
  1  2  1  0
  2  3  2  0
  2  4  1  0
  4  5  1  0
  5  6  1  0
  6  7  2  0
  7  8  1  0
  8  9  2  0
  9 10  1  0
 10 11  1  0
 10 12  1  0
 10 13  1  0
  9 14  1  0
 14 15  2  0
  5 16  1  0
 16 17  1  0
 17 18  1  0
 18 19  1  0
 19 20  2  0
 19 21  1  0
 21 22  1  0
 22 23  1  0
 23 24  2  0
 23 25  1  0
 25 26  1  0
 26 27  1  0
 27 28  1  0
 28 29  1  0
 29 30  1  0
 30 31  1  0
 30 32  2  0
 28 33  1  0
 33 34  2  0
 34 35  1  0
 35 36  2  0
 36 37  1  0
 37 38  1  0
 37 39  1  0
 37 40  1  0
 36 41  1  0
 41 42  2  0
 28 43  1  0
 43 44  1  0
 18 45  1  0
 45 46  1  0
 46  5  1  0
 15  6  1  0
 44 25  1  0
 42 33  1  0
M  END
>  <Binding energies>  (79) 
[-7.71]

>  <Ligand effiencies>  (79) 
[-0.160625]

>  <Interactions>  (79) 
["V-B:GLU:543:CA:9876, V-A:GLU:543:CD:4908, V-B:GLU:543:CD:9880, V-B:TYR:539:CD2:9846, V-A:LEU:475:CD1:4258, H-B:ALA:541:N:9863, V-B:GLU:543:CB:9878, V-A:TYR:484:CZ:4347, V-B:GLU:543:C:9874, V-A:TYR:484:CE1:4345, V-B:HIS:456:CE1:9040, V-B:TYR:539:CE2:9848, V-A:HIS:456:CE1:4069, V-B:GLU:543:CG:9879, V-B:ARG:545:CZ:9898, H-B:TYR:484:OH:9319, V-B:ARG:545:CG:9894, V-A:ALA:541:CB:4892, V-A:GLU:543:CB:4906, H-B:ARG:545:N:9892, V-B:ALA:541:CB:9864, V-B:LEU:475:CD1:9229, V-A:ILE:369:CD1:3239, V-A:ILE:369:CB:3236, V-A:ILE:369:CG2:3237, V-A:TRP:381:CZ2:3370, V-A:TRP:381:CH2:3372, V-B:ASP:366:CG:8184, V-A:ILE:369:CG1:3238, V-A:SER:385:C:3405, V-A:TRP:381:CZ3:3371, V-B:LEU:475:CD2:9230, V-B:LEU:475:CG:9228"]

$$$$
RR29_Rahimova_2017
     RDKit          3D

 18 19  0  0  0  0  0  0  0  0999 V2000
  126.4540  127.5790   67.1240 C   0  0  0  0  0  0  0  0  0  0  0  0
  127.9370  127.2680   66.9800 C   0  0  0  0  0  0  0  0  0  0  0  0
  128.7250  127.4620   68.2940 C   0  0  0  0  0  0  0  0  0  0  0  0
  127.9990  126.8180   69.4940 C   0  0  0  0  0  0  0  0  0  0  0  0
  128.8210  126.8930   70.7720 C   0  0  0  0  0  0  0  0  0  0  0  0
  129.4970  128.0830   71.1060 C   0  0  0  0  0  0  0  0  0  0  0  0
  130.2590  128.1730   72.2790 C   0  0  0  0  0  0  0  0  0  0  0  0
  130.3290  127.0450   73.0890 C   0  0  0  0  0  0  0  0  0  0  0  0
  129.6760  125.8870   72.7690 C   0  0  0  0  0  0  0  0  0  0  0  0
  128.9060  125.7720   71.6180 C   0  0  0  0  0  0  0  0  0  0  0  0
  129.8890  124.9670   73.7470 O   0  0  0  0  0  0  0  0  0  0  0  0
  130.8720  125.5200   74.5800 C   0  0  0  0  0  0  0  0  0  0  0  0
  130.9700  126.8870   74.2770 O   0  0  0  0  0  0  0  0  0  0  0  0
  128.3780  126.9000   65.8340 N   0  0  0  0  0  0  0  0  0  0  0  0
  129.7320  126.7010   65.6790 N   0  0  0  0  0  0  0  0  0  0  0  0
  130.4080  125.6760   66.2240 C   0  0  0  0  0  0  0  0  0  0  0  0
  129.8620  124.7120   66.9670 N   0  0  0  0  0  0  0  0  0  0  0  0
  131.7140  125.6160   66.0100 N   0  0  0  0  0  0  0  0  0  0  0  0
  1  2  1  0
  2  3  1  0
  3  4  1  0
  4  5  1  0
  5  6  2  0
  6  7  1  0
  7  8  2  0
  8  9  1  0
  9 10  2  0
  9 11  1  0
 11 12  1  0
 12 13  1  0
  2 14  2  0
 14 15  1  0
 15 16  1  0
 16 17  1  0
 16 18  2  0
 10  5  1  0
 13  8  1  0
M  CHG  1  18   1
M  END
>  <Binding energies>  (80) 
[-7.02]

>  <Ligand effiencies>  (80) 
[-0.30521739130434783]

>  <Interactions>  (80) 
["V-B:GLU:543:CA:9876, V-A:GLU:543:CD:4908, V-A:HIS:456:CD2:4068, V-B:GLU:543:CB:9878, H-A:TYR:484:OH:4348, V-A:TYR:484:CZ:4347, V-A:TYR:484:CE1:4345, V-B:HIS:456:CE1:9040, V-A:HIS:456:CE1:4069, V-B:ARG:545:CG:9894, H-B:LYS:547:NZ:9923, H-B:GLU:543:O:9875, H-A:GLU:543:OE1:4909, H-A:GLU:543:OE2:4910, V-B:HIS:456:CD2:9039, H-A:LYS:547:NZ:4951, H-A:HIS:456:ND1:4067, V-A:LYS:547:CE:4950"]

$$$$
RR30_Rahimova_2017
     RDKit          3D

 18 19  0  0  0  0  0  0  0  0999 V2000
  134.2800  125.3050   75.0580 C   0  0  0  0  0  0  0  0  0  0  0  0
  132.9440  124.5480   75.0200 C   0  0  0  0  0  0  0  0  0  0  0  0
  131.8350  125.3740   74.4080 C   0  0  0  0  0  0  0  0  0  0  0  0
  131.4070  126.5560   74.7750 N   0  0  0  0  0  0  0  0  0  0  0  0
  130.3700  126.8760   73.9030 N   0  0  0  0  0  0  0  0  0  0  0  0
  130.2540  125.8570   73.0900 C   0  0  0  0  0  0  0  0  0  0  0  0
  129.1210  125.6730   71.7510 S   0  0  0  0  0  0  0  0  0  0  0  0
  129.8840  124.2640   70.8860 C   0  0  0  0  0  0  0  0  0  0  0  0
  129.6430  122.9380   71.6150 C   0  0  0  0  0  0  0  0  0  0  0  0
  130.4720  122.5450   72.4380 O   0  0  0  0  0  0  0  0  0  0  0  0
  128.5240  122.2660   71.2630 N   0  0  0  0  0  0  0  0  0  0  0  0
  128.0970  121.0510   71.7780 C   0  0  0  0  0  0  0  0  0  0  0  0
  128.3900  120.5120   72.9400 N   0  0  0  0  0  0  0  0  0  0  0  0
  127.7790  119.2770   73.1180 N   0  0  0  0  0  0  0  0  0  0  0  0
  127.0410  118.9090   72.0970 C   0  0  0  0  0  0  0  0  0  0  0  0
  126.2790  117.6050   72.0520 C   0  0  0  0  0  0  0  0  0  0  0  0
  127.0370  120.0800   70.8060 S   0  0  0  0  0  0  0  0  0  0  0  0
  131.1520  124.8720   73.3480 O   0  0  0  0  0  0  0  0  0  0  0  0
  1  2  1  0
  2  3  1  0
  3  4  2  0
  4  5  1  0
  5  6  2  0
  6  7  1  0
  7  8  1  0
  8  9  1  0
  9 10  2  0
  9 11  1  0
 11 12  1  0
 12 13  2  0
 13 14  1  0
 14 15  2  0
 15 16  1  0
 15 17  1  0
  6 18  1  0
 18  3  1  0
 17 12  1  0
M  END
>  <Binding energies>  (81) 
[-6.19]

>  <Ligand effiencies>  (81) 
[-0.3257894736842106]

>  <Interactions>  (81) 
["V-A:HIS:456:CD2:4068, V-A:TYR:484:CZ:4347, V-B:GLU:543:C:9874, V-A:TYR:484:CE1:4345, V-A:HIS:456:CE1:4069, H-B:LYS:547:NZ:9923, H-B:GLU:543:O:9875, V-A:TYR:484:CG:4342, V-A:HIS:456:CG:4066, V-A:TYR:484:CD1:4343, V-A:TYR:484:CD2:4344, V-B:GLY:544:CA:9886, V-A:HIS:456:CB:4065, V-B:LYS:547:CE:9922, H-A:LYS:547:NZ:4951, H-B:GLY:544:O:9885, V-A:TYR:484:CB:4341, V-A:VAL:458:CG2:4087, V-A:HIS:456:C:4061"]

$$$$
RR31_Rahimova_2017
     RDKit          3D

 18 19  0  0  0  0  0  0  0  0999 V2000
  129.5440  126.1310   73.2950 C   0  0  0  0  0  0  0  0  0  0  0  0
  129.4120  126.3230   71.7900 C   0  0  0  0  0  0  0  0  0  0  0  0
  129.2350  127.6100   71.2810 C   0  0  0  0  0  0  0  0  0  0  0  0
  129.1150  127.8190   69.9090 C   0  0  0  0  0  0  0  0  0  0  0  0
  129.1750  126.7480   69.0030 C   0  0  0  0  0  0  0  0  0  0  0  0
  129.0460  126.9400   67.6260 N   0  0  0  0  0  0  0  0  0  0  0  0
  129.3960  125.8870   66.6530 C   0  0  0  0  0  0  0  0  0  0  0  0
  129.5830  126.4020   65.2060 C   0  0  0  0  0  0  0  0  0  0  0  0
  128.3900  127.1170   64.7460 N   0  0  0  0  0  0  0  0  0  0  0  0
  128.5240  127.5870   63.3640 C   0  0  0  0  0  0  0  0  0  0  0  0
  127.1880  128.0590   62.7560 C   0  0  0  0  0  0  0  0  0  0  0  0
  127.0740  127.7170   61.2620 C   0  0  0  0  0  0  0  0  0  0  0  0
  125.7530  126.9880   60.9910 N   0  0  0  0  0  0  0  0  0  0  0  0
  128.1940  128.2590   65.6380 C   0  0  0  0  0  0  0  0  0  0  0  0
  127.9610  127.7880   67.0910 C   0  0  0  0  0  0  0  0  0  0  0  0
  129.3440  125.4580   69.5290 C   0  0  0  0  0  0  0  0  0  0  0  0
  129.4650  125.2350   70.9050 C   0  0  0  0  0  0  0  0  0  0  0  0
  129.6430  123.8090   71.4130 C   0  0  0  0  0  0  0  0  0  0  0  0
  1  2  1  0
  2  3  2  0
  3  4  1  0
  4  5  2  0
  5  6  1  0
  6  7  1  0
  7  8  1  0
  8  9  1  0
  9 10  1  0
 10 11  1  0
 11 12  1  0
 12 13  1  0
  9 14  1  0
 14 15  1  0
  5 16  1  0
 16 17  2  0
 17 18  1  0
 17  2  1  0
 15  6  1  0
M  CHG  1  13   1
M  END
>  <Binding energies>  (82) 
[-6.23]

>  <Ligand effiencies>  (82) 
[-0.2966666666666667]

>  <Interactions>  (82) 
["V-A:GLU:543:CD:4908, V-A:HIS:456:CD2:4068, V-B:GLU:543:CD:9880, V-B:GLU:543:CB:9878, V-B:GLU:543:C:9874, V-B:HIS:456:CE1:9040, V-A:HIS:456:CE1:4069, H-B:GLU:543:OE2:9882, V-B:ASP:366:CG:8184, H-B:GLU:543:OE1:9881, H-B:ASP:366:OD1:8185, H-B:ASP:366:OD2:8186"]

$$$$
RR32_Rahimova_2017
     RDKit          3D

 18 20  0  0  0  0  0  0  0  0999 V2000
  127.2060  124.8120   57.4760 C   0  0  0  0  0  0  0  0  0  0  0  0
  127.1560  123.9760   58.7510 C   0  0  0  0  0  0  0  0  0  0  0  0
  128.3350  123.3750   59.1920 C   0  0  0  0  0  0  0  0  0  0  0  0
  128.3290  122.6070   60.3530 C   0  0  0  0  0  0  0  0  0  0  0  0
  129.5010  122.0130   60.7870 N   0  0  0  0  0  0  0  0  0  0  0  0
  129.5650  120.5400   60.7520 C   0  0  0  0  0  0  0  0  0  0  0  0
  130.8360  119.9680   61.4230 C   0  0  0  0  0  0  0  0  0  0  0  0
  132.0330  120.5030   60.7760 N   0  0  0  0  0  0  0  0  0  0  0  0
  133.2320  119.9390   61.3870 C   0  0  0  0  0  0  0  0  0  0  0  0
  132.0200  121.9560   60.9320 C   0  0  0  0  0  0  0  0  0  0  0  0
  130.7660  122.5580   60.2580 C   0  0  0  0  0  0  0  0  0  0  0  0
  127.2070  122.4070   61.0920 N   0  0  0  0  0  0  0  0  0  0  0  0
  126.0400  122.9780   60.6850 C   0  0  0  0  0  0  0  0  0  0  0  0
  124.8860  122.7500   61.4740 C   0  0  0  0  0  0  0  0  0  0  0  0
  123.6660  123.3080   61.1070 C   0  0  0  0  0  0  0  0  0  0  0  0
  123.5660  124.0940   59.9660 C   0  0  0  0  0  0  0  0  0  0  0  0
  124.6810  124.3370   59.1690 C   0  0  0  0  0  0  0  0  0  0  0  0
  125.9510  123.7860   59.5050 C   0  0  0  0  0  0  0  0  0  0  0  0
  1  2  1  0
  2  3  2  0
  3  4  1  0
  4  5  1  0
  5  6  1  0
  6  7  1  0
  7  8  1  0
  8  9  1  0
  8 10  1  0
 10 11  1  0
  4 12  2  0
 12 13  1  0
 13 14  2  0
 14 15  1  0
 15 16  2  0
 16 17  1  0
 17 18  2  0
 18  2  1  0
 11  5  1  0
 18 13  1  0
M  END
>  <Binding energies>  (83) 
[-6.06]

>  <Ligand effiencies>  (83) 
[-0.33666666666666667]

>  <Interactions>  (83) 
["V-B:GLU:543:CD:9880, V-B:TYR:539:CD2:9846, V-A:LEU:475:CD1:4258, H-B:ALA:541:N:9863, V-B:TYR:539:CE2:9848, V-B:GLU:543:CG:9879, V-B:PRO:540:CA:9855, V-B:ALA:541:CB:9864, V-B:PRO:540:CB:9857, V-B:PRO:540:C:9853, V-A:ILE:369:CD1:3239, V-B:ALA:541:CA:9862, V-A:TRP:381:CH2:3372, V-B:ASP:366:CG:8184, V-B:LEU:363:CA:8156, V-B:ASN:362:CB:8147, V-B:ALA:541:C:9860, V-B:ASN:362:C:8143"]

$$$$
RR5_Rahimova_2017
     RDKit          3D

 45 50  0  0  0  0  0  0  0  0999 V2000
  132.1590  126.1410   60.8800 O   0  0  0  0  0  0  0  0  0  0  0  0
  131.5250  125.4990   61.7170 C   0  0  0  0  0  0  0  0  0  0  0  0
  131.4890  125.9790   63.1800 C   0  0  0  0  0  0  0  0  0  0  0  0
  131.9760  124.9050   64.2170 C   0  0  2  0  0  0  0  0  0  0  0  0
  131.0480  124.6560   65.3390 N   0  0  0  0  0  0  0  0  0  0  0  0
  129.8790  123.9270   65.1680 C   0  0  0  0  0  0  0  0  0  0  0  0
  129.4990  123.3770   64.1310 O   0  0  0  0  0  0  0  0  0  0  0  0
  129.2060  123.9260   66.3310 O   0  0  0  0  0  0  0  0  0  0  0  0
  129.6990  124.6180   67.4750 C   0  0  0  0  0  0  0  0  0  0  0  0
  128.6490  125.6180   68.0070 C   0  0  0  0  0  0  0  0  0  0  0  0
  128.9740  126.1660   69.3850 C   0  0  0  0  0  0  0  0  0  0  0  0
  129.1800  125.4850   70.5880 C   0  0  0  0  0  0  0  0  0  0  0  0
  129.4940  126.1990   71.7460 C   0  0  0  0  0  0  0  0  0  0  0  0
  129.6010  127.5900   71.7050 C   0  0  0  0  0  0  0  0  0  0  0  0
  129.3930  128.2730   70.5060 C   0  0  0  0  0  0  0  0  0  0  0  0
  129.0790  127.5570   69.3490 C   0  0  0  0  0  0  0  0  0  0  0  0
  128.8050  128.0090   67.9760 C   0  0  0  0  0  0  0  0  0  0  0  0
  128.7690  129.2900   67.4190 C   0  0  0  0  0  0  0  0  0  0  0  0
  128.4560  129.4470   66.0680 C   0  0  0  0  0  0  0  0  0  0  0  0
  128.1820  128.3280   65.2780 C   0  0  0  0  0  0  0  0  0  0  0  0
  128.2220  127.0510   65.8370 C   0  0  0  0  0  0  0  0  0  0  0  0
  128.5380  126.8890   67.1880 C   0  0  0  0  0  0  0  0  0  0  0  0
  133.3760  125.2690   64.7690 C   0  0  0  0  0  0  0  0  0  0  0  0
  134.4280  124.9900   64.2280 O   0  0  0  0  0  0  0  0  0  0  0  0
  133.2430  125.9620   65.9380 O   0  0  0  0  0  0  0  0  0  0  0  0
  130.8050  124.3860   61.4510 N   0  0  0  0  0  0  0  0  0  0  0  0
  130.5590  123.5930   60.2100 C   0  0  0  0  0  0  0  0  0  0  0  0
  131.2350  122.2240   60.5580 C   0  0  0  0  0  0  0  0  0  0  0  0
  132.5540  122.1580   61.0360 C   0  0  0  0  0  0  0  0  0  0  0  0
  133.1440  120.9350   61.3440 C   0  0  0  0  0  0  0  0  0  0  0  0
  132.4280  119.7560   61.1690 C   0  0  0  0  0  0  0  0  0  0  0  0
  131.1200  119.7910   60.6990 C   0  0  0  0  0  0  0  0  0  0  0  0
  130.5280  121.0150   60.4010 C   0  0  0  0  0  0  0  0  0  0  0  0
  129.0090  123.4710   60.0320 C   0  0  0  0  0  0  0  0  0  0  0  0
  128.1300  123.5770   61.1220 C   0  0  0  0  0  0  0  0  0  0  0  0
  126.7550  123.4460   60.9440 C   0  0  0  0  0  0  0  0  0  0  0  0
  126.2410  123.2050   59.6740 C   0  0  0  0  0  0  0  0  0  0  0  0
  127.0910  123.1000   58.5780 C   0  0  0  0  0  0  0  0  0  0  0  0
  128.4640  123.2400   58.7560 C   0  0  0  0  0  0  0  0  0  0  0  0
  131.2910  124.3560   59.0550 C   0  0  0  0  0  0  0  0  0  0  0  0
  132.6290  124.0670   58.7300 C   0  0  0  0  0  0  0  0  0  0  0  0
  133.2870  124.7480   57.7090 C   0  0  0  0  0  0  0  0  0  0  0  0
  132.6150  125.7280   56.9890 C   0  0  0  0  0  0  0  0  0  0  0  0
  131.2890  126.0260   57.2760 C   0  0  0  0  0  0  0  0  0  0  0  0
  130.6340  125.3430   58.2980 C   0  0  0  0  0  0  0  0  0  0  0  0
  1  2  2  0
  2  3  1  0
  4  3  1  6
  4  5  1  0
  5  6  1  0
  6  7  2  0
  6  8  1  0
  8  9  1  0
  9 10  1  0
 10 11  1  0
 11 12  2  0
 12 13  1  0
 13 14  2  0
 14 15  1  0
 15 16  2  0
 16 17  1  0
 17 18  2  0
 18 19  1  0
 19 20  2  0
 20 21  1  0
 21 22  2  0
  4 23  1  0
 23 24  2  0
 23 25  1  0
  2 26  1  0
 26 27  1  0
 27 28  1  0
 28 29  2  0
 29 30  1  0
 30 31  2  0
 31 32  1  0
 32 33  2  0
 27 34  1  0
 34 35  2  0
 35 36  1  0
 36 37  2  0
 37 38  1  0
 38 39  2  0
 27 40  1  0
 40 41  2  0
 41 42  1  0
 42 43  2  0
 43 44  1  0
 44 45  2  0
 22 10  1  0
 33 28  1  0
 39 34  1  0
 45 40  1  0
 16 11  1  0
 22 17  1  0
M  END
>  <Binding energies>  (84) 
[-10.18]

>  <Ligand effiencies>  (84) 
[-0.21208333333333332]

>  <Interactions>  (84) 
["V-B:GLU:543:CA:9876, V-A:GLU:543:CD:4908, V-A:HIS:456:CD2:4068, V-B:GLU:543:CD:9880, V-A:ASP:366:CG:3213, V-B:TYR:539:CD2:9846, V-A:LEU:475:CD1:4258, V-B:GLU:543:CB:9878, H-A:TYR:484:OH:4348, V-A:TYR:484:CZ:4347, V-B:GLU:543:C:9874, V-A:TYR:484:CE1:4345, V-B:HIS:456:CE1:9040, V-B:TYR:539:CE2:9848, V-A:HIS:456:CE1:4069, V-B:GLU:543:CG:9879, V-A:GLU:543:CB:4906, V-A:ARG:545:CZ:4926, V-B:PRO:540:CA:9855, V-B:TYR:539:CZ:9849, V-A:GLU:543:CG:4907, V-B:PRO:540:CB:9857, V-B:PRO:540:N:9856, V-A:ILE:369:CD1:3239, V-A:ASP:366:CA:3210, H-A:GLY:454:N:4050, V-A:TRP:381:CZ2:3370, H-A:ARG:545:NH1:4927, H-A:ARG:545:NE:4924, H-A:ARG:545:NH2:4928, V-A:ARG:545:CD:4923, V-A:TRP:381:CH2:3372, H-A:GLU:543:OE2:4910, V-A:ASP:366:CB:3212, V-A:ASP:366:C:3208, V-B:HIS:456:CD2:9039, V-A:GLU:543:CA:4904"]

$$$$
