1a_Ghoteimi_2023
     RDKit          3D

 40 43  0  0  0  0  0  0  0  0999 V2000
  133.2830  130.5680   57.3630 C   0  0  0  0  0  0  0  0  0  0  0  0
  132.4990  131.6450   56.6070 C   0  0  0  0  0  0  0  0  0  0  0  0
  131.1070  131.3690   56.7040 O   0  0  0  0  0  0  0  0  0  0  0  0
  130.2490  132.2740   57.2410 C   0  0  0  0  0  0  0  0  0  0  0  0
  129.8040  133.2430   56.6180 O   0  0  0  0  0  0  0  0  0  0  0  0
  129.8900  131.9750   58.6680 C   0  0  0  0  0  0  0  0  0  0  0  0
  128.7370  132.5010   59.2690 C   0  0  0  0  0  0  0  0  0  0  0  0
  128.4310  132.2080   60.5960 C   0  0  0  0  0  0  0  0  0  0  0  0
  129.2760  131.3760   61.3460 C   0  0  0  0  0  0  0  0  0  0  0  0
  129.0670  131.0190   62.6920 N   0  0  0  0  0  0  0  0  0  0  0  0
  127.9960  130.4420   63.2790 C   0  0  0  0  0  0  0  0  0  0  0  0
  126.9650  130.0960   62.7030 O   0  0  0  0  0  0  0  0  0  0  0  0
  128.1160  130.2110   64.7850 C   0  0  0  0  0  0  0  0  0  0  0  0
  127.0950  128.8120   65.3340 S   0  0  0  0  0  0  0  0  0  0  0  0
  128.2240  127.5860   65.9530 C   0  0  0  0  0  0  0  0  0  0  0  0
  128.1230  127.3680   67.2850 N   0  0  0  0  0  0  0  0  0  0  0  0
  128.9280  126.4500   67.8830 C   0  0  0  0  0  0  0  0  0  0  0  0
  128.7400  126.2500   69.3590 C   0  0  0  0  0  0  0  0  0  0  0  0
  127.8240  127.0250   70.0890 C   0  0  0  0  0  0  0  0  0  0  0  0
  127.6510  126.8380   71.4580 C   0  0  0  0  0  0  0  0  0  0  0  0
  128.3890  125.8730   72.1390 C   0  0  0  0  0  0  0  0  0  0  0  0
  128.1510  125.7540   73.4950 O   0  0  0  0  0  0  0  0  0  0  0  0
  127.1240  126.5400   74.0910 C   0  0  0  0  0  0  0  0  0  0  0  0
  129.3100  125.0940   71.4260 C   0  0  0  0  0  0  0  0  0  0  0  0
  129.4800  125.2850   70.0580 C   0  0  0  0  0  0  0  0  0  0  0  0
  129.8640  125.7280   67.1320 C   0  0  0  0  0  0  0  0  0  0  0  0
  130.0050  125.9550   65.7570 C   0  0  0  0  0  0  0  0  0  0  0  0
  131.0470  125.1710   65.0260 C   0  0  0  0  0  0  0  0  0  0  0  0
  130.6880  124.2460   64.0400 C   0  0  0  0  0  0  0  0  0  0  0  0
  131.6650  123.5310   63.3540 C   0  0  0  0  0  0  0  0  0  0  0  0
  133.0170  123.7300   63.6330 C   0  0  0  0  0  0  0  0  0  0  0  0
  133.9140  122.9770   62.9020 O   0  0  0  0  0  0  0  0  0  0  0  0
  134.4710  123.5230   61.7110 C   0  0  0  0  0  0  0  0  0  0  0  0
  133.3810  124.6630   64.6160 C   0  0  0  0  0  0  0  0  0  0  0  0
  132.4020  125.3770   65.3020 C   0  0  0  0  0  0  0  0  0  0  0  0
  129.1600  126.9090   65.1410 C   0  0  0  0  0  0  0  0  0  0  0  0
  129.2500  127.1780   63.7020 C   0  0  0  0  0  0  0  0  0  0  0  0
  129.3210  127.3900   62.5670 N   0  0  0  0  0  0  0  0  0  0  0  0
  130.4250  130.8550   60.7520 C   0  0  0  0  0  0  0  0  0  0  0  0
  130.7290  131.1480   59.4250 C   0  0  0  0  0  0  0  0  0  0  0  0
  1  2  1  0
  2  3  1  0
  3  4  1  0
  4  5  2  0
  4  6  1  0
  6  7  2  0
  7  8  1  0
  8  9  2  0
  9 10  1  0
 10 11  1  0
 11 12  2  0
 11 13  1  0
 13 14  1  0
 14 15  1  0
 15 16  2  0
 16 17  1  0
 17 18  1  0
 18 19  2  0
 19 20  1  0
 20 21  2  0
 21 22  1  0
 22 23  1  0
 21 24  1  0
 24 25  2  0
 17 26  2  0
 26 27  1  0
 27 28  1  0
 28 29  2  0
 29 30  1  0
 30 31  2  0
 31 32  1  0
 32 33  1  0
 31 34  1  0
 34 35  2  0
 27 36  2  0
 36 37  1  0
 37 38  3  0
  9 39  1  0
 39 40  2  0
 40  6  1  0
 36 15  1  0
 25 18  1  0
 35 28  1  0
M  END
>  <Binding energies>  (1) 
[-10.15]

>  <Ligand effiencies>  (1) 
[-0.2475609756097561]

>  <Interactions>  (1) 
["V-A:GLU:543:CD:4908, V-A:HIS:456:CD2:4068, V-B:HIS:456:CE1:9040, V-A:HIS:456:CE1:4069, V-A:PRO:540:CA:4883, V-A:TYR:539:CD2:4874, V-A:TYR:539:CE2:4876, V-A:GLU:543:CB:4906, V-A:PRO:540:CB:4885, V-A:TYR:539:C:4867, V-A:ARG:545:CZ:4926, V-B:GLY:544:C:9884, H-B:LYS:547:NZ:9923, V-A:ILE:369:CD1:3239, V-A:GLY:454:CA:4049, H-A:GLY:454:N:4050, H-A:GLU:543:OE1:4909, V-A:PRO:540:N:4884, V-A:LEU:363:CA:3185, V-B:LYS:547:CD:9921, V-B:LYS:547:CE:9922, H-A:TYR:539:N:4870, V-A:LEU:363:CD1:3189"]

$$$$
1b_Ghoteimi_2023
     RDKit          3D

 34 37  0  0  0  0  0  0  0  0999 V2000
  134.1770  124.2080   62.4740 C   0  0  0  0  0  0  0  0  0  0  0  0
  133.7790  124.1830   63.8400 O   0  0  0  0  0  0  0  0  0  0  0  0
  132.6090  124.8170   64.2120 C   0  0  0  0  0  0  0  0  0  0  0  0
  132.4540  125.0950   65.5690 C   0  0  0  0  0  0  0  0  0  0  0  0
  131.3080  125.7300   66.0370 C   0  0  0  0  0  0  0  0  0  0  0  0
  130.2810  126.1110   65.1610 C   0  0  0  0  0  0  0  0  0  0  0  0
  129.0430  126.7950   65.6700 C   0  0  0  0  0  0  0  0  0  0  0  0
  128.4230  127.8500   64.9930 C   0  0  0  0  0  0  0  0  0  0  0  0
  127.2680  128.4510   65.5090 C   0  0  0  0  0  0  0  0  0  0  0  0
  126.6620  129.5750   64.7350 C   0  0  0  0  0  0  0  0  0  0  0  0
  125.3810  129.4470   64.1900 C   0  0  0  0  0  0  0  0  0  0  0  0
  124.8160  130.4890   63.4610 C   0  0  0  0  0  0  0  0  0  0  0  0
  125.5200  131.6760   63.2580 C   0  0  0  0  0  0  0  0  0  0  0  0
  124.8810  132.6550   62.5210 O   0  0  0  0  0  0  0  0  0  0  0  0
  123.8560  132.2780   61.6080 C   0  0  0  0  0  0  0  0  0  0  0  0
  126.8090  131.8060   63.7950 C   0  0  0  0  0  0  0  0  0  0  0  0
  127.3720  130.7620   64.5240 C   0  0  0  0  0  0  0  0  0  0  0  0
  126.7370  127.9570   66.7260 C   0  0  0  0  0  0  0  0  0  0  0  0
  125.4780  128.4860   67.2580 C   0  0  0  0  0  0  0  0  0  0  0  0
  124.4840  128.9050   67.6780 N   0  0  0  0  0  0  0  0  0  0  0  0
  127.4240  126.9030   67.3700 C   0  0  0  0  0  0  0  0  0  0  0  0
  126.9090  126.1640   68.9060 S   0  0  0  0  0  0  0  0  0  0  0  0
  127.9810  126.8160   70.2300 C   0  0  0  0  0  0  0  0  0  0  0  0
  128.4270  125.7820   71.2740 C   0  0  0  0  0  0  0  0  0  0  0  0
  128.2320  125.9760   72.4760 O   0  0  0  0  0  0  0  0  0  0  0  0
  129.0300  124.6870   70.7600 N   0  0  0  0  0  0  0  0  0  0  0  0
  129.5310  123.5960   71.4600 C   0  0  0  0  0  0  0  0  0  0  0  0
  130.7660  123.6080   72.1080 C   0  0  0  0  0  0  0  0  0  0  0  0
  130.8870  122.3590   72.6710 C   0  0  0  0  0  0  0  0  0  0  0  0
  129.7810  121.6320   72.3800 O   0  0  0  0  0  0  0  0  0  0  0  0
  128.9290  122.4270   71.6120 N   0  0  0  0  0  0  0  0  0  0  0  0
  128.5320  126.3300   66.8400 N   0  0  0  0  0  0  0  0  0  0  0  0
  130.4470  125.8240   63.7960 C   0  0  0  0  0  0  0  0  0  0  0  0
  131.5910  125.1880   63.3240 C   0  0  0  0  0  0  0  0  0  0  0  0
  1  2  1  0
  2  3  1  0
  3  4  2  0
  4  5  1  0
  5  6  2  0
  6  7  1  0
  7  8  2  0
  8  9  1  0
  9 10  1  0
 10 11  2  0
 11 12  1  0
 12 13  2  0
 13 14  1  0
 14 15  1  0
 13 16  1  0
 16 17  2  0
  9 18  2  0
 18 19  1  0
 19 20  3  0
 18 21  1  0
 21 22  1  0
 22 23  1  0
 23 24  1  0
 24 25  2  0
 24 26  1  0
 26 27  1  0
 27 28  1  0
 28 29  2  0
 29 30  1  0
 30 31  1  0
 21 32  2  0
  6 33  1  0
 33 34  2  0
 34  3  1  0
 32  7  1  0
 17 10  1  0
 31 27  2  0
M  END
>  <Binding energies>  (2) 
[-9.96]

>  <Ligand effiencies>  (2) 
[-0.2845714285714286]

>  <Interactions>  (2) 
["V-A:GLU:543:CD:4908, V-A:HIS:456:CD2:4068, V-B:GLU:543:CB:9878, V-B:GLU:543:C:9874, V-B:HIS:456:CE1:9040, V-A:HIS:456:CE1:4069, V-B:ARG:545:CD:9895, V-B:ARG:545:CZ:9898, H-B:TYR:484:OH:9319, V-B:ARG:545:CG:9894, H-B:ARG:545:N:9892, V-B:GLY:544:C:9884, H-B:LYS:547:NZ:9923, V-B:ILE:369:CD1:8210, V-B:LEU:475:CD1:9229, V-A:GLY:453:CA:4044, V-A:GLY:453:C:4042, H-A:GLY:454:N:4050, H-B:ARG:545:NE:9896, H-B:GLU:543:O:9875, V-A:TYR:484:CG:4342, V-A:TYR:484:CE2:4346, V-A:HIS:456:CG:4066, V-A:TYR:484:CD1:4343, V-A:TYR:484:CD2:4344, V-A:HIS:456:CB:4065, V-A:ASP:473:CB:4239, V-A:TYR:484:CB:4341"]

$$$$
1c_Ghoteimi_2023
     RDKit          3D

 34 37  0  0  0  0  0  0  0  0999 V2000
  127.5470  126.6000   74.8850 C   0  0  0  0  0  0  0  0  0  0  0  0
  128.3720  125.7540   74.0910 O   0  0  0  0  0  0  0  0  0  0  0  0
  128.4440  125.9660   72.7280 C   0  0  0  0  0  0  0  0  0  0  0  0
  129.3310  125.1630   72.0160 C   0  0  0  0  0  0  0  0  0  0  0  0
  129.4700  125.3110   70.6390 C   0  0  0  0  0  0  0  0  0  0  0  0
  128.7260  126.2680   69.9320 C   0  0  0  0  0  0  0  0  0  0  0  0
  128.8760  126.4330   68.4470 C   0  0  0  0  0  0  0  0  0  0  0  0
  129.7430  125.6450   67.6820 C   0  0  0  0  0  0  0  0  0  0  0  0
  129.8300  125.8190   66.2960 C   0  0  0  0  0  0  0  0  0  0  0  0
  130.7250  124.8980   65.5340 C   0  0  0  0  0  0  0  0  0  0  0  0
  132.0370  125.2730   65.2280 C   0  0  0  0  0  0  0  0  0  0  0  0
  132.8630  124.4230   64.5000 C   0  0  0  0  0  0  0  0  0  0  0  0
  132.3930  123.1850   64.0600 C   0  0  0  0  0  0  0  0  0  0  0  0
  133.2830  122.4070   63.3430 O   0  0  0  0  0  0  0  0  0  0  0  0
  133.8780  122.9390   62.1640 C   0  0  0  0  0  0  0  0  0  0  0  0
  131.0750  122.8080   64.3590 C   0  0  0  0  0  0  0  0  0  0  0  0
  130.2510  123.6610   65.0880 C   0  0  0  0  0  0  0  0  0  0  0  0
  129.0430  126.8280   65.6930 C   0  0  0  0  0  0  0  0  0  0  0  0
  129.1130  127.0820   64.2500 C   0  0  0  0  0  0  0  0  0  0  0  0
  129.1690  127.2810   63.1110 N   0  0  0  0  0  0  0  0  0  0  0  0
  128.1780  127.5740   66.5200 C   0  0  0  0  0  0  0  0  0  0  0  0
  127.0120  128.7540   65.8760 S   0  0  0  0  0  0  0  0  0  0  0  0
  127.9970  130.2510   65.5470 C   0  0  0  0  0  0  0  0  0  0  0  0
  127.6980  130.8480   64.1670 C   0  0  0  0  0  0  0  0  0  0  0  0
  126.5450  130.8320   63.7340 O   0  0  0  0  0  0  0  0  0  0  0  0
  128.7580  131.3990   63.5360 N   0  0  0  0  0  0  0  0  0  0  0  0
  128.7330  132.1340   62.3620 C   0  0  0  0  0  0  0  0  0  0  0  0
  129.6150  132.1260   61.3850 N   0  0  0  0  0  0  0  0  0  0  0  0
  129.2500  132.9210   60.3980 C   0  0  0  0  0  0  0  0  0  0  0  0
  128.0450  133.5950   60.5650 C   0  0  0  0  0  0  0  0  0  0  0  0
  127.3600  133.1590   62.1020 S   0  0  0  0  0  0  0  0  0  0  0  0
  128.0930  127.3740   67.8570 N   0  0  0  0  0  0  0  0  0  0  0  0
  127.8310  127.0670   70.6580 C   0  0  0  0  0  0  0  0  0  0  0  0
  127.6890  126.9240   72.0350 C   0  0  0  0  0  0  0  0  0  0  0  0
  1  2  1  0
  2  3  1  0
  3  4  2  0
  4  5  1  0
  5  6  2  0
  6  7  1  0
  7  8  2  0
  8  9  1  0
  9 10  1  0
 10 11  2  0
 11 12  1  0
 12 13  2  0
 13 14  1  0
 14 15  1  0
 13 16  1  0
 16 17  2  0
  9 18  2  0
 18 19  1  0
 19 20  3  0
 18 21  1  0
 21 22  1  0
 22 23  1  0
 23 24  1  0
 24 25  2  0
 24 26  1  0
 26 27  1  0
 27 28  2  0
 28 29  1  0
 29 30  2  0
 30 31  1  0
 21 32  2  0
  6 33  1  0
 33 34  2  0
 34  3  1  0
 32  7  1  0
 17 10  1  0
 31 27  1  0
M  END
>  <Binding energies>  (3) 
[-9.01]

>  <Ligand effiencies>  (3) 
[-0.2574285714285714]

>  <Interactions>  (3) 
["V-A:GLU:543:CD:4908, V-A:HIS:456:CD2:4068, V-B:GLU:543:CD:9880, V-A:LEU:475:CD1:4258, V-A:TYR:484:CZ:4347, V-A:TYR:484:CE1:4345, V-B:HIS:456:CE1:9040, V-A:HIS:456:CE1:4069, H-B:TYR:484:OH:9319, V-A:ALA:541:CB:4892, V-A:PRO:540:C:4881, V-A:PRO:540:CA:4883, V-A:TYR:539:CD2:4874, V-A:TYR:539:CE2:4876, V-A:GLU:543:CB:4906, V-A:TYR:539:C:4867, H-B:LYS:547:NZ:9923, V-B:LEU:475:CD1:9229, V-B:TYR:484:CZ:9318, V-A:ILE:369:CD1:3239, V-A:GLY:454:CA:4049, H-A:GLY:454:N:4050, H-A:GLU:543:OE1:4909, H-A:ALA:541:N:4891, V-A:PRO:540:N:4884, V-B:LYS:547:CD:9921"]

$$$$
1d_Ghoteimi_2023
     RDKit          3D

 30 32  0  0  0  0  0  0  0  0999 V2000
  133.6340  124.7330   62.9090 C   0  0  0  0  0  0  0  0  0  0  0  0
  133.6150  124.0560   64.1570 O   0  0  0  0  0  0  0  0  0  0  0  0
  133.6330  124.7510   65.3130 C   0  0  0  0  0  0  0  0  0  0  0  0
  134.4640  124.6430   66.2160 O   0  0  0  0  0  0  0  0  0  0  0  0
  132.4690  125.7330   65.4180 C   0  0  0  0  0  0  0  0  0  0  0  0
  130.9410  124.7580   65.5590 S   0  0  0  0  0  0  0  0  0  0  0  0
  129.7410  125.7860   66.3770 C   0  0  0  0  0  0  0  0  0  0  0  0
  129.7420  125.6580   67.7250 N   0  0  0  0  0  0  0  0  0  0  0  0
  128.8720  126.3830   68.4750 C   0  0  0  0  0  0  0  0  0  0  0  0
  128.9420  126.1870   69.9620 C   0  0  0  0  0  0  0  0  0  0  0  0
  128.4560  127.1600   70.8490 C   0  0  0  0  0  0  0  0  0  0  0  0
  128.5270  126.9800   72.2260 C   0  0  0  0  0  0  0  0  0  0  0  0
  129.0880  125.8230   72.7620 C   0  0  0  0  0  0  0  0  0  0  0  0
  129.1210  125.7310   74.1400 O   0  0  0  0  0  0  0  0  0  0  0  0
  130.3700  125.5330   74.7930 C   0  0  0  0  0  0  0  0  0  0  0  0
  129.5800  124.8420   71.8900 C   0  0  0  0  0  0  0  0  0  0  0  0
  129.5050  125.0260   70.5120 C   0  0  0  0  0  0  0  0  0  0  0  0
  127.9780  127.2720   67.8680 C   0  0  0  0  0  0  0  0  0  0  0  0
  127.9450  127.4130   66.4750 C   0  0  0  0  0  0  0  0  0  0  0  0
  126.9600  128.3750   65.8940 C   0  0  0  0  0  0  0  0  0  0  0  0
  125.6500  128.4230   66.3820 C   0  0  0  0  0  0  0  0  0  0  0  0
  124.7270  129.3160   65.8450 C   0  0  0  0  0  0  0  0  0  0  0  0
  125.0950  130.1820   64.8150 C   0  0  0  0  0  0  0  0  0  0  0  0
  124.1120  131.0290   64.3400 O   0  0  0  0  0  0  0  0  0  0  0  0
  123.9120  131.1420   62.9350 C   0  0  0  0  0  0  0  0  0  0  0  0
  126.4110  130.1470   64.3310 C   0  0  0  0  0  0  0  0  0  0  0  0
  127.3320  129.2530   64.8700 C   0  0  0  0  0  0  0  0  0  0  0  0
  128.8370  126.6340   65.6970 C   0  0  0  0  0  0  0  0  0  0  0  0
  128.7750  126.6640   64.2330 C   0  0  0  0  0  0  0  0  0  0  0  0
  128.7240  126.6880   63.0770 N   0  0  0  0  0  0  0  0  0  0  0  0
  1  2  1  0
  2  3  1  0
  3  4  2  0
  3  5  1  0
  5  6  1  0
  6  7  1  0
  7  8  2  0
  8  9  1  0
  9 10  1  0
 10 11  2  0
 11 12  1  0
 12 13  2  0
 13 14  1  0
 14 15  1  0
 13 16  1  0
 16 17  2  0
  9 18  2  0
 18 19  1  0
 19 20  1  0
 20 21  2  0
 21 22  1  0
 22 23  2  0
 23 24  1  0
 24 25  1  0
 23 26  1  0
 26 27  2  0
 19 28  2  0
 28 29  1  0
 29 30  3  0
 28  7  1  0
 17 10  1  0
 27 20  1  0
M  END
>  <Binding energies>  (4) 
[-8.58]

>  <Ligand effiencies>  (4) 
[-0.286]

>  <Interactions>  (4) 
["H-A:HIS:456:NE2:4070, V-A:GLU:543:CD:4908, V-A:HIS:456:CD2:4068, V-B:GLU:543:CD:9880, V-B:GLU:543:CB:9878, H-A:TYR:484:OH:4348, V-B:HIS:456:CE1:9040, V-A:HIS:456:CE1:4069, V-B:GLU:543:CG:9879, V-B:ARG:545:CD:9895, V-B:ARG:545:CZ:9898, H-B:TYR:484:OH:9319, V-B:ARG:545:CG:9894, V-A:ARG:545:CZ:4926, H-B:LYS:547:NZ:9923, V-B:GLY:454:CA:9020, H-A:GLY:454:N:4050, H-B:GLY:454:N:9021, H-A:ILE:455:N:4055"]

$$$$
1j_Grossjean_2025
     RDKit          3D

 20 21  0  0  0  0  0  0  0  0999 V2000
  127.9870  130.4420   65.6710 C   0  0  0  0  0  0  0  0  0  0  0  0
  128.3720  129.0570   66.1570 C   0  0  0  0  0  0  0  0  0  0  0  0
  128.5550  127.9980   65.2710 C   0  0  0  0  0  0  0  0  0  0  0  0
  128.9230  126.7470   65.7750 C   0  0  0  0  0  0  0  0  0  0  0  0
  129.1350  125.6050   64.7820 C   0  0  0  0  0  0  0  0  0  0  0  0
  129.0900  126.5850   67.1690 C   0  0  0  0  0  0  0  0  0  0  0  0
  129.5260  125.2970   67.7140 C   0  0  0  0  0  0  0  0  0  0  0  0
  129.8710  124.2780   68.1410 N   0  0  0  0  0  0  0  0  0  0  0  0
  128.8570  127.7090   67.9960 C   0  0  0  0  0  0  0  0  0  0  0  0
  129.0180  127.6850   69.7690 S   0  0  0  0  0  0  0  0  0  0  0  0
  127.8690  126.4330   70.4120 C   0  0  0  0  0  0  0  0  0  0  0  0
  128.5130  125.5660   71.4960 C   0  0  0  0  0  0  0  0  0  0  0  0
  128.4350  125.9160   72.6740 O   0  0  0  0  0  0  0  0  0  0  0  0
  129.1330  124.4490   71.0570 N   0  0  0  0  0  0  0  0  0  0  0  0
  129.7930  123.5090   71.8340 C   0  0  0  0  0  0  0  0  0  0  0  0
  129.5210  122.2270   71.9550 N   0  0  0  0  0  0  0  0  0  0  0  0
  130.3580  121.6310   72.7810 C   0  0  0  0  0  0  0  0  0  0  0  0
  131.3400  122.4360   73.3510 C   0  0  0  0  0  0  0  0  0  0  0  0
  131.1480  124.0610   72.7650 S   0  0  0  0  0  0  0  0  0  0  0  0
  128.5220  128.9250   67.4960 N   0  0  0  0  0  0  0  0  0  0  0  0
  1  2  1  0
  2  3  2  0
  3  4  1  0
  4  5  1  0
  4  6  2  0
  6  7  1  0
  7  8  3  0
  6  9  1  0
  9 10  1  0
 10 11  1  0
 11 12  1  0
 12 13  2  0
 12 14  1  0
 14 15  1  0
 15 16  2  0
 16 17  1  0
 17 18  2  0
 18 19  1  0
  9 20  2  0
 20  2  1  0
 19 15  1  0
M  END
>  <Binding energies>  (5) 
[-6.42]

>  <Ligand effiencies>  (5) 
[-0.3057142857142857]

>  <Interactions>  (5) 
["H-A:HIS:456:NE2:4070, V-A:GLU:543:CD:4908, V-A:HIS:456:CD2:4068, V-B:GLU:543:CD:9880, V-B:GLU:543:CB:9878, H-B:HIS:456:NE2:9041, H-A:TYR:484:OH:4348, V-B:GLU:543:C:9874, V-A:TYR:484:CE1:4345, V-B:HIS:456:CE1:9040, V-A:HIS:456:CE1:4069, V-B:GLU:543:CG:9879, V-A:GLU:543:CB:4906, V-B:GLY:544:C:9884, H-B:LYS:547:NZ:9923, V-A:GLU:543:CG:4907, V-B:TYR:484:CE1:9316, V-B:TYR:484:CZ:9318, H-B:GLU:543:O:9875, V-A:TYR:484:CG:4342, V-A:HIS:456:CG:4066, V-A:TYR:484:CD1:4343, V-A:TYR:484:CD2:4344, V-A:HIS:456:CB:4065, V-A:ASP:473:CG:4240, V-A:ASP:473:CB:4239, V-A:TYR:484:CB:4341"]

$$$$
1o_Grossjean_2025
     RDKit          3D

 26 27  0  0  0  0  0  0  0  0999 V2000
  127.1150  126.8280   74.3710 C   0  0  0  0  0  0  0  0  0  0  0  0
  128.3050  126.0630   74.5010 O   0  0  0  0  0  0  0  0  0  0  0  0
  129.4340  126.4050   73.8270 C   0  0  0  0  0  0  0  0  0  0  0  0
  130.4380  126.8690   74.3750 O   0  0  0  0  0  0  0  0  0  0  0  0
  129.3410  126.1600   72.3490 C   0  0  0  0  0  0  0  0  0  0  0  0
  128.8260  127.1220   71.4680 C   0  0  0  0  0  0  0  0  0  0  0  0
  128.7560  126.8640   70.1010 C   0  0  0  0  0  0  0  0  0  0  0  0
  129.1920  125.6420   69.5880 C   0  0  0  0  0  0  0  0  0  0  0  0
  129.0840  125.4900   68.1920 N   0  0  0  0  0  0  0  0  0  0  0  0
  129.3900  126.3570   67.2010 C   0  0  0  0  0  0  0  0  0  0  0  0
  129.8840  127.4730   67.3620 O   0  0  0  0  0  0  0  0  0  0  0  0
  129.1100  125.8560   65.7760 C   0  0  0  0  0  0  0  0  0  0  0  0
  130.2910  125.0810   65.1590 C   0  0  0  0  0  0  0  0  0  0  0  0
  130.0440  123.2820   65.1020 S   0  0  0  0  0  0  0  0  0  0  0  0
  130.9370  122.6330   63.7040 C   0  0  0  0  0  0  0  0  0  0  0  0
  130.2290  121.7260   62.9850 N   0  0  0  0  0  0  0  0  0  0  0  0
  130.8020  121.1700   61.8920 C   0  0  0  0  0  0  0  0  0  0  0  0
  129.9450  120.1760   61.1310 C   0  0  0  0  0  0  0  0  0  0  0  0
  132.0960  121.4820   61.4820 C   0  0  0  0  0  0  0  0  0  0  0  0
  132.8450  122.3960   62.2300 C   0  0  0  0  0  0  0  0  0  0  0  0
  134.2660  122.7110   61.7680 C   0  0  0  0  0  0  0  0  0  0  0  0
  132.2680  122.9870   63.3780 C   0  0  0  0  0  0  0  0  0  0  0  0
  133.0570  123.9010   64.2070 C   0  0  0  0  0  0  0  0  0  0  0  0
  133.6820  124.6240   64.8600 N   0  0  0  0  0  0  0  0  0  0  0  0
  129.7130  124.6770   70.4630 C   0  0  0  0  0  0  0  0  0  0  0  0
  129.7830  124.9370   71.8290 C   0  0  0  0  0  0  0  0  0  0  0  0
  1  2  1  0
  2  3  1  0
  3  4  2  0
  3  5  1  0
  5  6  2  0
  6  7  1  0
  7  8  2  0
  8  9  1  0
  9 10  1  0
 10 11  2  0
 10 12  1  0
 12 13  1  0
 13 14  1  0
 14 15  1  0
 15 16  2  0
 16 17  1  0
 17 18  1  0
 17 19  2  0
 19 20  1  0
 20 21  1  0
 20 22  2  0
 22 23  1  0
 23 24  3  0
  8 25  1  0
 25 26  2  0
 26  5  1  0
 22 15  1  0
M  END
>  <Binding energies>  (6) 
[-8.18]

>  <Ligand effiencies>  (6) 
[-0.30296296296296293]

>  <Interactions>  (6) 
["H-A:HIS:456:NE2:4070, V-A:HIS:456:CD2:4068, V-B:GLU:543:CD:9880, V-B:TYR:539:CD2:9846, V-A:LEU:475:CD1:4258, V-B:GLU:543:CB:9878, H-A:TYR:484:OH:4348, V-B:GLU:543:C:9874, V-A:TYR:484:CE1:4345, V-B:HIS:456:CE1:9040, V-A:HIS:456:CE1:4069, V-B:GLU:543:CG:9879, V-B:ALA:541:CB:9864, H-B:LYS:547:NZ:9923, V-A:ILE:369:CD1:3239, V-A:GLY:454:CA:4049, H-A:GLY:454:N:4050, V-A:PRO:482:CG:4327, H-B:GLU:543:O:9875, V-B:LYS:547:CD:9921, V-A:HIS:456:CG:4066, H-A:LYS:547:NZ:4951"]

$$$$
1p_Grossjean_2025
     RDKit          3D

 21 22  0  0  0  0  0  0  0  0999 V2000
  123.7100  129.9960   66.2220 C   0  0  0  0  0  0  0  0  0  0  0  0
  125.0530  129.2890   66.2010 C   0  0  0  0  0  0  0  0  0  0  0  0
  126.0450  129.6390   65.2870 C   0  0  0  0  0  0  0  0  0  0  0  0
  127.2600  128.9440   65.3050 C   0  0  0  0  0  0  0  0  0  0  0  0
  128.3280  129.3340   64.2840 C   0  0  0  0  0  0  0  0  0  0  0  0
  127.4530  127.9140   66.2520 C   0  0  0  0  0  0  0  0  0  0  0  0
  128.6960  127.1400   66.2590 C   0  0  0  0  0  0  0  0  0  0  0  0
  129.6790  126.5300   66.2640 N   0  0  0  0  0  0  0  0  0  0  0  0
  126.3990  127.6420   67.1570 C   0  0  0  0  0  0  0  0  0  0  0  0
  126.4800  126.3890   68.4150 S   0  0  0  0  0  0  0  0  0  0  0  0
  128.1070  126.5440   69.2080 C   0  0  0  0  0  0  0  0  0  0  0  0
  128.0380  126.9140   70.7020 C   0  0  0  0  0  0  0  0  0  0  0  0
  128.5740  125.8160   71.6320 C   0  0  0  0  0  0  0  0  0  0  0  0
  128.5360  125.9820   72.8530 O   0  0  0  0  0  0  0  0  0  0  0  0
  129.0480  124.7090   71.0170 N   0  0  0  0  0  0  0  0  0  0  0  0
  129.5830  123.5770   71.6190 C   0  0  0  0  0  0  0  0  0  0  0  0
  130.8130  123.5740   72.2770 C   0  0  0  0  0  0  0  0  0  0  0  0
  130.9760  122.2840   72.7250 C   0  0  0  0  0  0  0  0  0  0  0  0
  129.9030  121.5470   72.3550 O   0  0  0  0  0  0  0  0  0  0  0  0
  129.0270  122.3780   71.6540 N   0  0  0  0  0  0  0  0  0  0  0  0
  125.2170  128.3070   67.1180 N   0  0  0  0  0  0  0  0  0  0  0  0
  1  2  1  0
  2  3  2  0
  3  4  1  0
  4  5  1  0
  4  6  2  0
  6  7  1  0
  7  8  3  0
  6  9  1  0
  9 10  1  0
 10 11  1  0
 11 12  1  0
 12 13  1  0
 13 14  2  0
 13 15  1  0
 15 16  1  0
 16 17  1  0
 17 18  2  0
 18 19  1  0
 19 20  1  0
  9 21  2  0
 21  2  1  0
 20 16  2  0
M  END
>  <Binding energies>  (7) 
[-7.6]

>  <Ligand effiencies>  (7) 
[-0.34545454545454546]

>  <Interactions>  (7) 
["V-A:GLU:543:CD:4908, V-A:HIS:456:CD2:4068, V-B:GLU:543:CB:9878, V-B:HIS:456:CE1:9040, V-B:ARG:545:CD:9895, V-B:ARG:545:CZ:9898, V-B:ARG:545:CG:9894, H-B:ARG:545:N:9892, H-B:LYS:547:NZ:9923, V-B:GLY:454:CA:9020, H-B:ARG:545:NE:9896, H-B:GLU:543:O:9875, V-A:TYR:484:CG:4342, V-A:TYR:484:CE2:4346, V-A:HIS:456:CG:4066, V-A:TYR:484:CD2:4344, V-A:HIS:456:CB:4065, V-B:GLY:454:C:9018, V-A:ASP:473:CB:4239, V-A:TYR:484:CB:4341"]

$$$$
2a_Ghoteimi_2023
     RDKit          3D

 48 53  0  0  0  0  0  0  0  0999 V2000
  132.0820  129.2030   57.6710 C   0  0  0  0  0  0  0  0  0  0  0  0
  132.4630  130.3900   56.7830 C   0  0  0  0  0  0  0  0  0  0  0  0
  132.1850  131.6030   57.4710 O   0  0  0  0  0  0  0  0  0  0  0  0
  131.0050  132.2520   57.3020 C   0  0  0  0  0  0  0  0  0  0  0  0
  130.6980  132.8470   56.2640 O   0  0  0  0  0  0  0  0  0  0  0  0
  130.1050  132.1680   58.5020 C   0  0  0  0  0  0  0  0  0  0  0  0
  130.5470  131.6430   59.7260 C   0  0  0  0  0  0  0  0  0  0  0  0
  129.6880  131.5820   60.8190 C   0  0  0  0  0  0  0  0  0  0  0  0
  128.3740  132.0440   60.7160 C   0  0  0  0  0  0  0  0  0  0  0  0
  127.5930  131.9300   61.8810 N   0  0  0  0  0  0  0  0  0  0  0  0
  126.2510  131.8560   62.0190 C   0  0  0  0  0  0  0  0  0  0  0  0
  125.4380  131.9290   61.0960 O   0  0  0  0  0  0  0  0  0  0  0  0
  125.7510  131.7120   63.4620 C   0  0  0  0  0  0  0  0  0  0  0  0
  125.0940  130.0620   63.8710 S   0  0  0  0  0  0  0  0  0  0  0  0
  126.5180  129.0270   64.1170 C   0  0  0  0  0  0  0  0  0  0  0  0
  126.7610  128.7290   65.4150 N   0  0  0  0  0  0  0  0  0  0  0  0
  127.8270  127.9530   65.7330 C   0  0  0  0  0  0  0  0  0  0  0  0
  128.0390  127.6740   67.1860 C   0  0  0  0  0  0  0  0  0  0  0  0
  127.1580  126.8570   67.9050 C   0  0  0  0  0  0  0  0  0  0  0  0
  127.3540  126.6110   69.2610 C   0  0  0  0  0  0  0  0  0  0  0  0
  128.4420  127.1650   69.9490 C   0  0  0  0  0  0  0  0  0  0  0  0
  128.6100  126.9330   71.3180 N   0  0  0  0  0  0  0  0  0  0  0  0
  129.4290  125.8090   71.8140 C   0  0  0  0  0  0  0  0  0  0  0  0
  129.7970  125.9180   73.3090 C   0  0  0  0  0  0  0  0  0  0  0  0
  128.6220  126.0730   74.0880 O   0  0  0  0  0  0  0  0  0  0  0  0
  127.9140  127.2490   73.7300 C   0  0  0  0  0  0  0  0  0  0  0  0
  127.4890  127.1830   72.2480 C   0  0  0  0  0  0  0  0  0  0  0  0
  129.3170  127.9940   69.2260 C   0  0  0  0  0  0  0  0  0  0  0  0
  129.1220  128.2380   67.8700 C   0  0  0  0  0  0  0  0  0  0  0  0
  128.6710  127.4430   64.7430 C   0  0  0  0  0  0  0  0  0  0  0  0
  128.4390  127.7370   63.3920 C   0  0  0  0  0  0  0  0  0  0  0  0
  129.3830  127.1640   62.3860 C   0  0  0  0  0  0  0  0  0  0  0  0
  130.2370  128.0040   61.6650 C   0  0  0  0  0  0  0  0  0  0  0  0
  131.1060  127.4830   60.7120 C   0  0  0  0  0  0  0  0  0  0  0  0
  131.1510  126.1050   60.4520 C   0  0  0  0  0  0  0  0  0  0  0  0
  132.0030  125.5630   59.4850 N   0  0  0  0  0  0  0  0  0  0  0  0
  131.6580  125.7040   58.0560 C   0  0  0  0  0  0  0  0  0  0  0  0
  132.8460  125.4200   57.1120 C   0  0  0  0  0  0  0  0  0  0  0  0
  133.3810  124.1320   57.3770 O   0  0  0  0  0  0  0  0  0  0  0  0
  133.8480  124.0230   58.7130 C   0  0  0  0  0  0  0  0  0  0  0  0
  132.6890  124.2740   59.7000 C   0  0  0  0  0  0  0  0  0  0  0  0
  130.2820  125.2700   61.1700 C   0  0  0  0  0  0  0  0  0  0  0  0
  129.4120  125.7920   62.1230 C   0  0  0  0  0  0  0  0  0  0  0  0
  127.3260  128.5490   63.0620 C   0  0  0  0  0  0  0  0  0  0  0  0
  127.0000  128.8450   61.6630 C   0  0  0  0  0  0  0  0  0  0  0  0
  126.7450  129.0780   60.5580 N   0  0  0  0  0  0  0  0  0  0  0  0
  127.9230  132.5630   59.4930 C   0  0  0  0  0  0  0  0  0  0  0  0
  128.7840  132.6250   58.4000 C   0  0  0  0  0  0  0  0  0  0  0  0
  1  2  1  0
  2  3  1  0
  3  4  1  0
  4  5  2  0
  4  6  1  0
  6  7  2  0
  7  8  1  0
  8  9  2  0
  9 10  1  0
 10 11  1  0
 11 12  2  0
 11 13  1  0
 13 14  1  0
 14 15  1  0
 15 16  2  0
 16 17  1  0
 17 18  1  0
 18 19  2  0
 19 20  1  0
 20 21  2  0
 21 22  1  0
 22 23  1  0
 23 24  1  0
 24 25  1  0
 25 26  1  0
 26 27  1  0
 21 28  1  0
 28 29  2  0
 17 30  2  0
 30 31  1  0
 31 32  1  0
 32 33  2  0
 33 34  1  0
 34 35  2  0
 35 36  1  0
 36 37  1  0
 37 38  1  0
 38 39  1  0
 39 40  1  0
 40 41  1  0
 35 42  1  0
 42 43  2  0
 31 44  2  0
 44 45  1  0
 45 46  3  0
  9 47  1  0
 47 48  2  0
 48  6  1  0
 44 15  1  0
 29 18  1  0
 43 32  1  0
 27 22  1  0
 41 36  1  0
M  END
>  <Binding energies>  (8) 
[-10.4]

>  <Ligand effiencies>  (8) 
[-0.2122448979591837]

>  <Interactions>  (8) 
["V-A:GLU:543:CD:4908, V-A:HIS:456:CD2:4068, V-B:GLU:543:CD:9880, V-A:ASP:366:CG:3213, V-B:GLU:543:CB:9878, V-B:GLU:543:C:9874, V-B:HIS:456:CE1:9040, V-A:HIS:456:CE1:4069, V-A:PRO:540:CA:4883, V-A:TYR:539:CD2:4874, V-A:TYR:539:CZ:4877, V-A:TYR:539:CE2:4876, V-A:GLU:543:CB:4906, V-A:PRO:540:CB:4885, V-A:TYR:539:C:4867, V-B:GLY:544:C:9884, H-B:LYS:547:NZ:9923, V-A:GLU:543:CG:4907, V-B:LEU:475:CD1:9229, V-A:ASP:366:CA:3210, V-A:ILE:369:CB:3236, V-A:ILE:369:CG2:3237, H-B:ARG:545:NH2:9900, V-A:ASP:366:CB:3212, V-A:PRO:540:N:4884, V-A:TYR:531:CZ:4794, V-A:ASP:366:C:3208, V-B:HIS:456:CD2:9039, V-B:HIS:456:CG:9037, H-B:TYR:539:OH:9850, H-A:TYR:539:N:4870, V-A:PRO:540:CD:4887, V-A:TYR:539:CG:4872, V-A:LEU:363:CD1:3189, V-A:TYR:531:CE2:4793"]

$$$$
2aa_Ghoteimi_2023
     RDKit          3D

 48 53  0  0  0  0  0  0  0  0999 V2000
  133.9790  129.4940   56.6300 C   0  0  0  0  0  0  0  0  0  0  0  0
  132.9320  130.6120   56.5690 C   0  0  0  0  0  0  0  0  0  0  0  0
  133.1320  131.5040   57.6580 O   0  0  0  0  0  0  0  0  0  0  0  0
  133.0770  131.0680   58.9430 C   0  0  0  0  0  0  0  0  0  0  0  0
  134.0730  130.9450   59.6630 O   0  0  0  0  0  0  0  0  0  0  0  0
  131.6810  130.7640   59.4070 C   0  0  0  0  0  0  0  0  0  0  0  0
  130.7570  130.0990   58.5870 C   0  0  0  0  0  0  0  0  0  0  0  0
  129.4720  129.8270   59.0470 C   0  0  0  0  0  0  0  0  0  0  0  0
  129.0810  130.2210   60.3280 C   0  0  0  0  0  0  0  0  0  0  0  0
  127.7600  129.8930   60.6920 N   0  0  0  0  0  0  0  0  0  0  0  0
  126.7650  130.6870   61.1440 C   0  0  0  0  0  0  0  0  0  0  0  0
  126.8460  131.9080   61.2950 O   0  0  0  0  0  0  0  0  0  0  0  0
  125.4530  129.9530   61.4520 C   0  0  0  0  0  0  0  0  0  0  0  0
  125.4210  129.5860   62.8350 O   0  0  0  0  0  0  0  0  0  0  0  0
  126.4740  128.8750   63.3930 C   0  0  0  0  0  0  0  0  0  0  0  0
  127.3980  128.3330   62.5500 N   0  0  0  0  0  0  0  0  0  0  0  0
  128.4430  127.6350   63.0620 C   0  0  0  0  0  0  0  0  0  0  0  0
  129.4140  127.0660   62.0770 C   0  0  0  0  0  0  0  0  0  0  0  0
  130.7450  126.8330   62.4390 C   0  0  0  0  0  0  0  0  0  0  0  0
  131.6520  126.2970   61.5280 C   0  0  0  0  0  0  0  0  0  0  0  0
  131.2570  125.9620   60.2230 C   0  0  0  0  0  0  0  0  0  0  0  0
  132.1590  125.4350   59.2920 N   0  0  0  0  0  0  0  0  0  0  0  0
  132.7880  124.1130   59.4920 C   0  0  0  0  0  0  0  0  0  0  0  0
  133.9990  123.8540   58.5710 C   0  0  0  0  0  0  0  0  0  0  0  0
  133.6260  124.0380   57.2150 O   0  0  0  0  0  0  0  0  0  0  0  0
  133.1750  125.3620   56.9760 C   0  0  0  0  0  0  0  0  0  0  0  0
  131.9390  125.6660   57.8490 C   0  0  0  0  0  0  0  0  0  0  0  0
  129.9280  126.2180   59.8590 C   0  0  0  0  0  0  0  0  0  0  0  0
  129.0230  126.7560   60.7690 C   0  0  0  0  0  0  0  0  0  0  0  0
  128.5790  127.4470   64.4410 C   0  0  0  0  0  0  0  0  0  0  0  0
  127.6370  127.9830   65.3280 C   0  0  0  0  0  0  0  0  0  0  0  0
  127.8230  127.7260   66.7880 C   0  0  0  0  0  0  0  0  0  0  0  0
  128.9290  128.2490   67.4620 C   0  0  0  0  0  0  0  0  0  0  0  0
  129.1180  127.9970   68.8180 C   0  0  0  0  0  0  0  0  0  0  0  0
  128.2130  127.2020   69.5370 C   0  0  0  0  0  0  0  0  0  0  0  0
  128.3810  126.9390   70.9000 N   0  0  0  0  0  0  0  0  0  0  0  0
  129.1080  125.7430   71.3680 C   0  0  0  0  0  0  0  0  0  0  0  0
  129.4960  125.8050   72.8610 C   0  0  0  0  0  0  0  0  0  0  0  0
  128.3410  126.0370   73.6520 O   0  0  0  0  0  0  0  0  0  0  0  0
  127.7100  127.2620   73.3110 C   0  0  0  0  0  0  0  0  0  0  0  0
  127.2750  127.2380   71.8310 C   0  0  0  0  0  0  0  0  0  0  0  0
  127.1020  126.6870   68.8550 C   0  0  0  0  0  0  0  0  0  0  0  0
  126.9120  126.9390   67.4990 C   0  0  0  0  0  0  0  0  0  0  0  0
  126.5640  128.7290   64.7880 C   0  0  0  0  0  0  0  0  0  0  0  0
  125.5600  129.3680   65.6420 C   0  0  0  0  0  0  0  0  0  0  0  0
  124.7680  129.8730   66.3180 N   0  0  0  0  0  0  0  0  0  0  0  0
  130.0010  130.8800   61.1560 C   0  0  0  0  0  0  0  0  0  0  0  0
  131.2870  131.1470   60.6950 C   0  0  0  0  0  0  0  0  0  0  0  0
  1  2  1  0
  2  3  1  0
  3  4  1  0
  4  5  2  0
  4  6  1  0
  6  7  2  0
  7  8  1  0
  8  9  2  0
  9 10  1  0
 10 11  1  0
 11 12  2  0
 11 13  1  0
 13 14  1  0
 14 15  1  0
 15 16  2  0
 16 17  1  0
 17 18  1  0
 18 19  2  0
 19 20  1  0
 20 21  2  0
 21 22  1  0
 22 23  1  0
 23 24  1  0
 24 25  1  0
 25 26  1  0
 26 27  1  0
 21 28  1  0
 28 29  2  0
 17 30  2  0
 30 31  1  0
 31 32  1  0
 32 33  2  0
 33 34  1  0
 34 35  2  0
 35 36  1  0
 36 37  1  0
 37 38  1  0
 38 39  1  0
 39 40  1  0
 40 41  1  0
 35 42  1  0
 42 43  2  0
 31 44  2  0
 44 45  1  0
 45 46  3  0
  9 47  1  0
 47 48  2  0
 48  6  1  0
 44 15  1  0
 29 18  1  0
 43 32  1  0
 27 22  1  0
 41 36  1  0
M  END
>  <Binding energies>  (9) 
[-9.21]

>  <Ligand effiencies>  (9) 
[-0.1879591836734694]

>  <Interactions>  (9) 
["V-A:GLU:543:CD:4908, V-A:HIS:456:CD2:4068, V-B:GLU:543:CD:9880, V-A:ASP:366:CG:3213, V-B:GLU:543:CB:9878, V-B:GLU:543:C:9874, V-B:HIS:456:CE1:9040, V-B:TYR:539:CE2:9848, H-B:TYR:484:OH:9319, V-B:ARG:545:CG:9894, V-A:PRO:540:CA:4883, V-A:GLU:543:CB:4906, V-A:PRO:540:CB:4885, V-B:GLY:544:C:9884, H-B:LYS:547:NZ:9923, V-A:GLU:543:CG:4907, V-A:ASP:366:CA:3210, V-A:ILE:369:CB:3236, V-A:ILE:369:CG2:3237, H-B:ARG:545:NH2:9900, V-B:ASP:366:CG:8184, V-A:ASP:366:CB:3212, V-A:TYR:531:CZ:4794, V-A:LEU:363:CA:3185, V-A:ASP:366:C:3208, V-B:HIS:456:CD2:9039, V-B:HIS:456:CG:9037, H-B:TYR:539:OH:9850, V-A:LEU:363:CD1:3189, V-A:TYR:531:CE2:4793, H-A:LEU:363:N:3186"]

$$$$
2b_Ghoteimi_2023
     RDKit          3D

 42 47  0  0  0  0  0  0  0  0999 V2000
  124.7380  129.6780   66.9910 N   0  0  0  0  0  0  0  0  0  0  0  0
  125.5170  129.2690   66.2400 C   0  0  0  0  0  0  0  0  0  0  0  0
  126.5070  128.7480   65.2930 C   0  0  0  0  0  0  0  0  0  0  0  0
  127.6210  128.0010   65.7530 C   0  0  0  0  0  0  0  0  0  0  0  0
  127.8740  127.6880   67.1910 C   0  0  0  0  0  0  0  0  0  0  0  0
  128.9710  128.2450   67.8500 C   0  0  0  0  0  0  0  0  0  0  0  0
  129.2120  127.9560   69.1900 C   0  0  0  0  0  0  0  0  0  0  0  0
  128.3710  127.0870   69.9040 C   0  0  0  0  0  0  0  0  0  0  0  0
  128.5840  126.7930   71.2510 N   0  0  0  0  0  0  0  0  0  0  0  0
  127.4770  126.9720   72.2110 C   0  0  0  0  0  0  0  0  0  0  0  0
  127.9380  126.9820   73.6830 C   0  0  0  0  0  0  0  0  0  0  0  0
  128.6790  125.8050   73.9710 O   0  0  0  0  0  0  0  0  0  0  0  0
  129.8310  125.6970   73.1500 C   0  0  0  0  0  0  0  0  0  0  0  0
  129.4140  125.6440   71.6660 C   0  0  0  0  0  0  0  0  0  0  0  0
  127.2740  126.5310   69.2320 C   0  0  0  0  0  0  0  0  0  0  0  0
  127.0300  126.8230   67.8930 C   0  0  0  0  0  0  0  0  0  0  0  0
  128.5370  127.5200   64.8100 C   0  0  0  0  0  0  0  0  0  0  0  0
  128.3340  127.7470   63.4460 C   0  0  0  0  0  0  0  0  0  0  0  0
  129.2670  127.2300   62.3970 C   0  0  0  0  0  0  0  0  0  0  0  0
  130.5820  126.8780   62.7210 C   0  0  0  0  0  0  0  0  0  0  0  0
  131.4500  126.3810   61.7540 C   0  0  0  0  0  0  0  0  0  0  0  0
  131.0390  126.2270   60.4200 C   0  0  0  0  0  0  0  0  0  0  0  0
  131.8910  125.7000   59.4430 N   0  0  0  0  0  0  0  0  0  0  0  0
  132.5730  124.4110   59.6780 C   0  0  0  0  0  0  0  0  0  0  0  0
  133.7530  124.1510   58.7180 C   0  0  0  0  0  0  0  0  0  0  0  0
  133.3170  124.2570   57.3720 O   0  0  0  0  0  0  0  0  0  0  0  0
  132.8090  125.5520   57.0910 C   0  0  0  0  0  0  0  0  0  0  0  0
  131.6020  125.8560   58.0030 C   0  0  0  0  0  0  0  0  0  0  0  0
  129.7180  126.5730   60.1010 C   0  0  0  0  0  0  0  0  0  0  0  0
  128.8500  127.0680   61.0700 C   0  0  0  0  0  0  0  0  0  0  0  0
  127.2670  128.4620   63.0070 N   0  0  0  0  0  0  0  0  0  0  0  0
  126.3850  128.9660   63.9020 C   0  0  0  0  0  0  0  0  0  0  0  0
  125.0530  129.8780   63.1530 S   0  0  0  0  0  0  0  0  0  0  0  0
  125.6980  131.5150   62.6950 C   0  0  0  0  0  0  0  0  0  0  0  0
  127.2160  131.6020   62.8630 C   0  0  0  0  0  0  0  0  0  0  0  0
  127.6830  131.9540   63.9480 O   0  0  0  0  0  0  0  0  0  0  0  0
  127.9420  131.2820   61.7700 N   0  0  0  0  0  0  0  0  0  0  0  0
  129.3240  131.2670   61.6520 C   0  0  0  0  0  0  0  0  0  0  0  0
  130.0150  130.2990   60.9240 C   0  0  0  0  0  0  0  0  0  0  0  0
  131.3420  130.6330   61.0540 C   0  0  0  0  0  0  0  0  0  0  0  0
  131.4460  131.7440   61.8200 O   0  0  0  0  0  0  0  0  0  0  0  0
  130.1590  132.1390   62.1920 N   0  0  0  0  0  0  0  0  0  0  0  0
  1  2  3  0
  2  3  1  0
  3  4  2  0
  4  5  1  0
  5  6  2  0
  6  7  1  0
  7  8  2  0
  8  9  1  0
  9 10  1  0
 10 11  1  0
 11 12  1  0
 12 13  1  0
 13 14  1  0
  8 15  1  0
 15 16  2  0
  4 17  1  0
 17 18  2  0
 18 19  1  0
 19 20  2  0
 20 21  1  0
 21 22  2  0
 22 23  1  0
 23 24  1  0
 24 25  1  0
 25 26  1  0
 26 27  1  0
 27 28  1  0
 22 29  1  0
 29 30  2  0
 18 31  1  0
 31 32  2  0
 32 33  1  0
 33 34  1  0
 34 35  1  0
 35 36  2  0
 35 37  1  0
 37 38  1  0
 38 39  1  0
 39 40  2  0
 40 41  1  0
 41 42  1  0
 32  3  1  0
 42 38  2  0
 16  5  1  0
 30 19  1  0
 14  9  1  0
 28 23  1  0
M  END
>  <Binding energies>  (10) 
[-10.09]

>  <Ligand effiencies>  (10) 
[-0.23465116279069767]

>  <Interactions>  (10) 
["V-A:GLU:543:CD:4908, V-A:HIS:456:CD2:4068, V-B:GLU:543:CD:9880, V-A:ASP:366:CG:3213, V-B:GLU:543:CB:9878, V-B:GLU:543:C:9874, V-B:HIS:456:CE1:9040, H-B:TYR:484:OH:9319, V-B:ARG:545:CG:9894, V-A:GLU:543:CB:4906, V-B:GLY:544:C:9884, H-B:LYS:547:NZ:9923, V-B:TYR:484:CZ:9318, V-A:ASP:366:CA:3210, V-A:ILE:369:CB:3236, V-A:ILE:369:CG2:3237, H-B:ARG:545:NH2:9900, V-A:ASP:366:CB:3212, H-A:ALA:541:N:4891, V-A:ASP:366:C:3208, H-B:TYR:539:OH:9850"]

$$$$
2c_Ghoteimi_2023
     RDKit          3D

 42 47  0  0  0  0  0  0  0  0999 V2000
  124.9100  129.8640   66.4350 N   0  0  0  0  0  0  0  0  0  0  0  0
  125.6890  129.3950   65.7210 C   0  0  0  0  0  0  0  0  0  0  0  0
  126.6780  128.7950   64.8190 C   0  0  0  0  0  0  0  0  0  0  0  0
  127.7160  127.9760   65.3300 C   0  0  0  0  0  0  0  0  0  0  0  0
  127.8920  127.6630   66.7790 C   0  0  0  0  0  0  0  0  0  0  0  0
  126.9460  126.8850   67.4500 C   0  0  0  0  0  0  0  0  0  0  0  0
  127.1050  126.5850   68.8000 C   0  0  0  0  0  0  0  0  0  0  0  0
  128.2080  127.0660   69.5220 C   0  0  0  0  0  0  0  0  0  0  0  0
  128.3980  126.7600   70.8720 N   0  0  0  0  0  0  0  0  0  0  0  0
  127.3480  127.1150   71.8470 C   0  0  0  0  0  0  0  0  0  0  0  0
  127.8390  127.0810   73.3100 C   0  0  0  0  0  0  0  0  0  0  0  0
  128.3980  125.8100   73.6070 O   0  0  0  0  0  0  0  0  0  0  0  0
  129.5040  125.5150   72.7680 C   0  0  0  0  0  0  0  0  0  0  0  0
  129.0570  125.5080   71.2910 C   0  0  0  0  0  0  0  0  0  0  0  0
  129.1510  127.8490   68.8410 C   0  0  0  0  0  0  0  0  0  0  0  0
  128.9930  128.1470   67.4900 C   0  0  0  0  0  0  0  0  0  0  0  0
  128.6340  127.4240   64.4270 C   0  0  0  0  0  0  0  0  0  0  0  0
  128.5070  127.6590   63.0550 C   0  0  0  0  0  0  0  0  0  0  0  0
  129.4510  127.0790   62.0500 C   0  0  0  0  0  0  0  0  0  0  0  0
  129.0060  126.7280   60.7720 C   0  0  0  0  0  0  0  0  0  0  0  0
  129.8810  126.1920   59.8300 C   0  0  0  0  0  0  0  0  0  0  0  0
  131.2340  125.9770   60.1360 C   0  0  0  0  0  0  0  0  0  0  0  0
  132.1310  125.4640   59.1940 N   0  0  0  0  0  0  0  0  0  0  0  0
  132.7500  124.1400   59.4120 C   0  0  0  0  0  0  0  0  0  0  0  0
  133.9810  123.8780   58.5190 C   0  0  0  0  0  0  0  0  0  0  0  0
  133.6380  124.0550   57.1550 O   0  0  0  0  0  0  0  0  0  0  0  0
  133.1930  125.3780   56.8990 C   0  0  0  0  0  0  0  0  0  0  0  0
  131.9420  125.6890   57.7460 C   0  0  0  0  0  0  0  0  0  0  0  0
  131.6780  126.3430   61.4150 C   0  0  0  0  0  0  0  0  0  0  0  0
  130.8030  126.8790   62.3560 C   0  0  0  0  0  0  0  0  0  0  0  0
  127.5110  128.4420   62.5680 N   0  0  0  0  0  0  0  0  0  0  0  0
  126.6290  129.0120   63.4240 C   0  0  0  0  0  0  0  0  0  0  0  0
  125.4000  130.0130   62.6170 S   0  0  0  0  0  0  0  0  0  0  0  0
  126.2570  131.0440   61.3880 C   0  0  0  0  0  0  0  0  0  0  0  0
  127.6970  131.3510   61.8000 C   0  0  0  0  0  0  0  0  0  0  0  0
  127.9060  132.0030   62.8250 O   0  0  0  0  0  0  0  0  0  0  0  0
  128.6540  130.8710   60.9780 N   0  0  0  0  0  0  0  0  0  0  0  0
  130.0260  130.9980   61.1370 C   0  0  0  0  0  0  0  0  0  0  0  0
  130.6790  131.9270   61.8020 N   0  0  0  0  0  0  0  0  0  0  0  0
  131.9820  131.7350   61.7490 C   0  0  0  0  0  0  0  0  0  0  0  0
  132.4120  130.6270   61.0260 C   0  0  0  0  0  0  0  0  0  0  0  0
  131.0250  129.7970   60.3850 S   0  0  0  0  0  0  0  0  0  0  0  0
  1  2  3  0
  2  3  1  0
  3  4  2  0
  4  5  1  0
  5  6  2  0
  6  7  1  0
  7  8  2  0
  8  9  1  0
  9 10  1  0
 10 11  1  0
 11 12  1  0
 12 13  1  0
 13 14  1  0
  8 15  1  0
 15 16  2  0
  4 17  1  0
 17 18  2  0
 18 19  1  0
 19 20  2  0
 20 21  1  0
 21 22  2  0
 22 23  1  0
 23 24  1  0
 24 25  1  0
 25 26  1  0
 26 27  1  0
 27 28  1  0
 22 29  1  0
 29 30  2  0
 18 31  1  0
 31 32  2  0
 32 33  1  0
 33 34  1  0
 34 35  1  0
 35 36  2  0
 35 37  1  0
 37 38  1  0
 38 39  2  0
 39 40  1  0
 40 41  2  0
 41 42  1  0
 32  3  1  0
 42 38  1  0
 16  5  1  0
 30 19  1  0
 14  9  1  0
 28 23  1  0
M  END
>  <Binding energies>  (11) 
[-9.65]

>  <Ligand effiencies>  (11) 
[-0.2244186046511628]

>  <Interactions>  (11) 
["V-A:GLU:543:CD:4908, V-A:HIS:456:CD2:4068, V-B:GLU:543:CD:9880, V-A:ASP:366:CG:3213, V-B:GLU:543:CB:9878, V-B:GLU:543:C:9874, V-B:HIS:456:CE1:9040, V-B:TYR:539:CE2:9848, H-B:TYR:484:OH:9319, V-B:ARG:545:CG:9894, V-A:PRO:540:C:4881, V-A:PRO:540:CA:4883, V-A:GLU:543:CB:4906, V-A:PRO:540:CB:4885, V-B:GLY:544:C:9884, H-B:LYS:547:NZ:9923, V-A:GLU:543:CG:4907, V-A:ASP:366:CA:3210, V-A:ILE:369:CB:3236, V-A:ILE:369:CG2:3237, H-B:ARG:545:NH2:9900, V-A:ASP:366:CB:3212, V-A:ALA:541:CA:4890, H-A:ALA:541:N:4891, V-A:ASP:366:C:3208, V-B:HIS:456:CD2:9039, V-B:HIS:456:CG:9037, H-B:TYR:539:OH:9850"]

$$$$
2j_Grossjean_2025
     RDKit          3D

 23 24  0  0  0  0  0  0  0  0999 V2000
  127.9410  130.3150   65.5750 C   0  0  0  0  0  0  0  0  0  0  0  0
  128.3730  128.9700   66.1290 C   0  0  0  0  0  0  0  0  0  0  0  0
  128.6760  127.9000   65.2910 C   0  0  0  0  0  0  0  0  0  0  0  0
  129.0740  126.6760   65.8510 C   0  0  0  0  0  0  0  0  0  0  0  0
  129.4050  125.5030   64.9090 C   0  0  0  0  0  0  0  0  0  0  0  0
  128.7540  125.6470   63.7550 F   0  0  0  0  0  0  0  0  0  0  0  0
  130.7160  125.4690   64.6660 F   0  0  0  0  0  0  0  0  0  0  0  0
  129.0610  124.3190   65.4200 F   0  0  0  0  0  0  0  0  0  0  0  0
  129.1530  126.5720   67.2620 C   0  0  0  0  0  0  0  0  0  0  0  0
  129.5630  125.3180   67.9010 C   0  0  0  0  0  0  0  0  0  0  0  0
  129.8880  124.3270   68.4050 N   0  0  0  0  0  0  0  0  0  0  0  0
  128.8270  127.7110   68.0370 C   0  0  0  0  0  0  0  0  0  0  0  0
  128.8940  127.6940   69.8230 S   0  0  0  0  0  0  0  0  0  0  0  0
  127.8410  126.3300   70.4250 C   0  0  0  0  0  0  0  0  0  0  0  0
  128.4740  125.4640   71.5240 C   0  0  0  0  0  0  0  0  0  0  0  0
  128.3390  125.7580   72.7140 O   0  0  0  0  0  0  0  0  0  0  0  0
  129.1730  124.3980   71.0730 N   0  0  0  0  0  0  0  0  0  0  0  0
  129.8400  123.4560   71.8450 C   0  0  0  0  0  0  0  0  0  0  0  0
  129.5500  122.1820   71.9920 N   0  0  0  0  0  0  0  0  0  0  0  0
  130.4000  121.5800   72.8010 C   0  0  0  0  0  0  0  0  0  0  0  0
  131.4110  122.3750   73.3320 C   0  0  0  0  0  0  0  0  0  0  0  0
  131.2290  123.9970   72.7320 S   0  0  0  0  0  0  0  0  0  0  0  0
  128.4460  128.8860   67.4760 N   0  0  0  0  0  0  0  0  0  0  0  0
  1  2  1  0
  2  3  2  0
  3  4  1  0
  4  5  1  0
  5  6  1  0
  5  7  1  0
  5  8  1  0
  4  9  2  0
  9 10  1  0
 10 11  3  0
  9 12  1  0
 12 13  1  0
 13 14  1  0
 14 15  1  0
 15 16  2  0
 15 17  1  0
 17 18  1  0
 18 19  2  0
 19 20  1  0
 20 21  2  0
 21 22  1  0
 12 23  2  0
 23  2  1  0
 22 18  1  0
M  END
>  <Binding energies>  (12) 
[-6.14]

>  <Ligand effiencies>  (12) 
[-0.2558333333333333]

>  <Interactions>  (12) 
["H-A:HIS:456:NE2:4070, V-B:GLU:543:CA:9876, V-A:GLU:543:CD:4908, V-A:HIS:456:CD2:4068, V-B:GLU:543:CD:9880, V-B:GLU:543:CB:9878, H-B:HIS:456:NE2:9041, H-A:TYR:484:OH:4348, V-A:TYR:484:CZ:4347, V-B:GLU:543:C:9874, V-A:TYR:484:CE1:4345, V-B:HIS:456:CE1:9040, V-A:HIS:456:CE1:4069, V-B:GLU:543:CG:9879, V-A:GLU:543:CB:4906, V-B:GLY:544:C:9884, H-B:LYS:547:NZ:9923, V-A:GLU:543:CG:4907, V-B:TYR:484:CE1:9316, V-B:TYR:484:CZ:9318, H-B:GLU:543:O:9875, V-A:TYR:484:CG:4342, V-A:HIS:456:CG:4066, V-A:TYR:484:CD1:4343, V-A:TYR:484:CD2:4344, V-A:HIS:456:CB:4065, V-A:ASP:473:CG:4240, V-A:ASP:473:CB:4239, V-A:TYR:484:CB:4341"]

$$$$
3ab_Grossjean_2025
     RDKit          3D

 33 35  0  0  0  0  0  0  0  0999 V2000
  126.8760  126.5800   74.4750 C   0  0  0  0  0  0  0  0  0  0  0  0
  128.1000  125.8590   74.5010 O   0  0  0  0  0  0  0  0  0  0  0  0
  129.2130  126.3500   73.8990 C   0  0  0  0  0  0  0  0  0  0  0  0
  130.1640  126.8360   74.5190 O   0  0  0  0  0  0  0  0  0  0  0  0
  129.1760  126.2390   72.4020 C   0  0  0  0  0  0  0  0  0  0  0  0
  128.7860  127.3130   71.5870 C   0  0  0  0  0  0  0  0  0  0  0  0
  128.7620  127.1820   70.2020 C   0  0  0  0  0  0  0  0  0  0  0  0
  129.1290  125.9660   69.6030 C   0  0  0  0  0  0  0  0  0  0  0  0
  129.1470  125.7240   68.2160 N   0  0  0  0  0  0  0  0  0  0  0  0
  129.4030  126.5660   67.1930 C   0  0  0  0  0  0  0  0  0  0  0  0
  129.6670  127.7630   67.3010 O   0  0  0  0  0  0  0  0  0  0  0  0
  129.3480  125.9380   65.7980 C   0  0  0  0  0  0  0  0  0  0  0  0
  130.0820  124.2760   65.7660 S   0  0  0  0  0  0  0  0  0  0  0  0
  130.7140  124.0030   64.1240 C   0  0  0  0  0  0  0  0  0  0  0  0
  129.7470  123.7750   63.2030 N   0  0  0  0  0  0  0  0  0  0  0  0
  130.0860  123.5560   61.9060 C   0  0  0  0  0  0  0  0  0  0  0  0
  128.9570  123.3140   60.9490 C   0  0  0  0  0  0  0  0  0  0  0  0
  129.2070  123.0680   59.5900 C   0  0  0  0  0  0  0  0  0  0  0  0
  128.1630  122.8420   58.6970 C   0  0  0  0  0  0  0  0  0  0  0  0
  126.8480  122.8610   59.1540 C   0  0  0  0  0  0  0  0  0  0  0  0
  126.5730  123.1070   60.4940 C   0  0  0  0  0  0  0  0  0  0  0  0
  127.6200  123.3320   61.3830 C   0  0  0  0  0  0  0  0  0  0  0  0
  131.4280  123.5410   61.5100 C   0  0  0  0  0  0  0  0  0  0  0  0
  132.4480  123.7550   62.4480 C   0  0  0  0  0  0  0  0  0  0  0  0
  133.9140  123.7260   61.9720 C   0  0  0  0  0  0  0  0  0  0  0  0
  134.6650  124.6660   62.5500 F   0  0  0  0  0  0  0  0  0  0  0  0
  134.4650  122.5450   62.2540 F   0  0  0  0  0  0  0  0  0  0  0  0
  133.9670  123.9230   60.6540 F   0  0  0  0  0  0  0  0  0  0  0  0
  132.0890  123.9860   63.7990 C   0  0  0  0  0  0  0  0  0  0  0  0
  133.1170  124.1590   64.8290 C   0  0  0  0  0  0  0  0  0  0  0  0
  133.9310  124.2950   65.6410 N   0  0  0  0  0  0  0  0  0  0  0  0
  129.5220  124.8990   70.4110 C   0  0  0  0  0  0  0  0  0  0  0  0
  129.5440  125.0310   71.7960 C   0  0  0  0  0  0  0  0  0  0  0  0
  1  2  1  0
  2  3  1  0
  3  4  2  0
  3  5  1  0
  5  6  2  0
  6  7  1  0
  7  8  2  0
  8  9  1  0
  9 10  1  0
 10 11  2  0
 10 12  1  0
 12 13  1  0
 13 14  1  0
 14 15  2  0
 15 16  1  0
 16 17  1  0
 17 18  2  0
 18 19  1  0
 19 20  2  0
 20 21  1  0
 21 22  2  0
 16 23  2  0
 23 24  1  0
 24 25  1  0
 25 26  1  0
 25 27  1  0
 25 28  1  0
 24 29  2  0
 29 30  1  0
 30 31  3  0
  8 32  1  0
 32 33  2  0
 33  5  1  0
 29 14  1  0
 22 17  1  0
M  END
>  <Binding energies>  (13) 
[-8.21]

>  <Ligand effiencies>  (13) 
[-0.24147058823529413]

>  <Interactions>  (13) 
["V-A:HIS:456:CD2:4068, V-B:GLU:543:CD:9880, V-A:ASP:366:CG:3213, V-B:TYR:539:CD2:9846, V-B:GLU:543:CB:9878, H-A:TYR:484:OH:4348, V-B:GLU:543:C:9874, V-B:HIS:456:CE1:9040, V-B:TYR:539:CE2:9848, V-A:HIS:456:CE1:4069, V-B:GLU:543:CG:9879, V-A:ARG:545:CZ:4926, V-B:PRO:540:CA:9855, V-B:ALA:541:CB:9864, H-B:LYS:547:NZ:9923, V-B:TYR:539:C:9839, V-B:PRO:540:CB:9857, V-B:PRO:540:C:9853, V-B:PRO:540:N:9856, V-A:ILE:369:CD1:3239, V-A:GLY:453:CA:4044, V-A:GLY:454:CA:4049, V-A:GLY:453:C:4042, H-A:GLY:454:N:4050, H-B:GLU:543:O:9875, V-B:LYS:547:CD:9921, V-B:LYS:547:CE:9922, H-A:LYS:547:NZ:4951"]

$$$$
3ac_Grossjean_2025
     RDKit          3D

 31 33  0  0  0  0  0  0  0  0999 V2000
  127.3420  126.9090   74.1720 C   0  0  0  0  0  0  0  0  0  0  0  0
  128.4130  126.0400   73.8150 O   0  0  0  0  0  0  0  0  0  0  0  0
  128.6720  125.8010   72.4790 C   0  0  0  0  0  0  0  0  0  0  0  0
  127.9960  126.6040   71.5610 C   0  0  0  0  0  0  0  0  0  0  0  0
  128.1960  126.4390   70.1940 C   0  0  0  0  0  0  0  0  0  0  0  0
  129.0710  125.4590   69.7230 C   0  0  0  0  0  0  0  0  0  0  0  0
  129.2230  125.3820   68.3270 N   0  0  0  0  0  0  0  0  0  0  0  0
  129.5740  126.3500   67.4530 C   0  0  0  0  0  0  0  0  0  0  0  0
  129.8750  127.5060   67.7560 O   0  0  0  0  0  0  0  0  0  0  0  0
  129.5910  125.9370   65.9820 C   0  0  0  0  0  0  0  0  0  0  0  0
  130.1000  124.2040   65.7600 S   0  0  0  0  0  0  0  0  0  0  0  0
  130.7400  124.0030   64.1080 C   0  0  0  0  0  0  0  0  0  0  0  0
  129.7720  123.7890   63.1840 N   0  0  0  0  0  0  0  0  0  0  0  0
  130.1070  123.6240   61.8780 C   0  0  0  0  0  0  0  0  0  0  0  0
  128.9780  123.3850   60.9220 C   0  0  0  0  0  0  0  0  0  0  0  0
  127.6470  123.3640   61.3720 C   0  0  0  0  0  0  0  0  0  0  0  0
  126.5940  123.1480   60.4880 C   0  0  0  0  0  0  0  0  0  0  0  0
  126.8570  122.9470   59.1370 C   0  0  0  0  0  0  0  0  0  0  0  0
  128.1650  122.9570   58.6660 C   0  0  0  0  0  0  0  0  0  0  0  0
  129.2160  123.1730   59.5530 C   0  0  0  0  0  0  0  0  0  0  0  0
  131.4450  123.6530   61.4740 C   0  0  0  0  0  0  0  0  0  0  0  0
  132.4680  123.8510   62.4130 C   0  0  0  0  0  0  0  0  0  0  0  0
  133.9290  123.8700   61.9240 C   0  0  0  0  0  0  0  0  0  0  0  0
  134.5660  122.7190   62.1480 F   0  0  0  0  0  0  0  0  0  0  0  0
  133.9740  124.0980   60.6100 F   0  0  0  0  0  0  0  0  0  0  0  0
  134.6040  124.8340   62.5520 F   0  0  0  0  0  0  0  0  0  0  0  0
  132.1140  124.0170   63.7750 C   0  0  0  0  0  0  0  0  0  0  0  0
  133.1500  124.1490   64.8020 C   0  0  0  0  0  0  0  0  0  0  0  0
  133.9690  124.2520   65.6130 N   0  0  0  0  0  0  0  0  0  0  0  0
  129.7610  124.6520   70.6410 C   0  0  0  0  0  0  0  0  0  0  0  0
  129.5590  124.8200   72.0090 C   0  0  0  0  0  0  0  0  0  0  0  0
  1  2  1  0
  2  3  1  0
  3  4  2  0
  4  5  1  0
  5  6  2  0
  6  7  1  0
  7  8  1  0
  8  9  2  0
  8 10  1  0
 10 11  1  0
 11 12  1  0
 12 13  2  0
 13 14  1  0
 14 15  1  0
 15 16  2  0
 16 17  1  0
 17 18  2  0
 18 19  1  0
 19 20  2  0
 14 21  2  0
 21 22  1  0
 22 23  1  0
 23 24  1  0
 23 25  1  0
 23 26  1  0
 22 27  2  0
 27 28  1  0
 28 29  3  0
  6 30  1  0
 30 31  2  0
 31  3  1  0
 27 12  1  0
 20 15  1  0
M  END
>  <Binding energies>  (14) 
[-7.85]

>  <Ligand effiencies>  (14) 
[-0.2453125]

>  <Interactions>  (14) 
["H-A:HIS:456:NE2:4070, V-A:HIS:456:CD2:4068, V-B:GLU:543:CD:9880, V-A:ASP:366:CG:3213, V-B:TYR:539:CD2:9846, V-B:GLU:543:CB:9878, H-A:TYR:484:OH:4348, V-B:GLU:543:C:9874, V-B:HIS:456:CE1:9040, V-B:TYR:539:CE2:9848, V-A:HIS:456:CE1:4069, V-B:GLU:543:CG:9879, V-A:ARG:545:CZ:4926, V-B:PRO:540:CA:9855, V-B:GLY:544:C:9884, H-B:LYS:547:NZ:9923, V-B:PRO:540:CB:9857, V-B:PRO:540:C:9853, V-B:PRO:540:N:9856, V-A:ILE:369:CD1:3239, V-A:GLY:453:CA:4044, V-A:GLY:454:CA:4049, V-A:GLY:453:C:4042, H-A:GLY:454:N:4050, H-B:GLU:543:O:9875, V-A:HIS:456:CG:4066"]

$$$$
3af_Grossjean_2025
     RDKit          3D

 29 31  0  0  0  0  0  0  0  0999 V2000
  125.5880  129.0710   67.0120 N   0  0  0  0  0  0  0  0  0  0  0  0
  126.4880  128.4180   66.6900 C   0  0  0  0  0  0  0  0  0  0  0  0
  127.6280  127.5930   66.2810 C   0  0  0  0  0  0  0  0  0  0  0  0
  128.2330  127.7730   65.0140 C   0  0  0  0  0  0  0  0  0  0  0  0
  127.7770  128.8610   64.0210 C   0  0  0  0  0  0  0  0  0  0  0  0
  127.9500  130.0980   64.4920 F   0  0  0  0  0  0  0  0  0  0  0  0
  128.4720  128.7610   62.8870 F   0  0  0  0  0  0  0  0  0  0  0  0
  126.4800  128.7170   63.7480 F   0  0  0  0  0  0  0  0  0  0  0  0
  129.2860  126.9220   64.6460 C   0  0  0  0  0  0  0  0  0  0  0  0
  129.7200  125.9170   65.5170 C   0  0  0  0  0  0  0  0  0  0  0  0
  130.8270  124.9690   65.1670 C   0  0  0  0  0  0  0  0  0  0  0  0
  130.5460  123.6450   64.7930 C   0  0  0  0  0  0  0  0  0  0  0  0
  131.5700  122.7600   64.4650 C   0  0  0  0  0  0  0  0  0  0  0  0
  132.8920  123.1890   64.5060 C   0  0  0  0  0  0  0  0  0  0  0  0
  133.1980  124.4960   64.8700 C   0  0  0  0  0  0  0  0  0  0  0  0
  132.1710  125.3780   65.1970 C   0  0  0  0  0  0  0  0  0  0  0  0
  129.1350  125.7450   66.7290 N   0  0  0  0  0  0  0  0  0  0  0  0
  128.1310  126.5700   67.1170 C   0  0  0  0  0  0  0  0  0  0  0  0
  127.5010  126.1990   68.7410 S   0  0  0  0  0  0  0  0  0  0  0  0
  128.3800  127.2480   69.9380 C   0  0  0  0  0  0  0  0  0  0  0  0
  129.1280  126.4180   70.9800 C   0  0  0  0  0  0  0  0  0  0  0  0
  129.7040  126.9930   71.9040 O   0  0  0  0  0  0  0  0  0  0  0  0
  129.0990  125.0820   70.7850 N   0  0  0  0  0  0  0  0  0  0  0  0
  129.6850  124.0500   71.5440 C   0  0  0  0  0  0  0  0  0  0  0  0
  130.7850  124.1910   72.4100 C   0  0  0  0  0  0  0  0  0  0  0  0
  131.2670  123.0780   73.1020 C   0  0  0  0  0  0  0  0  0  0  0  0
  130.6370  121.8480   72.9100 C   0  0  0  0  0  0  0  0  0  0  0  0
  129.5760  121.6860   72.0820 N   0  0  0  0  0  0  0  0  0  0  0  0
  129.1190  122.7770   71.4170 C   0  0  0  0  0  0  0  0  0  0  0  0
  1  2  3  0
  2  3  1  0
  3  4  2  0
  4  5  1  0
  5  6  1  0
  5  7  1  0
  5  8  1  0
  4  9  1  0
  9 10  2  0
 10 11  1  0
 11 12  2  0
 12 13  1  0
 13 14  2  0
 14 15  1  0
 15 16  2  0
 10 17  1  0
 17 18  2  0
 18 19  1  0
 19 20  1  0
 20 21  1  0
 21 22  2  0
 21 23  1  0
 23 24  1  0
 24 25  2  0
 25 26  1  0
 26 27  2  0
 27 28  1  0
 28 29  2  0
 18  3  1  0
 29 24  1  0
 16 11  1  0
M  END
>  <Binding energies>  (15) 
[-7.56]

>  <Ligand effiencies>  (15) 
[-0.252]

>  <Interactions>  (15) 
["H-A:HIS:456:NE2:4070, V-A:GLU:543:CD:4908, V-A:HIS:456:CD2:4068, V-B:GLU:543:CD:9880, V-A:LEU:475:CD1:4258, V-B:GLU:543:CB:9878, V-A:TYR:484:CZ:4347, V-B:GLU:543:C:9874, V-A:TYR:484:CE1:4345, V-B:HIS:456:CE1:9040, V-A:HIS:456:CE1:4069, H-B:TYR:484:OH:9319, V-A:GLU:543:CB:4906, H-B:LYS:547:NZ:9923, V-A:GLY:454:CA:4049, H-B:GLU:543:O:9875, V-A:TYR:484:CG:4342, V-A:HIS:456:CG:4066, V-A:TYR:484:CD1:4343, V-A:TYR:484:CD2:4344, V-B:GLY:544:CA:9886, V-A:HIS:456:CB:4065, V-B:LYS:547:CE:9922, V-A:ASP:473:CB:4239, H-B:GLY:544:O:9885, V-A:TYR:484:CB:4341"]

$$$$
3ag_Grossjean_2025
     RDKit          3D

 30 32  0  0  0  0  0  0  0  0999 V2000
  128.3880  127.8440   62.9090 N   0  0  0  0  0  0  0  0  0  0  0  0
  128.4920  127.5430   64.0220 C   0  0  0  0  0  0  0  0  0  0  0  0
  128.6260  127.1590   65.4300 C   0  0  0  0  0  0  0  0  0  0  0  0
  129.2750  125.9530   65.7930 C   0  0  0  0  0  0  0  0  0  0  0  0
  129.9220  125.0130   64.7580 C   0  0  0  0  0  0  0  0  0  0  0  0
  130.9590  125.5700   64.1290 F   0  0  0  0  0  0  0  0  0  0  0  0
  130.3640  123.9090   65.3620 F   0  0  0  0  0  0  0  0  0  0  0  0
  129.0300  124.6690   63.8280 F   0  0  0  0  0  0  0  0  0  0  0  0
  129.3300  125.6030   67.1510 C   0  0  0  0  0  0  0  0  0  0  0  0
  128.7440  126.4270   68.1180 C   0  0  0  0  0  0  0  0  0  0  0  0
  128.7710  126.1020   69.5800 C   0  0  0  0  0  0  0  0  0  0  0  0
  128.0710  126.8930   70.5040 C   0  0  0  0  0  0  0  0  0  0  0  0
  128.0920  126.5960   71.8640 C   0  0  0  0  0  0  0  0  0  0  0  0
  128.8160  125.5000   72.3200 C   0  0  0  0  0  0  0  0  0  0  0  0
  129.5210  124.7010   71.4250 C   0  0  0  0  0  0  0  0  0  0  0  0
  129.4990  125.0010   70.0670 C   0  0  0  0  0  0  0  0  0  0  0  0
  128.1340  127.5890   67.7670 N   0  0  0  0  0  0  0  0  0  0  0  0
  128.0860  127.9560   66.4640 C   0  0  0  0  0  0  0  0  0  0  0  0
  127.2530  129.5050   66.1920 S   0  0  0  0  0  0  0  0  0  0  0  0
  125.4780  129.1460   66.0400 C   0  0  0  0  0  0  0  0  0  0  0  0
  124.9310  129.5070   64.6580 C   0  0  0  0  0  0  0  0  0  0  0  0
  123.8600  130.1090   64.5590 O   0  0  0  0  0  0  0  0  0  0  0  0
  125.6810  129.1400   63.6040 N   0  0  0  0  0  0  0  0  0  0  0  0
  125.3670  129.4140   62.2030 C   0  0  0  0  0  0  0  0  0  0  0  0
  125.1590  130.8920   61.8890 C   0  0  0  0  0  0  0  0  0  0  0  0
  126.0450  131.8420   62.4040 C   0  0  0  0  0  0  0  0  0  0  0  0
  125.8760  133.1890   62.0960 C   0  0  0  0  0  0  0  0  0  0  0  0
  124.8280  133.5810   61.2660 C   0  0  0  0  0  0  0  0  0  0  0  0
  123.9500  132.6380   60.7380 C   0  0  0  0  0  0  0  0  0  0  0  0
  124.1180  131.2900   61.0450 C   0  0  0  0  0  0  0  0  0  0  0  0
  1  2  3  0
  2  3  1  0
  3  4  2  0
  4  5  1  0
  5  6  1  0
  5  7  1  0
  5  8  1  0
  4  9  1  0
  9 10  2  0
 10 11  1  0
 11 12  2  0
 12 13  1  0
 13 14  2  0
 14 15  1  0
 15 16  2  0
 10 17  1  0
 17 18  2  0
 18 19  1  0
 19 20  1  0
 20 21  1  0
 21 22  2  0
 21 23  1  0
 23 24  1  0
 24 25  1  0
 25 26  2  0
 26 27  1  0
 27 28  2  0
 28 29  1  0
 29 30  2  0
 18  3  1  0
 30 25  1  0
 16 11  1  0
M  END
>  <Binding energies>  (16) 
[-7.01]

>  <Ligand effiencies>  (16) 
[-0.22612903225806452]

>  <Interactions>  (16) 
["V-A:GLU:543:CD:4908, V-A:HIS:456:CD2:4068, V-B:GLU:543:CD:9880, V-B:GLU:543:CB:9878, V-A:TYR:484:CZ:4347, V-B:GLU:543:C:9874, V-A:TYR:484:CE1:4345, V-B:HIS:456:CE1:9040, V-A:HIS:456:CE1:4069, V-B:GLU:543:CG:9879, V-B:ARG:545:CZ:9898, H-B:TYR:484:OH:9319, V-B:ILE:369:CG2:8208, V-B:ILE:369:CD1:8210, V-B:LEU:475:CD1:9229, H-B:GLY:454:N:9021, H-B:ARG:545:NH2:9900, H-B:ARG:545:NE:9896, H-B:GLU:543:OE1:9881"]

$$$$
3bc_Grossjean_2025
     RDKit          3D

 28 30  0  0  0  0  0  0  0  0999 V2000
  127.2360  126.8440   74.4830 C   0  0  0  0  0  0  0  0  0  0  0  0
  128.2410  126.0360   73.8800 O   0  0  0  0  0  0  0  0  0  0  0  0
  128.3640  126.0290   72.5030 C   0  0  0  0  0  0  0  0  0  0  0  0
  129.2330  125.0820   71.9620 C   0  0  0  0  0  0  0  0  0  0  0  0
  129.4220  124.9980   70.5850 C   0  0  0  0  0  0  0  0  0  0  0  0
  128.7480  125.8700   69.7290 C   0  0  0  0  0  0  0  0  0  0  0  0
  128.9930  125.7020   68.3530 N   0  0  0  0  0  0  0  0  0  0  0  0
  129.6280  126.5270   67.4940 C   0  0  0  0  0  0  0  0  0  0  0  0
  130.1530  127.5980   67.8070 O   0  0  0  0  0  0  0  0  0  0  0  0
  129.6990  126.0170   66.0470 C   0  0  0  0  0  0  0  0  0  0  0  0
  130.1480  124.2570   65.8670 S   0  0  0  0  0  0  0  0  0  0  0  0
  130.7550  124.0180   64.2120 C   0  0  0  0  0  0  0  0  0  0  0  0
  129.7780  123.7990   63.2990 N   0  0  0  0  0  0  0  0  0  0  0  0
  130.1030  123.6020   61.9940 C   0  0  0  0  0  0  0  0  0  0  0  0
  128.9650  123.3450   61.0510 C   0  0  0  0  0  0  0  0  0  0  0  0
  129.2060  123.0250   59.7070 C   0  0  0  0  0  0  0  0  0  0  0  0
  128.1550  122.7850   58.8260 C   0  0  0  0  0  0  0  0  0  0  0  0
  126.8430  122.8650   59.2800 C   0  0  0  0  0  0  0  0  0  0  0  0
  126.5750  123.1830   60.6080 C   0  0  0  0  0  0  0  0  0  0  0  0
  127.6300  123.4230   61.4850 C   0  0  0  0  0  0  0  0  0  0  0  0
  131.4370  123.6220   61.5750 C   0  0  0  0  0  0  0  0  0  0  0  0
  132.4560  123.8700   62.5010 C   0  0  0  0  0  0  0  0  0  0  0  0
  133.8980  123.9000   61.9960 C   0  0  0  0  0  0  0  0  0  0  0  0
  132.1210  124.0850   63.8560 C   0  0  0  0  0  0  0  0  0  0  0  0
  133.1670  124.3950   64.8330 C   0  0  0  0  0  0  0  0  0  0  0  0
  133.9950  124.6390   65.6040 N   0  0  0  0  0  0  0  0  0  0  0  0
  127.8620  126.8170   70.2640 C   0  0  0  0  0  0  0  0  0  0  0  0
  127.6750  126.8970   71.6420 C   0  0  0  0  0  0  0  0  0  0  0  0
  1  2  1  0
  2  3  1  0
  3  4  2  0
  4  5  1  0
  5  6  2  0
  6  7  1  0
  7  8  1  0
  8  9  2  0
  8 10  1  0
 10 11  1  0
 11 12  1  0
 12 13  2  0
 13 14  1  0
 14 15  1  0
 15 16  2  0
 16 17  1  0
 17 18  2  0
 18 19  1  0
 19 20  2  0
 14 21  2  0
 21 22  1  0
 22 23  1  0
 22 24  2  0
 24 25  1  0
 25 26  3  0
  6 27  1  0
 27 28  2  0
 28  3  1  0
 24 12  1  0
 20 15  1  0
M  END
>  <Binding energies>  (17) 
[-8.28]

>  <Ligand effiencies>  (17) 
[-0.28551724137931034]

>  <Interactions>  (17) 
["H-A:HIS:456:NE2:4070, V-A:HIS:456:CD2:4068, V-B:GLU:543:CD:9880, V-B:TYR:539:CD2:9846, V-B:GLU:543:CB:9878, H-A:TYR:484:OH:4348, V-B:GLU:543:C:9874, V-B:HIS:456:CE1:9040, V-B:TYR:539:CE2:9848, V-A:HIS:456:CE1:4069, V-B:GLU:543:CG:9879, V-B:PRO:540:CA:9855, V-B:GLY:544:C:9884, H-B:LYS:547:NZ:9923, V-B:PRO:540:CB:9857, V-B:PRO:540:C:9853, V-B:PRO:540:N:9856, H-A:GLY:454:N:4050, H-A:ARG:545:NE:4924, H-B:GLU:543:O:9875, V-B:LYS:547:CD:9921"]

$$$$
3bd_Grossjean_2025
     RDKit          3D

 26 28  0  0  0  0  0  0  0  0999 V2000
  129.7750  124.9390   64.7370 C   0  0  0  0  0  0  0  0  0  0  0  0
  129.2410  125.7940   65.8850 C   0  0  0  0  0  0  0  0  0  0  0  0
  129.5070  125.3820   67.1960 C   0  0  0  0  0  0  0  0  0  0  0  0
  129.0320  126.1350   68.2760 C   0  0  0  0  0  0  0  0  0  0  0  0
  129.2840  125.7530   69.7040 C   0  0  0  0  0  0  0  0  0  0  0  0
  129.8790  124.5220   70.0230 C   0  0  0  0  0  0  0  0  0  0  0  0
  130.1140  124.1600   71.3470 C   0  0  0  0  0  0  0  0  0  0  0  0
  129.7550  125.0270   72.3740 C   0  0  0  0  0  0  0  0  0  0  0  0
  129.1610  126.2510   72.0850 C   0  0  0  0  0  0  0  0  0  0  0  0
  128.9280  126.6090   70.7600 C   0  0  0  0  0  0  0  0  0  0  0  0
  128.3240  127.2760   68.0690 N   0  0  0  0  0  0  0  0  0  0  0  0
  128.0570  127.6910   66.8050 C   0  0  0  0  0  0  0  0  0  0  0  0
  127.1090  129.1980   66.6690 S   0  0  0  0  0  0  0  0  0  0  0  0
  125.3730  128.7460   66.3740 C   0  0  0  0  0  0  0  0  0  0  0  0
  124.7720  129.5160   65.1970 C   0  0  0  0  0  0  0  0  0  0  0  0
  123.8310  130.2820   65.4010 O   0  0  0  0  0  0  0  0  0  0  0  0
  125.3330  129.2730   63.9920 N   0  0  0  0  0  0  0  0  0  0  0  0
  125.0230  129.8380   62.7410 C   0  0  0  0  0  0  0  0  0  0  0  0
  123.9330  130.7120   62.7140 C   0  0  0  0  0  0  0  0  0  0  0  0
  123.5460  131.3140   61.5200 C   0  0  0  0  0  0  0  0  0  0  0  0
  124.2430  131.0340   60.3480 C   0  0  0  0  0  0  0  0  0  0  0  0
  125.3230  130.1540   60.3590 C   0  0  0  0  0  0  0  0  0  0  0  0
  125.7130  129.5520   61.5520 C   0  0  0  0  0  0  0  0  0  0  0  0
  128.4980  126.9740   65.6710 C   0  0  0  0  0  0  0  0  0  0  0  0
  128.2040  127.4340   64.3100 C   0  0  0  0  0  0  0  0  0  0  0  0
  127.9740  127.7960   63.2360 N   0  0  0  0  0  0  0  0  0  0  0  0
  1  2  1  0
  2  3  2  0
  3  4  1  0
  4  5  1  0
  5  6  2  0
  6  7  1  0
  7  8  2  0
  8  9  1  0
  9 10  2  0
  4 11  2  0
 11 12  1  0
 12 13  1  0
 13 14  1  0
 14 15  1  0
 15 16  2  0
 15 17  1  0
 17 18  1  0
 18 19  2  0
 19 20  1  0
 20 21  2  0
 21 22  1  0
 22 23  2  0
 12 24  2  0
 24 25  1  0
 25 26  3  0
 24  2  1  0
 10  5  1  0
 23 18  1  0
M  END
>  <Binding energies>  (18) 
[-7.51]

>  <Ligand effiencies>  (18) 
[-0.27814814814814814]

>  <Interactions>  (18) 
["V-A:HIS:456:CD2:4068, V-B:GLU:543:CD:9880, V-B:GLU:543:CB:9878, V-A:TYR:484:CZ:4347, V-A:TYR:484:CE1:4345, V-B:HIS:456:CE1:9040, V-A:HIS:456:CE1:4069, V-B:GLU:543:CG:9879, V-B:ARG:545:CD:9895, V-B:ARG:545:CZ:9898, H-B:TYR:484:OH:9319, V-B:ARG:545:CG:9894, V-B:ILE:369:CD1:8210, H-B:GLY:454:N:9021, H-B:ARG:545:NE:9896, V-B:ASP:366:CG:8184, H-B:GLU:543:OE1:9881, V-A:HIS:456:CG:4066"]

$$$$
3be_Grossjean_2025
     RDKit          3D

 27 29  0  0  0  0  0  0  0  0999 V2000
  126.9300  122.5110   57.4630 C   0  0  0  0  0  0  0  0  0  0  0  0
  127.3240  122.5570   58.9260 C   0  0  0  0  0  0  0  0  0  0  0  0
  126.4920  123.1320   59.8890 C   0  0  0  0  0  0  0  0  0  0  0  0
  126.9200  123.1430   61.2170 C   0  0  0  0  0  0  0  0  0  0  0  0
  128.1580  122.5830   61.5470 C   0  0  0  0  0  0  0  0  0  0  0  0
  128.9410  122.0200   60.5330 C   0  0  0  0  0  0  0  0  0  0  0  0
  130.1800  121.4820   60.9280 N   0  0  0  0  0  0  0  0  0  0  0  0
  130.6930  120.2600   60.6680 C   0  0  0  0  0  0  0  0  0  0  0  0
  130.1190  119.3840   60.0180 O   0  0  0  0  0  0  0  0  0  0  0  0
  132.0920  120.0130   61.2520 C   0  0  0  0  0  0  0  0  0  0  0  0
  133.3350  121.2900   60.8580 S   0  0  0  0  0  0  0  0  0  0  0  0
  132.5640  122.8840   61.0330 C   0  0  0  0  0  0  0  0  0  0  0  0
  132.0390  123.1020   62.2640 N   0  0  0  0  0  0  0  0  0  0  0  0
  131.4220  124.2810   62.5400 C   0  0  0  0  0  0  0  0  0  0  0  0
  130.8570  124.4370   63.9200 C   0  0  0  0  0  0  0  0  0  0  0  0
  131.1500  125.5720   64.6930 C   0  0  0  0  0  0  0  0  0  0  0  0
  130.6310  125.7210   65.9750 C   0  0  0  0  0  0  0  0  0  0  0  0
  129.8090  124.7330   66.5060 C   0  0  0  0  0  0  0  0  0  0  0  0
  129.5040  123.5970   65.7640 C   0  0  0  0  0  0  0  0  0  0  0  0
  130.0260  123.4520   64.4810 C   0  0  0  0  0  0  0  0  0  0  0  0
  131.3160  125.2790   61.5650 C   0  0  0  0  0  0  0  0  0  0  0  0
  131.8730  125.0810   60.2970 C   0  0  0  0  0  0  0  0  0  0  0  0
  131.7480  126.2050   59.2710 C   0  0  0  0  0  0  0  0  0  0  0  0
  132.5260  123.8620   60.0130 C   0  0  0  0  0  0  0  0  0  0  0  0
  133.1640  123.6540   58.7110 C   0  0  0  0  0  0  0  0  0  0  0  0
  133.6670  123.4930   57.6820 N   0  0  0  0  0  0  0  0  0  0  0  0
  128.5280  122.0100   59.2320 N   0  0  0  0  0  0  0  0  0  0  0  0
  1  2  1  0
  2  3  2  0
  3  4  1  0
  4  5  2  0
  5  6  1  0
  6  7  1  0
  7  8  1  0
  8  9  2  0
  8 10  1  0
 10 11  1  0
 11 12  1  0
 12 13  2  0
 13 14  1  0
 14 15  1  0
 15 16  2  0
 16 17  1  0
 17 18  2  0
 18 19  1  0
 19 20  2  0
 14 21  2  0
 21 22  1  0
 22 23  1  0
 22 24  2  0
 24 25  1  0
 25 26  3  0
  6 27  2  0
 27  2  1  0
 24 12  1  0
 20 15  1  0
M  END
>  <Binding energies>  (19) 
[-7.17]

>  <Ligand effiencies>  (19) 
[-0.25607142857142856]

>  <Interactions>  (19) 
["V-B:GLU:543:CA:9876, V-A:GLU:543:CD:4908, V-B:GLU:543:CD:9880, V-A:ASP:366:CG:3213, V-B:TYR:539:CD2:9846, V-A:LEU:475:CD1:4258, V-B:GLU:543:CB:9878, V-A:TYR:484:CZ:4347, V-A:TYR:484:CE1:4345, V-B:TYR:539:CE2:9848, V-A:HIS:456:CE1:4069, V-B:GLU:543:CG:9879, V-B:PRO:540:CA:9855, V-B:ALA:541:CB:9864, V-B:TYR:539:CZ:9849, V-B:TYR:539:C:9839, V-B:PRO:540:CB:9857, V-B:PRO:540:C:9853, V-B:PRO:540:N:9856, V-A:ILE:369:CG2:3237, V-B:ALA:541:CA:9862, V-A:TRP:381:CH2:3372, V-A:ASP:366:CB:3212, V-B:PRO:540:CD:9859, H-B:TYR:539:OH:9850"]

$$$$
3bf_Grossjean_2025
     RDKit          3D

 26 28  0  0  0  0  0  0  0  0999 V2000
  133.9770  125.2910   65.1920 C   0  0  0  0  0  0  0  0  0  0  0  0
  132.5090  124.8790   65.1150 C   0  0  0  0  0  0  0  0  0  0  0  0
  131.6060  125.4900   65.9900 C   0  0  0  0  0  0  0  0  0  0  0  0
  130.2490  125.1530   65.9430 C   0  0  0  0  0  0  0  0  0  0  0  0
  129.2270  125.7870   66.8390 C   0  0  0  0  0  0  0  0  0  0  0  0
  128.2500  126.6480   66.3130 C   0  0  0  0  0  0  0  0  0  0  0  0
  127.2990  127.2410   67.1380 C   0  0  0  0  0  0  0  0  0  0  0  0
  127.3130  126.9810   68.5050 C   0  0  0  0  0  0  0  0  0  0  0  0
  128.2710  126.1340   69.0500 C   0  0  0  0  0  0  0  0  0  0  0  0
  129.2220  125.5430   68.2220 C   0  0  0  0  0  0  0  0  0  0  0  0
  129.7900  124.2330   65.0530 N   0  0  0  0  0  0  0  0  0  0  0  0
  130.6570  123.6140   64.2150 C   0  0  0  0  0  0  0  0  0  0  0  0
  129.8790  122.4380   63.1270 S   0  0  0  0  0  0  0  0  0  0  0  0
  128.5010  123.2790   62.2770 C   0  0  0  0  0  0  0  0  0  0  0  0
  128.0860  122.6580   60.9350 C   0  0  0  0  0  0  0  0  0  0  0  0
  128.4040  121.5010   60.6520 O   0  0  0  0  0  0  0  0  0  0  0  0
  127.3440  123.4650   60.1460 N   0  0  0  0  0  0  0  0  0  0  0  0
  126.8200  123.2090   58.8660 C   0  0  0  0  0  0  0  0  0  0  0  0
  125.5760  123.7730   58.5610 C   0  0  0  0  0  0  0  0  0  0  0  0
  125.0080  123.5670   57.3020 C   0  0  0  0  0  0  0  0  0  0  0  0
  125.7100  122.8000   56.3720 C   0  0  0  0  0  0  0  0  0  0  0  0
  126.9220  122.2500   56.6360 N   0  0  0  0  0  0  0  0  0  0  0  0
  127.4620  122.4590   57.8650 C   0  0  0  0  0  0  0  0  0  0  0  0
  132.0350  123.9190   64.1940 C   0  0  0  0  0  0  0  0  0  0  0  0
  132.9560  123.3030   63.2350 C   0  0  0  0  0  0  0  0  0  0  0  0
  133.6840  122.8160   62.4780 N   0  0  0  0  0  0  0  0  0  0  0  0
  1  2  1  0
  2  3  2  0
  3  4  1  0
  4  5  1  0
  5  6  2  0
  6  7  1  0
  7  8  2  0
  8  9  1  0
  9 10  2  0
  4 11  2  0
 11 12  1  0
 12 13  1  0
 13 14  1  0
 14 15  1  0
 15 16  2  0
 15 17  1  0
 17 18  1  0
 18 19  2  0
 19 20  1  0
 20 21  2  0
 21 22  1  0
 22 23  2  0
 12 24  2  0
 24 25  1  0
 25 26  3  0
 24  2  1  0
 10  5  1  0
 23 18  1  0
M  END
>  <Binding energies>  (20) 
[-8.38]

>  <Ligand effiencies>  (20) 
[-0.3103703703703704]

>  <Interactions>  (20) 
["V-B:GLU:543:CD:9880, V-B:TYR:539:CD2:9846, H-B:ALA:541:N:9863, V-B:GLU:543:CB:9878, H-A:TYR:484:OH:4348, V-B:GLU:543:C:9874, V-B:HIS:456:CE1:9040, V-B:TYR:539:CE2:9848, V-A:HIS:456:CE1:4069, V-B:GLU:543:CG:9879, V-A:ARG:545:CZ:4926, V-B:PRO:540:CA:9855, V-B:ALA:541:CB:9864, V-B:TYR:539:C:9839, V-B:PRO:540:CB:9857, V-B:PRO:540:N:9856, V-A:GLY:453:CA:4044, V-A:GLY:454:CA:4049, H-A:GLY:454:N:4050, V-A:ARG:545:CD:4923, H-B:GLU:543:OE2:9882, V-B:TYR:539:CG:9844, V-B:LEU:363:CD1:8160, V-B:PRO:540:CD:9859, V-B:ILE:538:CB:9834, H-B:TYR:539:N:9842, V-B:ILE:538:CG2:9835"]

$$$$
3bg_Grossjean_2025
     RDKit          3D

 27 29  0  0  0  0  0  0  0  0999 V2000
  128.7500  125.0530   63.0430 C   0  0  0  0  0  0  0  0  0  0  0  0
  128.6570  123.8320   62.1290 C   0  0  0  0  0  0  0  0  0  0  0  0
  127.9380  123.9530   60.9360 C   0  0  0  0  0  0  0  0  0  0  0  0
  127.8350  122.8600   60.0650 C   0  0  0  0  0  0  0  0  0  0  0  0
  127.0870  122.9260   58.7610 C   0  0  0  0  0  0  0  0  0  0  0  0
  125.8130  123.5120   58.6860 C   0  0  0  0  0  0  0  0  0  0  0  0
  125.1260  123.5910   57.4790 C   0  0  0  0  0  0  0  0  0  0  0  0
  125.7020  123.0800   56.3210 C   0  0  0  0  0  0  0  0  0  0  0  0
  126.9560  122.4830   56.3670 C   0  0  0  0  0  0  0  0  0  0  0  0
  127.6390  122.4040   57.5780 C   0  0  0  0  0  0  0  0  0  0  0  0
  128.4450  121.6810   60.3600 N   0  0  0  0  0  0  0  0  0  0  0  0
  129.1490  121.5480   61.5140 C   0  0  0  0  0  0  0  0  0  0  0  0
  129.9290  119.9610   61.7660 S   0  0  0  0  0  0  0  0  0  0  0  0
  131.1660  119.7170   60.4500 C   0  0  0  0  0  0  0  0  0  0  0  0
  132.1090  120.9180   60.3240 C   0  0  0  0  0  0  0  0  0  0  0  0
  133.3150  120.7750   60.5280 O   0  0  0  0  0  0  0  0  0  0  0  0
  131.5400  122.0950   60.0120 N   0  0  0  0  0  0  0  0  0  0  0  0
  132.2150  123.3930   60.0190 C   0  0  0  0  0  0  0  0  0  0  0  0
  132.3950  123.9300   61.4350 C   0  0  0  0  0  0  0  0  0  0  0  0
  131.8510  125.1690   61.7880 C   0  0  0  0  0  0  0  0  0  0  0  0
  132.0240  125.6630   63.0770 C   0  0  0  0  0  0  0  0  0  0  0  0
  132.7300  124.9120   64.0150 C   0  0  0  0  0  0  0  0  0  0  0  0
  133.2570  123.6670   63.6770 C   0  0  0  0  0  0  0  0  0  0  0  0
  133.0840  123.1730   62.3860 C   0  0  0  0  0  0  0  0  0  0  0  0
  129.2770  122.6030   62.4400 C   0  0  0  0  0  0  0  0  0  0  0  0
  130.0430  122.4490   63.6790 C   0  0  0  0  0  0  0  0  0  0  0  0
  130.6480  122.3290   64.6580 N   0  0  0  0  0  0  0  0  0  0  0  0
  1  2  1  0
  2  3  2  0
  3  4  1  0
  4  5  1  0
  5  6  2  0
  6  7  1  0
  7  8  2  0
  8  9  1  0
  9 10  2  0
  4 11  2  0
 11 12  1  0
 12 13  1  0
 13 14  1  0
 14 15  1  0
 15 16  2  0
 15 17  1  0
 17 18  1  0
 18 19  1  0
 19 20  2  0
 20 21  1  0
 21 22  2  0
 22 23  1  0
 23 24  2  0
 12 25  2  0
 25 26  1  0
 26 27  3  0
 25  2  1  0
 10  5  1  0
 24 19  1  0
M  END
>  <Binding energies>  (21) 
[-7.08]

>  <Ligand effiencies>  (21) 
[-0.25285714285714284]

>  <Interactions>  (21) 
["V-B:GLU:543:CD:9880, V-B:TYR:539:CD2:9846, V-A:LEU:475:CD1:4258, H-B:ALA:541:N:9863, H-A:TYR:484:OH:4348, V-B:TYR:539:CE2:9848, V-B:GLU:543:CG:9879, V-A:ARG:545:CZ:4926, V-B:PRO:540:CA:9855, V-B:ALA:541:CB:9864, V-B:TYR:539:CZ:9849, V-B:TYR:539:C:9839, V-B:PRO:540:CB:9857, V-B:PRO:540:N:9856, V-A:GLY:454:CA:4049, V-A:TRP:381:CZ2:3370, V-B:ALA:541:CA:9862, V-A:TRP:381:CH2:3372, V-B:TYR:539:CG:9844, V-B:LEU:363:CD1:8160, V-B:PRO:540:CD:9859, V-B:ILE:538:CB:9834, V-B:TYR:539:CD1:9845, V-B:ILE:538:CG2:9835"]

$$$$
3ca_Grossjean_2025
     RDKit          3D

 31 33  0  0  0  0  0  0  0  0999 V2000
  125.1940  126.8690   74.3720 C   0  0  0  0  0  0  0  0  0  0  0  0
  125.8780  127.4740   73.1430 C   0  0  0  0  0  0  0  0  0  0  0  0
  127.2760  127.5790   73.3830 O   0  0  0  0  0  0  0  0  0  0  0  0
  128.1060  126.5270   73.1680 C   0  0  0  0  0  0  0  0  0  0  0  0
  128.4710  125.7550   74.0610 O   0  0  0  0  0  0  0  0  0  0  0  0
  128.5310  126.3890   71.7340 C   0  0  0  0  0  0  0  0  0  0  0  0
  129.0950  125.1820   71.3010 C   0  0  0  0  0  0  0  0  0  0  0  0
  129.4990  125.0240   69.9780 C   0  0  0  0  0  0  0  0  0  0  0  0
  129.3550  126.0700   69.0650 C   0  0  0  0  0  0  0  0  0  0  0  0
  129.7950  125.8040   67.7540 N   0  0  0  0  0  0  0  0  0  0  0  0
  129.6450  126.5370   66.6290 C   0  0  0  0  0  0  0  0  0  0  0  0
  129.0850  127.6300   66.5610 O   0  0  0  0  0  0  0  0  0  0  0  0
  130.2580  125.9260   65.3640 C   0  0  0  0  0  0  0  0  0  0  0  0
  131.9390  125.2690   65.6260 S   0  0  0  0  0  0  0  0  0  0  0  0
  132.4330  124.2870   64.2160 C   0  0  0  0  0  0  0  0  0  0  0  0
  133.6460  124.5860   63.6870 N   0  0  0  0  0  0  0  0  0  0  0  0
  134.0930  123.8710   62.6330 C   0  0  0  0  0  0  0  0  0  0  0  0
  135.4640  124.2540   62.1100 C   0  0  0  0  0  0  0  0  0  0  0  0
  133.3500  122.8440   62.0550 C   0  0  0  0  0  0  0  0  0  0  0  0
  132.0870  122.5270   62.5710 C   0  0  0  0  0  0  0  0  0  0  0  0
  131.3210  121.4280   61.9100 C   0  0  0  0  0  0  0  0  0  0  0  0
  131.9790  120.2650   61.4930 C   0  0  0  0  0  0  0  0  0  0  0  0
  131.2760  119.2390   60.8670 C   0  0  0  0  0  0  0  0  0  0  0  0
  129.9060  119.3750   60.6530 C   0  0  0  0  0  0  0  0  0  0  0  0
  129.2370  120.5280   61.0560 C   0  0  0  0  0  0  0  0  0  0  0  0
  129.9450  121.5520   61.6800 C   0  0  0  0  0  0  0  0  0  0  0  0
  131.6130  123.2600   63.6890 C   0  0  0  0  0  0  0  0  0  0  0  0
  130.3220  122.9400   64.3050 C   0  0  0  0  0  0  0  0  0  0  0  0
  129.3020  122.6860   64.7900 N   0  0  0  0  0  0  0  0  0  0  0  0
  128.7840  127.2790   69.4880 C   0  0  0  0  0  0  0  0  0  0  0  0
  128.3780  127.4340   70.8110 C   0  0  0  0  0  0  0  0  0  0  0  0
  1  2  1  0
  2  3  1  0
  3  4  1  0
  4  5  2  0
  4  6  1  0
  6  7  2  0
  7  8  1  0
  8  9  2  0
  9 10  1  0
 10 11  1  0
 11 12  2  0
 11 13  1  0
 13 14  1  0
 14 15  1  0
 15 16  2  0
 16 17  1  0
 17 18  1  0
 17 19  2  0
 19 20  1  0
 20 21  1  0
 21 22  2  0
 22 23  1  0
 23 24  2  0
 24 25  1  0
 25 26  2  0
 20 27  2  0
 27 28  1  0
 28 29  3  0
  9 30  1  0
 30 31  2  0
 31  6  1  0
 27 15  1  0
 26 21  1  0
M  END
>  <Binding energies>  (22) 
[-8.16]

>  <Ligand effiencies>  (22) 
[-0.255]

>  <Interactions>  (22) 
["V-A:GLU:543:CD:4908, V-A:HIS:456:CD2:4068, V-A:ASP:366:CG:3213, V-B:TYR:539:CD2:9846, V-A:LEU:475:CD1:4258, H-A:TYR:484:OH:4348, V-B:GLU:543:C:9874, V-B:HIS:456:CE1:9040, V-A:HIS:456:CE1:4069, V-B:ALA:541:CB:9864, H-B:LYS:547:NZ:9923, V-B:PRO:540:C:9853, V-A:ILE:369:CD1:3239, V-A:GLY:453:CA:4044, V-A:GLY:454:CA:4049, V-A:GLY:453:C:4042, H-A:GLY:454:N:4050, V-A:TRP:381:CZ2:3370, V-B:ALA:541:CA:9862, V-A:PRO:482:CG:4327, V-A:PRO:482:CB:4326, H-A:ARG:545:NH2:4928, V-A:TRP:381:CH2:3372, H-B:GLU:543:O:9875, V-B:HIS:456:CD2:9039, V-B:LYS:547:CD:9921, V-B:HIS:456:CG:9037, H-A:HIS:456:ND1:4067, V-B:HIS:456:CB:9036"]

$$$$
3ce_Grossjean_2025
     RDKit          3D

 27 29  0  0  0  0  0  0  0  0999 V2000
  123.9410  130.6620   59.3630 C   0  0  0  0  0  0  0  0  0  0  0  0
  124.0590  131.1970   60.7780 C   0  0  0  0  0  0  0  0  0  0  0  0
  123.6510  132.4920   61.1060 C   0  0  0  0  0  0  0  0  0  0  0  0
  123.7800  132.9130   62.4300 C   0  0  0  0  0  0  0  0  0  0  0  0
  124.3070  132.0390   63.3840 C   0  0  0  0  0  0  0  0  0  0  0  0
  124.7050  130.7580   62.9850 C   0  0  0  0  0  0  0  0  0  0  0  0
  125.2100  129.9160   63.9910 N   0  0  0  0  0  0  0  0  0  0  0  0
  124.7510  129.7530   65.2520 C   0  0  0  0  0  0  0  0  0  0  0  0
  123.7780  130.3360   65.7310 O   0  0  0  0  0  0  0  0  0  0  0  0
  125.5230  128.7530   66.1120 C   0  0  0  0  0  0  0  0  0  0  0  0
  127.2480  129.2640   66.3650 S   0  0  0  0  0  0  0  0  0  0  0  0
  128.1120  127.8030   66.8950 C   0  0  0  0  0  0  0  0  0  0  0  0
  128.1040  127.6150   68.2370 N   0  0  0  0  0  0  0  0  0  0  0  0
  128.7210  126.5200   68.7400 C   0  0  0  0  0  0  0  0  0  0  0  0
  128.6620  126.3640   70.2480 C   0  0  0  0  0  0  0  0  0  0  0  0
  129.3730  125.5910   67.9350 C   0  0  0  0  0  0  0  0  0  0  0  0
  129.4150  125.7820   66.5480 C   0  0  0  0  0  0  0  0  0  0  0  0
  130.1480  124.7710   65.7280 C   0  0  0  0  0  0  0  0  0  0  0  0
  131.4350  125.0510   65.2530 C   0  0  0  0  0  0  0  0  0  0  0  0
  132.1230  124.1160   64.4830 C   0  0  0  0  0  0  0  0  0  0  0  0
  131.5220  122.8970   64.1790 C   0  0  0  0  0  0  0  0  0  0  0  0
  130.2390  122.6080   64.6350 C   0  0  0  0  0  0  0  0  0  0  0  0
  129.5540  123.5440   65.4050 C   0  0  0  0  0  0  0  0  0  0  0  0
  128.7630  126.9170   66.0040 C   0  0  0  0  0  0  0  0  0  0  0  0
  128.7600  127.1620   64.5580 C   0  0  0  0  0  0  0  0  0  0  0  0
  128.7580  127.3540   63.4170 N   0  0  0  0  0  0  0  0  0  0  0  0
  124.5750  130.3370   61.6930 N   0  0  0  0  0  0  0  0  0  0  0  0
  1  2  1  0
  2  3  2  0
  3  4  1  0
  4  5  2  0
  5  6  1  0
  6  7  1  0
  7  8  1  0
  8  9  2  0
  8 10  1  0
 10 11  1  0
 11 12  1  0
 12 13  2  0
 13 14  1  0
 14 15  1  0
 14 16  2  0
 16 17  1  0
 17 18  1  0
 18 19  2  0
 19 20  1  0
 20 21  2  0
 21 22  1  0
 22 23  2  0
 17 24  2  0
 24 25  1  0
 25 26  3  0
  6 27  2  0
 27  2  1  0
 24 12  1  0
 23 18  1  0
M  END
>  <Binding energies>  (23) 
[-7.84]

>  <Ligand effiencies>  (23) 
[-0.27999999999999997]

>  <Interactions>  (23) 
["V-B:GLU:543:CA:9876, V-A:GLU:543:CD:4908, V-B:GLU:543:CD:9880, V-A:LEU:475:CD1:4258, V-B:GLU:543:CB:9878, V-A:TYR:484:CZ:4347, V-B:GLU:543:C:9874, V-A:TYR:484:CE1:4345, V-B:HIS:456:CE1:9040, V-A:HIS:456:CE1:4069, V-B:GLU:543:CG:9879, V-B:ARG:545:CD:9895, V-B:ARG:545:CZ:9898, H-B:TYR:484:OH:9319, V-B:ARG:545:CG:9894, V-B:ALA:541:CB:9864, V-B:ILE:369:CG2:8208, V-B:ILE:369:CD1:8210, V-B:LEU:475:CD1:9229, V-B:GLY:454:CA:9020, H-B:GLY:454:N:9021, H-B:ARG:545:NH2:9900, V-B:ASP:366:CG:8184, H-B:GLU:543:OE1:9881, V-B:ASP:366:CA:8181, V-B:ASP:366:CB:8183, H-B:ILE:455:N:9026"]

$$$$
3cj_Grossjean_2025
     RDKit          3D

 25 27  0  0  0  0  0  0  0  0999 V2000
  130.6310  119.2830   61.8610 C   0  0  0  0  0  0  0  0  0  0  0  0
  130.5040  120.6270   61.1710 C   0  0  0  0  0  0  0  0  0  0  0  0
  129.2900  121.0620   60.6420 C   0  0  0  0  0  0  0  0  0  0  0  0
  129.2130  122.3220   60.0330 C   0  0  0  0  0  0  0  0  0  0  0  0
  127.8790  122.7740   59.5380 C   0  0  0  0  0  0  0  0  0  0  0  0
  126.9090  123.2390   60.4330 C   0  0  0  0  0  0  0  0  0  0  0  0
  125.6600  123.6470   59.9720 C   0  0  0  0  0  0  0  0  0  0  0  0
  125.3760  123.5860   58.6110 C   0  0  0  0  0  0  0  0  0  0  0  0
  126.3270  123.1180   57.7090 C   0  0  0  0  0  0  0  0  0  0  0  0
  127.5760  122.7100   58.1730 C   0  0  0  0  0  0  0  0  0  0  0  0
  130.3910  123.1040   59.9470 C   0  0  0  0  0  0  0  0  0  0  0  0
  130.3810  124.4180   59.2960 C   0  0  0  0  0  0  0  0  0  0  0  0
  130.3710  125.4560   58.7830 N   0  0  0  0  0  0  0  0  0  0  0  0
  131.5770  122.5860   60.5150 C   0  0  0  0  0  0  0  0  0  0  0  0
  133.0920  123.5180   60.5950 S   0  0  0  0  0  0  0  0  0  0  0  0
  133.9050  122.9570   62.1260 C   0  0  0  0  0  0  0  0  0  0  0  0
  133.2390  123.5460   63.3740 C   0  0  0  0  0  0  0  0  0  0  0  0
  133.8880  124.2880   64.1140 O   0  0  0  0  0  0  0  0  0  0  0  0
  131.9400  123.2210   63.5450 N   0  0  0  0  0  0  0  0  0  0  0  0
  131.0810  123.7240   64.5080 C   0  0  0  0  0  0  0  0  0  0  0  0
  130.0850  123.1060   65.1050 N   0  0  0  0  0  0  0  0  0  0  0  0
  129.4990  123.8820   65.9950 C   0  0  0  0  0  0  0  0  0  0  0  0
  130.0200  125.1650   66.1330 C   0  0  0  0  0  0  0  0  0  0  0  0
  131.3520  125.3560   65.0310 S   0  0  0  0  0  0  0  0  0  0  0  0
  131.6290  121.3750   61.1250 N   0  0  0  0  0  0  0  0  0  0  0  0
  1  2  1  0
  2  3  2  0
  3  4  1  0
  4  5  1  0
  5  6  2  0
  6  7  1  0
  7  8  2  0
  8  9  1  0
  9 10  2  0
  4 11  2  0
 11 12  1  0
 12 13  3  0
 11 14  1  0
 14 15  1  0
 15 16  1  0
 16 17  1  0
 17 18  2  0
 17 19  1  0
 19 20  1  0
 20 21  2  0
 21 22  1  0
 22 23  2  0
 23 24  1  0
 14 25  2  0
 25  2  1  0
 10  5  1  0
 24 20  1  0
M  END
>  <Binding energies>  (24) 
[-6.75]

>  <Ligand effiencies>  (24) 
[-0.25961538461538464]

>  <Interactions>  (24) 
["V-B:GLU:543:CA:9876, V-B:TYR:539:CD2:9846, V-A:LEU:475:CD1:4258, V-B:GLU:543:CB:9878, H-A:TYR:484:OH:4348, V-A:TYR:484:CZ:4347, V-B:GLU:543:C:9874, V-A:TYR:484:CE1:4345, V-B:TYR:539:CE2:9848, V-A:HIS:456:CE1:4069, V-B:GLU:543:CG:9879, V-B:PRO:540:CA:9855, V-B:ALA:541:CB:9864, V-B:TYR:539:C:9839, V-B:PRO:540:CB:9857, V-B:PRO:540:N:9856, V-A:ILE:369:CD1:3239, V-A:GLY:454:CA:4049, H-A:GLY:454:N:4050, V-A:TRP:381:CZ2:3370, V-A:PRO:482:CG:4327, V-A:PRO:482:CB:4326, V-A:TRP:381:CH2:3372"]

$$$$
4ba_Grossjean_2025
     RDKit          3D

 28 30  0  0  0  0  0  0  0  0999 V2000
  125.4240  127.2530   73.7410 C   0  0  0  0  0  0  0  0  0  0  0  0
  126.6350  127.5600   72.8400 C   0  0  0  0  0  0  0  0  0  0  0  0
  127.7080  126.4530   72.7850 C   0  0  0  0  0  0  0  0  0  0  0  0
  128.0320  125.8690   73.8210 O   0  0  0  0  0  0  0  0  0  0  0  0
  128.3100  126.1310   71.4480 C   0  0  0  0  0  0  0  0  0  0  0  0
  129.2470  125.0950   71.3470 C   0  0  0  0  0  0  0  0  0  0  0  0
  129.8230  124.7770   70.1210 C   0  0  0  0  0  0  0  0  0  0  0  0
  129.4720  125.4840   68.9700 C   0  0  0  0  0  0  0  0  0  0  0  0
  130.1210  125.0850   67.7850 N   0  0  0  0  0  0  0  0  0  0  0  0
  129.7310  125.2090   66.4930 C   0  0  0  0  0  0  0  0  0  0  0  0
  128.6530  125.6890   66.1390 O   0  0  0  0  0  0  0  0  0  0  0  0
  130.6830  124.7030   65.5020 C   0  0  0  0  0  0  0  0  0  0  0  0
  132.3150  125.3620   65.4230 S   0  0  0  0  0  0  0  0  0  0  0  0
  132.7140  124.3380   64.0640 C   0  0  0  0  0  0  0  0  0  0  0  0
  133.9180  124.3760   63.4950 N   0  0  0  0  0  0  0  0  0  0  0  0
  134.1080  123.5380   62.4510 C   0  0  0  0  0  0  0  0  0  0  0  0
  135.4840  123.6050   61.8120 C   0  0  0  0  0  0  0  0  0  0  0  0
  133.1340  122.6680   61.9690 C   0  0  0  0  0  0  0  0  0  0  0  0
  131.8630  122.6220   62.5650 C   0  0  0  0  0  0  0  0  0  0  0  0
  130.8250  121.6470   62.0010 C   0  0  0  0  0  0  0  0  0  0  0  0
  131.3190  120.8480   61.0530 F   0  0  0  0  0  0  0  0  0  0  0  0
  130.3600  120.8670   62.9780 F   0  0  0  0  0  0  0  0  0  0  0  0
  129.8130  122.3270   61.4620 F   0  0  0  0  0  0  0  0  0  0  0  0
  131.6280  123.4990   63.6660 C   0  0  0  0  0  0  0  0  0  0  0  0
  130.4770  123.7380   64.5020 C   0  0  0  0  0  0  0  0  0  0  0  0
  129.2880  123.0760   64.3310 N   0  0  0  0  0  0  0  0  0  0  0  0
  128.5400  126.5270   69.0630 C   0  0  0  0  0  0  0  0  0  0  0  0
  127.9650  126.8450   70.2910 C   0  0  0  0  0  0  0  0  0  0  0  0
  1  2  1  0
  2  3  1  0
  3  4  2  0
  3  5  1  0
  5  6  2  0
  6  7  1  0
  7  8  2  0
  8  9  1  0
  9 10  1  0
 10 11  2  0
 10 12  1  0
 12 13  1  0
 13 14  1  0
 14 15  2  0
 15 16  1  0
 16 17  1  0
 16 18  2  0
 18 19  1  0
 19 20  1  0
 20 21  1  0
 20 22  1  0
 20 23  1  0
 19 24  2  0
 24 25  1  0
 25 26  1  0
  8 27  1  0
 27 28  2  0
 28  5  1  0
 25 12  2  0
 24 14  1  0
M  END
>  <Binding energies>  (25) 
[-7.35]

>  <Ligand effiencies>  (25) 
[-0.23709677419354838]

>  <Interactions>  (25) 
["V-B:GLU:543:CA:9876, V-A:HIS:456:CD2:4068, V-B:TYR:539:CD2:9846, V-A:LEU:475:CD1:4258, V-B:GLU:543:CB:9878, H-A:TYR:484:OH:4348, V-A:TYR:484:CZ:4347, V-B:GLU:543:C:9874, V-A:TYR:484:CE1:4345, V-B:HIS:456:CE1:9040, V-B:TYR:539:CE2:9848, V-A:HIS:456:CE1:4069, V-B:GLU:543:CG:9879, V-B:GLY:544:C:9884, V-B:ALA:541:CB:9864, H-B:LYS:547:NZ:9923, V-A:ILE:369:CD1:3239, V-A:GLY:453:CA:4044, V-A:GLY:454:CA:4049, V-A:GLY:453:C:4042, H-A:GLY:454:N:4050, V-B:HIS:456:CD2:9039, V-B:HIS:456:CG:9037, V-A:HIS:456:CG:4066, H-A:HIS:456:ND1:4067, V-B:HIS:456:CB:9036"]

$$$$
4bb_Grossjean_2025
     RDKit          3D

 27 29  0  0  0  0  0  0  0  0999 V2000
  128.5360  128.2390   73.1310 C   0  0  0  0  0  0  0  0  0  0  0  0
  128.5630  126.7330   72.8600 C   0  0  0  0  0  0  0  0  0  0  0  0
  128.3290  125.9700   73.7980 O   0  0  0  0  0  0  0  0  0  0  0  0
  128.8830  126.2670   71.4710 C   0  0  0  0  0  0  0  0  0  0  0  0
  129.5570  125.0530   71.2920 C   0  0  0  0  0  0  0  0  0  0  0  0
  129.8670  124.5980   70.0130 C   0  0  0  0  0  0  0  0  0  0  0  0
  129.5010  125.3430   68.8900 C   0  0  0  0  0  0  0  0  0  0  0  0
  129.8660  124.7910   67.6460 N   0  0  0  0  0  0  0  0  0  0  0  0
  129.4090  125.0720   66.4010 C   0  0  0  0  0  0  0  0  0  0  0  0
  128.5230  125.8910   66.1580 O   0  0  0  0  0  0  0  0  0  0  0  0
  130.0260  124.2980   65.3200 C   0  0  0  0  0  0  0  0  0  0  0  0
  129.3530  122.7400   64.8480 S   0  0  0  0  0  0  0  0  0  0  0  0
  130.6020  122.5120   63.6460 C   0  0  0  0  0  0  0  0  0  0  0  0
  130.6400  121.4220   62.8810 N   0  0  0  0  0  0  0  0  0  0  0  0
  131.6540  121.3590   61.9870 C   0  0  0  0  0  0  0  0  0  0  0  0
  131.6770  120.1100   61.1250 C   0  0  0  0  0  0  0  0  0  0  0  0
  132.6220  122.3490   61.8430 C   0  0  0  0  0  0  0  0  0  0  0  0
  132.5870  123.4990   62.6450 C   0  0  0  0  0  0  0  0  0  0  0  0
  133.6730  124.5620   62.4500 C   0  0  0  0  0  0  0  0  0  0  0  0
  134.6670  124.1530   61.6570 F   0  0  0  0  0  0  0  0  0  0  0  0
  133.1430  125.6520   61.8950 F   0  0  0  0  0  0  0  0  0  0  0  0
  134.2090  124.8830   63.6270 F   0  0  0  0  0  0  0  0  0  0  0  0
  131.5290  123.5980   63.5990 C   0  0  0  0  0  0  0  0  0  0  0  0
  131.1760  124.6020   64.5720 C   0  0  0  0  0  0  0  0  0  0  0  0
  131.9000  125.7540   64.7430 N   0  0  0  0  0  0  0  0  0  0  0  0
  128.8320  126.5640   69.0630 C   0  0  0  0  0  0  0  0  0  0  0  0
  128.5250  127.0180   70.3430 C   0  0  0  0  0  0  0  0  0  0  0  0
  1  2  1  0
  2  3  2  0
  2  4  1  0
  4  5  2  0
  5  6  1  0
  6  7  2  0
  7  8  1  0
  8  9  1  0
  9 10  2  0
  9 11  1  0
 11 12  1  0
 12 13  1  0
 13 14  2  0
 14 15  1  0
 15 16  1  0
 15 17  2  0
 17 18  1  0
 18 19  1  0
 19 20  1  0
 19 21  1  0
 19 22  1  0
 18 23  2  0
 23 24  1  0
 24 25  1  0
  7 26  1  0
 26 27  2  0
 27  4  1  0
 24 11  2  0
 23 13  1  0
M  END
>  <Binding energies>  (26) 
[-7.29]

>  <Ligand effiencies>  (26) 
[-0.243]

>  <Interactions>  (26) 
["V-B:GLU:543:CA:9876, V-A:GLU:543:CD:4908, V-A:HIS:456:CD2:4068, V-A:ASP:366:CG:3213, V-A:LEU:475:CD1:4258, V-B:GLU:543:CB:9878, H-A:TYR:484:OH:4348, V-A:TYR:484:CZ:4347, V-B:GLU:543:C:9874, V-A:TYR:484:CE1:4345, V-B:HIS:456:CE1:9040, V-A:HIS:456:CE1:4069, V-B:GLU:543:CG:9879, V-A:ARG:545:CZ:4926, V-B:ALA:541:CB:9864, H-B:LYS:547:NZ:9923, V-A:ILE:369:CD1:3239, V-A:GLY:453:CA:4044, V-A:GLY:453:C:4042, V-A:TRP:381:CH2:3372, H-B:GLU:543:O:9875, H-A:GLU:543:OE2:4910, V-B:HIS:456:CD2:9039, V-A:HIS:456:CG:4066, H-A:HIS:456:ND1:4067"]

$$$$
4bd_Grossjean_2025
     RDKit          3D

 24 26  0  0  0  0  0  0  0  0999 V2000
  127.9450  130.4450   65.0820 C   0  0  0  0  0  0  0  0  0  0  0  0
  128.3260  129.0190   65.4350 C   0  0  0  0  0  0  0  0  0  0  0  0
  128.4050  128.6040   66.7610 C   0  0  0  0  0  0  0  0  0  0  0  0
  128.7610  127.2820   67.0730 C   0  0  0  0  0  0  0  0  0  0  0  0
  128.8380  126.8730   68.5480 C   0  0  0  0  0  0  0  0  0  0  0  0
  129.8680  126.0660   68.8130 F   0  0  0  0  0  0  0  0  0  0  0  0
  128.9740  127.9560   69.3120 F   0  0  0  0  0  0  0  0  0  0  0  0
  127.7260  126.2250   68.8950 F   0  0  0  0  0  0  0  0  0  0  0  0
  129.0310  126.4040   65.9820 C   0  0  0  0  0  0  0  0  0  0  0  0
  129.4150  125.0150   65.9110 C   0  0  0  0  0  0  0  0  0  0  0  0
  129.5920  124.2400   67.0270 N   0  0  0  0  0  0  0  0  0  0  0  0
  129.5900  124.5340   64.6030 C   0  0  0  0  0  0  0  0  0  0  0  0
  129.9910  123.1920   64.1690 C   0  0  0  0  0  0  0  0  0  0  0  0
  130.0480  122.2620   64.9760 O   0  0  0  0  0  0  0  0  0  0  0  0
  130.2690  123.0670   62.8480 N   0  0  0  0  0  0  0  0  0  0  0  0
  130.7140  121.9410   62.1300 C   0  0  0  0  0  0  0  0  0  0  0  0
  132.0790  121.9080   61.8280 C   0  0  0  0  0  0  0  0  0  0  0  0
  132.6180  120.8320   61.1300 C   0  0  0  0  0  0  0  0  0  0  0  0
  131.7940  119.7800   60.7390 C   0  0  0  0  0  0  0  0  0  0  0  0
  130.4360  119.7940   61.0450 C   0  0  0  0  0  0  0  0  0  0  0  0
  129.8920  120.8690   61.7430 C   0  0  0  0  0  0  0  0  0  0  0  0
  129.2760  125.7940   63.4130 S   0  0  0  0  0  0  0  0  0  0  0  0
  128.9160  126.9550   64.6690 C   0  0  0  0  0  0  0  0  0  0  0  0
  128.5770  128.2100   64.3790 N   0  0  0  0  0  0  0  0  0  0  0  0
  1  2  1  0
  2  3  2  0
  3  4  1  0
  4  5  1  0
  5  6  1  0
  5  7  1  0
  5  8  1  0
  4  9  2  0
  9 10  1  0
 10 11  1  0
 10 12  2  0
 12 13  1  0
 13 14  2  0
 13 15  1  0
 15 16  1  0
 16 17  2  0
 17 18  1  0
 18 19  2  0
 19 20  1  0
 20 21  2  0
 12 22  1  0
 22 23  1  0
 23 24  2  0
 24  2  1  0
 23  9  1  0
 21 16  1  0
M  END
>  <Binding energies>  (27) 
[-6.11]

>  <Ligand effiencies>  (27) 
[-0.2262962962962963]

>  <Interactions>  (27) 
["V-B:GLU:543:CA:9876, V-A:GLU:543:CD:4908, V-A:HIS:456:CD2:4068, V-B:GLU:543:CD:9880, V-B:TYR:539:CD2:9846, V-A:LEU:475:CD1:4258, V-B:GLU:543:CB:9878, H-A:TYR:484:OH:4348, V-A:TYR:484:CZ:4347, V-B:GLU:543:C:9874, V-A:TYR:484:CE1:4345, V-B:HIS:456:CE1:9040, V-A:HIS:456:CE1:4069, V-B:GLU:543:CG:9879, V-A:GLU:543:CB:4906, V-B:GLY:544:C:9884, V-B:ALA:541:CB:9864, V-A:TRP:381:CZ2:3370, V-A:PRO:482:CG:4327, V-A:PRO:482:CB:4326, V-A:TRP:381:CH2:3372, H-B:GLU:543:O:9875"]

$$$$
4be_Grossjean_2025
     RDKit          3D

 25 27  0  0  0  0  0  0  0  0999 V2000
  127.9220  119.7950   72.8220 C   0  0  0  0  0  0  0  0  0  0  0  0
  128.9870  120.8700   72.7130 C   0  0  0  0  0  0  0  0  0  0  0  0
  130.1140  120.8680   73.5380 C   0  0  0  0  0  0  0  0  0  0  0  0
  131.0510  121.8900   73.3830 C   0  0  0  0  0  0  0  0  0  0  0  0
  130.8420  122.8780   72.4180 C   0  0  0  0  0  0  0  0  0  0  0  0
  129.6940  122.8160   71.6200 C   0  0  0  0  0  0  0  0  0  0  0  0
  129.5390  123.8440   70.6730 N   0  0  0  0  0  0  0  0  0  0  0  0
  129.5180  125.1860   70.8680 C   0  0  0  0  0  0  0  0  0  0  0  0
  129.6470  125.7210   71.9710 O   0  0  0  0  0  0  0  0  0  0  0  0
  129.3070  125.9940   69.6630 C   0  0  0  0  0  0  0  0  0  0  0  0
  128.7660  127.6660   69.8020 S   0  0  0  0  0  0  0  0  0  0  0  0
  128.7380  127.8490   68.0640 C   0  0  0  0  0  0  0  0  0  0  0  0
  128.3820  128.9980   67.4920 N   0  0  0  0  0  0  0  0  0  0  0  0
  128.4020  129.0190   66.1390 C   0  0  0  0  0  0  0  0  0  0  0  0
  127.9900  130.3360   65.5070 C   0  0  0  0  0  0  0  0  0  0  0  0
  128.7680  127.9300   65.3540 C   0  0  0  0  0  0  0  0  0  0  0  0
  129.1450  126.7170   65.9500 C   0  0  0  0  0  0  0  0  0  0  0  0
  129.5430  125.5470   65.0440 C   0  0  0  0  0  0  0  0  0  0  0  0
  128.9960  124.3870   65.4190 F   0  0  0  0  0  0  0  0  0  0  0  0
  129.1460  125.7880   63.7950 F   0  0  0  0  0  0  0  0  0  0  0  0
  130.8660  125.3900   65.0640 F   0  0  0  0  0  0  0  0  0  0  0  0
  129.1310  126.6590   67.3760 C   0  0  0  0  0  0  0  0  0  0  0  0
  129.4390  125.6120   68.3190 C   0  0  0  0  0  0  0  0  0  0  0  0
  129.8340  124.3580   67.9300 N   0  0  0  0  0  0  0  0  0  0  0  0
  128.7700  121.8220   71.7700 N   0  0  0  0  0  0  0  0  0  0  0  0
  1  2  1  0
  2  3  2  0
  3  4  1  0
  4  5  2  0
  5  6  1  0
  6  7  1  0
  7  8  1  0
  8  9  2  0
  8 10  1  0
 10 11  1  0
 11 12  1  0
 12 13  2  0
 13 14  1  0
 14 15  1  0
 14 16  2  0
 16 17  1  0
 17 18  1  0
 18 19  1  0
 18 20  1  0
 18 21  1  0
 17 22  2  0
 22 23  1  0
 23 24  1  0
  6 25  2  0
 25  2  1  0
 23 10  2  0
 22 12  1  0
M  END
>  <Binding energies>  (28) 
[-7.13]

>  <Ligand effiencies>  (28) 
[-0.2546428571428571]

>  <Interactions>  (28) 
["H-A:HIS:456:NE2:4070, V-B:GLU:543:CA:9876, V-A:GLU:543:CD:4908, V-A:HIS:456:CD2:4068, V-B:GLU:543:CD:9880, V-B:GLU:543:CB:9878, H-B:HIS:456:NE2:9041, H-A:TYR:484:OH:4348, V-A:TYR:484:CZ:4347, V-B:GLU:543:C:9874, V-A:TYR:484:CE1:4345, V-B:HIS:456:CE1:9040, V-A:HIS:456:CE1:4069, V-B:GLU:543:CG:9879, V-A:GLU:543:CB:4906, H-B:LYS:547:NZ:9923, V-A:GLU:543:CG:4907, V-B:TYR:484:CZ:9318, H-B:GLU:543:O:9875, V-A:TYR:484:CG:4342, V-A:TYR:484:CE2:4346, V-A:TYR:484:CD1:4343, V-A:TYR:484:CD2:4344, V-A:ASP:473:CG:4240, V-B:LYS:547:CE:9922, V-A:ASP:473:CB:4239, H-A:HIS:456:ND1:4067, V-A:TYR:484:CB:4341"]

$$$$
4bg_Grossjean_2025
     RDKit          3D

 25 27  0  0  0  0  0  0  0  0999 V2000
  128.3620  127.8540   62.0290 C   0  0  0  0  0  0  0  0  0  0  0  0
  128.6890  127.2020   63.3600 C   0  0  0  0  0  0  0  0  0  0  0  0
  129.1750  125.8980   63.4200 C   0  0  0  0  0  0  0  0  0  0  0  0
  129.4680  125.3050   64.6590 C   0  0  0  0  0  0  0  0  0  0  0  0
  130.0000  123.8680   64.6750 C   0  0  0  0  0  0  0  0  0  0  0  0
  129.9370  123.2750   63.4810 F   0  0  0  0  0  0  0  0  0  0  0  0
  131.2780  123.8660   65.0560 F   0  0  0  0  0  0  0  0  0  0  0  0
  129.2860  123.1310   65.5250 F   0  0  0  0  0  0  0  0  0  0  0  0
  129.2470  126.0930   65.8270 C   0  0  0  0  0  0  0  0  0  0  0  0
  129.4210  125.8310   67.2350 C   0  0  0  0  0  0  0  0  0  0  0  0
  129.8720  124.6280   67.7170 N   0  0  0  0  0  0  0  0  0  0  0  0
  129.0980  126.9170   68.0630 C   0  0  0  0  0  0  0  0  0  0  0  0
  129.1280  126.9910   69.5240 C   0  0  0  0  0  0  0  0  0  0  0  0
  129.5300  127.9980   70.1090 O   0  0  0  0  0  0  0  0  0  0  0  0
  128.6530  125.9110   70.1790 N   0  0  0  0  0  0  0  0  0  0  0  0
  128.5990  125.7560   71.6330 C   0  0  0  0  0  0  0  0  0  0  0  0
  129.7300  124.9060   72.1970 C   0  0  0  0  0  0  0  0  0  0  0  0
  130.4290  125.3320   73.3310 C   0  0  0  0  0  0  0  0  0  0  0  0
  131.4360  124.5340   73.8680 C   0  0  0  0  0  0  0  0  0  0  0  0
  131.7330  123.3070   73.2780 C   0  0  0  0  0  0  0  0  0  0  0  0
  131.0290  122.8690   72.1590 C   0  0  0  0  0  0  0  0  0  0  0  0
  130.0230  123.6670   71.6210 C   0  0  0  0  0  0  0  0  0  0  0  0
  128.5280  128.2930   67.1230 S   0  0  0  0  0  0  0  0  0  0  0  0
  128.7530  127.4190   65.6270 C   0  0  0  0  0  0  0  0  0  0  0  0
  128.4740  127.9760   64.4480 N   0  0  0  0  0  0  0  0  0  0  0  0
  1  2  1  0
  2  3  2  0
  3  4  1  0
  4  5  1  0
  5  6  1  0
  5  7  1  0
  5  8  1  0
  4  9  2  0
  9 10  1  0
 10 11  1  0
 10 12  2  0
 12 13  1  0
 13 14  2  0
 13 15  1  0
 15 16  1  0
 16 17  1  0
 17 18  2  0
 18 19  1  0
 19 20  2  0
 20 21  1  0
 21 22  2  0
 12 23  1  0
 23 24  1  0
 24 25  2  0
 25  2  1  0
 24  9  1  0
 22 17  1  0
M  END
>  <Binding energies>  (29) 
[-6.89]

>  <Ligand effiencies>  (29) 
[-0.24607142857142855]

>  <Interactions>  (29) 
["H-A:HIS:456:NE2:4070, V-B:GLU:543:CA:9876, V-A:GLU:543:CD:4908, V-A:HIS:456:CD2:4068, V-B:GLU:543:CD:9880, V-B:GLU:543:CB:9878, H-B:HIS:456:NE2:9041, H-A:TYR:484:OH:4348, V-A:TYR:484:CZ:4347, V-B:GLU:543:C:9874, V-A:TYR:484:CE1:4345, V-B:HIS:456:CE1:9040, V-A:HIS:456:CE1:4069, V-B:GLU:543:CG:9879, V-A:GLU:543:CB:4906, V-B:ALA:541:CB:9864, H-B:GLU:543:O:9875, V-A:TYR:484:CG:4342, V-A:TYR:484:CE2:4346, V-A:HIS:456:CG:4066, V-A:TYR:484:CD1:4343, V-A:TYR:484:CD2:4344, V-A:HIS:456:CB:4065, V-A:ASP:473:CB:4239, H-A:HIS:456:ND1:4067, H-B:GLY:544:O:9885"]

$$$$
4ca_Grossjean_2025
     RDKit          3D

 34 37  0  0  0  0  0  0  0  0999 V2000
  124.6530  126.5600   74.2700 C   0  0  0  0  0  0  0  0  0  0  0  0
  125.8960  127.0970   74.9860 C   0  0  0  0  0  0  0  0  0  0  0  0
  126.9870  126.2120   74.7680 O   0  0  0  0  0  0  0  0  0  0  0  0
  128.1700  126.6640   74.2760 C   0  0  0  0  0  0  0  0  0  0  0  0
  129.0390  127.1940   74.9760 O   0  0  0  0  0  0  0  0  0  0  0  0
  128.3160  126.4520   72.7980 C   0  0  0  0  0  0  0  0  0  0  0  0
  129.3240  125.6010   72.3250 C   0  0  0  0  0  0  0  0  0  0  0  0
  129.4820  125.3810   70.9590 C   0  0  0  0  0  0  0  0  0  0  0  0
  128.6430  126.0110   70.0400 C   0  0  0  0  0  0  0  0  0  0  0  0
  128.8860  125.7100   68.6850 N   0  0  0  0  0  0  0  0  0  0  0  0
  128.8990  126.5220   67.5990 C   0  0  0  0  0  0  0  0  0  0  0  0
  128.7340  127.7420   67.6460 O   0  0  0  0  0  0  0  0  0  0  0  0
  129.1470  125.8530   66.3200 C   0  0  0  0  0  0  0  0  0  0  0  0
  129.9050  124.2620   66.2850 S   0  0  0  0  0  0  0  0  0  0  0  0
  129.7880  124.1960   64.5430 C   0  0  0  0  0  0  0  0  0  0  0  0
  130.2280  123.1430   63.8580 N   0  0  0  0  0  0  0  0  0  0  0  0
  130.0810  123.1740   62.5080 C   0  0  0  0  0  0  0  0  0  0  0  0
  130.5790  121.9680   61.7650 C   0  0  0  0  0  0  0  0  0  0  0  0
  131.9080  121.8960   61.3190 C   0  0  0  0  0  0  0  0  0  0  0  0
  132.3740  120.7830   60.6250 C   0  0  0  0  0  0  0  0  0  0  0  0
  131.5130  119.7220   60.3640 C   0  0  0  0  0  0  0  0  0  0  0  0
  130.1900  119.7680   60.7910 C   0  0  0  0  0  0  0  0  0  0  0  0
  129.7280  120.8830   61.4860 C   0  0  0  0  0  0  0  0  0  0  0  0
  129.5140  124.2720   61.8520 C   0  0  0  0  0  0  0  0  0  0  0  0
  129.0510  125.3880   62.5640 C   0  0  0  0  0  0  0  0  0  0  0  0
  128.4370  126.5550   61.7820 C   0  0  0  0  0  0  0  0  0  0  0  0
  127.2230  126.8970   62.2180 F   0  0  0  0  0  0  0  0  0  0  0  0
  129.2170  127.6310   61.8890 F   0  0  0  0  0  0  0  0  0  0  0  0
  128.3190  126.2230   60.4960 F   0  0  0  0  0  0  0  0  0  0  0  0
  129.1840  125.3590   63.9820 C   0  0  0  0  0  0  0  0  0  0  0  0
  128.8250  126.2900   65.0240 C   0  0  0  0  0  0  0  0  0  0  0  0
  128.2250  127.4950   64.7660 N   0  0  0  0  0  0  0  0  0  0  0  0
  127.6280  126.8600   70.5030 C   0  0  0  0  0  0  0  0  0  0  0  0
  127.4700  127.0770   71.8690 C   0  0  0  0  0  0  0  0  0  0  0  0
  1  2  1  0
  2  3  1  0
  3  4  1  0
  4  5  2  0
  4  6  1  0
  6  7  2  0
  7  8  1  0
  8  9  2  0
  9 10  1  0
 10 11  1  0
 11 12  2  0
 11 13  1  0
 13 14  1  0
 14 15  1  0
 15 16  2  0
 16 17  1  0
 17 18  1  0
 18 19  2  0
 19 20  1  0
 20 21  2  0
 21 22  1  0
 22 23  2  0
 17 24  2  0
 24 25  1  0
 25 26  1  0
 26 27  1  0
 26 28  1  0
 26 29  1  0
 25 30  2  0
 30 31  1  0
 31 32  1  0
  9 33  1  0
 33 34  2  0
 34  6  1  0
 31 13  2  0
 30 15  1  0
 23 18  1  0
M  END
>  <Binding energies>  (30) 
[-7.39]

>  <Ligand effiencies>  (30) 
[-0.19972972972972972]

>  <Interactions>  (30) 
["V-B:GLU:543:CA:9876, V-A:HIS:456:CD2:4068, V-B:GLU:543:CD:9880, V-B:TYR:539:CD2:9846, V-A:LEU:475:CD1:4258, V-B:GLU:543:CB:9878, V-A:TYR:484:CZ:4347, V-B:GLU:543:C:9874, V-A:TYR:484:CE1:4345, V-B:HIS:456:CE1:9040, V-B:TYR:539:CE2:9848, V-A:HIS:456:CE1:4069, V-B:GLU:543:CG:9879, V-B:GLY:544:C:9884, V-B:ALA:541:CB:9864, H-B:LYS:547:NZ:9923, V-A:TRP:381:CZ2:3370, V-A:PRO:482:CG:4327, V-A:PRO:482:CB:4326, V-A:TRP:381:CH2:3372, H-B:GLU:543:O:9875, H-A:GLU:543:OE1:4909, H-A:GLU:543:OE2:4910, H-B:GLU:543:OE1:9881, V-B:HIS:456:CD2:9039, V-B:LYS:547:CD:9921, V-B:HIS:456:CG:9037, H-A:LYS:547:NZ:4951, V-B:ARG:545:C:9889, V-B:LYS:547:CB:9919, V-B:LYS:547:CG:9920"]

$$$$
4cb_Grossjean_2025
     RDKit          3D

 33 36  0  0  0  0  0  0  0  0999 V2000
  126.0230  126.8690   74.7880 C   0  0  0  0  0  0  0  0  0  0  0  0
  127.2520  126.1570   74.8130 O   0  0  0  0  0  0  0  0  0  0  0  0
  128.3810  126.6930   74.2820 C   0  0  0  0  0  0  0  0  0  0  0  0
  129.2270  127.2970   74.9490 O   0  0  0  0  0  0  0  0  0  0  0  0
  128.5000  126.4780   72.8000 C   0  0  0  0  0  0  0  0  0  0  0  0
  129.4810  125.6050   72.3120 C   0  0  0  0  0  0  0  0  0  0  0  0
  129.6110  125.3790   70.9450 C   0  0  0  0  0  0  0  0  0  0  0  0
  128.7690  126.0230   70.0380 C   0  0  0  0  0  0  0  0  0  0  0  0
  128.9790  125.7100   68.6810 N   0  0  0  0  0  0  0  0  0  0  0  0
  128.9620  126.5110   67.5880 C   0  0  0  0  0  0  0  0  0  0  0  0
  128.7950  127.7310   67.6260 O   0  0  0  0  0  0  0  0  0  0  0  0
  129.1820  125.8290   66.3100 C   0  0  0  0  0  0  0  0  0  0  0  0
  129.8840  124.2130   66.2760 S   0  0  0  0  0  0  0  0  0  0  0  0
  129.7580  124.1440   64.5340 C   0  0  0  0  0  0  0  0  0  0  0  0
  130.1600  123.0770   63.8490 N   0  0  0  0  0  0  0  0  0  0  0  0
  130.0120  123.1120   62.4990 C   0  0  0  0  0  0  0  0  0  0  0  0
  130.4700  121.8910   61.7550 C   0  0  0  0  0  0  0  0  0  0  0  0
  129.5790  120.8400   61.4840 C   0  0  0  0  0  0  0  0  0  0  0  0
  129.9970  119.7020   60.7980 C   0  0  0  0  0  0  0  0  0  0  0  0
  131.3170  119.6000   60.3710 C   0  0  0  0  0  0  0  0  0  0  0  0
  132.2210  120.6260   60.6290 C   0  0  0  0  0  0  0  0  0  0  0  0
  131.7990  121.7590   61.3170 C   0  0  0  0  0  0  0  0  0  0  0  0
  129.4820  124.2280   61.8430 C   0  0  0  0  0  0  0  0  0  0  0  0
  129.0590  125.3600   62.5550 C   0  0  0  0  0  0  0  0  0  0  0  0
  128.4850  126.5480   61.7730 C   0  0  0  0  0  0  0  0  0  0  0  0
  127.2830  126.9300   62.2100 F   0  0  0  0  0  0  0  0  0  0  0  0
  129.3010  127.5960   61.8840 F   0  0  0  0  0  0  0  0  0  0  0  0
  128.3570  126.2230   60.4870 F   0  0  0  0  0  0  0  0  0  0  0  0
  129.1940  125.3270   63.9730 C   0  0  0  0  0  0  0  0  0  0  0  0
  128.8690  126.2720   65.0140 C   0  0  0  0  0  0  0  0  0  0  0  0
  128.3050  127.4950   64.7540 N   0  0  0  0  0  0  0  0  0  0  0  0
  127.7810  126.8960   70.5180 C   0  0  0  0  0  0  0  0  0  0  0  0
  127.6520  127.1200   71.8860 C   0  0  0  0  0  0  0  0  0  0  0  0
  1  2  1  0
  2  3  1  0
  3  4  2  0
  3  5  1  0
  5  6  2  0
  6  7  1  0
  7  8  2  0
  8  9  1  0
  9 10  1  0
 10 11  2  0
 10 12  1  0
 12 13  1  0
 13 14  1  0
 14 15  2  0
 15 16  1  0
 16 17  1  0
 17 18  2  0
 18 19  1  0
 19 20  2  0
 20 21  1  0
 21 22  2  0
 16 23  2  0
 23 24  1  0
 24 25  1  0
 25 26  1  0
 25 27  1  0
 25 28  1  0
 24 29  2  0
 29 30  1  0
 30 31  1  0
  8 32  1  0
 32 33  2  0
 33  5  1  0
 30 12  2  0
 29 14  1  0
 22 17  1  0
M  END
>  <Binding energies>  (31) 
[-7.08]

>  <Ligand effiencies>  (31) 
[-0.19666666666666666]

>  <Interactions>  (31) 
["V-B:GLU:543:CA:9876, V-A:GLU:543:CD:4908, V-A:HIS:456:CD2:4068, V-B:GLU:543:CD:9880, V-B:TYR:539:CD2:9846, V-A:LEU:475:CD1:4258, V-B:GLU:543:CB:9878, H-A:TYR:484:OH:4348, V-A:TYR:484:CZ:4347, V-B:GLU:543:C:9874, V-A:TYR:484:CE1:4345, V-B:HIS:456:CE1:9040, V-B:TYR:539:CE2:9848, V-A:HIS:456:CE1:4069, V-B:GLU:543:CG:9879, V-B:GLY:544:C:9884, V-B:ALA:541:CB:9864, H-B:LYS:547:NZ:9923, V-A:TRP:381:CZ2:3370, V-B:ALA:541:CA:9862, V-A:PRO:482:CG:4327, V-A:PRO:482:CB:4326, V-A:TRP:381:CH2:3372, H-B:GLU:543:O:9875, H-A:GLU:543:OE1:4909, H-A:GLU:543:OE2:4910, H-B:GLU:543:OE1:9881, V-B:HIS:456:CD2:9039, V-B:LYS:547:CD:9921, V-B:HIS:456:CG:9037, V-A:HIS:456:CG:4066, H-A:LYS:547:NZ:4951"]

$$$$
4cc_Grossjean_2025
     RDKit          3D

 31 34  0  0  0  0  0  0  0  0999 V2000
  127.1920  126.8750   74.3150 C   0  0  0  0  0  0  0  0  0  0  0  0
  128.2520  126.0790   73.7950 O   0  0  0  0  0  0  0  0  0  0  0  0
  128.4560  126.0360   72.4300 C   0  0  0  0  0  0  0  0  0  0  0  0
  129.2740  125.0110   71.9550 C   0  0  0  0  0  0  0  0  0  0  0  0
  129.5360  124.8860   70.5930 C   0  0  0  0  0  0  0  0  0  0  0  0
  128.9890  125.7940   69.6860 C   0  0  0  0  0  0  0  0  0  0  0  0
  129.2960  125.5790   68.3290 N   0  0  0  0  0  0  0  0  0  0  0  0
  129.8720  126.4200   67.4370 C   0  0  0  0  0  0  0  0  0  0  0  0
  130.2670  127.5530   67.7150 O   0  0  0  0  0  0  0  0  0  0  0  0
  130.0070  125.8960   66.0740 C   0  0  0  0  0  0  0  0  0  0  0  0
  128.5920  125.7550   65.0320 S   0  0  0  0  0  0  0  0  0  0  0  0
  129.5630  125.1180   63.7260 C   0  0  0  0  0  0  0  0  0  0  0  0
  129.0210  124.7860   62.5560 N   0  0  0  0  0  0  0  0  0  0  0  0
  129.8560  124.3090   61.5980 C   0  0  0  0  0  0  0  0  0  0  0  0
  129.2170  123.9400   60.2900 C   0  0  0  0  0  0  0  0  0  0  0  0
  129.6050  124.5720   59.0980 C   0  0  0  0  0  0  0  0  0  0  0  0
  129.0140  124.2370   57.8820 C   0  0  0  0  0  0  0  0  0  0  0  0
  128.0240  123.2620   57.8410 C   0  0  0  0  0  0  0  0  0  0  0  0
  127.6180  122.6230   59.0080 C   0  0  0  0  0  0  0  0  0  0  0  0
  128.2100  122.9620   60.2220 C   0  0  0  0  0  0  0  0  0  0  0  0
  131.2270  124.1510   61.8230 C   0  0  0  0  0  0  0  0  0  0  0  0
  131.8090  124.4970   63.0540 C   0  0  0  0  0  0  0  0  0  0  0  0
  133.3190  124.3040   63.2310 C   0  0  0  0  0  0  0  0  0  0  0  0
  133.6290  123.2170   63.9430 F   0  0  0  0  0  0  0  0  0  0  0  0
  133.9000  124.1780   62.0380 F   0  0  0  0  0  0  0  0  0  0  0  0
  133.8370  125.3560   63.8640 F   0  0  0  0  0  0  0  0  0  0  0  0
  130.9430  125.0070   64.0640 C   0  0  0  0  0  0  0  0  0  0  0  0
  131.1670  125.4560   65.4160 C   0  0  0  0  0  0  0  0  0  0  0  0
  132.4070  125.4530   66.0020 N   0  0  0  0  0  0  0  0  0  0  0  0
  128.1540  126.8200   70.1540 C   0  0  0  0  0  0  0  0  0  0  0  0
  127.8950  126.9410   71.5160 C   0  0  0  0  0  0  0  0  0  0  0  0
  1  2  1  0
  2  3  1  0
  3  4  2  0
  4  5  1  0
  5  6  2  0
  6  7  1  0
  7  8  1  0
  8  9  2  0
  8 10  1  0
 10 11  1  0
 11 12  1  0
 12 13  2  0
 13 14  1  0
 14 15  1  0
 15 16  2  0
 16 17  1  0
 17 18  2  0
 18 19  1  0
 19 20  2  0
 14 21  2  0
 21 22  1  0
 22 23  1  0
 23 24  1  0
 23 25  1  0
 23 26  1  0
 22 27  2  0
 27 28  1  0
 28 29  1  0
  6 30  1  0
 30 31  2  0
 31  3  1  0
 28 10  2  0
 27 12  1  0
 20 15  1  0
M  END
>  <Binding energies>  (32) 
[-6.86]

>  <Ligand effiencies>  (32) 
[-0.20176470588235296]

>  <Interactions>  (32) 
["H-A:HIS:456:NE2:4070, V-A:HIS:456:CD2:4068, V-B:GLU:543:CD:9880, V-A:ASP:366:CG:3213, V-B:TYR:539:CD2:9846, V-A:LEU:475:CD1:4258, V-B:GLU:543:CB:9878, H-A:TYR:484:OH:4348, V-B:GLU:543:C:9874, V-B:HIS:456:CE1:9040, V-B:TYR:539:CE2:9848, V-A:HIS:456:CE1:4069, V-B:GLU:543:CG:9879, V-A:ARG:545:CZ:4926, V-B:PRO:540:CA:9855, V-B:TYR:539:CZ:9849, H-B:LYS:547:NZ:9923, V-B:TYR:539:C:9839, V-B:PRO:540:N:9856, V-A:GLY:453:CA:4044, V-A:GLY:454:CA:4049, V-A:GLY:453:C:4042, H-B:GLU:543:O:9875, H-A:GLU:543:OE2:4910, V-B:LYS:547:CD:9921, H-A:HIS:456:ND1:4067"]

$$$$
4ce_Grossjean_2025
     RDKit          3D

 30 33  0  0  0  0  0  0  0  0999 V2000
  128.5460  119.9850   73.1180 C   0  0  0  0  0  0  0  0  0  0  0  0
  129.5000  121.1310   72.8370 C   0  0  0  0  0  0  0  0  0  0  0  0
  130.6990  121.2730   73.5420 C   0  0  0  0  0  0  0  0  0  0  0  0
  131.5320  122.3470   73.2250 C   0  0  0  0  0  0  0  0  0  0  0  0
  131.1530  123.2420   72.2230 C   0  0  0  0  0  0  0  0  0  0  0  0
  129.9350  123.0440   71.5600 C   0  0  0  0  0  0  0  0  0  0  0  0
  129.6200  123.9650   70.5450 N   0  0  0  0  0  0  0  0  0  0  0  0
  129.5060  125.3150   70.6280 C   0  0  0  0  0  0  0  0  0  0  0  0
  129.6920  125.9550   71.6650 O   0  0  0  0  0  0  0  0  0  0  0  0
  129.1420  125.9940   69.3830 C   0  0  0  0  0  0  0  0  0  0  0  0
  128.3950  127.5890   69.4280 S   0  0  0  0  0  0  0  0  0  0  0  0
  128.3440  127.6640   67.6840 C   0  0  0  0  0  0  0  0  0  0  0  0
  127.8470  128.7230   67.0490 N   0  0  0  0  0  0  0  0  0  0  0  0
  127.8640  128.6970   65.6900 C   0  0  0  0  0  0  0  0  0  0  0  0
  127.3030  129.9080   65.0050 C   0  0  0  0  0  0  0  0  0  0  0  0
  128.0820  131.0650   64.8430 C   0  0  0  0  0  0  0  0  0  0  0  0
  127.5650  132.1950   64.2150 C   0  0  0  0  0  0  0  0  0  0  0  0
  126.2590  132.1830   63.7370 C   0  0  0  0  0  0  0  0  0  0  0  0
  125.4660  131.0500   63.8860 C   0  0  0  0  0  0  0  0  0  0  0  0
  125.9860  129.9230   64.5170 C   0  0  0  0  0  0  0  0  0  0  0  0
  128.3590  127.6000   64.9770 C   0  0  0  0  0  0  0  0  0  0  0  0
  128.8790  126.4750   65.6370 C   0  0  0  0  0  0  0  0  0  0  0  0
  129.4070  125.3090   64.7950 C   0  0  0  0  0  0  0  0  0  0  0  0
  129.1060  124.1140   65.3070 F   0  0  0  0  0  0  0  0  0  0  0  0
  128.8790  125.3630   63.5710 F   0  0  0  0  0  0  0  0  0  0  0  0
  130.7340  125.3820   64.7050 F   0  0  0  0  0  0  0  0  0  0  0  0
  128.8810  126.4990   67.0620 C   0  0  0  0  0  0  0  0  0  0  0  0
  129.3290  125.5580   68.0600 C   0  0  0  0  0  0  0  0  0  0  0  0
  129.8890  124.3480   67.7410 N   0  0  0  0  0  0  0  0  0  0  0  0
  129.1170  121.9940   71.8610 N   0  0  0  0  0  0  0  0  0  0  0  0
  1  2  1  0
  2  3  2  0
  3  4  1  0
  4  5  2  0
  5  6  1  0
  6  7  1  0
  7  8  1  0
  8  9  2  0
  8 10  1  0
 10 11  1  0
 11 12  1  0
 12 13  2  0
 13 14  1  0
 14 15  1  0
 15 16  2  0
 16 17  1  0
 17 18  2  0
 18 19  1  0
 19 20  2  0
 14 21  2  0
 21 22  1  0
 22 23  1  0
 23 24  1  0
 23 25  1  0
 23 26  1  0
 22 27  2  0
 27 28  1  0
 28 29  1  0
  6 30  2  0
 30  2  1  0
 28 10  2  0
 27 12  1  0
 20 15  1  0
M  END
>  <Binding energies>  (33) 
[-8.17]

>  <Ligand effiencies>  (33) 
[-0.24757575757575756]

>  <Interactions>  (33) 
["H-A:HIS:456:NE2:4070, V-B:GLU:543:CA:9876, V-A:GLU:543:CD:4908, V-A:HIS:456:CD2:4068, V-B:GLU:543:CD:9880, V-B:GLU:543:CB:9878, H-A:TYR:484:OH:4348, V-A:TYR:484:CZ:4347, V-B:GLU:543:C:9874, V-A:TYR:484:CE1:4345, V-B:HIS:456:CE1:9040, V-A:HIS:456:CE1:4069, V-B:GLU:543:CG:9879, V-A:ALA:541:CB:4892, V-A:GLU:543:CB:4906, H-B:LYS:547:NZ:9923, V-B:LEU:475:CD1:9229, H-B:GLU:543:O:9875, V-A:TYR:484:CG:4342, V-A:TYR:484:CE2:4346, V-A:HIS:456:CG:4066, V-A:TYR:484:CD1:4343, V-A:TYR:484:CD2:4344, V-A:HIS:456:CB:4065, V-A:ASP:473:CG:4240, V-B:LYS:547:CE:9922, V-A:ASP:473:CB:4239, H-A:HIS:456:ND1:4067, V-A:TYR:484:CB:4341"]

$$$$
4cf_Grossjean_2025
     RDKit          3D

 29 32  0  0  0  0  0  0  0  0999 V2000
  129.7890  124.4750   67.4270 N   0  0  0  0  0  0  0  0  0  0  0  0
  129.4100  125.7720   67.6600 C   0  0  0  0  0  0  0  0  0  0  0  0
  129.2880  126.3190   68.9480 C   0  0  0  0  0  0  0  0  0  0  0  0
  129.4860  125.6600   70.2430 C   0  0  0  0  0  0  0  0  0  0  0  0
  129.4260  126.3060   71.2900 O   0  0  0  0  0  0  0  0  0  0  0  0
  129.7190  124.3270   70.1860 N   0  0  0  0  0  0  0  0  0  0  0  0
  129.9960  123.4190   71.2260 C   0  0  0  0  0  0  0  0  0  0  0  0
  131.1170  123.4670   72.0760 C   0  0  0  0  0  0  0  0  0  0  0  0
  131.2800  122.4910   73.0610 C   0  0  0  0  0  0  0  0  0  0  0  0
  130.3170  121.4880   73.1730 C   0  0  0  0  0  0  0  0  0  0  0  0
  129.2310  121.4140   72.3630 N   0  0  0  0  0  0  0  0  0  0  0  0
  129.0880  122.3690   71.4090 C   0  0  0  0  0  0  0  0  0  0  0  0
  128.7900  128.0080   68.8780 S   0  0  0  0  0  0  0  0  0  0  0  0
  128.7420  127.9680   67.1310 C   0  0  0  0  0  0  0  0  0  0  0  0
  128.3950  129.0390   66.4210 N   0  0  0  0  0  0  0  0  0  0  0  0
  128.3710  128.9050   65.0680 C   0  0  0  0  0  0  0  0  0  0  0  0
  127.9690  130.1270   64.2940 C   0  0  0  0  0  0  0  0  0  0  0  0
  128.0100  131.3980   64.8880 C   0  0  0  0  0  0  0  0  0  0  0  0
  127.6400  132.5370   64.1770 C   0  0  0  0  0  0  0  0  0  0  0  0
  127.2250  132.4180   62.8550 C   0  0  0  0  0  0  0  0  0  0  0  0
  127.1780  131.1710   62.2400 C   0  0  0  0  0  0  0  0  0  0  0  0
  127.5490  130.0360   62.9550 C   0  0  0  0  0  0  0  0  0  0  0  0
  128.7180  127.7080   64.4370 C   0  0  0  0  0  0  0  0  0  0  0  0
  129.0900  126.5740   65.1770 C   0  0  0  0  0  0  0  0  0  0  0  0
  129.4530  125.2910   64.4210 C   0  0  0  0  0  0  0  0  0  0  0  0
  129.0310  124.1830   65.0340 F   0  0  0  0  0  0  0  0  0  0  0  0
  128.9000  125.3100   63.2080 F   0  0  0  0  0  0  0  0  0  0  0  0
  130.7780  125.1980   64.2990 F   0  0  0  0  0  0  0  0  0  0  0  0
  129.1010  126.6960   66.5960 C   0  0  0  0  0  0  0  0  0  0  0  0
  1  2  1  0
  2  3  2  0
  3  4  1  0
  4  5  2  0
  4  6  1  0
  6  7  1  0
  7  8  2  0
  8  9  1  0
  9 10  2  0
 10 11  1  0
 11 12  2  0
  3 13  1  0
 13 14  1  0
 14 15  2  0
 15 16  1  0
 16 17  1  0
 17 18  2  0
 18 19  1  0
 19 20  2  0
 20 21  1  0
 21 22  2  0
 16 23  2  0
 23 24  1  0
 24 25  1  0
 25 26  1  0
 25 27  1  0
 25 28  1  0
 24 29  2  0
 29  2  1  0
 12  7  1  0
 29 14  1  0
 22 17  1  0
M  END
>  <Binding energies>  (34) 
[-7.61]

>  <Ligand effiencies>  (34) 
[-0.2378125]

>  <Interactions>  (34) 
["H-A:HIS:456:NE2:4070, V-B:GLU:543:CA:9876, V-A:GLU:543:CD:4908, V-A:HIS:456:CD2:4068, V-B:GLU:543:CD:9880, V-B:GLU:543:CB:9878, H-A:TYR:484:OH:4348, V-A:TYR:484:CZ:4347, V-B:GLU:543:C:9874, V-A:TYR:484:CE1:4345, V-B:HIS:456:CE1:9040, V-A:HIS:456:CE1:4069, V-B:GLU:543:CG:9879, V-A:ALA:541:CB:4892, V-A:GLU:543:CB:4906, H-B:LYS:547:NZ:9923, V-B:TYR:484:CE1:9316, V-B:LEU:475:CD1:9229, V-B:TYR:484:CZ:9318, H-B:GLU:543:O:9875, V-A:TYR:484:CG:4342, V-A:TYR:484:CE2:4346, V-A:HIS:456:CG:4066, V-A:TYR:484:CD1:4343, V-A:TYR:484:CD2:4344, V-B:GLY:544:CA:9886, V-A:HIS:456:CB:4065, V-B:LYS:547:CE:9922, V-A:ASP:473:CB:4239, H-A:HIS:456:ND1:4067, V-A:TYR:484:CB:4341"]

$$$$
4ci_Grossjean_2025
     RDKit          3D

 28 31  0  0  0  0  0  0  0  0999 V2000
  129.8750  124.3590   67.7550 N   0  0  0  0  0  0  0  0  0  0  0  0
  129.3290  125.5730   68.0780 C   0  0  0  0  0  0  0  0  0  0  0  0
  129.1280  126.0000   69.4010 C   0  0  0  0  0  0  0  0  0  0  0  0
  129.4480  125.2960   70.6460 C   0  0  0  0  0  0  0  0  0  0  0  0
  129.5630  125.9140   71.7070 O   0  0  0  0  0  0  0  0  0  0  0  0
  129.6140  123.9540   70.5310 N   0  0  0  0  0  0  0  0  0  0  0  0
  129.9230  123.0510   71.5400 C   0  0  0  0  0  0  0  0  0  0  0  0
  131.0930  123.1220   72.2950 C   0  0  0  0  0  0  0  0  0  0  0  0
  131.0200  122.0640   73.1710 C   0  0  0  0  0  0  0  0  0  0  0  0
  129.8640  121.3900   72.9550 O   0  0  0  0  0  0  0  0  0  0  0  0
  129.1790  122.0250   71.9180 N   0  0  0  0  0  0  0  0  0  0  0  0
  128.4170  127.6110   69.4500 S   0  0  0  0  0  0  0  0  0  0  0  0
  128.3840  127.6990   67.7040 C   0  0  0  0  0  0  0  0  0  0  0  0
  127.9130  128.7700   67.0700 N   0  0  0  0  0  0  0  0  0  0  0  0
  127.9320  128.7490   65.7120 C   0  0  0  0  0  0  0  0  0  0  0  0
  127.3890  129.9700   65.0260 C   0  0  0  0  0  0  0  0  0  0  0  0
  128.1790  131.1210   64.8740 C   0  0  0  0  0  0  0  0  0  0  0  0
  127.6820  132.2560   64.2380 C   0  0  0  0  0  0  0  0  0  0  0  0
  126.3820  132.2560   63.7440 C   0  0  0  0  0  0  0  0  0  0  0  0
  125.5760  131.1320   63.8850 C   0  0  0  0  0  0  0  0  0  0  0  0
  126.0770  130.0000   64.5230 C   0  0  0  0  0  0  0  0  0  0  0  0
  128.4070  127.6440   64.9990 C   0  0  0  0  0  0  0  0  0  0  0  0
  128.9060  126.5080   65.6570 C   0  0  0  0  0  0  0  0  0  0  0  0
  129.4120  125.3330   64.8120 C   0  0  0  0  0  0  0  0  0  0  0  0
  129.0600  124.1440   65.3040 F   0  0  0  0  0  0  0  0  0  0  0  0
  128.9110  125.4180   63.5800 F   0  0  0  0  0  0  0  0  0  0  0  0
  130.7430  125.3620   64.7490 F   0  0  0  0  0  0  0  0  0  0  0  0
  128.9030  126.5260   67.0810 C   0  0  0  0  0  0  0  0  0  0  0  0
  1  2  1  0
  2  3  2  0
  3  4  1  0
  4  5  2  0
  4  6  1  0
  6  7  1  0
  7  8  1  0
  8  9  2  0
  9 10  1  0
 10 11  1  0
  3 12  1  0
 12 13  1  0
 13 14  2  0
 14 15  1  0
 15 16  1  0
 16 17  2  0
 17 18  1  0
 18 19  2  0
 19 20  1  0
 20 21  2  0
 15 22  2  0
 22 23  1  0
 23 24  1  0
 24 25  1  0
 24 26  1  0
 24 27  1  0
 23 28  2  0
 28  2  1  0
 11  7  2  0
 28 13  1  0
 21 16  1  0
M  END
>  <Binding energies>  (35) 
[-8.49]

>  <Ligand effiencies>  (35) 
[-0.2738709677419355]

>  <Interactions>  (35) 
["H-A:HIS:456:NE2:4070, V-B:GLU:543:CA:9876, V-A:GLU:543:CD:4908, V-A:HIS:456:CD2:4068, V-B:GLU:543:CD:9880, V-B:GLU:543:CB:9878, H-A:TYR:484:OH:4348, V-A:TYR:484:CZ:4347, V-B:GLU:543:C:9874, V-A:TYR:484:CE1:4345, V-B:HIS:456:CE1:9040, V-A:HIS:456:CE1:4069, V-B:GLU:543:CG:9879, V-A:ALA:541:CB:4892, V-A:GLU:543:CB:4906, H-B:LYS:547:NZ:9923, V-B:LEU:475:CD1:9229, H-B:GLU:543:O:9875, V-A:TYR:484:CG:4342, V-A:TYR:484:CE2:4346, V-A:HIS:456:CG:4066, V-A:TYR:484:CD1:4343, V-A:TYR:484:CD2:4344, V-A:HIS:456:CB:4065, V-A:ASP:473:CG:4240, V-A:ASP:473:CB:4239, H-A:HIS:456:ND1:4067, V-A:TYR:484:CB:4341"]

$$$$
8a_Ghoteimi_2023
     RDKit          3D

 40 44  0  0  0  0  0  0  0  0999 V2000
  133.2200  130.9850   57.3330 C   0  0  0  0  0  0  0  0  0  0  0  0
  132.5280  132.0970   56.5400 C   0  0  0  0  0  0  0  0  0  0  0  0
  131.1740  131.7360   56.3020 O   0  0  0  0  0  0  0  0  0  0  0  0
  130.1620  132.2970   57.0150 C   0  0  0  0  0  0  0  0  0  0  0  0
  129.4810  133.2410   56.6000 O   0  0  0  0  0  0  0  0  0  0  0  0
  129.9580  131.6610   58.3590 C   0  0  0  0  0  0  0  0  0  0  0  0
  130.2260  130.2950   58.5160 C   0  0  0  0  0  0  0  0  0  0  0  0
  130.0460  129.6760   59.7500 C   0  0  0  0  0  0  0  0  0  0  0  0
  129.5940  130.4050   60.8500 C   0  0  0  0  0  0  0  0  0  0  0  0
  129.4450  129.6730   62.0450 N   0  0  0  0  0  0  0  0  0  0  0  0
  128.3240  129.2390   62.6730 C   0  0  0  0  0  0  0  0  0  0  0  0
  127.1800  129.4370   62.2650 O   0  0  0  0  0  0  0  0  0  0  0  0
  128.5530  128.4860   63.9100 C   0  0  0  0  0  0  0  0  0  0  0  0
  127.6800  128.9050   65.3830 S   0  0  0  0  0  0  0  0  0  0  0  0
  128.4910  127.6420   66.2790 C   0  0  0  0  0  0  0  0  0  0  0  0
  128.2580  127.4440   67.5760 N   0  0  0  0  0  0  0  0  0  0  0  0
  128.9470  126.4390   68.1800 C   0  0  0  0  0  0  0  0  0  0  0  0
  128.6840  126.2470   69.6390 C   0  0  0  0  0  0  0  0  0  0  0  0
  127.8150  127.0980   70.3360 C   0  0  0  0  0  0  0  0  0  0  0  0
  127.5840  126.9220   71.6980 C   0  0  0  0  0  0  0  0  0  0  0  0
  128.2120  125.8910   72.3950 C   0  0  0  0  0  0  0  0  0  0  0  0
  127.9250  125.7940   73.7430 O   0  0  0  0  0  0  0  0  0  0  0  0
  126.8660  126.5770   74.2850 C   0  0  0  0  0  0  0  0  0  0  0  0
  129.0780  125.0310   71.7060 C   0  0  0  0  0  0  0  0  0  0  0  0
  129.3100  125.2110   70.3450 C   0  0  0  0  0  0  0  0  0  0  0  0
  129.8550  125.6360   67.4870 C   0  0  0  0  0  0  0  0  0  0  0  0
  130.0900  125.8300   66.1220 C   0  0  0  0  0  0  0  0  0  0  0  0
  131.0420  124.9260   65.4260 C   0  0  0  0  0  0  0  0  0  0  0  0
  130.6020  123.7080   64.9040 C   0  0  0  0  0  0  0  0  0  0  0  0
  131.4860  122.8680   64.2340 C   0  0  0  0  0  0  0  0  0  0  0  0
  132.8230  123.2320   64.0680 C   0  0  0  0  0  0  0  0  0  0  0  0
  133.6260  122.3360   63.3900 O   0  0  0  0  0  0  0  0  0  0  0  0
  134.0270  122.6340   62.0580 C   0  0  0  0  0  0  0  0  0  0  0  0
  133.2660  124.4590   64.5850 C   0  0  0  0  0  0  0  0  0  0  0  0
  132.3780  125.2990   65.2540 C   0  0  0  0  0  0  0  0  0  0  0  0
  129.3970  126.8910   65.4740 C   0  0  0  0  0  0  0  0  0  0  0  0
  129.4260  127.4080   64.1280 C   0  0  0  0  0  0  0  0  0  0  0  0
  130.2500  126.8940   63.1580 N   0  0  0  0  0  0  0  0  0  0  0  0
  129.3280  131.7750   60.7030 C   0  0  0  0  0  0  0  0  0  0  0  0
  129.5090  132.3930   59.4690 C   0  0  0  0  0  0  0  0  0  0  0  0
  1  2  1  0
  2  3  1  0
  3  4  1  0
  4  5  2  0
  4  6  1  0
  6  7  2  0
  7  8  1  0
  8  9  2  0
  9 10  1  0
 10 11  1  0
 11 12  2  0
 11 13  1  0
 13 14  1  0
 14 15  1  0
 15 16  2  0
 16 17  1  0
 17 18  1  0
 18 19  2  0
 19 20  1  0
 20 21  2  0
 21 22  1  0
 22 23  1  0
 21 24  1  0
 24 25  2  0
 17 26  2  0
 26 27  1  0
 27 28  1  0
 28 29  2  0
 29 30  1  0
 30 31  2  0
 31 32  1  0
 32 33  1  0
 31 34  1  0
 34 35  2  0
 27 36  2  0
 36 37  1  0
 37 38  1  0
  9 39  1  0
 39 40  2  0
 40  6  1  0
 37 13  2  0
 36 15  1  0
 25 18  1  0
 35 28  1  0
M  END
>  <Binding energies>  (36) 
[-9.86]

>  <Ligand effiencies>  (36) 
[-0.22930232558139532]

>  <Interactions>  (36) 
["V-A:GLU:543:CD:4908, V-A:HIS:456:CD2:4068, V-A:LEU:475:CD1:4258, V-A:TYR:484:CZ:4347, V-A:TYR:484:CE1:4345, V-B:HIS:456:CE1:9040, V-A:HIS:456:CE1:4069, V-A:PRO:540:CA:4883, V-A:PRO:540:CB:4885, V-A:TYR:539:C:4867, V-B:GLY:544:C:9884, H-B:LYS:547:NZ:9923, V-A:ILE:369:CD1:3239, V-A:GLY:454:CA:4049, H-A:GLY:454:N:4050, H-A:GLU:543:OE1:4909, H-A:GLU:543:OE2:4910, V-A:PRO:540:N:4884, V-A:LEU:363:CA:3185, V-B:LYS:547:CD:9921, V-B:LYS:547:CE:9922, H-A:TYR:539:N:4870, V-A:PRO:540:CD:4887, V-A:LEU:363:CD1:3189, V-A:PRO:540:CG:4886"]

$$$$
8c_Ghoteimi_2023
     RDKit          3D

 34 38  0  0  0  0  0  0  0  0999 V2000
  123.5700  131.7280   62.0100 C   0  0  0  0  0  0  0  0  0  0  0  0
  123.8850  131.9120   63.3860 O   0  0  0  0  0  0  0  0  0  0  0  0
  124.7270  131.0110   64.0100 C   0  0  0  0  0  0  0  0  0  0  0  0
  124.1760  130.2570   65.0440 C   0  0  0  0  0  0  0  0  0  0  0  0
  124.9500  129.3270   65.7310 C   0  0  0  0  0  0  0  0  0  0  0  0
  126.2990  129.1270   65.4020 C   0  0  0  0  0  0  0  0  0  0  0  0
  127.1370  128.1320   66.1390 C   0  0  0  0  0  0  0  0  0  0  0  0
  128.1310  127.3860   65.4980 C   0  0  0  0  0  0  0  0  0  0  0  0
  128.9030  126.4630   66.2120 C   0  0  0  0  0  0  0  0  0  0  0  0
  129.9410  125.6830   65.5020 C   0  0  0  0  0  0  0  0  0  0  0  0
  129.5880  124.8380   64.4460 C   0  0  0  0  0  0  0  0  0  0  0  0
  130.5660  124.1130   63.7730 C   0  0  0  0  0  0  0  0  0  0  0  0
  131.9080  124.2170   64.1440 C   0  0  0  0  0  0  0  0  0  0  0  0
  132.8090  123.4620   63.4180 O   0  0  0  0  0  0  0  0  0  0  0  0
  133.6970  124.1160   62.5190 C   0  0  0  0  0  0  0  0  0  0  0  0
  132.2610  125.0630   65.2070 C   0  0  0  0  0  0  0  0  0  0  0  0
  131.2810  125.7890   65.8790 C   0  0  0  0  0  0  0  0  0  0  0  0
  128.6510  126.3140   67.6020 C   0  0  0  0  0  0  0  0  0  0  0  0
  129.2410  125.4820   68.6170 C   0  0  0  0  0  0  0  0  0  0  0  0
  130.2620  124.6060   68.3470 N   0  0  0  0  0  0  0  0  0  0  0  0
  128.6780  125.6540   69.8920 C   0  0  0  0  0  0  0  0  0  0  0  0
  129.0330  124.9820   71.1440 C   0  0  0  0  0  0  0  0  0  0  0  0
  128.7760  125.5000   72.2320 O   0  0  0  0  0  0  0  0  0  0  0  0
  129.6500  123.7820   71.0050 N   0  0  0  0  0  0  0  0  0  0  0  0
  130.0850  122.9450   72.0220 C   0  0  0  0  0  0  0  0  0  0  0  0
  129.5940  121.7760   72.3720 N   0  0  0  0  0  0  0  0  0  0  0  0
  130.2590  121.2550   73.3840 C   0  0  0  0  0  0  0  0  0  0  0  0
  131.3180  122.0090   73.8790 C   0  0  0  0  0  0  0  0  0  0  0  0
  131.4410  123.4810   72.9620 S   0  0  0  0  0  0  0  0  0  0  0  0
  127.3950  126.8640   69.8630 S   0  0  0  0  0  0  0  0  0  0  0  0
  127.6180  127.1290   68.1500 C   0  0  0  0  0  0  0  0  0  0  0  0
  126.8810  128.0070   67.4700 N   0  0  0  0  0  0  0  0  0  0  0  0
  126.8450  129.8880   64.3590 C   0  0  0  0  0  0  0  0  0  0  0  0
  126.0740  130.8190   63.6710 C   0  0  0  0  0  0  0  0  0  0  0  0
  1  2  1  0
  2  3  1  0
  3  4  2  0
  4  5  1  0
  5  6  2  0
  6  7  1  0
  7  8  2  0
  8  9  1  0
  9 10  1  0
 10 11  2  0
 11 12  1  0
 12 13  2  0
 13 14  1  0
 14 15  1  0
 13 16  1  0
 16 17  2  0
  9 18  2  0
 18 19  1  0
 19 20  1  0
 19 21  2  0
 21 22  1  0
 22 23  2  0
 22 24  1  0
 24 25  1  0
 25 26  2  0
 26 27  1  0
 27 28  2  0
 28 29  1  0
 21 30  1  0
 30 31  1  0
 31 32  2  0
  6 33  1  0
 33 34  2  0
 34  3  1  0
 32  7  1  0
 17 10  1  0
 31 18  1  0
 29 25  1  0
M  END
>  <Binding energies>  (37) 
[-9.14]

>  <Ligand effiencies>  (37) 
[-0.24702702702702703]

>  <Interactions>  (37) 
["V-A:GLU:543:CD:4908, V-A:HIS:456:CD2:4068, V-B:GLU:543:CD:9880, V-B:GLU:543:CB:9878, H-A:TYR:484:OH:4348, V-A:TYR:484:CZ:4347, V-B:GLU:543:C:9874, V-A:TYR:484:CE1:4345, V-B:HIS:456:CE1:9040, V-A:HIS:456:CE1:4069, V-B:GLU:543:CG:9879, V-B:ARG:545:CD:9895, V-B:ARG:545:CZ:9898, V-B:GLY:544:C:9884, H-B:LYS:547:NZ:9923, V-B:ILE:369:CD1:8210, V-B:GLY:454:CA:9020, H-A:GLY:454:N:4050, H-B:GLY:454:N:9021, H-B:GLU:543:O:9875, V-A:TYR:484:CG:4342, V-A:TYR:484:CE2:4346, V-A:HIS:456:CG:4066, V-A:TYR:484:CD1:4343, V-A:TYR:484:CD2:4344, V-A:HIS:456:CB:4065, V-A:ASP:473:CG:4240, V-A:ASP:473:CB:4239, H-A:HIS:456:ND1:4067, V-A:TYR:484:CB:4341"]

$$$$
8d_Ghoteimi_2023
     RDKit          3D

 30 33  0  0  0  0  0  0  0  0999 V2000
  130.8380  123.5190   72.0380 C   0  0  0  0  0  0  0  0  0  0  0  0
  129.5070  123.7140   71.5800 O   0  0  0  0  0  0  0  0  0  0  0  0
  128.8950  124.9190   71.7120 C   0  0  0  0  0  0  0  0  0  0  0  0
  128.6490  125.4530   72.7960 O   0  0  0  0  0  0  0  0  0  0  0  0
  128.5500  125.5350   70.4120 C   0  0  0  0  0  0  0  0  0  0  0  0
  127.2050  126.6730   70.3070 S   0  0  0  0  0  0  0  0  0  0  0  0
  127.4690  126.8870   68.5920 C   0  0  0  0  0  0  0  0  0  0  0  0
  126.7080  127.7000   67.8590 N   0  0  0  0  0  0  0  0  0  0  0  0
  127.0010  127.7950   66.5340 C   0  0  0  0  0  0  0  0  0  0  0  0
  126.1290  128.7100   65.7340 C   0  0  0  0  0  0  0  0  0  0  0  0
  126.5590  129.2300   64.5050 C   0  0  0  0  0  0  0  0  0  0  0  0
  125.7440  130.0810   63.7650 C   0  0  0  0  0  0  0  0  0  0  0  0
  124.4800  130.4370   64.2330 C   0  0  0  0  0  0  0  0  0  0  0  0
  123.7410  131.2860   63.4320 O   0  0  0  0  0  0  0  0  0  0  0  0
  123.6500  131.0210   62.0360 C   0  0  0  0  0  0  0  0  0  0  0  0
  124.0390  129.9220   65.4600 C   0  0  0  0  0  0  0  0  0  0  0  0
  124.8570  129.0690   66.1970 C   0  0  0  0  0  0  0  0  0  0  0  0
  128.0440  127.0740   65.9470 C   0  0  0  0  0  0  0  0  0  0  0  0
  128.8450  126.2230   66.7170 C   0  0  0  0  0  0  0  0  0  0  0  0
  129.9490  125.4790   66.0670 C   0  0  0  0  0  0  0  0  0  0  0  0
  131.2430  126.0030   66.0680 C   0  0  0  0  0  0  0  0  0  0  0  0
  132.2790  125.3080   65.4490 C   0  0  0  0  0  0  0  0  0  0  0  0
  132.0390  124.0820   64.8280 C   0  0  0  0  0  0  0  0  0  0  0  0
  133.1260  123.4650   64.2400 O   0  0  0  0  0  0  0  0  0  0  0  0
  133.6130  123.9540   62.9960 C   0  0  0  0  0  0  0  0  0  0  0  0
  130.7360  123.5560   64.8320 C   0  0  0  0  0  0  0  0  0  0  0  0
  129.7010  124.2530   65.4500 C   0  0  0  0  0  0  0  0  0  0  0  0
  128.5580  126.1110   68.1030 C   0  0  0  0  0  0  0  0  0  0  0  0
  129.1560  125.3490   69.1640 C   0  0  0  0  0  0  0  0  0  0  0  0
  130.2240  124.5120   68.9620 N   0  0  0  0  0  0  0  0  0  0  0  0
  1  2  1  0
  2  3  1  0
  3  4  2  0
  3  5  1  0
  5  6  1  0
  6  7  1  0
  7  8  2  0
  8  9  1  0
  9 10  1  0
 10 11  2  0
 11 12  1  0
 12 13  2  0
 13 14  1  0
 14 15  1  0
 13 16  1  0
 16 17  2  0
  9 18  2  0
 18 19  1  0
 19 20  1  0
 20 21  2  0
 21 22  1  0
 22 23  2  0
 23 24  1  0
 24 25  1  0
 23 26  1  0
 26 27  2  0
 19 28  2  0
 28 29  1  0
 29 30  1  0
 29  5  2  0
 28  7  1  0
 17 10  1  0
 27 20  1  0
M  END
>  <Binding energies>  (38) 
[-7.91]

>  <Ligand effiencies>  (38) 
[-0.2471875]

>  <Interactions>  (38) 
["V-B:GLU:543:CA:9876, V-A:GLU:543:CD:4908, V-A:HIS:456:CD2:4068, V-B:GLU:543:CD:9880, V-B:GLU:543:CB:9878, H-A:TYR:484:OH:4348, V-A:TYR:484:CZ:4347, V-B:GLU:543:C:9874, V-A:TYR:484:CE1:4345, V-B:HIS:456:CE1:9040, V-A:HIS:456:CE1:4069, V-B:GLU:543:CG:9879, V-B:ARG:545:CD:9895, V-B:ARG:545:CZ:9898, V-B:ARG:545:CG:9894, V-B:GLY:544:C:9884, H-B:LYS:547:NZ:9923, V-B:ILE:369:CD1:8210, V-B:GLY:454:CA:9020, V-A:GLY:454:CA:4049, H-A:GLY:454:N:4050, H-B:GLY:454:N:9021, H-B:GLU:543:O:9875, V-A:TYR:484:CG:4342, V-A:TYR:484:CE2:4346, V-A:HIS:456:CG:4066, V-A:TYR:484:CD1:4343, V-A:TYR:484:CD2:4344, V-A:HIS:456:CB:4065, H-A:HIS:456:ND1:4067"]

$$$$
9a_Ghoteimi_2023
     RDKit          3D

 48 54  0  0  0  0  0  0  0  0999 V2000
  124.3900  127.9740   74.9610 C   0  0  0  0  0  0  0  0  0  0  0  0
  125.3290  126.8910   74.4170 C   0  0  0  0  0  0  0  0  0  0  0  0
  126.6240  127.4440   74.2190 O   0  0  0  0  0  0  0  0  0  0  0  0
  127.6970  126.6470   73.9820 C   0  0  0  0  0  0  0  0  0  0  0  0
  128.3520  126.1030   74.8770 O   0  0  0  0  0  0  0  0  0  0  0  0
  128.0150  126.4980   72.5220 C   0  0  0  0  0  0  0  0  0  0  0  0
  128.4490  125.2560   72.0390 C   0  0  0  0  0  0  0  0  0  0  0  0
  128.7530  125.0860   70.6920 C   0  0  0  0  0  0  0  0  0  0  0  0
  128.6290  126.1500   69.7990 C   0  0  0  0  0  0  0  0  0  0  0  0
  128.9640  125.8630   68.4610 N   0  0  0  0  0  0  0  0  0  0  0  0
  129.5680  126.6330   67.5220 C   0  0  0  0  0  0  0  0  0  0  0  0
  129.9450  127.7890   67.7130 O   0  0  0  0  0  0  0  0  0  0  0  0
  129.7640  125.9920   66.2180 C   0  0  0  0  0  0  0  0  0  0  0  0
  130.8480  124.6090   66.0600 S   0  0  0  0  0  0  0  0  0  0  0  0
  130.5070  124.4800   64.3500 C   0  0  0  0  0  0  0  0  0  0  0  0
  131.0570  123.5280   63.5980 N   0  0  0  0  0  0  0  0  0  0  0  0
  130.7160  123.5080   62.2820 C   0  0  0  0  0  0  0  0  0  0  0  0
  131.3370  122.4250   61.4600 C   0  0  0  0  0  0  0  0  0  0  0  0
  131.3000  121.0940   61.8920 C   0  0  0  0  0  0  0  0  0  0  0  0
  131.8750  120.0790   61.1320 C   0  0  0  0  0  0  0  0  0  0  0  0
  132.4960  120.3550   59.9030 C   0  0  0  0  0  0  0  0  0  0  0  0
  133.0950  119.3490   59.1380 N   0  0  0  0  0  0  0  0  0  0  0  0
  133.0960  119.3990   57.6620 C   0  0  0  0  0  0  0  0  0  0  0  0
  133.4660  118.0580   56.9940 C   0  0  0  0  0  0  0  0  0  0  0  0
  134.7110  117.5950   57.4880 O   0  0  0  0  0  0  0  0  0  0  0  0
  134.6680  117.3860   58.8910 C   0  0  0  0  0  0  0  0  0  0  0  0
  134.3400  118.7090   59.6120 C   0  0  0  0  0  0  0  0  0  0  0  0
  132.5430  121.6920   59.4820 C   0  0  0  0  0  0  0  0  0  0  0  0
  131.9710  122.7070   60.2440 C   0  0  0  0  0  0  0  0  0  0  0  0
  129.8530  124.4510   61.7200 C   0  0  0  0  0  0  0  0  0  0  0  0
  129.2890  125.4650   62.5030 C   0  0  0  0  0  0  0  0  0  0  0  0
  128.4060  126.4640   61.8480 C   0  0  0  0  0  0  0  0  0  0  0  0
  127.3250  126.0530   61.0640 C   0  0  0  0  0  0  0  0  0  0  0  0
  126.4910  126.9910   60.4630 C   0  0  0  0  0  0  0  0  0  0  0  0
  126.7050  128.3670   60.6440 C   0  0  0  0  0  0  0  0  0  0  0  0
  125.8890  129.3270   60.0410 N   0  0  0  0  0  0  0  0  0  0  0  0
  124.9210  130.0720   60.8710 C   0  0  0  0  0  0  0  0  0  0  0  0
  124.3700  131.3370   60.1800 C   0  0  0  0  0  0  0  0  0  0  0  0
  123.8030  130.9960   58.9240 O   0  0  0  0  0  0  0  0  0  0  0  0
  124.7600  130.4070   58.0580 C   0  0  0  0  0  0  0  0  0  0  0  0
  125.3230  129.1170   58.6940 C   0  0  0  0  0  0  0  0  0  0  0  0
  127.7920  128.7680   61.4350 C   0  0  0  0  0  0  0  0  0  0  0  0
  128.6280  127.8300   62.0320 C   0  0  0  0  0  0  0  0  0  0  0  0
  129.6030  125.4830   63.8920 C   0  0  0  0  0  0  0  0  0  0  0  0
  129.1760  126.3190   64.9870 C   0  0  0  0  0  0  0  0  0  0  0  0
  128.2650  127.3320   64.8290 N   0  0  0  0  0  0  0  0  0  0  0  0
  128.1920  127.3980   70.2720 C   0  0  0  0  0  0  0  0  0  0  0  0
  127.8890  127.5660   71.6210 C   0  0  0  0  0  0  0  0  0  0  0  0
  1  2  1  0
  2  3  1  0
  3  4  1  0
  4  5  2  0
  4  6  1  0
  6  7  2  0
  7  8  1  0
  8  9  2  0
  9 10  1  0
 10 11  1  0
 11 12  2  0
 11 13  1  0
 13 14  1  0
 14 15  1  0
 15 16  2  0
 16 17  1  0
 17 18  1  0
 18 19  2  0
 19 20  1  0
 20 21  2  0
 21 22  1  0
 22 23  1  0
 23 24  1  0
 24 25  1  0
 25 26  1  0
 26 27  1  0
 21 28  1  0
 28 29  2  0
 17 30  2  0
 30 31  1  0
 31 32  1  0
 32 33  2  0
 33 34  1  0
 34 35  2  0
 35 36  1  0
 36 37  1  0
 37 38  1  0
 38 39  1  0
 39 40  1  0
 40 41  1  0
 35 42  1  0
 42 43  2  0
 31 44  2  0
 44 45  1  0
 45 46  1  0
  9 47  1  0
 47 48  2  0
 48  6  1  0
 45 13  2  0
 44 15  1  0
 29 18  1  0
 43 32  1  0
 27 22  1  0
 41 36  1  0
M  END
>  <Binding energies>  (39) 
[-6.93]

>  <Ligand effiencies>  (39) 
[-0.13588235294117645]

>  <Interactions>  (39) 
["H-A:HIS:456:NE2:4070, V-B:GLU:543:CD:9880, V-B:TYR:539:CD2:9846, V-A:LEU:475:CD1:4258, V-A:TYR:484:CZ:4347, V-B:GLU:543:C:9874, V-A:TYR:484:CE1:4345, V-B:HIS:456:CE1:9040, V-B:TYR:539:CE2:9848, V-A:HIS:456:CE1:4069, V-B:GLU:543:CG:9879, V-A:TYR:539:CZ:4877, V-B:GLY:544:C:9884, V-B:TYR:539:CZ:9849, H-B:LYS:547:NZ:9923, V-A:ILE:369:CD1:3239, V-A:ILE:369:CG2:3237, V-A:TRP:381:CZ2:3370, H-B:GLU:543:OE2:9882, V-A:TRP:381:CH2:3372, H-B:GLU:543:O:9875, V-B:ASP:366:CG:8184, H-A:GLU:543:OE1:4909, H-A:GLU:543:OE2:4910, V-B:TYR:539:CG:9844, H-B:GLU:543:OE1:9881, V-B:ASP:366:CB:8183, H-A:TYR:539:OH:4878, V-B:HIS:456:CD2:9039, V-B:LYS:547:CD:9921, V-B:HIS:456:CG:9037, V-B:LYS:547:CE:9922, V-B:HIS:456:CB:9036, V-A:SER:385:CA:3407, V-A:SER:385:C:3405, V-B:VAL:458:CG2:9058, V-B:HIS:456:CA:9034, V-B:VAL:457:C:9044, V-B:HIS:456:C:9032, V-B:VAL:457:CA:9046, V-A:TRP:381:CZ3:3371, V-A:VAL:384:C:3397, V-A:LEU:373:CD1:3280, H-A:ASN:382:ND2:3381"]

$$$$
9b_Ghoteimi_2023
     RDKit          3D

 42 48  0  0  0  0  0  0  0  0999 V2000
  127.6570  128.4750   62.7190 N   0  0  0  0  0  0  0  0  0  0  0  0
  127.2290  128.4900   64.0220 C   0  0  0  0  0  0  0  0  0  0  0  0
  126.1470  129.2610   64.4720 C   0  0  0  0  0  0  0  0  0  0  0  0
  125.2710  130.1460   63.6990 C   0  0  0  0  0  0  0  0  0  0  0  0
  124.2330  130.5910   64.1930 O   0  0  0  0  0  0  0  0  0  0  0  0
  125.6850  130.4170   62.4360 N   0  0  0  0  0  0  0  0  0  0  0  0
  125.0500  131.2090   61.4880 C   0  0  0  0  0  0  0  0  0  0  0  0
  124.3870  130.6850   60.3800 C   0  0  0  0  0  0  0  0  0  0  0  0
  123.9000  131.7800   59.7030 C   0  0  0  0  0  0  0  0  0  0  0  0
  124.2520  132.9050   60.3710 O   0  0  0  0  0  0  0  0  0  0  0  0
  124.9800  132.5300   61.5000 N   0  0  0  0  0  0  0  0  0  0  0  0
  125.8980  129.0600   66.2060 S   0  0  0  0  0  0  0  0  0  0  0  0
  127.2530  127.9630   66.3200 C   0  0  0  0  0  0  0  0  0  0  0  0
  127.6290  127.4360   67.4830 N   0  0  0  0  0  0  0  0  0  0  0  0
  128.7060  126.6070   67.4660 C   0  0  0  0  0  0  0  0  0  0  0  0
  129.1200  126.0460   68.7880 C   0  0  0  0  0  0  0  0  0  0  0  0
  129.8620  124.8620   68.8710 C   0  0  0  0  0  0  0  0  0  0  0  0
  130.2320  124.3360   70.1050 C   0  0  0  0  0  0  0  0  0  0  0  0
  129.8610  124.9670   71.3030 C   0  0  0  0  0  0  0  0  0  0  0  0
  130.2280  124.4520   72.5510 N   0  0  0  0  0  0  0  0  0  0  0  0
  130.6370  125.3390   73.6590 C   0  0  0  0  0  0  0  0  0  0  0  0
  130.6680  124.6430   75.0350 C   0  0  0  0  0  0  0  0  0  0  0  0
  131.4920  123.4900   74.9770 O   0  0  0  0  0  0  0  0  0  0  0  0
  131.0070  122.5520   74.0310 C   0  0  0  0  0  0  0  0  0  0  0  0
  130.9810  123.1830   72.6220 C   0  0  0  0  0  0  0  0  0  0  0  0
  129.1350  126.1640   71.2120 C   0  0  0  0  0  0  0  0  0  0  0  0
  128.7690  126.6920   69.9780 C   0  0  0  0  0  0  0  0  0  0  0  0
  129.3850  126.2890   66.2870 C   0  0  0  0  0  0  0  0  0  0  0  0
  128.9800  126.8250   65.0580 C   0  0  0  0  0  0  0  0  0  0  0  0
  129.7160  126.4320   63.8290 C   0  0  0  0  0  0  0  0  0  0  0  0
  130.2720  127.4070   63.0000 C   0  0  0  0  0  0  0  0  0  0  0  0
  130.9780  127.0410   61.8580 C   0  0  0  0  0  0  0  0  0  0  0  0
  131.1470  125.6900   61.5140 C   0  0  0  0  0  0  0  0  0  0  0  0
  131.8650  125.3010   60.3810 N   0  0  0  0  0  0  0  0  0  0  0  0
  132.6210  124.0330   60.4050 C   0  0  0  0  0  0  0  0  0  0  0  0
  133.6660  123.9260   59.2730 C   0  0  0  0  0  0  0  0  0  0  0  0
  133.0370  124.1120   58.0140 O   0  0  0  0  0  0  0  0  0  0  0  0
  132.4140  125.3840   57.9190 C   0  0  0  0  0  0  0  0  0  0  0  0
  131.3420  125.5310   59.0200 C   0  0  0  0  0  0  0  0  0  0  0  0
  130.5990  124.7200   62.3660 C   0  0  0  0  0  0  0  0  0  0  0  0
  129.8920  125.0860   63.5080 C   0  0  0  0  0  0  0  0  0  0  0  0
  127.8750  127.7230   65.0580 C   0  0  0  0  0  0  0  0  0  0  0  0
  1  2  1  0
  2  3  2  0
  3  4  1  0
  4  5  2  0
  4  6  1  0
  6  7  1  0
  7  8  1  0
  8  9  2  0
  9 10  1  0
 10 11  1  0
  3 12  1  0
 12 13  1  0
 13 14  2  0
 14 15  1  0
 15 16  1  0
 16 17  2  0
 17 18  1  0
 18 19  2  0
 19 20  1  0
 20 21  1  0
 21 22  1  0
 22 23  1  0
 23 24  1  0
 24 25  1  0
 19 26  1  0
 26 27  2  0
 15 28  2  0
 28 29  1  0
 29 30  1  0
 30 31  2  0
 31 32  1  0
 32 33  2  0
 33 34  1  0
 34 35  1  0
 35 36  1  0
 36 37  1  0
 37 38  1  0
 38 39  1  0
 33 40  1  0
 40 41  2  0
 29 42  2  0
 42  2  1  0
 11  7  2  0
 42 13  1  0
 27 16  1  0
 41 30  1  0
 25 20  1  0
 39 34  1  0
M  END
>  <Binding energies>  (40) 
[-8.75]

>  <Ligand effiencies>  (40) 
[-0.19444444444444445]

>  <Interactions>  (40) 
["V-A:GLU:543:CD:4908, V-A:HIS:456:CD2:4068, V-B:GLU:543:CD:9880, V-A:ASP:366:CG:3213, V-B:GLU:543:CB:9878, V-A:TYR:484:CZ:4347, V-B:GLU:543:C:9874, V-A:TYR:484:CE1:4345, V-B:HIS:456:CE1:9040, V-A:HIS:456:CE1:4069, H-B:TYR:484:OH:9319, V-A:TYR:539:CE2:4876, H-B:LYS:547:NZ:9923, V-B:ILE:369:CG2:8208, V-B:ILE:369:CD1:8210, V-A:ASP:366:CA:3210, V-A:ILE:369:CG2:3237, H-B:GLU:543:OE2:9882, H-B:GLY:454:N:9021, V-B:ASP:366:CG:8184, H-A:GLU:543:OE1:4909, V-A:ASP:366:CB:3212, H-B:GLU:543:OE1:9881, V-A:TYR:484:CE2:4346, V-A:HIS:456:CG:4066, V-A:TYR:484:CD1:4343, V-A:TYR:484:CD2:4344, V-A:HIS:456:CB:4065, V-A:ASP:473:CG:4240, V-A:ASP:473:CB:4239, H-B:TYR:539:OH:9850"]

$$$$
9c_Ghoteimi_2023
     RDKit          3D

 42 48  0  0  0  0  0  0  0  0999 V2000
  127.6650  128.4490   62.7240 N   0  0  0  0  0  0  0  0  0  0  0  0
  127.2380  128.4650   64.0280 C   0  0  0  0  0  0  0  0  0  0  0  0
  126.1530  129.2350   64.4760 C   0  0  0  0  0  0  0  0  0  0  0  0
  125.2790  130.1200   63.7010 C   0  0  0  0  0  0  0  0  0  0  0  0
  124.1660  130.4370   64.1260 O   0  0  0  0  0  0  0  0  0  0  0  0
  125.7810  130.5390   62.5140 N   0  0  0  0  0  0  0  0  0  0  0  0
  125.1570  131.3640   61.5880 C   0  0  0  0  0  0  0  0  0  0  0  0
  124.9030  132.6500   61.6930 N   0  0  0  0  0  0  0  0  0  0  0  0
  124.2900  133.1130   60.6210 C   0  0  0  0  0  0  0  0  0  0  0  0
  124.0320  132.1880   59.6120 C   0  0  0  0  0  0  0  0  0  0  0  0
  124.6300  130.6330   60.1060 S   0  0  0  0  0  0  0  0  0  0  0  0
  125.9040  129.0360   66.2100 S   0  0  0  0  0  0  0  0  0  0  0  0
  127.2610  127.9410   66.3260 C   0  0  0  0  0  0  0  0  0  0  0  0
  127.6360  127.4150   67.4910 N   0  0  0  0  0  0  0  0  0  0  0  0
  128.7150  126.5890   67.4750 C   0  0  0  0  0  0  0  0  0  0  0  0
  129.1270  126.0290   68.7980 C   0  0  0  0  0  0  0  0  0  0  0  0
  129.8640  124.8430   68.8860 C   0  0  0  0  0  0  0  0  0  0  0  0
  130.2370  124.3210   70.1200 C   0  0  0  0  0  0  0  0  0  0  0  0
  129.8750  124.9620   71.3160 C   0  0  0  0  0  0  0  0  0  0  0  0
  130.2490  124.4540   72.5660 N   0  0  0  0  0  0  0  0  0  0  0  0
  130.6490  125.3490   73.6710 C   0  0  0  0  0  0  0  0  0  0  0  0
  130.6850  124.6570   75.0510 C   0  0  0  0  0  0  0  0  0  0  0  0
  131.5230  123.5140   74.9960 O   0  0  0  0  0  0  0  0  0  0  0  0
  131.0480  122.5680   74.0530 C   0  0  0  0  0  0  0  0  0  0  0  0
  131.0180  123.1940   72.6420 C   0  0  0  0  0  0  0  0  0  0  0  0
  129.1540  126.1600   71.2220 C   0  0  0  0  0  0  0  0  0  0  0  0
  128.7840  126.6830   69.9860 C   0  0  0  0  0  0  0  0  0  0  0  0
  129.3940  126.2700   66.2970 C   0  0  0  0  0  0  0  0  0  0  0  0
  128.9890  126.8030   65.0680 C   0  0  0  0  0  0  0  0  0  0  0  0
  129.7240  126.4100   63.8400 C   0  0  0  0  0  0  0  0  0  0  0  0
  129.8470  125.0630   63.4930 C   0  0  0  0  0  0  0  0  0  0  0  0
  130.5210  124.6910   62.3330 C   0  0  0  0  0  0  0  0  0  0  0  0
  131.0920  125.6570   61.4900 C   0  0  0  0  0  0  0  0  0  0  0  0
  131.7640  125.3070   60.3140 N   0  0  0  0  0  0  0  0  0  0  0  0
  132.6460  124.1230   60.3140 C   0  0  0  0  0  0  0  0  0  0  0  0
  133.6080  124.0810   59.1070 C   0  0  0  0  0  0  0  0  0  0  0  0
  132.8700  124.1570   57.8960 O   0  0  0  0  0  0  0  0  0  0  0  0
  132.1170  125.3570   57.8160 C   0  0  0  0  0  0  0  0  0  0  0  0
  131.1200  125.4370   58.9930 C   0  0  0  0  0  0  0  0  0  0  0  0
  130.9450  127.0080   61.8380 C   0  0  0  0  0  0  0  0  0  0  0  0
  130.2710  127.3800   62.9980 C   0  0  0  0  0  0  0  0  0  0  0  0
  127.8830  127.7000   65.0650 C   0  0  0  0  0  0  0  0  0  0  0  0
  1  2  1  0
  2  3  2  0
  3  4  1  0
  4  5  2  0
  4  6  1  0
  6  7  1  0
  7  8  2  0
  8  9  1  0
  9 10  2  0
 10 11  1  0
  3 12  1  0
 12 13  1  0
 13 14  2  0
 14 15  1  0
 15 16  1  0
 16 17  2  0
 17 18  1  0
 18 19  2  0
 19 20  1  0
 20 21  1  0
 21 22  1  0
 22 23  1  0
 23 24  1  0
 24 25  1  0
 19 26  1  0
 26 27  2  0
 15 28  2  0
 28 29  1  0
 29 30  1  0
 30 31  2  0
 31 32  1  0
 32 33  2  0
 33 34  1  0
 34 35  1  0
 35 36  1  0
 36 37  1  0
 37 38  1  0
 38 39  1  0
 33 40  1  0
 40 41  2  0
 29 42  2  0
 42  2  1  0
 11  7  1  0
 42 13  1  0
 27 16  1  0
 41 30  1  0
 25 20  1  0
 39 34  1  0
M  END
>  <Binding energies>  (41) 
[-8.69]

>  <Ligand effiencies>  (41) 
[-0.1931111111111111]

>  <Interactions>  (41) 
["V-A:GLU:543:CD:4908, V-A:HIS:456:CD2:4068, V-B:GLU:543:CD:9880, V-A:ASP:366:CG:3213, V-B:GLU:543:CB:9878, V-A:TYR:484:CZ:4347, V-B:GLU:543:C:9874, V-A:TYR:484:CE1:4345, V-B:HIS:456:CE1:9040, V-A:HIS:456:CE1:4069, H-B:TYR:484:OH:9319, V-A:TYR:539:CE2:4876, H-B:LYS:547:NZ:9923, V-B:ILE:369:CG2:8208, V-B:ILE:369:CD1:8210, V-A:ASP:366:CA:3210, V-A:ILE:369:CG2:3237, H-B:GLU:543:OE2:9882, H-B:GLY:454:N:9021, H-B:ARG:545:NH2:9900, V-B:ASP:366:CG:8184, H-A:GLU:543:OE1:4909, V-A:ASP:366:CB:3212, H-B:GLU:543:OE1:9881, V-A:TYR:484:CE2:4346, V-A:HIS:456:CG:4066, V-A:TYR:484:CD1:4343, V-A:TYR:484:CD2:4344, V-A:HIS:456:CB:4065, V-A:ASP:473:CG:4240, V-A:ASP:473:CB:4239, H-B:TYR:539:OH:9850"]

$$$$
RR11_Rahimova_2017
     RDKit          3D

 33 38  0  0  0  0  0  0  0  0999 V2000
  131.7970  123.1000   74.4690 N   0  0  0  0  0  0  0  0  0  0  0  0
  131.1120  123.7730   73.4590 C   0  0  0  0  0  0  0  0  0  0  0  0
  130.9170  123.1580   72.2240 C   0  0  0  0  0  0  0  0  0  0  0  0
  130.2300  123.8300   71.2170 C   0  0  0  0  0  0  0  0  0  0  0  0
  129.7330  125.1210   71.4340 C   0  0  0  0  0  0  0  0  0  0  0  0
  128.9880  125.8420   70.3490 C   0  0  0  0  0  0  0  0  0  0  0  0
  129.5260  126.7320   69.5440 N   0  0  0  0  0  0  0  0  0  0  0  0
  128.5120  127.1240   68.7100 C   0  0  0  0  0  0  0  0  0  0  0  0
  128.5390  128.0500   67.6580 C   0  0  0  0  0  0  0  0  0  0  0  0
  127.3610  128.2670   66.9320 C   0  0  0  0  0  0  0  0  0  0  0  0
  127.3590  129.2710   65.7870 C   0  0  0  0  0  0  0  0  0  0  0  0
  127.7760  128.6570   64.4580 C   0  0  0  0  0  0  0  0  0  0  0  0
  126.9060  128.7270   63.3640 C   0  0  0  0  0  0  0  0  0  0  0  0
  127.2480  128.1870   62.1220 C   0  0  0  0  0  0  0  0  0  0  0  0
  128.4990  127.5700   61.9920 C   0  0  0  0  0  0  0  0  0  0  0  0
  129.0590  126.9650   60.8970 N   0  0  0  0  0  0  0  0  0  0  0  0
  130.2380  126.5430   61.2980 C   0  0  0  0  0  0  0  0  0  0  0  0
  131.2140  125.7980   60.4320 C   0  0  0  0  0  0  0  0  0  0  0  0
  132.1060  124.8780   60.9960 C   0  0  0  0  0  0  0  0  0  0  0  0
  133.0180  124.1950   60.1950 C   0  0  0  0  0  0  0  0  0  0  0  0
  133.0430  124.4290   58.8220 C   0  0  0  0  0  0  0  0  0  0  0  0
  133.9590  123.7500   58.0190 N   0  0  0  0  0  0  0  0  0  0  0  0
  132.1590  125.3380   58.2470 C   0  0  0  0  0  0  0  0  0  0  0  0
  131.2480  126.0200   59.0490 C   0  0  0  0  0  0  0  0  0  0  0  0
  130.4760  126.8560   62.6200 N   0  0  0  0  0  0  0  0  0  0  0  0
  129.3720  127.5170   63.1040 C   0  0  0  0  0  0  0  0  0  0  0  0
  129.0390  128.0610   64.3470 C   0  0  0  0  0  0  0  0  0  0  0  0
  126.1820  127.5940   67.2690 C   0  0  0  0  0  0  0  0  0  0  0  0
  126.1210  126.6700   68.3150 C   0  0  0  0  0  0  0  0  0  0  0  0
  127.3070  126.4510   69.0200 C   0  0  0  0  0  0  0  0  0  0  0  0
  127.6510  125.6410   70.0770 N   0  0  0  0  0  0  0  0  0  0  0  0
  129.9380  125.7290   72.6800 C   0  0  0  0  0  0  0  0  0  0  0  0
  130.6240  125.0590   73.6900 C   0  0  0  0  0  0  0  0  0  0  0  0
  1  2  1  0
  2  3  2  0
  3  4  1  0
  4  5  2  0
  5  6  1  0
  6  7  2  0
  7  8  1  0
  8  9  2  0
  9 10  1  0
 10 11  1  0
 11 12  1  0
 12 13  2  0
 13 14  1  0
 14 15  2  0
 15 16  1  0
 16 17  2  0
 17 18  1  0
 18 19  2  0
 19 20  1  0
 20 21  2  0
 21 22  1  0
 21 23  1  0
 23 24  2  0
 17 25  1  0
 25 26  1  0
 26 27  2  0
 10 28  2  0
 28 29  1  0
 29 30  2  0
 30 31  1  0
  5 32  1  0
 32 33  2  0
 33  2  1  0
 31  6  1  0
 30  8  1  0
 27 12  1  0
 26 15  1  0
 24 18  1  0
M  END
>  <Binding energies>  (42) 
[-7.74]

>  <Ligand effiencies>  (42) 
[-0.19846153846153847]

>  <Interactions>  (42) 
["H-A:HIS:456:NE2:4070, V-A:GLU:543:CD:4908, V-A:HIS:456:CD2:4068, V-B:GLU:543:CD:9880, V-A:ASP:366:CG:3213, V-B:GLU:543:CB:9878, V-A:TYR:484:CZ:4347, V-B:GLU:543:C:9874, V-A:TYR:484:CE1:4345, V-B:HIS:456:CE1:9040, V-B:TYR:539:CE2:9848, V-A:HIS:456:CE1:4069, V-B:ARG:545:CG:9894, V-B:ARG:545:CA:9891, V-B:GLY:544:C:9884, V-A:ASP:366:CA:3210, V-A:ILE:369:CB:3236, V-A:ILE:369:CG2:3237, H-B:GLU:543:O:9875, H-A:GLU:543:OE1:4909, H-A:GLU:543:OE2:4910, V-A:ASP:366:CB:3212, V-A:ASP:366:C:3208, V-A:TYR:484:CG:4342, V-A:TYR:484:CE2:4346, V-A:HIS:456:CG:4066, V-A:TYR:484:CD1:4343, V-A:TYR:484:CD2:4344, V-B:GLY:544:CA:9886, V-A:HIS:456:CB:4065, V-A:ASP:473:CG:4240, V-A:ASP:473:CB:4239, H-B:TYR:539:OH:9850, H-B:GLY:544:O:9885, H-A:ASP:473:OD1:4241, V-B:ARG:545:CB:9893, H-A:ASP:366:O:3209"]

$$$$
RR16_Rahimova_2017
     RDKit          3D

 44 49  0  0  0  0  0  0  0  0999 V2000
  135.1170  124.1820   61.6420 O   0  0  0  0  0  0  0  0  0  0  0  0
  134.2250  123.0600   61.9550 S   0  0  0  0  0  0  0  0  0  0  0  0
  134.7680  121.7540   62.3500 O   0  0  0  0  0  0  0  0  0  0  0  0
  133.1690  122.8160   60.5620 N   0  0  0  0  0  0  0  0  0  0  0  0
  131.9860  121.9270   60.6500 C   0  0  0  0  0  0  0  0  0  0  0  0
  132.3420  120.6900   61.5150 C   0  0  0  0  0  0  0  0  0  0  0  0
  131.5090  119.4120   61.2970 C   0  0  0  0  0  0  0  0  0  0  0  0
  130.1840  119.6500   60.5510 C   0  0  0  0  0  0  0  0  0  0  0  0
  129.2180  120.6590   61.2030 C   0  0  0  0  0  0  0  0  0  0  0  0
  129.4010  122.1460   60.8400 C   0  0  0  0  0  0  0  0  0  0  0  0
  130.7810  122.7640   61.1410 C   0  0  0  0  0  0  0  0  0  0  0  0
  133.1280  123.6160   63.2540 C   0  0  0  0  0  0  0  0  0  0  0  0
  132.3330  122.6990   63.9460 C   0  0  0  0  0  0  0  0  0  0  0  0
  131.3970  123.1570   64.8680 C   0  0  0  0  0  0  0  0  0  0  0  0
  131.2600  124.5290   65.0940 C   0  0  0  0  0  0  0  0  0  0  0  0
  129.9610  125.1290   66.1730 S   0  0  0  0  0  0  0  0  0  0  0  0
  130.5960  125.9640   67.2010 O   0  0  0  0  0  0  0  0  0  0  0  0
  129.1410  123.9740   66.5590 O   0  0  0  0  0  0  0  0  0  0  0  0
  128.9820  126.1780   65.1300 N   0  0  0  0  0  0  0  0  0  0  0  0
  128.9340  127.6000   65.5590 C   0  0  0  0  0  0  0  0  0  0  0  0
  127.8290  128.3580   64.7950 C   0  0  0  0  0  0  0  0  0  0  0  0
  127.9750  128.1930   63.2620 C   0  0  0  0  0  0  0  0  0  0  0  0
  126.8600  128.9000   62.4860 C   0  0  0  0  0  0  0  0  0  0  0  0
  125.7690  129.4460   63.1780 C   0  0  0  0  0  0  0  0  0  0  0  0
  124.7350  130.1050   62.5120 C   0  0  0  0  0  0  0  0  0  0  0  0
  123.6780  130.6370   63.2060 O   0  0  0  0  0  0  0  0  0  0  0  0
  124.8100  130.2140   61.1150 C   0  0  0  0  0  0  0  0  0  0  0  0
  123.9720  130.8080   60.2160 N   0  0  0  0  0  0  0  0  0  0  0  0
  124.5290  130.6540   58.9660 N   0  0  0  0  0  0  0  0  0  0  0  0
  125.6650  129.9400   59.0910 N   0  0  0  0  0  0  0  0  0  0  0  0
  126.5110  129.6980   57.9290 C   0  0  0  0  0  0  0  0  0  0  0  0
  127.7560  130.5750   57.9160 C   0  0  0  0  0  0  0  0  0  0  0  0
  128.1070  131.2780   56.7590 C   0  0  0  0  0  0  0  0  0  0  0  0
  129.2350  132.1000   56.7510 C   0  0  0  0  0  0  0  0  0  0  0  0
  130.0160  132.2240   57.9010 C   0  0  0  0  0  0  0  0  0  0  0  0
  129.6700  131.5270   59.0580 C   0  0  0  0  0  0  0  0  0  0  0  0
  130.6290  131.6860   60.4850 Cl  0  0  0  0  0  0  0  0  0  0  0  0
  128.5440  130.7010   59.0650 C   0  0  0  0  0  0  0  0  0  0  0  0
  125.9100  129.6530   60.4240 C   0  0  0  0  0  0  0  0  0  0  0  0
  126.9450  128.9890   61.0890 C   0  0  0  0  0  0  0  0  0  0  0  0
  128.1500  126.7100   62.8440 C   0  0  0  0  0  0  0  0  0  0  0  0
  129.2370  126.0020   63.6770 C   0  0  0  0  0  0  0  0  0  0  0  0
  132.0850  125.4410   64.4330 C   0  0  0  0  0  0  0  0  0  0  0  0
  133.0180  124.9830   63.5090 C   0  0  0  0  0  0  0  0  0  0  0  0
  1  2  2  0
  2  3  2  0
  2  4  1  0
  4  5  1  0
  5  6  1  0
  6  7  1  0
  7  8  1  0
  8  9  1  0
  9 10  1  0
 10 11  1  0
  2 12  1  0
 12 13  2  0
 13 14  1  0
 14 15  2  0
 15 16  1  0
 16 17  2  0
 16 18  2  0
 16 19  1  0
 19 20  1  0
 20 21  1  0
 21 22  1  0
 22 23  1  0
 23 24  2  0
 24 25  1  0
 25 26  1  0
 25 27  2  0
 27 28  1  0
 28 29  2  0
 29 30  1  0
 30 31  1  0
 31 32  1  0
 32 33  2  0
 33 34  1  0
 34 35  2  0
 35 36  1  0
 36 37  1  0
 36 38  2  0
 30 39  1  0
 39 40  2  0
 22 41  1  0
 41 42  1  0
 15 43  1  0
 43 44  2  0
 11  5  1  0
 44 12  1  0
 42 19  1  0
 40 23  1  0
 39 27  1  0
 38 32  1  0
M  END
>  <Binding energies>  (43) 
[-7.78]

>  <Ligand effiencies>  (43) 
[-0.16208333333333333]

>  <Interactions>  (43) 
["H-A:HIS:456:NE2:4070, V-A:GLU:543:CD:4908, V-B:GLU:543:CD:9880, V-B:TYR:539:CD2:9846, V-A:LEU:475:CD1:4258, V-B:GLU:543:CB:9878, H-A:TYR:484:OH:4348, V-A:TYR:484:CZ:4347, V-A:TYR:484:CE1:4345, V-B:TYR:539:CE2:9848, V-A:HIS:456:CE1:4069, V-B:GLU:543:CG:9879, V-B:ARG:545:CZ:9898, V-A:PRO:540:C:4881, V-A:PRO:540:CA:4883, V-A:TYR:539:CZ:4877, V-A:TYR:539:CE2:4876, V-A:PRO:540:CB:4885, V-A:TYR:539:C:4867, V-A:ARG:545:CZ:4926, V-B:ALA:541:CB:9864, V-B:PRO:540:C:9853, V-A:ILE:369:CD1:3239, V-A:GLY:454:CA:4049, H-A:GLY:454:N:4050, V-A:TRP:381:CZ2:3370, V-B:ALA:541:CA:9862, V-A:PRO:482:CG:4327, V-A:TRP:381:CH2:3372, H-B:GLY:454:N:9021, H-B:ARG:545:NH2:9900, V-B:ASP:366:CG:8184, H-A:ASP:366:OD2:3215, V-A:PRO:540:N:4884, H-A:TYR:539:OH:4878, V-A:TYR:539:CE1:4875, V-A:TYR:539:CD1:4873, V-A:TYR:539:CG:4872"]

$$$$
RR18_Rahimova_2017
     RDKit          3D

 36 41  0  0  0  0  0  0  0  0999 V2000
  130.5240  127.2830   59.0690 C   0  0  0  0  0  0  0  0  0  0  0  0
  129.2420  127.8110   59.6630 C   0  0  0  0  0  0  0  0  0  0  0  0
  127.9370  127.3490   59.7070 C   0  0  0  0  0  0  0  0  0  0  0  0
  127.1980  128.2990   60.4110 C   0  0  0  0  0  0  0  0  0  0  0  0
  128.0780  129.3060   60.7720 C   0  0  0  0  0  0  0  0  0  0  0  0
  127.9300  130.6130   61.5470 C   0  0  1  0  0  0  0  0  0  0  0  0
  127.4560  131.7750   60.6240 C   0  0  0  0  0  0  0  0  0  0  0  0
  128.3090  132.2530   59.5410 C   0  0  0  0  0  0  0  0  0  0  0  0
  128.0130  133.2430   58.8690 O   0  0  0  0  0  0  0  0  0  0  0  0
  129.4390  131.5290   59.3640 N   0  0  0  0  0  0  0  0  0  0  0  0
  130.4770  131.6740   58.4190 C   0  0  0  0  0  0  0  0  0  0  0  0
  130.3040  132.2890   57.1650 C   0  0  0  0  0  0  0  0  0  0  0  0
  131.3700  132.3940   56.2740 C   0  0  0  0  0  0  0  0  0  0  0  0
  132.6190  131.8840   56.6150 C   0  0  0  0  0  0  0  0  0  0  0  0
  132.8020  131.2630   57.8480 C   0  0  0  0  0  0  0  0  0  0  0  0
  131.7420  131.1510   58.7540 C   0  0  0  0  0  0  0  0  0  0  0  0
  131.9940  130.4570   60.0900 C   0  0  0  0  0  0  0  0  0  0  0  0
  126.1960  132.2570   60.7870 C   0  0  0  0  0  0  0  0  0  0  0  0
  125.3430  131.8830   61.7810 N   0  0  0  0  0  0  0  0  0  0  0  0
  125.7500  131.0790   62.6920 C   0  0  0  0  0  0  0  0  0  0  0  0
  124.8250  130.6300   64.1050 S   0  0  0  0  0  0  0  0  0  0  0  0
  126.1580  129.6010   64.7160 C   0  0  0  0  0  0  0  0  0  0  0  0
  126.1740  128.8610   65.8790 C   0  0  0  0  0  0  0  0  0  0  0  0
  125.0420  128.9260   66.8150 C   0  0  0  0  0  0  0  0  0  0  0  0
  123.9850  129.5510   66.7370 O   0  0  0  0  0  0  0  0  0  0  0  0
  125.3500  128.1610   67.8670 N   0  0  0  0  0  0  0  0  0  0  0  0
  126.5590  127.5460   67.7410 C   0  0  0  0  0  0  0  0  0  0  0  0
  127.1720  126.6750   68.6400 C   0  0  0  0  0  0  0  0  0  0  0  0
  128.4070  126.1250   68.3070 C   0  0  0  0  0  0  0  0  0  0  0  0
  128.9980  126.4450   67.0860 C   0  0  0  0  0  0  0  0  0  0  0  0
  128.3630  127.3210   66.2010 C   0  0  0  0  0  0  0  0  0  0  0  0
  127.1260  127.9060   66.5310 C   0  0  0  0  0  0  0  0  0  0  0  0
  127.2660  129.6850   63.7640 C   0  0  0  0  0  0  0  0  0  0  0  0
  128.3670  129.1540   63.8760 O   0  0  0  0  0  0  0  0  0  0  0  0
  126.9610  130.4650   62.6910 N   0  0  0  0  0  0  0  0  0  0  0  0
  129.3210  129.0020   60.3120 O   0  0  0  0  0  0  0  0  0  0  0  0
  1  2  1  0
  2  3  2  0
  3  4  1  0
  4  5  2  0
  6  5  1  6
  6  7  1  0
  7  8  1  0
  8  9  2  0
  8 10  1  0
 10 11  1  0
 11 12  2  0
 12 13  1  0
 13 14  2  0
 14 15  1  0
 15 16  2  0
 16 17  1  0
  7 18  2  0
 18 19  1  0
 19 20  2  0
 20 21  1  0
 21 22  1  0
 22 23  2  0
 23 24  1  0
 24 25  2  0
 24 26  1  0
 26 27  1  0
 27 28  2  0
 28 29  1  0
 29 30  2  0
 30 31  1  0
 31 32  2  0
 22 33  1  0
 33 34  2  0
 33 35  1  0
  5 36  1  0
 36  2  1  0
 35  6  1  0
 16 11  1  0
 35 20  1  0
 32 23  1  0
 32 27  1  0
M  END
>  <Binding energies>  (44) 
[-8.2]

>  <Ligand effiencies>  (44) 
[-0.2157894736842105]

>  <Interactions>  (44) 
["V-B:GLU:543:CB:9878, V-B:GLU:543:C:9874, V-B:HIS:456:CE1:9040, V-B:ARG:545:CD:9895, H-B:TYR:484:OH:9319, V-B:ARG:545:CG:9894, V-A:PRO:540:CA:4883, V-A:TYR:539:CE2:4876, V-A:PRO:540:CB:4885, V-A:TYR:539:C:4867, V-B:ARG:545:CA:9891, V-B:GLY:544:C:9884, H-B:ARG:545:NE:9896, V-A:PRO:540:N:4884, V-A:PRO:540:CD:4887, V-A:LEU:363:CD1:3189, V-B:ARG:545:CB:9893, H-B:HIS:456:ND1:9038, V-A:PRO:540:CG:4886, H-B:ILE:455:O:9024"]

$$$$
RR20_Rahimova_2017
     RDKit          3D

 38 43  0  0  0  0  0  0  0  0999 V2000
  127.2500  122.7370   58.8050 C   0  0  0  0  0  0  0  0  0  0  0  0
  128.5740  122.5610   59.5270 C   0  0  0  0  0  0  0  0  0  0  0  0
  129.5720  123.5260   59.3920 C   0  0  0  0  0  0  0  0  0  0  0  0
  130.7840  123.3710   60.0610 C   0  0  0  0  0  0  0  0  0  0  0  0
  131.0120  122.2440   60.8590 C   0  0  0  0  0  0  0  0  0  0  0  0
  132.3270  122.1050   61.5930 C   0  0  0  0  0  0  0  0  0  0  0  0
  133.0870  121.2020   61.2370 O   0  0  0  0  0  0  0  0  0  0  0  0
  132.6260  122.9770   62.6000 N   0  0  0  0  0  0  0  0  0  0  0  0
  133.8530  123.7900   62.5760 C   0  0  0  0  0  0  0  0  0  0  0  0
  133.7640  124.7350   63.7620 C   0  0  0  0  0  0  0  0  0  0  0  0
  132.3200  124.6460   64.1520 C   0  0  0  0  0  0  0  0  0  0  0  0
  131.6270  125.3620   65.1290 C   0  0  0  0  0  0  0  0  0  0  0  0
  130.3100  125.0230   65.4620 C   0  0  0  0  0  0  0  0  0  0  0  0
  129.5600  125.8000   66.5080 C   0  0  0  0  0  0  0  0  0  0  0  0
  129.4770  125.2940   67.7280 N   0  0  0  0  0  0  0  0  0  0  0  0
  128.8210  126.0620   68.5600 C   0  0  0  0  0  0  0  0  0  0  0  0
  128.5570  125.8380   69.9030 N   0  0  0  0  0  0  0  0  0  0  0  0
  128.8720  126.6490   70.9420 C   0  0  0  0  0  0  0  0  0  0  0  0
  129.4350  127.7380   70.8190 O   0  0  0  0  0  0  0  0  0  0  0  0
  128.4770  126.1920   72.3660 C   0  0  0  0  0  0  0  0  0  0  0  0
  129.5350  125.4110   73.0340 N   0  0  0  0  0  0  0  0  0  0  0  0
  130.1120  124.3810   72.1570 C   0  0  0  0  0  0  0  0  0  0  0  0
  131.0120  123.4280   72.9750 C   0  0  0  0  0  0  0  0  0  0  0  0
  131.9570  124.1660   73.9240 C   0  0  0  0  0  0  0  0  0  0  0  0
  133.0210  123.5020   74.5430 C   0  0  0  0  0  0  0  0  0  0  0  0
  133.8580  124.1650   75.4370 C   0  0  0  0  0  0  0  0  0  0  0  0
  133.6400  125.5090   75.7220 C   0  0  0  0  0  0  0  0  0  0  0  0
  132.5890  126.1850   75.1060 C   0  0  0  0  0  0  0  0  0  0  0  0
  131.7400  125.5310   74.2070 C   0  0  0  0  0  0  0  0  0  0  0  0
  130.6230  126.2870   73.4870 C   0  0  0  0  0  0  0  0  0  0  0  0
  128.2240  127.5180   67.8640 S   0  0  0  0  0  0  0  0  0  0  0  0
  128.9110  127.0410   66.3300 C   0  0  0  0  0  0  0  0  0  0  0  0
  128.7280  127.9100   65.1050 C   0  0  0  0  0  0  0  0  0  0  0  0
  129.7240  123.9140   64.8320 C   0  0  0  0  0  0  0  0  0  0  0  0
  130.4210  123.1850   63.8690 C   0  0  0  0  0  0  0  0  0  0  0  0
  131.7070  123.5870   63.4830 C   0  0  0  0  0  0  0  0  0  0  0  0
  129.9940  121.2940   61.0130 C   0  0  0  0  0  0  0  0  0  0  0  0
  128.7810  121.4490   60.3450 C   0  0  0  0  0  0  0  0  0  0  0  0
  1  2  1  0
  2  3  2  0
  3  4  1  0
  4  5  2  0
  5  6  1  0
  6  7  2  0
  6  8  1  0
  8  9  1  0
  9 10  1  0
 10 11  1  0
 11 12  2  0
 12 13  1  0
 13 14  1  0
 14 15  1  0
 15 16  2  0
 16 17  1  0
 17 18  1  0
 18 19  2  0
 18 20  1  0
 20 21  1  0
 21 22  1  0
 22 23  1  0
 23 24  1  0
 24 25  2  0
 25 26  1  0
 26 27  2  0
 27 28  1  0
 28 29  2  0
 29 30  1  0
 16 31  1  0
 31 32  1  0
 32 33  1  0
 13 34  2  0
 34 35  1  0
 35 36  2  0
  5 37  1  0
 37 38  2  0
 38  2  1  0
 36  8  1  0
 36 11  1  0
 32 14  2  0
 30 21  1  0
 29 24  1  0
M  END
>  <Binding energies>  (45) 
[-10.73]

>  <Ligand effiencies>  (45) 
[-0.2751282051282051]

>  <Interactions>  (45) 
["H-A:HIS:456:NE2:4070, V-A:GLU:543:CD:4908, V-A:HIS:456:CD2:4068, V-B:TYR:539:CD2:9846, V-A:LEU:475:CD1:4258, V-B:GLU:543:CB:9878, H-B:HIS:456:NE2:9041, H-A:TYR:484:OH:4348, V-B:GLU:543:C:9874, V-B:HIS:456:CE1:9040, V-B:TYR:539:CE2:9848, V-A:HIS:456:CE1:4069, V-B:GLU:543:CG:9879, V-A:ARG:545:CZ:4926, V-B:PRO:540:CA:9855, V-B:ALA:541:CB:9864, H-B:LYS:547:NZ:9923, V-B:TYR:539:C:9839, V-B:PRO:540:C:9853, V-B:PRO:540:N:9856, V-A:GLY:453:CA:4044, V-A:GLY:454:CA:4049, H-B:GLU:543:O:9875, V-A:HIS:456:CG:4066, V-A:HIS:456:CB:4065, V-A:ASP:473:CG:4240, V-A:ASP:473:CB:4239, H-B:GLY:544:O:9885, V-A:LYS:471:CD:4219, V-A:VAL:458:CG2:4087, V-A:LYS:547:CD:4949"]

$$$$
RR21_Rahimova_2017
     RDKit          3D

 40 45  0  0  0  0  0  0  0  0999 V2000
  129.1800  132.6270   59.8790 C   0  0  0  0  0  0  0  0  0  0  0  0
  130.1830  132.1180   60.7540 O   0  0  0  0  0  0  0  0  0  0  0  0
  130.0980  130.8090   61.1890 C   0  0  0  0  0  0  0  0  0  0  0  0
  131.0850  129.8340   60.9590 C   0  0  0  0  0  0  0  0  0  0  0  0
  130.9230  128.5340   61.4350 C   0  0  0  0  0  0  0  0  0  0  0  0
  129.7780  128.1740   62.1550 C   0  0  0  0  0  0  0  0  0  0  0  0
  129.6090  126.7780   62.6700 C   0  0  0  0  0  0  0  0  0  0  0  0
  129.6460  125.7610   61.8310 N   0  0  0  0  0  0  0  0  0  0  0  0
  129.4710  124.6510   62.5640 N   0  0  0  0  0  0  0  0  0  0  0  0
  129.4780  123.3620   61.9700 C   0  0  0  0  0  0  0  0  0  0  0  0
  128.6390  123.0680   60.8840 C   0  0  0  0  0  0  0  0  0  0  0  0
  128.6590  121.8010   60.3060 C   0  0  0  0  0  0  0  0  0  0  0  0
  129.5130  120.8240   60.8120 C   0  0  0  0  0  0  0  0  0  0  0  0
  130.3480  121.1020   61.8920 C   0  0  0  0  0  0  0  0  0  0  0  0
  130.3310  122.3680   62.4720 C   0  0  0  0  0  0  0  0  0  0  0  0
  129.3370  124.9750   63.8910 C   0  0  0  0  0  0  0  0  0  0  0  0
  129.4060  126.3550   64.0040 C   0  0  0  0  0  0  0  0  0  0  0  0
  129.3610  127.1610   65.2140 C   0  0  0  0  0  0  0  0  0  0  0  0
  129.3690  126.7420   66.5000 C   0  0  0  0  0  0  0  0  0  0  0  0
  129.4280  125.0710   67.1040 S   0  0  0  0  0  0  0  0  0  0  0  0
  129.4270  125.6810   68.7520 C   0  0  0  0  0  0  0  0  0  0  0  0
  129.4800  124.9980   69.8530 N   0  0  0  0  0  0  0  0  0  0  0  0
  129.4850  125.6200   71.1320 C   0  0  0  0  0  0  0  0  0  0  0  0
  129.5530  125.0460   72.2190 O   0  0  0  0  0  0  0  0  0  0  0  0
  129.4050  127.1210   71.0780 C   0  0  0  0  0  0  0  0  0  0  0  0
  129.3830  127.9010   72.3980 C   0  0  0  0  0  0  0  0  0  0  0  0
  128.0200  127.9350   73.0860 C   0  0  0  0  0  0  0  0  0  0  0  0
  126.9350  127.2560   72.5250 C   0  0  0  0  0  0  0  0  0  0  0  0
  125.6970  127.2730   73.1620 C   0  0  0  0  0  0  0  0  0  0  0  0
  125.5400  127.9670   74.3620 C   0  0  0  0  0  0  0  0  0  0  0  0
  124.1910  127.9730   75.0580 C   0  0  0  0  0  0  0  0  0  0  0  0
  126.6250  128.6380   74.9310 C   0  0  0  0  0  0  0  0  0  0  0  0
  127.8630  128.6210   74.2950 C   0  0  0  0  0  0  0  0  0  0  0  0
  129.3470  127.7890   69.9720 N   0  0  0  0  0  0  0  0  0  0  0  0
  129.3620  127.0490   68.7830 N   0  0  0  0  0  0  0  0  0  0  0  0
  129.3220  127.7010   67.5950 C   0  0  0  0  0  0  0  0  0  0  0  0
  129.2610  128.9300   67.4680 O   0  0  0  0  0  0  0  0  0  0  0  0
  128.7920  129.1410   62.3780 C   0  0  0  0  0  0  0  0  0  0  0  0
  128.9510  130.4430   61.9020 C   0  0  0  0  0  0  0  0  0  0  0  0
  127.9800  131.3560   62.1360 F   0  0  0  0  0  0  0  0  0  0  0  0
  1  2  1  0
  2  3  1  0
  3  4  2  0
  4  5  1  0
  5  6  2  0
  6  7  1  0
  7  8  2  0
  8  9  1  0
  9 10  1  0
 10 11  2  0
 11 12  1  0
 12 13  2  0
 13 14  1  0
 14 15  2  0
  9 16  1  0
 16 17  2  0
 17 18  1  0
 18 19  2  0
 19 20  1  0
 20 21  1  0
 21 22  2  0
 22 23  1  0
 23 24  2  0
 23 25  1  0
 25 26  1  0
 26 27  1  0
 27 28  2  0
 28 29  1  0
 29 30  2  0
 30 31  1  0
 30 32  1  0
 32 33  2  0
 25 34  2  0
 34 35  1  0
 35 36  1  0
 36 37  2  0
  6 38  1  0
 38 39  2  0
 39 40  1  0
 39  3  1  0
 17  7  1  0
 36 19  1  0
 15 10  1  0
 35 21  1  0
 33 27  1  0
M  END
>  <Binding energies>  (46) 
[-9.53]

>  <Ligand effiencies>  (46) 
[-0.23825]

>  <Interactions>  (46) 
["H-A:HIS:456:NE2:4070, V-B:GLU:543:CA:9876, V-A:GLU:543:CD:4908, V-A:HIS:456:CD2:4068, V-B:GLU:543:CD:9880, V-B:TYR:539:CD2:9846, V-A:LEU:475:CD1:4258, V-B:GLU:543:CB:9878, H-B:HIS:456:NE2:9041, V-B:GLU:543:C:9874, V-A:TYR:484:CE1:4345, V-B:HIS:456:CE1:9040, V-B:TYR:539:CE2:9848, V-A:HIS:456:CE1:4069, V-B:GLU:543:CG:9879, V-A:PRO:540:C:4881, V-A:PRO:540:CA:4883, V-A:TYR:539:C:4867, V-B:PRO:540:CA:9855, V-B:GLY:544:C:9884, V-B:ALA:541:CB:9864, H-B:LYS:547:NZ:9923, V-B:TYR:539:C:9839, H-A:ALA:541:N:4891, V-A:PRO:540:N:4884, V-B:HIS:456:CD2:9039, V-B:HIS:456:CG:9037, V-B:HIS:456:CB:9036, V-B:VAL:458:CG2:9058, V-B:HIS:456:CA:9034, V-B:VAL:457:C:9044, V-B:HIS:456:C:9032, V-B:VAL:457:CA:9046"]

$$$$
RR23_Rahimova_2017
     RDKit          3D

 39 44  0  0  0  0  0  0  0  0999 V2000
  133.1860  119.4130   60.8380 C   0  0  0  0  0  0  0  0  0  0  0  0
  131.9730  120.3090   61.0070 C   0  0  0  0  0  0  0  0  0  0  0  0
  132.1390  121.6840   61.1770 C   0  0  0  0  0  0  0  0  0  0  0  0
  131.0250  122.5070   61.3230 C   0  0  0  0  0  0  0  0  0  0  0  0
  129.7370  121.9600   61.3120 C   0  0  0  0  0  0  0  0  0  0  0  0
  128.5400  122.8730   61.4510 C   0  0  0  0  0  0  0  0  0  0  0  0
  127.4210  122.3750   61.3040 O   0  0  0  0  0  0  0  0  0  0  0  0
  128.7340  124.1930   61.7450 N   0  0  0  0  0  0  0  0  0  0  0  0
  128.1820  125.2610   60.8940 C   0  0  0  0  0  0  0  0  0  0  0  0
  128.4730  126.5700   61.6090 C   0  0  0  0  0  0  0  0  0  0  0  0
  128.8350  126.1220   62.9930 C   0  0  0  0  0  0  0  0  0  0  0  0
  129.1170  126.8930   64.1210 C   0  0  0  0  0  0  0  0  0  0  0  0
  129.5950  126.2870   65.2920 C   0  0  0  0  0  0  0  0  0  0  0  0
  129.9170  127.0980   66.5570 C   0  0  2  0  0  0  0  0  0  0  0  0
  129.8440  126.2920   67.7560 N   0  0  0  0  0  0  0  0  0  0  0  0
  129.4610  126.9720   68.7610 C   0  0  0  0  0  0  0  0  0  0  0  0
  129.2550  126.5420   70.0350 N   0  0  0  0  0  0  0  0  0  0  0  0
  129.2710  125.2720   70.5080 C   0  0  0  0  0  0  0  0  0  0  0  0
  129.5240  124.2640   69.8450 O   0  0  0  0  0  0  0  0  0  0  0  0
  128.9350  125.1170   72.0010 C   0  0  0  0  0  0  0  0  0  0  0  0
  130.1750  125.2730   72.7950 N   0  0  0  0  0  0  0  0  0  0  0  0
  130.4770  126.5730   73.1790 N   0  0  0  0  0  0  0  0  0  0  0  0
  131.5350  126.8440   73.8760 N   0  0  0  0  0  0  0  0  0  0  0  0
  132.3970  125.8130   74.2570 C   0  0  0  0  0  0  0  0  0  0  0  0
  133.5300  126.1390   75.0070 C   0  0  0  0  0  0  0  0  0  0  0  0
  134.4110  125.1320   75.4030 C   0  0  0  0  0  0  0  0  0  0  0  0
  134.1630  123.8030   75.0510 C   0  0  0  0  0  0  0  0  0  0  0  0
  133.0310  123.4750   74.3010 C   0  0  0  0  0  0  0  0  0  0  0  0
  132.1470  124.4860   73.9060 C   0  0  0  0  0  0  0  0  0  0  0  0
  130.9190  124.1520   73.0910 C   0  0  0  0  0  0  0  0  0  0  0  0
  130.6270  123.0100   72.7260 O   0  0  0  0  0  0  0  0  0  0  0  0
  129.1320  128.7070   68.4880 S   0  0  0  0  0  0  0  0  0  0  0  0
  129.0800  128.3890   66.7160 C   0  0  2  0  0  0  0  0  0  0  0  0
  127.6070  128.3180   66.2610 C   0  0  0  0  0  0  0  0  0  0  0  0
  129.8300  124.9070   65.2920 C   0  0  0  0  0  0  0  0  0  0  0  0
  129.5690  124.1380   64.1570 C   0  0  0  0  0  0  0  0  0  0  0  0
  129.0150  124.7380   63.0180 C   0  0  0  0  0  0  0  0  0  0  0  0
  129.5760  120.5820   61.1120 C   0  0  0  0  0  0  0  0  0  0  0  0
  130.6900  119.7600   60.9650 C   0  0  0  0  0  0  0  0  0  0  0  0
  1  2  1  0
  2  3  2  0
  3  4  1  0
  4  5  2  0
  5  6  1  0
  6  7  2  0
  6  8  1  0
  8  9  1  0
  9 10  1  0
 10 11  1  0
 11 12  2  0
 12 13  1  0
 14 13  1  6
 14 15  1  0
 15 16  2  0
 16 17  1  0
 17 18  1  0
 18 19  2  0
 18 20  1  0
 20 21  1  0
 21 22  1  0
 22 23  2  0
 23 24  1  0
 24 25  2  0
 25 26  1  0
 26 27  2  0
 27 28  1  0
 28 29  2  0
 29 30  1  0
 30 31  2  0
 16 32  1  0
 32 33  1  0
 33 34  1  1
 13 35  2  0
 35 36  1  0
 36 37  2  0
  5 38  1  0
 38 39  2  0
 39  2  1  0
 37  8  1  0
 37 11  1  0
 33 14  1  0
 30 21  1  0
 29 24  1  0
M  END
>  <Binding energies>  (47) 
[-10.85]

>  <Ligand effiencies>  (47) 
[-0.27125]

>  <Interactions>  (47) 
["H-A:HIS:456:NE2:4070, V-A:GLU:543:CD:4908, V-A:HIS:456:CD2:4068, V-B:GLU:543:CD:9880, V-B:TYR:539:CD2:9846, V-A:LEU:475:CD1:4258, H-B:ALA:541:N:9863, V-B:GLU:543:CB:9878, H-B:HIS:456:NE2:9041, V-B:HIS:456:CE1:9040, V-A:HIS:456:CE1:4069, V-B:GLU:543:CG:9879, V-A:GLU:543:CB:4906, V-B:ALA:541:CB:9864, H-B:LYS:547:NZ:9923, V-A:GLU:543:CG:4907, V-A:ILE:369:CG2:3237, V-A:TRP:381:CZ2:3370, V-A:PRO:482:CG:4327, V-A:TRP:381:CH2:3372, V-A:HIS:456:CG:4066, V-A:HIS:456:CB:4065, V-A:ASP:473:CG:4240, V-A:ASP:473:CB:4239, H-A:LYS:547:NZ:4951, V-A:VAL:458:CG2:4087, V-A:LYS:547:CD:4949, V-A:HIS:456:C:4061"]

$$$$
RR26_Rahimova_2017
     RDKit          3D

 38 44  0  0  0  0  0  0  0  0999 V2000
  129.7020  120.8210   60.5740 C   0  0  0  0  0  0  0  0  0  0  0  0
  131.2010  120.6520   60.7890 C   0  0  0  0  0  0  0  0  0  0  0  0
  131.8820  119.7180   60.0010 C   0  0  0  0  0  0  0  0  0  0  0  0
  133.2590  119.5500   60.1270 C   0  0  0  0  0  0  0  0  0  0  0  0
  133.9710  120.3220   61.0410 C   0  0  0  0  0  0  0  0  0  0  0  0
  133.3040  121.2560   61.8310 C   0  0  0  0  0  0  0  0  0  0  0  0
  131.9160  121.4330   61.7240 C   0  0  0  0  0  0  0  0  0  0  0  0
  131.2740  122.4490   62.6230 C   0  0  0  0  0  0  0  0  0  0  0  0
  130.9620  122.1830   63.8890 N   0  0  0  0  0  0  0  0  0  0  0  0
  130.4530  123.3180   64.2860 C   0  0  0  0  0  0  0  0  0  0  0  0
  129.7750  123.9240   65.7520 S   0  0  0  0  0  0  0  0  0  0  0  0
  129.5100  125.5150   64.9440 C   0  0  0  0  0  0  0  0  0  0  0  0
  128.9600  126.6300   65.4740 C   0  0  0  0  0  0  0  0  0  0  0  0
  128.4540  126.8270   66.8220 C   0  0  0  0  0  0  0  0  0  0  0  0
  128.9770  126.3460   68.0130 C   0  0  0  0  0  0  0  0  0  0  0  0
  128.1960  126.8150   69.0380 N   0  0  0  0  0  0  0  0  0  0  0  0
  128.3480  126.5910   70.4310 C   0  0  0  0  0  0  0  0  0  0  0  0
  127.5280  127.2500   71.3580 C   0  0  0  0  0  0  0  0  0  0  0  0
  127.6900  127.0230   72.7220 C   0  0  0  0  0  0  0  0  0  0  0  0
  128.6670  126.1350   73.1630 C   0  0  0  0  0  0  0  0  0  0  0  0
  129.4860  125.4710   72.2520 C   0  0  0  0  0  0  0  0  0  0  0  0
  129.3290  125.6980   70.8880 C   0  0  0  0  0  0  0  0  0  0  0  0
  127.2160  127.5950   68.5570 N   0  0  0  0  0  0  0  0  0  0  0  0
  127.3530  127.6060   67.2450 C   0  0  0  0  0  0  0  0  0  0  0  0
  126.3950  128.3900   66.4020 C   0  0  0  0  0  0  0  0  0  0  0  0
  125.1440  128.7690   66.9140 C   0  0  0  0  0  0  0  0  0  0  0  0
  124.2430  129.4960   66.1350 C   0  0  0  0  0  0  0  0  0  0  0  0
  124.5860  129.8490   64.8320 C   0  0  0  0  0  0  0  0  0  0  0  0
  125.8400  129.4920   64.3150 C   0  0  0  0  0  0  0  0  0  0  0  0
  126.7360  128.7600   65.0930 C   0  0  0  0  0  0  0  0  0  0  0  0
  126.2050  129.7810   63.0150 O   0  0  0  0  0  0  0  0  0  0  0  0
  125.4300  130.8200   62.4070 C   0  0  0  0  0  0  0  0  0  0  0  0
  123.9240  130.6170   62.7010 C   0  0  0  0  0  0  0  0  0  0  0  0
  123.6850  130.6090   64.1130 O   0  0  0  0  0  0  0  0  0  0  0  0
  129.9550  125.5120   63.5540 C   0  0  0  0  0  0  0  0  0  0  0  0
  129.9160  126.4220   62.7230 O   0  0  0  0  0  0  0  0  0  0  0  0
  130.4660  124.2310   63.2980 N   0  0  0  0  0  0  0  0  0  0  0  0
  131.0040  123.6770   62.2080 N   0  0  0  0  0  0  0  0  0  0  0  0
  1  2  1  0
  2  3  2  0
  3  4  1  0
  4  5  2  0
  5  6  1  0
  6  7  2  0
  7  8  1  0
  8  9  1  0
  9 10  2  0
 10 11  1  0
 11 12  1  0
 12 13  2  0
 13 14  1  0
 14 15  2  0
 15 16  1  0
 16 17  1  0
 17 18  2  0
 18 19  1  0
 19 20  2  0
 20 21  1  0
 21 22  2  0
 16 23  1  0
 23 24  2  0
 24 25  1  0
 25 26  2  0
 26 27  1  0
 27 28  2  0
 28 29  1  0
 29 30  2  0
 29 31  1  0
 31 32  1  0
 32 33  1  0
 33 34  1  0
 12 35  1  0
 35 36  2  0
 35 37  1  0
 37 38  1  0
  7  2  1  0
 38  8  2  0
 37 10  1  0
 24 14  1  0
 30 25  1  0
 22 17  1  0
 34 28  1  0
M  END
>  <Binding energies>  (48) 
[-9.92]

>  <Ligand effiencies>  (48) 
[-0.26105263157894737]

>  <Interactions>  (48) 
["V-B:GLU:543:CA:9876, V-A:HIS:456:CD2:4068, V-B:GLU:543:CD:9880, V-B:TYR:539:CD2:9846, V-A:LEU:475:CD1:4258, V-B:GLU:543:CB:9878, H-B:HIS:456:NE2:9041, V-A:TYR:484:CZ:4347, V-A:TYR:484:CE1:4345, V-B:HIS:456:CE1:9040, V-B:TYR:539:CE2:9848, V-A:HIS:456:CE1:4069, V-B:GLU:543:CG:9879, V-B:ARG:545:CD:9895, V-B:ARG:545:CZ:9898, V-B:ARG:545:CG:9894, V-B:ALA:541:CB:9864, V-A:ILE:369:CD1:3239, V-A:ILE:369:CG2:3237, V-A:TRP:381:CZ2:3370, V-A:TRP:381:CH2:3372, H-B:GLY:454:N:9021, H-B:ARG:545:NH2:9900, V-B:HIS:456:CD2:9039, V-B:HIS:456:CG:9037, V-A:TRP:381:CZ3:3371"]

$$$$
RR2_Rahimova_2017
     RDKit          3D

 46 50  0  0  0  0  0  0  0  0999 V2000
  128.6280  126.2090   70.1580 C   0  0  0  0  0  0  0  0  0  0  0  0
  127.4550  126.0580   69.3660 O   0  0  0  0  0  0  0  0  0  0  0  0
  127.3100  126.8220   68.2230 C   0  0  0  0  0  0  0  0  0  0  0  0
  126.1120  127.4270   67.8220 C   0  0  0  0  0  0  0  0  0  0  0  0
  126.0600  128.1770   66.6510 C   0  0  0  0  0  0  0  0  0  0  0  0
  127.2000  128.3360   65.8510 C   0  0  0  0  0  0  0  0  0  0  0  0
  127.1160  129.1520   64.5760 C   0  0  0  0  0  0  0  0  0  0  0  0
  127.3550  128.6260   63.4830 O   0  0  0  0  0  0  0  0  0  0  0  0
  126.7840  130.4550   64.7300 N   0  0  0  0  0  0  0  0  0  0  0  0
  126.7820  131.2690   63.6030 N   0  0  0  0  0  0  0  0  0  0  0  0
  127.3690  132.4800   63.6900 C   0  0  0  0  0  0  0  0  0  0  0  0
  127.7530  133.0040   64.7400 O   0  0  0  0  0  0  0  0  0  0  0  0
  127.5730  133.2140   62.3580 C   0  0  0  0  0  0  0  0  0  0  0  0
  126.0680  133.3880   61.3310 S   0  0  0  0  0  0  0  0  0  0  0  0
  125.7120  131.6920   60.9850 C   0  0  0  0  0  0  0  0  0  0  0  0
  124.8480  130.9890   61.6740 N   0  0  0  0  0  0  0  0  0  0  0  0
  124.8770  129.6920   61.1800 N   0  0  0  0  0  0  0  0  0  0  0  0
  125.7370  129.6670   60.1890 C   0  0  0  0  0  0  0  0  0  0  0  0
  126.0330  128.4400   59.3890 C   0  0  0  0  0  0  0  0  0  0  0  0
  125.6260  128.3660   58.0550 C   0  0  0  0  0  0  0  0  0  0  0  0
  125.8890  127.2250   57.3040 C   0  0  0  0  0  0  0  0  0  0  0  0
  126.5800  126.1500   57.8770 C   0  0  0  0  0  0  0  0  0  0  0  0
  126.8640  124.9720   57.1710 N   0  0  0  0  0  0  0  0  0  0  0  0
  126.3760  123.3410   57.6860 S   0  0  0  0  0  0  0  0  0  0  0  0
  126.9250  122.4210   56.6830 O   0  0  0  0  0  0  0  0  0  0  0  0
  124.9380  123.3670   57.9760 O   0  0  0  0  0  0  0  0  0  0  0  0
  127.2730  123.0420   59.2070 C   0  0  0  0  0  0  0  0  0  0  0  0
  126.6920  123.3300   60.4440 C   0  0  0  0  0  0  0  0  0  0  0  0
  127.4110  123.1050   61.6140 C   0  0  0  0  0  0  0  0  0  0  0  0
  128.7070  122.5860   61.5480 C   0  0  0  0  0  0  0  0  0  0  0  0
  129.4950  122.3550   62.8250 C   0  0  0  0  0  0  0  0  0  0  0  0
  129.2860  122.3030   60.3100 C   0  0  0  0  0  0  0  0  0  0  0  0
  128.5690  122.5290   59.1390 C   0  0  0  0  0  0  0  0  0  0  0  0
  126.9880  126.2270   59.2090 C   0  0  0  0  0  0  0  0  0  0  0  0
  126.7190  127.3650   59.9620 C   0  0  0  0  0  0  0  0  0  0  0  0
  126.3130  130.9140   60.0130 N   0  0  0  0  0  0  0  0  0  0  0  0
  127.3100  131.2960   59.0920 C   0  0  0  0  0  0  0  0  0  0  0  0
  127.1280  131.0580   57.7290 C   0  0  0  0  0  0  0  0  0  0  0  0
  128.1140  131.4430   56.8250 C   0  0  0  0  0  0  0  0  0  0  0  0
  129.2830  132.0620   57.2690 C   0  0  0  0  0  0  0  0  0  0  0  0
  130.2040  132.4060   56.2970 O   0  0  0  0  0  0  0  0  0  0  0  0
  131.5500  131.9600   56.4270 C   0  0  0  0  0  0  0  0  0  0  0  0
  129.4580  132.2980   58.6420 C   0  0  0  0  0  0  0  0  0  0  0  0
  128.4740  131.9180   59.5500 C   0  0  0  0  0  0  0  0  0  0  0  0
  128.3990  127.7320   66.2620 C   0  0  0  0  0  0  0  0  0  0  0  0
  128.4480  126.9840   67.4350 C   0  0  0  0  0  0  0  0  0  0  0  0
  1  2  1  0
  2  3  1  0
  3  4  2  0
  4  5  1  0
  5  6  2  0
  6  7  1  0
  7  8  2  0
  7  9  1  0
  9 10  1  0
 10 11  1  0
 11 12  2  0
 11 13  1  0
 13 14  1  0
 14 15  1  0
 15 16  2  0
 16 17  1  0
 17 18  2  0
 18 19  1  0
 19 20  2  0
 20 21  1  0
 21 22  2  0
 22 23  1  0
 23 24  1  0
 24 25  2  0
 24 26  2  0
 24 27  1  0
 27 28  2  0
 28 29  1  0
 29 30  2  0
 30 31  1  0
 30 32  1  0
 32 33  2  0
 22 34  1  0
 34 35  2  0
 18 36  1  0
 36 37  1  0
 37 38  2  0
 38 39  1  0
 39 40  2  0
 40 41  1  0
 41 42  1  0
 40 43  1  0
 43 44  2  0
  6 45  1  0
 45 46  2  0
 46  3  1  0
 36 15  1  0
 44 37  1  0
 35 19  1  0
 33 27  1  0
M  END
>  <Binding energies>  (49) 
[-9.08]

>  <Ligand effiencies>  (49) 
[-0.1853061224489796]

>  <Interactions>  (49) 
["V-A:GLU:543:CD:4908, V-B:GLU:543:CD:9880, V-B:TYR:539:CD2:9846, V-B:GLU:543:CB:9878, V-B:HIS:456:CE1:9040, V-B:TYR:539:CE2:9848, V-B:GLU:543:CG:9879, H-B:TYR:484:OH:9319, V-B:ARG:545:CG:9894, V-A:ALA:541:CB:4892, V-A:PRO:540:CA:4883, V-A:TYR:539:CZ:4877, V-A:TYR:539:CE2:4876, V-A:TYR:539:C:4867, V-B:ARG:545:CA:9891, V-B:PRO:540:CA:9855, V-B:ALA:541:CB:9864, V-B:PRO:540:N:9856, V-B:LEU:475:CD1:9229, H-B:ARG:545:NH2:9900, V-B:ASP:366:CG:8184, V-A:PRO:540:N:4884, V-B:ASP:366:CB:8183, H-A:TYR:539:N:4870, V-A:PRO:540:CD:4887, V-A:TYR:539:CE1:4875, V-A:TYR:539:CD1:4873, H-B:TYR:539:N:9842"]

$$$$
RR33_Rahimova_2017
     RDKit          3D

 18 19  0  0  0  0  0  0  0  0999 V2000
  125.9480  126.8650   74.1670 C   0  0  0  0  0  0  0  0  0  0  0  0
  127.4670  127.0370   74.0750 C   0  0  0  0  0  0  0  0  0  0  0  0
  128.0280  125.8590   73.5020 O   0  0  0  0  0  0  0  0  0  0  0  0
  128.3430  125.8440   72.1570 C   0  0  0  0  0  0  0  0  0  0  0  0
  127.7110  126.7970   71.3600 C   0  0  0  0  0  0  0  0  0  0  0  0
  127.9640  126.8560   69.9920 C   0  0  0  0  0  0  0  0  0  0  0  0
  128.8560  125.9580   69.3990 C   0  0  0  0  0  0  0  0  0  0  0  0
  129.1260  126.0210   67.9300 C   0  0  0  0  0  0  0  0  0  0  0  0
  129.7930  125.1570   67.1980 N   0  0  0  0  0  0  0  0  0  0  0  0
  129.7600  125.6430   65.9670 C   0  0  0  0  0  0  0  0  0  0  0  0
  130.4230  124.9060   64.8230 C   0  0  0  0  0  0  0  0  0  0  0  0
  130.8310  123.5720   65.2380 N   0  0  0  0  0  0  0  0  0  0  0  0
  129.8220  122.5910   64.8760 C   0  0  0  0  0  0  0  0  0  0  0  0
  129.0520  126.8380   65.9550 C   0  0  0  0  0  0  0  0  0  0  0  0
  128.6660  127.8460   64.9010 C   0  0  0  0  0  0  0  0  0  0  0  0
  128.6460  127.0780   67.2230 O   0  0  0  0  0  0  0  0  0  0  0  0
  129.4950  125.0030   70.1960 C   0  0  0  0  0  0  0  0  0  0  0  0
  129.2420  124.9430   71.5640 C   0  0  0  0  0  0  0  0  0  0  0  0
  1  2  1  0
  2  3  1  0
  3  4  1  0
  4  5  2  0
  5  6  1  0
  6  7  2  0
  7  8  1  0
  8  9  2  0
  9 10  1  0
 10 11  1  0
 11 12  1  0
 12 13  1  0
 10 14  2  0
 14 15  1  0
 14 16  1  0
  7 17  1  0
 17 18  2  0
 18  4  1  0
 16  8  1  0
M  END
>  <Binding energies>  (50) 
[-5.24]

>  <Ligand effiencies>  (50) 
[-0.27578947368421053]

>  <Interactions>  (50) 
["V-B:GLU:543:CA:9876, V-A:GLU:543:CD:4908, V-A:HIS:456:CD2:4068, V-B:GLU:543:CB:9878, H-A:TYR:484:OH:4348, V-A:TYR:484:CE1:4345, V-B:HIS:456:CE1:9040, V-A:HIS:456:CE1:4069, V-B:GLU:543:CG:9879, V-B:GLY:544:C:9884, V-B:ALA:541:CB:9864, H-B:LYS:547:NZ:9923, V-B:LYS:547:CD:9921"]

$$$$
RR3_Rahimova_2017
     RDKit          3D

 38 44  0  0  0  0  0  0  0  0999 V2000
  124.2270  132.2030   62.1890 C   0  0  0  0  0  0  0  0  0  0  0  0
  123.5940  131.0430   62.6240 C   0  0  0  0  0  0  0  0  0  0  0  0
  124.2410  130.2010   63.5240 C   0  0  0  0  0  0  0  0  0  0  0  0
  125.5250  130.5050   64.0000 C   0  0  0  0  0  0  0  0  0  0  0  0
  126.2180  129.5980   64.9690 C   0  0  0  0  0  0  0  0  0  0  0  0
  125.4990  128.9190   65.9610 C   0  0  0  0  0  0  0  0  0  0  0  0
  126.1450  128.0790   66.8640 C   0  0  0  0  0  0  0  0  0  0  0  0
  127.5300  127.9050   66.7990 C   0  0  0  0  0  0  0  0  0  0  0  0
  128.2310  127.0070   67.7700 C   0  0  0  0  0  0  0  0  0  0  0  0
  128.2910  127.3360   69.0550 N   0  0  0  0  0  0  0  0  0  0  0  0
  128.9160  126.3570   69.6640 C   0  0  0  0  0  0  0  0  0  0  0  0
  129.2040  126.3030   71.0950 C   0  0  0  0  0  0  0  0  0  0  0  0
  128.8360  127.2540   72.0320 C   0  0  0  0  0  0  0  0  0  0  0  0
  129.2620  126.8790   73.2790 N   0  0  0  0  0  0  0  0  0  0  0  0
  129.9240  125.6730   73.2050 C   0  0  0  0  0  0  0  0  0  0  0  0
  130.5290  124.9010   74.2030 C   0  0  0  0  0  0  0  0  0  0  0  0
  131.1290  123.7080   73.8030 C   0  0  0  0  0  0  0  0  0  0  0  0
  131.1310  123.2970   72.4740 C   0  0  0  0  0  0  0  0  0  0  0  0
  130.5270  124.0650   71.4800 C   0  0  0  0  0  0  0  0  0  0  0  0
  129.9080  125.2790   71.8300 C   0  0  0  0  0  0  0  0  0  0  0  0
  129.2760  125.3810   68.7770 N   0  0  0  0  0  0  0  0  0  0  0  0
  128.8690  125.7780   67.5300 C   0  0  0  0  0  0  0  0  0  0  0  0
  129.1460  124.9840   66.2950 C   0  0  0  0  0  0  0  0  0  0  0  0
  129.0870  125.5950   65.0420 C   0  0  0  0  0  0  0  0  0  0  0  0
  129.3320  124.8560   63.8890 C   0  0  0  0  0  0  0  0  0  0  0  0
  129.6460  123.4910   63.9610 C   0  0  0  0  0  0  0  0  0  0  0  0
  129.8900  122.6960   62.7180 C   0  0  0  0  0  0  0  0  0  0  0  0
  128.9140  122.6130   61.7130 C   0  0  0  0  0  0  0  0  0  0  0  0
  129.1430  121.8750   60.5540 C   0  0  0  0  0  0  0  0  0  0  0  0
  130.3540  121.2120   60.3860 C   0  0  0  0  0  0  0  0  0  0  0  0
  131.3370  121.2820   61.3680 C   0  0  0  0  0  0  0  0  0  0  0  0
  131.1040  122.0180   62.5260 C   0  0  0  0  0  0  0  0  0  0  0  0
  129.7200  122.8940   65.2270 C   0  0  0  0  0  0  0  0  0  0  0  0
  129.4750  123.6300   66.3820 C   0  0  0  0  0  0  0  0  0  0  0  0
  128.2530  128.5670   65.8050 C   0  0  0  0  0  0  0  0  0  0  0  0
  127.6050  129.4070   64.9040 C   0  0  0  0  0  0  0  0  0  0  0  0
  126.1440  131.6790   63.5460 C   0  0  0  0  0  0  0  0  0  0  0  0
  125.5010  132.5240   62.6470 C   0  0  0  0  0  0  0  0  0  0  0  0
  1  2  2  0
  2  3  1  0
  3  4  2  0
  4  5  1  0
  5  6  2  0
  6  7  1  0
  7  8  2  0
  8  9  1  0
  9 10  1  0
 10 11  2  0
 11 12  1  0
 12 13  2  0
 13 14  1  0
 14 15  1  0
 15 16  2  0
 16 17  1  0
 17 18  2  0
 18 19  1  0
 19 20  2  0
 11 21  1  0
 21 22  1  0
 22 23  1  0
 23 24  2  0
 24 25  1  0
 25 26  2  0
 26 27  1  0
 27 28  2  0
 28 29  1  0
 29 30  2  0
 30 31  1  0
 31 32  2  0
 26 33  1  0
 33 34  2  0
  8 35  1  0
 35 36  2  0
  4 37  1  0
 37 38  2  0
 38  1  1  0
 36  5  1  0
 22  9  2  0
 34 23  1  0
 20 12  1  0
 32 27  1  0
 20 15  1  0
M  END
>  <Binding energies>  (51) 
[-10.29]

>  <Ligand effiencies>  (51) 
[-0.25725]

>  <Interactions>  (51) 
["V-B:GLU:543:CA:9876, V-A:GLU:543:CD:4908, V-A:HIS:456:CD2:4068, V-B:GLU:543:CD:9880, V-B:TYR:539:CD2:9846, V-A:LEU:475:CD1:4258, V-B:GLU:543:CB:9878, H-B:HIS:456:NE2:9041, H-A:TYR:484:OH:4348, V-A:TYR:484:CZ:4347, V-B:GLU:543:C:9874, V-A:TYR:484:CE1:4345, V-B:HIS:456:CE1:9040, V-B:TYR:539:CE2:9848, V-A:HIS:456:CE1:4069, V-B:GLU:543:CG:9879, V-B:ARG:545:CD:9895, V-B:ARG:545:CZ:9898, V-B:ARG:545:CG:9894, V-A:GLU:543:CB:4906, V-B:ALA:541:CB:9864, V-B:ILE:369:CD1:8210, V-B:LEU:475:CD1:9229, V-B:GLY:454:CA:9020, H-B:GLU:543:O:9875, V-A:TYR:484:CE2:4346, V-A:HIS:456:CG:4066, V-A:TYR:484:CD2:4344, V-A:HIS:456:CB:4065"]

$$$$
RR4_Rahimova_2017
     RDKit          3D

 40 44  0  0  0  0  0  0  0  0999 V2000
  127.6140  126.7290   74.3050 C   0  0  0  0  0  0  0  0  0  0  0  0
  128.3050  125.7860   73.4930 O   0  0  0  0  0  0  0  0  0  0  0  0
  128.4040  126.0120   72.1330 C   0  0  0  0  0  0  0  0  0  0  0  0
  129.3130  125.2220   71.4330 C   0  0  0  0  0  0  0  0  0  0  0  0
  129.4780  125.3780   70.0600 C   0  0  0  0  0  0  0  0  0  0  0  0
  128.7400  126.3330   69.3460 C   0  0  0  0  0  0  0  0  0  0  0  0
  128.9220  126.5000   67.8640 C   0  0  0  0  0  0  0  0  0  0  0  0
  129.8200  125.7280   67.1190 C   0  0  0  0  0  0  0  0  0  0  0  0
  129.9500  125.9190   65.7380 C   0  0  0  0  0  0  0  0  0  0  0  0
  130.9080  125.0380   65.0040 C   0  0  0  0  0  0  0  0  0  0  0  0
  132.2660  125.3680   64.9500 C   0  0  0  0  0  0  0  0  0  0  0  0
  133.1670  124.5460   64.2790 C   0  0  0  0  0  0  0  0  0  0  0  0
  132.7310  123.3780   63.6540 C   0  0  0  0  0  0  0  0  0  0  0  0
  133.6960  122.6250   63.0130 O   0  0  0  0  0  0  0  0  0  0  0  0
  134.3650  123.1720   61.8810 C   0  0  0  0  0  0  0  0  0  0  0  0
  131.3710  123.0400   63.7100 C   0  0  0  0  0  0  0  0  0  0  0  0
  130.4710  123.8630   64.3830 C   0  0  0  0  0  0  0  0  0  0  0  0
  129.1740  126.9300   65.1200 C   0  0  0  0  0  0  0  0  0  0  0  0
  129.2710  127.1710   63.6770 C   0  0  0  0  0  0  0  0  0  0  0  0
  129.3480  127.3610   62.5380 N   0  0  0  0  0  0  0  0  0  0  0  0
  128.3090  127.6930   65.9380 C   0  0  0  0  0  0  0  0  0  0  0  0
  127.2720  129.0080   65.3360 S   0  0  0  0  0  0  0  0  0  0  0  0
  128.3560  130.2880   64.6200 C   0  0  0  0  0  0  0  0  0  0  0  0
  128.2150  130.4670   63.1020 C   0  0  0  0  0  0  0  0  0  0  0  0
  127.1930  130.0970   62.5200 O   0  0  0  0  0  0  0  0  0  0  0  0
  129.2860  131.0320   62.4960 N   0  0  0  0  0  0  0  0  0  0  0  0
  129.4620  131.3270   61.1420 C   0  0  0  0  0  0  0  0  0  0  0  0
  128.1570  131.8360   60.1040 S   0  0  0  0  0  0  0  0  0  0  0  0
  129.2180  131.9530   58.7340 C   0  0  0  0  0  0  0  0  0  0  0  0
  130.5350  131.6050   59.0700 C   0  0  0  0  0  0  0  0  0  0  0  0
  130.6750  131.2660   60.4380 C   0  0  0  0  0  0  0  0  0  0  0  0
  131.9460  130.8860   61.0470 C   0  0  0  0  0  0  0  0  0  0  0  0
  132.9540  130.5840   61.5290 N   0  0  0  0  0  0  0  0  0  0  0  0
  131.6690  131.6660   58.0400 C   0  0  0  0  0  0  0  0  0  0  0  0
  131.2460  132.5020   56.8120 C   0  0  0  0  0  0  0  0  0  0  0  0
  129.8360  132.1330   56.3160 C   0  0  0  0  0  0  0  0  0  0  0  0
  128.7520  132.4450   57.3700 C   0  0  0  0  0  0  0  0  0  0  0  0
  128.1790  127.4660   67.2660 N   0  0  0  0  0  0  0  0  0  0  0  0
  127.8240  127.1210   70.0600 C   0  0  0  0  0  0  0  0  0  0  0  0
  127.6560  126.9680   71.4330 C   0  0  0  0  0  0  0  0  0  0  0  0
  1  2  1  0
  2  3  1  0
  3  4  2  0
  4  5  1  0
  5  6  2  0
  6  7  1  0
  7  8  2  0
  8  9  1  0
  9 10  1  0
 10 11  2  0
 11 12  1  0
 12 13  2  0
 13 14  1  0
 14 15  1  0
 13 16  1  0
 16 17  2  0
  9 18  2  0
 18 19  1  0
 19 20  3  0
 18 21  1  0
 21 22  1  0
 22 23  1  0
 23 24  1  0
 24 25  2  0
 24 26  1  0
 26 27  1  0
 27 28  1  0
 28 29  1  0
 29 30  2  0
 30 31  1  0
 31 32  1  0
 32 33  3  0
 30 34  1  0
 34 35  1  0
 35 36  1  0
 36 37  1  0
 21 38  2  0
  6 39  1  0
 39 40  2  0
 40  3  1  0
 38  7  1  0
 17 10  1  0
 31 27  2  0
 37 29  1  0
M  END
>  <Binding energies>  (52) 
[-10.82]

>  <Ligand effiencies>  (52) 
[-0.26390243902439026]

>  <Interactions>  (52) 
["V-A:GLU:543:CD:4908, V-A:HIS:456:CD2:4068, V-A:LEU:475:CD1:4258, V-B:HIS:456:CE1:9040, V-A:HIS:456:CE1:4069, V-A:PRO:540:CA:4883, V-A:TYR:539:CD2:4874, V-A:TYR:539:CZ:4877, V-A:TYR:539:CE2:4876, V-A:GLU:543:CB:4906, V-A:PRO:540:CB:4885, V-A:TYR:539:C:4867, V-A:ARG:545:CZ:4926, V-B:GLY:544:C:9884, H-B:LYS:547:NZ:9923, V-A:ILE:369:CD1:3239, V-A:GLY:454:CA:4049, V-A:GLY:453:C:4042, H-A:GLY:454:N:4050, H-A:ARG:545:NH2:4928, H-A:GLU:543:OE1:4909, V-A:PRO:540:N:4884, V-B:LYS:547:CD:9921, V-A:PRO:540:CD:4887, V-A:TYR:539:CE1:4875, V-A:TYR:539:CD1:4873, V-A:TYR:539:CG:4872"]

$$$$
RR6_Rahimova_2017
     RDKit          3D

 38 41  0  0  0  0  0  0  0  0999 V2000
  132.0220  131.1720   56.2760 C   0  0  0  0  0  0  0  0  0  0  0  0
  131.6690  132.1870   57.2060 O   0  0  0  0  0  0  0  0  0  0  0  0
  130.3680  132.4920   57.4470 C   0  0  0  0  0  0  0  0  0  0  0  0
  129.6340  133.0430   56.6200 O   0  0  0  0  0  0  0  0  0  0  0  0
  129.9080  132.0910   58.8200 C   0  0  0  0  0  0  0  0  0  0  0  0
  128.7010  132.5540   59.3640 C   0  0  0  0  0  0  0  0  0  0  0  0
  128.3060  132.1700   60.6430 C   0  0  0  0  0  0  0  0  0  0  0  0
  129.1190  131.3170   61.4040 C   0  0  0  0  0  0  0  0  0  0  0  0
  128.8300  130.8910   62.7140 N   0  0  0  0  0  0  0  0  0  0  0  0
  128.1630  131.5360   63.6970 C   0  0  0  0  0  0  0  0  0  0  0  0
  127.6620  132.6560   63.6030 O   0  0  0  0  0  0  0  0  0  0  0  0
  128.1000  130.8050   65.0430 C   0  0  0  0  0  0  0  0  0  0  0  0
  127.2490  129.1940   64.9630 S   0  0  0  0  0  0  0  0  0  0  0  0
  128.3480  127.9970   65.6920 C   0  0  0  0  0  0  0  0  0  0  0  0
  128.2740  127.9220   67.0420 N   0  0  0  0  0  0  0  0  0  0  0  0
  129.0430  127.0250   67.7100 C   0  0  0  0  0  0  0  0  0  0  0  0
  128.8570  126.9630   69.1970 C   0  0  0  0  0  0  0  0  0  0  0  0
  128.2400  125.8580   69.8030 C   0  0  0  0  0  0  0  0  0  0  0  0
  128.0550  125.8060   71.1820 C   0  0  0  0  0  0  0  0  0  0  0  0
  128.4910  126.8600   71.9840 C   0  0  0  0  0  0  0  0  0  0  0  0
  128.2790  126.8040   73.4860 C   0  0  0  0  0  0  0  0  0  0  0  0
  129.1080  127.9660   71.4030 C   0  0  0  0  0  0  0  0  0  0  0  0
  129.2900  128.0120   70.0250 C   0  0  0  0  0  0  0  0  0  0  0  0
  129.9230  126.1840   67.0200 C   0  0  0  0  0  0  0  0  0  0  0  0
  130.0200  126.2450   65.6230 C   0  0  0  0  0  0  0  0  0  0  0  0
  130.9650  125.3060   64.9490 C   0  0  0  0  0  0  0  0  0  0  0  0
  130.4850  124.3560   64.0420 C   0  0  0  0  0  0  0  0  0  0  0  0
  131.3610  123.4860   63.3980 C   0  0  0  0  0  0  0  0  0  0  0  0
  132.7320  123.5530   63.6420 C   0  0  0  0  0  0  0  0  0  0  0  0
  133.5250  122.6530   62.9560 O   0  0  0  0  0  0  0  0  0  0  0  0
  134.2360  123.0930   61.8040 C   0  0  0  0  0  0  0  0  0  0  0  0
  133.2200  124.5080   64.5460 C   0  0  0  0  0  0  0  0  0  0  0  0
  132.3410  125.3760   65.1890 C   0  0  0  0  0  0  0  0  0  0  0  0
  129.2140  127.1840   64.9330 C   0  0  0  0  0  0  0  0  0  0  0  0
  129.2880  127.3210   63.4740 C   0  0  0  0  0  0  0  0  0  0  0  0
  129.3450  127.4270   62.3230 N   0  0  0  0  0  0  0  0  0  0  0  0
  130.3120  130.8410   60.8600 C   0  0  0  0  0  0  0  0  0  0  0  0
  130.7060  131.2280   59.5820 C   0  0  0  0  0  0  0  0  0  0  0  0
  1  2  1  0
  2  3  1  0
  3  4  2  0
  3  5  1  0
  5  6  2  0
  6  7  1  0
  7  8  2  0
  8  9  1  0
  9 10  1  0
 10 11  2  0
 10 12  1  0
 12 13  1  0
 13 14  1  0
 14 15  2  0
 15 16  1  0
 16 17  1  0
 17 18  2  0
 18 19  1  0
 19 20  2  0
 20 21  1  0
 20 22  1  0
 22 23  2  0
 16 24  2  0
 24 25  1  0
 25 26  1  0
 26 27  2  0
 27 28  1  0
 28 29  2  0
 29 30  1  0
 30 31  1  0
 29 32  1  0
 32 33  2  0
 25 34  2  0
 34 35  1  0
 35 36  3  0
  8 37  1  0
 37 38  2  0
 38  5  1  0
 34 14  1  0
 23 17  1  0
 33 26  1  0
M  END
>  <Binding energies>  (53) 
[-8.91]

>  <Ligand effiencies>  (53) 
[-0.22846153846153847]

>  <Interactions>  (53) 
["V-A:GLU:543:CD:4908, V-A:HIS:456:CD2:4068, V-B:GLU:543:C:9874, V-B:HIS:456:CE1:9040, V-A:HIS:456:CE1:4069, V-A:ALA:541:CB:4892, V-A:PRO:540:CA:4883, V-A:TYR:539:CD2:4874, V-A:TYR:539:CE2:4876, V-A:GLU:543:CB:4906, V-A:PRO:540:CB:4885, V-A:TYR:539:C:4867, V-B:GLY:544:C:9884, V-A:ILE:369:CD1:3239, V-A:GLY:454:CA:4049, H-A:GLY:454:N:4050, H-A:GLU:543:OE1:4909, V-A:PRO:540:N:4884, V-B:HIS:456:CD2:9039, H-A:TYR:539:N:4870, V-A:PRO:540:CD:4887, V-A:LEU:363:CD1:3189, V-A:TYR:531:CE2:4793"]

$$$$
RR7_Rahimova_2017
     RDKit          3D

 47 53  0  0  0  0  0  0  0  0999 V2000
  131.9430  125.4290   61.2220 C   0  0  0  0  0  0  0  0  0  0  0  0
  130.9990  125.5530   62.2820 O   0  0  0  0  0  0  0  0  0  0  0  0
  129.9680  126.4640   62.1610 C   0  0  0  0  0  0  0  0  0  0  0  0
  130.3280  127.8090   62.1100 C   0  0  0  0  0  0  0  0  0  0  0  0
  129.3580  128.7990   61.9840 C   0  0  0  0  0  0  0  0  0  0  0  0
  127.9970  128.4650   61.9170 C   0  0  0  0  0  0  0  0  0  0  0  0
  126.8910  129.5510   61.7430 C   0  0  0  0  0  0  0  0  0  0  0  0
  126.0310  129.0880   60.6780 O   0  0  0  0  0  0  0  0  0  0  0  0
  125.2390  130.0230   59.9370 C   0  0  0  0  0  0  0  0  0  0  0  0
  125.6110  129.9270   58.4490 C   0  0  1  0  0  0  0  0  0  0  0  0
  126.7160  129.0310   58.3570 O   0  0  0  0  0  0  0  0  0  0  0  0
  126.4330  127.9340   57.5370 C   0  0  1  0  0  0  0  0  0  0  0  0
  127.1260  126.7560   58.0230 N   0  0  0  0  0  0  0  0  0  0  0  0
  128.4150  126.6690   58.5190 C   0  0  0  0  0  0  0  0  0  0  0  0
  128.8100  125.4640   58.8470 N   0  0  0  0  0  0  0  0  0  0  0  0
  127.7460  124.6700   58.5160 C   0  0  0  0  0  0  0  0  0  0  0  0
  127.5420  123.2790   58.6070 C   0  0  0  0  0  0  0  0  0  0  0  0
  128.5710  122.4800   59.1410 N   0  0  0  0  0  0  0  0  0  0  0  0
  128.7160  122.0070   60.4020 C   0  0  0  0  0  0  0  0  0  0  0  0
  127.9300  122.2370   61.3240 O   0  0  0  0  0  0  0  0  0  0  0  0
  129.9550  121.1730   60.6500 C   0  0  0  0  0  0  0  0  0  0  0  0
  131.2210  121.7110   60.3690 C   0  0  0  0  0  0  0  0  0  0  0  0
  132.3730  120.9640   60.5950 C   0  0  0  0  0  0  0  0  0  0  0  0
  132.2710  119.6750   61.1090 C   0  0  0  0  0  0  0  0  0  0  0  0
  131.0250  119.1250   61.3980 C   0  0  0  0  0  0  0  0  0  0  0  0
  129.8710  119.8710   61.1710 C   0  0  0  0  0  0  0  0  0  0  0  0
  126.3590  122.7470   58.1750 N   0  0  0  0  0  0  0  0  0  0  0  0
  125.4280  123.5990   57.6700 C   0  0  0  0  0  0  0  0  0  0  0  0
  125.5190  124.9500   57.5400 N   0  0  0  0  0  0  0  0  0  0  0  0
  126.6850  125.4430   57.9780 C   0  0  0  0  0  0  0  0  0  0  0  0
  124.9130  127.8260   57.5220 C   0  0  0  0  0  0  0  0  0  0  0  0
  124.5370  129.2970   57.5510 C   0  0  2  0  0  0  0  0  0  0  0  0
  124.5160  129.8660   56.2520 O   0  0  0  0  0  0  0  0  0  0  0  0
  126.0040  129.7000   63.0080 C   0  0  0  0  0  0  0  0  0  0  0  0
  126.5250  129.3980   64.2770 C   0  0  0  0  0  0  0  0  0  0  0  0
  125.7360  129.5150   65.4160 C   0  0  0  0  0  0  0  0  0  0  0  0
  124.4140  129.9340   65.2990 C   0  0  0  0  0  0  0  0  0  0  0  0
  123.8770  130.2380   64.0520 C   0  0  0  0  0  0  0  0  0  0  0  0
  124.6670  130.1200   62.9120 C   0  0  0  0  0  0  0  0  0  0  0  0
  127.3960  130.9850   61.4160 C   0  0  0  0  0  0  0  0  0  0  0  0
  127.4720  131.9590   62.4240 C   0  0  0  0  0  0  0  0  0  0  0  0
  127.9130  133.2470   62.1400 C   0  0  0  0  0  0  0  0  0  0  0  0
  128.2750  133.5790   60.8370 C   0  0  0  0  0  0  0  0  0  0  0  0
  128.1950  132.6340   59.8190 C   0  0  0  0  0  0  0  0  0  0  0  0
  127.7530  131.3460   60.1060 C   0  0  0  0  0  0  0  0  0  0  0  0
  127.6410  127.1090   61.9550 C   0  0  0  0  0  0  0  0  0  0  0  0
  128.6120  126.1180   62.0800 C   0  0  0  0  0  0  0  0  0  0  0  0
  1  2  1  0
  2  3  1  0
  3  4  2  0
  4  5  1  0
  5  6  2  0
  6  7  1  0
  7  8  1  0
  8  9  1  0
 10  9  1  1
 10 11  1  0
 11 12  1  0
 12 13  1  1
 13 14  1  0
 14 15  2  0
 15 16  1  0
 16 17  2  0
 17 18  1  0
 18 19  1  0
 19 20  2  0
 19 21  1  0
 21 22  2  0
 22 23  1  0
 23 24  2  0
 24 25  1  0
 25 26  2  0
 17 27  1  0
 27 28  2  0
 28 29  1  0
 29 30  2  0
 12 31  1  0
 31 32  1  0
 32 33  1  6
  7 34  1  0
 34 35  2  0
 35 36  1  0
 36 37  2  0
 37 38  1  0
 38 39  2  0
  7 40  1  0
 40 41  2  0
 41 42  1  0
 42 43  2  0
 43 44  1  0
 44 45  2  0
  6 46  1  0
 46 47  2  0
 47  3  1  0
 32 10  1  0
 39 34  1  0
 45 40  1  0
 30 13  1  0
 30 16  1  0
 26 21  1  0
M  END
>  <Binding energies>  (54) 
[-8.37]

>  <Ligand effiencies>  (54) 
[-0.17081632653061224]

>  <Interactions>  (54) 
["V-A:GLU:543:CD:4908, V-B:GLU:543:CD:9880, V-A:ASP:366:CG:3213, V-B:TYR:539:CD2:9846, V-A:LEU:475:CD1:4258, H-B:ALA:541:N:9863, H-B:TYR:539:O:9840, V-B:TYR:539:CE2:9848, V-B:ARG:545:CZ:9898, V-A:ALA:541:CB:4892, V-A:PRO:540:C:4881, V-A:PRO:540:CA:4883, V-A:TYR:539:CD2:4874, V-A:TYR:539:CE2:4876, V-B:PRO:540:CA:9855, V-B:ALA:541:CB:9864, V-B:TYR:539:C:9839, V-B:PRO:540:CB:9857, V-B:GLY:454:CA:9020, V-A:ILE:369:CG2:3237, V-A:TRP:381:CZ2:3370, V-A:PRO:482:CG:4327, V-A:PRO:482:CB:4326, V-A:TRP:381:CH2:3372, V-B:ASP:366:CG:8184, V-B:LEU:363:CD1:8160, V-B:ASP:366:CB:8183, V-B:TYR:531:CZ:9766, H-A:TYR:539:OH:4878, H-B:TYR:531:OH:9767"]

$$$$
RR8_A_Rahimova_2017
     RDKit          3D

 42 46  0  0  0  0  0  0  0  0999 V2000
  129.0550  128.9260   67.7790 O   0  0  0  0  0  0  0  0  0  0  0  0
  129.0750  127.7570   68.1810 C   0  0  0  0  0  0  0  0  0  0  0  0
  129.0710  126.6580   67.3640 O   0  0  0  0  0  0  0  0  0  0  0  0
  129.9280  126.6710   66.2560 C   0  0  1  0  0  0  0  0  0  0  0  0
  131.0090  125.8010   66.4300 O   0  0  0  0  0  0  0  0  0  0  0  0
  131.3530  125.1350   65.2180 C   0  0  2  0  0  0  0  0  0  0  0  0
  132.8380  125.4000   64.9170 C   0  0  0  0  0  0  0  0  0  0  0  0
  133.3830  124.2630   64.2610 O   0  0  0  0  0  0  0  0  0  0  0  0
  133.9710  124.5500   63.0000 C   0  0  0  0  0  0  0  0  0  0  0  0
  133.5890  123.4730   61.9950 C   0  0  0  0  0  0  0  0  0  0  0  0
  133.9070  122.1370   62.2530 C   0  0  0  0  0  0  0  0  0  0  0  0
  133.5530  121.1470   61.3380 C   0  0  0  0  0  0  0  0  0  0  0  0
  132.8790  121.4970   60.1690 C   0  0  0  0  0  0  0  0  0  0  0  0
  132.5530  122.8260   59.9080 C   0  0  0  0  0  0  0  0  0  0  0  0
  132.9050  123.8150   60.8230 C   0  0  0  0  0  0  0  0  0  0  0  0
  130.3600  125.7030   64.1940 C   0  0  1  0  0  0  0  0  0  0  0  0
  129.8880  124.7260   63.2690 O   0  0  0  0  0  0  0  0  0  0  0  0
  129.5440  123.4640   63.8270 C   0  0  0  0  0  0  0  0  0  0  0  0
  129.5320  122.4000   62.7380 C   0  0  0  0  0  0  0  0  0  0  0  0
  130.2750  121.2280   62.9060 C   0  0  0  0  0  0  0  0  0  0  0  0
  130.2770  120.2550   61.9100 C   0  0  0  0  0  0  0  0  0  0  0  0
  129.5380  120.4580   60.7460 C   0  0  0  0  0  0  0  0  0  0  0  0
  128.8020  121.6260   60.5670 C   0  0  0  0  0  0  0  0  0  0  0  0
  128.8010  122.6000   61.5620 C   0  0  0  0  0  0  0  0  0  0  0  0
  129.1790  126.1240   65.0490 C   0  0  2  0  0  0  0  0  0  0  0  0
  128.3920  127.1000   64.3720 O   0  0  0  0  0  0  0  0  0  0  0  0
  128.3790  128.3970   64.9590 C   0  0  0  0  0  0  0  0  0  0  0  0
  126.9520  128.7950   65.3040 C   0  0  0  0  0  0  0  0  0  0  0  0
  126.1880  129.5360   64.3960 C   0  0  0  0  0  0  0  0  0  0  0  0
  124.8800  129.8900   64.7130 C   0  0  0  0  0  0  0  0  0  0  0  0
  124.3360  129.4990   65.9340 C   0  0  0  0  0  0  0  0  0  0  0  0
  125.0870  128.7570   66.8420 C   0  0  0  0  0  0  0  0  0  0  0  0
  126.3970  128.4020   66.5260 C   0  0  0  0  0  0  0  0  0  0  0  0
  129.1190  127.3950   69.6370 C   0  0  0  0  0  0  0  0  0  0  0  0
  128.7680  126.1150   70.0940 C   0  0  0  0  0  0  0  0  0  0  0  0
  128.8180  125.8110   71.4520 C   0  0  0  0  0  0  0  0  0  0  0  0
  129.2180  126.7750   72.3860 C   0  0  0  0  0  0  0  0  0  0  0  0
  129.2730  126.4490   73.8320 N   0  0  0  0  0  0  0  0  0  0  0  0
  128.3660  125.7800   74.3190 O   0  0  0  0  0  0  0  0  0  0  0  0
  130.2230  126.8580   74.4920 O   0  0  0  0  0  0  0  0  0  0  0  0
  129.5660  128.0520   71.9290 C   0  0  0  0  0  0  0  0  0  0  0  0
  129.5160  128.3590   70.5730 C   0  0  0  0  0  0  0  0  0  0  0  0
  1  2  2  0
  2  3  1  0
  4  3  1  1
  4  5  1  0
  5  6  1  0
  6  7  1  6
  7  8  1  0
  8  9  1  0
  9 10  1  0
 10 11  2  0
 11 12  1  0
 12 13  2  0
 13 14  1  0
 14 15  2  0
  6 16  1  0
 16 17  1  6
 17 18  1  0
 18 19  1  0
 19 20  2  0
 20 21  1  0
 21 22  2  0
 22 23  1  0
 23 24  2  0
 16 25  1  0
 25 26  1  6
 26 27  1  0
 27 28  1  0
 28 29  2  0
 29 30  1  0
 30 31  2  0
 31 32  1  0
 32 33  2  0
  2 34  1  0
 34 35  2  0
 35 36  1  0
 36 37  2  0
 37 38  1  0
 38 39  2  0
 38 40  1  0
 37 41  1  0
 41 42  2  0
 25  4  1  0
 33 28  1  0
 42 34  1  0
 15 10  1  0
 24 19  1  0
M  CHG  2  38   1  40  -1
M  END
>  <Binding energies>  (55) 
[-10.24]

>  <Ligand effiencies>  (55) 
[-0.2438095238095238]

>  <Interactions>  (55) 
["V-A:GLU:543:CD:4908, V-A:HIS:456:CD2:4068, V-B:GLU:543:CD:9880, V-B:TYR:539:CD2:9846, V-A:LEU:475:CD1:4258, V-B:GLU:543:CB:9878, H-B:HIS:456:NE2:9041, H-A:TYR:484:OH:4348, V-B:HIS:456:CE1:9040, V-B:TYR:539:CE2:9848, V-A:HIS:456:CE1:4069, V-B:GLU:543:CG:9879, V-B:ARG:545:CD:9895, V-B:ARG:545:CZ:9898, V-B:ARG:545:CG:9894, V-A:ARG:545:CZ:4926, V-B:PRO:540:CA:9855, V-B:ALA:541:CB:9864, H-B:LYS:547:NZ:9923, V-A:ILE:369:CD1:3239, V-A:GLY:453:CA:4044, V-A:GLY:454:CA:4049, V-A:GLY:453:C:4042, V-A:ILE:369:CG2:3237, H-A:GLY:454:N:4050, V-A:PRO:482:CB:4326, V-B:HIS:456:CD2:9039, H-A:LYS:547:NZ:4951"]

$$$$
RR8_B_Rahimova_2017
     RDKit          3D

 42 46  0  0  0  0  0  0  0  0999 V2000
  127.0890  127.2040   61.5060 O   0  0  0  0  0  0  0  0  0  0  0  0
  127.6750  126.1190   61.4490 C   0  0  0  0  0  0  0  0  0  0  0  0
  128.6050  125.6940   62.3580 O   0  0  0  0  0  0  0  0  0  0  0  0
  129.6520  126.5710   62.6960 C   0  0  2  0  0  0  0  0  0  0  0  0
  130.8560  125.8890   62.9050 O   0  0  0  0  0  0  0  0  0  0  0  0
  131.0210  125.5290   64.2760 C   0  0  2  0  0  0  0  0  0  0  0  0
  131.1840  124.0030   64.3900 C   0  0  0  0  0  0  0  0  0  0  0  0
  130.5780  123.3820   63.2630 O   0  0  0  0  0  0  0  0  0  0  0  0
  131.4510  123.1460   62.1690 C   0  0  0  0  0  0  0  0  0  0  0  0
  131.1530  121.7770   61.5760 C   0  0  0  0  0  0  0  0  0  0  0  0
  129.8570  121.2590   61.6440 C   0  0  0  0  0  0  0  0  0  0  0  0
  129.5820  119.9960   61.1250 C   0  0  0  0  0  0  0  0  0  0  0  0
  130.6070  119.2560   60.5380 C   0  0  0  0  0  0  0  0  0  0  0  0
  131.9000  119.7690   60.4610 C   0  0  0  0  0  0  0  0  0  0  0  0
  132.1750  121.0300   60.9830 C   0  0  0  0  0  0  0  0  0  0  0  0
  129.7880  126.1150   64.9730 C   0  0  1  0  0  0  0  0  0  0  0  0
  130.1410  126.5740   66.2810 O   0  0  0  0  0  0  0  0  0  0  0  0
  129.3840  127.6630   66.8150 C   0  0  0  0  0  0  0  0  0  0  0  0
  128.8480  127.3640   68.2110 C   0  0  0  0  0  0  0  0  0  0  0  0
  127.7670  126.4940   68.3760 C   0  0  0  0  0  0  0  0  0  0  0  0
  127.3010  126.1980   69.6540 C   0  0  0  0  0  0  0  0  0  0  0  0
  127.9150  126.7770   70.7630 C   0  0  0  0  0  0  0  0  0  0  0  0
  128.9900  127.6490   70.6060 C   0  0  0  0  0  0  0  0  0  0  0  0
  129.4590  127.9420   69.3280 C   0  0  0  0  0  0  0  0  0  0  0  0
  129.3470  127.2350   64.0370 C   0  0  2  0  0  0  0  0  0  0  0  0
  127.9660  127.5310   64.2320 O   0  0  0  0  0  0  0  0  0  0  0  0
  127.6190  128.9060   64.1760 C   0  0  0  0  0  0  0  0  0  0  0  0
  126.3400  129.1060   64.9700 C   0  0  0  0  0  0  0  0  0  0  0  0
  125.2200  129.6860   64.3680 C   0  0  0  0  0  0  0  0  0  0  0  0
  124.0580  129.8830   65.1110 C   0  0  0  0  0  0  0  0  0  0  0  0
  124.0210  129.5000   66.4500 C   0  0  0  0  0  0  0  0  0  0  0  0
  125.1340  128.9200   67.0550 C   0  0  0  0  0  0  0  0  0  0  0  0
  126.2950  128.7220   66.3130 C   0  0  0  0  0  0  0  0  0  0  0  0
  127.4650  125.1300   60.3390 C   0  0  0  0  0  0  0  0  0  0  0  0
  127.8540  123.7870   60.4620 C   0  0  0  0  0  0  0  0  0  0  0  0
  127.6550  122.8950   59.4140 C   0  0  0  0  0  0  0  0  0  0  0  0
  127.0730  123.3220   58.2140 C   0  0  0  0  0  0  0  0  0  0  0  0
  126.8860  122.3750   57.0880 N   0  0  0  0  0  0  0  0  0  0  0  0
  125.7480  122.0050   56.8130 O   0  0  0  0  0  0  0  0  0  0  0  0
  127.8760  121.9970   56.4660 O   0  0  0  0  0  0  0  0  0  0  0  0
  126.6790  124.6610   58.0940 C   0  0  0  0  0  0  0  0  0  0  0  0
  126.8710  125.5530   59.1450 C   0  0  0  0  0  0  0  0  0  0  0  0
  1  2  2  0
  2  3  1  0
  4  3  1  1
  4  5  1  0
  5  6  1  0
  6  7  1  6
  7  8  1  0
  8  9  1  0
  9 10  1  0
 10 11  2  0
 11 12  1  0
 12 13  2  0
 13 14  1  0
 14 15  2  0
  6 16  1  0
 16 17  1  1
 17 18  1  0
 18 19  1  0
 19 20  2  0
 20 21  1  0
 21 22  2  0
 22 23  1  0
 23 24  2  0
 16 25  1  0
 25 26  1  6
 26 27  1  0
 27 28  1  0
 28 29  2  0
 29 30  1  0
 30 31  2  0
 31 32  1  0
 32 33  2  0
  2 34  1  0
 34 35  2  0
 35 36  1  0
 36 37  2  0
 37 38  1  0
 38 39  2  0
 38 40  1  0
 37 41  1  0
 41 42  2  0
 25  4  1  0
 33 28  1  0
 42 34  1  0
 15 10  1  0
 24 19  1  0
M  CHG  2  38   1  40  -1
M  END
>  <Binding energies>  (56) 
[-9.24]

>  <Ligand effiencies>  (56) 
[-0.22]

>  <Interactions>  (56) 
["V-A:GLU:543:CD:4908, V-B:GLU:543:CD:9880, V-B:TYR:539:CD2:9846, V-A:LEU:475:CD1:4258, V-B:GLU:543:CB:9878, V-B:GLU:543:C:9874, V-B:HIS:456:CE1:9040, V-B:TYR:539:CE2:9848, V-A:HIS:456:CE1:4069, V-B:ARG:545:CD:9895, V-B:ARG:545:CZ:9898, V-B:ARG:545:CG:9894, V-A:GLU:543:CB:4906, V-B:PRO:540:CA:9855, V-B:GLY:544:C:9884, V-B:ALA:541:CB:9864, V-B:TYR:539:C:9839, V-A:GLU:543:CG:4907, V-B:PRO:540:N:9856, V-B:GLY:454:CA:9020, V-A:TRP:381:CZ2:3370, V-B:ALA:541:CA:9862, V-A:PRO:482:CG:4327, V-A:PRO:482:CB:4326, V-A:TRP:381:CH2:3372, V-B:GLY:544:CA:9886, V-B:PRO:540:CD:9859, V-B:TYR:539:CA:9841, H-B:TYR:539:N:9842, V-A:TRP:381:CZ3:3371"]

$$$$
RR9_Rahimova_2017
     RDKit          3D

 36 40  0  0  0  0  0  0  0  0999 V2000
  130.9590  122.5750   72.5160 C   0  0  0  0  0  0  0  0  0  0  0  0
  129.9380  123.1320   71.5200 C   0  0  0  0  0  0  0  0  0  0  0  0
  130.5440  124.1930   70.7880 O   0  0  0  0  0  0  0  0  0  0  0  0
  129.7550  125.0180   70.0100 C   0  0  0  0  0  0  0  0  0  0  0  0
  129.8190  124.8240   68.6320 C   0  0  0  0  0  0  0  0  0  0  0  0
  129.0620  125.6090   67.7690 C   0  0  0  0  0  0  0  0  0  0  0  0
  128.2160  126.6150   68.2620 C   0  0  0  0  0  0  0  0  0  0  0  0
  127.4010  127.4680   67.3360 C   0  0  0  0  0  0  0  0  0  0  0  0
  127.8430  127.7800   66.0410 C   0  0  0  0  0  0  0  0  0  0  0  0
  127.0690  128.5700   65.1730 C   0  0  0  0  0  0  0  0  0  0  0  0
  127.5510  128.7850   63.7640 C   0  0  0  0  0  0  0  0  0  0  0  0
  128.5470  129.4740   63.5450 O   0  0  0  0  0  0  0  0  0  0  0  0
  126.8140  128.2020   62.7980 N   0  0  0  0  0  0  0  0  0  0  0  0
  127.0030  128.3710   61.3530 C   0  0  0  0  0  0  0  0  0  0  0  0
  126.4630  129.7200   60.8260 C   0  0  0  0  0  0  0  0  0  0  0  0
  126.0010  129.6970   59.3730 C   0  0  0  0  0  0  0  0  0  0  0  0
  126.8610  129.2380   58.3700 C   0  0  0  0  0  0  0  0  0  0  0  0
  126.4240  129.1860   57.0490 C   0  0  0  0  0  0  0  0  0  0  0  0
  125.1310  129.5980   56.7340 C   0  0  0  0  0  0  0  0  0  0  0  0
  124.2700  130.0610   57.7270 C   0  0  0  0  0  0  0  0  0  0  0  0
  124.7060  130.1120   59.0490 C   0  0  0  0  0  0  0  0  0  0  0  0
  125.8430  129.0550   65.6910 C   0  0  0  0  0  0  0  0  0  0  0  0
  124.7410  129.8900   65.2740 C   0  0  0  0  0  0  0  0  0  0  0  0
  124.5640  130.6660   64.0110 C   0  0  0  0  0  0  0  0  0  0  0  0
  125.2530  131.8680   63.8220 C   0  0  0  0  0  0  0  0  0  0  0  0
  125.0750  132.5990   62.6500 C   0  0  0  0  0  0  0  0  0  0  0  0
  124.2090  132.1280   61.6610 C   0  0  0  0  0  0  0  0  0  0  0  0
  124.0000  132.9340   60.3920 C   0  0  0  0  0  0  0  0  0  0  0  0
  123.5180  130.9300   61.8470 C   0  0  0  0  0  0  0  0  0  0  0  0
  123.7000  130.2000   63.0180 C   0  0  0  0  0  0  0  0  0  0  0  0
  123.8170  129.9340   66.2080 N   0  0  0  0  0  0  0  0  0  0  0  0
  124.2560  129.2230   67.2580 N   0  0  0  0  0  0  0  0  0  0  0  0
  125.4910  128.6720   67.0080 C   0  0  0  0  0  0  0  0  0  0  0  0
  126.2140  127.9160   67.8330 N   0  0  0  0  0  0  0  0  0  0  0  0
  128.1590  126.8060   69.6500 C   0  0  0  0  0  0  0  0  0  0  0  0
  128.9150  126.0190   70.5160 C   0  0  0  0  0  0  0  0  0  0  0  0
  1  2  1  0
  2  3  1  0
  3  4  1  0
  4  5  2  0
  5  6  1  0
  6  7  2  0
  7  8  1  0
  8  9  2  0
  9 10  1  0
 10 11  1  0
 11 12  2  0
 11 13  1  0
 13 14  1  0
 14 15  1  0
 15 16  1  0
 16 17  2  0
 17 18  1  0
 18 19  2  0
 19 20  1  0
 20 21  2  0
 10 22  2  0
 22 23  1  0
 23 24  1  0
 24 25  2  0
 25 26  1  0
 26 27  2  0
 27 28  1  0
 27 29  1  0
 29 30  2  0
 23 31  2  0
 31 32  1  0
 32 33  1  0
 33 34  2  0
  7 35  1  0
 35 36  2  0
 36  4  1  0
 34  8  1  0
 21 16  1  0
 33 22  1  0
 30 24  1  0
M  END
>  <Binding energies>  (57) 
[-8.73]

>  <Ligand effiencies>  (57) 
[-0.22973684210526316]

>  <Interactions>  (57) 
["H-A:HIS:456:NE2:4070, V-A:HIS:456:CD2:4068, V-B:GLU:543:CD:9880, V-B:GLU:543:CB:9878, V-A:TYR:484:CZ:4347, V-B:GLU:543:C:9874, V-A:TYR:484:CE1:4345, V-B:HIS:456:CE1:9040, V-A:HIS:456:CE1:4069, V-B:ARG:545:CD:9895, V-B:ARG:545:CZ:9898, H-B:TYR:484:OH:9319, V-B:ARG:545:CG:9894, V-A:TYR:539:CE2:4876, V-B:ILE:369:CG2:8208, V-B:ILE:369:CD1:8210, V-B:LEU:475:CD1:9229, V-B:GLY:454:CA:9020, H-B:GLU:543:OE2:9882, H-B:GLY:454:N:9021, H-B:ARG:545:NE:9896, V-B:ASP:366:CG:8184, H-B:GLU:543:OE1:9881, V-B:TYR:531:CE1:9764, V-B:ASP:366:CA:8181, V-B:ASP:366:CB:8183, V-B:TYR:531:CZ:9766, V-B:ILE:455:C:9023, V-A:TYR:484:CG:4342, V-A:TYR:484:CE2:4346, V-A:HIS:456:CG:4066, V-A:TYR:484:CD1:4343, V-A:TYR:484:CD2:4344, H-B:ILE:455:N:9026, V-A:TYR:484:CB:4341, V-B:ARG:545:CB:9893, H-B:HIS:456:ND1:9038, H-B:ILE:455:O:9024"]

$$$$
