1a_Ghoteimi_2023
     RDKit          3D

 40 43  0  0  0  0  0  0  0  0999 V2000
  134.0900  126.3050   75.4420 C   0  0  0  0  0  0  0  0  0  0  0  0
  133.1890  126.5300   74.2230 C   0  0  0  0  0  0  0  0  0  0  0  0
  131.8700  126.8280   74.6620 O   0  0  0  0  0  0  0  0  0  0  0  0
  130.7890  126.2450   74.0830 C   0  0  0  0  0  0  0  0  0  0  0  0
  130.2630  125.2120   74.5090 O   0  0  0  0  0  0  0  0  0  0  0  0
  130.2940  126.9840   72.8730 C   0  0  0  0  0  0  0  0  0  0  0  0
  128.9270  127.1970   72.6410 C   0  0  0  0  0  0  0  0  0  0  0  0
  128.4980  127.8830   71.5080 C   0  0  0  0  0  0  0  0  0  0  0  0
  129.4340  128.3760   70.5860 C   0  0  0  0  0  0  0  0  0  0  0  0
  129.1130  129.0780   69.4080 N   0  0  0  0  0  0  0  0  0  0  0  0
  128.6360  128.6200   68.2300 C   0  0  0  0  0  0  0  0  0  0  0  0
  128.3720  127.4460   67.9730 O   0  0  0  0  0  0  0  0  0  0  0  0
  128.4140  129.6820   67.1540 C   0  0  0  0  0  0  0  0  0  0  0  0
  127.0870  129.2090   66.0060 S   0  0  0  0  0  0  0  0  0  0  0  0
  127.8670  128.9370   64.4320 C   0  0  0  0  0  0  0  0  0  0  0  0
  128.2670  127.6590   64.2310 N   0  0  0  0  0  0  0  0  0  0  0  0
  128.8730  127.3160   63.0640 C   0  0  0  0  0  0  0  0  0  0  0  0
  129.2690  125.8760   62.9090 C   0  0  0  0  0  0  0  0  0  0  0  0
  128.7340  125.0780   61.8840 C   0  0  0  0  0  0  0  0  0  0  0  0
  129.1030  123.7440   61.7430 C   0  0  0  0  0  0  0  0  0  0  0  0
  130.0170  123.1640   62.6200 C   0  0  0  0  0  0  0  0  0  0  0  0
  130.3270  121.8350   62.4030 O   0  0  0  0  0  0  0  0  0  0  0  0
  129.6650  121.1300   61.3590 C   0  0  0  0  0  0  0  0  0  0  0  0
  130.5570  123.9460   63.6500 C   0  0  0  0  0  0  0  0  0  0  0  0
  130.1850  125.2800   63.7890 C   0  0  0  0  0  0  0  0  0  0  0  0
  129.0890  128.2750   62.0660 C   0  0  0  0  0  0  0  0  0  0  0  0
  128.7060  129.6080   62.2610 C   0  0  0  0  0  0  0  0  0  0  0  0
  128.9970  130.5820   61.1660 C   0  0  0  0  0  0  0  0  0  0  0  0
  130.2590  131.1770   61.0510 C   0  0  0  0  0  0  0  0  0  0  0  0
  130.5260  132.0720   60.0190 C   0  0  0  0  0  0  0  0  0  0  0  0
  129.5440  132.3840   59.0780 C   0  0  0  0  0  0  0  0  0  0  0  0
  129.9010  133.2810   58.0910 O   0  0  0  0  0  0  0  0  0  0  0  0
  129.6830  132.9350   56.7270 C   0  0  0  0  0  0  0  0  0  0  0  0
  128.2810  131.7830   59.1860 C   0  0  0  0  0  0  0  0  0  0  0  0
  128.0150  130.8890   60.2200 C   0  0  0  0  0  0  0  0  0  0  0  0
  128.0710  129.9560   63.4770 C   0  0  0  0  0  0  0  0  0  0  0  0
  127.6340  131.3320   63.7320 C   0  0  0  0  0  0  0  0  0  0  0  0
  127.2890  132.4190   63.9330 N   0  0  0  0  0  0  0  0  0  0  0  0
  130.7940  128.1630   70.8120 C   0  0  0  0  0  0  0  0  0  0  0  0
  131.2220  127.4760   71.9460 C   0  0  0  0  0  0  0  0  0  0  0  0
  1  2  1  0
  2  3  1  0
  3  4  1  0
  4  5  2  0
  4  6  1  0
  6  7  2  0
  7  8  1  0
  8  9  2  0
  9 10  1  0
 10 11  1  0
 11 12  2  0
 11 13  1  0
 13 14  1  0
 14 15  1  0
 15 16  2  0
 16 17  1  0
 17 18  1  0
 18 19  2  0
 19 20  1  0
 20 21  2  0
 21 22  1  0
 22 23  1  0
 21 24  1  0
 24 25  2  0
 17 26  2  0
 26 27  1  0
 27 28  1  0
 28 29  2  0
 29 30  1  0
 30 31  2  0
 31 32  1  0
 32 33  1  0
 31 34  1  0
 34 35  2  0
 27 36  2  0
 36 37  1  0
 37 38  3  0
  9 39  1  0
 39 40  2  0
 40  6  1  0
 36 15  1  0
 25 18  1  0
 35 28  1  0
M  END
>  <Binding energies>  (1) 
[-7.79]

>  <Ligand effiencies>  (1) 
[-0.19]

>  <Interactions>  (1) 
["V-B:HIS:456:CE1:9041, V-A:HIS:456:CD2:4068, V-A:GLU:543:CG:4907, V-B:GLU:543:CD:9880, H-B:TYR:484:OH:9319, V-B:TYR:484:CZ:9318, V-B:HIS:456:CD2:9039, V-A:GLU:543:CD:4908, V-A:HIS:456:CE1:4070, V-A:GLU:543:CB:4906, V-B:TYR:539:CD2:9846, V-A:LEU:475:CD2:4259, V-A:HIS:456:CB:4065, V-A:HIS:456:CG:4066, V-A:LYS:547:CG:4948, V-A:GLU:543:CA:4904, H-B:LYS:547:NZ:9923, V-A:GLU:543:C:4902, V-A:GLY:544:C:4912, V-B:ALA:541:CB:9864, H-A:LYS:547:NZ:4951, H-B:HIS:456:NE2:9042, H-A:TYR:539:N:4870, V-A:PRO:540:N:4884, V-A:PRO:540:CA:4883, V-A:PRO:540:CB:4885, V-A:ILE:538:CA:4860, H-A:GLU:543:O:4903, V-B:TYR:484:CE2:9317, V-A:VAL:458:CG2:4087"]

$$$$
1b_Ghoteimi_2023
     RDKit          3D

 34 37  0  0  0  0  0  0  0  0999 V2000
  126.2950  133.9450   61.6310 C   0  0  0  0  0  0  0  0  0  0  0  0
  125.5860  133.1740   62.5940 O   0  0  0  0  0  0  0  0  0  0  0  0
  126.2430  132.1560   63.2570 C   0  0  0  0  0  0  0  0  0  0  0  0
  125.4790  131.0440   63.6070 C   0  0  0  0  0  0  0  0  0  0  0  0
  126.0550  129.9690   64.2780 C   0  0  0  0  0  0  0  0  0  0  0  0
  127.4170  129.9730   64.6180 C   0  0  0  0  0  0  0  0  0  0  0  0
  128.0350  128.8110   65.3450 C   0  0  0  0  0  0  0  0  0  0  0  0
  127.9910  128.6740   66.7370 C   0  0  0  0  0  0  0  0  0  0  0  0
  128.5800  127.5700   67.3650 C   0  0  0  0  0  0  0  0  0  0  0  0
  128.5000  127.4910   68.8550 C   0  0  0  0  0  0  0  0  0  0  0  0
  129.5840  127.8890   69.6420 C   0  0  0  0  0  0  0  0  0  0  0  0
  129.5180  127.8090   71.0300 C   0  0  0  0  0  0  0  0  0  0  0  0
  128.3680  127.3280   71.6580 C   0  0  0  0  0  0  0  0  0  0  0  0
  128.3920  127.2850   73.0390 O   0  0  0  0  0  0  0  0  0  0  0  0
  128.3570  128.5040   73.7720 C   0  0  0  0  0  0  0  0  0  0  0  0
  127.2800  126.9210   70.8720 C   0  0  0  0  0  0  0  0  0  0  0  0
  127.3510  127.0010   69.4840 C   0  0  0  0  0  0  0  0  0  0  0  0
  129.2090  126.5900   66.5580 C   0  0  0  0  0  0  0  0  0  0  0  0
  129.7560  125.3700   67.1580 C   0  0  0  0  0  0  0  0  0  0  0  0
  130.1870  124.4060   67.6340 N   0  0  0  0  0  0  0  0  0  0  0  0
  129.2360  126.8000   65.1610 C   0  0  0  0  0  0  0  0  0  0  0  0
  129.9880  125.6830   63.9960 S   0  0  0  0  0  0  0  0  0  0  0  0
  131.7720  125.6030   64.3650 C   0  0  0  0  0  0  0  0  0  0  0  0
  132.6380  124.9850   63.2580 C   0  0  0  0  0  0  0  0  0  0  0  0
  133.6290  124.3060   63.5380 O   0  0  0  0  0  0  0  0  0  0  0  0
  132.2210  125.2540   62.0010 N   0  0  0  0  0  0  0  0  0  0  0  0
  132.8040  124.8300   60.8120 C   0  0  0  0  0  0  0  0  0  0  0  0
  134.1090  124.3450   60.7350 C   0  0  0  0  0  0  0  0  0  0  0  0
  134.2980  124.0370   59.4070 C   0  0  0  0  0  0  0  0  0  0  0  0
  133.1640  124.3180   58.7210 O   0  0  0  0  0  0  0  0  0  0  0  0
  132.2240  124.8200   59.6230 N   0  0  0  0  0  0  0  0  0  0  0  0
  128.6460  127.8710   64.5780 N   0  0  0  0  0  0  0  0  0  0  0  0
  128.1760  131.0990   64.2630 C   0  0  0  0  0  0  0  0  0  0  0  0
  127.6030  132.1750   63.5930 C   0  0  0  0  0  0  0  0  0  0  0  0
  1  2  1  0
  2  3  1  0
  3  4  2  0
  4  5  1  0
  5  6  2  0
  6  7  1  0
  7  8  2  0
  8  9  1  0
  9 10  1  0
 10 11  2  0
 11 12  1  0
 12 13  2  0
 13 14  1  0
 14 15  1  0
 13 16  1  0
 16 17  2  0
  9 18  2  0
 18 19  1  0
 19 20  3  0
 18 21  1  0
 21 22  1  0
 22 23  1  0
 23 24  1  0
 24 25  2  0
 24 26  1  0
 26 27  1  0
 27 28  1  0
 28 29  2  0
 29 30  1  0
 30 31  1  0
 21 32  2  0
  6 33  1  0
 33 34  2  0
 34  3  1  0
 32  7  1  0
 17 10  1  0
 31 27  2  0
M  END
>  <Binding energies>  (2) 
[-8.07]

>  <Ligand effiencies>  (2) 
[-0.23057142857142857]

>  <Interactions>  (2) 
["V-B:HIS:456:CE1:9041, V-A:GLU:543:CG:4907, V-B:GLU:543:CD:9880, V-B:GLU:543:CG:9879, V-B:HIS:456:CD2:9039, V-B:GLU:543:C:9874, V-A:GLU:543:CD:4908, V-A:HIS:456:CE1:4070, V-A:GLU:543:CB:4906, V-B:GLY:544:C:9884, V-B:LEU:475:CD2:9230, V-B:GLU:543:CB:9878, V-B:GLU:543:CA:9876, V-A:ILE:369:CG2:3237, V-A:ILE:369:CD1:3239, H-B:LYS:547:NZ:9923, H-B:TYR:539:OH:9850, V-A:ASP:366:CB:3212, V-A:ASP:366:CG:3213, V-A:ASP:366:CA:3210, V-A:ILE:369:CB:3236, H-A:TYR:484:OH:4348, V-A:TYR:539:CD1:4873, H-A:GLY:454:N:4050, V-A:ARG:545:CZ:4926, H-A:ARG:545:NH2:4928, V-B:GLY:544:CA:9886, V-A:ILE:369:CG1:3238"]

$$$$
1c_Ghoteimi_2023
     RDKit          3D

 34 37  0  0  0  0  0  0  0  0999 V2000
  127.8060  128.5770   74.3620 C   0  0  0  0  0  0  0  0  0  0  0  0
  128.4230  127.4540   73.7420 O   0  0  0  0  0  0  0  0  0  0  0  0
  128.5760  127.4400   72.3690 C   0  0  0  0  0  0  0  0  0  0  0  0
  127.4770  127.0260   71.6220 C   0  0  0  0  0  0  0  0  0  0  0  0
  127.5430  126.9770   70.2320 C   0  0  0  0  0  0  0  0  0  0  0  0
  128.7130  127.3410   69.5470 C   0  0  0  0  0  0  0  0  0  0  0  0
  128.7900  127.2860   68.0490 C   0  0  0  0  0  0  0  0  0  0  0  0
  128.2310  128.2700   67.2260 C   0  0  0  0  0  0  0  0  0  0  0  0
  128.3520  128.1890   65.8340 C   0  0  0  0  0  0  0  0  0  0  0  0
  127.7900  129.3080   65.0210 C   0  0  0  0  0  0  0  0  0  0  0  0
  126.4500  129.2970   64.6260 C   0  0  0  0  0  0  0  0  0  0  0  0
  125.9330  130.3290   63.8500 C   0  0  0  0  0  0  0  0  0  0  0  0
  126.7460  131.3890   63.4500 C   0  0  0  0  0  0  0  0  0  0  0  0
  126.1480  132.3700   62.6810 O   0  0  0  0  0  0  0  0  0  0  0  0
  126.9610  133.3740   62.0820 C   0  0  0  0  0  0  0  0  0  0  0  0
  128.0950  131.4010   63.8390 C   0  0  0  0  0  0  0  0  0  0  0  0
  128.6090  130.3660   64.6150 C   0  0  0  0  0  0  0  0  0  0  0  0
  129.0260  127.0750   65.2800 C   0  0  0  0  0  0  0  0  0  0  0  0
  129.1580  126.9150   63.8270 C   0  0  0  0  0  0  0  0  0  0  0  0
  129.2610  126.7900   62.6810 N   0  0  0  0  0  0  0  0  0  0  0  0
  129.5810  126.1300   66.1670 C   0  0  0  0  0  0  0  0  0  0  0  0
  130.5960  124.7750   65.6190 S   0  0  0  0  0  0  0  0  0  0  0  0
  132.2580  125.4940   65.4090 C   0  0  0  0  0  0  0  0  0  0  0  0
  132.8640  125.1590   64.0410 C   0  0  0  0  0  0  0  0  0  0  0  0
  133.9390  124.5610   63.9830 O   0  0  0  0  0  0  0  0  0  0  0  0
  132.1180  125.5260   62.9760 N   0  0  0  0  0  0  0  0  0  0  0  0
  132.3580  125.2090   61.6480 C   0  0  0  0  0  0  0  0  0  0  0  0
  131.9240  125.8370   60.5770 N   0  0  0  0  0  0  0  0  0  0  0  0
  132.3830  125.2820   59.4720 C   0  0  0  0  0  0  0  0  0  0  0  0
  133.2120  124.1770   59.6370 C   0  0  0  0  0  0  0  0  0  0  0  0
  133.3930  123.8530   61.3360 S   0  0  0  0  0  0  0  0  0  0  0  0
  129.4720  126.2390   67.5130 N   0  0  0  0  0  0  0  0  0  0  0  0
  129.8120  127.7630   70.3100 C   0  0  0  0  0  0  0  0  0  0  0  0
  129.7510  127.8110   71.7000 C   0  0  0  0  0  0  0  0  0  0  0  0
  1  2  1  0
  2  3  1  0
  3  4  2  0
  4  5  1  0
  5  6  2  0
  6  7  1  0
  7  8  2  0
  8  9  1  0
  9 10  1  0
 10 11  2  0
 11 12  1  0
 12 13  2  0
 13 14  1  0
 14 15  1  0
 13 16  1  0
 16 17  2  0
  9 18  2  0
 18 19  1  0
 19 20  3  0
 18 21  1  0
 21 22  1  0
 22 23  1  0
 23 24  1  0
 24 25  2  0
 24 26  1  0
 26 27  1  0
 27 28  2  0
 28 29  1  0
 29 30  2  0
 30 31  1  0
 21 32  2  0
  6 33  1  0
 33 34  2  0
 34  3  1  0
 32  7  1  0
 17 10  1  0
 31 27  1  0
M  END
>  <Binding energies>  (3) 
[-7.84]

>  <Ligand effiencies>  (3) 
[-0.224]

>  <Interactions>  (3) 
["V-B:HIS:456:CE1:9041, V-A:GLU:543:CG:4907, V-B:GLU:543:CD:9880, V-B:GLU:543:CG:9879, V-B:HIS:456:CD2:9039, V-B:GLU:543:C:9874, V-A:GLU:543:CD:4908, V-A:HIS:456:CE1:4070, V-A:GLU:543:CB:4906, V-B:GLY:544:C:9884, V-B:LEU:475:CD2:9230, V-B:GLU:543:CB:9878, V-B:TYR:539:CE2:9848, V-A:ILE:369:CG2:3237, H-B:LYS:547:NZ:9923, V-A:ASP:366:CB:3212, V-A:ASP:366:CG:3213, H-A:TYR:484:OH:4348, H-A:GLU:543:OE2:4910, H-A:GLY:454:N:4050, V-A:ARG:545:CZ:4926, H-A:ARG:545:NH2:4928, H-A:GLU:543:OE1:4909, V-B:GLY:544:CA:9886"]

$$$$
1d_Ghoteimi_2023
     RDKit          3D

 30 32  0  0  0  0  0  0  0  0999 V2000
  130.2160  131.5470   62.2790 C   0  0  0  0  0  0  0  0  0  0  0  0
  129.7160  132.1640   63.4560 O   0  0  0  0  0  0  0  0  0  0  0  0
  128.6770  131.6220   64.1240 C   0  0  0  0  0  0  0  0  0  0  0  0
  127.9990  132.1760   64.9910 O   0  0  0  0  0  0  0  0  0  0  0  0
  128.3990  130.1830   63.6970 C   0  0  0  0  0  0  0  0  0  0  0  0
  127.3650  129.4200   64.9820 S   0  0  0  0  0  0  0  0  0  0  0  0
  128.3370  128.1360   65.7380 C   0  0  0  0  0  0  0  0  0  0  0  0
  128.3050  128.1520   67.0920 N   0  0  0  0  0  0  0  0  0  0  0  0
  129.0060  127.2290   67.7980 C   0  0  0  0  0  0  0  0  0  0  0  0
  128.9120  127.3130   69.2940 C   0  0  0  0  0  0  0  0  0  0  0  0
  127.7290  126.9740   69.9700 C   0  0  0  0  0  0  0  0  0  0  0  0
  127.6420  127.0590   71.3560 C   0  0  0  0  0  0  0  0  0  0  0  0
  128.7320  127.4860   72.1100 C   0  0  0  0  0  0  0  0  0  0  0  0
  128.5540  127.5430   73.4790 O   0  0  0  0  0  0  0  0  0  0  0  0
  127.6220  128.4740   74.0190 C   0  0  0  0  0  0  0  0  0  0  0  0
  129.9200  127.8290   71.4500 C   0  0  0  0  0  0  0  0  0  0  0  0
  130.0040  127.7420   70.0630 C   0  0  0  0  0  0  0  0  0  0  0  0
  129.7570  126.2480   67.1390 C   0  0  0  0  0  0  0  0  0  0  0  0
  129.8210  126.2170   65.7410 C   0  0  0  0  0  0  0  0  0  0  0  0
  130.6480  125.1480   65.1030 C   0  0  0  0  0  0  0  0  0  0  0  0
  131.9730  125.4060   64.7390 C   0  0  0  0  0  0  0  0  0  0  0  0
  132.7500  124.4150   64.1450 C   0  0  0  0  0  0  0  0  0  0  0  0
  132.2210  123.1470   63.9070 C   0  0  0  0  0  0  0  0  0  0  0  0
  133.0610  122.2290   63.3070 O   0  0  0  0  0  0  0  0  0  0  0  0
  133.9780  122.6730   62.3130 C   0  0  0  0  0  0  0  0  0  0  0  0
  130.8950  122.8790   64.2820 C   0  0  0  0  0  0  0  0  0  0  0  0
  130.1210  123.8720   64.8770 C   0  0  0  0  0  0  0  0  0  0  0  0
  129.1080  127.2000   65.0110 C   0  0  0  0  0  0  0  0  0  0  0  0
  129.2220  127.2790   63.5510 C   0  0  0  0  0  0  0  0  0  0  0  0
  129.3130  127.3390   62.3990 N   0  0  0  0  0  0  0  0  0  0  0  0
  1  2  1  0
  2  3  1  0
  3  4  2  0
  3  5  1  0
  5  6  1  0
  6  7  1  0
  7  8  2  0
  8  9  1  0
  9 10  1  0
 10 11  2  0
 11 12  1  0
 12 13  2  0
 13 14  1  0
 14 15  1  0
 13 16  1  0
 16 17  2  0
  9 18  2  0
 18 19  1  0
 19 20  1  0
 20 21  2  0
 21 22  1  0
 22 23  2  0
 23 24  1  0
 24 25  1  0
 23 26  1  0
 26 27  2  0
 19 28  2  0
 28 29  1  0
 29 30  3  0
 28  7  1  0
 17 10  1  0
 27 20  1  0
M  END
>  <Binding energies>  (4) 
[-7.34]

>  <Ligand effiencies>  (4) 
[-0.24466666666666667]

>  <Interactions>  (4) 
["V-B:HIS:456:CE1:9041, V-A:GLU:543:CG:4907, V-B:GLU:543:CD:9880, V-A:TYR:484:CE2:4346, V-B:GLU:543:CG:9879, H-B:TYR:484:OH:9319, V-B:HIS:456:CD2:9039, V-B:GLU:543:C:9874, V-A:GLU:543:CD:4908, V-B:HIS:456:CG:9037, V-A:HIS:456:CE1:4070, V-A:GLU:543:CB:4906, V-B:GLY:544:C:9884, V-B:GLU:543:CB:9878, V-A:GLY:454:CA:4049, V-A:LEU:475:CD2:4259, V-A:ILE:369:CD1:3239, H-B:LYS:547:NZ:9923, H-A:GLY:454:N:4050, V-A:ARG:545:CZ:4926, V-A:ALA:541:CB:4892, H-A:ALA:541:N:4891"]

$$$$
1j_Grossjean_2025
     RDKit          3D

 20 21  0  0  0  0  0  0  0  0999 V2000
  129.3250  121.7190   60.6540 C   0  0  0  0  0  0  0  0  0  0  0  0
  130.3550  122.3540   61.5700 C   0  0  0  0  0  0  0  0  0  0  0  0
  131.6320  122.6760   61.1170 C   0  0  0  0  0  0  0  0  0  0  0  0
  132.5360  123.2720   62.0030 C   0  0  0  0  0  0  0  0  0  0  0  0
  133.9260  123.6330   61.4780 C   0  0  0  0  0  0  0  0  0  0  0  0
  132.1350  123.5240   63.3340 C   0  0  0  0  0  0  0  0  0  0  0  0
  133.0470  124.1960   64.2630 C   0  0  0  0  0  0  0  0  0  0  0  0
  133.7700  124.7270   64.9950 N   0  0  0  0  0  0  0  0  0  0  0  0
  130.8270  123.1400   63.7140 C   0  0  0  0  0  0  0  0  0  0  0  0
  130.1580  123.3790   65.3460 S   0  0  0  0  0  0  0  0  0  0  0  0
  130.2870  125.1480   65.7420 C   0  0  0  0  0  0  0  0  0  0  0  0
  129.9840  125.4300   67.2150 C   0  0  0  0  0  0  0  0  0  0  0  0
  129.5310  124.5280   67.9220 O   0  0  0  0  0  0  0  0  0  0  0  0
  130.2480  126.6860   67.6340 N   0  0  0  0  0  0  0  0  0  0  0  0
  130.0560  127.1910   68.9120 C   0  0  0  0  0  0  0  0  0  0  0  0
  130.9390  127.7840   69.6870 N   0  0  0  0  0  0  0  0  0  0  0  0
  130.4080  128.1380   70.8410 C   0  0  0  0  0  0  0  0  0  0  0  0
  129.0620  127.8340   71.0190 C   0  0  0  0  0  0  0  0  0  0  0  0
  128.4670  127.0410   69.5920 S   0  0  0  0  0  0  0  0  0  0  0  0
  129.9510  122.5820   62.8420 N   0  0  0  0  0  0  0  0  0  0  0  0
  1  2  1  0
  2  3  2  0
  3  4  1  0
  4  5  1  0
  4  6  2  0
  6  7  1  0
  7  8  3  0
  6  9  1  0
  9 10  1  0
 10 11  1  0
 11 12  1  0
 12 13  2  0
 12 14  1  0
 14 15  1  0
 15 16  2  0
 16 17  1  0
 17 18  2  0
 18 19  1  0
  9 20  2  0
 20  2  1  0
 19 15  1  0
M  END
>  <Binding energies>  (5) 
[-6.44]

>  <Ligand effiencies>  (5) 
[-0.3066666666666667]

>  <Interactions>  (5) 
["V-B:HIS:456:CE1:9041, V-B:GLU:543:CG:9879, V-B:HIS:456:CD2:9039, V-B:GLU:543:C:9874, V-A:GLU:543:CD:4908, V-A:HIS:456:CE1:4070, V-A:GLU:543:CB:4906, V-B:GLU:543:CB:9878, V-B:TYR:539:CD2:9846, V-B:TYR:539:CE2:9848, V-A:GLY:454:CA:4049, V-B:PRO:540:CA:9855, V-A:LEU:475:CD2:4259, V-B:TYR:539:C:9839, V-A:ILE:369:CD1:3239, V-A:GLU:543:C:4902, V-A:GLY:544:C:4912, H-A:TYR:484:OH:4348, H-A:GLU:543:OE2:4910, H-A:GLY:454:N:4050, H-A:ARG:545:NE:4924, H-A:ARG:545:NH2:4928, H-A:GLU:543:OE1:4909"]

$$$$
1o_Grossjean_2025
     RDKit          3D

 26 27  0  0  0  0  0  0  0  0999 V2000
  129.1990  129.2520   72.9800 C   0  0  0  0  0  0  0  0  0  0  0  0
  129.7430  127.9470   73.1120 O   0  0  0  0  0  0  0  0  0  0  0  0
  129.2370  126.9040   72.4050 C   0  0  0  0  0  0  0  0  0  0  0  0
  129.0110  125.7940   72.8980 O   0  0  0  0  0  0  0  0  0  0  0  0
  128.9760  127.2340   70.9640 C   0  0  0  0  0  0  0  0  0  0  0  0
  129.9600  127.8010   70.1420 C   0  0  0  0  0  0  0  0  0  0  0  0
  129.6860  128.0930   68.8080 C   0  0  0  0  0  0  0  0  0  0  0  0
  128.4250  127.8300   68.2710 C   0  0  0  0  0  0  0  0  0  0  0  0
  128.2590  128.1550   66.9100 N   0  0  0  0  0  0  0  0  0  0  0  0
  128.2110  129.3650   66.3090 C   0  0  0  0  0  0  0  0  0  0  0  0
  128.3550  130.4460   66.8790 O   0  0  0  0  0  0  0  0  0  0  0  0
  127.9850  129.3390   64.7900 C   0  0  0  0  0  0  0  0  0  0  0  0
  127.5260  130.6950   64.2180 C   0  0  0  0  0  0  0  0  0  0  0  0
  128.7940  131.9950   64.2910 S   0  0  0  0  0  0  0  0  0  0  0  0
  129.6440  132.0430   62.7260 C   0  0  0  0  0  0  0  0  0  0  0  0
  130.9820  131.8460   62.8320 N   0  0  0  0  0  0  0  0  0  0  0  0
  131.7330  131.8520   61.7060 C   0  0  0  0  0  0  0  0  0  0  0  0
  133.2180  131.6100   61.9020 C   0  0  0  0  0  0  0  0  0  0  0  0
  131.1880  132.0660   60.4420 C   0  0  0  0  0  0  0  0  0  0  0  0
  129.8140  132.2950   60.3230 C   0  0  0  0  0  0  0  0  0  0  0  0
  129.2430  132.5410   58.9270 C   0  0  0  0  0  0  0  0  0  0  0  0
  129.0100  132.2970   61.4860 C   0  0  0  0  0  0  0  0  0  0  0  0
  127.5790  132.5950   61.3880 C   0  0  0  0  0  0  0  0  0  0  0  0
  126.4490  132.8290   61.3080 N   0  0  0  0  0  0  0  0  0  0  0  0
  127.4370  127.2570   69.0860 C   0  0  0  0  0  0  0  0  0  0  0  0
  127.7140  126.9650   70.4180 C   0  0  0  0  0  0  0  0  0  0  0  0
  1  2  1  0
  2  3  1  0
  3  4  2  0
  3  5  1  0
  5  6  2  0
  6  7  1  0
  7  8  2  0
  8  9  1  0
  9 10  1  0
 10 11  2  0
 10 12  1  0
 12 13  1  0
 13 14  1  0
 14 15  1  0
 15 16  2  0
 16 17  1  0
 17 18  1  0
 17 19  2  0
 19 20  1  0
 20 21  1  0
 20 22  2  0
 22 23  1  0
 23 24  3  0
  8 25  1  0
 25 26  2  0
 26  5  1  0
 22 15  1  0
M  END
>  <Binding energies>  (6) 
[-7.77]

>  <Ligand effiencies>  (6) 
[-0.28777777777777774]

>  <Interactions>  (6) 
["V-B:HIS:456:CE1:9041, V-A:HIS:456:CD2:4068, V-A:GLU:543:CG:4907, V-B:GLU:543:CD:9880, H-B:TYR:484:OH:9319, V-B:HIS:456:CD2:9039, V-B:GLU:543:C:9874, V-A:GLU:543:CD:4908, V-A:HIS:456:CE1:4070, V-A:GLU:543:CB:4906, V-B:GLY:544:C:9884, V-B:GLU:543:CB:9878, H-B:LYS:547:NZ:9923, H-A:LYS:547:NZ:4951, V-A:TYR:539:C:4867, V-A:PRO:540:N:4884, V-A:PRO:540:CA:4883, H-A:GLU:543:OE2:4910, V-A:PRO:540:CB:4885, V-A:ALA:541:CB:4892, V-A:ASN:362:CB:3176, H-B:GLU:543:OE2:9882, H-A:ALA:541:N:4891, V-A:PRO:540:C:4881"]

$$$$
1p_Grossjean_2025
     RDKit          3D

 21 22  0  0  0  0  0  0  0  0999 V2000
  127.2120  123.2140   61.5460 C   0  0  0  0  0  0  0  0  0  0  0  0
  128.5680  122.5780   61.3010 C   0  0  0  0  0  0  0  0  0  0  0  0
  128.7540  121.2000   61.3990 C   0  0  0  0  0  0  0  0  0  0  0  0
  130.0290  120.6690   61.1760 C   0  0  0  0  0  0  0  0  0  0  0  0
  130.2140  119.1580   61.3030 C   0  0  0  0  0  0  0  0  0  0  0  0
  131.0930  121.5400   60.8490 C   0  0  0  0  0  0  0  0  0  0  0  0
  132.4460  121.0150   60.6580 C   0  0  0  0  0  0  0  0  0  0  0  0
  133.5150  120.5980   60.5070 N   0  0  0  0  0  0  0  0  0  0  0  0
  130.8070  122.9230   60.7490 C   0  0  0  0  0  0  0  0  0  0  0  0
  132.0240  124.1520   60.3380 S   0  0  0  0  0  0  0  0  0  0  0  0
  131.6580  124.7110   58.6480 C   0  0  0  0  0  0  0  0  0  0  0  0
  130.4290  125.6350   58.5520 C   0  0  0  0  0  0  0  0  0  0  0  0
  129.3120  125.0800   57.6550 C   0  0  0  0  0  0  0  0  0  0  0  0
  129.0800  125.6180   56.5710 O   0  0  0  0  0  0  0  0  0  0  0  0
  128.6580  124.0000   58.1370 N   0  0  0  0  0  0  0  0  0  0  0  0
  127.6170  123.3080   57.5320 C   0  0  0  0  0  0  0  0  0  0  0  0
  126.3190  123.8100   57.4420 C   0  0  0  0  0  0  0  0  0  0  0  0
  125.6030  122.8380   56.7820 C   0  0  0  0  0  0  0  0  0  0  0  0
  126.4260  121.8030   56.4910 O   0  0  0  0  0  0  0  0  0  0  0  0
  127.7000  122.1120   56.9720 N   0  0  0  0  0  0  0  0  0  0  0  0
  129.5710  123.4300   60.9880 N   0  0  0  0  0  0  0  0  0  0  0  0
  1  2  1  0
  2  3  2  0
  3  4  1  0
  4  5  1  0
  4  6  2  0
  6  7  1  0
  7  8  3  0
  6  9  1  0
  9 10  1  0
 10 11  1  0
 11 12  1  0
 12 13  1  0
 13 14  2  0
 13 15  1  0
 15 16  1  0
 16 17  1  0
 17 18  2  0
 18 19  1  0
 19 20  1  0
  9 21  2  0
 21  2  1  0
 20 16  2  0
M  END
>  <Binding energies>  (7) 
[-6.15]

>  <Ligand effiencies>  (7) 
[-0.27954545454545454]

>  <Interactions>  (7) 
["V-B:TYR:539:CD2:9846, V-B:TYR:539:CE2:9848, V-B:PRO:540:CA:9855, V-A:LEU:475:CD2:4259, V-B:PRO:540:CD:9859, V-B:PRO:540:CB:9857, V-B:PRO:540:N:9856, V-B:TYR:539:C:9839, V-A:ILE:369:CG2:3237, V-B:ALA:541:CB:9864, V-B:PRO:540:C:9853, V-B:LEU:363:CD1:8160, H-B:TYR:539:OH:9850, V-B:MET:535:CE:9807, V-B:TYR:539:CZ:9849, V-B:ALA:541:CA:9862, H-A:SER:385:OG:3410, H-B:TYR:539:N:9842"]

$$$$
2a_Ghoteimi_2023
     RDKit          3D

 48 53  0  0  0  0  0  0  0  0999 V2000
  134.2510  122.4450   62.3410 C   0  0  0  0  0  0  0  0  0  0  0  0
  133.7940  122.3300   60.8840 C   0  0  0  0  0  0  0  0  0  0  0  0
  134.4840  123.2910   60.0960 O   0  0  0  0  0  0  0  0  0  0  0  0
  133.8400  124.0100   59.1410 C   0  0  0  0  0  0  0  0  0  0  0  0
  133.9480  123.7850   57.9320 O   0  0  0  0  0  0  0  0  0  0  0  0
  132.9750  125.1020   59.7030 C   0  0  0  0  0  0  0  0  0  0  0  0
  132.8270  125.2940   61.0850 C   0  0  0  0  0  0  0  0  0  0  0  0
  132.0190  126.3170   61.5730 C   0  0  0  0  0  0  0  0  0  0  0  0
  131.3470  127.1700   60.6950 C   0  0  0  0  0  0  0  0  0  0  0  0
  130.5550  128.1660   61.2970 N   0  0  0  0  0  0  0  0  0  0  0  0
  129.9680  129.2530   60.7500 C   0  0  0  0  0  0  0  0  0  0  0  0
  130.0740  129.5980   59.5720 O   0  0  0  0  0  0  0  0  0  0  0  0
  129.1500  130.1120   61.7230 C   0  0  0  0  0  0  0  0  0  0  0  0
  127.6610  129.2940   62.3810 S   0  0  0  0  0  0  0  0  0  0  0  0
  128.2410  127.8300   63.2060 C   0  0  0  0  0  0  0  0  0  0  0  0
  128.3860  127.9760   64.5430 N   0  0  0  0  0  0  0  0  0  0  0  0
  128.8320  126.9310   65.2840 C   0  0  0  0  0  0  0  0  0  0  0  0
  128.9770  127.1680   66.7530 C   0  0  0  0  0  0  0  0  0  0  0  0
  129.3460  126.1340   67.6220 C   0  0  0  0  0  0  0  0  0  0  0  0
  129.4680  126.3570   68.9900 C   0  0  0  0  0  0  0  0  0  0  0  0
  129.2330  127.6250   69.5410 C   0  0  0  0  0  0  0  0  0  0  0  0
  129.3300  127.8280   70.9220 N   0  0  0  0  0  0  0  0  0  0  0  0
  130.5090  127.3710   71.6870 C   0  0  0  0  0  0  0  0  0  0  0  0
  130.6130  127.9880   73.0970 C   0  0  0  0  0  0  0  0  0  0  0  0
  129.4160  127.7520   73.8210 O   0  0  0  0  0  0  0  0  0  0  0  0
  128.2970  128.3380   73.1750 C   0  0  0  0  0  0  0  0  0  0  0  0
  128.1210  127.7330   71.7660 C   0  0  0  0  0  0  0  0  0  0  0  0
  128.8520  128.6560   68.6670 C   0  0  0  0  0  0  0  0  0  0  0  0
  128.7320  128.4330   67.2990 C   0  0  0  0  0  0  0  0  0  0  0  0
  129.1320  125.7010   64.6920 C   0  0  0  0  0  0  0  0  0  0  0  0
  128.9890  125.5260   63.3080 C   0  0  0  0  0  0  0  0  0  0  0  0
  129.3330  124.1880   62.7400 C   0  0  0  0  0  0  0  0  0  0  0  0
  128.3740  123.4560   62.0350 C   0  0  0  0  0  0  0  0  0  0  0  0
  128.6780  122.2000   61.5190 C   0  0  0  0  0  0  0  0  0  0  0  0
  129.9530  121.6390   61.6890 C   0  0  0  0  0  0  0  0  0  0  0  0
  130.2730  120.3710   61.1940 N   0  0  0  0  0  0  0  0  0  0  0  0
  129.8200  119.1730   61.9280 C   0  0  0  0  0  0  0  0  0  0  0  0
  129.8950  117.8790   61.0890 C   0  0  0  0  0  0  0  0  0  0  0  0
  131.2120  117.6980   60.5920 O   0  0  0  0  0  0  0  0  0  0  0  0
  131.6160  118.7800   59.7670 C   0  0  0  0  0  0  0  0  0  0  0  0
  131.5820  120.0970   60.5690 C   0  0  0  0  0  0  0  0  0  0  0  0
  130.9060  122.3750   62.4070 C   0  0  0  0  0  0  0  0  0  0  0  0
  130.6010  123.6300   62.9250 C   0  0  0  0  0  0  0  0  0  0  0  0
  128.5250  126.6190   62.5360 C   0  0  0  0  0  0  0  0  0  0  0  0
  128.3020  126.4800   61.0940 C   0  0  0  0  0  0  0  0  0  0  0  0
  128.1280  126.3680   59.9550 N   0  0  0  0  0  0  0  0  0  0  0  0
  131.4850  126.9790   59.3120 C   0  0  0  0  0  0  0  0  0  0  0  0
  132.2940  125.9560   58.8250 C   0  0  0  0  0  0  0  0  0  0  0  0
  1  2  1  0
  2  3  1  0
  3  4  1  0
  4  5  2  0
  4  6  1  0
  6  7  2  0
  7  8  1  0
  8  9  2  0
  9 10  1  0
 10 11  1  0
 11 12  2  0
 11 13  1  0
 13 14  1  0
 14 15  1  0
 15 16  2  0
 16 17  1  0
 17 18  1  0
 18 19  2  0
 19 20  1  0
 20 21  2  0
 21 22  1  0
 22 23  1  0
 23 24  1  0
 24 25  1  0
 25 26  1  0
 26 27  1  0
 21 28  1  0
 28 29  2  0
 17 30  2  0
 30 31  1  0
 31 32  1  0
 32 33  2  0
 33 34  1  0
 34 35  2  0
 35 36  1  0
 36 37  1  0
 37 38  1  0
 38 39  1  0
 39 40  1  0
 40 41  1  0
 35 42  1  0
 42 43  2  0
 31 44  2  0
 44 45  1  0
 45 46  3  0
  9 47  1  0
 47 48  2  0
 48  6  1  0
 44 15  1  0
 29 18  1  0
 43 32  1  0
 27 22  1  0
 41 36  1  0
M  END
>  <Binding energies>  (8) 
[-8.9]

>  <Ligand effiencies>  (8) 
[-0.1816326530612245]

>  <Interactions>  (8) 
["V-B:HIS:456:CE1:9041, V-A:HIS:456:CD2:4068, V-A:GLU:543:CG:4907, V-B:GLU:543:CD:9880, V-B:GLU:543:CG:9879, V-B:HIS:456:CD2:9039, V-A:GLU:543:CD:4908, V-B:HIS:456:CG:9037, V-A:HIS:456:CE1:4070, V-A:GLU:543:CB:4906, V-B:GLU:543:CB:9878, V-B:GLU:543:CA:9876, V-B:TYR:539:CD2:9846, V-B:TYR:539:CE2:9848, V-A:GLY:454:CA:4049, V-B:PRO:540:CA:9855, V-A:LEU:475:CD2:4259, V-B:TYR:539:C:9839, V-A:ILE:369:CG2:3237, V-A:ILE:369:CD1:3239, H-B:LYS:547:NZ:9923, V-A:GLY:544:C:4912, V-B:ALA:541:CB:9864, V-B:PRO:540:C:9853, V-B:TYR:539:CG:9844, H-B:TYR:539:OH:9850, H-A:LYS:547:NZ:4951, V-A:ASP:366:CB:3212, V-A:ASP:366:CG:3213, H-A:SER:385:OG:3410, V-A:ASP:366:CA:3210, V-A:ILE:369:CB:3236, H-A:ASN:370:N:3244, H-A:GLU:543:OE1:4909, V-B:TYR:539:CB:9843, V-A:LEU:475:CD1:4258, V-A:LEU:475:CG:4257, V-A:HIS:383:NE2:3394, V-A:PRO:482:CB:4326, H-A:HIS:383:HE2:3395"]

$$$$
2aa_Ghoteimi_2023
     RDKit          3D

 48 53  0  0  0  0  0  0  0  0999 V2000
  133.1660  130.6180   57.6650 C   0  0  0  0  0  0  0  0  0  0  0  0
  131.7230  130.2990   57.2630 C   0  0  0  0  0  0  0  0  0  0  0  0
  131.1210  131.4610   56.7070 O   0  0  0  0  0  0  0  0  0  0  0  0
  130.7900  132.5220   57.4880 C   0  0  0  0  0  0  0  0  0  0  0  0
  130.8430  133.6940   57.1020 O   0  0  0  0  0  0  0  0  0  0  0  0
  130.3370  132.1270   58.8650 C   0  0  0  0  0  0  0  0  0  0  0  0
  131.2420  131.9700   59.9250 C   0  0  0  0  0  0  0  0  0  0  0  0
  130.7910  131.6070   61.1910 C   0  0  0  0  0  0  0  0  0  0  0  0
  129.4320  131.3860   61.4210 C   0  0  0  0  0  0  0  0  0  0  0  0
  129.0860  131.0260   62.7380 N   0  0  0  0  0  0  0  0  0  0  0  0
  128.5620  131.7780   63.7310 C   0  0  0  0  0  0  0  0  0  0  0  0
  128.2560  132.9670   63.6320 O   0  0  0  0  0  0  0  0  0  0  0  0
  128.3340  131.0260   65.0480 C   0  0  0  0  0  0  0  0  0  0  0  0
  127.7790  129.7340   64.7760 O   0  0  0  0  0  0  0  0  0  0  0  0
  128.3670  128.5960   65.3120 C   0  0  0  0  0  0  0  0  0  0  0  0
  128.4770  128.5090   66.6670 N   0  0  0  0  0  0  0  0  0  0  0  0
  129.0430  127.4090   67.2230 C   0  0  0  0  0  0  0  0  0  0  0  0
  129.1330  127.3860   68.7160 C   0  0  0  0  0  0  0  0  0  0  0  0
  130.3090  127.7750   69.3670 C   0  0  0  0  0  0  0  0  0  0  0  0
  130.3970  127.7620   70.7570 C   0  0  0  0  0  0  0  0  0  0  0  0
  129.3060  127.3710   71.5490 C   0  0  0  0  0  0  0  0  0  0  0  0
  129.3810  127.3400   72.9460 N   0  0  0  0  0  0  0  0  0  0  0  0
  130.5790  126.8270   73.6410 C   0  0  0  0  0  0  0  0  0  0  0  0
  130.3530  126.5370   75.1400 C   0  0  0  0  0  0  0  0  0  0  0  0
  129.8480  127.6930   75.7870 O   0  0  0  0  0  0  0  0  0  0  0  0
  128.6060  128.0980   75.2320 C   0  0  0  0  0  0  0  0  0  0  0  0
  128.7800  128.4350   73.7360 C   0  0  0  0  0  0  0  0  0  0  0  0
  128.1370  126.9610   70.8910 C   0  0  0  0  0  0  0  0  0  0  0  0
  128.0510  126.9720   69.5020 C   0  0  0  0  0  0  0  0  0  0  0  0
  129.5310  126.3680   66.4290 C   0  0  0  0  0  0  0  0  0  0  0  0
  129.4410  126.4370   65.0330 C   0  0  0  0  0  0  0  0  0  0  0  0
  130.0040  125.3050   64.2360 C   0  0  0  0  0  0  0  0  0  0  0  0
  129.1540  124.4340   63.5490 C   0  0  0  0  0  0  0  0  0  0  0  0
  129.6710  123.3660   62.8200 C   0  0  0  0  0  0  0  0  0  0  0  0
  131.0530  123.1290   62.7700 C   0  0  0  0  0  0  0  0  0  0  0  0
  131.5940  122.0650   62.0430 N   0  0  0  0  0  0  0  0  0  0  0  0
  132.9140  122.1710   61.3930 C   0  0  0  0  0  0  0  0  0  0  0  0
  133.4930  120.8100   60.9510 C   0  0  0  0  0  0  0  0  0  0  0  0
  132.5670  120.1400   60.1090 O   0  0  0  0  0  0  0  0  0  0  0  0
  131.3360  119.8990   60.7730 C   0  0  0  0  0  0  0  0  0  0  0  0
  130.7000  121.2360   61.2090 C   0  0  0  0  0  0  0  0  0  0  0  0
  131.8980  124.0120   63.4570 C   0  0  0  0  0  0  0  0  0  0  0  0
  131.3820  125.0800   64.1840 C   0  0  0  0  0  0  0  0  0  0  0  0
  128.8290  127.5760   64.4600 C   0  0  0  0  0  0  0  0  0  0  0  0
  128.6460  127.7120   63.0130 C   0  0  0  0  0  0  0  0  0  0  0  0
  128.5020  127.8180   61.8700 N   0  0  0  0  0  0  0  0  0  0  0  0
  128.5210  131.5480   60.3680 C   0  0  0  0  0  0  0  0  0  0  0  0
  128.9740  131.9140   59.1040 C   0  0  0  0  0  0  0  0  0  0  0  0
  1  2  1  0
  2  3  1  0
  3  4  1  0
  4  5  2  0
  4  6  1  0
  6  7  2  0
  7  8  1  0
  8  9  2  0
  9 10  1  0
 10 11  1  0
 11 12  2  0
 11 13  1  0
 13 14  1  0
 14 15  1  0
 15 16  2  0
 16 17  1  0
 17 18  1  0
 18 19  2  0
 19 20  1  0
 20 21  2  0
 21 22  1  0
 22 23  1  0
 23 24  1  0
 24 25  1  0
 25 26  1  0
 26 27  1  0
 21 28  1  0
 28 29  2  0
 17 30  2  0
 30 31  1  0
 31 32  1  0
 32 33  2  0
 33 34  1  0
 34 35  2  0
 35 36  1  0
 36 37  1  0
 37 38  1  0
 38 39  1  0
 39 40  1  0
 40 41  1  0
 35 42  1  0
 42 43  2  0
 31 44  2  0
 44 45  1  0
 45 46  3  0
  9 47  1  0
 47 48  2  0
 48  6  1  0
 44 15  1  0
 29 18  1  0
 43 32  1  0
 27 22  1  0
 41 36  1  0
M  END
>  <Binding energies>  (9) 
[-10.15]

>  <Ligand effiencies>  (9) 
[-0.20714285714285716]

>  <Interactions>  (9) 
["V-B:HIS:456:CE1:9041, V-A:HIS:456:CD2:4068, V-A:GLU:543:CG:4907, V-B:GLU:543:CD:9880, V-B:GLU:543:CG:9879, H-B:TYR:484:OH:9319, V-B:TYR:484:CZ:9318, V-B:HIS:456:CD2:9039, V-B:GLU:543:C:9874, V-A:GLU:543:CD:4908, V-A:HIS:456:CE1:4070, V-A:GLU:543:CB:4906, V-B:GLU:543:CB:9878, V-B:TYR:539:CD2:9846, V-B:TYR:539:CE2:9848, V-A:LEU:475:CD2:4259, V-A:ILE:369:CG2:3237, H-B:LYS:547:NZ:9923, V-A:GLU:543:C:4902, V-A:GLY:544:C:4912, H-A:LYS:547:NZ:4951, V-A:ASP:366:CB:3212, H-A:TYR:531:OH:4795, H-A:SER:385:OG:3410, H-A:TYR:539:N:4870, V-A:PRO:540:N:4884, V-A:PRO:540:CA:4883, V-A:SER:385:C:3405, V-A:PRO:540:CB:4885, V-A:TYR:531:CE2:4793, V-A:LEU:363:CD1:3189, V-A:TYR:531:CZ:4794, H-A:GLU:543:OE1:4909, V-A:ALA:541:CB:4892, V-A:SER:385:CA:3407, V-A:SER:385:CB:3409, V-B:TYR:484:CE2:9317"]

$$$$
2b_Ghoteimi_2023
     RDKit          3D

 42 47  0  0  0  0  0  0  0  0999 V2000
  128.5570  127.8330   61.8710 N   0  0  0  0  0  0  0  0  0  0  0  0
  128.6290  127.7560   63.0240 C   0  0  0  0  0  0  0  0  0  0  0  0
  128.7250  127.6540   64.4830 C   0  0  0  0  0  0  0  0  0  0  0  0
  129.4220  126.5760   65.0850 C   0  0  0  0  0  0  0  0  0  0  0  0
  130.0960  125.4900   64.3150 C   0  0  0  0  0  0  0  0  0  0  0  0
  131.4880  125.3810   64.3220 C   0  0  0  0  0  0  0  0  0  0  0  0
  132.1220  124.3710   63.6050 C   0  0  0  0  0  0  0  0  0  0  0  0
  131.3810  123.4510   62.8460 C   0  0  0  0  0  0  0  0  0  0  0  0
  131.9940  122.4210   62.1290 N   0  0  0  0  0  0  0  0  0  0  0  0
  131.2220  121.7120   61.0890 C   0  0  0  0  0  0  0  0  0  0  0  0
  131.8670  120.3800   60.6510 C   0  0  0  0  0  0  0  0  0  0  0  0
  133.2060  120.5990   60.2340 O   0  0  0  0  0  0  0  0  0  0  0  0
  133.9970  121.1480   61.2760 C   0  0  0  0  0  0  0  0  0  0  0  0
  133.4100  122.5040   61.7220 C   0  0  0  0  0  0  0  0  0  0  0  0
  129.9850  123.5700   62.8430 C   0  0  0  0  0  0  0  0  0  0  0  0
  129.3500  124.5780   63.5630 C   0  0  0  0  0  0  0  0  0  0  0  0
  129.4910  126.5250   66.4830 C   0  0  0  0  0  0  0  0  0  0  0  0
  128.9110  127.5330   67.2580 C   0  0  0  0  0  0  0  0  0  0  0  0
  128.9820  127.5410   68.7520 C   0  0  0  0  0  0  0  0  0  0  0  0
  130.0950  128.0750   69.4110 C   0  0  0  0  0  0  0  0  0  0  0  0
  130.1610  128.1000   70.8010 C   0  0  0  0  0  0  0  0  0  0  0  0
  129.1210  127.5790   71.5870 C   0  0  0  0  0  0  0  0  0  0  0  0
  129.1590  127.6240   72.9850 N   0  0  0  0  0  0  0  0  0  0  0  0
  127.9890  128.1200   73.7380 C   0  0  0  0  0  0  0  0  0  0  0  0
  128.3050  128.4790   75.2060 C   0  0  0  0  0  0  0  0  0  0  0  0
  128.8980  127.3680   75.8600 O   0  0  0  0  0  0  0  0  0  0  0  0
  130.1140  126.9870   75.2380 C   0  0  0  0  0  0  0  0  0  0  0  0
  129.8550  126.5860   73.7700 C   0  0  0  0  0  0  0  0  0  0  0  0
  128.0040  127.0500   70.9220 C   0  0  0  0  0  0  0  0  0  0  0  0
  127.9380  127.0290   69.5320 C   0  0  0  0  0  0  0  0  0  0  0  0
  128.2460  128.5650   66.6790 N   0  0  0  0  0  0  0  0  0  0  0  0
  128.1370  128.6200   65.3310 C   0  0  0  0  0  0  0  0  0  0  0  0
  127.2300  130.0340   64.7450 S   0  0  0  0  0  0  0  0  0  0  0  0
  127.6680  130.2830   62.9980 C   0  0  0  0  0  0  0  0  0  0  0  0
  128.8650  131.2200   62.8330 C   0  0  0  0  0  0  0  0  0  0  0  0
  128.7670  132.3940   63.1960 O   0  0  0  0  0  0  0  0  0  0  0  0
  129.9650  130.6670   62.2780 N   0  0  0  0  0  0  0  0  0  0  0  0
  131.1820  131.2850   62.0260 C   0  0  0  0  0  0  0  0  0  0  0  0
  131.9710  130.9860   60.9160 C   0  0  0  0  0  0  0  0  0  0  0  0
  133.0740  131.7990   61.0320 C   0  0  0  0  0  0  0  0  0  0  0  0
  132.9550  132.5490   62.1520 O   0  0  0  0  0  0  0  0  0  0  0  0
  131.7500  132.2150   62.7740 N   0  0  0  0  0  0  0  0  0  0  0  0
  1  2  3  0
  2  3  1  0
  3  4  2  0
  4  5  1  0
  5  6  2  0
  6  7  1  0
  7  8  2  0
  8  9  1  0
  9 10  1  0
 10 11  1  0
 11 12  1  0
 12 13  1  0
 13 14  1  0
  8 15  1  0
 15 16  2  0
  4 17  1  0
 17 18  2  0
 18 19  1  0
 19 20  2  0
 20 21  1  0
 21 22  2  0
 22 23  1  0
 23 24  1  0
 24 25  1  0
 25 26  1  0
 26 27  1  0
 27 28  1  0
 22 29  1  0
 29 30  2  0
 18 31  1  0
 31 32  2  0
 32 33  1  0
 33 34  1  0
 34 35  1  0
 35 36  2  0
 35 37  1  0
 37 38  1  0
 38 39  1  0
 39 40  2  0
 40 41  1  0
 41 42  1  0
 32  3  1  0
 42 38  2  0
 16  5  1  0
 30 19  1  0
 14  9  1  0
 28 23  1  0
M  END
>  <Binding energies>  (10) 
[-10.19]

>  <Ligand effiencies>  (10) 
[-0.2369767441860465]

>  <Interactions>  (10) 
["V-B:HIS:456:CE1:9041, V-A:HIS:456:CD2:4068, V-A:GLU:543:CG:4907, V-B:GLU:543:CD:9880, V-B:GLU:543:CG:9879, H-B:TYR:484:OH:9319, V-B:HIS:456:CD2:9039, V-B:GLU:543:C:9874, V-A:GLU:543:CD:4908, V-A:HIS:456:CE1:4070, V-A:GLU:543:CB:4906, V-B:GLU:543:CB:9878, V-B:TYR:539:CD2:9846, V-B:TYR:539:CE2:9848, V-A:LEU:475:CD2:4259, V-A:ILE:369:CG2:3237, V-A:ILE:369:CD1:3239, H-B:LYS:547:NZ:9923, V-A:GLU:543:C:4902, V-A:GLY:544:C:4912, H-A:SER:385:OG:3410, V-A:PRO:540:CA:4883, V-A:SER:385:C:3405, V-A:PRO:540:CB:4885, H-A:GLU:543:OE1:4909, V-A:SER:385:CA:3407, V-A:SER:385:CB:3409, H-A:ALA:541:N:4891"]

$$$$
2c_Ghoteimi_2023
     RDKit          3D

 42 47  0  0  0  0  0  0  0  0999 V2000
  130.4410  124.7420   58.7160 N   0  0  0  0  0  0  0  0  0  0  0  0
  130.3020  125.0190   59.8310 C   0  0  0  0  0  0  0  0  0  0  0  0
  130.1250  125.3750   61.2420 C   0  0  0  0  0  0  0  0  0  0  0  0
  129.9240  126.7250   61.6250 C   0  0  0  0  0  0  0  0  0  0  0  0
  129.8780  127.8650   60.6620 C   0  0  0  0  0  0  0  0  0  0  0  0
  131.0230  128.6280   60.4220 C   0  0  0  0  0  0  0  0  0  0  0  0
  130.9900  129.6900   59.5220 C   0  0  0  0  0  0  0  0  0  0  0  0
  129.8080  130.0280   58.8460 C   0  0  0  0  0  0  0  0  0  0  0  0
  129.7570  131.0760   57.9240 N   0  0  0  0  0  0  0  0  0  0  0  0
  128.4970  131.8250   57.7500 C   0  0  0  0  0  0  0  0  0  0  0  0
  128.4640  132.6710   56.4590 C   0  0  0  0  0  0  0  0  0  0  0  0
  129.5820  133.5440   56.4210 O   0  0  0  0  0  0  0  0  0  0  0  0
  130.8080  132.8290   56.4440 C   0  0  0  0  0  0  0  0  0  0  0  0
  130.9020  131.9870   57.7330 C   0  0  0  0  0  0  0  0  0  0  0  0
  128.6620  129.2580   59.0960 C   0  0  0  0  0  0  0  0  0  0  0  0
  128.6960  128.1950   59.9950 C   0  0  0  0  0  0  0  0  0  0  0  0
  129.7560  127.0130   62.9860 C   0  0  0  0  0  0  0  0  0  0  0  0
  129.7610  125.9860   63.9340 C   0  0  0  0  0  0  0  0  0  0  0  0
  129.5690  126.2400   65.3940 C   0  0  0  0  0  0  0  0  0  0  0  0
  128.8740  127.3690   65.8380 C   0  0  0  0  0  0  0  0  0  0  0  0
  128.6870  127.6090   67.1970 C   0  0  0  0  0  0  0  0  0  0  0  0
  129.2000  126.7310   68.1650 C   0  0  0  0  0  0  0  0  0  0  0  0
  129.0000  126.9440   69.5330 N   0  0  0  0  0  0  0  0  0  0  0  0
  129.9010  127.8480   70.2770 C   0  0  0  0  0  0  0  0  0  0  0  0
  129.8100  127.6900   71.8100 C   0  0  0  0  0  0  0  0  0  0  0  0
  128.4680  127.8530   72.2360 O   0  0  0  0  0  0  0  0  0  0  0  0
  127.6150  126.8820   71.6500 C   0  0  0  0  0  0  0  0  0  0  0  0
  127.6420  127.0110   70.1130 C   0  0  0  0  0  0  0  0  0  0  0  0
  129.8860  125.5940   67.7160 C   0  0  0  0  0  0  0  0  0  0  0  0
  130.0710  125.3550   66.3560 C   0  0  0  0  0  0  0  0  0  0  0  0
  129.9520  124.6940   63.5640 N   0  0  0  0  0  0  0  0  0  0  0  0
  130.1480  124.3930   62.2580 C   0  0  0  0  0  0  0  0  0  0  0  0
  130.3920  122.6570   61.9560 S   0  0  0  0  0  0  0  0  0  0  0  0
  128.7570  121.8630   61.9820 C   0  0  0  0  0  0  0  0  0  0  0  0
  127.8360  122.4100   60.8890 C   0  0  0  0  0  0  0  0  0  0  0  0
  126.7380  122.8740   61.2000 O   0  0  0  0  0  0  0  0  0  0  0  0
  128.3170  122.3330   59.6300 N   0  0  0  0  0  0  0  0  0  0  0  0
  127.6890  122.7710   58.4730 C   0  0  0  0  0  0  0  0  0  0  0  0
  127.4690  122.0940   57.3680 N   0  0  0  0  0  0  0  0  0  0  0  0
  126.8380  122.8240   56.4690 C   0  0  0  0  0  0  0  0  0  0  0  0
  126.5340  124.1300   56.8420 C   0  0  0  0  0  0  0  0  0  0  0  0
  127.1090  124.4050   58.4590 S   0  0  0  0  0  0  0  0  0  0  0  0
  1  2  3  0
  2  3  1  0
  3  4  2  0
  4  5  1  0
  5  6  2  0
  6  7  1  0
  7  8  2  0
  8  9  1  0
  9 10  1  0
 10 11  1  0
 11 12  1  0
 12 13  1  0
 13 14  1  0
  8 15  1  0
 15 16  2  0
  4 17  1  0
 17 18  2  0
 18 19  1  0
 19 20  2  0
 20 21  1  0
 21 22  2  0
 22 23  1  0
 23 24  1  0
 24 25  1  0
 25 26  1  0
 26 27  1  0
 27 28  1  0
 22 29  1  0
 29 30  2  0
 18 31  1  0
 31 32  2  0
 32 33  1  0
 33 34  1  0
 34 35  1  0
 35 36  2  0
 35 37  1  0
 37 38  1  0
 38 39  2  0
 39 40  1  0
 40 41  2  0
 41 42  1  0
 32  3  1  0
 42 38  1  0
 16  5  1  0
 30 19  1  0
 14  9  1  0
 28 23  1  0
M  END
>  <Binding energies>  (11) 
[-9.81]

>  <Ligand effiencies>  (11) 
[-0.22813953488372093]

>  <Interactions>  (11) 
["V-B:HIS:456:CE1:9041, V-B:GLU:543:CD:9880, V-B:GLU:543:CG:9879, V-B:HIS:456:CD2:9039, V-B:GLU:543:C:9874, V-A:GLU:543:CD:4908, V-A:HIS:456:CE1:4070, V-A:GLU:543:CB:4906, V-B:GLY:544:C:9884, V-B:GLU:543:CB:9878, V-B:TYR:539:CD2:9846, V-B:TYR:539:CE2:9848, V-B:PRO:540:CA:9855, V-B:PRO:540:N:9856, V-B:TYR:539:C:9839, V-B:ALA:541:CB:9864, V-B:PRO:540:C:9853, H-B:TYR:539:OH:9850, V-B:MET:535:CE:9807, V-B:ALA:541:CA:9862, H-B:ALA:541:N:9863, V-A:ASP:366:CG:3213, H-A:TYR:539:N:4870, V-A:TYR:539:CE1:4875, V-A:TYR:539:CD1:4873, H-B:TYR:539:O:9840, V-A:MET:535:CE:4835, V-A:ILE:538:CA:4860, H-B:TYR:539:N:9842, V-A:ILE:538:CB:4862, V-A:ILE:538:CG2:4863, V-B:GLY:544:CA:9886, V-A:TYR:539:CZ:4877"]

$$$$
2j_Grossjean_2025
     RDKit          3D

 23 24  0  0  0  0  0  0  0  0999 V2000
  128.5480  121.7500   61.1840 C   0  0  0  0  0  0  0  0  0  0  0  0
  129.7880  122.3600   61.8100 C   0  0  0  0  0  0  0  0  0  0  0  0
  131.0620  121.8760   61.5260 C   0  0  0  0  0  0  0  0  0  0  0  0
  132.1790  122.4760   62.1280 C   0  0  0  0  0  0  0  0  0  0  0  0
  133.5810  121.9280   61.8020 C   0  0  0  0  0  0  0  0  0  0  0  0
  134.3590  122.9100   61.3450 F   0  0  0  0  0  0  0  0  0  0  0  0
  134.1360  121.4110   62.8990 F   0  0  0  0  0  0  0  0  0  0  0  0
  133.5570  120.9690   60.8740 F   0  0  0  0  0  0  0  0  0  0  0  0
  131.9680  123.5630   63.0120 C   0  0  0  0  0  0  0  0  0  0  0  0
  133.0980  124.2280   63.6690 C   0  0  0  0  0  0  0  0  0  0  0  0
  133.9900  124.7530   64.1870 N   0  0  0  0  0  0  0  0  0  0  0  0
  130.6380  123.9900   63.2440 C   0  0  0  0  0  0  0  0  0  0  0  0
  130.2550  125.3510   64.3370 S   0  0  0  0  0  0  0  0  0  0  0  0
  131.1530  125.0980   65.9060 C   0  0  0  0  0  0  0  0  0  0  0  0
  130.3080  125.2980   67.1730 C   0  0  0  0  0  0  0  0  0  0  0  0
  129.6090  124.3840   67.6150 O   0  0  0  0  0  0  0  0  0  0  0  0
  130.3950  126.5300   67.7230 N   0  0  0  0  0  0  0  0  0  0  0  0
  129.7430  126.9770   68.8640 C   0  0  0  0  0  0  0  0  0  0  0  0
  128.5180  126.6980   69.2550 N   0  0  0  0  0  0  0  0  0  0  0  0
  128.2230  127.2950   70.3940 C   0  0  0  0  0  0  0  0  0  0  0  0
  129.2250  128.0820   70.9530 C   0  0  0  0  0  0  0  0  0  0  0  0
  130.6250  128.0310   69.9220 S   0  0  0  0  0  0  0  0  0  0  0  0
  129.5710  123.3970   62.6500 N   0  0  0  0  0  0  0  0  0  0  0  0
  1  2  1  0
  2  3  2  0
  3  4  1  0
  4  5  1  0
  5  6  1  0
  5  7  1  0
  5  8  1  0
  4  9  2  0
  9 10  1  0
 10 11  3  0
  9 12  1  0
 12 13  1  0
 13 14  1  0
 14 15  1  0
 15 16  2  0
 15 17  1  0
 17 18  1  0
 18 19  2  0
 19 20  1  0
 20 21  2  0
 21 22  1  0
 12 23  2  0
 23  2  1  0
 22 18  1  0
M  END
>  <Binding energies>  (12) 
[-6.19]

>  <Ligand effiencies>  (12) 
[-0.2579166666666667]

>  <Interactions>  (12) 
["V-B:HIS:456:CE1:9041, V-A:TYR:484:CE2:4346, V-B:HIS:456:CD2:9039, V-A:GLU:543:CD:4908, V-A:HIS:456:CE1:4070, V-A:GLU:543:CB:4906, V-A:TYR:484:CZ:4347, V-B:GLU:543:CB:9878, V-A:GLY:454:CA:4049, V-B:PRO:540:CA:9855, V-A:LEU:475:CD2:4259, V-B:TYR:539:C:9839, V-A:ILE:369:CG2:3237, V-A:ILE:369:CD1:3239, V-A:GLU:543:C:4902, V-A:GLY:544:C:4912, V-B:ALA:541:CB:9864, V-B:PRO:540:C:9853, H-A:TYR:484:OH:4348, V-A:SER:385:C:3405, H-A:GLU:543:OE2:4910, H-A:GLY:454:N:4050, H-A:ARG:545:NH1:4927, H-A:ARG:545:NE:4924, H-A:ARG:545:NH2:4928, V-A:SER:385:CA:3407, V-A:SER:385:CB:3409"]

$$$$
3ab_Grossjean_2025
     RDKit          3D

 33 35  0  0  0  0  0  0  0  0999 V2000
  130.6200  126.6270   73.4620 C   0  0  0  0  0  0  0  0  0  0  0  0
  129.9210  127.8490   73.6540 O   0  0  0  0  0  0  0  0  0  0  0  0
  129.8870  128.7950   72.6810 C   0  0  0  0  0  0  0  0  0  0  0  0
  129.8010  130.0050   72.9100 O   0  0  0  0  0  0  0  0  0  0  0  0
  129.9680  128.2230   71.2950 C   0  0  0  0  0  0  0  0  0  0  0  0
  131.1470  128.2780   70.5360 C   0  0  0  0  0  0  0  0  0  0  0  0
  131.1930  127.7380   69.2530 C   0  0  0  0  0  0  0  0  0  0  0  0
  130.0520  127.1310   68.7040 C   0  0  0  0  0  0  0  0  0  0  0  0
  129.9860  126.5500   67.4240 N   0  0  0  0  0  0  0  0  0  0  0  0
  129.7830  125.2640   67.0650 C   0  0  0  0  0  0  0  0  0  0  0  0
  129.6250  124.3220   67.8410 O   0  0  0  0  0  0  0  0  0  0  0  0
  129.7580  125.0000   65.5580 C   0  0  0  0  0  0  0  0  0  0  0  0
  131.3590  125.3560   64.7740 S   0  0  0  0  0  0  0  0  0  0  0  0
  131.2360  124.8740   63.0640 C   0  0  0  0  0  0  0  0  0  0  0  0
  129.9600  124.7320   62.6330 N   0  0  0  0  0  0  0  0  0  0  0  0
  129.7180  124.3730   61.3460 C   0  0  0  0  0  0  0  0  0  0  0  0
  128.2780  124.2390   60.9470 C   0  0  0  0  0  0  0  0  0  0  0  0
  127.4230  123.3560   61.6250 C   0  0  0  0  0  0  0  0  0  0  0  0
  126.0860  123.2280   61.2590 C   0  0  0  0  0  0  0  0  0  0  0  0
  125.5830  123.9850   60.2060 C   0  0  0  0  0  0  0  0  0  0  0  0
  126.4090  124.8650   59.5140 C   0  0  0  0  0  0  0  0  0  0  0  0
  127.7460  124.9890   59.8830 C   0  0  0  0  0  0  0  0  0  0  0  0
  130.7730  124.1250   60.4610 C   0  0  0  0  0  0  0  0  0  0  0  0
  132.1030  124.2470   60.8890 C   0  0  0  0  0  0  0  0  0  0  0  0
  133.2360  123.9600   59.8850 C   0  0  0  0  0  0  0  0  0  0  0  0
  132.7950  123.8300   58.6310 F   0  0  0  0  0  0  0  0  0  0  0  0
  134.1220  124.9570   59.8940 F   0  0  0  0  0  0  0  0  0  0  0  0
  133.8580  122.8270   60.2120 F   0  0  0  0  0  0  0  0  0  0  0  0
  132.3500  124.6250   62.2330 C   0  0  0  0  0  0  0  0  0  0  0  0
  133.7190  124.7110   62.7470 C   0  0  0  0  0  0  0  0  0  0  0  0
  134.8020  124.7790   63.1500 N   0  0  0  0  0  0  0  0  0  0  0  0
  128.8800  127.0700   69.4590 C   0  0  0  0  0  0  0  0  0  0  0  0
  128.8360  127.6120   70.7400 C   0  0  0  0  0  0  0  0  0  0  0  0
  1  2  1  0
  2  3  1  0
  3  4  2  0
  3  5  1  0
  5  6  2  0
  6  7  1  0
  7  8  2  0
  8  9  1  0
  9 10  1  0
 10 11  2  0
 10 12  1  0
 12 13  1  0
 13 14  1  0
 14 15  2  0
 15 16  1  0
 16 17  1  0
 17 18  2  0
 18 19  1  0
 19 20  2  0
 20 21  1  0
 21 22  2  0
 16 23  2  0
 23 24  1  0
 24 25  1  0
 25 26  1  0
 25 27  1  0
 25 28  1  0
 24 29  2  0
 29 30  1  0
 30 31  3  0
  8 32  1  0
 32 33  2  0
 33  5  1  0
 29 14  1  0
 22 17  1  0
M  END
>  <Binding energies>  (13) 
[-7.7]

>  <Ligand effiencies>  (13) 
[-0.22647058823529412]

>  <Interactions>  (13) 
["V-B:HIS:456:CE1:9041, V-A:HIS:456:CD2:4068, V-B:GLU:543:CD:9880, V-A:TYR:484:CE2:4346, V-B:GLU:543:CG:9879, V-A:GLU:543:CD:4908, V-A:HIS:456:CE1:4070, V-A:GLU:543:CB:4906, V-B:GLU:543:CB:9878, V-B:GLU:543:CA:9876, V-B:TYR:539:CE2:9848, V-B:PRO:540:CA:9855, V-B:PRO:540:CB:9857, V-A:ILE:369:CG2:3237, V-A:ILE:369:CD1:3239, V-A:HIS:456:CG:4066, V-A:GLU:543:C:4902, V-A:ARG:545:CG:4922, V-A:GLY:544:C:4912, V-B:PRO:540:C:9853, V-B:TYR:539:CZ:9849, H-A:LYS:547:NZ:4951, V-A:ASP:366:CB:3212, V-A:ASP:366:CG:3213, V-A:ASP:366:CA:3210, V-A:ILE:369:CB:3236, H-A:TYR:484:OH:4348, H-A:GLU:543:OE2:4910, V-A:ASP:366:C:3208, H-A:GLY:454:N:4050, H-A:ARG:545:NH1:4927, V-A:ARG:545:CZ:4926, H-A:ARG:545:NH2:4928, H-A:GLU:543:OE1:4909, V-A:GLY:544:CA:4914"]

$$$$
3ac_Grossjean_2025
     RDKit          3D

 31 33  0  0  0  0  0  0  0  0999 V2000
  129.2230  129.9560   73.2000 C   0  0  0  0  0  0  0  0  0  0  0  0
  130.2490  129.1940   72.5710 O   0  0  0  0  0  0  0  0  0  0  0  0
  129.9430  128.4410   71.4540 C   0  0  0  0  0  0  0  0  0  0  0  0
  130.8970  128.4200   70.4370 C   0  0  0  0  0  0  0  0  0  0  0  0
  130.6780  127.6860   69.2750 C   0  0  0  0  0  0  0  0  0  0  0  0
  129.4930  126.9670   69.1100 C   0  0  0  0  0  0  0  0  0  0  0  0
  129.3710  126.2400   67.9110 N   0  0  0  0  0  0  0  0  0  0  0  0
  130.3410  125.7970   67.0820 C   0  0  0  0  0  0  0  0  0  0  0  0
  131.5510  125.9270   67.2690 O   0  0  0  0  0  0  0  0  0  0  0  0
  129.8540  125.0780   65.8230 C   0  0  0  0  0  0  0  0  0  0  0  0
  130.0960  126.0790   64.3230 S   0  0  0  0  0  0  0  0  0  0  0  0
  130.5100  124.9920   62.9720 C   0  0  0  0  0  0  0  0  0  0  0  0
  129.4700  124.7610   62.1350 N   0  0  0  0  0  0  0  0  0  0  0  0
  129.6360  123.9560   61.0540 C   0  0  0  0  0  0  0  0  0  0  0  0
  128.4340  123.7470   60.1830 C   0  0  0  0  0  0  0  0  0  0  0  0
  127.1480  124.0810   60.6400 C   0  0  0  0  0  0  0  0  0  0  0  0
  126.0290  123.8950   59.8340 C   0  0  0  0  0  0  0  0  0  0  0  0
  126.1790  123.3680   58.5560 C   0  0  0  0  0  0  0  0  0  0  0  0
  127.4390  123.0240   58.0800 C   0  0  0  0  0  0  0  0  0  0  0  0
  128.5560  123.2120   58.8890 C   0  0  0  0  0  0  0  0  0  0  0  0
  130.8670  123.3440   60.8000 C   0  0  0  0  0  0  0  0  0  0  0  0
  131.9540  123.5480   61.6620 C   0  0  0  0  0  0  0  0  0  0  0  0
  133.2910  122.8500   61.3480 C   0  0  0  0  0  0  0  0  0  0  0  0
  134.3140  123.7030   61.2650 F   0  0  0  0  0  0  0  0  0  0  0  0
  133.5870  121.9670   62.3030 F   0  0  0  0  0  0  0  0  0  0  0  0
  133.2040  122.2100   60.1810 F   0  0  0  0  0  0  0  0  0  0  0  0
  131.7740  124.3850   62.7930 C   0  0  0  0  0  0  0  0  0  0  0  0
  132.8560  124.5660   63.7630 C   0  0  0  0  0  0  0  0  0  0  0  0
  133.7110  124.7080   64.5300 N   0  0  0  0  0  0  0  0  0  0  0  0
  128.5310  126.9770   70.1310 C   0  0  0  0  0  0  0  0  0  0  0  0
  128.7540  127.7120   71.2930 C   0  0  0  0  0  0  0  0  0  0  0  0
  1  2  1  0
  2  3  1  0
  3  4  2  0
  4  5  1  0
  5  6  2  0
  6  7  1  0
  7  8  1  0
  8  9  2  0
  8 10  1  0
 10 11  1  0
 11 12  1  0
 12 13  2  0
 13 14  1  0
 14 15  1  0
 15 16  2  0
 16 17  1  0
 17 18  2  0
 18 19  1  0
 19 20  2  0
 14 21  2  0
 21 22  1  0
 22 23  1  0
 23 24  1  0
 23 25  1  0
 23 26  1  0
 22 27  2  0
 27 28  1  0
 28 29  3  0
  6 30  1  0
 30 31  2  0
 31  3  1  0
 27 12  1  0
 20 15  1  0
M  END
>  <Binding energies>  (14) 
[-7.45]

>  <Ligand effiencies>  (14) 
[-0.2328125]

>  <Interactions>  (14) 
["V-B:HIS:456:CE1:9041, V-B:GLU:543:CD:9880, V-B:GLU:543:CG:9879, V-B:HIS:456:CD2:9039, V-B:GLU:543:C:9874, V-A:HIS:456:CE1:4070, V-A:GLU:543:CB:4906, V-B:GLU:543:CB:9878, V-B:TYR:539:CD2:9846, V-B:TYR:539:CE2:9848, V-A:GLY:454:CA:4049, V-B:PRO:540:CA:9855, V-A:LEU:475:CD2:4259, V-B:PRO:540:CB:9857, V-B:PRO:540:N:9856, V-B:TYR:539:C:9839, V-A:ILE:369:CG2:3237, V-A:ILE:369:CD1:3239, V-A:GLU:543:CA:4904, V-A:GLU:543:C:4902, V-A:GLY:544:C:4912, V-B:TYR:539:CZ:9849, H-A:LYS:547:NZ:4951, H-A:TYR:484:OH:4348, H-A:GLY:454:N:4050, H-A:ARG:545:NE:4924, V-A:ARG:545:CZ:4926, H-A:ARG:545:NH2:4928, H-B:GLU:543:O:9875, H-B:GLU:543:OE2:9882, V-A:GLY:544:CA:4914"]

$$$$
3af_Grossjean_2025
     RDKit          3D

 29 31  0  0  0  0  0  0  0  0999 V2000
  129.2530  126.8330   63.2620 N   0  0  0  0  0  0  0  0  0  0  0  0
  129.1880  126.9430   64.4120 C   0  0  0  0  0  0  0  0  0  0  0  0
  129.1050  127.0840   65.8680 C   0  0  0  0  0  0  0  0  0  0  0  0
  128.3510  128.1310   66.4500 C   0  0  0  0  0  0  0  0  0  0  0  0
  127.5440  129.1420   65.6120 C   0  0  0  0  0  0  0  0  0  0  0  0
  127.4160  128.7720   64.3360 F   0  0  0  0  0  0  0  0  0  0  0  0
  126.3160  129.2740   66.1160 F   0  0  0  0  0  0  0  0  0  0  0  0
  128.1470  130.3310   65.6220 F   0  0  0  0  0  0  0  0  0  0  0  0
  128.3460  128.2580   67.8480 C   0  0  0  0  0  0  0  0  0  0  0  0
  129.0740  127.3650   68.6410 C   0  0  0  0  0  0  0  0  0  0  0  0
  129.1190  127.4650   70.1360 C   0  0  0  0  0  0  0  0  0  0  0  0
  128.0500  127.0000   70.9190 C   0  0  0  0  0  0  0  0  0  0  0  0
  128.0870  127.0890   72.3090 C   0  0  0  0  0  0  0  0  0  0  0  0
  129.1970  127.6440   72.9350 C   0  0  0  0  0  0  0  0  0  0  0  0
  130.2710  128.1090   72.1830 C   0  0  0  0  0  0  0  0  0  0  0  0
  130.2310  128.0190   70.7940 C   0  0  0  0  0  0  0  0  0  0  0  0
  129.7990  126.3650   68.0790 N   0  0  0  0  0  0  0  0  0  0  0  0
  129.8010  126.2080   66.7320 C   0  0  0  0  0  0  0  0  0  0  0  0
  130.7940  124.8350   66.1830 S   0  0  0  0  0  0  0  0  0  0  0  0
  132.4590  125.4610   65.8050 C   0  0  0  0  0  0  0  0  0  0  0  0
  133.0770  124.7460   64.6040 C   0  0  0  0  0  0  0  0  0  0  0  0
  134.1860  125.0970   64.2030 O   0  0  0  0  0  0  0  0  0  0  0  0
  132.3220  123.7630   64.0660 N   0  0  0  0  0  0  0  0  0  0  0  0
  132.5900  122.9270   62.9640 C   0  0  0  0  0  0  0  0  0  0  0  0
  133.8630  122.4900   62.5550 C   0  0  0  0  0  0  0  0  0  0  0  0
  133.9830  121.6610   61.4370 C   0  0  0  0  0  0  0  0  0  0  0  0
  132.8240  121.2890   60.7540 C   0  0  0  0  0  0  0  0  0  0  0  0
  131.5860  121.6960   61.1280 N   0  0  0  0  0  0  0  0  0  0  0  0
  131.4870  122.5010   62.2160 C   0  0  0  0  0  0  0  0  0  0  0  0
  1  2  3  0
  2  3  1  0
  3  4  2  0
  4  5  1  0
  5  6  1  0
  5  7  1  0
  5  8  1  0
  4  9  1  0
  9 10  2  0
 10 11  1  0
 11 12  2  0
 12 13  1  0
 13 14  2  0
 14 15  1  0
 15 16  2  0
 10 17  1  0
 17 18  2  0
 18 19  1  0
 19 20  1  0
 20 21  1  0
 21 22  2  0
 21 23  1  0
 23 24  1  0
 24 25  2  0
 25 26  1  0
 26 27  2  0
 27 28  1  0
 28 29  2  0
 18  3  1  0
 29 24  1  0
 16 11  1  0
M  END
>  <Binding energies>  (15) 
[-7.69]

>  <Ligand effiencies>  (15) 
[-0.25633333333333336]

>  <Interactions>  (15) 
["V-B:HIS:456:CE1:9041, V-A:GLU:543:CG:4907, V-B:GLU:543:CD:9880, V-B:GLU:543:CG:9879, V-B:TYR:484:CZ:9318, V-B:HIS:456:CD2:9039, V-B:GLU:543:C:9874, V-A:GLU:543:CD:4908, V-A:HIS:456:CE1:4070, V-A:GLU:543:CB:4906, V-B:GLU:543:CB:9878, V-B:TYR:539:CD2:9846, V-B:TYR:539:CE2:9848, V-A:GLY:454:CA:4049, V-A:LEU:475:CD2:4259, V-A:ILE:369:CG2:3237, V-A:ILE:369:CD1:3239, V-A:GLU:543:C:4902, V-A:GLY:544:C:4912, H-A:TYR:484:OH:4348, V-A:SER:385:C:3405, H-A:GLY:454:N:4050, H-A:ARG:545:NH1:4927, H-A:ARG:545:NE:4924, V-A:ARG:545:CZ:4926, H-A:ARG:545:NH2:4928, V-A:ARG:545:CD:4923, V-B:TYR:484:CE2:9317"]

$$$$
3ag_Grossjean_2025
     RDKit          3D

 30 32  0  0  0  0  0  0  0  0999 V2000
  129.2840  126.8180   63.2300 N   0  0  0  0  0  0  0  0  0  0  0  0
  129.2030  126.9300   64.3800 C   0  0  0  0  0  0  0  0  0  0  0  0
  129.0970  127.0740   65.8350 C   0  0  0  0  0  0  0  0  0  0  0  0
  128.3430  128.1290   66.4050 C   0  0  0  0  0  0  0  0  0  0  0  0
  127.5500  129.1390   65.5530 C   0  0  0  0  0  0  0  0  0  0  0  0
  127.4370  128.7650   64.2780 F   0  0  0  0  0  0  0  0  0  0  0  0
  126.3180  129.2760   66.0430 F   0  0  0  0  0  0  0  0  0  0  0  0
  128.1560  130.3270   65.5680 F   0  0  0  0  0  0  0  0  0  0  0  0
  128.3170  128.2560   67.8020 C   0  0  0  0  0  0  0  0  0  0  0  0
  129.0340  127.3630   68.6070 C   0  0  0  0  0  0  0  0  0  0  0  0
  129.0440  127.4540   70.1020 C   0  0  0  0  0  0  0  0  0  0  0  0
  127.9610  126.9740   70.8570 C   0  0  0  0  0  0  0  0  0  0  0  0
  127.9640  127.0540   72.2470 C   0  0  0  0  0  0  0  0  0  0  0  0
  129.0530  127.6190   72.9030 C   0  0  0  0  0  0  0  0  0  0  0  0
  130.1370  128.1050   72.1790 C   0  0  0  0  0  0  0  0  0  0  0  0
  130.1300  128.0230   70.7900 C   0  0  0  0  0  0  0  0  0  0  0  0
  129.7460  126.3450   68.0570 N   0  0  0  0  0  0  0  0  0  0  0  0
  129.7690  126.1920   66.7100 C   0  0  0  0  0  0  0  0  0  0  0  0
  130.7470  124.8080   66.1700 S   0  0  0  0  0  0  0  0  0  0  0  0
  132.4240  125.4260   65.8400 C   0  0  0  0  0  0  0  0  0  0  0  0
  132.8970  125.0870   64.4250 C   0  0  0  0  0  0  0  0  0  0  0  0
  133.9770  124.5180   64.2570 O   0  0  0  0  0  0  0  0  0  0  0  0
  132.0740  125.4370   63.4210 N   0  0  0  0  0  0  0  0  0  0  0  0
  132.3100  125.1790   62.0010 C   0  0  0  0  0  0  0  0  0  0  0  0
  132.5060  123.7060   61.6610 C   0  0  0  0  0  0  0  0  0  0  0  0
  131.4010  122.9160   61.3340 C   0  0  0  0  0  0  0  0  0  0  0  0
  131.5790  121.5770   60.9940 C   0  0  0  0  0  0  0  0  0  0  0  0
  132.8630  121.0360   60.9720 C   0  0  0  0  0  0  0  0  0  0  0  0
  133.9700  121.8210   61.2810 C   0  0  0  0  0  0  0  0  0  0  0  0
  133.7930  123.1600   61.6210 C   0  0  0  0  0  0  0  0  0  0  0  0
  1  2  3  0
  2  3  1  0
  3  4  2  0
  4  5  1  0
  5  6  1  0
  5  7  1  0
  5  8  1  0
  4  9  1  0
  9 10  2  0
 10 11  1  0
 11 12  2  0
 12 13  1  0
 13 14  2  0
 14 15  1  0
 15 16  2  0
 10 17  1  0
 17 18  2  0
 18 19  1  0
 19 20  1  0
 20 21  1  0
 21 22  2  0
 21 23  1  0
 23 24  1  0
 24 25  1  0
 25 26  2  0
 26 27  1  0
 27 28  2  0
 28 29  1  0
 29 30  2  0
 18  3  1  0
 30 25  1  0
 16 11  1  0
M  END
>  <Binding energies>  (16) 
[-7.93]

>  <Ligand effiencies>  (16) 
[-0.2558064516129032]

>  <Interactions>  (16) 
["V-B:HIS:456:CE1:9041, V-A:GLU:543:CG:4907, V-B:GLU:543:CD:9880, V-B:GLU:543:CG:9879, V-B:TYR:484:CZ:9318, V-B:HIS:456:CD2:9039, V-B:GLU:543:C:9874, V-A:GLU:543:CD:4908, V-A:HIS:456:CE1:4070, V-A:GLU:543:CB:4906, V-B:GLY:544:C:9884, V-B:GLU:543:CB:9878, V-B:TYR:539:CD2:9846, V-B:TYR:539:CE2:9848, V-A:LEU:475:CD2:4259, V-A:ILE:369:CG2:3237, V-A:ILE:369:CD1:3239, V-A:GLU:543:C:4902, V-A:GLY:544:C:4912, H-A:TYR:484:OH:4348, H-A:GLU:543:OE2:4910, H-A:GLY:454:N:4050, V-A:ARG:545:CZ:4926, H-A:ARG:545:NH2:4928, H-A:GLU:543:OE1:4909, V-A:SER:385:CB:3409, V-B:TYR:484:CE2:9317"]

$$$$
3bc_Grossjean_2025
     RDKit          3D

 28 30  0  0  0  0  0  0  0  0999 V2000
  128.7310  129.2620   73.7220 C   0  0  0  0  0  0  0  0  0  0  0  0
  129.9050  128.7150   73.1320 O   0  0  0  0  0  0  0  0  0  0  0  0
  129.8460  128.2350   71.8370 C   0  0  0  0  0  0  0  0  0  0  0  0
  130.9780  128.4380   71.0470 C   0  0  0  0  0  0  0  0  0  0  0  0
  131.0130  127.9900   69.7290 C   0  0  0  0  0  0  0  0  0  0  0  0
  129.9090  127.3370   69.1790 C   0  0  0  0  0  0  0  0  0  0  0  0
  130.0410  126.9100   67.8450 N   0  0  0  0  0  0  0  0  0  0  0  0
  129.8660  125.6770   67.3240 C   0  0  0  0  0  0  0  0  0  0  0  0
  129.5060  124.6880   67.9660 O   0  0  0  0  0  0  0  0  0  0  0  0
  130.1120  125.5790   65.8110 C   0  0  0  0  0  0  0  0  0  0  0  0
  130.2120  123.8810   65.1510 S   0  0  0  0  0  0  0  0  0  0  0  0
  130.6520  123.9910   63.4300 C   0  0  0  0  0  0  0  0  0  0  0  0
  129.6050  123.8150   62.5870 N   0  0  0  0  0  0  0  0  0  0  0  0
  129.8000  123.8770   61.2440 C   0  0  0  0  0  0  0  0  0  0  0  0
  128.5950  123.6500   60.3810 C   0  0  0  0  0  0  0  0  0  0  0  0
  128.7360  123.2270   59.0500 C   0  0  0  0  0  0  0  0  0  0  0  0
  127.6220  123.0140   58.2430 C   0  0  0  0  0  0  0  0  0  0  0  0
  126.3470  123.2250   58.7570 C   0  0  0  0  0  0  0  0  0  0  0  0
  126.1790  123.6480   60.0720 C   0  0  0  0  0  0  0  0  0  0  0  0
  127.2970  123.8600   60.8750 C   0  0  0  0  0  0  0  0  0  0  0  0
  131.0710  124.1200   60.7130 C   0  0  0  0  0  0  0  0  0  0  0  0
  132.1580  124.3270   61.5700 C   0  0  0  0  0  0  0  0  0  0  0  0
  133.5240  124.6070   60.9460 C   0  0  0  0  0  0  0  0  0  0  0  0
  131.9570  124.2750   62.9660 C   0  0  0  0  0  0  0  0  0  0  0  0
  133.0690  124.5370   63.8820 C   0  0  0  0  0  0  0  0  0  0  0  0
  133.9500  124.7430   64.6030 N   0  0  0  0  0  0  0  0  0  0  0  0
  128.7710  127.1170   69.9700 C   0  0  0  0  0  0  0  0  0  0  0  0
  128.7410  127.5670   71.2880 C   0  0  0  0  0  0  0  0  0  0  0  0
  1  2  1  0
  2  3  1  0
  3  4  2  0
  4  5  1  0
  5  6  2  0
  6  7  1  0
  7  8  1  0
  8  9  2  0
  8 10  1  0
 10 11  1  0
 11 12  1  0
 12 13  2  0
 13 14  1  0
 14 15  1  0
 15 16  2  0
 16 17  1  0
 17 18  2  0
 18 19  1  0
 19 20  2  0
 14 21  2  0
 21 22  1  0
 22 23  1  0
 22 24  2  0
 24 25  1  0
 25 26  3  0
  6 27  1  0
 27 28  2  0
 28  3  1  0
 24 12  1  0
 20 15  1  0
M  END
>  <Binding energies>  (17) 
[-8.28]

>  <Ligand effiencies>  (17) 
[-0.28551724137931034]

>  <Interactions>  (17) 
["V-B:HIS:456:CE1:9041, V-B:GLU:543:CD:9880, V-B:GLU:543:CG:9879, V-B:HIS:456:CD2:9039, V-A:GLU:543:CD:4908, V-A:HIS:456:CE1:4070, V-A:GLU:543:CB:4906, V-B:GLU:543:CB:9878, V-B:TYR:539:CD2:9846, V-B:TYR:539:CE2:9848, V-B:PRO:540:CA:9855, V-B:PRO:540:CB:9857, V-B:PRO:540:N:9856, V-B:TYR:539:C:9839, V-A:GLU:543:C:4902, V-A:GLY:544:C:4912, V-B:TYR:539:CZ:9849, H-A:LYS:547:NZ:4951, V-A:ASP:366:CG:3213, H-A:TYR:484:OH:4348, H-A:GLU:543:OE2:4910, H-A:GLY:454:N:4050, H-A:ARG:545:NE:4924, V-A:ARG:545:CZ:4926, H-A:ARG:545:NH2:4928, V-A:GLY:544:CA:4914"]

$$$$
3bd_Grossjean_2025
     RDKit          3D

 26 28  0  0  0  0  0  0  0  0999 V2000
  133.2010  124.3630   60.5060 C   0  0  0  0  0  0  0  0  0  0  0  0
  131.8180  124.1390   61.1160 C   0  0  0  0  0  0  0  0  0  0  0  0
  130.7290  123.9930   60.2490 C   0  0  0  0  0  0  0  0  0  0  0  0
  129.4450  123.7910   60.7680 C   0  0  0  0  0  0  0  0  0  0  0  0
  128.2360  123.6230   59.8970 C   0  0  0  0  0  0  0  0  0  0  0  0
  126.9780  124.0800   60.3190 C   0  0  0  0  0  0  0  0  0  0  0  0
  125.8510  123.9250   59.5160 C   0  0  0  0  0  0  0  0  0  0  0  0
  125.9680  123.3080   58.2740 C   0  0  0  0  0  0  0  0  0  0  0  0
  127.2020  122.8440   57.8330 C   0  0  0  0  0  0  0  0  0  0  0  0
  128.3260  123.0000   58.6400 C   0  0  0  0  0  0  0  0  0  0  0  0
  129.2410  123.7190   62.1090 N   0  0  0  0  0  0  0  0  0  0  0  0
  130.2850  123.8590   62.9650 C   0  0  0  0  0  0  0  0  0  0  0  0
  129.8830  123.7570   64.7010 S   0  0  0  0  0  0  0  0  0  0  0  0
  130.5130  125.2560   65.5140 C   0  0  0  0  0  0  0  0  0  0  0  0
  130.0180  125.3770   66.9560 C   0  0  0  0  0  0  0  0  0  0  0  0
  129.5100  124.3950   67.4980 O   0  0  0  0  0  0  0  0  0  0  0  0
  130.1720  126.5910   67.5280 N   0  0  0  0  0  0  0  0  0  0  0  0
  129.8440  127.0030   68.8340 C   0  0  0  0  0  0  0  0  0  0  0  0
  128.5570  126.6830   69.2740 C   0  0  0  0  0  0  0  0  0  0  0  0
  128.1390  127.0560   70.5490 C   0  0  0  0  0  0  0  0  0  0  0  0
  129.0060  127.7600   71.3810 C   0  0  0  0  0  0  0  0  0  0  0  0
  130.2860  128.0970   70.9480 C   0  0  0  0  0  0  0  0  0  0  0  0
  130.7070  127.7230   69.6750 C   0  0  0  0  0  0  0  0  0  0  0  0
  131.6040  124.0740   62.5090 C   0  0  0  0  0  0  0  0  0  0  0  0
  132.7240  124.2220   63.4430 C   0  0  0  0  0  0  0  0  0  0  0  0
  133.6100  124.3370   64.1790 N   0  0  0  0  0  0  0  0  0  0  0  0
  1  2  1  0
  2  3  2  0
  3  4  1  0
  4  5  1  0
  5  6  2  0
  6  7  1  0
  7  8  2  0
  8  9  1  0
  9 10  2  0
  4 11  2  0
 11 12  1  0
 12 13  1  0
 13 14  1  0
 14 15  1  0
 15 16  2  0
 15 17  1  0
 17 18  1  0
 18 19  2  0
 19 20  1  0
 20 21  2  0
 21 22  1  0
 22 23  2  0
 12 24  2  0
 24 25  1  0
 25 26  3  0
 24  2  1  0
 10  5  1  0
 23 18  1  0
M  END
>  <Binding energies>  (18) 
[-8.12]

>  <Ligand effiencies>  (18) 
[-0.3007407407407407]

>  <Interactions>  (18) 
["V-B:HIS:456:CE1:9041, V-B:GLU:543:CG:9879, V-B:HIS:456:CD2:9039, V-B:GLU:543:C:9874, V-A:GLU:543:CD:4908, V-A:HIS:456:CE1:4070, V-A:GLU:543:CB:4906, V-B:GLU:543:CB:9878, V-B:TYR:539:CD2:9846, V-B:TYR:539:CE2:9848, V-B:PRO:540:CA:9855, V-B:PRO:540:CB:9857, V-B:PRO:540:N:9856, V-B:TYR:539:C:9839, V-A:GLU:543:C:4902, V-A:GLY:544:C:4912, V-B:TYR:539:CZ:9849, V-A:ASP:366:CG:3213, H-A:TYR:484:OH:4348, H-A:GLU:543:OE2:4910, H-A:GLY:454:N:4050, H-A:GLU:543:OE1:4909"]

$$$$
3be_Grossjean_2025
     RDKit          3D

 27 29  0  0  0  0  0  0  0  0999 V2000
  133.9660  123.9680   59.3300 C   0  0  0  0  0  0  0  0  0  0  0  0
  132.9910  124.9240   59.9890 C   0  0  0  0  0  0  0  0  0  0  0  0
  132.2240  125.8180   59.2390 C   0  0  0  0  0  0  0  0  0  0  0  0
  131.3500  126.6710   59.9130 C   0  0  0  0  0  0  0  0  0  0  0  0
  131.2630  126.6090   61.3070 C   0  0  0  0  0  0  0  0  0  0  0  0
  132.0580  125.6860   61.9970 C   0  0  0  0  0  0  0  0  0  0  0  0
  131.9320  125.6800   63.3980 N   0  0  0  0  0  0  0  0  0  0  0  0
  132.7470  125.1180   64.3170 C   0  0  0  0  0  0  0  0  0  0  0  0
  133.7730  124.4890   64.0520 O   0  0  0  0  0  0  0  0  0  0  0  0
  132.3060  125.3180   65.7760 C   0  0  0  0  0  0  0  0  0  0  0  0
  130.6060  124.7700   66.1540 S   0  0  0  0  0  0  0  0  0  0  0  0
  129.6880  126.1780   66.7360 C   0  0  0  0  0  0  0  0  0  0  0  0
  129.7040  126.3180   68.0850 N   0  0  0  0  0  0  0  0  0  0  0  0
  129.0450  127.3550   68.6670 C   0  0  0  0  0  0  0  0  0  0  0  0
  129.1010  127.4290   70.1640 C   0  0  0  0  0  0  0  0  0  0  0  0
  128.0300  126.9680   70.9460 C   0  0  0  0  0  0  0  0  0  0  0  0
  128.0740  127.0360   72.3350 C   0  0  0  0  0  0  0  0  0  0  0  0
  129.1940  127.5690   72.9650 C   0  0  0  0  0  0  0  0  0  0  0  0
  130.2680  128.0350   72.2140 C   0  0  0  0  0  0  0  0  0  0  0  0
  130.2190  127.9660   70.8240 C   0  0  0  0  0  0  0  0  0  0  0  0
  128.3430  128.2840   67.8920 C   0  0  0  0  0  0  0  0  0  0  0  0
  128.3370  128.1680   66.4980 C   0  0  0  0  0  0  0  0  0  0  0  0
  127.5720  129.2160   65.6910 C   0  0  0  0  0  0  0  0  0  0  0  0
  129.0320  127.1000   65.8900 C   0  0  0  0  0  0  0  0  0  0  0  0
  129.0830  126.9920   64.4300 C   0  0  0  0  0  0  0  0  0  0  0  0
  129.1230  126.9080   63.2770 N   0  0  0  0  0  0  0  0  0  0  0  0
  132.9180  124.8520   61.3420 N   0  0  0  0  0  0  0  0  0  0  0  0
  1  2  1  0
  2  3  2  0
  3  4  1  0
  4  5  2  0
  5  6  1  0
  6  7  1  0
  7  8  1  0
  8  9  2  0
  8 10  1  0
 10 11  1  0
 11 12  1  0
 12 13  2  0
 13 14  1  0
 14 15  1  0
 15 16  2  0
 16 17  1  0
 17 18  2  0
 18 19  1  0
 19 20  2  0
 14 21  2  0
 21 22  1  0
 22 23  1  0
 22 24  2  0
 24 25  1  0
 25 26  3  0
  6 27  2  0
 27  2  1  0
 24 12  1  0
 20 15  1  0
M  END
>  <Binding energies>  (19) 
[-7.91]

>  <Ligand effiencies>  (19) 
[-0.28250000000000003]

>  <Interactions>  (19) 
["V-B:HIS:456:CE1:9041, V-A:GLU:543:CG:4907, V-B:GLU:543:CD:9880, V-B:GLU:543:CG:9879, V-B:GLU:543:C:9874, V-A:GLU:543:CD:4908, V-A:HIS:456:CE1:4070, V-A:GLU:543:CB:4906, V-A:TYR:484:CZ:4347, V-B:GLU:543:CB:9878, V-A:ILE:369:CG2:3237, V-A:ILE:369:CD1:3239, V-A:GLU:543:C:4902, V-A:GLY:544:C:4912, V-A:ASP:366:CB:3212, V-A:ASP:366:CG:3213, V-A:ASP:366:CA:3210, V-A:ILE:369:CB:3236, H-A:TYR:484:OH:4348, H-A:GLU:543:OE2:4910, H-A:GLY:454:N:4050, V-A:ARG:545:CZ:4926, H-A:ARG:545:NH2:4928, H-A:GLU:543:OE1:4909"]

$$$$
3bf_Grossjean_2025
     RDKit          3D

 26 28  0  0  0  0  0  0  0  0999 V2000
  127.6290  129.1960   65.4850 C   0  0  0  0  0  0  0  0  0  0  0  0
  128.3590  128.1780   66.3580 C   0  0  0  0  0  0  0  0  0  0  0  0
  128.2650  128.3140   67.7470 C   0  0  0  0  0  0  0  0  0  0  0  0
  128.9060  127.3940   68.5850 C   0  0  0  0  0  0  0  0  0  0  0  0
  128.8270  127.4710   70.0800 C   0  0  0  0  0  0  0  0  0  0  0  0
  129.8730  128.0380   70.8240 C   0  0  0  0  0  0  0  0  0  0  0  0
  129.8060  128.1120   72.2130 C   0  0  0  0  0  0  0  0  0  0  0  0
  128.6880  127.6190   72.8770 C   0  0  0  0  0  0  0  0  0  0  0  0
  127.6390  127.0510   72.1630 C   0  0  0  0  0  0  0  0  0  0  0  0
  127.7100  126.9770   70.7740 C   0  0  0  0  0  0  0  0  0  0  0  0
  129.6250  126.3630   68.0670 N   0  0  0  0  0  0  0  0  0  0  0  0
  129.7460  126.2320   66.7220 C   0  0  0  0  0  0  0  0  0  0  0  0
  130.7260  124.8310   66.2280 S   0  0  0  0  0  0  0  0  0  0  0  0
  132.4040  125.4270   65.8300 C   0  0  0  0  0  0  0  0  0  0  0  0
  132.9000  125.0840   64.4170 C   0  0  0  0  0  0  0  0  0  0  0  0
  133.9590  124.4740   64.2530 O   0  0  0  0  0  0  0  0  0  0  0  0
  132.0760  125.4750   63.4210 N   0  0  0  0  0  0  0  0  0  0  0  0
  132.2390  125.3260   62.0310 C   0  0  0  0  0  0  0  0  0  0  0  0
  131.5970  126.2590   61.2090 C   0  0  0  0  0  0  0  0  0  0  0  0
  131.7310  126.1730   59.8220 C   0  0  0  0  0  0  0  0  0  0  0  0
  132.5150  125.1490   59.2910 C   0  0  0  0  0  0  0  0  0  0  0  0
  133.1570  124.2370   60.0630 N   0  0  0  0  0  0  0  0  0  0  0  0
  133.0180  124.3330   61.4110 C   0  0  0  0  0  0  0  0  0  0  0  0
  129.1100  127.1120   65.8180 C   0  0  0  0  0  0  0  0  0  0  0  0
  129.1800  126.9220   64.3670 C   0  0  0  0  0  0  0  0  0  0  0  0
  129.2360  126.7750   63.2200 N   0  0  0  0  0  0  0  0  0  0  0  0
  1  2  1  0
  2  3  2  0
  3  4  1  0
  4  5  1  0
  5  6  2  0
  6  7  1  0
  7  8  2  0
  8  9  1  0
  9 10  2  0
  4 11  2  0
 11 12  1  0
 12 13  1  0
 13 14  1  0
 14 15  1  0
 15 16  2  0
 15 17  1  0
 17 18  1  0
 18 19  2  0
 19 20  1  0
 20 21  2  0
 21 22  1  0
 22 23  2  0
 12 24  2  0
 24 25  1  0
 25 26  3  0
 24  2  1  0
 10  5  1  0
 23 18  1  0
M  END
>  <Binding energies>  (20) 
[-7.49]

>  <Ligand effiencies>  (20) 
[-0.27740740740740744]

>  <Interactions>  (20) 
["V-B:HIS:456:CE1:9041, V-A:GLU:543:CG:4907, V-B:GLU:543:CD:9880, V-B:GLU:543:CG:9879, V-B:HIS:456:CD2:9039, V-B:GLU:543:C:9874, V-A:GLU:543:CD:4908, V-A:HIS:456:CE1:4070, V-A:GLU:543:CB:4906, V-B:GLY:544:C:9884, V-B:GLU:543:CB:9878, V-A:GLU:543:C:4902, V-A:ASP:366:CB:3212, V-A:ASP:366:CG:3213, H-A:TYR:484:OH:4348, H-A:GLU:543:OE2:4910, H-A:GLY:454:N:4050, V-A:ARG:545:CZ:4926, H-A:ARG:545:NH2:4928, H-A:GLU:543:OE1:4909"]

$$$$
3bg_Grossjean_2025
     RDKit          3D

 27 29  0  0  0  0  0  0  0  0999 V2000
  130.6160  124.8870   66.3870 C   0  0  0  0  0  0  0  0  0  0  0  0
  129.8210  126.0520   66.9750 C   0  0  0  0  0  0  0  0  0  0  0  0
  129.8210  126.2190   68.3630 C   0  0  0  0  0  0  0  0  0  0  0  0
  129.1120  127.2790   68.9430 C   0  0  0  0  0  0  0  0  0  0  0  0
  129.0800  127.5210   70.4270 C   0  0  0  0  0  0  0  0  0  0  0  0
  130.1680  128.1170   71.0870 C   0  0  0  0  0  0  0  0  0  0  0  0
  130.1350  128.3590   72.4570 C   0  0  0  0  0  0  0  0  0  0  0  0
  129.0100  128.0050   73.1940 C   0  0  0  0  0  0  0  0  0  0  0  0
  127.9230  127.4030   72.5700 C   0  0  0  0  0  0  0  0  0  0  0  0
  127.9620  127.1610   71.2000 C   0  0  0  0  0  0  0  0  0  0  0  0
  128.4340  128.1640   68.1650 N   0  0  0  0  0  0  0  0  0  0  0  0
  128.4270  128.0190   66.8150 C   0  0  0  0  0  0  0  0  0  0  0  0
  127.5280  129.2670   65.9070 S   0  0  0  0  0  0  0  0  0  0  0  0
  128.3500  129.5050   64.2970 C   0  0  0  0  0  0  0  0  0  0  0  0
  128.3620  130.9780   63.8760 C   0  0  0  0  0  0  0  0  0  0  0  0
  127.4570  131.7280   64.2420 O   0  0  0  0  0  0  0  0  0  0  0  0
  129.3800  131.3660   63.0890 N   0  0  0  0  0  0  0  0  0  0  0  0
  129.4920  132.6650   62.4250 C   0  0  0  0  0  0  0  0  0  0  0  0
  129.8770  132.5200   60.9570 C   0  0  0  0  0  0  0  0  0  0  0  0
  129.0660  133.0760   59.9620 C   0  0  0  0  0  0  0  0  0  0  0  0
  129.4120  132.9350   58.6220 C   0  0  0  0  0  0  0  0  0  0  0  0
  130.5760  132.2480   58.2790 C   0  0  0  0  0  0  0  0  0  0  0  0
  131.3990  131.7090   59.2640 C   0  0  0  0  0  0  0  0  0  0  0  0
  131.0520  131.8500   60.6060 C   0  0  0  0  0  0  0  0  0  0  0  0
  129.1050  126.9640   66.1700 C   0  0  0  0  0  0  0  0  0  0  0  0
  129.0930  126.8200   64.7120 C   0  0  0  0  0  0  0  0  0  0  0  0
  129.0840  126.7050   63.5610 N   0  0  0  0  0  0  0  0  0  0  0  0
  1  2  1  0
  2  3  2  0
  3  4  1  0
  4  5  1  0
  5  6  2  0
  6  7  1  0
  7  8  2  0
  8  9  1  0
  9 10  2  0
  4 11  2  0
 11 12  1  0
 12 13  1  0
 13 14  1  0
 14 15  1  0
 15 16  2  0
 15 17  1  0
 17 18  1  0
 18 19  1  0
 19 20  2  0
 20 21  1  0
 21 22  2  0
 22 23  1  0
 23 24  2  0
 12 25  2  0
 25 26  1  0
 26 27  3  0
 25  2  1  0
 10  5  1  0
 24 19  1  0
M  END
>  <Binding energies>  (21) 
[-8.21]

>  <Ligand effiencies>  (21) 
[-0.29321428571428576]

>  <Interactions>  (21) 
["V-B:HIS:456:CE1:9041, V-A:GLU:543:CG:4907, V-B:GLU:543:CD:9880, V-A:TYR:484:CE2:4346, V-B:GLU:543:CG:9879, H-B:TYR:484:OH:9319, V-B:HIS:456:CD2:9039, V-A:GLU:543:CD:4908, V-A:HIS:456:CE1:4070, V-A:GLU:543:CB:4906, V-A:TYR:484:CZ:4347, V-B:GLU:543:CB:9878, V-A:GLU:543:C:4902, V-A:GLY:544:C:4912, V-A:TYR:539:C:4867, V-A:PRO:540:N:4884, V-A:PRO:540:CA:4883, V-A:TYR:539:CD1:4873, V-A:PRO:540:CB:4885, H-A:GLU:543:OE1:4909, V-A:ALA:541:CB:4892, V-A:ALA:541:CA:4890, V-A:PRO:540:C:4881"]

$$$$
3ca_Grossjean_2025
     RDKit          3D

 31 33  0  0  0  0  0  0  0  0999 V2000
  131.9270  126.6020   74.0110 C   0  0  0  0  0  0  0  0  0  0  0  0
  130.5190  126.1470   74.4060 C   0  0  0  0  0  0  0  0  0  0  0  0
  129.5910  126.5600   73.4110 O   0  0  0  0  0  0  0  0  0  0  0  0
  129.7330  127.7470   72.7680 C   0  0  0  0  0  0  0  0  0  0  0  0
  129.8510  128.8280   73.3540 O   0  0  0  0  0  0  0  0  0  0  0  0
  129.7400  127.6150   71.2720 C   0  0  0  0  0  0  0  0  0  0  0  0
  128.5930  127.1420   70.6220 C   0  0  0  0  0  0  0  0  0  0  0  0
  128.5680  127.0090   69.2360 C   0  0  0  0  0  0  0  0  0  0  0  0
  129.6900  127.3390   68.4740 C   0  0  0  0  0  0  0  0  0  0  0  0
  129.5580  127.1680   67.0830 N   0  0  0  0  0  0  0  0  0  0  0  0
  128.6440  127.6860   66.2340 C   0  0  0  0  0  0  0  0  0  0  0  0
  127.7330  128.4520   66.5480 O   0  0  0  0  0  0  0  0  0  0  0  0
  128.8060  127.2760   64.7670 C   0  0  0  0  0  0  0  0  0  0  0  0
  130.0390  125.9540   64.5230 S   0  0  0  0  0  0  0  0  0  0  0  0
  129.5020  124.8560   63.2180 C   0  0  0  0  0  0  0  0  0  0  0  0
  128.4240  125.2720   62.5060 N   0  0  0  0  0  0  0  0  0  0  0  0
  127.9760  124.5020   61.4910 C   0  0  0  0  0  0  0  0  0  0  0  0
  126.7800  125.0430   60.7330 C   0  0  0  0  0  0  0  0  0  0  0  0
  128.5680  123.2880   61.1540 C   0  0  0  0  0  0  0  0  0  0  0  0
  129.6710  122.8280   61.8850 C   0  0  0  0  0  0  0  0  0  0  0  0
  130.2650  121.5130   61.4960 C   0  0  0  0  0  0  0  0  0  0  0  0
  131.5220  121.4640   60.8810 C   0  0  0  0  0  0  0  0  0  0  0  0
  132.0790  120.2440   60.5060 C   0  0  0  0  0  0  0  0  0  0  0  0
  131.3770  119.0650   60.7420 C   0  0  0  0  0  0  0  0  0  0  0  0
  130.1220  119.0960   61.3460 C   0  0  0  0  0  0  0  0  0  0  0  0
  129.5680  120.3190   61.7190 C   0  0  0  0  0  0  0  0  0  0  0  0
  130.1620  123.6350   62.9430 C   0  0  0  0  0  0  0  0  0  0  0  0
  131.3450  123.2300   63.7100 C   0  0  0  0  0  0  0  0  0  0  0  0
  132.2790  122.9100   64.3150 N   0  0  0  0  0  0  0  0  0  0  0  0
  130.8410  127.8210   69.1160 C   0  0  0  0  0  0  0  0  0  0  0  0
  130.8620  127.9550   70.5020 C   0  0  0  0  0  0  0  0  0  0  0  0
  1  2  1  0
  2  3  1  0
  3  4  1  0
  4  5  2  0
  4  6  1  0
  6  7  2  0
  7  8  1  0
  8  9  2  0
  9 10  1  0
 10 11  1  0
 11 12  2  0
 11 13  1  0
 13 14  1  0
 14 15  1  0
 15 16  2  0
 16 17  1  0
 17 18  1  0
 17 19  2  0
 19 20  1  0
 20 21  1  0
 21 22  2  0
 22 23  1  0
 23 24  2  0
 24 25  1  0
 25 26  2  0
 20 27  2  0
 27 28  1  0
 28 29  3  0
  9 30  1  0
 30 31  2  0
 31  6  1  0
 27 15  1  0
 26 21  1  0
M  END
>  <Binding energies>  (22) 
[-7.41]

>  <Ligand effiencies>  (22) 
[-0.2315625]

>  <Interactions>  (22) 
["V-B:HIS:456:CE1:9041, V-A:HIS:456:CD2:4068, V-A:GLU:543:CG:4907, V-B:GLU:543:CD:9880, V-B:GLU:543:CG:9879, V-B:GLU:543:C:9874, V-A:GLU:543:CD:4908, V-A:HIS:456:CE1:4070, V-A:GLU:543:CB:4906, V-B:GLU:543:CB:9878, V-B:TYR:539:CD2:9846, V-B:TYR:539:CE2:9848, V-A:LEU:475:CD2:4259, V-B:TYR:539:C:9839, V-A:HIS:456:CB:4065, V-A:HIS:456:CG:4066, H-B:LYS:547:NZ:9923, V-A:GLU:543:C:4902, V-A:GLY:544:C:4912, V-B:ALA:541:CB:9864, V-B:PRO:540:C:9853, V-B:ALA:541:CA:9862, H-A:LYS:547:NZ:4951, H-A:TYR:484:OH:4348, H-A:GLU:543:OE2:4910, V-A:SER:385:CB:3409"]

$$$$
3ce_Grossjean_2025
     RDKit          3D

 27 29  0  0  0  0  0  0  0  0999 V2000
  127.3150  122.1390   56.8290 C   0  0  0  0  0  0  0  0  0  0  0  0
  126.8920  123.1160   57.9090 C   0  0  0  0  0  0  0  0  0  0  0  0
  125.7340  123.8880   57.7850 C   0  0  0  0  0  0  0  0  0  0  0  0
  125.4010  124.7580   58.8220 C   0  0  0  0  0  0  0  0  0  0  0  0
  126.2250  124.8370   59.9480 C   0  0  0  0  0  0  0  0  0  0  0  0
  127.3760  124.0430   60.0040 C   0  0  0  0  0  0  0  0  0  0  0  0
  128.1560  124.1490   61.1690 N   0  0  0  0  0  0  0  0  0  0  0  0
  127.9650  123.5400   62.3600 C   0  0  0  0  0  0  0  0  0  0  0  0
  127.0450  122.7620   62.6170 O   0  0  0  0  0  0  0  0  0  0  0  0
  128.9970  123.8610   63.4410 C   0  0  0  0  0  0  0  0  0  0  0  0
  129.8480  125.4340   63.1210 S   0  0  0  0  0  0  0  0  0  0  0  0
  129.1750  126.5940   64.2880 C   0  0  0  0  0  0  0  0  0  0  0  0
  128.5400  127.6460   63.7160 N   0  0  0  0  0  0  0  0  0  0  0  0
  127.9780  128.5770   64.5200 C   0  0  0  0  0  0  0  0  0  0  0  0
  127.2730  129.7200   63.8140 C   0  0  0  0  0  0  0  0  0  0  0  0
  128.0370  128.5030   65.9090 C   0  0  0  0  0  0  0  0  0  0  0  0
  128.7110  127.4370   66.5190 C   0  0  0  0  0  0  0  0  0  0  0  0
  128.7700  127.4150   68.0110 C   0  0  0  0  0  0  0  0  0  0  0  0
  129.9500  127.7740   68.6740 C   0  0  0  0  0  0  0  0  0  0  0  0
  130.0150  127.7500   70.0650 C   0  0  0  0  0  0  0  0  0  0  0  0
  128.9000  127.3580   70.8000 C   0  0  0  0  0  0  0  0  0  0  0  0
  127.7220  126.9870   70.1560 C   0  0  0  0  0  0  0  0  0  0  0  0
  127.6600  127.0140   68.7660 C   0  0  0  0  0  0  0  0  0  0  0  0
  129.2960  126.4470   65.6900 C   0  0  0  0  0  0  0  0  0  0  0  0
  130.0010  125.3000   66.2720 C   0  0  0  0  0  0  0  0  0  0  0  0
  130.5570  124.3960   66.7320 N   0  0  0  0  0  0  0  0  0  0  0  0
  127.7030  123.1830   58.9950 N   0  0  0  0  0  0  0  0  0  0  0  0
  1  2  1  0
  2  3  2  0
  3  4  1  0
  4  5  2  0
  5  6  1  0
  6  7  1  0
  7  8  1  0
  8  9  2  0
  8 10  1  0
 10 11  1  0
 11 12  1  0
 12 13  2  0
 13 14  1  0
 14 15  1  0
 14 16  2  0
 16 17  1  0
 17 18  1  0
 18 19  2  0
 19 20  1  0
 20 21  2  0
 21 22  1  0
 22 23  2  0
 17 24  2  0
 24 25  1  0
 25 26  3  0
  6 27  2  0
 27  2  1  0
 24 12  1  0
 23 18  1  0
M  END
>  <Binding energies>  (23) 
[-7.48]

>  <Ligand effiencies>  (23) 
[-0.2671428571428572]

>  <Interactions>  (23) 
["V-B:HIS:456:CE1:9041, V-A:GLU:543:CG:4907, V-B:GLU:543:CD:9880, V-B:GLU:543:CG:9879, V-B:GLU:543:C:9874, V-A:GLU:543:CD:4908, V-A:HIS:456:CE1:4070, V-A:GLU:543:CB:4906, V-B:GLY:544:C:9884, V-B:GLU:543:CB:9878, V-B:TYR:539:CD2:9846, V-B:TYR:539:CE2:9848, V-B:PRO:540:CA:9855, V-B:PRO:540:CD:9859, V-B:PRO:540:CB:9857, V-B:PRO:540:N:9856, V-B:TYR:539:C:9839, V-B:TYR:539:CG:9844, V-B:TYR:539:CD1:9845, V-B:TYR:539:CE1:9847, V-B:TYR:539:CZ:9849, H-B:ALA:541:N:9863, V-B:TYR:539:CA:9841, H-A:TYR:484:OH:4348"]

$$$$
3cj_Grossjean_2025
     RDKit          3D

 25 27  0  0  0  0  0  0  0  0999 V2000
  128.4460  123.1600   61.2020 C   0  0  0  0  0  0  0  0  0  0  0  0
  129.5510  123.5990   62.1430 C   0  0  0  0  0  0  0  0  0  0  0  0
  129.2690  124.1850   63.3750 C   0  0  0  0  0  0  0  0  0  0  0  0
  130.3210  124.5550   64.2240 C   0  0  0  0  0  0  0  0  0  0  0  0
  129.9720  125.1200   65.5600 C   0  0  0  0  0  0  0  0  0  0  0  0
  129.4820  126.4260   65.6740 C   0  0  0  0  0  0  0  0  0  0  0  0
  129.1690  126.9560   66.9230 C   0  0  0  0  0  0  0  0  0  0  0  0
  129.3490  126.1810   68.0640 C   0  0  0  0  0  0  0  0  0  0  0  0
  129.8440  124.8830   67.9680 C   0  0  0  0  0  0  0  0  0  0  0  0
  130.1570  124.3550   66.7180 C   0  0  0  0  0  0  0  0  0  0  0  0
  131.6510  124.3480   63.7790 C   0  0  0  0  0  0  0  0  0  0  0  0
  132.7940  124.7410   64.6080 C   0  0  0  0  0  0  0  0  0  0  0  0
  133.6970  125.0500   65.2650 N   0  0  0  0  0  0  0  0  0  0  0  0
  131.8440  123.7430   62.5170 C   0  0  0  0  0  0  0  0  0  0  0  0
  133.4550  123.3050   61.8970 S   0  0  0  0  0  0  0  0  0  0  0  0
  133.1400  122.5580   60.2660 C   0  0  0  0  0  0  0  0  0  0  0  0
  132.7730  121.0750   60.3790 C   0  0  0  0  0  0  0  0  0  0  0  0
  133.6630  120.2230   60.3340 O   0  0  0  0  0  0  0  0  0  0  0  0
  131.4590  120.8170   60.5620 N   0  0  0  0  0  0  0  0  0  0  0  0
  130.8880  119.5820   60.8250 C   0  0  0  0  0  0  0  0  0  0  0  0
  130.0130  119.2790   61.7590 N   0  0  0  0  0  0  0  0  0  0  0  0
  129.6620  118.0100   61.6990 C   0  0  0  0  0  0  0  0  0  0  0  0
  130.2590  117.2520   60.6960 C   0  0  0  0  0  0  0  0  0  0  0  0
  131.3400  118.2660   59.7880 S   0  0  0  0  0  0  0  0  0  0  0  0
  130.8130  123.3670   61.7190 N   0  0  0  0  0  0  0  0  0  0  0  0
  1  2  1  0
  2  3  2  0
  3  4  1  0
  4  5  1  0
  5  6  2  0
  6  7  1  0
  7  8  2  0
  8  9  1  0
  9 10  2  0
  4 11  2  0
 11 12  1  0
 12 13  3  0
 11 14  1  0
 14 15  1  0
 15 16  1  0
 16 17  1  0
 17 18  2  0
 17 19  1  0
 19 20  1  0
 20 21  2  0
 21 22  1  0
 22 23  2  0
 23 24  1  0
 14 25  2  0
 25  2  1  0
 10  5  1  0
 24 20  1  0
M  END
>  <Binding energies>  (24) 
[-7.13]

>  <Ligand effiencies>  (24) 
[-0.2742307692307692]

>  <Interactions>  (24) 
["V-B:GLU:543:CD:9880, V-A:TYR:484:CE2:4346, V-B:GLU:543:CG:9879, V-B:GLU:543:C:9874, V-A:GLU:543:CD:4908, V-A:HIS:456:CE1:4070, V-A:TYR:484:CZ:4347, V-B:GLU:543:CB:9878, V-B:GLU:543:CA:9876, V-B:TYR:539:CD2:9846, V-B:TYR:539:CE2:9848, V-A:LEU:475:CD2:4259, V-A:ILE:369:CG2:3237, V-B:ALA:541:CB:9864, V-B:TYR:539:CG:9844, H-A:SER:385:OG:3410, H-A:TYR:484:OH:4348, H-A:GLY:454:N:4050, H-A:ARG:545:NE:4924, V-A:ARG:545:CZ:4926, H-A:ARG:545:NH2:4928, V-B:TYR:539:CB:9843, V-A:LEU:475:CD1:4258, V-A:HIS:383:CD2:3392, V-A:HIS:383:NE2:3394, V-A:PRO:482:CG:4327, V-A:PRO:482:CB:4326, V-A:HIS:383:CE1:3393"]

$$$$
4ba_Grossjean_2025
     RDKit          3D

 28 30  0  0  0  0  0  0  0  0999 V2000
  128.1790  128.8470   74.3180 C   0  0  0  0  0  0  0  0  0  0  0  0
  128.2240  128.3110   72.8740 C   0  0  0  0  0  0  0  0  0  0  0  0
  129.4920  128.6820   72.0780 C   0  0  0  0  0  0  0  0  0  0  0  0
  130.2620  129.5360   72.5250 O   0  0  0  0  0  0  0  0  0  0  0  0
  129.7340  127.9690   70.7800 C   0  0  0  0  0  0  0  0  0  0  0  0
  130.9720  128.1060   70.1390 C   0  0  0  0  0  0  0  0  0  0  0  0
  131.2230  127.4580   68.9340 C   0  0  0  0  0  0  0  0  0  0  0  0
  130.2440  126.6560   68.3450 C   0  0  0  0  0  0  0  0  0  0  0  0
  130.6000  126.0540   67.1230 N   0  0  0  0  0  0  0  0  0  0  0  0
  130.2320  124.8590   66.5990 C   0  0  0  0  0  0  0  0  0  0  0  0
  129.5090  124.0450   67.1750 O   0  0  0  0  0  0  0  0  0  0  0  0
  130.7760  124.5640   65.2720 C   0  0  0  0  0  0  0  0  0  0  0  0
  132.1850  125.4400   64.6770 S   0  0  0  0  0  0  0  0  0  0  0  0
  132.1290  124.5870   63.1520 C   0  0  0  0  0  0  0  0  0  0  0  0
  133.0160  124.8310   62.1880 N   0  0  0  0  0  0  0  0  0  0  0  0
  132.8720  124.1090   61.0530 C   0  0  0  0  0  0  0  0  0  0  0  0
  133.8860  124.4090   59.9640 C   0  0  0  0  0  0  0  0  0  0  0  0
  131.8750  123.1560   60.8620 C   0  0  0  0  0  0  0  0  0  0  0  0
  130.9380  122.8950   61.8750 C   0  0  0  0  0  0  0  0  0  0  0  0
  129.8600  121.8360   61.6200 C   0  0  0  0  0  0  0  0  0  0  0  0
  130.0680  121.1380   60.5010 F   0  0  0  0  0  0  0  0  0  0  0  0
  129.8310  120.9670   62.6320 F   0  0  0  0  0  0  0  0  0  0  0  0
  128.6680  122.4230   61.5090 F   0  0  0  0  0  0  0  0  0  0  0  0
  131.0590  123.6440   63.0840 C   0  0  0  0  0  0  0  0  0  0  0  0
  130.2960  123.6610   64.3090 C   0  0  0  0  0  0  0  0  0  0  0  0
  129.2010  122.8600   64.5090 N   0  0  0  0  0  0  0  0  0  0  0  0
  128.9990  126.5170   68.9760 C   0  0  0  0  0  0  0  0  0  0  0  0
  128.7500  127.1670   70.1820 C   0  0  0  0  0  0  0  0  0  0  0  0
  1  2  1  0
  2  3  1  0
  3  4  2  0
  3  5  1  0
  5  6  2  0
  6  7  1  0
  7  8  2  0
  8  9  1  0
  9 10  1  0
 10 11  2  0
 10 12  1  0
 12 13  1  0
 13 14  1  0
 14 15  2  0
 15 16  1  0
 16 17  1  0
 16 18  2  0
 18 19  1  0
 19 20  1  0
 20 21  1  0
 20 22  1  0
 20 23  1  0
 19 24  2  0
 24 25  1  0
 25 26  1  0
  8 27  1  0
 27 28  2  0
 28  5  1  0
 25 12  2  0
 24 14  1  0
M  END
>  <Binding energies>  (25) 
[-6.83]

>  <Ligand effiencies>  (25) 
[-0.2203225806451613]

>  <Interactions>  (25) 
["V-B:HIS:456:CE1:9041, V-B:GLU:543:CD:9880, V-A:TYR:484:CE2:4346, V-B:GLU:543:CG:9879, V-B:HIS:456:CD2:9039, V-B:GLU:543:C:9874, V-A:GLU:543:CD:4908, V-B:HIS:456:CG:9037, V-A:HIS:456:CE1:4070, V-A:GLU:543:CB:4906, V-A:TYR:484:CZ:4347, V-B:GLU:543:CB:9878, V-B:TYR:539:CD2:9846, V-B:TYR:539:CE2:9848, V-B:PRO:540:CA:9855, V-A:LEU:475:CD2:4259, V-B:TYR:539:C:9839, V-A:ILE:369:CG2:3237, V-A:ILE:369:CD1:3239, V-A:GLU:543:C:4902, V-A:ARG:545:CG:4922, V-A:GLY:544:C:4912, V-B:ALA:541:CB:9864, H-A:LYS:547:NZ:4951, V-A:ASP:366:CB:3212, V-A:ASP:366:CG:3213, V-A:ASP:366:CA:3210, V-A:ILE:369:CB:3236, H-A:TYR:484:OH:4348, H-A:GLU:543:OE2:4910, V-A:ARG:545:CZ:4926, H-A:ARG:545:NH2:4928"]

$$$$
4bb_Grossjean_2025
     RDKit          3D

 27 29  0  0  0  0  0  0  0  0999 V2000
  128.2340  128.2480   72.8640 C   0  0  0  0  0  0  0  0  0  0  0  0
  129.4980  128.5880   72.0720 C   0  0  0  0  0  0  0  0  0  0  0  0
  130.2660  129.4320   72.5370 O   0  0  0  0  0  0  0  0  0  0  0  0
  129.7310  127.8830   70.7690 C   0  0  0  0  0  0  0  0  0  0  0  0
  130.9320  128.0920   70.0800 C   0  0  0  0  0  0  0  0  0  0  0  0
  131.1730  127.4510   68.8680 C   0  0  0  0  0  0  0  0  0  0  0  0
  130.2230  126.5830   68.3260 C   0  0  0  0  0  0  0  0  0  0  0  0
  130.5680  125.9910   67.0950 N   0  0  0  0  0  0  0  0  0  0  0  0
  130.2020  124.7950   66.5710 C   0  0  0  0  0  0  0  0  0  0  0  0
  129.4840  123.9780   67.1470 O   0  0  0  0  0  0  0  0  0  0  0  0
  130.7520  124.5010   65.2450 C   0  0  0  0  0  0  0  0  0  0  0  0
  132.1720  125.3650   64.6620 S   0  0  0  0  0  0  0  0  0  0  0  0
  132.1220  124.5130   63.1360 C   0  0  0  0  0  0  0  0  0  0  0  0
  133.0220  124.7430   62.1810 N   0  0  0  0  0  0  0  0  0  0  0  0
  132.8800  124.0230   61.0450 C   0  0  0  0  0  0  0  0  0  0  0  0
  133.9160  124.2990   59.9710 C   0  0  0  0  0  0  0  0  0  0  0  0
  131.8680  123.0880   60.8420 C   0  0  0  0  0  0  0  0  0  0  0  0
  130.9180  122.8410   61.8440 C   0  0  0  0  0  0  0  0  0  0  0  0
  129.8230  121.8020   61.5750 C   0  0  0  0  0  0  0  0  0  0  0  0
  129.8390  120.7900   62.4460 F   0  0  0  0  0  0  0  0  0  0  0  0
  128.6240  122.3800   61.6560 F   0  0  0  0  0  0  0  0  0  0  0  0
  129.9820  121.2840   60.3580 F   0  0  0  0  0  0  0  0  0  0  0  0
  131.0390  123.5840   63.0570 C   0  0  0  0  0  0  0  0  0  0  0  0
  130.2710  123.6040   64.2770 C   0  0  0  0  0  0  0  0  0  0  0  0
  129.1710  122.8090   64.4720 N   0  0  0  0  0  0  0  0  0  0  0  0
  129.0140  126.3750   69.0080 C   0  0  0  0  0  0  0  0  0  0  0  0
  128.7750  127.0190   70.2190 C   0  0  0  0  0  0  0  0  0  0  0  0
  1  2  1  0
  2  3  2  0
  2  4  1  0
  4  5  2  0
  5  6  1  0
  6  7  2  0
  7  8  1  0
  8  9  1  0
  9 10  2  0
  9 11  1  0
 11 12  1  0
 12 13  1  0
 13 14  2  0
 14 15  1  0
 15 16  1  0
 15 17  2  0
 17 18  1  0
 18 19  1  0
 19 20  1  0
 19 21  1  0
 19 22  1  0
 18 23  2  0
 23 24  1  0
 24 25  1  0
  7 26  1  0
 26 27  2  0
 27  4  1  0
 24 11  2  0
 23 13  1  0
M  END
>  <Binding energies>  (26) 
[-6.88]

>  <Ligand effiencies>  (26) 
[-0.22933333333333333]

>  <Interactions>  (26) 
["V-B:HIS:456:CE1:9041, V-A:TYR:484:CE2:4346, V-B:GLU:543:CG:9879, V-B:HIS:456:CD2:9039, V-B:GLU:543:C:9874, V-A:GLU:543:CD:4908, V-B:HIS:456:CG:9037, V-A:HIS:456:CE1:4070, V-A:GLU:543:CB:4906, V-A:TYR:484:CZ:4347, V-B:GLU:543:CB:9878, V-B:TYR:539:CD2:9846, V-B:TYR:539:CE2:9848, V-B:PRO:540:CA:9855, V-A:LEU:475:CD2:4259, V-B:TYR:539:C:9839, V-A:ILE:369:CG2:3237, V-A:ILE:369:CD1:3239, V-A:GLU:543:C:4902, V-A:ARG:545:CG:4922, V-A:GLY:544:C:4912, V-B:ALA:541:CB:9864, H-A:LYS:547:NZ:4951, V-A:ASP:366:CB:3212, V-A:ASP:366:CG:3213, V-A:ASP:366:CA:3210, V-A:ILE:369:CB:3236, H-A:TYR:484:OH:4348, H-A:GLU:543:OE2:4910, V-A:ARG:545:CZ:4926, H-A:ARG:545:NH2:4928"]

$$$$
4bd_Grossjean_2025
     RDKit          3D

 24 26  0  0  0  0  0  0  0  0999 V2000
  130.8940  120.7500   60.6280 C   0  0  0  0  0  0  0  0  0  0  0  0
  131.1510  121.7930   61.7010 C   0  0  0  0  0  0  0  0  0  0  0  0
  132.2010  122.7000   61.5840 C   0  0  0  0  0  0  0  0  0  0  0  0
  132.4290  123.6570   62.5840 C   0  0  0  0  0  0  0  0  0  0  0  0
  133.5990  124.6320   62.4130 C   0  0  0  0  0  0  0  0  0  0  0  0
  134.3240  124.7780   63.5240 F   0  0  0  0  0  0  0  0  0  0  0  0
  134.4170  124.1930   61.4570 F   0  0  0  0  0  0  0  0  0  0  0  0
  133.1360  125.8360   62.0780 F   0  0  0  0  0  0  0  0  0  0  0  0
  131.5460  123.6530   63.7050 C   0  0  0  0  0  0  0  0  0  0  0  0
  131.4670  124.4640   64.8960 C   0  0  0  0  0  0  0  0  0  0  0  0
  132.3400  125.4890   65.1510 N   0  0  0  0  0  0  0  0  0  0  0  0
  130.4220  124.1070   65.7650 C   0  0  0  0  0  0  0  0  0  0  0  0
  130.0670  124.7000   67.0570 C   0  0  0  0  0  0  0  0  0  0  0  0
  129.4810  124.0360   67.9130 O   0  0  0  0  0  0  0  0  0  0  0  0
  130.4390  125.9940   67.2250 N   0  0  0  0  0  0  0  0  0  0  0  0
  130.2150  126.8550   68.3150 C   0  0  0  0  0  0  0  0  0  0  0  0
  128.9210  126.8510   68.8430 C   0  0  0  0  0  0  0  0  0  0  0  0
  128.6030  127.6610   69.9300 C   0  0  0  0  0  0  0  0  0  0  0  0
  129.5830  128.4710   70.4970 C   0  0  0  0  0  0  0  0  0  0  0  0
  130.8800  128.4740   69.9890 C   0  0  0  0  0  0  0  0  0  0  0  0
  131.2020  127.6650   68.9020 C   0  0  0  0  0  0  0  0  0  0  0  0
  129.4950  122.7530   65.1250 S   0  0  0  0  0  0  0  0  0  0  0  0
  130.5100  122.6690   63.7040 C   0  0  0  0  0  0  0  0  0  0  0  0
  130.2970  121.7630   62.7500 N   0  0  0  0  0  0  0  0  0  0  0  0
  1  2  1  0
  2  3  2  0
  3  4  1  0
  4  5  1  0
  5  6  1  0
  5  7  1  0
  5  8  1  0
  4  9  2  0
  9 10  1  0
 10 11  1  0
 10 12  2  0
 12 13  1  0
 13 14  2  0
 13 15  1  0
 15 16  1  0
 16 17  2  0
 17 18  1  0
 18 19  2  0
 19 20  1  0
 20 21  2  0
 12 22  1  0
 22 23  1  0
 23 24  2  0
 24  2  1  0
 23  9  1  0
 21 16  1  0
M  END
>  <Binding energies>  (27) 
[-6.09]

>  <Ligand effiencies>  (27) 
[-0.22555555555555554]

>  <Interactions>  (27) 
["V-B:HIS:456:CE1:9041, V-A:TYR:484:CE2:4346, V-B:GLU:543:CG:9879, V-A:GLU:543:CD:4908, V-A:HIS:456:CE1:4070, V-A:GLU:543:CB:4906, V-A:TYR:484:CZ:4347, V-B:GLU:543:CB:9878, V-B:GLU:543:CA:9876, V-B:TYR:539:CD2:9846, V-B:TYR:539:CE2:9848, V-A:GLY:454:CA:4049, V-A:LEU:475:CD2:4259, V-A:ILE:369:CD1:3239, V-A:GLU:543:CA:4904, V-A:GLU:543:C:4902, V-A:ARG:545:CG:4922, V-A:GLY:544:C:4912, V-B:ALA:541:CB:9864, V-A:ASP:366:CG:3213, V-A:GLY:453:CA:4044, V-A:GLY:453:C:4042, H-A:TYR:484:OH:4348, H-A:GLU:543:OE2:4910, V-A:ARG:545:CZ:4926, H-A:GLU:543:OE1:4909"]

$$$$
4be_Grossjean_2025
     RDKit          3D

 25 27  0  0  0  0  0  0  0  0999 V2000
  127.0280  126.9620   70.2550 C   0  0  0  0  0  0  0  0  0  0  0  0
  128.4490  127.1680   69.7670 C   0  0  0  0  0  0  0  0  0  0  0  0
  129.3510  127.9760   70.4640 C   0  0  0  0  0  0  0  0  0  0  0  0
  130.6420  128.1230   69.9550 C   0  0  0  0  0  0  0  0  0  0  0  0
  130.9960  127.4660   68.7740 C   0  0  0  0  0  0  0  0  0  0  0  0
  130.0450  126.6670   68.1290 C   0  0  0  0  0  0  0  0  0  0  0  0
  130.4630  126.0390   66.9420 N   0  0  0  0  0  0  0  0  0  0  0  0
  130.1900  124.7860   66.4990 C   0  0  0  0  0  0  0  0  0  0  0  0
  129.4910  123.9780   67.1140 O   0  0  0  0  0  0  0  0  0  0  0  0
  130.8080  124.4210   65.2210 C   0  0  0  0  0  0  0  0  0  0  0  0
  132.2930  125.2150   64.6980 S   0  0  0  0  0  0  0  0  0  0  0  0
  132.3100  124.3010   63.2080 C   0  0  0  0  0  0  0  0  0  0  0  0
  133.2750  124.4620   62.3050 N   0  0  0  0  0  0  0  0  0  0  0  0
  133.1830  123.6970   61.1930 C   0  0  0  0  0  0  0  0  0  0  0  0
  134.2900  123.8980   60.1750 C   0  0  0  0  0  0  0  0  0  0  0  0
  132.1580  122.7820   60.9670 C   0  0  0  0  0  0  0  0  0  0  0  0
  131.1380  122.6060   61.9150 C   0  0  0  0  0  0  0  0  0  0  0  0
  130.0340  121.5850   61.6240 C   0  0  0  0  0  0  0  0  0  0  0  0
  129.8510  120.7150   62.6210 F   0  0  0  0  0  0  0  0  0  0  0  0
  128.8760  122.2150   61.4290 F   0  0  0  0  0  0  0  0  0  0  0  0
  130.3430  120.8840   60.5330 F   0  0  0  0  0  0  0  0  0  0  0  0
  131.2040  123.4020   63.0980 C   0  0  0  0  0  0  0  0  0  0  0  0
  130.3570  123.5020   64.2620 C   0  0  0  0  0  0  0  0  0  0  0  0
  129.2160  122.7570   64.4140 N   0  0  0  0  0  0  0  0  0  0  0  0
  128.7790  126.5230   68.6190 N   0  0  0  0  0  0  0  0  0  0  0  0
  1  2  1  0
  2  3  2  0
  3  4  1  0
  4  5  2  0
  5  6  1  0
  6  7  1  0
  7  8  1  0
  8  9  2  0
  8 10  1  0
 10 11  1  0
 11 12  1  0
 12 13  2  0
 13 14  1  0
 14 15  1  0
 14 16  2  0
 16 17  1  0
 17 18  1  0
 18 19  1  0
 18 20  1  0
 18 21  1  0
 17 22  2  0
 22 23  1  0
 23 24  1  0
  6 25  2  0
 25  2  1  0
 23 10  2  0
 22 12  1  0
M  END
>  <Binding energies>  (28) 
[-5.96]

>  <Ligand effiencies>  (28) 
[-0.21285714285714286]

>  <Interactions>  (28) 
["V-B:HIS:456:CE1:9041, V-A:TYR:484:CE2:4346, V-B:GLU:543:CG:9879, V-B:GLU:543:C:9874, V-A:GLU:543:CD:4908, V-A:HIS:456:CE1:4070, V-A:GLU:543:CB:4906, V-B:GLY:544:C:9884, V-A:TYR:484:CZ:4347, V-B:GLU:543:CB:9878, V-B:TYR:539:CD2:9846, V-B:TYR:539:CE2:9848, V-B:PRO:540:CA:9855, V-A:LEU:475:CD2:4259, V-A:ILE:369:CG2:3237, V-A:ILE:369:CD1:3239, V-A:GLU:543:C:4902, V-A:ARG:545:CG:4922, V-A:GLY:544:C:4912, V-B:ALA:541:CB:9864, V-B:ALA:541:CA:9862, V-A:ASP:366:CA:3210, V-A:ILE:369:CB:3236, H-A:TYR:484:OH:4348, H-A:GLU:543:OE2:4910, V-A:ARG:545:CZ:4926, H-A:GLU:543:OE1:4909, V-B:GLY:544:CA:9886, V-A:ILE:369:CG1:3238, V-A:LEU:475:CD1:4258, V-A:LEU:475:CG:4257"]

$$$$
4bg_Grossjean_2025
     RDKit          3D

 25 27  0  0  0  0  0  0  0  0999 V2000
  135.1010  124.2920   62.0450 C   0  0  0  0  0  0  0  0  0  0  0  0
  133.7870  124.1020   62.7810 C   0  0  0  0  0  0  0  0  0  0  0  0
  132.7950  123.2660   62.2740 C   0  0  0  0  0  0  0  0  0  0  0  0
  131.5820  123.1030   62.9620 C   0  0  0  0  0  0  0  0  0  0  0  0
  130.5210  122.1730   62.3660 C   0  0  0  0  0  0  0  0  0  0  0  0
  129.9380  121.3930   63.2790 F   0  0  0  0  0  0  0  0  0  0  0  0
  129.5620  122.8960   61.7880 F   0  0  0  0  0  0  0  0  0  0  0  0
  131.0790  121.3740   61.4570 F   0  0  0  0  0  0  0  0  0  0  0  0
  131.4240  123.8240   64.1830 C   0  0  0  0  0  0  0  0  0  0  0  0
  130.3460  123.9130   65.1370 C   0  0  0  0  0  0  0  0  0  0  0  0
  129.1600  123.2400   64.9840 N   0  0  0  0  0  0  0  0  0  0  0  0
  130.6220  124.7410   66.2360 C   0  0  0  0  0  0  0  0  0  0  0  0
  129.7540  125.0800   67.3640 C   0  0  0  0  0  0  0  0  0  0  0  0
  129.5410  124.2780   68.2750 O   0  0  0  0  0  0  0  0  0  0  0  0
  129.2410  126.3280   67.3600 N   0  0  0  0  0  0  0  0  0  0  0  0
  128.3400  126.8790   68.3720 C   0  0  0  0  0  0  0  0  0  0  0  0
  129.0360  127.2340   69.6790 C   0  0  0  0  0  0  0  0  0  0  0  0
  128.4070  126.9770   70.9010 C   0  0  0  0  0  0  0  0  0  0  0  0
  129.0620  127.2680   72.0950 C   0  0  0  0  0  0  0  0  0  0  0  0
  130.3490  127.8010   72.0650 C   0  0  0  0  0  0  0  0  0  0  0  0
  130.9880  128.0430   70.8520 C   0  0  0  0  0  0  0  0  0  0  0  0
  130.3330  127.7540   69.6570 C   0  0  0  0  0  0  0  0  0  0  0  0
  132.2200  125.4710   66.1040 S   0  0  0  0  0  0  0  0  0  0  0  0
  132.5200  124.6420   64.5950 C   0  0  0  0  0  0  0  0  0  0  0  0
  133.6690  124.7950   63.9360 N   0  0  0  0  0  0  0  0  0  0  0  0
  1  2  1  0
  2  3  2  0
  3  4  1  0
  4  5  1  0
  5  6  1  0
  5  7  1  0
  5  8  1  0
  4  9  2  0
  9 10  1  0
 10 11  1  0
 10 12  2  0
 12 13  1  0
 13 14  2  0
 13 15  1  0
 15 16  1  0
 16 17  1  0
 17 18  2  0
 18 19  1  0
 19 20  2  0
 20 21  1  0
 21 22  2  0
 12 23  1  0
 23 24  1  0
 24 25  2  0
 25  2  1  0
 24  9  1  0
 22 17  1  0
M  END
>  <Binding energies>  (29) 
[-6.17]

>  <Ligand effiencies>  (29) 
[-0.22035714285714286]

>  <Interactions>  (29) 
["V-B:HIS:456:CE1:9041, V-B:GLU:543:CD:9880, V-A:TYR:484:CE2:4346, V-B:GLU:543:CG:9879, V-B:GLU:543:C:9874, V-A:HIS:456:CE1:4070, V-A:GLU:543:CB:4906, V-A:TYR:484:CZ:4347, V-B:GLU:543:CB:9878, V-B:GLU:543:CA:9876, V-B:TYR:539:CD2:9846, V-A:LEU:475:CD2:4259, V-A:ILE:369:CD1:3239, V-A:GLU:543:C:4902, V-A:GLY:544:C:4912, V-B:ALA:541:CB:9864, V-A:GLY:453:CA:4044, V-A:GLY:453:C:4042, H-A:GLU:543:OE2:4910, H-A:GLY:454:N:4050, H-A:ARG:545:NE:4924, V-A:ARG:545:CZ:4926, H-A:ARG:545:NH2:4928, H-B:GLU:543:OE1:9881, H-B:GLU:543:OE2:9882, V-A:LEU:475:CD1:4258, H-B:VAL:542:O:9867"]

$$$$
4ca_Grossjean_2025
     RDKit          3D

 34 37  0  0  0  0  0  0  0  0999 V2000
  129.5830  116.9150   60.5760 C   0  0  0  0  0  0  0  0  0  0  0  0
  130.9800  117.5130   60.7660 C   0  0  0  0  0  0  0  0  0  0  0  0
  131.2990  118.3330   59.6500 O   0  0  0  0  0  0  0  0  0  0  0  0
  132.0970  119.4240   59.7860 C   0  0  0  0  0  0  0  0  0  0  0  0
  133.1380  119.5890   59.1430 O   0  0  0  0  0  0  0  0  0  0  0  0
  131.5850  120.4110   60.7940 C   0  0  0  0  0  0  0  0  0  0  0  0
  132.4450  121.4070   61.2760 C   0  0  0  0  0  0  0  0  0  0  0  0
  131.9970  122.3390   62.2080 C   0  0  0  0  0  0  0  0  0  0  0  0
  130.6870  122.2910   62.6830 C   0  0  0  0  0  0  0  0  0  0  0  0
  130.3380  123.2870   63.6160 N   0  0  0  0  0  0  0  0  0  0  0  0
  130.7010  124.5920   63.6770 C   0  0  0  0  0  0  0  0  0  0  0  0
  131.4040  125.1540   62.8370 O   0  0  0  0  0  0  0  0  0  0  0  0
  130.1780  125.3340   64.8270 C   0  0  0  0  0  0  0  0  0  0  0  0
  130.4280  124.7250   66.4610 S   0  0  0  0  0  0  0  0  0  0  0  0
  129.6090  126.1070   67.1490 C   0  0  0  0  0  0  0  0  0  0  0  0
  129.4620  126.2420   68.4650 N   0  0  0  0  0  0  0  0  0  0  0  0
  128.8250  127.3570   68.9080 C   0  0  0  0  0  0  0  0  0  0  0  0
  128.6840  127.4850   70.3970 C   0  0  0  0  0  0  0  0  0  0  0  0
  127.5640  126.9580   71.0610 C   0  0  0  0  0  0  0  0  0  0  0  0
  127.4250  127.0790   72.4420 C   0  0  0  0  0  0  0  0  0  0  0  0
  128.4060  127.7320   73.1800 C   0  0  0  0  0  0  0  0  0  0  0  0
  129.5240  128.2660   72.5470 C   0  0  0  0  0  0  0  0  0  0  0  0
  129.6590  128.1430   71.1670 C   0  0  0  0  0  0  0  0  0  0  0  0
  128.3180  128.3180   68.0260 C   0  0  0  0  0  0  0  0  0  0  0  0
  128.4640  128.1820   66.6370 C   0  0  0  0  0  0  0  0  0  0  0  0
  127.8870  129.2750   65.7290 C   0  0  0  0  0  0  0  0  0  0  0  0
  126.6050  129.0760   65.4200 F   0  0  0  0  0  0  0  0  0  0  0  0
  127.9710  130.4580   66.3370 F   0  0  0  0  0  0  0  0  0  0  0  0
  128.5700  129.3180   64.5850 F   0  0  0  0  0  0  0  0  0  0  0  0
  129.1460  127.0260   66.1630 C   0  0  0  0  0  0  0  0  0  0  0  0
  129.4880  126.5580   64.8420 C   0  0  0  0  0  0  0  0  0  0  0  0
  129.1640  127.2510   63.7030 N   0  0  0  0  0  0  0  0  0  0  0  0
  129.8170  121.3020   62.2040 C   0  0  0  0  0  0  0  0  0  0  0  0
  130.2650  120.3710   61.2690 C   0  0  0  0  0  0  0  0  0  0  0  0
  1  2  1  0
  2  3  1  0
  3  4  1  0
  4  5  2  0
  4  6  1  0
  6  7  2  0
  7  8  1  0
  8  9  2  0
  9 10  1  0
 10 11  1  0
 11 12  2  0
 11 13  1  0
 13 14  1  0
 14 15  1  0
 15 16  2  0
 16 17  1  0
 17 18  1  0
 18 19  2  0
 19 20  1  0
 20 21  2  0
 21 22  1  0
 22 23  2  0
 17 24  2  0
 24 25  1  0
 25 26  1  0
 26 27  1  0
 26 28  1  0
 26 29  1  0
 25 30  2  0
 30 31  1  0
 31 32  1  0
  9 33  1  0
 33 34  2  0
 34  6  1  0
 31 13  2  0
 30 15  1  0
 23 18  1  0
M  END
>  <Binding energies>  (30) 
[-7.7]

>  <Ligand effiencies>  (30) 
[-0.20810810810810812]

>  <Interactions>  (30) 
["V-B:HIS:456:CE1:9041, V-A:GLU:543:CG:4907, V-B:GLU:543:CD:9880, V-A:TYR:484:CE2:4346, V-B:GLU:543:CG:9879, V-B:TYR:484:CZ:9318, V-B:HIS:456:CD2:9039, V-B:GLU:543:C:9874, V-A:GLU:543:CD:4908, V-A:HIS:456:CE1:4070, V-A:GLU:543:CB:4906, V-B:GLY:544:C:9884, V-A:TYR:484:CZ:4347, V-B:GLU:543:CB:9878, V-B:LYS:547:CE:9922, V-B:TYR:539:CD2:9846, V-B:TYR:539:CE2:9848, V-A:LEU:475:CD2:4259, V-B:TYR:539:C:9839, V-B:ALA:541:CB:9864, V-B:TYR:539:CG:9844, H-A:SER:385:OG:3410, H-A:GLU:543:OE2:4910, H-A:GLU:543:OE1:4909, H-B:GLU:543:OE1:9881, V-B:GLY:544:CA:9886, V-A:SER:385:CB:3409, H-B:GLU:543:OE2:9882, V-B:TYR:484:CE2:9317, V-A:HIS:383:NE2:3394, V-A:PRO:482:CG:4327, V-A:PRO:482:CB:4326, V-B:VAL:344:CG1:7972, V-A:HIS:383:CE1:3393, H-A:HIS:383:HE2:3395"]

$$$$
4cb_Grossjean_2025
     RDKit          3D

 33 36  0  0  0  0  0  0  0  0999 V2000
  131.9210  133.2670   56.8150 C   0  0  0  0  0  0  0  0  0  0  0  0
  130.7160  132.5290   56.6620 O   0  0  0  0  0  0  0  0  0  0  0  0
  129.5800  132.9070   57.3030 C   0  0  0  0  0  0  0  0  0  0  0  0
  128.7840  133.7350   56.8480 O   0  0  0  0  0  0  0  0  0  0  0  0
  129.3850  132.2150   58.6230 C   0  0  0  0  0  0  0  0  0  0  0  0
  130.2330  131.1560   58.9710 C   0  0  0  0  0  0  0  0  0  0  0  0
  130.0830  130.5000   60.1900 C   0  0  0  0  0  0  0  0  0  0  0  0
  129.0810  130.8850   61.0810 C   0  0  0  0  0  0  0  0  0  0  0  0
  129.0290  130.1640   62.2900 N   0  0  0  0  0  0  0  0  0  0  0  0
  127.9880  129.5320   62.8850 C   0  0  0  0  0  0  0  0  0  0  0  0
  126.8590  129.4480   62.3980 O   0  0  0  0  0  0  0  0  0  0  0  0
  128.2890  128.9110   64.1780 C   0  0  0  0  0  0  0  0  0  0  0  0
  127.8440  129.7240   65.6770 S   0  0  0  0  0  0  0  0  0  0  0  0
  128.4650  128.4000   66.6340 C   0  0  0  0  0  0  0  0  0  0  0  0
  128.4120  128.4170   67.9630 N   0  0  0  0  0  0  0  0  0  0  0  0
  128.9100  127.3380   68.6200 C   0  0  0  0  0  0  0  0  0  0  0  0
  128.8310  127.3850   70.1180 C   0  0  0  0  0  0  0  0  0  0  0  0
  129.9210  127.8350   70.8800 C   0  0  0  0  0  0  0  0  0  0  0  0
  129.8560  127.8780   72.2710 C   0  0  0  0  0  0  0  0  0  0  0  0
  128.6960  127.4690   72.9210 C   0  0  0  0  0  0  0  0  0  0  0  0
  127.6020  127.0160   72.1890 C   0  0  0  0  0  0  0  0  0  0  0  0
  127.6730  126.9730   70.8000 C   0  0  0  0  0  0  0  0  0  0  0  0
  129.4780  126.2560   67.9380 C   0  0  0  0  0  0  0  0  0  0  0  0
  129.5420  126.2290   66.5370 C   0  0  0  0  0  0  0  0  0  0  0  0
  130.1770  125.0110   65.8540 C   0  0  0  0  0  0  0  0  0  0  0  0
  129.4980  124.6020   64.7800 F   0  0  0  0  0  0  0  0  0  0  0  0
  131.4120  125.3120   65.4540 F   0  0  0  0  0  0  0  0  0  0  0  0
  130.2260  123.9890   66.7080 F   0  0  0  0  0  0  0  0  0  0  0  0
  129.0080  127.3490   65.8370 C   0  0  0  0  0  0  0  0  0  0  0  0
  128.8890  127.6670   64.4350 C   0  0  0  0  0  0  0  0  0  0  0  0
  129.3260  126.8250   63.4450 N   0  0  0  0  0  0  0  0  0  0  0  0
  128.2290  131.9470   60.7410 C   0  0  0  0  0  0  0  0  0  0  0  0
  128.3820  132.6020   59.5230 C   0  0  0  0  0  0  0  0  0  0  0  0
  1  2  1  0
  2  3  1  0
  3  4  2  0
  3  5  1  0
  5  6  2  0
  6  7  1  0
  7  8  2  0
  8  9  1  0
  9 10  1  0
 10 11  2  0
 10 12  1  0
 12 13  1  0
 13 14  1  0
 14 15  2  0
 15 16  1  0
 16 17  1  0
 17 18  2  0
 18 19  1  0
 19 20  2  0
 20 21  1  0
 21 22  2  0
 16 23  2  0
 23 24  1  0
 24 25  1  0
 25 26  1  0
 25 27  1  0
 25 28  1  0
 24 29  2  0
 29 30  1  0
 30 31  1  0
  8 32  1  0
 32 33  2  0
 33  5  1  0
 30 12  2  0
 29 14  1  0
 22 17  1  0
M  END
>  <Binding energies>  (31) 
[-7.6]

>  <Ligand effiencies>  (31) 
[-0.2111111111111111]

>  <Interactions>  (31) 
["V-B:HIS:456:CE1:9041, V-A:GLU:543:CG:4907, V-B:GLU:543:CD:9880, V-A:TYR:484:CE2:4346, V-B:GLU:543:CG:9879, V-B:TYR:484:CZ:9318, V-B:HIS:456:CD2:9039, V-B:GLU:543:C:9874, V-A:GLU:543:CD:4908, V-A:HIS:456:CE1:4070, V-A:GLU:543:CB:4906, V-B:GLY:544:C:9884, V-A:TYR:484:CZ:4347, V-B:GLU:543:CB:9878, V-B:LYS:547:CE:9922, V-B:GLU:543:CA:9876, V-A:TYR:539:C:4867, V-A:PRO:540:CD:4887, H-A:TYR:539:N:4870, V-A:PRO:540:N:4884, V-A:PRO:540:CA:4883, H-A:GLU:543:OE2:4910, V-A:TYR:539:CD1:4873, V-A:PRO:540:CB:4885, V-A:LEU:363:CD1:3189, V-A:ILE:538:CA:4860, H-A:GLU:543:OE1:4909, H-B:GLU:543:OE1:9881, V-A:ILE:538:CB:4862, V-A:ILE:538:CG2:4863, V-A:TYR:484:CD2:4344, V-A:PRO:540:CG:4886"]

$$$$
4cc_Grossjean_2025
     RDKit          3D

 31 34  0  0  0  0  0  0  0  0999 V2000
  130.7150  132.7960   56.6380 C   0  0  0  0  0  0  0  0  0  0  0  0
  129.8060  133.3570   57.5790 O   0  0  0  0  0  0  0  0  0  0  0  0
  129.5490  132.6780   58.7550 C   0  0  0  0  0  0  0  0  0  0  0  0
  130.4600  131.6840   59.1120 C   0  0  0  0  0  0  0  0  0  0  0  0
  130.2850  130.9480   60.2810 C   0  0  0  0  0  0  0  0  0  0  0  0
  129.1860  131.1920   61.1070 C   0  0  0  0  0  0  0  0  0  0  0  0
  129.1020  130.4100   62.2740 N   0  0  0  0  0  0  0  0  0  0  0  0
  128.0420  129.7330   62.7770 C   0  0  0  0  0  0  0  0  0  0  0  0
  126.9410  129.6700   62.2270 O   0  0  0  0  0  0  0  0  0  0  0  0
  128.2780  129.0500   64.0530 C   0  0  0  0  0  0  0  0  0  0  0  0
  127.9020  129.8570   65.5740 S   0  0  0  0  0  0  0  0  0  0  0  0
  128.4270  128.4670   66.4930 C   0  0  0  0  0  0  0  0  0  0  0  0
  128.3840  128.4570   67.8230 N   0  0  0  0  0  0  0  0  0  0  0  0
  128.8040  127.3270   68.4500 C   0  0  0  0  0  0  0  0  0  0  0  0
  128.7460  127.3460   69.9500 C   0  0  0  0  0  0  0  0  0  0  0  0
  129.8660  127.7280   70.7070 C   0  0  0  0  0  0  0  0  0  0  0  0
  129.8200  127.7460   72.0990 C   0  0  0  0  0  0  0  0  0  0  0  0
  128.6500  127.3800   72.7560 C   0  0  0  0  0  0  0  0  0  0  0  0
  127.5280  126.9940   72.0300 C   0  0  0  0  0  0  0  0  0  0  0  0
  127.5780  126.9760   70.6390 C   0  0  0  0  0  0  0  0  0  0  0  0
  129.2810  126.2220   67.7390 C   0  0  0  0  0  0  0  0  0  0  0  0
  129.3330  126.2230   66.3360 C   0  0  0  0  0  0  0  0  0  0  0  0
  129.8620  124.9740   65.6210 C   0  0  0  0  0  0  0  0  0  0  0  0
  129.1500  124.6470   64.5400 F   0  0  0  0  0  0  0  0  0  0  0  0
  131.1180  125.1800   65.2240 F   0  0  0  0  0  0  0  0  0  0  0  0
  129.8290  123.9320   66.4510 F   0  0  0  0  0  0  0  0  0  0  0  0
  128.8860  127.3980   65.6680 C   0  0  0  0  0  0  0  0  0  0  0  0
  128.7930  127.7630   64.2760 C   0  0  0  0  0  0  0  0  0  0  0  0
  129.1730  126.9210   63.2620 N   0  0  0  0  0  0  0  0  0  0  0  0
  128.2730  132.1990   60.7620 C   0  0  0  0  0  0  0  0  0  0  0  0
  128.4520  132.9330   59.5930 C   0  0  0  0  0  0  0  0  0  0  0  0
  1  2  1  0
  2  3  1  0
  3  4  2  0
  4  5  1  0
  5  6  2  0
  6  7  1  0
  7  8  1  0
  8  9  2  0
  8 10  1  0
 10 11  1  0
 11 12  1  0
 12 13  2  0
 13 14  1  0
 14 15  1  0
 15 16  2  0
 16 17  1  0
 17 18  2  0
 18 19  1  0
 19 20  2  0
 14 21  2  0
 21 22  1  0
 22 23  1  0
 23 24  1  0
 23 25  1  0
 23 26  1  0
 22 27  2  0
 27 28  1  0
 28 29  1  0
  6 30  1  0
 30 31  2  0
 31  3  1  0
 28 10  2  0
 27 12  1  0
 20 15  1  0
M  END
>  <Binding energies>  (32) 
[-7.46]

>  <Ligand effiencies>  (32) 
[-0.21941176470588236]

>  <Interactions>  (32) 
["V-B:HIS:456:CE1:9041, V-A:GLU:543:CG:4907, V-B:GLU:543:CD:9880, V-A:TYR:484:CE2:4346, V-B:GLU:543:CG:9879, V-B:TYR:484:CZ:9318, V-B:HIS:456:CD2:9039, V-B:GLU:543:C:9874, V-A:GLU:543:CD:4908, V-A:HIS:456:CE1:4070, V-A:GLU:543:CB:4906, V-B:GLY:544:C:9884, V-A:TYR:484:CZ:4347, V-B:GLU:543:CB:9878, V-B:GLU:543:CA:9876, V-A:TYR:539:C:4867, H-A:TYR:539:N:4870, V-A:PRO:540:N:4884, V-A:PRO:540:CA:4883, V-A:TYR:539:CE1:4875, V-A:TYR:539:CD1:4873, V-A:ILE:538:CA:4860, H-A:GLU:543:OE1:4909, H-B:GLU:543:OE1:9881, V-A:ILE:538:CB:4862, V-B:GLY:544:CA:9886, H-B:GLU:543:OE2:9882"]

$$$$
4ce_Grossjean_2025
     RDKit          3D

 30 33  0  0  0  0  0  0  0  0999 V2000
  131.4730  120.3560   60.6480 C   0  0  0  0  0  0  0  0  0  0  0  0
  132.2730  121.3500   61.4690 C   0  0  0  0  0  0  0  0  0  0  0  0
  133.6510  121.5010   61.2930 C   0  0  0  0  0  0  0  0  0  0  0  0
  134.3210  122.4410   62.0780 C   0  0  0  0  0  0  0  0  0  0  0  0
  133.6060  123.1980   63.0080 C   0  0  0  0  0  0  0  0  0  0  0  0
  132.2280  122.9910   63.1370 C   0  0  0  0  0  0  0  0  0  0  0  0
  131.5600  123.8010   64.0730 N   0  0  0  0  0  0  0  0  0  0  0  0
  130.4460  124.5560   63.9010 C   0  0  0  0  0  0  0  0  0  0  0  0
  129.8230  124.6240   62.8400 O   0  0  0  0  0  0  0  0  0  0  0  0
  130.0070  125.3080   65.0780 C   0  0  0  0  0  0  0  0  0  0  0  0
  130.3190  124.6840   66.6960 S   0  0  0  0  0  0  0  0  0  0  0  0
  129.5790  126.0880   67.4280 C   0  0  0  0  0  0  0  0  0  0  0  0
  129.5040  126.2220   68.7500 N   0  0  0  0  0  0  0  0  0  0  0  0
  128.9250  127.3550   69.2270 C   0  0  0  0  0  0  0  0  0  0  0  0
  128.8600  127.4780   70.7210 C   0  0  0  0  0  0  0  0  0  0  0  0
  127.6620  127.2270   71.4090 C   0  0  0  0  0  0  0  0  0  0  0  0
  127.5930  127.3460   72.7950 C   0  0  0  0  0  0  0  0  0  0  0  0
  128.7250  127.7170   73.5130 C   0  0  0  0  0  0  0  0  0  0  0  0
  129.9230  127.9730   72.8560 C   0  0  0  0  0  0  0  0  0  0  0  0
  129.9880  127.8550   71.4700 C   0  0  0  0  0  0  0  0  0  0  0  0
  128.4060  128.3360   68.3760 C   0  0  0  0  0  0  0  0  0  0  0  0
  128.4760  128.2020   66.9800 C   0  0  0  0  0  0  0  0  0  0  0  0
  127.8900  129.3150   66.1060 C   0  0  0  0  0  0  0  0  0  0  0  0
  128.4680  129.3980   64.9060 F   0  0  0  0  0  0  0  0  0  0  0  0
  126.5890  129.0950   65.9070 F   0  0  0  0  0  0  0  0  0  0  0  0
  128.0490  130.4930   66.7080 F   0  0  0  0  0  0  0  0  0  0  0  0
  129.0950  127.0250   66.4690 C   0  0  0  0  0  0  0  0  0  0  0  0
  129.3520  126.5510   65.1310 C   0  0  0  0  0  0  0  0  0  0  0  0
  128.9890  127.2550   64.0120 N   0  0  0  0  0  0  0  0  0  0  0  0
  131.5640  122.0780   62.3700 N   0  0  0  0  0  0  0  0  0  0  0  0
  1  2  1  0
  2  3  2  0
  3  4  1  0
  4  5  2  0
  5  6  1  0
  6  7  1  0
  7  8  1  0
  8  9  2  0
  8 10  1  0
 10 11  1  0
 11 12  1  0
 12 13  2  0
 13 14  1  0
 14 15  1  0
 15 16  2  0
 16 17  1  0
 17 18  2  0
 18 19  1  0
 19 20  2  0
 14 21  2  0
 21 22  1  0
 22 23  1  0
 23 24  1  0
 23 25  1  0
 23 26  1  0
 22 27  2  0
 27 28  1  0
 28 29  1  0
  6 30  2  0
 30  2  1  0
 28 10  2  0
 27 12  1  0
 20 15  1  0
M  END
>  <Binding energies>  (33) 
[-7.4]

>  <Ligand effiencies>  (33) 
[-0.22424242424242424]

>  <Interactions>  (33) 
["V-B:HIS:456:CE1:9041, V-A:GLU:543:CG:4907, V-B:GLU:543:CD:9880, V-A:TYR:484:CE2:4346, V-B:GLU:543:CG:9879, V-B:TYR:484:CZ:9318, V-B:HIS:456:CD2:9039, V-A:GLU:543:CD:4908, V-A:HIS:456:CE1:4070, V-A:GLU:543:CB:4906, V-B:GLY:544:C:9884, V-A:TYR:484:CZ:4347, V-B:GLU:543:CB:9878, V-B:LYS:547:CE:9922, V-B:TYR:539:CD2:9846, V-B:TYR:539:CE2:9848, V-A:GLY:454:CA:4049, V-A:LEU:475:CD2:4259, V-A:ILE:369:CG2:3237, V-A:ILE:369:CD1:3239, V-A:GLU:543:CA:4904, H-A:TYR:484:OH:4348, H-A:GLU:543:OE2:4910, H-A:GLU:543:OE1:4909, H-B:GLU:543:OE1:9881, H-B:GLU:543:OE2:9882, V-B:TYR:484:CE2:9317"]

$$$$
4cf_Grossjean_2025
     RDKit          3D

 29 32  0  0  0  0  0  0  0  0999 V2000
  129.0350  127.2840   63.7800 N   0  0  0  0  0  0  0  0  0  0  0  0
  129.3950  126.5730   64.8950 C   0  0  0  0  0  0  0  0  0  0  0  0
  130.0650  125.3400   64.8380 C   0  0  0  0  0  0  0  0  0  0  0  0
  130.4660  124.5710   63.6570 C   0  0  0  0  0  0  0  0  0  0  0  0
  129.8550  124.6910   62.5940 O   0  0  0  0  0  0  0  0  0  0  0  0
  131.5360  123.7580   63.8290 N   0  0  0  0  0  0  0  0  0  0  0  0
  132.1380  122.8620   62.9250 C   0  0  0  0  0  0  0  0  0  0  0  0
  133.5230  122.6430   62.7920 C   0  0  0  0  0  0  0  0  0  0  0  0
  133.9890  121.7320   61.8410 C   0  0  0  0  0  0  0  0  0  0  0  0
  133.0600  121.0630   61.0440 C   0  0  0  0  0  0  0  0  0  0  0  0
  131.7220  121.2610   61.1470 N   0  0  0  0  0  0  0  0  0  0  0  0
  131.2830  122.1510   62.0750 C   0  0  0  0  0  0  0  0  0  0  0  0
  130.3770  124.7100   66.4550 S   0  0  0  0  0  0  0  0  0  0  0  0
  129.6040  126.0940   67.1920 C   0  0  0  0  0  0  0  0  0  0  0  0
  129.5040  126.2120   68.5140 N   0  0  0  0  0  0  0  0  0  0  0  0
  128.8720  127.3160   68.9920 C   0  0  0  0  0  0  0  0  0  0  0  0
  128.7680  127.4180   70.4860 C   0  0  0  0  0  0  0  0  0  0  0  0
  127.6200  126.9690   71.1580 C   0  0  0  0  0  0  0  0  0  0  0  0
  127.5150  127.0590   72.5430 C   0  0  0  0  0  0  0  0  0  0  0  0
  128.5640  127.6000   73.2800 C   0  0  0  0  0  0  0  0  0  0  0  0
  129.7150  128.0490   72.6410 C   0  0  0  0  0  0  0  0  0  0  0  0
  129.8140  127.9570   71.2550 C   0  0  0  0  0  0  0  0  0  0  0  0
  128.3670  128.3050   68.1440 C   0  0  0  0  0  0  0  0  0  0  0  0
  128.4710  128.1920   66.7490 C   0  0  0  0  0  0  0  0  0  0  0  0
  127.8900  129.3120   65.8770 C   0  0  0  0  0  0  0  0  0  0  0  0
  128.5190  129.4450   64.7070 F   0  0  0  0  0  0  0  0  0  0  0  0
  126.6080  129.0590   65.6130 F   0  0  0  0  0  0  0  0  0  0  0  0
  127.9870  130.4780   66.5150 F   0  0  0  0  0  0  0  0  0  0  0  0
  129.1160  127.0310   66.2340 C   0  0  0  0  0  0  0  0  0  0  0  0
  1  2  1  0
  2  3  2  0
  3  4  1  0
  4  5  2  0
  4  6  1  0
  6  7  1  0
  7  8  2  0
  8  9  1  0
  9 10  2  0
 10 11  1  0
 11 12  2  0
  3 13  1  0
 13 14  1  0
 14 15  2  0
 15 16  1  0
 16 17  1  0
 17 18  2  0
 18 19  1  0
 19 20  2  0
 20 21  1  0
 21 22  2  0
 16 23  2  0
 23 24  1  0
 24 25  1  0
 25 26  1  0
 25 27  1  0
 25 28  1  0
 24 29  2  0
 29  2  1  0
 12  7  1  0
 29 14  1  0
 22 17  1  0
M  END
>  <Binding energies>  (34) 
[-6.89]

>  <Ligand effiencies>  (34) 
[-0.2153125]

>  <Interactions>  (34) 
["V-B:HIS:456:CE1:9041, V-A:GLU:543:CG:4907, V-B:GLU:543:CD:9880, V-A:TYR:484:CE2:4346, V-B:GLU:543:CG:9879, V-B:TYR:484:CZ:9318, V-B:HIS:456:CD2:9039, V-B:GLU:543:C:9874, V-A:GLU:543:CD:4908, V-A:HIS:456:CE1:4070, V-A:GLU:543:CB:4906, V-B:GLY:544:C:9884, V-A:TYR:484:CZ:4347, V-B:GLU:543:CB:9878, V-B:LYS:547:CE:9922, V-A:GLY:454:CA:4049, V-A:LEU:475:CD2:4259, V-A:ILE:369:CG2:3237, V-A:ILE:369:CD1:3239, H-A:TYR:484:OH:4348, V-A:SER:385:C:3405, H-A:GLU:543:OE2:4910, H-A:GLU:543:OE1:4909, H-B:GLU:543:OE1:9881, V-A:SER:385:CB:3409, H-B:GLU:543:OE2:9882, V-B:TYR:484:CE2:9317"]

$$$$
4ci_Grossjean_2025
     RDKit          3D

 28 31  0  0  0  0  0  0  0  0999 V2000
  128.7330  127.2630   63.7330 N   0  0  0  0  0  0  0  0  0  0  0  0
  129.1350  126.5060   64.8030 C   0  0  0  0  0  0  0  0  0  0  0  0
  129.6380  125.2010   64.6760 C   0  0  0  0  0  0  0  0  0  0  0  0
  129.8430  124.4150   63.4560 C   0  0  0  0  0  0  0  0  0  0  0  0
  130.9810  124.1300   63.0750 O   0  0  0  0  0  0  0  0  0  0  0  0
  128.7130  124.0530   62.7990 N   0  0  0  0  0  0  0  0  0  0  0  0
  128.6160  123.3150   61.6260 C   0  0  0  0  0  0  0  0  0  0  0  0
  128.0800  123.8270   60.4450 C   0  0  0  0  0  0  0  0  0  0  0  0
  128.1640  122.7980   59.5370 C   0  0  0  0  0  0  0  0  0  0  0  0
  128.7230  121.7210   60.1390 O   0  0  0  0  0  0  0  0  0  0  0  0
  129.0050  122.0620   61.4630 N   0  0  0  0  0  0  0  0  0  0  0  0
  130.0680  124.5290   66.2470 S   0  0  0  0  0  0  0  0  0  0  0  0
  129.5640  125.9920   67.0610 C   0  0  0  0  0  0  0  0  0  0  0  0
  129.6490  126.1170   68.3840 N   0  0  0  0  0  0  0  0  0  0  0  0
  129.2360  127.2920   68.9260 C   0  0  0  0  0  0  0  0  0  0  0  0
  129.3390  127.4000   70.4200 C   0  0  0  0  0  0  0  0  0  0  0  0
  128.2890  126.9700   71.2480 C   0  0  0  0  0  0  0  0  0  0  0  0
  128.3790  127.0670   72.6340 C   0  0  0  0  0  0  0  0  0  0  0  0
  129.5250  127.6000   73.2150 C   0  0  0  0  0  0  0  0  0  0  0  0
  130.5780  128.0380   72.4200 C   0  0  0  0  0  0  0  0  0  0  0  0
  130.4830  127.9400   71.0350 C   0  0  0  0  0  0  0  0  0  0  0  0
  128.7250  128.3290   68.1380 C   0  0  0  0  0  0  0  0  0  0  0  0
  128.6320  128.2080   66.7420 C   0  0  0  0  0  0  0  0  0  0  0  0
  128.0630  129.3840   65.9410 C   0  0  0  0  0  0  0  0  0  0  0  0
  128.6060  129.5040   64.7280 F   0  0  0  0  0  0  0  0  0  0  0  0
  126.7500  129.2210   65.7750 F   0  0  0  0  0  0  0  0  0  0  0  0
  128.2860  130.5250   66.5930 F   0  0  0  0  0  0  0  0  0  0  0  0
  129.0740  126.9850   66.1630 C   0  0  0  0  0  0  0  0  0  0  0  0
  1  2  1  0
  2  3  2  0
  3  4  1  0
  4  5  2  0
  4  6  1  0
  6  7  1  0
  7  8  1  0
  8  9  2  0
  9 10  1  0
 10 11  1  0
  3 12  1  0
 12 13  1  0
 13 14  2  0
 14 15  1  0
 15 16  1  0
 16 17  2  0
 17 18  1  0
 18 19  2  0
 19 20  1  0
 20 21  2  0
 15 22  2  0
 22 23  1  0
 23 24  1  0
 24 25  1  0
 24 26  1  0
 24 27  1  0
 23 28  2  0
 28  2  1  0
 11  7  2  0
 28 13  1  0
 21 16  1  0
M  END
>  <Binding energies>  (35) 
[-6.7]

>  <Ligand effiencies>  (35) 
[-0.2161290322580645]

>  <Interactions>  (35) 
["V-B:HIS:456:CE1:9041, V-A:GLU:543:CG:4907, V-B:GLU:543:CD:9880, V-A:TYR:484:CE2:4346, V-B:GLU:543:CG:9879, V-B:TYR:484:CZ:9318, V-A:GLU:543:CD:4908, V-A:HIS:456:CE1:4070, V-A:GLU:543:CB:4906, V-A:TYR:484:CZ:4347, V-B:GLU:543:CB:9878, V-B:TYR:539:CD2:9846, V-B:TYR:539:CE2:9848, V-B:PRO:540:CA:9855, V-B:PRO:540:N:9856, V-B:TYR:539:C:9839, V-A:GLU:543:CA:4904, V-A:GLU:543:C:4902, V-A:GLY:544:C:4912, H-B:ALA:541:N:9863, H-A:GLU:543:OE2:4910, H-A:GLU:543:OE1:4909, H-B:GLU:543:OE1:9881, H-B:GLU:543:OE2:9882, V-B:TYR:484:CE2:9317"]

$$$$
8a_Ghoteimi_2023
     RDKit          3D

 40 44  0  0  0  0  0  0  0  0999 V2000
  134.2720  119.0170   57.1130 C   0  0  0  0  0  0  0  0  0  0  0  0
  132.9140  118.4670   57.5580 C   0  0  0  0  0  0  0  0  0  0  0  0
  132.8250  118.5160   58.9760 O   0  0  0  0  0  0  0  0  0  0  0  0
  131.6200  118.5140   59.6040 C   0  0  0  0  0  0  0  0  0  0  0  0
  130.7640  117.6420   59.4280 O   0  0  0  0  0  0  0  0  0  0  0  0
  131.4310  119.6820   60.5280 C   0  0  0  0  0  0  0  0  0  0  0  0
  130.1950  119.8580   61.1630 C   0  0  0  0  0  0  0  0  0  0  0  0
  129.9880  120.9320   62.0240 C   0  0  0  0  0  0  0  0  0  0  0  0
  131.0090  121.8520   62.2690 C   0  0  0  0  0  0  0  0  0  0  0  0
  130.6840  122.8990   63.1540 N   0  0  0  0  0  0  0  0  0  0  0  0
  131.1240  124.1810   63.1940 C   0  0  0  0  0  0  0  0  0  0  0  0
  131.9380  124.6610   62.4050 O   0  0  0  0  0  0  0  0  0  0  0  0
  130.5520  125.0040   64.2650 C   0  0  0  0  0  0  0  0  0  0  0  0
  130.7990  124.5640   65.9540 S   0  0  0  0  0  0  0  0  0  0  0  0
  129.8600  125.9360   66.4970 C   0  0  0  0  0  0  0  0  0  0  0  0
  129.6390  126.1650   67.7910 N   0  0  0  0  0  0  0  0  0  0  0  0
  128.8920  127.2560   68.1050 C   0  0  0  0  0  0  0  0  0  0  0  0
  128.6390  127.4820   69.5620 C   0  0  0  0  0  0  0  0  0  0  0  0
  129.5480  128.2020   70.3500 C   0  0  0  0  0  0  0  0  0  0  0  0
  129.3130  128.4000   71.7080 C   0  0  0  0  0  0  0  0  0  0  0  0
  128.1660  127.8860   72.3110 C   0  0  0  0  0  0  0  0  0  0  0  0
  128.0170  128.1290   73.6630 O   0  0  0  0  0  0  0  0  0  0  0  0
  126.7170  128.3870   74.1820 C   0  0  0  0  0  0  0  0  0  0  0  0
  127.2480  127.1700   71.5300 C   0  0  0  0  0  0  0  0  0  0  0  0
  127.4870  126.9710   70.1720 C   0  0  0  0  0  0  0  0  0  0  0  0
  128.3780  128.1140   67.1310 C   0  0  0  0  0  0  0  0  0  0  0  0
  128.6210  127.8870   65.7720 C   0  0  0  0  0  0  0  0  0  0  0  0
  128.0780  128.8480   64.7790 C   0  0  0  0  0  0  0  0  0  0  0  0
  127.2680  128.3970   63.7340 C   0  0  0  0  0  0  0  0  0  0  0  0
  126.7400  129.2980   62.8140 C   0  0  0  0  0  0  0  0  0  0  0  0
  127.0070  130.6630   62.9230 C   0  0  0  0  0  0  0  0  0  0  0  0
  126.4400  131.4810   61.9650 O   0  0  0  0  0  0  0  0  0  0  0  0
  127.0430  132.7370   61.6800 C   0  0  0  0  0  0  0  0  0  0  0  0
  127.8130  131.1190   63.9770 C   0  0  0  0  0  0  0  0  0  0  0  0
  128.3390  130.2160   64.8980 C   0  0  0  0  0  0  0  0  0  0  0  0
  129.3830  126.7370   65.4190 C   0  0  0  0  0  0  0  0  0  0  0  0
  129.7780  126.1700   64.1530 C   0  0  0  0  0  0  0  0  0  0  0  0
  129.4090  126.7210   62.9510 N   0  0  0  0  0  0  0  0  0  0  0  0
  132.2520  121.6810   61.6410 C   0  0  0  0  0  0  0  0  0  0  0  0
  132.4570  120.6060   60.7790 C   0  0  0  0  0  0  0  0  0  0  0  0
  1  2  1  0
  2  3  1  0
  3  4  1  0
  4  5  2  0
  4  6  1  0
  6  7  2  0
  7  8  1  0
  8  9  2  0
  9 10  1  0
 10 11  1  0
 11 12  2  0
 11 13  1  0
 13 14  1  0
 14 15  1  0
 15 16  2  0
 16 17  1  0
 17 18  1  0
 18 19  2  0
 19 20  1  0
 20 21  2  0
 21 22  1  0
 22 23  1  0
 21 24  1  0
 24 25  2  0
 17 26  2  0
 26 27  1  0
 27 28  1  0
 28 29  2  0
 29 30  1  0
 30 31  2  0
 31 32  1  0
 32 33  1  0
 31 34  1  0
 34 35  2  0
 27 36  2  0
 36 37  1  0
 37 38  1  0
  9 39  1  0
 39 40  2  0
 40  6  1  0
 37 13  2  0
 36 15  1  0
 25 18  1  0
 35 28  1  0
M  END
>  <Binding energies>  (36) 
[-7.42]

>  <Ligand effiencies>  (36) 
[-0.17255813953488372]

>  <Interactions>  (36) 
["V-B:HIS:456:CE1:9041, V-A:GLU:543:CG:4907, V-B:GLU:543:CD:9880, V-A:TYR:484:CE2:4346, V-B:GLU:543:CG:9879, V-B:HIS:456:CD2:9039, V-B:GLU:543:C:9874, V-A:GLU:543:CD:4908, V-B:HIS:456:CG:9037, V-A:GLU:543:CB:4906, V-B:GLY:544:C:9884, V-A:TYR:484:CZ:4347, V-B:GLU:543:CB:9878, V-B:LYS:547:CE:9922, V-B:TYR:539:CD2:9846, V-B:TYR:539:CE2:9848, V-A:LEU:475:CD2:4259, V-B:TYR:539:C:9839, V-A:ILE:369:CG2:3237, H-B:LYS:547:NZ:9923, V-A:GLU:543:C:4902, V-B:ALA:541:CB:9864, V-B:TYR:539:CG:9844, V-B:HIS:456:CB:9036, H-A:SER:385:OG:3410, H-A:GLU:543:OE1:4909, H-B:GLU:543:OE1:9881, V-B:GLY:544:CA:9886, V-A:SER:385:CB:3409, V-A:ILE:369:C:3232, V-B:TYR:539:CB:9843, V-A:HIS:383:CD2:3392, V-A:HIS:383:NE2:3394, H-A:HIS:383:HE2:3395, V-A:LEU:373:CD1:3280, V-A:LEU:373:CG:3279, V-A:LEU:373:CD2:3281"]

$$$$
8c_Ghoteimi_2023
     RDKit          3D

 34 38  0  0  0  0  0  0  0  0999 V2000
  126.8540  128.8320   74.9300 C   0  0  0  0  0  0  0  0  0  0  0  0
  127.9300  128.0270   74.4600 O   0  0  0  0  0  0  0  0  0  0  0  0
  128.1640  127.9420   73.1000 C   0  0  0  0  0  0  0  0  0  0  0  0
  127.2500  127.1990   72.3560 C   0  0  0  0  0  0  0  0  0  0  0  0
  127.4080  127.0570   70.9810 C   0  0  0  0  0  0  0  0  0  0  0  0
  128.4860  127.6550   70.3130 C   0  0  0  0  0  0  0  0  0  0  0  0
  128.6630  127.5030   68.8350 C   0  0  0  0  0  0  0  0  0  0  0  0
  128.0720  128.3870   67.9270 C   0  0  0  0  0  0  0  0  0  0  0  0
  128.2560  128.2240   66.5500 C   0  0  0  0  0  0  0  0  0  0  0  0
  127.6090  129.1720   65.6140 C   0  0  0  0  0  0  0  0  0  0  0  0
  126.2170  129.2240   65.5160 C   0  0  0  0  0  0  0  0  0  0  0  0
  125.6100  130.1230   64.6440 C   0  0  0  0  0  0  0  0  0  0  0  0
  126.3820  130.9770   63.8550 C   0  0  0  0  0  0  0  0  0  0  0  0
  125.6950  131.8370   63.0210 O   0  0  0  0  0  0  0  0  0  0  0  0
  126.3650  132.9760   62.4920 C   0  0  0  0  0  0  0  0  0  0  0  0
  127.7820  130.9200   63.9520 C   0  0  0  0  0  0  0  0  0  0  0  0
  128.3870  130.0220   64.8260 C   0  0  0  0  0  0  0  0  0  0  0  0
  129.0620  127.1410   66.1070 C   0  0  0  0  0  0  0  0  0  0  0  0
  129.4550  126.6890   64.7990 C   0  0  0  0  0  0  0  0  0  0  0  0
  129.0550  127.3240   63.6500 N   0  0  0  0  0  0  0  0  0  0  0  0
  130.2780  125.5510   64.8130 C   0  0  0  0  0  0  0  0  0  0  0  0
  130.8610  124.8320   63.6780 C   0  0  0  0  0  0  0  0  0  0  0  0
  130.5720  125.1430   62.5210 O   0  0  0  0  0  0  0  0  0  0  0  0
  131.7140  123.8290   64.0020 N   0  0  0  0  0  0  0  0  0  0  0  0
  132.3980  123.0000   63.1240 C   0  0  0  0  0  0  0  0  0  0  0  0
  133.6810  122.7100   63.1210 N   0  0  0  0  0  0  0  0  0  0  0  0
  133.9890  121.8830   62.1420 C   0  0  0  0  0  0  0  0  0  0  0  0
  132.9400  121.4850   61.3190 C   0  0  0  0  0  0  0  0  0  0  0  0
  131.4740  122.2420   61.8680 S   0  0  0  0  0  0  0  0  0  0  0  0
  130.5890  125.0120   66.4640 S   0  0  0  0  0  0  0  0  0  0  0  0
  129.6170  126.3080   67.1210 C   0  0  0  0  0  0  0  0  0  0  0  0
  129.4410  126.4620   68.4330 N   0  0  0  0  0  0  0  0  0  0  0  0
  129.3990  128.4040   71.0680 C   0  0  0  0  0  0  0  0  0  0  0  0
  129.2450  128.5470   72.4440 C   0  0  0  0  0  0  0  0  0  0  0  0
  1  2  1  0
  2  3  1  0
  3  4  2  0
  4  5  1  0
  5  6  2  0
  6  7  1  0
  7  8  2  0
  8  9  1  0
  9 10  1  0
 10 11  2  0
 11 12  1  0
 12 13  2  0
 13 14  1  0
 14 15  1  0
 13 16  1  0
 16 17  2  0
  9 18  2  0
 18 19  1  0
 19 20  1  0
 19 21  2  0
 21 22  1  0
 22 23  2  0
 22 24  1  0
 24 25  1  0
 25 26  2  0
 26 27  1  0
 27 28  2  0
 28 29  1  0
 21 30  1  0
 30 31  1  0
 31 32  2  0
  6 33  1  0
 33 34  2  0
 34  3  1  0
 32  7  1  0
 17 10  1  0
 31 18  1  0
 29 25  1  0
M  END
>  <Binding energies>  (37) 
[-7.42]

>  <Ligand effiencies>  (37) 
[-0.20054054054054055]

>  <Interactions>  (37) 
["V-B:HIS:456:CE1:9041, V-A:GLU:543:CG:4907, V-B:GLU:543:CD:9880, V-A:TYR:484:CE2:4346, V-B:GLU:543:CG:9879, H-B:TYR:484:OH:9319, V-B:HIS:456:CD2:9039, V-B:GLU:543:C:9874, V-A:GLU:543:CD:4908, V-B:HIS:456:CG:9037, V-A:HIS:456:CE1:4070, V-A:GLU:543:CB:4906, V-B:GLY:544:C:9884, V-B:LEU:475:CD2:9230, V-A:TYR:484:CZ:4347, V-B:GLU:543:CB:9878, V-B:LYS:547:CE:9922, V-A:GLY:454:CA:4049, V-A:LEU:475:CD2:4259, V-A:ILE:369:CG2:3237, V-A:ILE:369:CD1:3239, H-B:LYS:547:NZ:9923, V-A:GLU:543:C:4902, V-B:HIS:456:CB:9036, H-A:TYR:484:OH:4348, H-A:GLU:543:OE2:4910, H-A:GLY:454:N:4050, H-A:GLU:543:OE1:4909, H-B:GLU:543:OE1:9881, V-B:GLY:544:CA:9886, H-B:GLU:543:OE2:9882"]

$$$$
8d_Ghoteimi_2023
     RDKit          3D

 30 33  0  0  0  0  0  0  0  0999 V2000
  126.5930  127.2610   61.2690 C   0  0  0  0  0  0  0  0  0  0  0  0
  127.6690  128.1300   61.5960 O   0  0  0  0  0  0  0  0  0  0  0  0
  127.5540  129.0310   62.6070 C   0  0  0  0  0  0  0  0  0  0  0  0
  127.1300  130.1800   62.4620 O   0  0  0  0  0  0  0  0  0  0  0  0
  127.9930  128.4910   63.9120 C   0  0  0  0  0  0  0  0  0  0  0  0
  127.4030  129.2170   65.4080 S   0  0  0  0  0  0  0  0  0  0  0  0
  128.3270  128.0850   66.3680 C   0  0  0  0  0  0  0  0  0  0  0  0
  128.3080  128.1130   67.7010 N   0  0  0  0  0  0  0  0  0  0  0  0
  129.0620  127.1860   68.3500 C   0  0  0  0  0  0  0  0  0  0  0  0
  129.0250  127.2410   69.8450 C   0  0  0  0  0  0  0  0  0  0  0  0
  127.8400  126.9880   70.5510 C   0  0  0  0  0  0  0  0  0  0  0  0
  127.8110  127.0420   71.9410 C   0  0  0  0  0  0  0  0  0  0  0  0
  128.9640  127.3500   72.6620 C   0  0  0  0  0  0  0  0  0  0  0  0
  128.8430  127.3800   74.0380 O   0  0  0  0  0  0  0  0  0  0  0  0
  128.2420  128.5130   74.6580 C   0  0  0  0  0  0  0  0  0  0  0  0
  130.1550  127.6020   71.9670 C   0  0  0  0  0  0  0  0  0  0  0  0
  130.1800  127.5470   70.5760 C   0  0  0  0  0  0  0  0  0  0  0  0
  129.8360  126.2430   67.6680 C   0  0  0  0  0  0  0  0  0  0  0  0
  129.8540  126.2120   66.2700 C   0  0  0  0  0  0  0  0  0  0  0  0
  130.6780  125.1950   65.5760 C   0  0  0  0  0  0  0  0  0  0  0  0
  132.0050  125.4750   65.2440 C   0  0  0  0  0  0  0  0  0  0  0  0
  132.7770  124.5220   64.5840 C   0  0  0  0  0  0  0  0  0  0  0  0
  132.2380  123.2790   64.2500 C   0  0  0  0  0  0  0  0  0  0  0  0
  133.0760  122.3990   63.5960 O   0  0  0  0  0  0  0  0  0  0  0  0
  133.7110  122.8090   62.3910 C   0  0  0  0  0  0  0  0  0  0  0  0
  130.9030  123.0000   64.5890 C   0  0  0  0  0  0  0  0  0  0  0  0
  130.1330  123.9540   65.2490 C   0  0  0  0  0  0  0  0  0  0  0  0
  129.0720  127.1690   65.5710 C   0  0  0  0  0  0  0  0  0  0  0  0
  128.8620  127.4250   64.1730 C   0  0  0  0  0  0  0  0  0  0  0  0
  129.4680  126.6880   63.1880 N   0  0  0  0  0  0  0  0  0  0  0  0
  1  2  1  0
  2  3  1  0
  3  4  2  0
  3  5  1  0
  5  6  1  0
  6  7  1  0
  7  8  2  0
  8  9  1  0
  9 10  1  0
 10 11  2  0
 11 12  1  0
 12 13  2  0
 13 14  1  0
 14 15  1  0
 13 16  1  0
 16 17  2  0
  9 18  2  0
 18 19  1  0
 19 20  1  0
 20 21  2  0
 21 22  1  0
 22 23  2  0
 23 24  1  0
 24 25  1  0
 23 26  1  0
 26 27  2  0
 19 28  2  0
 28 29  1  0
 29 30  1  0
 29  5  2  0
 28  7  1  0
 17 10  1  0
 27 20  1  0
M  END
>  <Binding energies>  (38) 
[-6.29]

>  <Ligand effiencies>  (38) 
[-0.1965625]

>  <Interactions>  (38) 
["V-B:HIS:456:CE1:9041, V-A:HIS:456:CD2:4068, V-A:GLU:543:CG:4907, V-B:GLU:543:CD:9880, V-A:TYR:484:CE2:4346, V-B:GLU:543:CG:9879, V-B:HIS:456:CD2:9039, V-B:GLU:543:C:9874, V-A:GLU:543:CD:4908, V-A:HIS:456:CE1:4070, V-B:GLY:544:C:9884, V-A:TYR:484:CZ:4347, V-B:GLU:543:CB:9878, V-A:GLY:454:CA:4049, V-A:LEU:475:CD2:4259, V-A:ILE:369:CD1:3239, H-B:LYS:547:NZ:9923, V-B:ASP:366:CG:8184, H-A:TYR:484:OH:4348, H-A:GLU:543:OE2:4910, H-A:GLY:454:N:4050, V-A:ARG:545:CZ:4926, H-A:GLU:543:OE1:4909, H-B:GLU:543:OE1:9881"]

$$$$
9a_Ghoteimi_2023
     RDKit          3D

 48 54  0  0  0  0  0  0  0  0999 V2000
  129.2160  129.5340   56.5500 C   0  0  0  0  0  0  0  0  0  0  0  0
  128.0040  130.4720   56.5300 C   0  0  0  0  0  0  0  0  0  0  0  0
  128.3290  131.6800   57.2080 O   0  0  0  0  0  0  0  0  0  0  0  0
  129.4800  131.7970   57.9180 C   0  0  0  0  0  0  0  0  0  0  0  0
  130.3680  132.6110   57.6440 O   0  0  0  0  0  0  0  0  0  0  0  0
  129.5710  130.8340   59.0660 C   0  0  0  0  0  0  0  0  0  0  0  0
  128.4300  130.1200   59.4540 C   0  0  0  0  0  0  0  0  0  0  0  0
  128.4820  129.2210   60.5150 C   0  0  0  0  0  0  0  0  0  0  0  0
  129.6740  129.0160   61.2110 C   0  0  0  0  0  0  0  0  0  0  0  0
  129.6090  128.0850   62.2650 N   0  0  0  0  0  0  0  0  0  0  0  0
  129.1010  128.2090   63.5170 C   0  0  0  0  0  0  0  0  0  0  0  0
  128.5790  129.2350   63.9530 O   0  0  0  0  0  0  0  0  0  0  0  0
  129.2040  127.0110   64.3560 C   0  0  0  0  0  0  0  0  0  0  0  0
  128.7990  127.0880   66.0710 S   0  0  0  0  0  0  0  0  0  0  0  0
  129.1500  125.3880   66.2760 C   0  0  0  0  0  0  0  0  0  0  0  0
  129.0040  124.7820   67.4540 N   0  0  0  0  0  0  0  0  0  0  0  0
  129.2930  123.4540   67.5040 C   0  0  0  0  0  0  0  0  0  0  0  0
  129.1110  122.7930   68.8320 C   0  0  0  0  0  0  0  0  0  0  0  0
  128.2120  121.7300   68.9800 C   0  0  0  0  0  0  0  0  0  0  0  0
  128.0380  121.1070   70.2130 C   0  0  0  0  0  0  0  0  0  0  0  0
  128.7660  121.5150   71.3410 C   0  0  0  0  0  0  0  0  0  0  0  0
  128.5870  120.9120   72.5910 N   0  0  0  0  0  0  0  0  0  0  0  0
  129.5850  121.0590   73.6690 C   0  0  0  0  0  0  0  0  0  0  0  0
  129.4080  120.0510   74.8240 C   0  0  0  0  0  0  0  0  0  0  0  0
  128.0890  120.1260   75.3370 O   0  0  0  0  0  0  0  0  0  0  0  0
  127.1250  119.8210   74.3410 C   0  0  0  0  0  0  0  0  0  0  0  0
  127.2330  120.8280   73.1780 C   0  0  0  0  0  0  0  0  0  0  0  0
  129.6540  122.5900   71.1910 C   0  0  0  0  0  0  0  0  0  0  0  0
  129.8260  123.2140   69.9590 C   0  0  0  0  0  0  0  0  0  0  0  0
  129.7520  122.7480   66.3900 C   0  0  0  0  0  0  0  0  0  0  0  0
  129.9260  123.3860   65.1570 C   0  0  0  0  0  0  0  0  0  0  0  0
  130.4510  122.5960   64.0130 C   0  0  0  0  0  0  0  0  0  0  0  0
  131.8090  122.6330   63.6860 C   0  0  0  0  0  0  0  0  0  0  0  0
  132.3010  121.8830   62.6230 C   0  0  0  0  0  0  0  0  0  0  0  0
  131.4510  121.0590   61.8680 C   0  0  0  0  0  0  0  0  0  0  0  0
  131.9200  120.3050   60.7900 N   0  0  0  0  0  0  0  0  0  0  0  0
  132.8660  120.9210   59.8390 C   0  0  0  0  0  0  0  0  0  0  0  0
  133.5860  119.8920   58.9410 C   0  0  0  0  0  0  0  0  0  0  0  0
  132.6340  119.0900   58.2600 O   0  0  0  0  0  0  0  0  0  0  0  0
  131.8060  118.3760   59.1650 C   0  0  0  0  0  0  0  0  0  0  0  0
  131.0390  119.3650   60.0690 C   0  0  0  0  0  0  0  0  0  0  0  0
  130.0900  121.0270   62.2070 C   0  0  0  0  0  0  0  0  0  0  0  0
  129.5970  121.7810   63.2670 C   0  0  0  0  0  0  0  0  0  0  0  0
  129.5940  124.7680   65.0720 C   0  0  0  0  0  0  0  0  0  0  0  0
  129.5920  125.7150   63.9840 C   0  0  0  0  0  0  0  0  0  0  0  0
  129.9270  125.3650   62.7010 N   0  0  0  0  0  0  0  0  0  0  0  0
  130.8240  129.7240   60.8280 C   0  0  0  0  0  0  0  0  0  0  0  0
  130.7700  130.6240   59.7660 C   0  0  0  0  0  0  0  0  0  0  0  0
  1  2  1  0
  2  3  1  0
  3  4  1  0
  4  5  2  0
  4  6  1  0
  6  7  2  0
  7  8  1  0
  8  9  2  0
  9 10  1  0
 10 11  1  0
 11 12  2  0
 11 13  1  0
 13 14  1  0
 14 15  1  0
 15 16  2  0
 16 17  1  0
 17 18  1  0
 18 19  2  0
 19 20  1  0
 20 21  2  0
 21 22  1  0
 22 23  1  0
 23 24  1  0
 24 25  1  0
 25 26  1  0
 26 27  1  0
 21 28  1  0
 28 29  2  0
 17 30  2  0
 30 31  1  0
 31 32  1  0
 32 33  2  0
 33 34  1  0
 34 35  2  0
 35 36  1  0
 36 37  1  0
 37 38  1  0
 38 39  1  0
 39 40  1  0
 40 41  1  0
 35 42  1  0
 42 43  2  0
 31 44  2  0
 44 45  1  0
 45 46  1  0
  9 47  1  0
 47 48  2  0
 48  6  1  0
 45 13  2  0
 44 15  1  0
 29 18  1  0
 43 32  1  0
 27 22  1  0
 41 36  1  0
M  END
>  <Binding energies>  (39) 
[59.37]

>  <Ligand effiencies>  (39) 
[1.1641176470588235]

>  <Interactions>  (39) 
["V-A:HIS:456:CD2:4068, V-B:GLU:543:CD:9880, V-A:TYR:484:CE2:4346, V-B:GLU:543:CG:9879, V-B:GLU:543:C:9874, V-A:GLU:543:CD:4908, V-A:HIS:456:CE1:4070, V-A:TYR:484:CZ:4347, V-B:GLU:543:CB:9878, V-B:GLU:543:CA:9876, V-B:TYR:539:CD2:9846, V-B:TYR:539:CE2:9848, V-A:LEU:475:CD2:4259, V-B:TYR:539:C:9839, V-A:ILE:369:CG2:3237, V-A:HIS:456:CG:4066, V-B:ALA:541:CB:9864, V-B:TYR:539:CG:9844, H-A:SER:385:OG:3410, V-A:MET:535:CE:4835, H-A:GLU:543:OE1:4909, V-A:TYR:484:CD2:4344, V-B:VAL:542:C:9866, V-B:GLY:544:CA:9886, V-A:SER:385:CA:3407, V-A:SER:385:CB:3409, V-B:TYR:539:CB:9843, V-A:HIS:383:CD2:3392, V-A:HIS:383:NE2:3394, V-A:TYR:484:CB:4341, V-A:TYR:484:CG:4342, H-A:HIS:383:HE2:3395, V-A:TYR:484:CE1:4345, V-A:TYR:484:CD1:4343"]

$$$$
9b_Ghoteimi_2023
     RDKit          3D

 42 48  0  0  0  0  0  0  0  0999 V2000
  129.0890  127.2300   62.1330 N   0  0  0  0  0  0  0  0  0  0  0  0
  128.6330  127.9740   63.1920 C   0  0  0  0  0  0  0  0  0  0  0  0
  127.9510  129.1910   63.0450 C   0  0  0  0  0  0  0  0  0  0  0  0
  127.5730  129.8830   61.8100 C   0  0  0  0  0  0  0  0  0  0  0  0
  126.5010  129.6360   61.2530 O   0  0  0  0  0  0  0  0  0  0  0  0
  128.4750  130.7840   61.3470 N   0  0  0  0  0  0  0  0  0  0  0  0
  128.3810  131.5660   60.2030 C   0  0  0  0  0  0  0  0  0  0  0  0
  129.4220  132.3720   59.7440 C   0  0  0  0  0  0  0  0  0  0  0  0
  128.9360  132.9690   58.6040 C   0  0  0  0  0  0  0  0  0  0  0  0
  127.6680  132.5450   58.3880 O   0  0  0  0  0  0  0  0  0  0  0  0
  127.3270  131.6560   59.4080 N   0  0  0  0  0  0  0  0  0  0  0  0
  127.5430  129.8870   64.6130 S   0  0  0  0  0  0  0  0  0  0  0  0
  128.3030  128.5570   65.4520 C   0  0  0  0  0  0  0  0  0  0  0  0
  128.3570  128.5090   66.7820 N   0  0  0  0  0  0  0  0  0  0  0  0
  128.9860  127.4400   67.3360 C   0  0  0  0  0  0  0  0  0  0  0  0
  129.0500  127.4220   68.8290 C   0  0  0  0  0  0  0  0  0  0  0  0
  127.9230  127.1100   69.5990 C   0  0  0  0  0  0  0  0  0  0  0  0
  127.9850  127.1090   70.9890 C   0  0  0  0  0  0  0  0  0  0  0  0
  129.1730  127.4340   71.6620 C   0  0  0  0  0  0  0  0  0  0  0  0
  129.2510  127.4340   73.0590 N   0  0  0  0  0  0  0  0  0  0  0  0
  128.6380  128.5100   73.8640 C   0  0  0  0  0  0  0  0  0  0  0  0
  128.5190  128.1750   75.3650 C   0  0  0  0  0  0  0  0  0  0  0  0
  129.7890  127.8140   75.8830 O   0  0  0  0  0  0  0  0  0  0  0  0
  130.3130  126.6710   75.2270 C   0  0  0  0  0  0  0  0  0  0  0  0
  130.4840  126.9560   73.7190 C   0  0  0  0  0  0  0  0  0  0  0  0
  130.3040  127.7250   70.8860 C   0  0  0  0  0  0  0  0  0  0  0  0
  130.2430  127.7220   69.4950 C   0  0  0  0  0  0  0  0  0  0  0  0
  129.5340  126.4130   66.5640 C   0  0  0  0  0  0  0  0  0  0  0  0
  129.4620  126.4490   65.1660 C   0  0  0  0  0  0  0  0  0  0  0  0
  130.0330  125.3180   64.3910 C   0  0  0  0  0  0  0  0  0  0  0  0
  129.2090  124.5220   63.5950 C   0  0  0  0  0  0  0  0  0  0  0  0
  129.7440  123.4740   62.8530 C   0  0  0  0  0  0  0  0  0  0  0  0
  131.1190  123.1920   62.8870 C   0  0  0  0  0  0  0  0  0  0  0  0
  131.6790  122.1540   62.1380 N   0  0  0  0  0  0  0  0  0  0  0  0
  130.8010  121.3100   61.3050 C   0  0  0  0  0  0  0  0  0  0  0  0
  131.4690  119.9890   60.8630 C   0  0  0  0  0  0  0  0  0  0  0  0
  132.6880  120.2640   60.1900 O   0  0  0  0  0  0  0  0  0  0  0  0
  133.6030  120.9620   61.0220 C   0  0  0  0  0  0  0  0  0  0  0  0
  132.9880  122.3050   61.4720 C   0  0  0  0  0  0  0  0  0  0  0  0
  131.9400  124.0100   63.6760 C   0  0  0  0  0  0  0  0  0  0  0  0
  131.4040  125.0590   64.4190 C   0  0  0  0  0  0  0  0  0  0  0  0
  128.8380  127.5770   64.5630 C   0  0  0  0  0  0  0  0  0  0  0  0
  1  2  1  0
  2  3  2  0
  3  4  1  0
  4  5  2  0
  4  6  1  0
  6  7  1  0
  7  8  1  0
  8  9  2  0
  9 10  1  0
 10 11  1  0
  3 12  1  0
 12 13  1  0
 13 14  2  0
 14 15  1  0
 15 16  1  0
 16 17  2  0
 17 18  1  0
 18 19  2  0
 19 20  1  0
 20 21  1  0
 21 22  1  0
 22 23  1  0
 23 24  1  0
 24 25  1  0
 19 26  1  0
 26 27  2  0
 15 28  2  0
 28 29  1  0
 29 30  1  0
 30 31  2  0
 31 32  1  0
 32 33  2  0
 33 34  1  0
 34 35  1  0
 35 36  1  0
 36 37  1  0
 37 38  1  0
 38 39  1  0
 33 40  1  0
 40 41  2  0
 29 42  2  0
 42  2  1  0
 11  7  2  0
 42 13  1  0
 27 16  1  0
 41 30  1  0
 25 20  1  0
 39 34  1  0
M  END
>  <Binding energies>  (40) 
[-8.3]

>  <Ligand effiencies>  (40) 
[-0.18444444444444447]

>  <Interactions>  (40) 
["V-B:HIS:456:CE1:9041, V-A:HIS:456:CD2:4068, V-A:GLU:543:CG:4907, V-B:GLU:543:CD:9880, V-B:GLU:543:CG:9879, V-B:HIS:456:CD2:9039, V-B:GLU:543:C:9874, V-A:GLU:543:CD:4908, V-A:HIS:456:CE1:4070, V-A:GLU:543:CB:4906, V-B:GLU:543:CB:9878, V-B:TYR:539:CD2:9846, V-B:TYR:539:CE2:9848, V-A:LEU:475:CD2:4259, V-A:ILE:369:CG2:3237, H-B:LYS:547:NZ:9923, H-A:LYS:547:NZ:4951, H-A:SER:385:OG:3410, V-A:TYR:539:C:4867, V-A:PRO:540:N:4884, V-A:PRO:540:CA:4883, V-A:SER:385:C:3405, V-A:TYR:539:CE1:4875, V-A:TYR:539:CD1:4873, H-A:GLU:543:OE1:4909, H-B:GLU:543:OE1:9881, V-A:SER:385:CA:3407, V-A:SER:385:CB:3409"]

$$$$
9c_Ghoteimi_2023
     RDKit          3D

 42 48  0  0  0  0  0  0  0  0999 V2000
  129.0960  127.1570   62.1430 N   0  0  0  0  0  0  0  0  0  0  0  0
  128.6310  127.8990   63.1990 C   0  0  0  0  0  0  0  0  0  0  0  0
  127.9300  129.1060   63.0470 C   0  0  0  0  0  0  0  0  0  0  0  0
  127.5460  129.7890   61.8080 C   0  0  0  0  0  0  0  0  0  0  0  0
  126.4270  129.6250   61.3190 O   0  0  0  0  0  0  0  0  0  0  0  0
  128.4980  130.5860   61.2640 N   0  0  0  0  0  0  0  0  0  0  0  0
  128.3980  131.3270   60.0950 C   0  0  0  0  0  0  0  0  0  0  0  0
  127.5100  131.2020   59.1320 N   0  0  0  0  0  0  0  0  0  0  0  0
  127.7180  132.0750   58.1650 C   0  0  0  0  0  0  0  0  0  0  0  0
  128.8000  132.9350   58.3340 C   0  0  0  0  0  0  0  0  0  0  0  0
  129.5780  132.5730   59.8450 S   0  0  0  0  0  0  0  0  0  0  0  0
  127.5120  129.8020   64.6120 S   0  0  0  0  0  0  0  0  0  0  0  0
  128.2910  128.4860   65.4570 C   0  0  0  0  0  0  0  0  0  0  0  0
  128.3430  128.4430   66.7870 N   0  0  0  0  0  0  0  0  0  0  0  0
  128.9880  127.3860   67.3460 C   0  0  0  0  0  0  0  0  0  0  0  0
  129.0500  127.3740   68.8390 C   0  0  0  0  0  0  0  0  0  0  0  0
  127.9410  127.0010   69.6080 C   0  0  0  0  0  0  0  0  0  0  0  0
  128.0010  127.0010   70.9970 C   0  0  0  0  0  0  0  0  0  0  0  0
  129.1710  127.3880   71.6720 C   0  0  0  0  0  0  0  0  0  0  0  0
  129.2500  127.3860   73.0690 N   0  0  0  0  0  0  0  0  0  0  0  0
  128.7040  128.5000   73.8710 C   0  0  0  0  0  0  0  0  0  0  0  0
  128.5610  128.1760   75.3730 C   0  0  0  0  0  0  0  0  0  0  0  0
  129.8070  127.7390   75.8940 O   0  0  0  0  0  0  0  0  0  0  0  0
  130.2590  126.5650   75.2400 C   0  0  0  0  0  0  0  0  0  0  0  0
  130.4500  126.8360   73.7320 C   0  0  0  0  0  0  0  0  0  0  0  0
  130.2840  127.7420   70.8970 C   0  0  0  0  0  0  0  0  0  0  0  0
  130.2240  127.7380   69.5060 C   0  0  0  0  0  0  0  0  0  0  0  0
  129.5510  126.3640   66.5770 C   0  0  0  0  0  0  0  0  0  0  0  0
  129.4790  126.3930   65.1800 C   0  0  0  0  0  0  0  0  0  0  0  0
  130.0650  125.2680   64.4090 C   0  0  0  0  0  0  0  0  0  0  0  0
  129.4890  123.9980   64.4690 C   0  0  0  0  0  0  0  0  0  0  0  0
  130.0260  122.9440   63.7340 C   0  0  0  0  0  0  0  0  0  0  0  0
  131.1540  123.1330   62.9210 C   0  0  0  0  0  0  0  0  0  0  0  0
  131.7030  122.0920   62.1650 N   0  0  0  0  0  0  0  0  0  0  0  0
  130.8200  121.2900   61.2960 C   0  0  0  0  0  0  0  0  0  0  0  0
  131.4590  119.9620   60.8370 C   0  0  0  0  0  0  0  0  0  0  0  0
  132.7000  120.2160   60.1950 O   0  0  0  0  0  0  0  0  0  0  0  0
  133.6150  120.8680   61.0620 C   0  0  0  0  0  0  0  0  0  0  0  0
  133.0300  122.2180   61.5320 C   0  0  0  0  0  0  0  0  0  0  0  0
  131.7110  124.4190   62.8520 C   0  0  0  0  0  0  0  0  0  0  0  0
  131.1750  125.4720   63.5870 C   0  0  0  0  0  0  0  0  0  0  0  0
  128.8390  127.5110   64.5710 C   0  0  0  0  0  0  0  0  0  0  0  0
  1  2  1  0
  2  3  2  0
  3  4  1  0
  4  5  2  0
  4  6  1  0
  6  7  1  0
  7  8  2  0
  8  9  1  0
  9 10  2  0
 10 11  1  0
  3 12  1  0
 12 13  1  0
 13 14  2  0
 14 15  1  0
 15 16  1  0
 16 17  2  0
 17 18  1  0
 18 19  2  0
 19 20  1  0
 20 21  1  0
 21 22  1  0
 22 23  1  0
 23 24  1  0
 24 25  1  0
 19 26  1  0
 26 27  2  0
 15 28  2  0
 28 29  1  0
 29 30  1  0
 30 31  2  0
 31 32  1  0
 32 33  2  0
 33 34  1  0
 34 35  1  0
 35 36  1  0
 36 37  1  0
 37 38  1  0
 38 39  1  0
 33 40  1  0
 40 41  2  0
 29 42  2  0
 42  2  1  0
 11  7  1  0
 42 13  1  0
 27 16  1  0
 41 30  1  0
 25 20  1  0
 39 34  1  0
M  END
>  <Binding energies>  (41) 
[-8.43]

>  <Ligand effiencies>  (41) 
[-0.18733333333333332]

>  <Interactions>  (41) 
["V-B:HIS:456:CE1:9041, V-A:HIS:456:CD2:4068, V-A:GLU:543:CG:4907, V-B:GLU:543:CD:9880, V-B:GLU:543:CG:9879, V-B:HIS:456:CD2:9039, V-B:GLU:543:C:9874, V-A:GLU:543:CD:4908, V-A:HIS:456:CE1:4070, V-A:GLU:543:CB:4906, V-B:GLU:543:CB:9878, V-B:TYR:539:CD2:9846, V-B:TYR:539:CE2:9848, V-A:LEU:475:CD2:4259, V-A:ILE:369:CG2:3237, H-B:LYS:547:NZ:9923, H-A:LYS:547:NZ:4951, H-A:SER:385:OG:3410, V-A:TYR:539:C:4867, V-A:PRO:540:N:4884, V-A:PRO:540:CA:4883, V-A:SER:385:C:3405, V-A:TYR:539:CE1:4875, V-A:TYR:539:CD1:4873, H-A:GLU:543:OE1:4909, H-B:GLU:543:OE1:9881, V-A:SER:385:CA:3407, V-A:SER:385:CB:3409"]

$$$$
RR11_Rahimova_2017
     RDKit          3D

 33 38  0  0  0  0  0  0  0  0999 V2000
  129.8570  132.8530   56.8210 N   0  0  0  0  0  0  0  0  0  0  0  0
  130.2740  131.6170   57.3110 C   0  0  0  0  0  0  0  0  0  0  0  0
  129.3320  130.6260   57.5830 C   0  0  0  0  0  0  0  0  0  0  0  0
  129.7500  129.3910   58.0700 C   0  0  0  0  0  0  0  0  0  0  0  0
  131.1100  129.1340   58.2890 C   0  0  0  0  0  0  0  0  0  0  0  0
  131.5580  127.8010   58.8080 C   0  0  0  0  0  0  0  0  0  0  0  0
  131.3410  127.3680   60.0310 N   0  0  0  0  0  0  0  0  0  0  0  0
  131.8990  126.1170   60.0770 C   0  0  0  0  0  0  0  0  0  0  0  0
  131.9450  125.2060   61.1410 C   0  0  0  0  0  0  0  0  0  0  0  0
  132.5640  123.9680   60.9320 C   0  0  0  0  0  0  0  0  0  0  0  0
  132.6350  122.9610   62.0710 C   0  0  0  0  0  0  0  0  0  0  0  0
  131.7800  123.3560   63.2670 C   0  0  0  0  0  0  0  0  0  0  0  0
  130.6230  122.6240   63.5570 C   0  0  0  0  0  0  0  0  0  0  0  0
  129.8100  122.9410   64.6480 C   0  0  0  0  0  0  0  0  0  0  0  0
  130.1870  124.0190   65.4600 C   0  0  0  0  0  0  0  0  0  0  0  0
  129.5640  124.5300   66.5690 N   0  0  0  0  0  0  0  0  0  0  0  0
  130.3160  125.5370   66.9570 C   0  0  0  0  0  0  0  0  0  0  0  0
  130.0160  126.4160   68.1370 C   0  0  0  0  0  0  0  0  0  0  0  0
  130.9780  127.3130   68.6180 C   0  0  0  0  0  0  0  0  0  0  0  0
  130.7040  128.1200   69.7190 C   0  0  0  0  0  0  0  0  0  0  0  0
  129.4630  128.0360   70.3470 C   0  0  0  0  0  0  0  0  0  0  0  0
  129.1890  128.8400   71.4530 N   0  0  0  0  0  0  0  0  0  0  0  0
  128.4950  127.1520   69.8770 C   0  0  0  0  0  0  0  0  0  0  0  0
  128.7710  126.3450   68.7760 C   0  0  0  0  0  0  0  0  0  0  0  0
  131.4170  125.7030   66.1430 N   0  0  0  0  0  0  0  0  0  0  0  0
  131.3660  124.7420   65.1610 C   0  0  0  0  0  0  0  0  0  0  0  0
  132.1860  124.4260   64.0750 C   0  0  0  0  0  0  0  0  0  0  0  0
  133.1430  123.6610   59.6950 C   0  0  0  0  0  0  0  0  0  0  0  0
  133.1180  124.5480   58.6170 C   0  0  0  0  0  0  0  0  0  0  0  0
  132.4830  125.7730   58.8350 C   0  0  0  0  0  0  0  0  0  0  0  0
  132.2480  126.8770   58.0490 N   0  0  0  0  0  0  0  0  0  0  0  0
  132.0450  130.1410   58.0120 C   0  0  0  0  0  0  0  0  0  0  0  0
  131.6300  131.3770   57.5240 C   0  0  0  0  0  0  0  0  0  0  0  0
  1  2  1  0
  2  3  2  0
  3  4  1  0
  4  5  2  0
  5  6  1  0
  6  7  2  0
  7  8  1  0
  8  9  2  0
  9 10  1  0
 10 11  1  0
 11 12  1  0
 12 13  2  0
 13 14  1  0
 14 15  2  0
 15 16  1  0
 16 17  2  0
 17 18  1  0
 18 19  2  0
 19 20  1  0
 20 21  2  0
 21 22  1  0
 21 23  1  0
 23 24  2  0
 17 25  1  0
 25 26  1  0
 26 27  2  0
 10 28  2  0
 28 29  1  0
 29 30  2  0
 30 31  1  0
  5 32  1  0
 32 33  2  0
 33  2  1  0
 31  6  1  0
 30  8  1  0
 27 12  1  0
 26 15  1  0
 24 18  1  0
M  END
>  <Binding energies>  (42) 
[-8.49]

>  <Ligand effiencies>  (42) 
[-0.21769230769230768]

>  <Interactions>  (42) 
["V-B:HIS:456:CE1:9041, V-A:TYR:484:CE2:4346, V-B:GLU:543:CG:9879, V-B:HIS:456:CD2:9039, V-B:GLU:543:C:9874, V-A:GLU:543:CD:4908, V-A:HIS:456:CE1:4070, V-A:GLU:543:CB:4906, V-A:TYR:484:CZ:4347, V-B:GLU:543:CB:9878, V-B:GLU:543:CA:9876, V-B:TYR:539:CE2:9848, V-A:LEU:475:CD2:4259, V-A:ILE:369:CG2:3237, H-A:GLY:544:O:4913, V-A:GLU:543:CA:4904, V-A:GLU:543:C:4902, V-A:ARG:545:CG:4922, V-A:GLY:544:C:4912, V-B:ALA:541:CB:9864, V-B:TYR:539:CZ:9849, H-B:HIS:456:NE2:9042, V-A:ASP:366:CB:3212, H-A:TYR:531:OH:4795, V-A:ASP:366:CG:3213, V-A:ASP:366:CA:3210, H-A:TYR:484:OH:4348, H-A:GLU:543:OE2:4910, V-A:MET:535:CE:4835, V-A:LEU:363:CD1:3189, V-A:ILE:538:CA:4860, V-A:TYR:531:CZ:4794, H-A:GLU:543:O:4903"]

$$$$
RR16_Rahimova_2017
     RDKit          3D

 44 49  0  0  0  0  0  0  0  0999 V2000
  129.5670  125.5160   73.4870 O   0  0  0  0  0  0  0  0  0  0  0  0
  130.3750  126.6960   73.1610 S   0  0  0  0  0  0  0  0  0  0  0  0
  131.8320  126.5960   73.0210 O   0  0  0  0  0  0  0  0  0  0  0  0
  130.0250  127.9310   74.3730 N   0  0  0  0  0  0  0  0  0  0  0  0
  128.7700  128.7170   74.3180 C   0  0  0  0  0  0  0  0  0  0  0  0
  127.5660  127.7470   74.2010 C   0  0  0  0  0  0  0  0  0  0  0  0
  126.1570  128.3700   74.1630 C   0  0  0  0  0  0  0  0  0  0  0  0
  125.8370  129.2640   75.3740 C   0  0  0  0  0  0  0  0  0  0  0  0
  126.3450  130.7180   75.2930 C   0  0  0  0  0  0  0  0  0  0  0  0
  127.8700  130.9350   75.3350 C   0  0  0  0  0  0  0  0  0  0  0  0
  128.7410  129.6780   75.5290 C   0  0  0  0  0  0  0  0  0  0  0  0
  129.7210  127.3690   71.6380 C   0  0  0  0  0  0  0  0  0  0  0  0
  128.3630  127.2390   71.3360 C   0  0  0  0  0  0  0  0  0  0  0  0
  127.8900  127.6570   70.0960 C   0  0  0  0  0  0  0  0  0  0  0  0
  128.7750  128.2040   69.1640 C   0  0  0  0  0  0  0  0  0  0  0  0
  128.1980  128.6120   67.5180 S   0  0  0  0  0  0  0  0  0  0  0  0
  128.6310  129.9850   67.2280 O   0  0  0  0  0  0  0  0  0  0  0  0
  126.7760  128.2540   67.4500 O   0  0  0  0  0  0  0  0  0  0  0  0
  129.0970  127.5090   66.4570 N   0  0  0  0  0  0  0  0  0  0  0  0
  129.3610  126.1700   67.0430 C   0  0  0  0  0  0  0  0  0  0  0  0
  130.3980  125.4050   66.1960 C   0  0  0  0  0  0  0  0  0  0  0  0
  129.9870  125.3420   64.7040 C   0  0  0  0  0  0  0  0  0  0  0  0
  131.0260  124.6260   63.8380 C   0  0  0  0  0  0  0  0  0  0  0  0
  132.3710  125.0180   63.8980 C   0  0  0  0  0  0  0  0  0  0  0  0
  133.3530  124.3890   63.1310 C   0  0  0  0  0  0  0  0  0  0  0  0
  134.6640  124.7840   63.2060 O   0  0  0  0  0  0  0  0  0  0  0  0
  132.9620  123.3380   62.2880 C   0  0  0  0  0  0  0  0  0  0  0  0
  133.6900  122.5410   61.4520 N   0  0  0  0  0  0  0  0  0  0  0  0
  132.8210  121.6410   60.8760 N   0  0  0  0  0  0  0  0  0  0  0  0
  131.5760  121.9100   61.3160 N   0  0  0  0  0  0  0  0  0  0  0  0
  130.4620  121.0530   60.9320 C   0  0  0  0  0  0  0  0  0  0  0  0
  129.1650  121.8270   60.7430 C   0  0  0  0  0  0  0  0  0  0  0  0
  128.3610  122.1300   61.8470 C   0  0  0  0  0  0  0  0  0  0  0  0
  127.1830  122.8590   61.6800 C   0  0  0  0  0  0  0  0  0  0  0  0
  126.8030  123.2880   60.4080 C   0  0  0  0  0  0  0  0  0  0  0  0
  127.6000  122.9910   59.3030 C   0  0  0  0  0  0  0  0  0  0  0  0
  127.1380  123.5300   57.7300 Cl  0  0  0  0  0  0  0  0  0  0  0  0
  128.7780  122.2580   59.4700 C   0  0  0  0  0  0  0  0  0  0  0  0
  131.6020  122.9530   62.2270 C   0  0  0  0  0  0  0  0  0  0  0  0
  130.6170  123.5850   62.9920 C   0  0  0  0  0  0  0  0  0  0  0  0
  129.5920  126.7330   64.1430 C   0  0  0  0  0  0  0  0  0  0  0  0
  128.5890  127.4600   65.0610 C   0  0  0  0  0  0  0  0  0  0  0  0
  130.1250  128.3720   69.4840 C   0  0  0  0  0  0  0  0  0  0  0  0
  130.5980  127.9500   70.7220 C   0  0  0  0  0  0  0  0  0  0  0  0
  1  2  2  0
  2  3  2  0
  2  4  1  0
  4  5  1  0
  5  6  1  0
  6  7  1  0
  7  8  1  0
  8  9  1  0
  9 10  1  0
 10 11  1  0
  2 12  1  0
 12 13  2  0
 13 14  1  0
 14 15  2  0
 15 16  1  0
 16 17  2  0
 16 18  2  0
 16 19  1  0
 19 20  1  0
 20 21  1  0
 21 22  1  0
 22 23  1  0
 23 24  2  0
 24 25  1  0
 25 26  1  0
 25 27  2  0
 27 28  1  0
 28 29  2  0
 29 30  1  0
 30 31  1  0
 31 32  1  0
 32 33  2  0
 33 34  1  0
 34 35  2  0
 35 36  1  0
 36 37  1  0
 36 38  2  0
 30 39  1  0
 39 40  2  0
 22 41  1  0
 41 42  1  0
 15 43  1  0
 43 44  2  0
 11  5  1  0
 44 12  1  0
 42 19  1  0
 40 23  1  0
 39 27  1  0
 38 32  1  0
M  END
>  <Binding energies>  (43) 
[-8.89]

>  <Ligand effiencies>  (43) 
[-0.18520833333333334]

>  <Interactions>  (43) 
["V-B:HIS:456:CE1:9041, V-A:HIS:456:CD2:4068, V-A:GLU:543:CG:4907, V-B:GLU:543:CD:9880, V-B:GLU:543:CG:9879, H-B:TYR:484:OH:9319, V-B:HIS:456:CD2:9039, V-A:GLU:543:CD:4908, V-B:HIS:456:CG:9037, V-A:HIS:456:CE1:4070, V-A:GLU:543:CB:4906, V-B:GLU:543:CB:9878, V-B:LYS:547:CE:9922, V-B:TYR:539:CD2:9846, V-B:TYR:539:CE2:9848, V-B:PRO:540:CA:9855, V-A:LEU:475:CD2:4259, V-B:PRO:540:CB:9857, V-B:PRO:540:N:9856, V-B:TYR:539:C:9839, V-A:GLU:543:CA:4904, H-B:LYS:547:NZ:9923, V-A:GLU:543:C:4902, V-A:GLY:544:C:4912, V-B:ALA:541:CB:9864, V-B:PRO:540:C:9853, V-B:TYR:539:CG:9844, V-B:ALA:541:CA:9862, H-A:LYS:547:NZ:4951, V-B:HIS:456:CB:9036, H-A:ASP:366:OD1:3214, H-A:HIS:456:ND1:4067, H-A:GLY:454:N:4050, H-A:ARG:545:NH1:4927, V-A:ARG:545:CZ:4926, H-A:ARG:545:NH2:4928"]

$$$$
RR18_Rahimova_2017
     RDKit          3D

 36 41  0  0  0  0  0  0  0  0999 V2000
  132.9770  125.0470   61.3650 C   0  0  0  0  0  0  0  0  0  0  0  0
  132.3190  125.1370   62.7190 C   0  0  0  0  0  0  0  0  0  0  0  0
  132.7490  124.9160   64.0170 C   0  0  0  0  0  0  0  0  0  0  0  0
  131.6590  125.1680   64.8500 C   0  0  0  0  0  0  0  0  0  0  0  0
  130.6030  125.5340   64.0310 C   0  0  0  0  0  0  0  0  0  0  0  0
  129.1550  125.9400   64.2900 C   0  0  1  0  0  0  0  0  0  0  0  0
  129.0500  126.9750   65.4490 C   0  0  0  0  0  0  0  0  0  0  0  0
  129.4230  126.6010   66.8100 C   0  0  0  0  0  0  0  0  0  0  0  0
  129.8220  125.4680   67.0860 O   0  0  0  0  0  0  0  0  0  0  0  0
  129.3060  127.6020   67.7120 N   0  0  0  0  0  0  0  0  0  0  0  0
  129.5520  127.6120   69.1020 C   0  0  0  0  0  0  0  0  0  0  0  0
  130.8100  127.8960   69.6650 C   0  0  0  0  0  0  0  0  0  0  0  0
  130.9880  127.8820   71.0470 C   0  0  0  0  0  0  0  0  0  0  0  0
  129.9200  127.5790   71.8860 C   0  0  0  0  0  0  0  0  0  0  0  0
  128.6720  127.2840   71.3420 C   0  0  0  0  0  0  0  0  0  0  0  0
  128.4770  127.2950   69.9570 C   0  0  0  0  0  0  0  0  0  0  0  0
  127.0920  126.9610   69.4130 C   0  0  0  0  0  0  0  0  0  0  0  0
  128.7040  128.2540   65.1460 C   0  0  0  0  0  0  0  0  0  0  0  0
  128.3220  128.6830   63.9110 N   0  0  0  0  0  0  0  0  0  0  0  0
  128.1930  127.8340   62.9600 C   0  0  0  0  0  0  0  0  0  0  0  0
  127.5700  128.2100   61.3710 S   0  0  0  0  0  0  0  0  0  0  0  0
  127.7340  126.5050   60.8450 C   0  0  0  0  0  0  0  0  0  0  0  0
  127.4130  125.9800   59.6120 C   0  0  0  0  0  0  0  0  0  0  0  0
  126.7910  126.8270   58.5830 C   0  0  0  0  0  0  0  0  0  0  0  0
  126.5020  128.0220   58.6110 O   0  0  0  0  0  0  0  0  0  0  0  0
  126.5440  126.0500   57.5240 N   0  0  0  0  0  0  0  0  0  0  0  0
  126.9590  124.7650   57.6990 C   0  0  0  0  0  0  0  0  0  0  0  0
  126.8680  123.7060   56.7950 C   0  0  0  0  0  0  0  0  0  0  0  0
  127.3860  122.4660   57.1580 C   0  0  0  0  0  0  0  0  0  0  0  0
  127.9890  122.3090   58.4040 C   0  0  0  0  0  0  0  0  0  0  0  0
  128.0680  123.3840   59.2930 C   0  0  0  0  0  0  0  0  0  0  0  0
  127.5290  124.6400   58.9540 C   0  0  0  0  0  0  0  0  0  0  0  0
  128.2660  125.7350   61.9690 C   0  0  0  0  0  0  0  0  0  0  0  0
  128.4620  124.5240   61.9970 O   0  0  0  0  0  0  0  0  0  0  0  0
  128.5190  126.5190   63.0530 N   0  0  0  0  0  0  0  0  0  0  0  0
  131.0140  125.5110   62.7350 O   0  0  0  0  0  0  0  0  0  0  0  0
  1  2  1  0
  2  3  2  0
  3  4  1  0
  4  5  2  0
  6  5  1  6
  6  7  1  0
  7  8  1  0
  8  9  2  0
  8 10  1  0
 10 11  1  0
 11 12  2  0
 12 13  1  0
 13 14  2  0
 14 15  1  0
 15 16  2  0
 16 17  1  0
  7 18  2  0
 18 19  1  0
 19 20  2  0
 20 21  1  0
 21 22  1  0
 22 23  2  0
 23 24  1  0
 24 25  2  0
 24 26  1  0
 26 27  1  0
 27 28  2  0
 28 29  1  0
 29 30  2  0
 30 31  1  0
 31 32  2  0
 22 33  1  0
 33 34  2  0
 33 35  1  0
  5 36  1  0
 36  2  1  0
 35  6  1  0
 16 11  1  0
 35 20  1  0
 32 23  1  0
 32 27  1  0
M  END
>  <Binding energies>  (44) 
[-8.53]

>  <Ligand effiencies>  (44) 
[-0.2244736842105263]

>  <Interactions>  (44) 
["V-B:HIS:456:CE1:9041, V-A:GLU:543:CG:4907, V-B:GLU:543:CD:9880, V-B:GLU:543:CG:9879, V-B:GLU:543:C:9874, V-A:GLU:543:CD:4908, V-A:HIS:456:CE1:4070, V-A:GLU:543:CB:4906, V-B:GLY:544:C:9884, V-B:GLU:543:CB:9878, V-B:TYR:539:CD2:9846, V-B:TYR:539:CE2:9848, V-B:PRO:540:CA:9855, V-B:PRO:540:N:9856, V-B:TYR:539:C:9839, V-A:GLU:543:C:4902, V-A:GLY:544:C:4912, V-B:TYR:539:CG:9844, V-B:TYR:539:CD1:9845, V-B:TYR:539:CE1:9847, V-B:TYR:539:CZ:9849, V-B:TYR:539:CA:9841, V-A:ASP:366:CG:3213, V-B:TYR:531:CZ:9766, H-B:TYR:531:OH:9767, H-A:GLU:543:OE2:4910, V-A:ARG:545:CZ:4926, H-B:MET:535:SD:9806"]

$$$$
RR20_Rahimova_2017
     RDKit          3D

 38 43  0  0  0  0  0  0  0  0999 V2000
  130.1070  117.2540   60.9270 C   0  0  0  0  0  0  0  0  0  0  0  0
  130.5830  118.6950   60.9320 C   0  0  0  0  0  0  0  0  0  0  0  0
  131.7190  119.0530   60.2050 C   0  0  0  0  0  0  0  0  0  0  0  0
  132.1520  120.3760   60.2000 C   0  0  0  0  0  0  0  0  0  0  0  0
  131.4610  121.3490   60.9320 C   0  0  0  0  0  0  0  0  0  0  0  0
  131.9360  122.7850   60.8970 C   0  0  0  0  0  0  0  0  0  0  0  0
  131.9490  123.3560   59.8040 O   0  0  0  0  0  0  0  0  0  0  0  0
  132.3150  123.3930   62.0590 N   0  0  0  0  0  0  0  0  0  0  0  0
  133.6970  123.8520   62.2750 C   0  0  0  0  0  0  0  0  0  0  0  0
  133.6980  124.6040   63.5950 C   0  0  0  0  0  0  0  0  0  0  0  0
  132.2390  124.8400   63.8450 C   0  0  0  0  0  0  0  0  0  0  0  0
  131.6290  125.5610   64.8710 C   0  0  0  0  0  0  0  0  0  0  0  0
  130.2380  125.5330   65.0340 C   0  0  0  0  0  0  0  0  0  0  0  0
  129.5790  126.3180   66.1340 C   0  0  0  0  0  0  0  0  0  0  0  0
  129.7710  125.9300   67.3850 N   0  0  0  0  0  0  0  0  0  0  0  0
  129.1690  126.6960   68.2590 C   0  0  0  0  0  0  0  0  0  0  0  0
  129.1670  126.5780   69.6400 N   0  0  0  0  0  0  0  0  0  0  0  0
  129.8140  127.3730   70.5270 C   0  0  0  0  0  0  0  0  0  0  0  0
  130.4940  128.3510   70.2070 O   0  0  0  0  0  0  0  0  0  0  0  0
  129.6700  127.0510   72.0330 C   0  0  0  0  0  0  0  0  0  0  0  0
  128.9840  128.1160   72.7870 N   0  0  0  0  0  0  0  0  0  0  0  0
  128.7380  127.7440   74.1880 C   0  0  0  0  0  0  0  0  0  0  0  0
  127.7920  128.7690   74.8540 C   0  0  0  0  0  0  0  0  0  0  0  0
  128.1800  130.2180   74.5590 C   0  0  0  0  0  0  0  0  0  0  0  0
  127.6160  131.2760   75.2810 C   0  0  0  0  0  0  0  0  0  0  0  0
  127.9390  132.5980   74.9860 C   0  0  0  0  0  0  0  0  0  0  0  0
  128.8380  132.8790   73.9620 C   0  0  0  0  0  0  0  0  0  0  0  0
  129.4140  131.8350   73.2420 C   0  0  0  0  0  0  0  0  0  0  0  0
  129.0970  130.5020   73.5260 C   0  0  0  0  0  0  0  0  0  0  0  0
  129.7720  129.3550   72.7750 C   0  0  0  0  0  0  0  0  0  0  0  0
  128.2750  127.9940   67.5700 S   0  0  0  0  0  0  0  0  0  0  0  0
  128.7500  127.4500   65.9790 C   0  0  0  0  0  0  0  0  0  0  0  0
  128.2490  128.1640   64.7430 C   0  0  0  0  0  0  0  0  0  0  0  0
  129.4800  124.7190   64.1770 C   0  0  0  0  0  0  0  0  0  0  0  0
  130.0900  123.9820   63.1630 C   0  0  0  0  0  0  0  0  0  0  0  0
  131.4720  124.0860   62.9570 C   0  0  0  0  0  0  0  0  0  0  0  0
  130.3050  120.9880   61.6350 C   0  0  0  0  0  0  0  0  0  0  0  0
  129.8710  119.6640   61.6400 C   0  0  0  0  0  0  0  0  0  0  0  0
  1  2  1  0
  2  3  2  0
  3  4  1  0
  4  5  2  0
  5  6  1  0
  6  7  2  0
  6  8  1  0
  8  9  1  0
  9 10  1  0
 10 11  1  0
 11 12  2  0
 12 13  1  0
 13 14  1  0
 14 15  1  0
 15 16  2  0
 16 17  1  0
 17 18  1  0
 18 19  2  0
 18 20  1  0
 20 21  1  0
 21 22  1  0
 22 23  1  0
 23 24  1  0
 24 25  2  0
 25 26  1  0
 26 27  2  0
 27 28  1  0
 28 29  2  0
 29 30  1  0
 16 31  1  0
 31 32  1  0
 32 33  1  0
 13 34  2  0
 34 35  1  0
 35 36  2  0
  5 37  1  0
 37 38  2  0
 38  2  1  0
 36  8  1  0
 36 11  1  0
 32 14  2  0
 30 21  1  0
 29 24  1  0
M  END
>  <Binding energies>  (45) 
[-9.39]

>  <Ligand effiencies>  (45) 
[-0.2407692307692308]

>  <Interactions>  (45) 
["V-B:HIS:456:CE1:9041, V-A:HIS:456:CD2:4068, V-B:GLU:543:CD:9880, V-B:GLU:543:CG:9879, V-B:HIS:456:CD2:9039, V-B:GLU:543:C:9874, V-A:GLU:543:CD:4908, V-A:HIS:456:CE1:4070, V-A:GLU:543:CB:4906, V-B:GLU:543:CB:9878, V-B:TYR:539:CD2:9846, V-B:TYR:539:CE2:9848, V-A:GLY:454:CA:4049, V-A:LEU:475:CD2:4259, H-A:HIS:456:NE2:4071, V-A:GLU:543:C:4902, V-B:ALA:541:CB:9864, V-A:ARG:545:CZ:4926, H-B:GLU:543:O:9875, V-A:SER:385:CB:3409, V-A:HIS:383:NE2:3394, V-A:PRO:482:CG:4327, V-A:PRO:482:CB:4326, V-A:LYS:547:CE:4950, V-B:TYR:484:CB:9312"]

$$$$
RR21_Rahimova_2017
     RDKit          3D

 40 45  0  0  0  0  0  0  0  0999 V2000
  127.1950  132.7140   61.4000 C   0  0  0  0  0  0  0  0  0  0  0  0
  126.3440  131.8210   62.1120 O   0  0  0  0  0  0  0  0  0  0  0  0
  126.8810  131.0260   63.1070 C   0  0  0  0  0  0  0  0  0  0  0  0
  127.8480  131.4600   64.0300 C   0  0  0  0  0  0  0  0  0  0  0  0
  128.3360  130.5930   65.0070 C   0  0  0  0  0  0  0  0  0  0  0  0
  127.8710  129.2760   65.0900 C   0  0  0  0  0  0  0  0  0  0  0  0
  128.3940  128.3480   66.1440 C   0  0  0  0  0  0  0  0  0  0  0  0
  128.3190  128.6910   67.4150 N   0  0  0  0  0  0  0  0  0  0  0  0
  128.8550  127.6820   68.1180 N   0  0  0  0  0  0  0  0  0  0  0  0
  128.9160  127.7180   69.5360 C   0  0  0  0  0  0  0  0  0  0  0  0
  127.9330  127.0850   70.3120 C   0  0  0  0  0  0  0  0  0  0  0  0
  128.0060  127.1220   71.7020 C   0  0  0  0  0  0  0  0  0  0  0  0
  129.0600  127.7920   72.3200 C   0  0  0  0  0  0  0  0  0  0  0  0
  130.0400  128.4260   71.5610 C   0  0  0  0  0  0  0  0  0  0  0  0
  129.9700  128.3900   70.1710 C   0  0  0  0  0  0  0  0  0  0  0  0
  129.2600  126.6790   67.2750 C   0  0  0  0  0  0  0  0  0  0  0  0
  128.9910  127.0780   65.9740 C   0  0  0  0  0  0  0  0  0  0  0  0
  129.2010  126.3310   64.7430 C   0  0  0  0  0  0  0  0  0  0  0  0
  130.3060  125.6550   64.3520 C   0  0  0  0  0  0  0  0  0  0  0  0
  131.8450  125.4810   65.2240 S   0  0  0  0  0  0  0  0  0  0  0  0
  132.4560  124.4760   63.9170 C   0  0  0  0  0  0  0  0  0  0  0  0
  133.6150  123.9010   63.8310 N   0  0  0  0  0  0  0  0  0  0  0  0
  133.9820  123.0990   62.7160 C   0  0  0  0  0  0  0  0  0  0  0  0
  135.0500  122.5050   62.5680 O   0  0  0  0  0  0  0  0  0  0  0  0
  132.9160  123.0020   61.6590 C   0  0  0  0  0  0  0  0  0  0  0  0
  133.2060  122.1780   60.3980 C   0  0  0  0  0  0  0  0  0  0  0  0
  132.4370  120.8620   60.3160 C   0  0  0  0  0  0  0  0  0  0  0  0
  131.3370  120.6410   61.1490 C   0  0  0  0  0  0  0  0  0  0  0  0
  130.6250  119.4470   61.0620 C   0  0  0  0  0  0  0  0  0  0  0  0
  131.0100  118.4710   60.1400 C   0  0  0  0  0  0  0  0  0  0  0  0
  130.2240  117.1770   60.0410 C   0  0  0  0  0  0  0  0  0  0  0  0
  132.1030  118.6950   59.2990 C   0  0  0  0  0  0  0  0  0  0  0  0
  132.8140  119.8880   59.3860 C   0  0  0  0  0  0  0  0  0  0  0  0
  131.7660  123.5860   61.7570 N   0  0  0  0  0  0  0  0  0  0  0  0
  131.5320  124.3370   62.9150 N   0  0  0  0  0  0  0  0  0  0  0  0
  130.3360  124.9550   63.0750 C   0  0  0  0  0  0  0  0  0  0  0  0
  129.4090  124.9190   62.2570 O   0  0  0  0  0  0  0  0  0  0  0  0
  126.9140  128.8410   64.1680 C   0  0  0  0  0  0  0  0  0  0  0  0
  126.4240  129.7060   63.1890 C   0  0  0  0  0  0  0  0  0  0  0  0
  125.4980  129.2540   62.3120 F   0  0  0  0  0  0  0  0  0  0  0  0
  1  2  1  0
  2  3  1  0
  3  4  2  0
  4  5  1  0
  5  6  2  0
  6  7  1  0
  7  8  2  0
  8  9  1  0
  9 10  1  0
 10 11  2  0
 11 12  1  0
 12 13  2  0
 13 14  1  0
 14 15  2  0
  9 16  1  0
 16 17  2  0
 17 18  1  0
 18 19  2  0
 19 20  1  0
 20 21  1  0
 21 22  2  0
 22 23  1  0
 23 24  2  0
 23 25  1  0
 25 26  1  0
 26 27  1  0
 27 28  2  0
 28 29  1  0
 29 30  2  0
 30 31  1  0
 30 32  1  0
 32 33  2  0
 25 34  2  0
 34 35  1  0
 35 36  1  0
 36 37  2  0
  6 38  1  0
 38 39  2  0
 39 40  1  0
 39  3  1  0
 17  7  1  0
 36 19  1  0
 15 10  1  0
 35 21  1  0
 33 27  1  0
M  END
>  <Binding energies>  (46) 
[-8.9]

>  <Ligand effiencies>  (46) 
[-0.2225]

>  <Interactions>  (46) 
["V-B:HIS:456:CE1:9041, V-A:GLU:543:CG:4907, V-B:GLU:543:CD:9880, V-B:GLU:543:CG:9879, V-B:TYR:484:CZ:9318, V-B:HIS:456:CD2:9039, V-B:GLU:543:C:9874, V-A:GLU:543:CD:4908, V-A:GLU:543:CB:4906, V-B:GLU:543:CB:9878, V-B:TYR:539:CD2:9846, V-B:TYR:539:CE2:9848, V-A:GLY:454:CA:4049, V-A:LEU:475:CD2:4259, V-B:TYR:539:C:9839, V-A:ILE:369:CG2:3237, V-A:ILE:369:CD1:3239, V-A:GLU:543:C:4902, V-A:GLY:544:C:4912, V-B:TYR:539:CG:9844, V-A:GLY:453:C:4042, V-B:ASP:366:CG:8184, H-A:TYR:484:OH:4348, H-A:GLY:454:N:4050, V-A:ARG:545:CZ:4926, V-A:SER:385:CB:3409, V-B:TYR:484:CE2:9317, V-B:TYR:539:CB:9843, V-A:HIS:383:CD2:3392, V-A:HIS:383:NE2:3394, V-B:VAL:344:CG1:7972, V-A:HIS:383:CE1:3393"]

$$$$
RR23_Rahimova_2017
     RDKit          3D

 39 44  0  0  0  0  0  0  0  0999 V2000
  131.8880  126.9690   73.5180 C   0  0  0  0  0  0  0  0  0  0  0  0
  130.7710  126.9620   72.4900 C   0  0  0  0  0  0  0  0  0  0  0  0
  129.5750  126.2980   72.7640 C   0  0  0  0  0  0  0  0  0  0  0  0
  128.5470  126.3000   71.8240 C   0  0  0  0  0  0  0  0  0  0  0  0
  128.7120  126.9560   70.5990 C   0  0  0  0  0  0  0  0  0  0  0  0
  127.5760  126.9630   69.6010 C   0  0  0  0  0  0  0  0  0  0  0  0
  126.4340  126.7970   70.0340 O   0  0  0  0  0  0  0  0  0  0  0  0
  127.8490  127.1650   68.2770 N   0  0  0  0  0  0  0  0  0  0  0  0
  127.5980  128.4620   67.6290 C   0  0  0  0  0  0  0  0  0  0  0  0
  128.1540  128.3500   66.2190 C   0  0  0  0  0  0  0  0  0  0  0  0
  129.0150  127.1270   66.2960 C   0  0  0  0  0  0  0  0  0  0  0  0
  129.8520  126.5780   65.3240 C   0  0  0  0  0  0  0  0  0  0  0  0
  130.4580  125.3290   65.5320 C   0  0  0  0  0  0  0  0  0  0  0  0
  131.3860  124.6890   64.4880 C   0  0  2  0  0  0  0  0  0  0  0  0
  131.5060  125.4990   63.2950 N   0  0  0  0  0  0  0  0  0  0  0  0
  131.6750  124.7870   62.2540 C   0  0  0  0  0  0  0  0  0  0  0  0
  131.7990  125.2020   60.9650 N   0  0  0  0  0  0  0  0  0  0  0  0
  131.6350  126.4500   60.4630 C   0  0  0  0  0  0  0  0  0  0  0  0
  131.3750  127.4590   61.1220 O   0  0  0  0  0  0  0  0  0  0  0  0
  131.7880  126.5760   58.9380 C   0  0  0  0  0  0  0  0  0  0  0  0
  131.4090  127.9460   58.5240 N   0  0  0  0  0  0  0  0  0  0  0  0
  132.4680  128.7990   58.2430 N   0  0  0  0  0  0  0  0  0  0  0  0
  132.2700  130.0230   57.8720 N   0  0  0  0  0  0  0  0  0  0  0  0
  130.9670  130.5080   57.7460 C   0  0  0  0  0  0  0  0  0  0  0  0
  130.7880  131.8350   57.3450 C   0  0  0  0  0  0  0  0  0  0  0  0
  129.4970  132.3490   57.2100 C   0  0  0  0  0  0  0  0  0  0  0  0
  128.3880  131.5420   57.4760 C   0  0  0  0  0  0  0  0  0  0  0  0
  128.5650  130.2160   57.8770 C   0  0  0  0  0  0  0  0  0  0  0  0
  129.8590  129.7000   58.0100 C   0  0  0  0  0  0  0  0  0  0  0  0
  130.0720  128.2700   58.4470 C   0  0  0  0  0  0  0  0  0  0  0  0
  129.1530  127.4890   58.7130 O   0  0  0  0  0  0  0  0  0  0  0  0
  131.7460  123.0160   62.4870 S   0  0  0  0  0  0  0  0  0  0  0  0
  131.0230  123.2310   64.1230 C   0  0  2  0  0  0  0  0  0  0  0  0
  129.5200  122.8870   64.0570 C   0  0  0  0  0  0  0  0  0  0  0  0
  130.1680  124.6260   66.7070 C   0  0  0  0  0  0  0  0  0  0  0  0
  129.3150  125.1650   67.6700 C   0  0  0  0  0  0  0  0  0  0  0  0
  128.7780  126.4470   67.4920 C   0  0  0  0  0  0  0  0  0  0  0  0
  129.9050  127.6440   70.3420 C   0  0  0  0  0  0  0  0  0  0  0  0
  130.9320  127.6420   71.2830 C   0  0  0  0  0  0  0  0  0  0  0  0
  1  2  1  0
  2  3  2  0
  3  4  1  0
  4  5  2  0
  5  6  1  0
  6  7  2  0
  6  8  1  0
  8  9  1  0
  9 10  1  0
 10 11  1  0
 11 12  2  0
 12 13  1  0
 14 13  1  1
 14 15  1  0
 15 16  2  0
 16 17  1  0
 17 18  1  0
 18 19  2  0
 18 20  1  0
 20 21  1  0
 21 22  1  0
 22 23  2  0
 23 24  1  0
 24 25  2  0
 25 26  1  0
 26 27  2  0
 27 28  1  0
 28 29  2  0
 29 30  1  0
 30 31  2  0
 16 32  1  0
 32 33  1  0
 33 34  1  6
 13 35  2  0
 35 36  1  0
 36 37  2  0
  5 38  1  0
 38 39  2  0
 39  2  1  0
 37  8  1  0
 37 11  1  0
 33 14  1  0
 30 21  1  0
 29 24  1  0
M  END
>  <Binding energies>  (47) 
[-7.89]

>  <Ligand effiencies>  (47) 
[-0.19724999999999998]

>  <Interactions>  (47) 
["V-B:HIS:456:CE1:9041, V-A:HIS:456:CD2:4068, V-A:GLU:543:CG:4907, V-B:GLU:543:CD:9880, V-A:TYR:484:CE2:4346, V-B:GLU:543:CG:9879, V-B:GLU:543:C:9874, V-A:GLU:543:CD:4908, V-A:HIS:456:CE1:4070, V-A:TYR:484:CZ:4347, V-B:GLU:543:CB:9878, V-B:GLU:543:CA:9876, V-A:LEU:475:CD2:4259, V-A:HIS:456:CG:4066, V-A:GLY:544:C:4912, V-B:ALA:541:CB:9864, V-A:ASP:366:CB:3212, H-A:TYR:531:OH:4795, V-A:ASP:366:CG:3213, H-A:ARG:545:NH2:4928, V-A:MET:535:CE:4835, H-B:ARG:545:N:9892, H-B:GLY:544:N:9887, H-B:HIS:456:ND1:9038"]

$$$$
RR26_Rahimova_2017
     RDKit          3D

 38 44  0  0  0  0  0  0  0  0999 V2000
  126.9700  126.9710   69.3170 C   0  0  0  0  0  0  0  0  0  0  0  0
  128.3900  127.3890   69.6780 C   0  0  0  0  0  0  0  0  0  0  0  0
  128.7630  127.3710   71.0260 C   0  0  0  0  0  0  0  0  0  0  0  0
  130.0600  127.7050   71.4100 C   0  0  0  0  0  0  0  0  0  0  0  0
  131.0010  128.0530   70.4450 C   0  0  0  0  0  0  0  0  0  0  0  0
  130.6410  128.0740   69.0990 C   0  0  0  0  0  0  0  0  0  0  0  0
  129.3370  127.7490   68.6940 C   0  0  0  0  0  0  0  0  0  0  0  0
  129.0300  127.8110   67.2260 C   0  0  0  0  0  0  0  0  0  0  0  0
  129.2300  126.7770   66.4130 N   0  0  0  0  0  0  0  0  0  0  0  0
  128.8270  127.2530   65.2660 C   0  0  0  0  0  0  0  0  0  0  0  0
  128.7160  126.6590   63.6500 S   0  0  0  0  0  0  0  0  0  0  0  0
  128.0330  128.2480   63.1380 C   0  0  0  0  0  0  0  0  0  0  0  0
  127.6530  128.6230   61.8960 C   0  0  0  0  0  0  0  0  0  0  0  0
  127.6920  127.8400   60.6720 C   0  0  0  0  0  0  0  0  0  0  0  0
  127.2880  126.5280   60.4800 C   0  0  0  0  0  0  0  0  0  0  0  0
  127.4690  126.2190   59.1560 N   0  0  0  0  0  0  0  0  0  0  0  0
  127.1900  124.9960   58.4940 C   0  0  0  0  0  0  0  0  0  0  0  0
  128.1850  124.0190   58.3410 C   0  0  0  0  0  0  0  0  0  0  0  0
  127.8990  122.8240   57.6860 C   0  0  0  0  0  0  0  0  0  0  0  0
  126.6190  122.6000   57.1860 C   0  0  0  0  0  0  0  0  0  0  0  0
  125.6200  123.5600   57.3350 C   0  0  0  0  0  0  0  0  0  0  0  0
  125.9040  124.7570   57.9860 C   0  0  0  0  0  0  0  0  0  0  0  0
  127.9420  127.2840   58.4910 N   0  0  0  0  0  0  0  0  0  0  0  0
  128.0840  128.2500   59.3770 C   0  0  0  0  0  0  0  0  0  0  0  0
  128.6100  129.5850   58.9470 C   0  0  0  0  0  0  0  0  0  0  0  0
  127.8960  130.7570   59.2380 C   0  0  0  0  0  0  0  0  0  0  0  0
  128.3760  132.0050   58.8390 C   0  0  0  0  0  0  0  0  0  0  0  0
  129.5790  132.0910   58.1420 C   0  0  0  0  0  0  0  0  0  0  0  0
  130.3120  130.9280   57.8610 C   0  0  0  0  0  0  0  0  0  0  0  0
  129.8270  129.6820   58.2560 C   0  0  0  0  0  0  0  0  0  0  0  0
  131.4860  130.9600   57.1350 O   0  0  0  0  0  0  0  0  0  0  0  0
  132.1070  132.2490   57.0830 C   0  0  0  0  0  0  0  0  0  0  0  0
  131.0550  133.3480   56.7970 C   0  0  0  0  0  0  0  0  0  0  0  0
  130.0410  133.3480   57.8080 O   0  0  0  0  0  0  0  0  0  0  0  0
  127.9230  129.1890   64.2480 C   0  0  0  0  0  0  0  0  0  0  0  0
  127.5070  130.3490   64.2460 O   0  0  0  0  0  0  0  0  0  0  0  0
  128.3950  128.5210   65.3890 N   0  0  0  0  0  0  0  0  0  0  0  0
  128.5170  128.8960   66.6650 N   0  0  0  0  0  0  0  0  0  0  0  0
  1  2  1  0
  2  3  2  0
  3  4  1  0
  4  5  2  0
  5  6  1  0
  6  7  2  0
  7  8  1  0
  8  9  1  0
  9 10  2  0
 10 11  1  0
 11 12  1  0
 12 13  2  0
 13 14  1  0
 14 15  2  0
 15 16  1  0
 16 17  1  0
 17 18  2  0
 18 19  1  0
 19 20  2  0
 20 21  1  0
 21 22  2  0
 16 23  1  0
 23 24  2  0
 24 25  1  0
 25 26  2  0
 26 27  1  0
 27 28  2  0
 28 29  1  0
 29 30  2  0
 29 31  1  0
 31 32  1  0
 32 33  1  0
 33 34  1  0
 12 35  1  0
 35 36  2  0
 35 37  1  0
 37 38  1  0
  7  2  1  0
 38  8  2  0
 37 10  1  0
 24 14  1  0
 30 25  1  0
 22 17  1  0
 34 28  1  0
M  END
>  <Binding energies>  (48) 
[-9.08]

>  <Ligand effiencies>  (48) 
[-0.23894736842105263]

>  <Interactions>  (48) 
["V-B:HIS:456:CE1:9041, V-A:GLU:543:CG:4907, V-B:GLU:543:CD:9880, V-B:GLU:543:CG:9879, H-B:TYR:484:OH:9319, V-B:GLU:543:C:9874, V-A:GLU:543:CD:4908, V-A:HIS:456:CE1:4070, V-A:GLU:543:CB:4906, V-B:GLY:544:C:9884, V-B:GLU:543:CB:9878, V-B:TYR:539:CD2:9846, V-B:TYR:539:CE2:9848, V-B:PRO:540:CA:9855, V-B:PRO:540:CD:9859, V-B:PRO:540:CB:9857, V-B:PRO:540:N:9856, V-B:TYR:539:C:9839, V-A:GLU:543:CA:4904, V-A:GLU:543:C:4902, V-A:GLY:544:C:4912, V-B:LEU:363:CD1:8160, V-B:TYR:539:CG:9844, V-B:TYR:539:CD1:9845, V-B:TYR:539:CE1:9847, V-B:TYR:539:CZ:9849, H-A:TYR:531:OH:4795, V-A:TYR:539:C:4867, V-A:PRO:540:CD:4887, H-A:TYR:539:N:4870, V-A:PRO:540:N:4884, V-A:PRO:540:CA:4883, V-A:PRO:540:CB:4885, V-A:LEU:363:CD1:3189, V-A:ILE:538:CA:4860, V-A:ILE:538:CB:4862, V-A:ILE:538:CG2:4863, V-A:ILE:538:C:4858"]

$$$$
RR2_Rahimova_2017
     RDKit          3D

 46 50  0  0  0  0  0  0  0  0999 V2000
  127.9460  132.9370   64.1690 C   0  0  0  0  0  0  0  0  0  0  0  0
  128.0730  131.6370   64.7340 O   0  0  0  0  0  0  0  0  0  0  0  0
  128.2890  130.5570   63.8990 C   0  0  0  0  0  0  0  0  0  0  0  0
  128.0160  129.2250   64.2410 C   0  0  0  0  0  0  0  0  0  0  0  0
  128.2700  128.2000   63.3340 C   0  0  0  0  0  0  0  0  0  0  0  0
  128.8040  128.4790   62.0690 C   0  0  0  0  0  0  0  0  0  0  0  0
  129.0780  127.3440   61.1020 C   0  0  0  0  0  0  0  0  0  0  0  0
  128.1420  126.7010   60.6140 O   0  0  0  0  0  0  0  0  0  0  0  0
  130.3820  127.0940   60.8400 N   0  0  0  0  0  0  0  0  0  0  0  0
  130.6920  126.0040   60.0330 N   0  0  0  0  0  0  0  0  0  0  0  0
  131.8880  125.4040   60.2030 C   0  0  0  0  0  0  0  0  0  0  0  0
  132.8080  125.8490   60.8940 O   0  0  0  0  0  0  0  0  0  0  0  0
  132.0620  124.0610   59.4820 C   0  0  0  0  0  0  0  0  0  0  0  0
  133.0730  122.8260   60.3780 S   0  0  0  0  0  0  0  0  0  0  0  0
  132.9880  123.4670   62.0230 C   0  0  0  0  0  0  0  0  0  0  0  0
  134.0490  123.7800   62.7230 N   0  0  0  0  0  0  0  0  0  0  0  0
  133.6170  124.1770   63.9800 N   0  0  0  0  0  0  0  0  0  0  0  0
  132.3060  124.1180   63.9840 C   0  0  0  0  0  0  0  0  0  0  0  0
  131.4700  124.4880   65.1660 C   0  0  0  0  0  0  0  0  0  0  0  0
  131.9050  125.4900   66.0370 C   0  0  0  0  0  0  0  0  0  0  0  0
  131.1370  125.8370   67.1440 C   0  0  0  0  0  0  0  0  0  0  0  0
  129.9160  125.1960   67.3820 C   0  0  0  0  0  0  0  0  0  0  0  0
  129.1060  125.4970   68.4870 N   0  0  0  0  0  0  0  0  0  0  0  0
  128.4140  127.0990   68.8280 S   0  0  0  0  0  0  0  0  0  0  0  0
  126.9670  126.9660   68.6210 O   0  0  0  0  0  0  0  0  0  0  0  0
  129.1910  128.0980   68.0860 O   0  0  0  0  0  0  0  0  0  0  0  0
  128.6630  127.3520   70.5840 C   0  0  0  0  0  0  0  0  0  0  0  0
  127.6280  127.1130   71.4910 C   0  0  0  0  0  0  0  0  0  0  0  0
  127.8370  127.3310   72.8500 C   0  0  0  0  0  0  0  0  0  0  0  0
  129.0800  127.7820   73.3010 C   0  0  0  0  0  0  0  0  0  0  0  0
  129.3010  128.0340   74.7820 C   0  0  0  0  0  0  0  0  0  0  0  0
  130.1110  128.0240   72.3910 C   0  0  0  0  0  0  0  0  0  0  0  0
  129.9030  127.8080   71.0320 C   0  0  0  0  0  0  0  0  0  0  0  0
  129.4810  124.1980   66.5090 C   0  0  0  0  0  0  0  0  0  0  0  0
  130.2520  123.8460   65.4050 C   0  0  0  0  0  0  0  0  0  0  0  0
  131.8360  123.6660   62.7620 N   0  0  0  0  0  0  0  0  0  0  0  0
  130.5030  123.4210   62.3710 C   0  0  0  0  0  0  0  0  0  0  0  0
  129.5480  124.4320   62.4820 C   0  0  0  0  0  0  0  0  0  0  0  0
  128.2350  124.1850   62.0900 C   0  0  0  0  0  0  0  0  0  0  0  0
  127.8660  122.9360   61.5900 C   0  0  0  0  0  0  0  0  0  0  0  0
  126.5410  122.7860   61.2290 O   0  0  0  0  0  0  0  0  0  0  0  0
  125.7290  123.9450   61.0640 C   0  0  0  0  0  0  0  0  0  0  0  0
  128.8340  121.9240   61.4820 C   0  0  0  0  0  0  0  0  0  0  0  0
  130.1480  122.1670   61.8700 C   0  0  0  0  0  0  0  0  0  0  0  0
  129.0700  129.8160   61.7320 C   0  0  0  0  0  0  0  0  0  0  0  0
  128.8140  130.8390   62.6400 C   0  0  0  0  0  0  0  0  0  0  0  0
  1  2  1  0
  2  3  1  0
  3  4  2  0
  4  5  1  0
  5  6  2  0
  6  7  1  0
  7  8  2  0
  7  9  1  0
  9 10  1  0
 10 11  1  0
 11 12  2  0
 11 13  1  0
 13 14  1  0
 14 15  1  0
 15 16  2  0
 16 17  1  0
 17 18  2  0
 18 19  1  0
 19 20  2  0
 20 21  1  0
 21 22  2  0
 22 23  1  0
 23 24  1  0
 24 25  2  0
 24 26  2  0
 24 27  1  0
 27 28  2  0
 28 29  1  0
 29 30  2  0
 30 31  1  0
 30 32  1  0
 32 33  2  0
 22 34  1  0
 34 35  2  0
 18 36  1  0
 36 37  1  0
 37 38  2  0
 38 39  1  0
 39 40  2  0
 40 41  1  0
 41 42  1  0
 40 43  1  0
 43 44  2  0
  6 45  1  0
 45 46  2  0
 46  3  1  0
 36 15  1  0
 44 37  1  0
 35 19  1  0
 33 27  1  0
M  END
>  <Binding energies>  (49) 
[-9.69]

>  <Ligand effiencies>  (49) 
[-0.1977551020408163]

>  <Interactions>  (49) 
["V-B:HIS:456:CE1:9041, V-A:GLU:543:CG:4907, V-B:GLU:543:CD:9880, V-A:TYR:484:CE2:4346, V-B:GLU:543:CG:9879, H-B:TYR:484:OH:9319, V-B:TYR:484:CZ:9318, V-B:HIS:456:CD2:9039, V-B:GLU:543:C:9874, V-A:GLU:543:CD:4908, V-A:HIS:456:CE1:4070, V-B:GLY:544:C:9884, V-B:LEU:475:CD2:9230, V-A:TYR:484:CZ:4347, V-B:GLU:543:CB:9878, V-B:LYS:547:CE:9922, V-B:GLU:543:CA:9876, V-B:TYR:539:CE2:9848, V-B:PRO:540:CA:9855, V-A:LEU:475:CD2:4259, V-B:PRO:540:CB:9857, H-A:HIS:456:NE2:4071, V-B:ALA:541:CB:9864, V-B:PRO:540:C:9853, V-B:TYR:539:CZ:9849, H-B:ALA:541:N:9863, V-A:ASP:366:CG:3213, H-A:ASP:366:OD2:3215, H-A:TYR:484:OH:4348, H-A:GLY:454:N:4050, H-A:ARG:545:NH2:4928, H-A:GLU:543:OE1:4909, H-B:GLU:543:O:9875, V-A:ALA:541:CB:4892, V-B:TYR:484:CE2:9317"]

$$$$
RR33_Rahimova_2017
     RDKit          3D

 18 19  0  0  0  0  0  0  0  0999 V2000
  132.1790  126.5990   74.1890 C   0  0  0  0  0  0  0  0  0  0  0  0
  130.7040  126.4890   74.5850 C   0  0  0  0  0  0  0  0  0  0  0  0
  129.9910  127.5750   74.0000 O   0  0  0  0  0  0  0  0  0  0  0  0
  129.7050  127.5490   72.6480 C   0  0  0  0  0  0  0  0  0  0  0  0
  130.6690  128.0930   71.7990 C   0  0  0  0  0  0  0  0  0  0  0  0
  130.4680  128.1140   70.4220 C   0  0  0  0  0  0  0  0  0  0  0  0
  129.2950  127.5890   69.8710 C   0  0  0  0  0  0  0  0  0  0  0  0
  129.0790  127.6140   68.3920 C   0  0  0  0  0  0  0  0  0  0  0  0
  129.5860  126.7990   67.4940 N   0  0  0  0  0  0  0  0  0  0  0  0
  129.1080  127.2180   66.3320 C   0  0  0  0  0  0  0  0  0  0  0  0
  129.4650  126.5090   65.0430 C   0  0  0  0  0  0  0  0  0  0  0  0
  130.7530  125.8410   65.1640 N   0  0  0  0  0  0  0  0  0  0  0  0
  130.5720  124.4150   65.3770 C   0  0  0  0  0  0  0  0  0  0  0  0
  128.2880  128.3200   66.5360 C   0  0  0  0  0  0  0  0  0  0  0  0
  127.4670  129.2260   65.6500 C   0  0  0  0  0  0  0  0  0  0  0  0
  128.2740  128.5720   67.8650 O   0  0  0  0  0  0  0  0  0  0  0  0
  128.3280  127.0400   70.7190 C   0  0  0  0  0  0  0  0  0  0  0  0
  128.5280  127.0190   72.0970 C   0  0  0  0  0  0  0  0  0  0  0  0
  1  2  1  0
  2  3  1  0
  3  4  1  0
  4  5  2  0
  5  6  1  0
  6  7  2  0
  7  8  1  0
  8  9  2  0
  9 10  1  0
 10 11  1  0
 11 12  1  0
 12 13  1  0
 10 14  2  0
 14 15  1  0
 14 16  1  0
  7 17  1  0
 17 18  2  0
 18  4  1  0
 16  8  1  0
M  END
>  <Binding energies>  (50) 
[-4.77]

>  <Ligand effiencies>  (50) 
[-0.25105263157894736]

>  <Interactions>  (50) 
["V-B:HIS:456:CE1:9041, V-A:HIS:456:CD2:4068, V-A:GLU:543:CG:4907, V-B:GLU:543:CD:9880, V-A:TYR:484:CE2:4346, V-B:GLU:543:CG:9879, V-A:GLU:543:CD:4908, V-A:HIS:456:CE1:4070, V-A:GLU:543:CB:4906, V-A:TYR:484:CZ:4347, V-B:GLU:543:CB:9878, V-A:HIS:456:CB:4065, V-A:HIS:456:CG:4066, H-B:LYS:547:NZ:9923, V-A:GLU:543:C:4902, V-A:GLY:544:C:4912, H-A:LYS:547:NZ:4951, H-A:GLU:543:OE2:4910, H-A:GLU:543:OE1:4909"]

$$$$
RR3_Rahimova_2017
     RDKit          3D

 38 44  0  0  0  0  0  0  0  0999 V2000
  129.3040  128.3440   72.4130 C   0  0  0  0  0  0  0  0  0  0  0  0
  128.1770  127.7310   71.8740 C   0  0  0  0  0  0  0  0  0  0  0  0
  128.2100  127.2540   70.5670 C   0  0  0  0  0  0  0  0  0  0  0  0
  129.3670  127.3820   69.7830 C   0  0  0  0  0  0  0  0  0  0  0  0
  129.4010  126.8680   68.3770 C   0  0  0  0  0  0  0  0  0  0  0  0
  129.8540  125.5720   68.0950 C   0  0  0  0  0  0  0  0  0  0  0  0
  129.8890  125.0960   66.7880 C   0  0  0  0  0  0  0  0  0  0  0  0
  129.4780  125.9100   65.7290 C   0  0  0  0  0  0  0  0  0  0  0  0
  129.5190  125.4050   64.3200 C   0  0  0  0  0  0  0  0  0  0  0  0
  129.9010  124.1580   64.0720 N   0  0  0  0  0  0  0  0  0  0  0  0
  129.7960  123.9850   62.7760 C   0  0  0  0  0  0  0  0  0  0  0  0
  130.1150  122.7500   62.0630 C   0  0  0  0  0  0  0  0  0  0  0  0
  129.1990  121.8170   61.6100 C   0  0  0  0  0  0  0  0  0  0  0  0
  129.8470  120.7880   60.9770 N   0  0  0  0  0  0  0  0  0  0  0  0
  131.2060  121.0080   60.9950 C   0  0  0  0  0  0  0  0  0  0  0  0
  132.2620  120.2460   60.4820 C   0  0  0  0  0  0  0  0  0  0  0  0
  133.5500  120.7460   60.6640 C   0  0  0  0  0  0  0  0  0  0  0  0
  133.7850  121.9470   61.3270 C   0  0  0  0  0  0  0  0  0  0  0  0
  132.7340  122.7060   61.8370 C   0  0  0  0  0  0  0  0  0  0  0  0
  131.4140  122.2470   61.6800 C   0  0  0  0  0  0  0  0  0  0  0  0
  129.3500  125.1240   62.1650 N   0  0  0  0  0  0  0  0  0  0  0  0
  129.1800  126.0790   63.1340 C   0  0  0  0  0  0  0  0  0  0  0  0
  128.7560  127.4780   62.8280 C   0  0  0  0  0  0  0  0  0  0  0  0
  127.7550  128.0880   63.5850 C   0  0  0  0  0  0  0  0  0  0  0  0
  127.3490  129.3870   63.2950 C   0  0  0  0  0  0  0  0  0  0  0  0
  127.9360  130.1080   62.2450 C   0  0  0  0  0  0  0  0  0  0  0  0
  127.4830  131.4970   61.9240 C   0  0  0  0  0  0  0  0  0  0  0  0
  128.2490  132.3290   61.0920 C   0  0  0  0  0  0  0  0  0  0  0  0
  127.8240  133.6210   60.7890 C   0  0  0  0  0  0  0  0  0  0  0  0
  126.6270  134.0950   61.3160 C   0  0  0  0  0  0  0  0  0  0  0  0
  125.8520  133.2870   62.1410 C   0  0  0  0  0  0  0  0  0  0  0  0
  126.2800  131.9970   62.4430 C   0  0  0  0  0  0  0  0  0  0  0  0
  128.9530  129.4900   61.5030 C   0  0  0  0  0  0  0  0  0  0  0  0
  129.3610  128.1910   61.7910 C   0  0  0  0  0  0  0  0  0  0  0  0
  129.0130  127.1970   66.0010 C   0  0  0  0  0  0  0  0  0  0  0  0
  128.9790  127.6710   67.3100 C   0  0  0  0  0  0  0  0  0  0  0  0
  130.4900  128.0040   70.3470 C   0  0  0  0  0  0  0  0  0  0  0  0
  130.4610  128.4820   71.6540 C   0  0  0  0  0  0  0  0  0  0  0  0
  1  2  2  0
  2  3  1  0
  3  4  2  0
  4  5  1  0
  5  6  2  0
  6  7  1  0
  7  8  2  0
  8  9  1  0
  9 10  1  0
 10 11  2  0
 11 12  1  0
 12 13  2  0
 13 14  1  0
 14 15  1  0
 15 16  2  0
 16 17  1  0
 17 18  2  0
 18 19  1  0
 19 20  2  0
 11 21  1  0
 21 22  1  0
 22 23  1  0
 23 24  2  0
 24 25  1  0
 25 26  2  0
 26 27  1  0
 27 28  2  0
 28 29  1  0
 29 30  2  0
 30 31  1  0
 31 32  2  0
 26 33  1  0
 33 34  2  0
  8 35  1  0
 35 36  2  0
  4 37  1  0
 37 38  2  0
 38  1  1  0
 36  5  1  0
 22  9  2  0
 34 23  1  0
 20 12  1  0
 32 27  1  0
 20 15  1  0
M  END
>  <Binding energies>  (51) 
[-9.43]

>  <Ligand effiencies>  (51) 
[-0.23575]

>  <Interactions>  (51) 
["V-B:HIS:456:CE1:9041, V-A:GLU:543:CG:4907, V-B:GLU:543:CD:9880, V-A:TYR:484:CE2:4346, V-B:GLU:543:CG:9879, V-B:HIS:456:CD2:9039, V-A:GLU:543:CD:4908, V-A:HIS:456:CE1:4070, V-A:GLU:543:CB:4906, V-B:LEU:475:CD2:9230, V-B:GLU:543:CB:9878, V-B:GLU:543:CA:9876, V-B:TYR:539:CD2:9846, V-B:TYR:539:CE2:9848, V-A:LEU:475:CD2:4259, V-B:TYR:539:C:9839, V-A:ILE:369:CG2:3237, V-A:ILE:369:CD1:3239, V-A:GLU:543:C:4902, V-A:GLY:544:C:4912, V-B:ALA:541:CB:9864, V-A:TYR:539:C:4867, V-A:TYR:539:CE1:4875, V-A:TYR:539:CD1:4873, H-B:TYR:539:O:9840, V-A:SER:385:CA:3407, V-A:SER:385:CB:3409, V-A:GLY:544:CA:4914"]

$$$$
RR4_Rahimova_2017
     RDKit          3D

 40 44  0  0  0  0  0  0  0  0999 V2000
  128.2050  128.5700   73.9350 C   0  0  0  0  0  0  0  0  0  0  0  0
  128.3720  127.3110   73.2930 O   0  0  0  0  0  0  0  0  0  0  0  0
  128.4260  127.2600   71.9130 C   0  0  0  0  0  0  0  0  0  0  0  0
  129.6570  127.5440   71.3250 C   0  0  0  0  0  0  0  0  0  0  0  0
  129.8070  127.5150   69.9420 C   0  0  0  0  0  0  0  0  0  0  0  0
  128.7260  127.2050   69.1030 C   0  0  0  0  0  0  0  0  0  0  0  0
  128.8910  127.1760   67.6110 C   0  0  0  0  0  0  0  0  0  0  0  0
  129.6980  126.2410   66.9550 C   0  0  0  0  0  0  0  0  0  0  0  0
  129.8160  126.2530   65.5590 C   0  0  0  0  0  0  0  0  0  0  0  0
  130.6730  125.2060   64.9270 C   0  0  0  0  0  0  0  0  0  0  0  0
  130.1160  123.9850   64.5350 C   0  0  0  0  0  0  0  0  0  0  0  0
  130.9060  123.0080   63.9350 C   0  0  0  0  0  0  0  0  0  0  0  0
  132.2630  123.2340   63.7090 C   0  0  0  0  0  0  0  0  0  0  0  0
  132.9670  122.2080   63.1070 O   0  0  0  0  0  0  0  0  0  0  0  0
  133.9950  122.5250   62.1740 C   0  0  0  0  0  0  0  0  0  0  0  0
  132.8250  124.4600   64.0960 C   0  0  0  0  0  0  0  0  0  0  0  0
  132.0340  125.4350   64.6960 C   0  0  0  0  0  0  0  0  0  0  0  0
  129.1220  127.2510   64.8320 C   0  0  0  0  0  0  0  0  0  0  0  0
  129.2090  127.3090   63.3700 C   0  0  0  0  0  0  0  0  0  0  0  0
  129.2780  127.3540   62.2160 N   0  0  0  0  0  0  0  0  0  0  0  0
  128.3470  128.1830   65.5610 C   0  0  0  0  0  0  0  0  0  0  0  0
  127.4220  129.5080   64.8160 S   0  0  0  0  0  0  0  0  0  0  0  0
  128.4340  131.0220   64.9200 C   0  0  0  0  0  0  0  0  0  0  0  0
  128.7170  131.6930   63.5690 C   0  0  0  0  0  0  0  0  0  0  0  0
  128.3930  132.8670   63.3730 O   0  0  0  0  0  0  0  0  0  0  0  0
  129.3170  130.8960   62.6550 N   0  0  0  0  0  0  0  0  0  0  0  0
  129.7030  131.2090   61.3490 C   0  0  0  0  0  0  0  0  0  0  0  0
  128.5600  131.5070   60.0670 S   0  0  0  0  0  0  0  0  0  0  0  0
  129.8330  131.7800   58.9180 C   0  0  0  0  0  0  0  0  0  0  0  0
  131.0990  131.6400   59.5080 C   0  0  0  0  0  0  0  0  0  0  0  0
  131.0230  131.3320   60.8890 C   0  0  0  0  0  0  0  0  0  0  0  0
  132.1970  131.1540   61.7380 C   0  0  0  0  0  0  0  0  0  0  0  0
  133.1270  131.0130   62.4110 N   0  0  0  0  0  0  0  0  0  0  0  0
  132.3870  131.8700   58.7090 C   0  0  0  0  0  0  0  0  0  0  0  0
  132.0860  132.6260   57.3950 C   0  0  0  0  0  0  0  0  0  0  0  0
  130.8690  132.0440   56.6560 C   0  0  0  0  0  0  0  0  0  0  0  0
  129.5690  132.1890   57.4750 C   0  0  0  0  0  0  0  0  0  0  0  0
  128.2260  128.1290   66.9080 N   0  0  0  0  0  0  0  0  0  0  0  0
  127.4910  126.9170   69.7050 C   0  0  0  0  0  0  0  0  0  0  0  0
  127.3380  126.9440   71.0880 C   0  0  0  0  0  0  0  0  0  0  0  0
  1  2  1  0
  2  3  1  0
  3  4  2  0
  4  5  1  0
  5  6  2  0
  6  7  1  0
  7  8  2  0
  8  9  1  0
  9 10  1  0
 10 11  2  0
 11 12  1  0
 12 13  2  0
 13 14  1  0
 14 15  1  0
 13 16  1  0
 16 17  2  0
  9 18  2  0
 18 19  1  0
 19 20  3  0
 18 21  1  0
 21 22  1  0
 22 23  1  0
 23 24  1  0
 24 25  2  0
 24 26  1  0
 26 27  1  0
 27 28  1  0
 28 29  1  0
 29 30  2  0
 30 31  1  0
 31 32  1  0
 32 33  3  0
 30 34  1  0
 34 35  1  0
 35 36  1  0
 36 37  1  0
 21 38  2  0
  6 39  1  0
 39 40  2  0
 40  3  1  0
 38  7  1  0
 17 10  1  0
 31 27  2  0
 37 29  1  0
M  END
>  <Binding energies>  (52) 
[-10.36]

>  <Ligand effiencies>  (52) 
[-0.2526829268292683]

>  <Interactions>  (52) 
["V-B:HIS:456:CE1:9041, V-A:GLU:543:CG:4907, V-B:GLU:543:CD:9880, V-B:GLU:543:CG:9879, H-B:TYR:484:OH:9319, V-B:TYR:484:CZ:9318, V-B:HIS:456:CD2:9039, V-B:GLU:543:C:9874, V-A:GLU:543:CD:4908, V-A:HIS:456:CE1:4070, V-B:GLY:544:C:9884, V-B:GLU:543:CB:9878, V-A:GLY:454:CA:4049, V-A:LEU:475:CD2:4259, V-A:ILE:369:CD1:3239, H-B:LYS:547:NZ:9923, V-A:PRO:540:CD:4887, V-A:PRO:540:N:4884, V-A:PRO:540:CA:4883, V-A:PRO:540:CB:4885, V-A:ARG:545:CZ:4926, H-A:ARG:545:NH2:4928, V-A:MET:535:CE:4835, V-A:LEU:363:CD1:3189, H-A:GLU:543:OE1:4909, V-A:ALA:541:CB:4892, V-B:GLY:544:CA:9886, V-B:TYR:484:CE2:9317, V-A:PRO:540:CG:4886"]

$$$$
RR6_Rahimova_2017
     RDKit          3D

 38 41  0  0  0  0  0  0  0  0999 V2000
  129.8420  118.1150   61.6360 C   0  0  0  0  0  0  0  0  0  0  0  0
  129.4850  119.4900   61.6590 O   0  0  0  0  0  0  0  0  0  0  0  0
  130.3310  120.4390   61.1830 C   0  0  0  0  0  0  0  0  0  0  0  0
  131.3790  120.1770   60.5840 O   0  0  0  0  0  0  0  0  0  0  0  0
  129.8660  121.8410   61.4560 C   0  0  0  0  0  0  0  0  0  0  0  0
  128.7800  122.1120   62.3010 C   0  0  0  0  0  0  0  0  0  0  0  0
  128.3680  123.4230   62.5280 C   0  0  0  0  0  0  0  0  0  0  0  0
  129.0360  124.4890   61.9070 C   0  0  0  0  0  0  0  0  0  0  0  0
  128.6860  125.8450   62.0450 N   0  0  0  0  0  0  0  0  0  0  0  0
  129.4530  126.9470   61.8890 C   0  0  0  0  0  0  0  0  0  0  0  0
  130.6430  126.9500   61.5750 O   0  0  0  0  0  0  0  0  0  0  0  0
  128.7640  128.2800   62.1970 C   0  0  0  0  0  0  0  0  0  0  0  0
  127.7640  128.2550   63.7220 S   0  0  0  0  0  0  0  0  0  0  0  0
  128.7280  127.4020   64.9540 C   0  0  0  0  0  0  0  0  0  0  0  0
  129.5580  126.4550   64.4540 N   0  0  0  0  0  0  0  0  0  0  0  0
  130.3650  125.7580   65.2930 C   0  0  0  0  0  0  0  0  0  0  0  0
  131.2980  124.7710   64.6540 C   0  0  0  0  0  0  0  0  0  0  0  0
  132.4790  125.1960   64.0250 C   0  0  0  0  0  0  0  0  0  0  0  0
  133.3380  124.2820   63.4210 C   0  0  0  0  0  0  0  0  0  0  0  0
  133.0340  122.9210   63.4390 C   0  0  0  0  0  0  0  0  0  0  0  0
  133.9680  121.9290   62.7710 C   0  0  0  0  0  0  0  0  0  0  0  0
  131.8680  122.4790   64.0600 C   0  0  0  0  0  0  0  0  0  0  0  0
  131.0140  123.3970   64.6630 C   0  0  0  0  0  0  0  0  0  0  0  0
  130.3420  125.9960   66.6710 C   0  0  0  0  0  0  0  0  0  0  0  0
  129.4880  126.9680   67.2120 C   0  0  0  0  0  0  0  0  0  0  0  0
  129.5270  127.1830   68.6890 C   0  0  0  0  0  0  0  0  0  0  0  0
  130.6620  127.7370   69.2890 C   0  0  0  0  0  0  0  0  0  0  0  0
  130.7010  127.9570   70.6640 C   0  0  0  0  0  0  0  0  0  0  0  0
  129.6060  127.6330   71.4630 C   0  0  0  0  0  0  0  0  0  0  0  0
  129.7330  127.8870   72.8150 O   0  0  0  0  0  0  0  0  0  0  0  0
  129.1210  129.0500   73.3630 C   0  0  0  0  0  0  0  0  0  0  0  0
  128.4620  127.0820   70.8660 C   0  0  0  0  0  0  0  0  0  0  0  0
  128.4270  126.8640   69.4910 C   0  0  0  0  0  0  0  0  0  0  0  0
  128.6480  127.6920   66.3310 C   0  0  0  0  0  0  0  0  0  0  0  0
  127.7110  128.7020   66.8330 C   0  0  0  0  0  0  0  0  0  0  0  0
  126.9730  129.5000   67.2300 N   0  0  0  0  0  0  0  0  0  0  0  0
  130.1280  124.2240   61.0800 C   0  0  0  0  0  0  0  0  0  0  0  0
  130.5360  122.9120   60.8510 C   0  0  0  0  0  0  0  0  0  0  0  0
  1  2  1  0
  2  3  1  0
  3  4  2  0
  3  5  1  0
  5  6  2  0
  6  7  1  0
  7  8  2  0
  8  9  1  0
  9 10  1  0
 10 11  2  0
 10 12  1  0
 12 13  1  0
 13 14  1  0
 14 15  2  0
 15 16  1  0
 16 17  1  0
 17 18  2  0
 18 19  1  0
 19 20  2  0
 20 21  1  0
 20 22  1  0
 22 23  2  0
 16 24  2  0
 24 25  1  0
 25 26  1  0
 26 27  2  0
 27 28  1  0
 28 29  2  0
 29 30  1  0
 30 31  1  0
 29 32  1  0
 32 33  2  0
 25 34  2  0
 34 35  1  0
 35 36  3  0
  8 37  1  0
 37 38  2  0
 38  5  1  0
 34 14  1  0
 23 17  1  0
 33 26  1  0
M  END
>  <Binding energies>  (53) 
[-7.77]

>  <Ligand effiencies>  (53) 
[-0.1992307692307692]

>  <Interactions>  (53) 
["V-B:HIS:456:CE1:9041, V-A:GLU:543:CG:4907, V-B:GLU:543:CD:9880, V-A:TYR:484:CE2:4346, V-B:GLU:543:CG:9879, H-B:TYR:484:OH:9319, V-B:HIS:456:CD2:9039, V-B:GLU:543:C:9874, V-A:GLU:543:CD:4908, V-A:HIS:456:CE1:4070, V-A:GLU:543:CB:4906, V-A:TYR:484:CZ:4347, V-B:GLU:543:CB:9878, V-B:TYR:539:CD2:9846, V-B:TYR:539:CE2:9848, V-A:GLY:454:CA:4049, V-A:LEU:475:CD2:4259, V-A:GLU:543:C:4902, V-A:GLY:544:C:4912, V-B:ALA:541:CB:9864, V-B:ALA:541:CA:9862, H-B:ALA:541:N:9863, H-A:LYS:547:NZ:4951, H-A:SER:385:OG:3410, V-A:ARG:545:CZ:4926, H-B:GLU:543:OE1:9881, H-B:GLU:543:OE2:9882, V-A:LEU:475:CD1:4258, V-A:LEU:475:CG:4257, V-A:PRO:482:CB:4326"]

$$$$
RR7_Rahimova_2017
     RDKit          3D

 47 53  0  0  0  0  0  0  0  0999 V2000
  125.5320  124.7390   56.7980 C   0  0  0  0  0  0  0  0  0  0  0  0
  126.9250  124.7110   56.5050 O   0  0  0  0  0  0  0  0  0  0  0  0
  127.8200  124.4140   57.5150 C   0  0  0  0  0  0  0  0  0  0  0  0
  127.5730  123.2530   58.2440 C   0  0  0  0  0  0  0  0  0  0  0  0
  128.4220  122.8700   59.2770 C   0  0  0  0  0  0  0  0  0  0  0  0
  129.5380  123.6500   59.6150 C   0  0  0  0  0  0  0  0  0  0  0  0
  130.5250  123.2270   60.7470 C   0  0  0  0  0  0  0  0  0  0  0  0
  130.0090  123.7980   61.9710 O   0  0  0  0  0  0  0  0  0  0  0  0
  128.6650  124.2850   62.0230 C   0  0  0  0  0  0  0  0  0  0  0  0
  128.6680  125.7950   61.7340 C   0  0  1  0  0  0  0  0  0  0  0  0
  128.1320  126.4370   62.8880 O   0  0  0  0  0  0  0  0  0  0  0  0
  129.0330  127.3500   63.4450 C   0  0  1  0  0  0  0  0  0  0  0  0
  128.8740  127.3940   64.8860 N   0  0  0  0  0  0  0  0  0  0  0  0
  128.3870  128.4330   65.6590 C   0  0  0  0  0  0  0  0  0  0  0  0
  128.3950  128.2220   66.9520 N   0  0  0  0  0  0  0  0  0  0  0  0
  128.9630  126.9830   67.0770 C   0  0  0  0  0  0  0  0  0  0  0  0
  129.2660  126.1940   68.2040 C   0  0  0  0  0  0  0  0  0  0  0  0
  128.9470  126.6920   69.4820 N   0  0  0  0  0  0  0  0  0  0  0  0
  129.5350  127.6930   70.1780 C   0  0  0  0  0  0  0  0  0  0  0  0
  130.5040  128.3420   69.7760 O   0  0  0  0  0  0  0  0  0  0  0  0
  128.9470  127.9750   71.5440 C   0  0  0  0  0  0  0  0  0  0  0  0
  129.6110  128.8500   72.4180 C   0  0  0  0  0  0  0  0  0  0  0  0
  129.0850  129.1270   73.6770 C   0  0  0  0  0  0  0  0  0  0  0  0
  127.8880  128.5370   74.0700 C   0  0  0  0  0  0  0  0  0  0  0  0
  127.2110  127.6700   73.2160 C   0  0  0  0  0  0  0  0  0  0  0  0
  127.7370  127.3910   71.9570 C   0  0  0  0  0  0  0  0  0  0  0  0
  129.8620  124.9770   68.0260 N   0  0  0  0  0  0  0  0  0  0  0  0
  130.1350  124.5840   66.7550 C   0  0  0  0  0  0  0  0  0  0  0  0
  129.8840  125.2610   65.6020 N   0  0  0  0  0  0  0  0  0  0  0  0
  129.2940  126.4460   65.8070 C   0  0  0  0  0  0  0  0  0  0  0  0
  130.4080  126.9020   62.9620 C   0  0  0  0  0  0  0  0  0  0  0  0
  130.0600  126.4210   61.5640 C   0  0  2  0  0  0  0  0  0  0  0  0
  130.0660  127.4780   60.6210 O   0  0  0  0  0  0  0  0  0  0  0  0
  130.5700  121.6890   60.9480 C   0  0  0  0  0  0  0  0  0  0  0  0
  131.6860  120.9510   60.5190 C   0  0  0  0  0  0  0  0  0  0  0  0
  131.7310  119.5710   60.6810 C   0  0  0  0  0  0  0  0  0  0  0  0
  130.6580  118.9110   61.2740 C   0  0  0  0  0  0  0  0  0  0  0  0
  129.5420  119.6220   61.7060 C   0  0  0  0  0  0  0  0  0  0  0  0
  129.4980  121.0040   61.5420 C   0  0  0  0  0  0  0  0  0  0  0  0
  132.0040  123.6670   60.5530 C   0  0  0  0  0  0  0  0  0  0  0  0
  132.5370  123.8180   59.2630 C   0  0  0  0  0  0  0  0  0  0  0  0
  133.8620  124.2010   59.0790 C   0  0  0  0  0  0  0  0  0  0  0  0
  134.6730  124.4290   60.1870 C   0  0  0  0  0  0  0  0  0  0  0  0
  134.1700  124.2720   61.4750 C   0  0  0  0  0  0  0  0  0  0  0  0
  132.8450  123.8890   61.6560 C   0  0  0  0  0  0  0  0  0  0  0  0
  129.7900  124.8100   58.8680 C   0  0  0  0  0  0  0  0  0  0  0  0
  128.9410  125.1930   57.8340 C   0  0  0  0  0  0  0  0  0  0  0  0
  1  2  1  0
  2  3  1  0
  3  4  2  0
  4  5  1  0
  5  6  2  0
  6  7  1  0
  7  8  1  0
  8  9  1  0
 10  9  1  1
 10 11  1  0
 11 12  1  0
 12 13  1  1
 13 14  1  0
 14 15  2  0
 15 16  1  0
 16 17  2  0
 17 18  1  0
 18 19  1  0
 19 20  2  0
 19 21  1  0
 21 22  2  0
 22 23  1  0
 23 24  2  0
 24 25  1  0
 25 26  2  0
 17 27  1  0
 27 28  2  0
 28 29  1  0
 29 30  2  0
 12 31  1  0
 31 32  1  0
 32 33  1  6
  7 34  1  0
 34 35  2  0
 35 36  1  0
 36 37  2  0
 37 38  1  0
 38 39  2  0
  7 40  1  0
 40 41  2  0
 41 42  1  0
 42 43  2  0
 43 44  1  0
 44 45  2  0
  6 46  1  0
 46 47  2  0
 47  3  1  0
 32 10  1  0
 39 34  1  0
 45 40  1  0
 30 13  1  0
 30 16  1  0
 26 21  1  0
M  END
>  <Binding energies>  (54) 
[-8.27]

>  <Ligand effiencies>  (54) 
[-0.16877551020408163]

>  <Interactions>  (54) 
["V-B:HIS:456:CE1:9041, V-A:GLU:543:CG:4907, V-B:GLU:543:CD:9880, V-A:TYR:484:CE2:4346, V-B:GLU:543:CG:9879, V-B:HIS:456:CD2:9039, V-B:GLU:543:C:9874, V-A:GLU:543:CD:4908, V-B:HIS:456:CG:9037, V-A:HIS:456:CE1:4070, V-B:GLY:544:C:9884, V-A:TYR:484:CZ:4347, V-B:GLU:543:CB:9878, V-B:LYS:547:CE:9922, V-B:GLU:543:CA:9876, V-B:TYR:539:CD2:9846, V-B:TYR:539:CE2:9848, V-B:PRO:540:CA:9855, V-A:LEU:475:CD2:4259, V-B:PRO:540:N:9856, V-B:TYR:539:C:9839, V-A:ILE:369:CG2:3237, V-A:ILE:369:CD1:3239, H-A:HIS:456:NE2:4071, V-B:ALA:541:CB:9864, V-B:PRO:540:C:9853, V-B:MET:535:CE:9807, V-B:TYR:539:CZ:9849, V-B:ALA:541:CA:9862, V-A:ASP:366:CB:3212, V-A:ASP:366:CG:3213, V-A:ASP:366:CA:3210, V-B:TYR:531:CZ:9766, V-A:ILE:369:CB:3236, V-A:ASP:366:C:3208, H-B:GLU:543:O:9875, V-A:SER:385:CB:3409, V-A:ILE:369:CG1:3238, V-A:LEU:475:CG:4257, V-B:TYR:531:CE2:9765"]

$$$$
RR8_A_Rahimova_2017
     RDKit          3D

 42 46  0  0  0  0  0  0  0  0999 V2000
  128.7620  126.6130   66.0070 O   0  0  0  0  0  0  0  0  0  0  0  0
  129.4280  126.1100   66.9190 C   0  0  0  0  0  0  0  0  0  0  0  0
  130.1740  124.9690   66.7930 O   0  0  0  0  0  0  0  0  0  0  0  0
  130.4040  124.4850   65.4980 C   0  0  1  0  0  0  0  0  0  0  0  0
  129.2490  123.9270   64.9430 O   0  0  0  0  0  0  0  0  0  0  0  0
  129.1330  124.2220   63.5540 C   0  0  2  0  0  0  0  0  0  0  0  0
  129.0000  122.8990   62.7810 C   0  0  0  0  0  0  0  0  0  0  0  0
  127.6530  122.7500   62.3550 O   0  0  0  0  0  0  0  0  0  0  0  0
  127.1460  123.8690   61.6380 C   0  0  0  0  0  0  0  0  0  0  0  0
  127.0180  123.5210   60.1620 C   0  0  0  0  0  0  0  0  0  0  0  0
  125.8680  123.8860   59.4580 C   0  0  0  0  0  0  0  0  0  0  0  0
  125.7510  123.5740   58.1050 C   0  0  0  0  0  0  0  0  0  0  0  0
  126.7860  122.9010   57.4600 C   0  0  0  0  0  0  0  0  0  0  0  0
  127.9390  122.5380   58.1530 C   0  0  0  0  0  0  0  0  0  0  0  0
  128.0570  122.8510   59.5050 C   0  0  0  0  0  0  0  0  0  0  0  0
  130.3940  125.0410   63.2480 C   0  0  1  0  0  0  0  0  0  0  0  0
  130.1590  126.1120   62.3360 O   0  0  0  0  0  0  0  0  0  0  0  0
  129.6300  125.7390   61.0690 C   0  0  0  0  0  0  0  0  0  0  0  0
  130.7550  125.6270   60.0500 C   0  0  0  0  0  0  0  0  0  0  0  0
  131.0220  126.6970   59.1910 C   0  0  0  0  0  0  0  0  0  0  0  0
  132.0430  126.5980   58.2500 C   0  0  0  0  0  0  0  0  0  0  0  0
  132.7930  125.4260   58.1660 C   0  0  0  0  0  0  0  0  0  0  0  0
  132.5290  124.3530   59.0120 C   0  0  0  0  0  0  0  0  0  0  0  0
  131.5070  124.4510   59.9530 C   0  0  0  0  0  0  0  0  0  0  0  0
  130.7440  125.6590   64.5900 C   0  0  2  0  0  0  0  0  0  0  0  0
  132.1190  126.0330   64.6270 O   0  0  0  0  0  0  0  0  0  0  0  0
  133.0300  124.9980   64.9790 C   0  0  0  0  0  0  0  0  0  0  0  0
  133.3710  124.1680   63.7510 C   0  0  0  0  0  0  0  0  0  0  0  0
  132.9020  122.8550   63.6370 C   0  0  0  0  0  0  0  0  0  0  0  0
  133.2090  122.1030   62.5060 C   0  0  0  0  0  0  0  0  0  0  0  0
  133.9800  122.6650   61.4910 C   0  0  0  0  0  0  0  0  0  0  0  0
  134.4460  123.9730   61.5940 C   0  0  0  0  0  0  0  0  0  0  0  0
  134.1400  124.7270   62.7250 C   0  0  0  0  0  0  0  0  0  0  0  0
  129.5110  126.7060   68.2940 C   0  0  0  0  0  0  0  0  0  0  0  0
  130.6670  127.3570   68.7530 C   0  0  0  0  0  0  0  0  0  0  0  0
  130.7120  127.8980   70.0350 C   0  0  0  0  0  0  0  0  0  0  0  0
  129.6070  127.8030   70.8910 C   0  0  0  0  0  0  0  0  0  0  0  0
  129.6570  128.3810   72.2550 N   0  0  0  0  0  0  0  0  0  0  0  0
  128.8010  128.0450   73.0690 O   0  0  0  0  0  0  0  0  0  0  0  0
  130.5530  129.1760   72.5250 O   0  0  0  0  0  0  0  0  0  0  0  0
  128.4550  127.1510   70.4330 C   0  0  0  0  0  0  0  0  0  0  0  0
  128.4070  126.6090   69.1520 C   0  0  0  0  0  0  0  0  0  0  0  0
  1  2  2  0
  2  3  1  0
  4  3  1  1
  4  5  1  0
  5  6  1  0
  6  7  1  6
  7  8  1  0
  8  9  1  0
  9 10  1  0
 10 11  2  0
 11 12  1  0
 12 13  2  0
 13 14  1  0
 14 15  2  0
  6 16  1  0
 16 17  1  6
 17 18  1  0
 18 19  1  0
 19 20  2  0
 20 21  1  0
 21 22  2  0
 22 23  1  0
 23 24  2  0
 16 25  1  0
 25 26  1  6
 26 27  1  0
 27 28  1  0
 28 29  2  0
 29 30  1  0
 30 31  2  0
 31 32  1  0
 32 33  2  0
  2 34  1  0
 34 35  2  0
 35 36  1  0
 36 37  2  0
 37 38  1  0
 38 39  2  0
 38 40  1  0
 37 41  1  0
 41 42  2  0
 25  4  1  0
 33 28  1  0
 42 34  1  0
 15 10  1  0
 24 19  1  0
M  CHG  2  38   1  40  -1
M  END
>  <Binding energies>  (55) 
[-9.5]

>  <Ligand effiencies>  (55) 
[-0.2261904761904762]

>  <Interactions>  (55) 
["V-B:HIS:456:CE1:9041, V-B:GLU:543:CD:9880, V-A:TYR:484:CE2:4346, V-B:GLU:543:CG:9879, V-B:HIS:456:CD2:9039, V-B:GLU:543:C:9874, V-A:GLU:543:CD:4908, V-A:HIS:456:CE1:4070, V-A:GLU:543:CB:4906, V-A:TYR:484:CZ:4347, V-B:GLU:543:CB:9878, V-B:GLU:543:CA:9876, V-B:TYR:539:CD2:9846, V-B:TYR:539:CE2:9848, V-A:GLY:454:CA:4049, V-B:PRO:540:CA:9855, V-A:LEU:475:CD2:4259, V-B:PRO:540:CD:9859, V-B:PRO:540:CB:9857, V-B:PRO:540:N:9856, V-B:TYR:539:C:9839, V-A:ILE:369:CG2:3237, V-A:ILE:369:CD1:3239, V-A:GLU:543:C:4902, V-A:GLY:544:C:4912, V-B:ALA:541:CB:9864, V-B:TYR:539:CG:9844, V-B:TYR:539:CZ:9849, H-B:ALA:541:N:9863, H-A:LYS:547:NZ:4951, V-A:ASP:366:CB:3212, V-A:ASP:366:CG:3213, V-A:ASP:366:CA:3210, V-A:GLY:453:CA:4044, H-A:TYR:484:OH:4348, V-A:ASP:366:C:3208, H-A:ARG:545:NE:4924, V-A:ARG:545:CZ:4926, H-A:ARG:545:NH2:4928"]

$$$$
RR8_B_Rahimova_2017
     RDKit          3D

 42 46  0  0  0  0  0  0  0  0999 V2000
  128.4750  127.8520   62.6740 O   0  0  0  0  0  0  0  0  0  0  0  0
  128.9870  126.9670   63.3680 C   0  0  0  0  0  0  0  0  0  0  0  0
  129.5170  125.8080   62.8730 O   0  0  0  0  0  0  0  0  0  0  0  0
  128.6660  124.6980   62.7240 C   0  0  2  0  0  0  0  0  0  0  0  0
  129.0070  123.6580   63.5970 O   0  0  0  0  0  0  0  0  0  0  0  0
  129.9230  122.7470   62.9900 C   0  0  2  0  0  0  0  0  0  0  0  0
  131.2040  122.6670   63.8390 C   0  0  0  0  0  0  0  0  0  0  0  0
  131.5240  123.9640   64.3260 O   0  0  0  0  0  0  0  0  0  0  0  0
  132.8340  124.4150   64.0140 C   0  0  0  0  0  0  0  0  0  0  0  0
  133.0030  124.4550   62.5020 C   0  0  0  0  0  0  0  0  0  0  0  0
  133.8130  123.5070   61.8690 C   0  0  0  0  0  0  0  0  0  0  0  0
  133.9910  123.5530   60.4890 C   0  0  0  0  0  0  0  0  0  0  0  0
  133.3560  124.5460   59.7460 C   0  0  0  0  0  0  0  0  0  0  0  0
  132.5420  125.4900   60.3690 C   0  0  0  0  0  0  0  0  0  0  0  0
  132.3670  125.4460   61.7500 C   0  0  0  0  0  0  0  0  0  0  0  0
  130.1060  123.2860   61.5670 C   0  0  1  0  0  0  0  0  0  0  0  0
  130.2590  122.1970   60.6520 O   0  0  0  0  0  0  0  0  0  0  0  0
  131.3170  121.2710   60.9130 C   0  0  0  0  0  0  0  0  0  0  0  0
  130.8350  119.8230   60.8960 C   0  0  0  0  0  0  0  0  0  0  0  0
  131.3880  118.9120   59.9910 C   0  0  0  0  0  0  0  0  0  0  0  0
  130.9690  117.5840   60.0000 C   0  0  0  0  0  0  0  0  0  0  0  0
  129.9970  117.1730   60.9100 C   0  0  0  0  0  0  0  0  0  0  0  0
  129.4390  118.0770   61.8110 C   0  0  0  0  0  0  0  0  0  0  0  0
  129.8600  119.4050   61.8050 C   0  0  0  0  0  0  0  0  0  0  0  0
  128.8420  124.1040   61.3280 C   0  0  2  0  0  0  0  0  0  0  0  0
  129.0650  125.0780   60.3120 O   0  0  0  0  0  0  0  0  0  0  0  0
  129.3010  124.5650   59.0100 C   0  0  0  0  0  0  0  0  0  0  0  0
  127.9850  124.0430   58.4590 C   0  0  0  0  0  0  0  0  0  0  0  0
  127.9620  122.9110   57.6400 C   0  0  0  0  0  0  0  0  0  0  0  0
  126.7510  122.4530   57.1250 C   0  0  0  0  0  0  0  0  0  0  0  0
  125.5710  123.1280   57.4300 C   0  0  0  0  0  0  0  0  0  0  0  0
  125.5880  124.2570   58.2470 C   0  0  0  0  0  0  0  0  0  0  0  0
  126.7970  124.7150   58.7620 C   0  0  0  0  0  0  0  0  0  0  0  0
  129.0600  127.0370   64.8660 C   0  0  0  0  0  0  0  0  0  0  0  0
  129.7400  126.0680   65.6190 C   0  0  0  0  0  0  0  0  0  0  0  0
  129.7840  126.1530   67.0060 C   0  0  0  0  0  0  0  0  0  0  0  0
  129.1420  127.2010   67.6770 C   0  0  0  0  0  0  0  0  0  0  0  0
  129.1680  127.2760   69.1580 N   0  0  0  0  0  0  0  0  0  0  0  0
  130.1850  127.6880   69.7090 O   0  0  0  0  0  0  0  0  0  0  0  0
  128.1680  126.9270   69.7820 O   0  0  0  0  0  0  0  0  0  0  0  0
  128.4680  128.1720   66.9240 C   0  0  0  0  0  0  0  0  0  0  0  0
  128.4300  128.0920   65.5360 C   0  0  0  0  0  0  0  0  0  0  0  0
  1  2  2  0
  2  3  1  0
  4  3  1  6
  4  5  1  0
  5  6  1  0
  6  7  1  1
  7  8  1  0
  8  9  1  0
  9 10  1  0
 10 11  2  0
 11 12  1  0
 12 13  2  0
 13 14  1  0
 14 15  2  0
  6 16  1  0
 16 17  1  6
 17 18  1  0
 18 19  1  0
 19 20  2  0
 20 21  1  0
 21 22  2  0
 22 23  1  0
 23 24  2  0
 16 25  1  0
 25 26  1  6
 26 27  1  0
 27 28  1  0
 28 29  2  0
 29 30  1  0
 30 31  2  0
 31 32  1  0
 32 33  2  0
  2 34  1  0
 34 35  2  0
 35 36  1  0
 36 37  2  0
 37 38  1  0
 38 39  2  0
 38 40  1  0
 37 41  1  0
 41 42  2  0
 25  4  1  0
 33 28  1  0
 42 34  1  0
 15 10  1  0
 24 19  1  0
M  CHG  2  38   1  40  -1
M  END
>  <Binding energies>  (56) 
[-8.2]

>  <Ligand effiencies>  (56) 
[-0.1952380952380952]

>  <Interactions>  (56) 
["V-A:GLU:543:CG:4907, V-B:GLU:543:CD:9880, V-B:GLU:543:CG:9879, V-A:GLU:543:CD:4908, V-A:HIS:456:CE1:4070, V-A:GLU:543:CB:4906, V-B:GLU:543:CB:9878, V-B:TYR:539:CD2:9846, V-B:TYR:539:CE2:9848, V-B:PRO:540:CA:9855, V-A:LEU:475:CD2:4259, V-B:PRO:540:CD:9859, V-B:PRO:540:CB:9857, V-B:PRO:540:N:9856, V-B:TYR:539:C:9839, V-A:ILE:369:CG2:3237, V-A:ILE:369:CD1:3239, V-B:ALA:541:CB:9864, V-B:PRO:540:C:9853, V-B:LEU:363:CD1:8160, V-B:TYR:539:CG:9844, V-B:TYR:539:CD1:9845, V-B:TYR:539:CE1:9847, V-B:TYR:539:CZ:9849, V-A:ASP:366:CB:3212, V-A:ASP:366:CG:3213, V-A:ASP:366:CA:3210, V-A:ILE:369:CB:3236, H-A:TYR:484:OH:4348, V-A:ARG:545:CZ:4926, V-B:TYR:539:CB:9843, V-A:LEU:475:CD1:4258, V-A:LEU:475:CG:4257, V-A:HIS:383:CD2:3392, V-A:HIS:383:NE2:3394, V-A:PRO:482:CG:4327, V-A:PRO:482:CB:4326, V-A:HIS:383:CE1:3393"]

$$$$
RR9_Rahimova_2017
     RDKit          3D

 36 40  0  0  0  0  0  0  0  0999 V2000
  130.6200  125.4460   74.7590 C   0  0  0  0  0  0  0  0  0  0  0  0
  130.4860  126.9680   74.8670 C   0  0  0  0  0  0  0  0  0  0  0  0
  129.2460  127.3610   74.2880 O   0  0  0  0  0  0  0  0  0  0  0  0
  129.0990  127.3310   72.9150 C   0  0  0  0  0  0  0  0  0  0  0  0
  130.2060  127.7120   72.1600 C   0  0  0  0  0  0  0  0  0  0  0  0
  130.1500  127.7150   70.7700 C   0  0  0  0  0  0  0  0  0  0  0  0
  128.9810  127.3340   70.0940 C   0  0  0  0  0  0  0  0  0  0  0  0
  128.9140  127.3400   68.5950 C   0  0  0  0  0  0  0  0  0  0  0  0
  129.5700  126.3670   67.8250 C   0  0  0  0  0  0  0  0  0  0  0  0
  129.4930  126.3680   66.4210 C   0  0  0  0  0  0  0  0  0  0  0  0
  130.1340  125.2410   65.6580 C   0  0  0  0  0  0  0  0  0  0  0  0
  129.5140  124.1980   65.4510 O   0  0  0  0  0  0  0  0  0  0  0  0
  131.4030  125.4520   65.2580 N   0  0  0  0  0  0  0  0  0  0  0  0
  132.2780  124.4640   64.6180 C   0  0  0  0  0  0  0  0  0  0  0  0
  133.1850  125.0760   63.5250 C   0  0  0  0  0  0  0  0  0  0  0  0
  133.1630  124.3370   62.1920 C   0  0  0  0  0  0  0  0  0  0  0  0
  132.9240  125.0370   61.0050 C   0  0  0  0  0  0  0  0  0  0  0  0
  132.9390  124.3650   59.7860 C   0  0  0  0  0  0  0  0  0  0  0  0
  133.1880  122.9950   59.7570 C   0  0  0  0  0  0  0  0  0  0  0  0
  133.4220  122.2890   60.9360 C   0  0  0  0  0  0  0  0  0  0  0  0
  133.4090  122.9620   62.1560 C   0  0  0  0  0  0  0  0  0  0  0  0
  128.7480  127.4210   65.8350 C   0  0  0  0  0  0  0  0  0  0  0  0
  128.3940  127.9010   64.5200 C   0  0  0  0  0  0  0  0  0  0  0  0
  128.8240  127.4020   63.1810 C   0  0  0  0  0  0  0  0  0  0  0  0
  129.1320  128.3050   62.1580 C   0  0  0  0  0  0  0  0  0  0  0  0
  129.5170  127.8370   60.9050 C   0  0  0  0  0  0  0  0  0  0  0  0
  129.6000  126.4630   60.6700 C   0  0  0  0  0  0  0  0  0  0  0  0
  130.0030  125.9530   59.2980 C   0  0  0  0  0  0  0  0  0  0  0  0
  129.2920  125.5590   61.6870 C   0  0  0  0  0  0  0  0  0  0  0  0
  128.9100  126.0280   62.9400 C   0  0  0  0  0  0  0  0  0  0  0  0
  127.5940  128.9400   64.6080 N   0  0  0  0  0  0  0  0  0  0  0  0
  127.4320  129.2280   65.9100 N   0  0  0  0  0  0  0  0  0  0  0  0
  128.1210  128.3440   66.7060 C   0  0  0  0  0  0  0  0  0  0  0  0
  128.1810  128.3440   68.0370 N   0  0  0  0  0  0  0  0  0  0  0  0
  127.8710  126.9540   70.8600 C   0  0  0  0  0  0  0  0  0  0  0  0
  127.9240  126.9490   72.2520 C   0  0  0  0  0  0  0  0  0  0  0  0
  1  2  1  0
  2  3  1  0
  3  4  1  0
  4  5  2  0
  5  6  1  0
  6  7  2  0
  7  8  1  0
  8  9  2  0
  9 10  1  0
 10 11  1  0
 11 12  2  0
 11 13  1  0
 13 14  1  0
 14 15  1  0
 15 16  1  0
 16 17  2  0
 17 18  1  0
 18 19  2  0
 19 20  1  0
 20 21  2  0
 10 22  2  0
 22 23  1  0
 23 24  1  0
 24 25  2  0
 25 26  1  0
 26 27  2  0
 27 28  1  0
 27 29  1  0
 29 30  2  0
 23 31  2  0
 31 32  1  0
 32 33  1  0
 33 34  2  0
  7 35  1  0
 35 36  2  0
 36  4  1  0
 34  8  1  0
 21 16  1  0
 33 22  1  0
 30 24  1  0
M  END
>  <Binding energies>  (57) 
[-8.47]

>  <Ligand effiencies>  (57) 
[-0.22289473684210528]

>  <Interactions>  (57) 
["V-B:HIS:456:CE1:9041, V-A:HIS:456:CD2:4068, V-A:GLU:543:CG:4907, V-B:GLU:543:CD:9880, V-B:GLU:543:CG:9879, H-B:TYR:484:OH:9319, V-B:GLU:543:C:9874, V-A:GLU:543:CD:4908, V-A:HIS:456:CE1:4070, V-A:GLU:543:CB:4906, V-B:GLY:544:C:9884, V-B:GLU:543:CB:9878, V-B:TYR:539:CE2:9848, V-A:ILE:369:CG2:3237, V-A:ILE:369:CD1:3239, H-B:LYS:547:NZ:9923, H-A:LYS:547:NZ:4951, V-A:ASP:366:CG:3213, H-A:GLU:543:OE2:4910, V-A:ARG:545:CZ:4926, H-A:GLU:543:OE1:4909, H-B:GLU:543:OE2:9882"]

$$$$
