1a_Grossjean_2025
     RDKit          3D

 26 27  0  0  0  0  0  0  0  0999 V2000
  129.2190  132.2510   72.9070 C   0  0  0  0  0  0  0  0  0  0  0  0
  129.1090  130.9790   73.7530 C   0  0  0  0  0  0  0  0  0  0  0  0
  129.8130  129.9220   73.1130 O   0  0  0  0  0  0  0  0  0  0  0  0
  129.2070  128.7340   72.8510 C   0  0  0  0  0  0  0  0  0  0  0  0
  128.4770  128.1510   73.6580 O   0  0  0  0  0  0  0  0  0  0  0  0
  129.5260  128.1940   71.4870 C   0  0  0  0  0  0  0  0  0  0  0  0
  128.5180  127.5590   70.7500 C   0  0  0  0  0  0  0  0  0  0  0  0
  128.7830  127.0440   69.4850 C   0  0  0  0  0  0  0  0  0  0  0  0
  130.0590  127.1500   68.9300 C   0  0  0  0  0  0  0  0  0  0  0  0
  130.2160  126.5920   67.6460 N   0  0  0  0  0  0  0  0  0  0  0  0
  129.9630  125.3410   67.2070 C   0  0  0  0  0  0  0  0  0  0  0  0
  129.5240  124.4170   67.8930 O   0  0  0  0  0  0  0  0  0  0  0  0
  130.2600  125.0930   65.7270 C   0  0  0  0  0  0  0  0  0  0  0  0
  130.1750  123.3290   65.2970 S   0  0  0  0  0  0  0  0  0  0  0  0
  130.8590  123.1440   63.6650 C   0  0  0  0  0  0  0  0  0  0  0  0
  130.0000  122.5950   62.7700 N   0  0  0  0  0  0  0  0  0  0  0  0
  130.4200  122.4030   61.4970 C   0  0  0  0  0  0  0  0  0  0  0  0
  129.4090  121.7730   60.5570 C   0  0  0  0  0  0  0  0  0  0  0  0
  131.6960  122.7570   61.0660 C   0  0  0  0  0  0  0  0  0  0  0  0
  132.5830  123.3430   61.9750 C   0  0  0  0  0  0  0  0  0  0  0  0
  133.9720  123.7370   61.4750 C   0  0  0  0  0  0  0  0  0  0  0  0
  132.1650  123.5560   63.3090 C   0  0  0  0  0  0  0  0  0  0  0  0
  133.0600  124.2120   64.2670 C   0  0  0  0  0  0  0  0  0  0  0  0
  133.7680  124.7310   65.0200 N   0  0  0  0  0  0  0  0  0  0  0  0
  131.0730  127.7910   69.6580 C   0  0  0  0  0  0  0  0  0  0  0  0
  130.8070  128.3060   70.9240 C   0  0  0  0  0  0  0  0  0  0  0  0
  1  2  1  0
  2  3  1  0
  3  4  1  0
  4  5  2  0
  4  6  1  0
  6  7  2  0
  7  8  1  0
  8  9  2  0
  9 10  1  0
 10 11  1  0
 11 12  2  0
 11 13  1  0
 13 14  1  0
 14 15  1  0
 15 16  2  0
 16 17  1  0
 17 18  1  0
 17 19  2  0
 19 20  1  0
 20 21  1  0
 20 22  2  0
 22 23  1  0
 23 24  3  0
  9 25  1  0
 25 26  2  0
 26  6  1  0
 22 15  1  0
M  END
>  <Binding energies>  (1) 
[-7.87]

>  <Ligand effiencies>  (1) 
[-0.2914814814814815]

>  <Interactions>  (1) 
["V-B:HIS:456:CE1:9041, V-A:TYR:484:CE2:4346, V-B:GLU:543:CG:9879, V-B:HIS:456:CD2:9039, V-A:GLU:543:CD:4908, V-A:HIS:456:CE1:4070, V-A:GLU:543:CB:4906, V-B:GLU:543:CB:9878, V-B:TYR:539:CD2:9846, V-B:TYR:539:CE2:9848, V-A:GLY:454:CA:4049, V-B:PRO:540:CA:9855, V-A:LEU:475:CD2:4259, V-B:TYR:539:C:9839, V-A:ILE:369:CD1:3239, H-B:LYS:547:NZ:9923, V-A:GLU:543:C:4902, V-A:GLY:544:C:4912, H-A:LYS:547:NZ:4951, H-A:TYR:484:OH:4348, H-A:GLU:543:OE2:4910, H-A:GLY:454:N:4050, H-A:ARG:545:NE:4924, H-A:ARG:545:NH2:4928, H-A:GLU:543:OE1:4909, V-A:LYS:547:CE:4950, V-A:GLY:544:CA:4914, V-B:TYR:484:CB:9312"]

$$$$
1aa_Ghoteimi_2023
     RDKit          3D

 40 43  0  0  0  0  0  0  0  0999 V2000
  132.0480  127.4380   58.1880 C   0  0  0  0  0  0  0  0  0  0  0  0
  131.9870  126.1980   57.2910 C   0  0  0  0  0  0  0  0  0  0  0  0
  133.2200  125.4930   57.3740 O   0  0  0  0  0  0  0  0  0  0  0  0
  133.3690  124.4380   58.2150 C   0  0  0  0  0  0  0  0  0  0  0  0
  133.8210  123.3440   57.8610 O   0  0  0  0  0  0  0  0  0  0  0  0
  132.9300  124.7320   59.6210 C   0  0  0  0  0  0  0  0  0  0  0  0
  131.5920  125.0110   59.9370 C   0  0  0  0  0  0  0  0  0  0  0  0
  131.2130  125.2800   61.2510 C   0  0  0  0  0  0  0  0  0  0  0  0
  132.1720  125.2700   62.2750 C   0  0  0  0  0  0  0  0  0  0  0  0
  131.9070  125.5260   63.6330 N   0  0  0  0  0  0  0  0  0  0  0  0
  132.1720  124.7840   64.7330 C   0  0  0  0  0  0  0  0  0  0  0  0
  132.7310  123.6880   64.7240 O   0  0  0  0  0  0  0  0  0  0  0  0
  131.7400  125.3600   66.0910 C   0  0  0  0  0  0  0  0  0  0  0  0
  130.3250  125.2180   66.2690 O   0  0  0  0  0  0  0  0  0  0  0  0
  129.5620  126.2920   66.7070 C   0  0  0  0  0  0  0  0  0  0  0  0
  129.3880  126.4490   68.0490 N   0  0  0  0  0  0  0  0  0  0  0  0
  128.6360  127.4800   68.5160 C   0  0  0  0  0  0  0  0  0  0  0  0
  128.4950  127.5850   70.0080 C   0  0  0  0  0  0  0  0  0  0  0  0
  127.4260  126.9720   70.6770 C   0  0  0  0  0  0  0  0  0  0  0  0
  127.2920  127.0700   72.0590 C   0  0  0  0  0  0  0  0  0  0  0  0
  128.2220  127.7810   72.8150 C   0  0  0  0  0  0  0  0  0  0  0  0
  128.0080  127.8250   74.1790 O   0  0  0  0  0  0  0  0  0  0  0  0
  129.1030  128.1050   75.0450 C   0  0  0  0  0  0  0  0  0  0  0  0
  129.2990  128.3950   72.1610 C   0  0  0  0  0  0  0  0  0  0  0  0
  129.4300  128.2950   70.7790 C   0  0  0  0  0  0  0  0  0  0  0  0
  128.0520  128.3960   67.6320 C   0  0  0  0  0  0  0  0  0  0  0  0
  128.2250  128.2630   66.2480 C   0  0  0  0  0  0  0  0  0  0  0  0
  127.5850  129.2780   65.3590 C   0  0  0  0  0  0  0  0  0  0  0  0
  128.3590  130.2820   64.7680 C   0  0  0  0  0  0  0  0  0  0  0  0
  127.7720  131.2260   63.9300 C   0  0  0  0  0  0  0  0  0  0  0  0
  126.4040  131.1840   63.6610 C   0  0  0  0  0  0  0  0  0  0  0  0
  125.9100  132.1610   62.8190 O   0  0  0  0  0  0  0  0  0  0  0  0
  126.8170  133.0520   62.1810 C   0  0  0  0  0  0  0  0  0  0  0  0
  125.6260  130.1740   64.2460 C   0  0  0  0  0  0  0  0  0  0  0  0
  126.2140  129.2310   65.0840 C   0  0  0  0  0  0  0  0  0  0  0  0
  128.9940  127.1750   65.7730 C   0  0  0  0  0  0  0  0  0  0  0  0
  129.1920  126.9290   64.3440 C   0  0  0  0  0  0  0  0  0  0  0  0
  129.3500  126.7340   63.2140 N   0  0  0  0  0  0  0  0  0  0  0  0
  133.5040  124.9940   61.9630 C   0  0  0  0  0  0  0  0  0  0  0  0
  133.8800  124.7270   60.6500 C   0  0  0  0  0  0  0  0  0  0  0  0
  1  2  1  0
  2  3  1  0
  3  4  1  0
  4  5  2  0
  4  6  1  0
  6  7  2  0
  7  8  1  0
  8  9  2  0
  9 10  1  0
 10 11  1  0
 11 12  2  0
 11 13  1  0
 13 14  1  0
 14 15  1  0
 15 16  2  0
 16 17  1  0
 17 18  1  0
 18 19  2  0
 19 20  1  0
 20 21  2  0
 21 22  1  0
 22 23  1  0
 21 24  1  0
 24 25  2  0
 17 26  2  0
 26 27  1  0
 27 28  1  0
 28 29  2  0
 29 30  1  0
 30 31  2  0
 31 32  1  0
 32 33  1  0
 31 34  1  0
 34 35  2  0
 27 36  2  0
 36 37  1  0
 37 38  3  0
  9 39  1  0
 39 40  2  0
 40  6  1  0
 36 15  1  0
 25 18  1  0
 35 28  1  0
M  END
>  <Binding energies>  (2) 
[-7.27]

>  <Ligand effiencies>  (2) 
[-0.1773170731707317]

>  <Interactions>  (2) 
["V-B:HIS:456:CE1:9041, V-A:GLU:543:CG:4907, V-B:GLU:543:CD:9880, V-B:GLU:543:CG:9879, V-B:HIS:456:CD2:9039, V-B:GLU:543:C:9874, V-A:GLU:543:CD:4908, V-B:HIS:456:CG:9037, V-A:HIS:456:CE1:4070, V-A:GLU:543:CB:4906, V-B:GLY:544:C:9884, V-B:LEU:475:CD2:9230, V-A:TYR:484:CZ:4347, V-B:GLU:543:CB:9878, V-B:LYS:547:CE:9922, V-B:TYR:539:CE2:9848, V-A:ILE:369:CG2:3237, V-A:ILE:369:CD1:3239, H-B:LYS:547:NZ:9923, V-A:GLU:543:C:4902, H-B:TYR:539:OH:9850, V-B:TYR:539:CZ:9849, V-A:ASP:366:CB:3212, H-A:TYR:531:OH:4795, V-A:ASP:366:CG:3213, V-A:ASP:366:CA:3210, H-A:TYR:484:OH:4348, H-A:GLU:543:OE2:4910, V-A:ASP:366:C:3208, H-A:ASN:370:N:3244, H-A:GLY:454:N:4050, V-A:ARG:545:CZ:4926, V-A:TYR:531:CZ:4794, H-A:GLU:543:OE1:4909, V-B:GLY:544:CA:9886"]

$$$$
1b_Grossjean_2025
     RDKit          3D

 25 26  0  0  0  0  0  0  0  0999 V2000
  129.4170  130.9780   73.2710 C   0  0  0  0  0  0  0  0  0  0  0  0
  129.8570  129.6270   73.2660 O   0  0  0  0  0  0  0  0  0  0  0  0
  129.0280  128.6240   72.8790 C   0  0  0  0  0  0  0  0  0  0  0  0
  128.1030  128.1980   73.5780 O   0  0  0  0  0  0  0  0  0  0  0  0
  129.3420  128.0880   71.5120 C   0  0  0  0  0  0  0  0  0  0  0  0
  128.4030  127.3600   70.7650 C   0  0  0  0  0  0  0  0  0  0  0  0
  128.7260  126.8770   69.5020 C   0  0  0  0  0  0  0  0  0  0  0  0
  129.9890  127.1080   68.9560 C   0  0  0  0  0  0  0  0  0  0  0  0
  130.2060  126.5710   67.6730 N   0  0  0  0  0  0  0  0  0  0  0  0
  130.0160  125.3160   67.2110 C   0  0  0  0  0  0  0  0  0  0  0  0
  129.5910  124.3680   67.8700 O   0  0  0  0  0  0  0  0  0  0  0  0
  130.3620  125.1010   65.7370 C   0  0  0  0  0  0  0  0  0  0  0  0
  130.2320  123.3550   65.2490 S   0  0  0  0  0  0  0  0  0  0  0  0
  130.9030  123.2110   63.6060 C   0  0  0  0  0  0  0  0  0  0  0  0
  130.0700  122.6000   62.7270 N   0  0  0  0  0  0  0  0  0  0  0  0
  130.4800  122.4390   61.4470 C   0  0  0  0  0  0  0  0  0  0  0  0
  129.4900  121.7620   60.5170 C   0  0  0  0  0  0  0  0  0  0  0  0
  131.7280  122.8660   60.9990 C   0  0  0  0  0  0  0  0  0  0  0  0
  132.6030  123.4770   61.9030 C   0  0  0  0  0  0  0  0  0  0  0  0
  133.9720  123.9210   61.3920 C   0  0  0  0  0  0  0  0  0  0  0  0
  132.1960  123.6550   63.2450 C   0  0  0  0  0  0  0  0  0  0  0  0
  133.1120  124.2520   64.2200 C   0  0  0  0  0  0  0  0  0  0  0  0
  133.8380  124.7240   64.9880 N   0  0  0  0  0  0  0  0  0  0  0  0
  130.9340  127.8350   69.6960 C   0  0  0  0  0  0  0  0  0  0  0  0
  130.6090  128.3190   70.9600 C   0  0  0  0  0  0  0  0  0  0  0  0
  1  2  1  0
  2  3  1  0
  3  4  2  0
  3  5  1  0
  5  6  2  0
  6  7  1  0
  7  8  2  0
  8  9  1  0
  9 10  1  0
 10 11  2  0
 10 12  1  0
 12 13  1  0
 13 14  1  0
 14 15  2  0
 15 16  1  0
 16 17  1  0
 16 18  2  0
 18 19  1  0
 19 20  1  0
 19 21  2  0
 21 22  1  0
 22 23  3  0
  8 24  1  0
 24 25  2  0
 25  5  1  0
 21 14  1  0
M  END
>  <Binding energies>  (3) 
[-7.91]

>  <Ligand effiencies>  (3) 
[-0.30423076923076925]

>  <Interactions>  (3) 
["V-B:HIS:456:CE1:9041, V-A:TYR:484:CE2:4346, V-B:GLU:543:CG:9879, V-B:HIS:456:CD2:9039, V-B:GLU:543:C:9874, V-A:GLU:543:CD:4908, V-A:HIS:456:CE1:4070, V-A:GLU:543:CB:4906, V-B:GLU:543:CB:9878, V-B:TYR:539:CD2:9846, V-B:TYR:539:CE2:9848, V-A:GLY:454:CA:4049, V-A:LEU:475:CD2:4259, V-B:TYR:539:C:9839, V-A:ILE:369:CD1:3239, H-B:LYS:547:NZ:9923, V-A:GLU:543:C:4902, V-A:GLY:544:C:4912, H-A:LYS:547:NZ:4951, H-A:TYR:484:OH:4348, H-A:GLU:543:OE2:4910, H-A:GLY:454:N:4050, H-A:ARG:545:NE:4924, V-A:ARG:545:CZ:4926, H-A:ARG:545:NH2:4928, V-A:LYS:547:CE:4950, V-A:GLY:544:CA:4914"]

$$$$
1c_Grossjean_2025
     RDKit          3D

 23 24  0  0  0  0  0  0  0  0999 V2000
  128.6090  128.6570   73.5910 C   0  0  0  0  0  0  0  0  0  0  0  0
  129.8440  128.7800   72.8940 O   0  0  0  0  0  0  0  0  0  0  0  0
  129.9490  128.2690   71.6140 C   0  0  0  0  0  0  0  0  0  0  0  0
  128.7900  127.7190   71.0670 C   0  0  0  0  0  0  0  0  0  0  0  0
  128.7960  127.1810   69.7830 C   0  0  0  0  0  0  0  0  0  0  0  0
  129.9740  127.1930   69.0230 C   0  0  0  0  0  0  0  0  0  0  0  0
  130.0930  126.6680   67.7210 N   0  0  0  0  0  0  0  0  0  0  0  0
  129.8650  125.4120   67.2800 C   0  0  0  0  0  0  0  0  0  0  0  0
  129.4780  124.4710   67.9720 O   0  0  0  0  0  0  0  0  0  0  0  0
  130.1150  125.1870   65.7870 C   0  0  0  0  0  0  0  0  0  0  0  0
  130.0880  123.4210   65.3560 S   0  0  0  0  0  0  0  0  0  0  0  0
  130.7450  123.2350   63.7110 C   0  0  0  0  0  0  0  0  0  0  0  0
  129.8940  122.6120   62.8570 N   0  0  0  0  0  0  0  0  0  0  0  0
  130.2850  122.4130   61.5760 C   0  0  0  0  0  0  0  0  0  0  0  0
  129.2760  121.7200   60.6790 C   0  0  0  0  0  0  0  0  0  0  0  0
  131.5310  122.8120   61.1010 C   0  0  0  0  0  0  0  0  0  0  0  0
  132.4260  123.4330   61.9770 C   0  0  0  0  0  0  0  0  0  0  0  0
  133.7940  123.8460   61.4370 C   0  0  0  0  0  0  0  0  0  0  0  0
  132.0410  123.6500   63.3210 C   0  0  0  0  0  0  0  0  0  0  0  0
  132.9850  124.2490   64.2680 C   0  0  0  0  0  0  0  0  0  0  0  0
  133.7310  124.7220   65.0140 N   0  0  0  0  0  0  0  0  0  0  0  0
  131.1390  127.7330   69.5710 C   0  0  0  0  0  0  0  0  0  0  0  0
  131.1300  128.2700   70.8550 C   0  0  0  0  0  0  0  0  0  0  0  0
  1  2  1  0
  2  3  1  0
  3  4  2  0
  4  5  1  0
  5  6  2  0
  6  7  1  0
  7  8  1  0
  8  9  2  0
  8 10  1  0
 10 11  1  0
 11 12  1  0
 12 13  2  0
 13 14  1  0
 14 15  1  0
 14 16  2  0
 16 17  1  0
 17 18  1  0
 17 19  2  0
 19 20  1  0
 20 21  3  0
  6 22  1  0
 22 23  2  0
 23  3  1  0
 19 12  1  0
M  END
>  <Binding energies>  (4) 
[-7.15]

>  <Ligand effiencies>  (4) 
[-0.29791666666666666]

>  <Interactions>  (4) 
["V-B:HIS:456:CE1:9041, V-B:GLU:543:CD:9880, V-B:GLU:543:CG:9879, V-B:HIS:456:CD2:9039, V-A:GLU:543:CD:4908, V-A:HIS:456:CE1:4070, V-A:GLU:543:CB:4906, V-B:GLU:543:CB:9878, V-B:GLU:543:CA:9876, V-B:TYR:539:CD2:9846, V-B:TYR:539:CE2:9848, V-A:GLY:454:CA:4049, V-B:PRO:540:CA:9855, V-A:LEU:475:CD2:4259, V-B:TYR:539:C:9839, V-A:ILE:369:CD1:3239, V-A:GLU:543:C:4902, V-A:ARG:545:CG:4922, V-A:GLY:544:C:4912, H-A:LYS:547:NZ:4951, H-A:TYR:484:OH:4348, H-A:GLU:543:OE2:4910, H-A:GLY:454:N:4050, H-A:ARG:545:NE:4924, H-A:ARG:545:NH2:4928, V-A:GLY:544:CA:4914"]

$$$$
1d_Grossjean_2025
     RDKit          3D

 21 22  0  0  0  0  0  0  0  0999 V2000
  133.2070  131.3460   62.7530 C   0  0  0  0  0  0  0  0  0  0  0  0
  132.1660  131.6660   61.6990 C   0  0  0  0  0  0  0  0  0  0  0  0
  132.4150  131.4690   60.3420 C   0  0  0  0  0  0  0  0  0  0  0  0
  131.4120  131.7730   59.4150 C   0  0  0  0  0  0  0  0  0  0  0  0
  131.7030  131.5330   57.9350 C   0  0  0  0  0  0  0  0  0  0  0  0
  130.1760  132.2810   59.8760 C   0  0  0  0  0  0  0  0  0  0  0  0
  129.0950  132.5620   58.9280 C   0  0  0  0  0  0  0  0  0  0  0  0
  128.2430  132.7820   58.1760 N   0  0  0  0  0  0  0  0  0  0  0  0
  130.0190  132.4730   61.2690 C   0  0  0  0  0  0  0  0  0  0  0  0
  128.5350  133.1030   62.0200 S   0  0  0  0  0  0  0  0  0  0  0  0
  127.5450  131.6720   62.5490 C   0  0  0  0  0  0  0  0  0  0  0  0
  127.9790  131.1450   63.9170 C   0  0  0  0  0  0  0  0  0  0  0  0
  128.3570  131.9420   64.7760 O   0  0  0  0  0  0  0  0  0  0  0  0
  127.8830  129.8070   64.0780 N   0  0  0  0  0  0  0  0  0  0  0  0
  128.2110  129.0060   65.1880 C   0  0  0  0  0  0  0  0  0  0  0  0
  127.9680  129.5770   66.4400 C   0  0  0  0  0  0  0  0  0  0  0  0
  128.2510  128.8680   67.6030 C   0  0  0  0  0  0  0  0  0  0  0  0
  128.7730  127.5800   67.5170 C   0  0  0  0  0  0  0  0  0  0  0  0
  129.0120  126.9950   66.2750 C   0  0  0  0  0  0  0  0  0  0  0  0
  128.7310  127.7030   65.1100 C   0  0  0  0  0  0  0  0  0  0  0  0
  130.9910  132.1550   62.1620 N   0  0  0  0  0  0  0  0  0  0  0  0
  1  2  1  0
  2  3  2  0
  3  4  1  0
  4  5  1  0
  4  6  2  0
  6  7  1  0
  7  8  3  0
  6  9  1  0
  9 10  1  0
 10 11  1  0
 11 12  1  0
 12 13  2  0
 12 14  1  0
 14 15  1  0
 15 16  2  0
 16 17  1  0
 17 18  2  0
 18 19  1  0
 19 20  2  0
  9 21  2  0
 21  2  1  0
 20 15  1  0
M  END
>  <Binding energies>  (5) 
[-6.86]

>  <Ligand effiencies>  (5) 
[-0.3118181818181818]

>  <Interactions>  (5) 
["V-B:HIS:456:CE1:9041, V-A:GLU:543:CG:4907, V-B:GLU:543:CD:9880, V-B:GLU:543:CG:9879, H-B:TYR:484:OH:9319, V-B:TYR:484:CZ:9318, V-A:GLU:543:CD:4908, V-A:GLU:543:CB:4906, V-B:GLU:543:CB:9878, V-A:TYR:539:C:4867, V-A:PRO:540:N:4884, V-A:PRO:540:CA:4883, V-A:PRO:540:CB:4885, V-A:LEU:363:CD1:3189, V-A:ASN:362:CB:3176, V-B:TYR:484:CE2:9317, H-A:ALA:541:N:4891, V-A:PRO:540:C:4881, V-A:ASN:362:CG:3177"]

$$$$
1e_Grossjean_2025
     RDKit          3D

 22 23  0  0  0  0  0  0  0  0999 V2000
  127.2320  127.0040   71.5320 C   0  0  0  0  0  0  0  0  0  0  0  0
  128.5580  127.3200   70.8670 C   0  0  0  0  0  0  0  0  0  0  0  0
  129.5360  128.0830   71.5100 C   0  0  0  0  0  0  0  0  0  0  0  0
  130.7300  128.3360   70.8350 C   0  0  0  0  0  0  0  0  0  0  0  0
  130.9170  127.8270   69.5480 C   0  0  0  0  0  0  0  0  0  0  0  0
  129.8980  127.0660   68.9630 C   0  0  0  0  0  0  0  0  0  0  0  0
  130.1390  126.5910   67.6620 N   0  0  0  0  0  0  0  0  0  0  0  0
  129.9560  125.3450   67.1740 C   0  0  0  0  0  0  0  0  0  0  0  0
  129.5410  124.3850   67.8260 O   0  0  0  0  0  0  0  0  0  0  0  0
  130.3310  125.1430   65.7040 C   0  0  0  0  0  0  0  0  0  0  0  0
  130.2270  123.3970   65.2090 S   0  0  0  0  0  0  0  0  0  0  0  0
  130.9010  123.2280   63.5680 C   0  0  0  0  0  0  0  0  0  0  0  0
  130.0640  122.6000   62.7030 N   0  0  0  0  0  0  0  0  0  0  0  0
  130.4680  122.4110   61.4250 C   0  0  0  0  0  0  0  0  0  0  0  0
  129.4780  121.7100   60.5160 C   0  0  0  0  0  0  0  0  0  0  0  0
  131.7160  122.8240   60.9630 C   0  0  0  0  0  0  0  0  0  0  0  0
  132.5960  123.4500   61.8510 C   0  0  0  0  0  0  0  0  0  0  0  0
  133.9650  123.8780   61.3240 C   0  0  0  0  0  0  0  0  0  0  0  0
  132.1970  123.6550   63.1920 C   0  0  0  0  0  0  0  0  0  0  0  0
  133.1290  124.2560   64.1490 C   0  0  0  0  0  0  0  0  0  0  0  0
  133.8670  124.7310   64.9040 N   0  0  0  0  0  0  0  0  0  0  0  0
  128.7250  126.8190   69.6170 N   0  0  0  0  0  0  0  0  0  0  0  0
  1  2  1  0
  2  3  2  0
  3  4  1  0
  4  5  2  0
  5  6  1  0
  6  7  1  0
  7  8  1  0
  8  9  2  0
  8 10  1  0
 10 11  1  0
 11 12  1  0
 12 13  2  0
 13 14  1  0
 14 15  1  0
 14 16  2  0
 16 17  1  0
 17 18  1  0
 17 19  2  0
 19 20  1  0
 20 21  3  0
  6 22  2  0
 22  2  1  0
 19 12  1  0
M  END
>  <Binding energies>  (6) 
[-7.1]

>  <Ligand effiencies>  (6) 
[-0.30869565217391304]

>  <Interactions>  (6) 
["V-B:HIS:456:CE1:9041, V-A:TYR:484:CE2:4346, V-B:GLU:543:CG:9879, V-B:HIS:456:CD2:9039, V-A:GLU:543:CD:4908, V-B:HIS:456:CG:9037, V-A:HIS:456:CE1:4070, V-A:GLU:543:CB:4906, V-B:GLY:544:C:9884, V-B:GLU:543:CB:9878, V-B:TYR:539:CD2:9846, V-B:TYR:539:CE2:9848, V-A:GLY:454:CA:4049, V-B:PRO:540:CA:9855, V-A:LEU:475:CD2:4259, V-B:TYR:539:C:9839, V-A:ILE:369:CD1:3239, V-A:GLU:543:C:4902, V-A:GLY:544:C:4912, H-A:TYR:484:OH:4348, H-A:GLU:543:OE2:4910, H-A:GLY:454:N:4050, H-A:ARG:545:NE:4924, V-A:ARG:545:CZ:4926, H-A:ARG:545:NH2:4928, V-B:GLY:544:CA:9886, V-A:GLY:544:CA:4914"]

$$$$
1f_Grossjean_2025
     RDKit          3D

 21 22  0  0  0  0  0  0  0  0999 V2000
  129.9420  126.7780   59.7290 C   0  0  0  0  0  0  0  0  0  0  0  0
  130.7630  125.5110   59.8800 C   0  0  0  0  0  0  0  0  0  0  0  0
  131.9930  125.3580   59.2450 C   0  0  0  0  0  0  0  0  0  0  0  0
  132.6990  124.1620   59.4110 C   0  0  0  0  0  0  0  0  0  0  0  0
  134.0370  124.0110   58.6900 C   0  0  0  0  0  0  0  0  0  0  0  0
  132.1520  123.1430   60.2240 C   0  0  0  0  0  0  0  0  0  0  0  0
  132.8500  121.8620   60.3650 C   0  0  0  0  0  0  0  0  0  0  0  0
  133.4020  120.8520   60.4750 N   0  0  0  0  0  0  0  0  0  0  0  0
  130.9100  123.3950   60.8530 C   0  0  0  0  0  0  0  0  0  0  0  0
  130.0690  122.2340   61.9100 S   0  0  0  0  0  0  0  0  0  0  0  0
  128.4830  122.9730   62.4320 C   0  0  0  0  0  0  0  0  0  0  0  0
  127.3870  122.9760   61.3560 C   0  0  0  0  0  0  0  0  0  0  0  0
  126.1990  122.9000   61.6750 O   0  0  0  0  0  0  0  0  0  0  0  0
  127.8450  123.0420   60.0880 N   0  0  0  0  0  0  0  0  0  0  0  0
  127.1310  123.0710   58.8750 C   0  0  0  0  0  0  0  0  0  0  0  0
  126.0320  123.9050   58.5910 C   0  0  0  0  0  0  0  0  0  0  0  0
  125.4170  123.8330   57.3380 C   0  0  0  0  0  0  0  0  0  0  0  0
  125.9160  122.9320   56.3980 C   0  0  0  0  0  0  0  0  0  0  0  0
  126.9760  122.1220   56.6450 N   0  0  0  0  0  0  0  0  0  0  0  0
  127.5640  122.2030   57.8670 C   0  0  0  0  0  0  0  0  0  0  0  0
  130.2220  124.5500   60.6660 N   0  0  0  0  0  0  0  0  0  0  0  0
  1  2  1  0
  2  3  2  0
  3  4  1  0
  4  5  1  0
  4  6  2  0
  6  7  1  0
  7  8  3  0
  6  9  1  0
  9 10  1  0
 10 11  1  0
 11 12  1  0
 12 13  2  0
 12 14  1  0
 14 15  1  0
 15 16  2  0
 16 17  1  0
 17 18  2  0
 18 19  1  0
 19 20  2  0
  9 21  2  0
 21  2  1  0
 20 15  1  0
M  END
>  <Binding energies>  (7) 
[-6.24]

>  <Ligand effiencies>  (7) 
[-0.28363636363636363]

>  <Interactions>  (7) 
["V-B:GLU:543:CG:9879, V-B:TYR:539:CD2:9846, V-B:TYR:539:CE2:9848, V-B:PRO:540:CA:9855, V-B:PRO:540:CD:9859, V-B:PRO:540:CB:9857, V-B:PRO:540:N:9856, V-B:TYR:539:C:9839, V-A:ILE:369:CG2:3237, V-B:ALA:541:CB:9864, V-B:PRO:540:C:9853, V-B:LEU:363:CD1:8160, V-B:TYR:539:CG:9844, V-B:TYR:539:CD1:9845, V-B:MET:535:CE:9807, V-B:TYR:539:CZ:9849, H-B:ALA:541:N:9863, V-A:ASP:366:CB:3212, V-B:TYR:539:CA:9841, V-A:ASP:366:CG:3213, H-A:SER:385:OG:3410, V-A:ASP:366:CA:3210, V-A:ILE:369:CB:3236, V-A:ASP:366:C:3208, H-B:TYR:539:N:9842"]

$$$$
1g_Grossjean_2025
     RDKit          3D

 22 23  0  0  0  0  0  0  0  0999 V2000
  129.4180  121.7010   60.7410 C   0  0  0  0  0  0  0  0  0  0  0  0
  130.4460  122.4000   61.6100 C   0  0  0  0  0  0  0  0  0  0  0  0
  131.6770  122.8080   61.1000 C   0  0  0  0  0  0  0  0  0  0  0  0
  132.5920  123.4330   61.9520 C   0  0  0  0  0  0  0  0  0  0  0  0
  133.9420  123.8580   61.3740 C   0  0  0  0  0  0  0  0  0  0  0  0
  132.2450  123.6440   63.3060 C   0  0  0  0  0  0  0  0  0  0  0  0
  133.2070  124.2500   64.2290 C   0  0  0  0  0  0  0  0  0  0  0  0
  133.9700  124.7280   64.9570 N   0  0  0  0  0  0  0  0  0  0  0  0
  130.9630  123.2210   63.7310 C   0  0  0  0  0  0  0  0  0  0  0  0
  130.3590  123.4170   65.3930 S   0  0  0  0  0  0  0  0  0  0  0  0
  130.8240  125.0860   65.9430 C   0  0  0  0  0  0  0  0  0  0  0  0
  129.8550  125.6330   66.9930 C   0  0  0  0  0  0  0  0  0  0  0  0
  129.4920  124.9190   67.9280 O   0  0  0  0  0  0  0  0  0  0  0  0
  129.4430  126.9000   66.8190 N   0  0  0  0  0  0  0  0  0  0  0  0
  128.5670  127.6400   67.7270 C   0  0  0  0  0  0  0  0  0  0  0  0
  128.9920  127.5850   69.1920 C   0  0  0  0  0  0  0  0  0  0  0  0
  130.2320  128.1030   69.5800 C   0  0  0  0  0  0  0  0  0  0  0  0
  130.6190  128.0530   70.9160 C   0  0  0  0  0  0  0  0  0  0  0  0
  129.7630  127.4900   71.8620 C   0  0  0  0  0  0  0  0  0  0  0  0
  128.5250  126.9770   71.4830 C   0  0  0  0  0  0  0  0  0  0  0  0
  128.1370  127.0250   70.1460 C   0  0  0  0  0  0  0  0  0  0  0  0
  130.0900  122.5940   62.9020 N   0  0  0  0  0  0  0  0  0  0  0  0
  1  2  1  0
  2  3  2  0
  3  4  1  0
  4  5  1  0
  4  6  2  0
  6  7  1  0
  7  8  3  0
  6  9  1  0
  9 10  1  0
 10 11  1  0
 11 12  1  0
 12 13  2  0
 12 14  1  0
 14 15  1  0
 15 16  1  0
 16 17  2  0
 17 18  1  0
 18 19  2  0
 19 20  1  0
 20 21  2  0
  9 22  2  0
 22  2  1  0
 21 16  1  0
M  END
>  <Binding energies>  (8) 
[-6.97]

>  <Ligand effiencies>  (8) 
[-0.3030434782608696]

>  <Interactions>  (8) 
["V-B:HIS:456:CE1:9041, V-B:GLU:543:CD:9880, V-B:GLU:543:CG:9879, V-B:GLU:543:C:9874, V-A:GLU:543:CD:4908, V-A:HIS:456:CE1:4070, V-A:GLU:543:CB:4906, V-A:TYR:484:CZ:4347, V-B:GLU:543:CB:9878, V-B:TYR:539:CD2:9846, V-B:TYR:539:CE2:9848, V-A:GLY:454:CA:4049, V-B:PRO:540:CA:9855, V-A:LEU:475:CD2:4259, V-B:TYR:539:C:9839, V-A:ILE:369:CD1:3239, V-A:GLU:543:C:4902, V-A:GLY:544:C:4912, H-A:TYR:484:OH:4348, H-A:GLU:543:OE2:4910, H-A:GLY:454:N:4050, H-A:ARG:545:NE:4924, V-A:ARG:545:CZ:4926, H-A:ARG:545:NH2:4928, H-A:GLU:543:OE1:4909"]

$$$$
1h_Grossjean_2025
     RDKit          3D

 28 29  0  0  0  0  0  0  0  0999 V2000
  132.9380  131.1570   62.3840 C   0  0  0  0  0  0  0  0  0  0  0  0
  131.6940  131.8500   62.3730 O   0  0  0  0  0  0  0  0  0  0  0  0
  130.9590  131.9050   61.2030 C   0  0  0  0  0  0  0  0  0  0  0  0
  131.3560  131.3040   59.9980 C   0  0  0  0  0  0  0  0  0  0  0  0
  130.5690  131.4140   58.8510 C   0  0  0  0  0  0  0  0  0  0  0  0
  131.0010  130.7360   57.5540 C   0  0  0  0  0  0  0  0  0  0  0  0
  130.7260  129.3010   57.5120 N   0  0  0  0  0  0  0  0  0  0  0  0
  129.5580  128.7230   57.8480 C   0  0  0  0  0  0  0  0  0  0  0  0
  128.5640  129.3530   58.2100 O   0  0  0  0  0  0  0  0  0  0  0  0
  129.5040  127.1970   57.7690 C   0  0  0  0  0  0  0  0  0  0  0  0
  131.1660  126.4590   57.7350 S   0  0  0  0  0  0  0  0  0  0  0  0
  131.5860  125.9650   59.3990 C   0  0  0  0  0  0  0  0  0  0  0  0
  130.8660  126.5560   60.3890 N   0  0  0  0  0  0  0  0  0  0  0  0
  131.1300  126.2230   61.6740 C   0  0  0  0  0  0  0  0  0  0  0  0
  130.2820  126.9200   62.7220 C   0  0  0  0  0  0  0  0  0  0  0  0
  132.1130  125.3010   62.0260 C   0  0  0  0  0  0  0  0  0  0  0  0
  132.8620  124.6880   61.0160 C   0  0  0  0  0  0  0  0  0  0  0  0
  133.9330  123.6780   61.4230 C   0  0  0  0  0  0  0  0  0  0  0  0
  132.6030  125.0200   59.6660 C   0  0  0  0  0  0  0  0  0  0  0  0
  133.3740  124.3950   58.5880 C   0  0  0  0  0  0  0  0  0  0  0  0
  133.9830  123.9020   57.7360 N   0  0  0  0  0  0  0  0  0  0  0  0
  129.3540  132.0980   58.9120 C   0  0  0  0  0  0  0  0  0  0  0  0
  128.9300  132.7040   60.1050 C   0  0  0  0  0  0  0  0  0  0  0  0
  127.7410  133.3990   60.2380 O   0  0  0  0  0  0  0  0  0  0  0  0
  126.5320  132.6800   60.4640 C   0  0  0  0  0  0  0  0  0  0  0  0
  129.7470  132.6100   61.2410 C   0  0  0  0  0  0  0  0  0  0  0  0
  129.3410  133.1920   62.4170 O   0  0  0  0  0  0  0  0  0  0  0  0
  128.8230  132.2740   63.3690 C   0  0  0  0  0  0  0  0  0  0  0  0
  1  2  1  0
  2  3  1  0
  3  4  2  0
  4  5  1  0
  5  6  1  0
  6  7  1  0
  7  8  1  0
  8  9  2  0
  8 10  1  0
 10 11  1  0
 11 12  1  0
 12 13  2  0
 13 14  1  0
 14 15  1  0
 14 16  2  0
 16 17  1  0
 17 18  1  0
 17 19  2  0
 19 20  1  0
 20 21  3  0
  5 22  2  0
 22 23  1  0
 23 24  1  0
 24 25  1  0
 23 26  2  0
 26 27  1  0
 27 28  1  0
 26  3  1  0
 19 12  1  0
M  END
>  <Binding energies>  (9) 
[-6.06]

>  <Ligand effiencies>  (9) 
[-0.2089655172413793]

>  <Interactions>  (9) 
["V-A:GLU:543:CG:4907, V-A:GLU:543:CD:4908, V-B:TYR:539:CE2:9848, V-A:ILE:369:CG2:3237, V-A:ILE:369:CD1:3239, H-B:TYR:539:OH:9850, V-B:TYR:539:CZ:9849, V-A:ASP:366:CB:3212, H-A:TYR:531:OH:4795, V-A:ASP:366:CG:3213, V-A:ASP:366:CA:3210, V-A:TYR:539:C:4867, V-A:PRO:540:CA:4883, V-A:TYR:539:CE1:4875, H-A:ASN:370:N:3244, V-A:TYR:539:CD1:4873, V-A:PRO:540:CB:4885, V-A:TYR:531:CZ:4794, V-A:ALA:541:CB:4892, V-A:ASN:362:CB:3176, H-A:ALA:541:N:4891, V-A:PRO:540:C:4881"]

$$$$
1i_Grossjean_2025
     RDKit          3D

 20 21  0  0  0  0  0  0  0  0999 V2000
  133.9630  123.9620   59.6830 C   0  0  0  0  0  0  0  0  0  0  0  0
  133.1670  123.8130   60.9650 C   0  0  0  0  0  0  0  0  0  0  0  0
  133.5690  124.4280   62.1490 C   0  0  0  0  0  0  0  0  0  0  0  0
  132.7890  124.2630   63.2990 C   0  0  0  0  0  0  0  0  0  0  0  0
  133.2410  124.9610   64.5810 C   0  0  0  0  0  0  0  0  0  0  0  0
  131.6180  123.4720   63.2340 C   0  0  0  0  0  0  0  0  0  0  0  0
  130.7610  123.3280   64.4130 C   0  0  0  0  0  0  0  0  0  0  0  0
  130.0840  123.2170   65.3460 N   0  0  0  0  0  0  0  0  0  0  0  0
  131.3010  122.8660   61.9960 C   0  0  0  0  0  0  0  0  0  0  0  0
  129.8700  121.8410   61.7350 S   0  0  0  0  0  0  0  0  0  0  0  0
  128.3980  122.8620   62.0440 C   0  0  0  0  0  0  0  0  0  0  0  0
  127.4120  122.8190   60.8750 C   0  0  0  0  0  0  0  0  0  0  0  0
  126.2020  122.8440   61.1050 O   0  0  0  0  0  0  0  0  0  0  0  0
  127.9680  122.7590   59.6450 N   0  0  0  0  0  0  0  0  0  0  0  0
  127.3090  122.7060   58.4250 C   0  0  0  0  0  0  0  0  0  0  0  0
  126.2460  123.5460   58.0980 C   0  0  0  0  0  0  0  0  0  0  0  0
  125.8800  123.1800   56.8230 C   0  0  0  0  0  0  0  0  0  0  0  0
  126.6790  122.1700   56.4060 O   0  0  0  0  0  0  0  0  0  0  0  0
  127.5800  121.8770   57.4310 N   0  0  0  0  0  0  0  0  0  0  0  0
  132.0530  123.0480   60.8810 N   0  0  0  0  0  0  0  0  0  0  0  0
  1  2  1  0
  2  3  2  0
  3  4  1  0
  4  5  1  0
  4  6  2  0
  6  7  1  0
  7  8  3  0
  6  9  1  0
  9 10  1  0
 10 11  1  0
 11 12  1  0
 12 13  2  0
 12 14  1  0
 14 15  1  0
 15 16  1  0
 16 17  2  0
 17 18  1  0
 18 19  1  0
  9 20  2  0
 20  2  1  0
 19 15  2  0
M  END
>  <Binding energies>  (10) 
[-6.41]

>  <Ligand effiencies>  (10) 
[-0.30523809523809525]

>  <Interactions>  (10) 
["V-A:TYR:484:CE2:4346, V-B:TYR:539:CD2:9846, V-B:TYR:539:CE2:9848, V-B:PRO:540:CA:9855, V-A:LEU:475:CD2:4259, V-B:PRO:540:CB:9857, V-B:PRO:540:N:9856, V-B:TYR:539:C:9839, V-A:ILE:369:CG2:3237, V-A:ILE:369:CD1:3239, V-B:ALA:541:CB:9864, V-B:PRO:540:C:9853, V-B:MET:535:CE:9807, H-B:ALA:541:N:9863, V-A:ASP:366:CA:3210, V-A:ILE:369:CB:3236, H-A:TYR:484:OH:4348, V-A:ARG:545:CZ:4926, H-B:TYR:539:O:9840, H-B:TYR:539:N:9842"]

$$$$
1k_Grossjean_2025
     RDKit          3D

 25 25  0  0  0  0  0  0  0  0999 V2000
  134.6120  126.9260   74.7810 C   0  0  0  0  0  0  0  0  0  0  0  0
  133.2470  127.3040   74.8560 O   0  0  0  0  0  0  0  0  0  0  0  0
  132.3560  126.3040   74.3780 C   0  0  0  0  0  0  0  0  0  0  0  0
  130.9270  126.8640   74.3480 C   0  0  0  0  0  0  0  0  0  0  0  0
  130.8380  127.8780   73.3560 O   0  0  0  0  0  0  0  0  0  0  0  0
  130.6250  127.3760   72.0430 C   0  0  0  0  0  0  0  0  0  0  0  0
  129.4220  128.0900   71.4130 C   0  0  0  0  0  0  0  0  0  0  0  0
  128.4860  127.1240   70.9530 O   0  0  0  0  0  0  0  0  0  0  0  0
  128.3700  127.0690   69.5370 C   0  0  0  0  0  0  0  0  0  0  0  0
  129.6880  127.5390   68.8930 C   0  0  0  0  0  0  0  0  0  0  0  0
  129.9530  126.9490   67.5800 N   0  0  0  0  0  0  0  0  0  0  0  0
  129.8720  125.6390   67.2880 C   0  0  0  0  0  0  0  0  0  0  0  0
  129.5530  124.7840   68.1170 O   0  0  0  0  0  0  0  0  0  0  0  0
  130.2110  125.2610   65.8380 C   0  0  0  0  0  0  0  0  0  0  0  0
  130.0990  123.4820   65.4380 S   0  0  0  0  0  0  0  0  0  0  0  0
  130.6670  123.2200   63.7640 C   0  0  0  0  0  0  0  0  0  0  0  0
  129.7740  122.6410   62.9190 N   0  0  0  0  0  0  0  0  0  0  0  0
  130.1430  122.4050   61.6390 C   0  0  0  0  0  0  0  0  0  0  0  0
  129.0950  121.7490   60.7610 C   0  0  0  0  0  0  0  0  0  0  0  0
  131.4020  122.7400   61.1470 C   0  0  0  0  0  0  0  0  0  0  0  0
  132.3280  123.3430   62.0040 C   0  0  0  0  0  0  0  0  0  0  0  0
  133.7030  123.7010   61.4440 C   0  0  0  0  0  0  0  0  0  0  0  0
  131.9640  123.5940   63.3460 C   0  0  0  0  0  0  0  0  0  0  0  0
  132.9160  124.2210   64.2680 C   0  0  0  0  0  0  0  0  0  0  0  0
  133.6680  124.7170   64.9950 N   0  0  0  0  0  0  0  0  0  0  0  0
  1  2  1  0
  2  3  1  0
  3  4  1  0
  4  5  1  0
  5  6  1  0
  6  7  1  0
  7  8  1  0
  8  9  1  0
  9 10  1  0
 10 11  1  0
 11 12  1  0
 12 13  2  0
 12 14  1  0
 14 15  1  0
 15 16  1  0
 16 17  2  0
 17 18  1  0
 18 19  1  0
 18 20  2  0
 20 21  1  0
 21 22  1  0
 21 23  2  0
 23 24  1  0
 24 25  3  0
 23 16  1  0
M  END
>  <Binding energies>  (11) 
[-6.26]

>  <Ligand effiencies>  (11) 
[-0.24076923076923076]

>  <Interactions>  (11) 
["V-B:HIS:456:CE1:9041, V-A:HIS:456:CD2:4068, V-B:GLU:543:CG:9879, V-B:HIS:456:CD2:9039, V-B:GLU:543:C:9874, V-A:GLU:543:CD:4908, V-A:HIS:456:CE1:4070, V-A:GLU:543:CB:4906, V-B:GLU:543:CB:9878, V-B:TYR:539:CD2:9846, V-B:TYR:539:CE2:9848, V-A:GLY:454:CA:4049, V-B:PRO:540:CA:9855, V-A:LEU:475:CD2:4259, V-B:TYR:539:C:9839, V-A:ILE:369:CD1:3239, V-A:HIS:456:CB:4065, V-A:HIS:456:CG:4066, V-A:LYS:547:CG:4948, V-A:GLY:544:C:4912, V-B:PRO:540:C:9853, H-A:LYS:547:NZ:4951, H-A:TYR:484:OH:4348, H-A:GLU:543:OE2:4910, H-A:GLY:454:N:4050, H-A:ARG:545:NE:4924, H-A:ARG:545:NH2:4928, H-A:GLU:543:OE1:4909, V-A:LYS:547:CB:4947, V-A:ARG:545:C:4917"]

$$$$
1l_Grossjean_2025
     RDKit          3D

 17 17  0  0  0  0  0  0  0  0999 V2000
  132.5680  125.0950   64.8790 C   0  0  0  0  0  0  0  0  0  0  0  0
  133.8660  124.7530   64.4120 O   0  0  0  0  0  0  0  0  0  0  0  0
  133.9300  124.9100   63.0280 N   0  0  0  0  0  0  0  0  0  0  0  0
  134.1070  123.8220   62.2550 C   0  0  0  0  0  0  0  0  0  0  0  0
  133.9910  122.6640   62.6670 O   0  0  0  0  0  0  0  0  0  0  0  0
  134.4550  124.1140   60.7890 C   0  0  0  0  0  0  0  0  0  0  0  0
  133.1810  123.6190   59.5790 S   0  0  0  0  0  0  0  0  0  0  0  0
  131.8740  122.7830   60.4600 C   0  0  0  0  0  0  0  0  0  0  0  0
  130.9530  123.5870   61.0540 N   0  0  0  0  0  0  0  0  0  0  0  0
  129.9340  123.0180   61.7410 C   0  0  0  0  0  0  0  0  0  0  0  0
  128.9480  123.9810   62.3740 C   0  0  0  0  0  0  0  0  0  0  0  0
  129.7890  121.6380   61.8630 C   0  0  0  0  0  0  0  0  0  0  0  0
  130.7290  120.8000   61.2550 C   0  0  0  0  0  0  0  0  0  0  0  0
  130.5490  119.2900   61.4020 C   0  0  0  0  0  0  0  0  0  0  0  0
  131.8010  121.3720   60.5350 C   0  0  0  0  0  0  0  0  0  0  0  0
  132.8010  120.5170   59.8880 C   0  0  0  0  0  0  0  0  0  0  0  0
  133.5890  119.8410   59.3780 N   0  0  0  0  0  0  0  0  0  0  0  0
  1  2  1  0
  2  3  1  0
  3  4  1  0
  4  5  2  0
  4  6  1  0
  6  7  1  0
  7  8  1  0
  8  9  2  0
  9 10  1  0
 10 11  1  0
 10 12  2  0
 12 13  1  0
 13 14  1  0
 13 15  2  0
 15 16  1  0
 16 17  3  0
 15  8  1  0
M  END
>  <Binding energies>  (12) 
[-5.39]

>  <Ligand effiencies>  (12) 
[-0.2994444444444444]

>  <Interactions>  (12) 
["V-B:TYR:539:CD2:9846, V-B:TYR:539:CE2:9848, V-A:LEU:475:CD2:4259, V-A:ILE:369:CG2:3237, V-A:ILE:369:CD1:3239, V-B:ALA:541:CB:9864, V-A:ASP:366:CG:3213, H-A:SER:385:OG:3410, V-A:ASP:366:CA:3210, V-A:GLY:453:CA:4044, V-A:ILE:369:CB:3236, H-A:TYR:484:OH:4348, H-A:ASP:366:OD1:3214, H-A:GLY:454:N:4050, H-A:ARG:545:NE:4924, V-A:ARG:545:CZ:4926, H-A:ARG:545:NH2:4928, V-A:LEU:475:CG:4257"]

$$$$
1m_Grossjean_2025
     RDKit          3D

 20 20  0  0  0  0  0  0  0  0999 V2000
  129.7890  121.8720   64.9720 C   0  0  0  0  0  0  0  0  0  0  0  0
  130.0600  123.1670   64.4540 O   0  0  0  0  0  0  0  0  0  0  0  0
  130.3740  124.1850   65.2810 C   0  0  0  0  0  0  0  0  0  0  0  0
  129.7460  124.5060   66.2950 O   0  0  0  0  0  0  0  0  0  0  0  0
  131.6480  124.9200   64.8150 C   0  0  0  0  0  0  0  0  0  0  0  0
  132.2000  124.3690   63.5680 N   0  0  0  0  0  0  0  0  0  0  0  0
  133.4850  124.4490   63.1750 C   0  0  0  0  0  0  0  0  0  0  0  0
  134.3540  125.0250   63.8330 O   0  0  0  0  0  0  0  0  0  0  0  0
  133.8090  123.7800   61.8330 C   0  0  0  0  0  0  0  0  0  0  0  0
  132.4950  123.9180   60.5740 S   0  0  0  0  0  0  0  0  0  0  0  0
  131.2070  122.7630   60.9940 C   0  0  0  0  0  0  0  0  0  0  0  0
  130.0650  123.3560   61.4240 N   0  0  0  0  0  0  0  0  0  0  0  0
  129.0140  122.5750   61.7660 C   0  0  0  0  0  0  0  0  0  0  0  0
  127.7660  123.3100   62.2190 C   0  0  0  0  0  0  0  0  0  0  0  0
  129.0590  121.1840   61.7050 C   0  0  0  0  0  0  0  0  0  0  0  0
  130.2400  120.5610   61.2880 C   0  0  0  0  0  0  0  0  0  0  0  0
  130.2720  119.0340   61.2440 C   0  0  0  0  0  0  0  0  0  0  0  0
  131.3520  121.3560   60.9270 C   0  0  0  0  0  0  0  0  0  0  0  0
  132.6130  120.7230   60.5350 C   0  0  0  0  0  0  0  0  0  0  0  0
  133.6090  120.2230   60.2250 N   0  0  0  0  0  0  0  0  0  0  0  0
  1  2  1  0
  2  3  1  0
  3  4  2  0
  3  5  1  0
  5  6  1  0
  6  7  1  0
  7  8  2  0
  7  9  1  0
  9 10  1  0
 10 11  1  0
 11 12  2  0
 12 13  1  0
 13 14  1  0
 13 15  2  0
 15 16  1  0
 16 17  1  0
 16 18  2  0
 18 19  1  0
 19 20  3  0
 18 11  1  0
M  END
>  <Binding energies>  (13) 
[-4.75]

>  <Ligand effiencies>  (13) 
[-0.2261904761904762]

>  <Interactions>  (13) 
["V-B:GLU:543:CD:9880, V-A:TYR:484:CE2:4346, V-B:GLU:543:CG:9879, V-A:TYR:484:CZ:4347, V-B:TYR:539:CD2:9846, V-B:TYR:539:CE2:9848, V-B:PRO:540:CA:9855, V-A:LEU:475:CD2:4259, V-A:ILE:369:CG2:3237, V-A:ILE:369:CD1:3239, V-B:ALA:541:CB:9864, V-B:PRO:540:C:9853, V-B:ALA:541:CA:9862, H-A:SER:385:OG:3410, H-A:TYR:484:OH:4348, H-A:GLY:454:N:4050, H-A:ARG:545:NH1:4927, H-A:ARG:545:NE:4924, V-A:ARG:545:CZ:4926, H-A:ARG:545:NH2:4928, V-A:LEU:475:CD1:4258"]

$$$$
1n_Grossjean_2025
     RDKit          3D

 27 28  0  0  0  0  0  0  0  0999 V2000
  130.1900  132.2440   73.3130 C   0  0  0  0  0  0  0  0  0  0  0  0
  129.1500  131.1200   73.3490 C   0  0  0  0  0  0  0  0  0  0  0  0
  129.8070  129.8640   73.2440 O   0  0  0  0  0  0  0  0  0  0  0  0
  129.1110  128.7280   72.9810 C   0  0  0  0  0  0  0  0  0  0  0  0
  128.3140  128.2190   73.7750 O   0  0  0  0  0  0  0  0  0  0  0  0
  129.3990  128.1580   71.6220 C   0  0  0  0  0  0  0  0  0  0  0  0
  130.6650  128.2640   71.0250 C   0  0  0  0  0  0  0  0  0  0  0  0
  130.8970  127.7270   69.7620 C   0  0  0  0  0  0  0  0  0  0  0  0
  129.8730  127.0820   69.0670 C   0  0  0  0  0  0  0  0  0  0  0  0
  130.2160  126.5810   67.7960 N   0  0  0  0  0  0  0  0  0  0  0  0
  130.0410  125.3470   67.2780 C   0  0  0  0  0  0  0  0  0  0  0  0
  129.5160  124.3970   67.8590 O   0  0  0  0  0  0  0  0  0  0  0  0
  130.5490  125.1510   65.8440 C   0  0  0  0  0  0  0  0  0  0  0  0
  129.6520  125.8290   64.7860 C   0  0  0  0  0  0  0  0  0  0  0  0
  130.4490  126.0830   63.1720 S   0  0  0  0  0  0  0  0  0  0  0  0
  130.9450  124.4880   62.5590 C   0  0  0  0  0  0  0  0  0  0  0  0
  129.9770  123.8530   61.8520 N   0  0  0  0  0  0  0  0  0  0  0  0
  130.2480  122.6370   61.3230 C   0  0  0  0  0  0  0  0  0  0  0  0
  129.1220  121.9930   60.5370 C   0  0  0  0  0  0  0  0  0  0  0  0
  131.4810  122.0070   61.4790 C   0  0  0  0  0  0  0  0  0  0  0  0
  132.4800  122.6450   62.2240 C   0  0  0  0  0  0  0  0  0  0  0  0
  133.8190  121.9290   62.3930 C   0  0  0  0  0  0  0  0  0  0  0  0
  132.2170  123.9130   62.7900 C   0  0  0  0  0  0  0  0  0  0  0  0
  133.2290  124.5740   63.6160 C   0  0  0  0  0  0  0  0  0  0  0  0
  134.0300  125.0950   64.2690 N   0  0  0  0  0  0  0  0  0  0  0  0
  128.6080  126.9630   69.6610 C   0  0  0  0  0  0  0  0  0  0  0  0
  128.3780  127.4980   70.9260 C   0  0  0  0  0  0  0  0  0  0  0  0
  1  2  1  0
  2  3  1  0
  3  4  1  0
  4  5  2  0
  4  6  1  0
  6  7  2  0
  7  8  1  0
  8  9  2  0
  9 10  1  0
 10 11  1  0
 11 12  2  0
 11 13  1  0
 13 14  1  0
 14 15  1  0
 15 16  1  0
 16 17  2  0
 17 18  1  0
 18 19  1  0
 18 20  2  0
 20 21  1  0
 21 22  1  0
 21 23  2  0
 23 24  1  0
 24 25  3  0
  9 26  1  0
 26 27  2  0
 27  6  1  0
 23 16  1  0
M  END
>  <Binding energies>  (14) 
[-7.65]

>  <Ligand effiencies>  (14) 
[-0.27321428571428574]

>  <Interactions>  (14) 
["V-B:HIS:456:CE1:9041, V-B:GLU:543:CD:9880, V-A:TYR:484:CE2:4346, V-B:GLU:543:CG:9879, V-B:HIS:456:CD2:9039, V-B:GLU:543:C:9874, V-A:GLU:543:CD:4908, V-A:HIS:456:CE1:4070, V-A:GLU:543:CB:4906, V-B:GLU:543:CB:9878, V-B:TYR:539:CD2:9846, V-B:TYR:539:CE2:9848, V-A:GLY:454:CA:4049, V-B:PRO:540:CA:9855, V-A:LEU:475:CD2:4259, V-B:TYR:539:C:9839, H-B:LYS:547:NZ:9923, V-A:GLU:543:C:4902, V-A:GLY:544:C:4912, H-A:LYS:547:NZ:4951, H-A:GLU:543:OE2:4910, H-A:GLY:454:N:4050, H-A:ARG:545:NH1:4927, H-A:ARG:545:NE:4924, V-A:ARG:545:CZ:4926, H-A:ARG:545:NH2:4928, V-A:LYS:547:CE:4950, V-A:GLY:544:CA:4914"]

$$$$
1q_Grossjean_2025
     RDKit          3D

 21 21  0  0  0  0  0  0  0  0999 V2000
  131.9270  126.2740   58.3010 C   0  0  0  0  0  0  0  0  0  0  0  0
  132.0840  124.9540   58.8010 O   0  0  0  0  0  0  0  0  0  0  0  0
  133.3140  124.3930   58.8890 C   0  0  0  0  0  0  0  0  0  0  0  0
  133.9740  123.9620   57.9410 O   0  0  0  0  0  0  0  0  0  0  0  0
  133.8570  124.2910   60.3300 C   0  0  0  0  0  0  0  0  0  0  0  0
  132.8910  124.7460   61.3410 N   0  0  0  0  0  0  0  0  0  0  0  0
  133.1050  124.7980   62.6700 C   0  0  0  0  0  0  0  0  0  0  0  0
  134.1680  124.4620   63.1950 O   0  0  0  0  0  0  0  0  0  0  0  0
  131.9380  125.3240   63.5190 C   0  0  0  0  0  0  0  0  0  0  0  0
  132.0790  125.0500   65.0290 C   0  0  0  0  0  0  0  0  0  0  0  0
  130.5310  124.5180   65.8190 S   0  0  0  0  0  0  0  0  0  0  0  0
  129.7340  125.9470   66.5250 C   0  0  0  0  0  0  0  0  0  0  0  0
  129.8150  125.9950   67.8790 N   0  0  0  0  0  0  0  0  0  0  0  0
  129.2430  127.0350   68.5300 C   0  0  0  0  0  0  0  0  0  0  0  0
  129.3600  127.0100   70.0420 C   0  0  0  0  0  0  0  0  0  0  0  0
  128.5830  128.0660   67.8650 C   0  0  0  0  0  0  0  0  0  0  0  0
  128.5160  128.0410   66.4690 C   0  0  0  0  0  0  0  0  0  0  0  0
  127.8030  129.1930   65.7630 C   0  0  0  0  0  0  0  0  0  0  0  0
  129.1070  126.9660   65.7670 C   0  0  0  0  0  0  0  0  0  0  0  0
  129.0960  126.9520   64.3030 C   0  0  0  0  0  0  0  0  0  0  0  0
  129.0850  126.9450   63.1450 N   0  0  0  0  0  0  0  0  0  0  0  0
  1  2  1  0
  2  3  1  0
  3  4  2  0
  3  5  1  0
  5  6  1  0
  6  7  1  0
  7  8  2  0
  7  9  1  0
  9 10  1  0
 10 11  1  0
 11 12  1  0
 12 13  2  0
 13 14  1  0
 14 15  1  0
 14 16  2  0
 16 17  1  0
 17 18  1  0
 17 19  2  0
 19 20  1  0
 20 21  3  0
 19 12  1  0
M  END
>  <Binding energies>  (15) 
[-5.58]

>  <Ligand effiencies>  (15) 
[-0.25363636363636366]

>  <Interactions>  (15) 
["V-B:HIS:456:CE1:9041, V-A:GLU:543:CG:4907, V-B:GLU:543:CD:9880, V-B:GLU:543:CG:9879, V-A:GLU:543:CD:4908, V-A:HIS:456:CE1:4070, V-A:GLU:543:CB:4906, V-B:GLU:543:CB:9878, V-B:TYR:539:CE2:9848, V-A:ILE:369:CG2:3237, V-A:ILE:369:CD1:3239, H-B:TYR:539:OH:9850, V-A:ASP:366:CB:3212, V-A:ASP:366:CG:3213, V-A:ASP:366:CA:3210, H-A:TYR:484:OH:4348, H-A:ASN:370:N:3244, H-A:GLY:454:N:4050, V-A:ARG:545:CZ:4926, H-A:ARG:545:NH2:4928"]

$$$$
2a_Grossjean_2025
     RDKit          3D

 29 30  0  0  0  0  0  0  0  0999 V2000
  128.5450  131.3600   74.4370 C   0  0  0  0  0  0  0  0  0  0  0  0
  129.4780  131.0190   73.2720 C   0  0  0  0  0  0  0  0  0  0  0  0
  129.8450  129.6460   73.3510 O   0  0  0  0  0  0  0  0  0  0  0  0
  128.9890  128.6680   72.9560 C   0  0  0  0  0  0  0  0  0  0  0  0
  128.0450  128.2710   73.6460 O   0  0  0  0  0  0  0  0  0  0  0  0
  129.2930  128.1340   71.5860 C   0  0  0  0  0  0  0  0  0  0  0  0
  128.3340  127.4480   70.8280 C   0  0  0  0  0  0  0  0  0  0  0  0
  128.6480  126.9640   69.5610 C   0  0  0  0  0  0  0  0  0  0  0  0
  129.9250  127.1480   69.0300 C   0  0  0  0  0  0  0  0  0  0  0  0
  130.1350  126.6050   67.7490 N   0  0  0  0  0  0  0  0  0  0  0  0
  130.0110  125.3320   67.3140 C   0  0  0  0  0  0  0  0  0  0  0  0
  129.6980  124.3660   68.0110 O   0  0  0  0  0  0  0  0  0  0  0  0
  130.2950  125.1120   65.8240 C   0  0  0  0  0  0  0  0  0  0  0  0
  130.0680  123.3820   65.2940 S   0  0  0  0  0  0  0  0  0  0  0  0
  130.6940  123.1730   63.6310 C   0  0  0  0  0  0  0  0  0  0  0  0
  129.8360  122.6060   62.7450 N   0  0  0  0  0  0  0  0  0  0  0  0
  130.2470  122.4060   61.4730 C   0  0  0  0  0  0  0  0  0  0  0  0
  129.2420  121.7430   60.5500 C   0  0  0  0  0  0  0  0  0  0  0  0
  131.5160  122.7660   61.0290 C   0  0  0  0  0  0  0  0  0  0  0  0
  132.4170  123.3620   61.9240 C   0  0  0  0  0  0  0  0  0  0  0  0
  133.8170  123.7560   61.4160 C   0  0  0  0  0  0  0  0  0  0  0  0
  134.7030  122.8150   61.7410 F   0  0  0  0  0  0  0  0  0  0  0  0
  133.7970  123.8950   60.0900 F   0  0  0  0  0  0  0  0  0  0  0  0
  134.2470  124.9090   61.9350 F   0  0  0  0  0  0  0  0  0  0  0  0
  131.9990  123.5740   63.2630 C   0  0  0  0  0  0  0  0  0  0  0  0
  132.9010  124.1900   64.2420 C   0  0  0  0  0  0  0  0  0  0  0  0
  133.6140  124.6760   65.0140 N   0  0  0  0  0  0  0  0  0  0  0  0
  130.8880  127.8400   69.7780 C   0  0  0  0  0  0  0  0  0  0  0  0
  130.5700  128.3270   71.0430 C   0  0  0  0  0  0  0  0  0  0  0  0
  1  2  1  0
  2  3  1  0
  3  4  1  0
  4  5  2  0
  4  6  1  0
  6  7  2  0
  7  8  1  0
  8  9  2  0
  9 10  1  0
 10 11  1  0
 11 12  2  0
 11 13  1  0
 13 14  1  0
 14 15  1  0
 15 16  2  0
 16 17  1  0
 17 18  1  0
 17 19  2  0
 19 20  1  0
 20 21  1  0
 21 22  1  0
 21 23  1  0
 21 24  1  0
 20 25  2  0
 25 26  1  0
 26 27  3  0
  9 28  1  0
 28 29  2  0
 29  6  1  0
 25 15  1  0
M  END
>  <Binding energies>  (16) 
[-7.56]

>  <Ligand effiencies>  (16) 
[-0.252]

>  <Interactions>  (16) 
["V-B:HIS:456:CE1:9041, V-A:TYR:484:CE2:4346, V-B:GLU:543:CG:9879, V-B:HIS:456:CD2:9039, V-B:GLU:543:C:9874, V-A:GLU:543:CD:4908, V-A:HIS:456:CE1:4070, V-A:GLU:543:CB:4906, V-B:GLU:543:CB:9878, V-B:TYR:539:CD2:9846, V-B:TYR:539:CE2:9848, V-A:GLY:454:CA:4049, V-B:PRO:540:CA:9855, V-A:LEU:475:CD2:4259, V-B:TYR:539:C:9839, V-A:ILE:369:CG2:3237, V-A:ILE:369:CD1:3239, H-B:LYS:547:NZ:9923, V-A:GLU:543:C:4902, V-A:GLY:544:C:4912, H-A:LYS:547:NZ:4951, V-A:ASP:366:CG:3213, V-A:ILE:369:CB:3236, H-A:TYR:484:OH:4348, H-A:GLU:543:OE2:4910, H-A:GLY:454:N:4050, H-A:ARG:545:NE:4924, V-A:ARG:545:CZ:4926, H-A:ARG:545:NH2:4928, V-A:ILE:369:CG1:3238, V-A:LYS:547:CE:4950"]

$$$$
2b_Grossjean_2025
     RDKit          3D

 28 29  0  0  0  0  0  0  0  0999 V2000
  127.1570  128.4330   74.0390 C   0  0  0  0  0  0  0  0  0  0  0  0
  128.3810  127.8730   73.5850 O   0  0  0  0  0  0  0  0  0  0  0  0
  129.2560  128.6060   72.8490 C   0  0  0  0  0  0  0  0  0  0  0  0
  129.8180  129.6200   73.2730 O   0  0  0  0  0  0  0  0  0  0  0  0
  129.4690  128.0620   71.4660 C   0  0  0  0  0  0  0  0  0  0  0  0
  128.4550  127.3880   70.7690 C   0  0  0  0  0  0  0  0  0  0  0  0
  128.6850  126.8950   69.4880 C   0  0  0  0  0  0  0  0  0  0  0  0
  129.9260  127.0670   68.8770 C   0  0  0  0  0  0  0  0  0  0  0  0
  130.0530  126.5230   67.5840 N   0  0  0  0  0  0  0  0  0  0  0  0
  129.9280  125.2440   67.1710 C   0  0  0  0  0  0  0  0  0  0  0  0
  129.6930  124.2790   67.8990 O   0  0  0  0  0  0  0  0  0  0  0  0
  130.1190  125.0230   65.6670 C   0  0  0  0  0  0  0  0  0  0  0  0
  130.1020  123.2620   65.1940 S   0  0  0  0  0  0  0  0  0  0  0  0
  130.5490  123.0890   63.4710 C   0  0  0  0  0  0  0  0  0  0  0  0
  129.6010  122.5390   62.6700 N   0  0  0  0  0  0  0  0  0  0  0  0
  129.8730  122.3730   61.3560 C   0  0  0  0  0  0  0  0  0  0  0  0
  128.7670  121.7410   60.5320 C   0  0  0  0  0  0  0  0  0  0  0  0
  131.0850  122.7510   60.7860 C   0  0  0  0  0  0  0  0  0  0  0  0
  132.0770  123.3280   61.5940 C   0  0  0  0  0  0  0  0  0  0  0  0
  133.4110  123.7450   60.9470 C   0  0  0  0  0  0  0  0  0  0  0  0
  134.4260  123.1430   61.5670 F   0  0  0  0  0  0  0  0  0  0  0  0
  133.4240  123.3970   59.6590 F   0  0  0  0  0  0  0  0  0  0  0  0
  133.6260  125.0610   61.0080 F   0  0  0  0  0  0  0  0  0  0  0  0
  131.8080  123.5020   62.9760 C   0  0  0  0  0  0  0  0  0  0  0  0
  132.8100  124.0940   63.8680 C   0  0  0  0  0  0  0  0  0  0  0  0
  133.6000  124.5610   64.5720 N   0  0  0  0  0  0  0  0  0  0  0  0
  130.9490  127.7320   69.5690 C   0  0  0  0  0  0  0  0  0  0  0  0
  130.7170  128.2240   70.8500 C   0  0  0  0  0  0  0  0  0  0  0  0
  1  2  1  0
  2  3  1  0
  3  4  2  0
  3  5  1  0
  5  6  2  0
  6  7  1  0
  7  8  2  0
  8  9  1  0
  9 10  1  0
 10 11  2  0
 10 12  1  0
 12 13  1  0
 13 14  1  0
 14 15  2  0
 15 16  1  0
 16 17  1  0
 16 18  2  0
 18 19  1  0
 19 20  1  0
 20 21  1  0
 20 22  1  0
 20 23  1  0
 19 24  2  0
 24 25  1  0
 25 26  3  0
  8 27  1  0
 27 28  2  0
 28  5  1  0
 24 14  1  0
M  END
>  <Binding energies>  (17) 
[-7.37]

>  <Ligand effiencies>  (17) 
[-0.2541379310344828]

>  <Interactions>  (17) 
["V-B:HIS:456:CE1:9041, V-B:GLU:543:CD:9880, V-A:TYR:484:CE2:4346, V-B:GLU:543:CG:9879, V-B:HIS:456:CD2:9039, V-B:GLU:543:C:9874, V-A:GLU:543:CD:4908, V-B:HIS:456:CG:9037, V-A:HIS:456:CE1:4070, V-A:GLU:543:CB:4906, V-B:GLU:543:CB:9878, V-B:GLU:543:CA:9876, V-B:TYR:539:CD2:9846, V-B:TYR:539:CE2:9848, V-B:PRO:540:CA:9855, V-A:LEU:475:CD2:4259, V-B:PRO:540:N:9856, V-B:TYR:539:C:9839, V-A:ILE:369:CG2:3237, V-A:ILE:369:CD1:3239, H-B:LYS:547:NZ:9923, V-A:GLU:543:C:4902, V-A:GLY:544:C:4912, V-B:PRO:540:C:9853, H-A:LYS:547:NZ:4951, V-B:HIS:456:CB:9036, V-A:ASP:366:CB:3212, V-A:ASP:366:CG:3213, V-A:ASP:366:CA:3210, V-A:ILE:369:CB:3236, H-A:TYR:484:OH:4348, H-A:GLU:543:OE2:4910, H-A:GLY:454:N:4050, H-A:ARG:545:NE:4924, H-A:ARG:545:NH2:4928, H-A:GLU:543:OE1:4909"]

$$$$
2c_Grossjean_2025
     RDKit          3D

 26 27  0  0  0  0  0  0  0  0999 V2000
  128.9160  129.1700   73.2940 C   0  0  0  0  0  0  0  0  0  0  0  0
  130.1770  128.8030   72.7440 O   0  0  0  0  0  0  0  0  0  0  0  0
  130.2260  128.2550   71.4770 C   0  0  0  0  0  0  0  0  0  0  0  0
  129.0680  127.6220   71.0270 C   0  0  0  0  0  0  0  0  0  0  0  0
  129.0200  127.0390   69.7640 C   0  0  0  0  0  0  0  0  0  0  0  0
  130.1500  127.0750   68.9340 C   0  0  0  0  0  0  0  0  0  0  0  0
  130.1920  126.5310   67.6370 N   0  0  0  0  0  0  0  0  0  0  0  0
  129.9260  125.2660   67.2450 C   0  0  0  0  0  0  0  0  0  0  0  0
  129.6440  124.3410   68.0080 O   0  0  0  0  0  0  0  0  0  0  0  0
  130.0360  125.0210   65.7330 C   0  0  0  0  0  0  0  0  0  0  0  0
  130.0020  123.2690   65.2170 S   0  0  0  0  0  0  0  0  0  0  0  0
  130.5080  123.1430   63.5060 C   0  0  0  0  0  0  0  0  0  0  0  0
  129.5560  122.7010   62.6430 N   0  0  0  0  0  0  0  0  0  0  0  0
  129.8700  122.5720   61.3350 C   0  0  0  0  0  0  0  0  0  0  0  0
  128.7600  122.0580   60.4400 C   0  0  0  0  0  0  0  0  0  0  0  0
  131.1310  122.8830   60.8310 C   0  0  0  0  0  0  0  0  0  0  0  0
  132.1260  123.3480   61.7020 C   0  0  0  0  0  0  0  0  0  0  0  0
  133.5160  123.6900   61.1290 C   0  0  0  0  0  0  0  0  0  0  0  0
  134.4020  122.7640   61.4980 F   0  0  0  0  0  0  0  0  0  0  0  0
  133.4640  123.7340   59.7970 F   0  0  0  0  0  0  0  0  0  0  0  0
  133.9710  124.8720   61.5520 F   0  0  0  0  0  0  0  0  0  0  0  0
  131.8130  123.4840   63.0780 C   0  0  0  0  0  0  0  0  0  0  0  0
  132.8160  123.9630   64.0350 C   0  0  0  0  0  0  0  0  0  0  0  0
  133.6070  124.3420   64.7900 N   0  0  0  0  0  0  0  0  0  0  0  0
  131.3070  127.7210   69.3720 C   0  0  0  0  0  0  0  0  0  0  0  0
  131.3490  128.3040   70.6360 C   0  0  0  0  0  0  0  0  0  0  0  0
  1  2  1  0
  2  3  1  0
  3  4  2  0
  4  5  1  0
  5  6  2  0
  6  7  1  0
  7  8  1  0
  8  9  2  0
  8 10  1  0
 10 11  1  0
 11 12  1  0
 12 13  2  0
 13 14  1  0
 14 15  1  0
 14 16  2  0
 16 17  1  0
 17 18  1  0
 18 19  1  0
 18 20  1  0
 18 21  1  0
 17 22  2  0
 22 23  1  0
 23 24  3  0
  6 25  1  0
 25 26  2  0
 26  3  1  0
 22 12  1  0
M  END
>  <Binding energies>  (18) 
[-6.7]

>  <Ligand effiencies>  (18) 
[-0.24814814814814815]

>  <Interactions>  (18) 
["V-B:HIS:456:CE1:9041, V-B:GLU:543:CD:9880, V-A:TYR:484:CE2:4346, V-B:GLU:543:CG:9879, V-B:HIS:456:CD2:9039, V-A:GLU:543:CD:4908, V-A:HIS:456:CE1:4070, V-A:GLU:543:CB:4906, V-B:GLU:543:CB:9878, V-B:GLU:543:CA:9876, V-B:TYR:539:CD2:9846, V-B:TYR:539:CE2:9848, V-A:GLY:454:CA:4049, V-B:PRO:540:CA:9855, V-A:LEU:475:CD2:4259, V-B:PRO:540:N:9856, V-B:TYR:539:C:9839, V-A:ILE:369:CG2:3237, V-A:ILE:369:CD1:3239, V-A:ARG:545:CA:4919, V-A:GLU:543:C:4902, V-A:ARG:545:CG:4922, V-A:GLY:544:C:4912, V-B:PRO:540:C:9853, H-A:LYS:547:NZ:4951, V-A:ASP:366:CG:3213, V-A:ILE:369:CB:3236, H-A:TYR:484:OH:4348, H-A:GLU:543:OE2:4910, H-A:GLY:454:N:4050, H-A:GLU:543:OE1:4909, V-A:GLY:544:CA:4914"]

$$$$
2d_Ghoteimi_2023
     RDKit          3D

 38 42  0  0  0  0  0  0  0  0999 V2000
  130.5020  131.6500   62.3110 C   0  0  0  0  0  0  0  0  0  0  0  0
  129.7840  132.5280   63.1650 O   0  0  0  0  0  0  0  0  0  0  0  0
  128.7990  132.0590   63.9580 C   0  0  0  0  0  0  0  0  0  0  0  0
  128.3740  132.6140   64.9760 O   0  0  0  0  0  0  0  0  0  0  0  0
  128.2480  130.7250   63.4340 C   0  0  0  0  0  0  0  0  0  0  0  0
  127.2600  129.8710   64.7090 S   0  0  0  0  0  0  0  0  0  0  0  0
  128.1960  128.4760   65.3010 C   0  0  0  0  0  0  0  0  0  0  0  0
  128.2960  128.4330   66.6520 N   0  0  0  0  0  0  0  0  0  0  0  0
  128.9890  127.4260   67.2420 C   0  0  0  0  0  0  0  0  0  0  0  0
  129.0710  127.4540   68.7340 C   0  0  0  0  0  0  0  0  0  0  0  0
  128.0150  126.9730   69.5150 C   0  0  0  0  0  0  0  0  0  0  0  0
  128.0850  126.9970   70.9060 C   0  0  0  0  0  0  0  0  0  0  0  0
  129.2190  127.4930   71.5650 C   0  0  0  0  0  0  0  0  0  0  0  0
  129.2990  127.5410   72.9620 N   0  0  0  0  0  0  0  0  0  0  0  0
  130.4890  127.0520   73.6850 C   0  0  0  0  0  0  0  0  0  0  0  0
  130.2510  126.8370   75.1940 C   0  0  0  0  0  0  0  0  0  0  0  0
  129.7600  128.0320   75.7810 O   0  0  0  0  0  0  0  0  0  0  0  0
  128.5290  128.4310   75.1990 C   0  0  0  0  0  0  0  0  0  0  0  0
  128.7140  128.6860   73.6880 C   0  0  0  0  0  0  0  0  0  0  0  0
  130.2700  127.9870   70.7780 C   0  0  0  0  0  0  0  0  0  0  0  0
  130.1990  127.9660   69.3890 C   0  0  0  0  0  0  0  0  0  0  0  0
  129.5980  126.4270   66.4780 C   0  0  0  0  0  0  0  0  0  0  0  0
  129.4810  126.4290   65.0830 C   0  0  0  0  0  0  0  0  0  0  0  0
  130.1350  125.3140   64.3340 C   0  0  0  0  0  0  0  0  0  0  0  0
  129.5110  124.0690   64.2430 C   0  0  0  0  0  0  0  0  0  0  0  0
  130.1050  123.0270   63.5370 C   0  0  0  0  0  0  0  0  0  0  0  0
  131.3460  123.2010   62.9030 C   0  0  0  0  0  0  0  0  0  0  0  0
  131.9560  122.1730   62.1780 N   0  0  0  0  0  0  0  0  0  0  0  0
  133.3500  122.2860   61.7070 C   0  0  0  0  0  0  0  0  0  0  0  0
  133.9560  120.9410   61.2530 C   0  0  0  0  0  0  0  0  0  0  0  0
  133.1330  120.3460   60.2620 O   0  0  0  0  0  0  0  0  0  0  0  0
  131.8230  120.0980   60.7490 C   0  0  0  0  0  0  0  0  0  0  0  0
  131.1610  121.4220   61.1860 C   0  0  0  0  0  0  0  0  0  0  0  0
  131.9570  124.4600   62.9840 C   0  0  0  0  0  0  0  0  0  0  0  0
  131.3610  125.5020   63.6900 C   0  0  0  0  0  0  0  0  0  0  0  0
  128.7550  127.4790   64.4680 C   0  0  0  0  0  0  0  0  0  0  0  0
  128.5880  127.5150   63.0120 C   0  0  0  0  0  0  0  0  0  0  0  0
  128.4590  127.5390   61.8620 N   0  0  0  0  0  0  0  0  0  0  0  0
  1  2  1  0
  2  3  1  0
  3  4  2  0
  3  5  1  0
  5  6  1  0
  6  7  1  0
  7  8  2  0
  8  9  1  0
  9 10  1  0
 10 11  2  0
 11 12  1  0
 12 13  2  0
 13 14  1  0
 14 15  1  0
 15 16  1  0
 16 17  1  0
 17 18  1  0
 18 19  1  0
 13 20  1  0
 20 21  2  0
  9 22  2  0
 22 23  1  0
 23 24  1  0
 24 25  2  0
 25 26  1  0
 26 27  2  0
 27 28  1  0
 28 29  1  0
 29 30  1  0
 30 31  1  0
 31 32  1  0
 32 33  1  0
 27 34  1  0
 34 35  2  0
 23 36  2  0
 36 37  1  0
 37 38  3  0
 36  7  1  0
 21 10  1  0
 35 24  1  0
 19 14  1  0
 33 28  1  0
M  END
>  <Binding energies>  (19) 
[-9.08]

>  <Ligand effiencies>  (19) 
[-0.23894736842105263]

>  <Interactions>  (19) 
["V-B:HIS:456:CE1:9041, V-A:HIS:456:CD2:4068, V-A:GLU:543:CG:4907, V-B:GLU:543:CD:9880, V-B:GLU:543:CG:9879, H-B:TYR:484:OH:9319, V-B:HIS:456:CD2:9039, V-B:GLU:543:C:9874, V-A:GLU:543:CD:4908, V-A:HIS:456:CE1:4070, V-A:GLU:543:CB:4906, V-B:GLU:543:CB:9878, V-B:TYR:539:CD2:9846, V-B:TYR:539:CE2:9848, V-A:LEU:475:CD2:4259, V-A:ILE:369:CG2:3237, V-A:ILE:369:CD1:3239, H-B:LYS:547:NZ:9923, V-A:GLU:543:C:4902, V-A:GLY:544:C:4912, H-A:LYS:547:NZ:4951, H-A:SER:385:OG:3410, V-A:SER:385:C:3405, V-A:ALA:541:CB:4892, V-A:SER:385:CA:3407, V-A:SER:385:CB:3409, H-A:ALA:541:N:4891"]

$$$$
2d_Grossjean_2025
     RDKit          3D

 24 25  0  0  0  0  0  0  0  0999 V2000
  131.8200  125.4690   65.9060 C   0  0  0  0  0  0  0  0  0  0  0  0
  131.9100  124.5850   64.6770 C   0  0  0  0  0  0  0  0  0  0  0  0
  133.0480  124.5660   63.8730 C   0  0  0  0  0  0  0  0  0  0  0  0
  133.0850  123.7280   62.7500 C   0  0  0  0  0  0  0  0  0  0  0  0
  134.3560  123.7130   61.8790 C   0  0  0  0  0  0  0  0  0  0  0  0
  134.1080  124.2840   60.7000 F   0  0  0  0  0  0  0  0  0  0  0  0
  135.3350  124.3850   62.4870 F   0  0  0  0  0  0  0  0  0  0  0  0
  134.8050  122.4790   61.6410 F   0  0  0  0  0  0  0  0  0  0  0  0
  131.9500  122.9270   62.4630 C   0  0  0  0  0  0  0  0  0  0  0  0
  131.9560  122.0010   61.3280 C   0  0  0  0  0  0  0  0  0  0  0  0
  131.9620  121.2690   60.4320 N   0  0  0  0  0  0  0  0  0  0  0  0
  130.8290  123.0310   63.3210 C   0  0  0  0  0  0  0  0  0  0  0  0
  129.3120  122.1230   63.0910 S   0  0  0  0  0  0  0  0  0  0  0  0
  127.9250  123.3060   63.0290 C   0  0  0  0  0  0  0  0  0  0  0  0
  127.0640  123.1540   61.7720 C   0  0  0  0  0  0  0  0  0  0  0  0
  125.8640  122.9070   61.8950 O   0  0  0  0  0  0  0  0  0  0  0  0
  127.7180  123.2770   60.5980 N   0  0  0  0  0  0  0  0  0  0  0  0
  127.2130  123.1960   59.2870 C   0  0  0  0  0  0  0  0  0  0  0  0
  125.9880  123.8290   59.0610 C   0  0  0  0  0  0  0  0  0  0  0  0
  125.4040  123.7980   57.7970 C   0  0  0  0  0  0  0  0  0  0  0  0
  126.0430  123.1240   56.7590 C   0  0  0  0  0  0  0  0  0  0  0  0
  127.2570  122.4780   56.9750 C   0  0  0  0  0  0  0  0  0  0  0  0
  127.8440  122.5080   58.2360 C   0  0  0  0  0  0  0  0  0  0  0  0
  130.8180  123.8310   64.4150 N   0  0  0  0  0  0  0  0  0  0  0  0
  1  2  1  0
  2  3  2  0
  3  4  1  0
  4  5  1  0
  5  6  1  0
  5  7  1  0
  5  8  1  0
  4  9  2  0
  9 10  1  0
 10 11  3  0
  9 12  1  0
 12 13  1  0
 13 14  1  0
 14 15  1  0
 15 16  2  0
 15 17  1  0
 17 18  1  0
 18 19  2  0
 19 20  1  0
 20 21  2  0
 21 22  1  0
 22 23  2  0
 12 24  2  0
 24  2  1  0
 23 18  1  0
M  END
>  <Binding energies>  (20) 
[-6.2]

>  <Ligand effiencies>  (20) 
[-0.248]

>  <Interactions>  (20) 
["V-B:GLU:543:CD:9880, V-B:GLU:543:CG:9879, V-A:GLU:543:CD:4908, V-B:TYR:539:CD2:9846, V-B:TYR:539:CE2:9848, V-A:GLY:454:CA:4049, V-B:PRO:540:CA:9855, V-A:LEU:475:CD2:4259, V-B:PRO:540:CD:9859, V-B:PRO:540:CB:9857, V-B:PRO:540:N:9856, V-B:TYR:539:C:9839, V-A:ILE:369:CG2:3237, V-A:ILE:369:CD1:3239, V-B:ALA:541:CB:9864, V-B:PRO:540:C:9853, V-B:LEU:363:CD1:8160, V-B:TYR:539:CG:9844, V-B:TYR:539:CD1:9845, V-B:MET:535:CE:9807, V-B:TYR:539:CE1:9847, V-B:TYR:539:CZ:9849, H-B:ALA:541:N:9863, V-B:TYR:539:CA:9841, V-A:ASP:366:CG:3213, V-A:ASP:366:CA:3210, V-A:GLY:453:CA:4044, V-A:GLY:453:C:4042, V-A:ILE:369:CB:3236, H-A:TYR:484:OH:4348, V-A:SER:385:C:3405, V-A:ARG:545:CZ:4926, V-A:ILE:369:CG1:3238"]

$$$$
2e_Grossjean_2025
     RDKit          3D

 25 26  0  0  0  0  0  0  0  0999 V2000
  129.8570  125.6880   65.7750 C   0  0  0  0  0  0  0  0  0  0  0  0
  129.1020  126.9890   65.9700 C   0  0  0  0  0  0  0  0  0  0  0  0
  128.6910  127.4130   67.2360 C   0  0  0  0  0  0  0  0  0  0  0  0
  128.0100  128.6270   67.3410 C   0  0  0  0  0  0  0  0  0  0  0  0
  127.7600  129.3800   66.1910 C   0  0  0  0  0  0  0  0  0  0  0  0
  128.1920  128.8910   64.9530 C   0  0  0  0  0  0  0  0  0  0  0  0
  127.9520  129.7080   63.8340 N   0  0  0  0  0  0  0  0  0  0  0  0
  127.9980  131.0570   63.7620 C   0  0  0  0  0  0  0  0  0  0  0  0
  128.3390  131.8030   64.6820 O   0  0  0  0  0  0  0  0  0  0  0  0
  127.5410  131.6700   62.4350 C   0  0  0  0  0  0  0  0  0  0  0  0
  128.5530  133.1080   61.9610 S   0  0  0  0  0  0  0  0  0  0  0  0
  130.0420  132.4320   61.2610 C   0  0  0  0  0  0  0  0  0  0  0  0
  131.0060  132.1290   62.1660 N   0  0  0  0  0  0  0  0  0  0  0  0
  132.1880  131.6520   61.7150 C   0  0  0  0  0  0  0  0  0  0  0  0
  133.2200  131.3340   62.7800 C   0  0  0  0  0  0  0  0  0  0  0  0
  132.4570  131.4650   60.3600 C   0  0  0  0  0  0  0  0  0  0  0  0
  131.4740  131.7820   59.4110 C   0  0  0  0  0  0  0  0  0  0  0  0
  131.7930  131.5900   57.9160 C   0  0  0  0  0  0  0  0  0  0  0  0
  133.0090  131.0620   57.7720 F   0  0  0  0  0  0  0  0  0  0  0  0
  130.8970  130.7740   57.3600 F   0  0  0  0  0  0  0  0  0  0  0  0
  131.7710  132.7370   57.2340 F   0  0  0  0  0  0  0  0  0  0  0  0
  130.2280  132.2780   59.8680 C   0  0  0  0  0  0  0  0  0  0  0  0
  129.1700  132.6560   58.9250 C   0  0  0  0  0  0  0  0  0  0  0  0
  128.3360  132.9550   58.1800 N   0  0  0  0  0  0  0  0  0  0  0  0
  128.8650  127.7080   64.8430 N   0  0  0  0  0  0  0  0  0  0  0  0
  1  2  1  0
  2  3  2  0
  3  4  1  0
  4  5  2  0
  5  6  1  0
  6  7  1  0
  7  8  1  0
  8  9  2  0
  8 10  1  0
 10 11  1  0
 11 12  1  0
 12 13  2  0
 13 14  1  0
 14 15  1  0
 14 16  2  0
 16 17  1  0
 17 18  1  0
 18 19  1  0
 18 20  1  0
 18 21  1  0
 17 22  2  0
 22 23  1  0
 23 24  3  0
  6 25  2  0
 25  2  1  0
 22 12  1  0
M  END
>  <Binding energies>  (21) 
[-6.77]

>  <Ligand effiencies>  (21) 
[-0.2603846153846154]

>  <Interactions>  (21) 
["V-B:HIS:456:CE1:9041, V-A:GLU:543:CG:4907, V-B:GLU:543:CD:9880, V-B:GLU:543:CG:9879, H-B:TYR:484:OH:9319, V-B:TYR:484:CZ:9318, V-A:GLU:543:CD:4908, V-A:GLU:543:CB:4906, V-B:GLU:543:CB:9878, V-A:TYR:539:C:4867, V-A:PRO:540:CD:4887, V-A:PRO:540:N:4884, V-A:PRO:540:CA:4883, V-A:PRO:540:CB:4885, V-A:TYR:531:CE2:4793, V-A:LEU:363:CD1:3189, H-A:GLU:543:OE1:4909, V-A:ASN:362:CB:3176, H-A:ALA:541:N:4891, V-A:PRO:540:C:4881, V-A:ASN:362:CG:3177"]

$$$$
2f_Grossjean_2025
     RDKit          3D

 24 25  0  0  0  0  0  0  0  0999 V2000
  128.7240  121.7290   60.7150 C   0  0  0  0  0  0  0  0  0  0  0  0
  129.8320  122.4200   61.4860 C   0  0  0  0  0  0  0  0  0  0  0  0
  130.9790  122.8910   60.8520 C   0  0  0  0  0  0  0  0  0  0  0  0
  131.9810  123.5170   61.6100 C   0  0  0  0  0  0  0  0  0  0  0  0
  133.2470  124.0200   60.8910 C   0  0  0  0  0  0  0  0  0  0  0  0
  133.3160  123.4990   59.6650 F   0  0  0  0  0  0  0  0  0  0  0  0
  133.2160  125.3500   60.7940 F   0  0  0  0  0  0  0  0  0  0  0  0
  134.3710  123.6900   61.5300 F   0  0  0  0  0  0  0  0  0  0  0  0
  131.7850  123.6550   63.0090 C   0  0  0  0  0  0  0  0  0  0  0  0
  132.8260  124.2490   63.8520 C   0  0  0  0  0  0  0  0  0  0  0  0
  133.6480  124.7200   64.5170 N   0  0  0  0  0  0  0  0  0  0  0  0
  130.5770  123.1690   63.5630 C   0  0  0  0  0  0  0  0  0  0  0  0
  130.1600  123.2680   65.2920 S   0  0  0  0  0  0  0  0  0  0  0  0
  130.2730  125.0170   65.8020 C   0  0  0  0  0  0  0  0  0  0  0  0
  129.9200  125.2920   67.2710 C   0  0  0  0  0  0  0  0  0  0  0  0
  129.4880  124.3910   67.9920 O   0  0  0  0  0  0  0  0  0  0  0  0
  130.1060  126.5710   67.6620 N   0  0  0  0  0  0  0  0  0  0  0  0
  129.8970  127.1600   68.9240 C   0  0  0  0  0  0  0  0  0  0  0  0
  128.6990  127.1070   69.6610 C   0  0  0  0  0  0  0  0  0  0  0  0
  128.6260  127.7330   70.9070 C   0  0  0  0  0  0  0  0  0  0  0  0
  129.7560  128.3940   71.3890 C   0  0  0  0  0  0  0  0  0  0  0  0
  130.9250  128.4530   70.7020 N   0  0  0  0  0  0  0  0  0  0  0  0
  130.9800  127.8390   69.4920 C   0  0  0  0  0  0  0  0  0  0  0  0
  129.6310  122.5470   62.8180 N   0  0  0  0  0  0  0  0  0  0  0  0
  1  2  1  0
  2  3  2  0
  3  4  1  0
  4  5  1  0
  5  6  1  0
  5  7  1  0
  5  8  1  0
  4  9  2  0
  9 10  1  0
 10 11  3  0
  9 12  1  0
 12 13  1  0
 13 14  1  0
 14 15  1  0
 15 16  2  0
 15 17  1  0
 17 18  1  0
 18 19  2  0
 19 20  1  0
 20 21  2  0
 21 22  1  0
 22 23  2  0
 12 24  2  0
 24  2  1  0
 23 18  1  0
M  END
>  <Binding energies>  (22) 
[-6.24]

>  <Ligand effiencies>  (22) 
[-0.24960000000000002]

>  <Interactions>  (22) 
["V-B:HIS:456:CE1:9041, V-A:TYR:484:CE2:4346, V-B:GLU:543:CG:9879, V-B:HIS:456:CD2:9039, V-A:GLU:543:CD:4908, V-A:HIS:456:CE1:4070, V-A:GLU:543:CB:4906, V-B:GLU:543:CB:9878, V-B:GLU:543:CA:9876, V-B:TYR:539:CD2:9846, V-B:TYR:539:CE2:9848, V-B:PRO:540:CA:9855, V-A:LEU:475:CD2:4259, V-B:PRO:540:N:9856, V-B:TYR:539:C:9839, V-A:ILE:369:CG2:3237, V-A:ILE:369:CD1:3239, V-A:GLU:543:C:4902, V-A:GLY:544:C:4912, V-B:PRO:540:C:9853, H-A:ARG:545:N:4920, V-A:ASP:366:CB:3212, V-A:ASP:366:CG:3213, V-A:ASP:366:CA:3210, V-A:ILE:369:CB:3236, H-A:TYR:484:OH:4348, H-A:GLU:543:OE2:4910, H-A:GLY:454:N:4050, H-A:ARG:545:NE:4924, H-A:ARG:545:NH2:4928"]

$$$$
2g_Grossjean_2025
     RDKit          3D

 25 26  0  0  0  0  0  0  0  0999 V2000
  128.6400  127.0650   70.2960 C   0  0  0  0  0  0  0  0  0  0  0  0
  128.7570  127.1050   68.7840 C   0  0  0  0  0  0  0  0  0  0  0  0
  128.1400  128.1000   68.0310 C   0  0  0  0  0  0  0  0  0  0  0  0
  128.2720  128.0890   66.6340 C   0  0  0  0  0  0  0  0  0  0  0  0
  127.5750  129.1940   65.8150 C   0  0  0  0  0  0  0  0  0  0  0  0
  126.3090  129.3340   66.2140 F   0  0  0  0  0  0  0  0  0  0  0  0
  128.2130  130.3520   65.9840 F   0  0  0  0  0  0  0  0  0  0  0  0
  127.5540  128.9320   64.5070 F   0  0  0  0  0  0  0  0  0  0  0  0
  129.0440  127.0610   66.0330 C   0  0  0  0  0  0  0  0  0  0  0  0
  129.1670  126.9710   64.5760 C   0  0  0  0  0  0  0  0  0  0  0  0
  129.2630  126.9010   63.4250 N   0  0  0  0  0  0  0  0  0  0  0  0
  129.6600  126.1100   66.8820 C   0  0  0  0  0  0  0  0  0  0  0  0
  130.6790  124.7720   66.2990 S   0  0  0  0  0  0  0  0  0  0  0  0
  132.3320  125.4590   65.9410 C   0  0  0  0  0  0  0  0  0  0  0  0
  132.8590  125.1620   64.5310 C   0  0  0  0  0  0  0  0  0  0  0  0
  133.9740  124.6660   64.3530 O   0  0  0  0  0  0  0  0  0  0  0  0
  132.0280  125.4850   63.5230 N   0  0  0  0  0  0  0  0  0  0  0  0
  132.3040  125.2890   62.0990 C   0  0  0  0  0  0  0  0  0  0  0  0
  132.5110  123.8330   61.6930 C   0  0  0  0  0  0  0  0  0  0  0  0
  133.8050  123.3100   61.6170 C   0  0  0  0  0  0  0  0  0  0  0  0
  133.9950  121.9710   61.2830 C   0  0  0  0  0  0  0  0  0  0  0  0
  132.8910  121.1580   61.0370 C   0  0  0  0  0  0  0  0  0  0  0  0
  131.5980  121.6710   61.1240 C   0  0  0  0  0  0  0  0  0  0  0  0
  131.4080  123.0090   61.4580 C   0  0  0  0  0  0  0  0  0  0  0  0
  129.5020  126.1220   68.2280 N   0  0  0  0  0  0  0  0  0  0  0  0
  1  2  1  0
  2  3  2  0
  3  4  1  0
  4  5  1  0
  5  6  1  0
  5  7  1  0
  5  8  1  0
  4  9  2  0
  9 10  1  0
 10 11  3  0
  9 12  1  0
 12 13  1  0
 13 14  1  0
 14 15  1  0
 15 16  2  0
 15 17  1  0
 17 18  1  0
 18 19  1  0
 19 20  2  0
 20 21  1  0
 21 22  2  0
 22 23  1  0
 23 24  2  0
 12 25  2  0
 25  2  1  0
 24 19  1  0
M  END
>  <Binding energies>  (23) 
[-6.16]

>  <Ligand effiencies>  (23) 
[-0.23692307692307693]

>  <Interactions>  (23) 
["V-B:HIS:456:CE1:9041, V-A:GLU:543:CG:4907, V-B:GLU:543:CD:9880, V-B:GLU:543:CG:9879, V-B:TYR:484:CZ:9318, V-A:GLU:543:CD:4908, V-A:GLU:543:CB:4906, V-B:GLU:543:CB:9878, V-B:TYR:539:CD2:9846, V-B:TYR:539:CE2:9848, V-A:LEU:475:CD2:4259, V-A:ILE:369:CG2:3237, V-A:ILE:369:CD1:3239, H-A:TYR:484:OH:4348, H-A:GLU:543:OE2:4910, H-A:GLY:454:N:4050, H-A:ARG:545:NE:4924, V-A:ARG:545:CZ:4926, H-A:ARG:545:NH2:4928, H-A:GLU:543:OE1:4909, V-B:TYR:484:CE2:9317"]

$$$$
2h_Grossjean_2025
     RDKit          3D

 31 32  0  0  0  0  0  0  0  0999 V2000
  128.1680  128.1410   74.4660 C   0  0  0  0  0  0  0  0  0  0  0  0
  128.3980  127.0180   73.6230 O   0  0  0  0  0  0  0  0  0  0  0  0
  128.4680  127.2010   72.2530 C   0  0  0  0  0  0  0  0  0  0  0  0
  127.4680  126.7930   71.3560 C   0  0  0  0  0  0  0  0  0  0  0  0
  127.6060  127.0190   69.9890 C   0  0  0  0  0  0  0  0  0  0  0  0
  128.7420  127.6550   69.4870 C   0  0  0  0  0  0  0  0  0  0  0  0
  128.8610  127.9100   67.9850 C   0  0  0  0  0  0  0  0  0  0  0  0
  129.6960  126.9310   67.2880 N   0  0  0  0  0  0  0  0  0  0  0  0
  129.8610  125.6510   67.6670 C   0  0  0  0  0  0  0  0  0  0  0  0
  129.3830  125.1860   68.7030 O   0  0  0  0  0  0  0  0  0  0  0  0
  130.6890  124.7790   66.7120 C   0  0  0  0  0  0  0  0  0  0  0  0
  132.3160  125.4660   66.2550 S   0  0  0  0  0  0  0  0  0  0  0  0
  132.4400  125.3600   64.4830 C   0  0  0  0  0  0  0  0  0  0  0  0
  133.5850  124.7770   64.0510 N   0  0  0  0  0  0  0  0  0  0  0  0
  133.7910  124.6620   62.7200 C   0  0  0  0  0  0  0  0  0  0  0  0
  135.0960  124.0070   62.3090 C   0  0  0  0  0  0  0  0  0  0  0  0
  132.8720  125.1120   61.7750 C   0  0  0  0  0  0  0  0  0  0  0  0
  131.6720  125.6990   62.2030 C   0  0  0  0  0  0  0  0  0  0  0  0
  130.6630  126.1830   61.1430 C   0  0  0  0  0  0  0  0  0  0  0  0
  130.4210  127.4840   61.3060 F   0  0  0  0  0  0  0  0  0  0  0  0
  131.1040  126.0120   59.8950 F   0  0  0  0  0  0  0  0  0  0  0  0
  129.5170  125.5120   61.2600 F   0  0  0  0  0  0  0  0  0  0  0  0
  131.4370  125.8210   63.5970 C   0  0  0  0  0  0  0  0  0  0  0  0
  130.1750  126.3720   64.0960 C   0  0  0  0  0  0  0  0  0  0  0  0
  129.1760  126.8050   64.4880 N   0  0  0  0  0  0  0  0  0  0  0  0
  129.7600  128.0470   70.3690 C   0  0  0  0  0  0  0  0  0  0  0  0
  130.8840  128.6710   69.8820 O   0  0  0  0  0  0  0  0  0  0  0  0
  131.9020  127.7840   69.4360 C   0  0  0  0  0  0  0  0  0  0  0  0
  129.6110  127.8350   71.7500 C   0  0  0  0  0  0  0  0  0  0  0  0
  130.5980  128.2350   72.6190 O   0  0  0  0  0  0  0  0  0  0  0  0
  131.3290  127.1630   73.2000 C   0  0  0  0  0  0  0  0  0  0  0  0
  1  2  1  0
  2  3  1  0
  3  4  2  0
  4  5  1  0
  5  6  2  0
  6  7  1  0
  7  8  1  0
  8  9  1  0
  9 10  2  0
  9 11  1  0
 11 12  1  0
 12 13  1  0
 13 14  2  0
 14 15  1  0
 15 16  1  0
 15 17  2  0
 17 18  1  0
 18 19  1  0
 19 20  1  0
 19 21  1  0
 19 22  1  0
 18 23  2  0
 23 24  1  0
 24 25  3  0
  6 26  1  0
 26 27  1  0
 27 28  1  0
 26 29  2  0
 29 30  1  0
 30 31  1  0
 29  3  1  0
 23 13  1  0
M  END
>  <Binding energies>  (24) 
[-5.73]

>  <Ligand effiencies>  (24) 
[-0.1790625]

>  <Interactions>  (24) 
["V-B:HIS:456:CE1:9041, V-A:HIS:456:CD2:4068, V-A:TYR:484:CE2:4346, V-B:GLU:543:CG:9879, V-B:GLU:543:C:9874, V-A:GLU:543:CD:4908, V-A:HIS:456:CE1:4070, V-A:GLU:543:CB:4906, V-B:GLY:544:C:9884, V-A:TYR:484:CZ:4347, V-B:GLU:543:CB:9878, V-A:GLY:454:CA:4049, V-A:ILE:369:CD1:3239, V-A:HIS:456:CG:4066, V-A:ARG:545:CA:4919, H-B:LYS:547:NZ:9923, V-A:GLU:543:C:4902, V-A:ARG:545:CG:4922, V-A:GLY:544:C:4912, H-A:LYS:547:NZ:4951, H-A:ARG:545:N:4920, V-A:ASP:366:CG:3213, V-A:GLY:453:CA:4044, V-A:GLY:453:C:4042, H-A:TYR:484:OH:4348, H-A:GLU:543:OE2:4910, H-A:GLY:454:N:4050, H-A:ARG:545:NE:4924, V-A:ARG:545:CZ:4926, H-A:ARG:545:NH2:4928, H-A:GLU:543:OE1:4909, V-B:GLY:544:CA:9886, V-A:ARG:545:CB:4921, H-A:GLY:544:N:4915"]

$$$$
2i_Grossjean_2025
     RDKit          3D

 23 24  0  0  0  0  0  0  0  0999 V2000
  128.4520  122.1060   62.1370 C   0  0  0  0  0  0  0  0  0  0  0  0
  129.6260  122.7660   62.8350 C   0  0  0  0  0  0  0  0  0  0  0  0
  129.4460  123.6110   63.9270 C   0  0  0  0  0  0  0  0  0  0  0  0
  130.5650  124.1950   64.5390 C   0  0  0  0  0  0  0  0  0  0  0  0
  130.3470  125.1290   65.7450 C   0  0  0  0  0  0  0  0  0  0  0  0
  129.4850  124.5750   66.6000 F   0  0  0  0  0  0  0  0  0  0  0  0
  131.5030  125.3430   66.3740 F   0  0  0  0  0  0  0  0  0  0  0  0
  129.8550  126.3190   65.3950 F   0  0  0  0  0  0  0  0  0  0  0  0
  131.8510  123.9020   64.0200 C   0  0  0  0  0  0  0  0  0  0  0  0
  133.0550  124.4840   64.6220 C   0  0  0  0  0  0  0  0  0  0  0  0
  134.0050  124.9430   65.0970 N   0  0  0  0  0  0  0  0  0  0  0  0
  131.9430  123.0350   62.9070 C   0  0  0  0  0  0  0  0  0  0  0  0
  133.5070  122.6000   62.1630 S   0  0  0  0  0  0  0  0  0  0  0  0
  133.1990  122.1250   60.4360 C   0  0  0  0  0  0  0  0  0  0  0  0
  132.7980  120.6540   60.3020 C   0  0  0  0  0  0  0  0  0  0  0  0
  133.5660  119.8730   59.7360 O   0  0  0  0  0  0  0  0  0  0  0  0
  131.5890  120.3260   60.8050 N   0  0  0  0  0  0  0  0  0  0  0  0
  130.9990  119.0730   60.7910 C   0  0  0  0  0  0  0  0  0  0  0  0
  130.0430  118.5150   61.6510 C   0  0  0  0  0  0  0  0  0  0  0  0
  129.8250  117.2490   61.1580 C   0  0  0  0  0  0  0  0  0  0  0  0
  130.5980  117.0610   60.0620 O   0  0  0  0  0  0  0  0  0  0  0  0
  131.3320  118.2280   59.8390 N   0  0  0  0  0  0  0  0  0  0  0  0
  130.8470  122.4790   62.3290 N   0  0  0  0  0  0  0  0  0  0  0  0
  1  2  1  0
  2  3  2  0
  3  4  1  0
  4  5  1  0
  5  6  1  0
  5  7  1  0
  5  8  1  0
  4  9  2  0
  9 10  1  0
 10 11  3  0
  9 12  1  0
 12 13  1  0
 13 14  1  0
 14 15  1  0
 15 16  2  0
 15 17  1  0
 17 18  1  0
 18 19  1  0
 19 20  2  0
 20 21  1  0
 21 22  1  0
 12 23  2  0
 23  2  1  0
 22 18  2  0
M  END
>  <Binding energies>  (25) 
[-6.42]

>  <Ligand effiencies>  (25) 
[-0.2675]

>  <Interactions>  (25) 
["V-B:GLU:543:CD:9880, V-A:TYR:484:CE2:4346, V-B:GLU:543:CG:9879, V-A:GLU:543:CD:4908, V-A:HIS:456:CE1:4070, V-A:TYR:484:CZ:4347, V-B:GLU:543:CB:9878, V-B:GLU:543:CA:9876, V-B:TYR:539:CD2:9846, V-B:TYR:539:CE2:9848, V-A:GLY:454:CA:4049, V-B:PRO:540:CA:9855, V-A:LEU:475:CD2:4259, V-A:ILE:369:CG2:3237, V-B:ALA:541:CB:9864, V-B:PRO:540:C:9853, V-B:ALA:541:CA:9862, H-A:SER:385:OG:3410, H-A:TYR:484:OH:4348, H-A:GLY:454:N:4050, H-A:ARG:545:NH1:4927, H-A:ARG:545:NE:4924, V-A:ARG:545:CZ:4926, H-A:ARG:545:NH2:4928, V-A:SER:385:CB:3409, V-A:LEU:475:CD1:4258, V-A:LEU:475:CG:4257, V-A:HIS:383:NE2:3394, V-A:PRO:482:CG:4327, V-A:PRO:482:CB:4326, H-A:HIS:383:HE2:3395"]

$$$$
2k_Grossjean_2025
     RDKit          3D

 28 28  0  0  0  0  0  0  0  0999 V2000
  126.0840  128.1720   74.4420 C   0  0  0  0  0  0  0  0  0  0  0  0
  127.1470  127.9740   75.3610 O   0  0  0  0  0  0  0  0  0  0  0  0
  128.4190  128.3420   74.8430 C   0  0  0  0  0  0  0  0  0  0  0  0
  128.4960  127.9820   73.3540 C   0  0  0  0  0  0  0  0  0  0  0  0
  128.6840  126.5800   73.2260 O   0  0  0  0  0  0  0  0  0  0  0  0
  127.8880  125.9740   72.2140 C   0  0  0  0  0  0  0  0  0  0  0  0
  127.5930  127.0240   71.1350 C   0  0  0  0  0  0  0  0  0  0  0  0
  128.6680  127.0090   70.2090 O   0  0  0  0  0  0  0  0  0  0  0  0
  129.2910  128.2650   69.9860 C   0  0  0  0  0  0  0  0  0  0  0  0
  130.6460  128.0340   69.2910 C   0  0  0  0  0  0  0  0  0  0  0  0
  130.5220  127.3150   68.0200 N   0  0  0  0  0  0  0  0  0  0  0  0
  129.3820  127.1530   67.3200 C   0  0  0  0  0  0  0  0  0  0  0  0
  128.3000  127.6280   67.6680 O   0  0  0  0  0  0  0  0  0  0  0  0
  129.4990  126.3050   66.0450 C   0  0  0  0  0  0  0  0  0  0  0  0
  130.4750  124.7700   66.2130 S   0  0  0  0  0  0  0  0  0  0  0  0
  130.7480  124.0600   64.5950 C   0  0  0  0  0  0  0  0  0  0  0  0
  129.6500  123.5400   63.9870 N   0  0  0  0  0  0  0  0  0  0  0  0
  129.7840  122.9830   62.7630 C   0  0  0  0  0  0  0  0  0  0  0  0
  128.5160  122.4140   62.1580 C   0  0  0  0  0  0  0  0  0  0  0  0
  131.0010  122.9300   62.0910 C   0  0  0  0  0  0  0  0  0  0  0  0
  132.1480  123.4690   62.6960 C   0  0  0  0  0  0  0  0  0  0  0  0
  133.4860  123.4060   61.9350 C   0  0  0  0  0  0  0  0  0  0  0  0
  134.3930  122.6420   62.5470 F   0  0  0  0  0  0  0  0  0  0  0  0
  133.2950  122.9020   60.7150 F   0  0  0  0  0  0  0  0  0  0  0  0
  134.0040  124.6300   61.8210 F   0  0  0  0  0  0  0  0  0  0  0  0
  132.0240  124.0500   63.9840 C   0  0  0  0  0  0  0  0  0  0  0  0
  133.1890  124.6240   64.6640 C   0  0  0  0  0  0  0  0  0  0  0  0
  134.1090  125.0780   65.2000 N   0  0  0  0  0  0  0  0  0  0  0  0
  1  2  1  0
  2  3  1  0
  3  4  1  0
  4  5  1  0
  5  6  1  0
  6  7  1  0
  7  8  1  0
  8  9  1  0
  9 10  1  0
 10 11  1  0
 11 12  1  0
 12 13  2  0
 12 14  1  0
 14 15  1  0
 15 16  1  0
 16 17  2  0
 17 18  1  0
 18 19  1  0
 18 20  2  0
 20 21  1  0
 21 22  1  0
 22 23  1  0
 22 24  1  0
 22 25  1  0
 21 26  2  0
 26 27  1  0
 27 28  3  0
 26 16  1  0
M  END
>  <Binding energies>  (26) 
[-5.01]

>  <Ligand effiencies>  (26) 
[-0.17275862068965517]

>  <Interactions>  (26) 
["V-B:HIS:456:CE1:9041, V-A:GLU:543:CG:4907, V-B:GLU:543:CD:9880, V-B:GLU:543:CG:9879, V-B:HIS:456:CD2:9039, V-B:GLU:543:C:9874, V-A:GLU:543:CD:4908, V-B:HIS:456:CG:9037, V-A:HIS:456:CE1:4070, V-A:GLU:543:CB:4906, V-B:GLY:544:C:9884, V-B:GLU:543:CB:9878, V-B:LYS:547:CE:9922, V-A:GLY:454:CA:4049, V-A:LEU:475:CD2:4259, V-A:ILE:369:CG2:3237, V-A:ILE:369:CD1:3239, V-A:GLU:543:CA:4904, H-B:LYS:547:NZ:9923, V-A:GLU:543:C:4902, V-B:ALA:541:CB:9864, V-B:HIS:456:CB:9036, V-A:ASP:366:CG:3213, V-A:GLY:453:C:4042, H-A:TYR:484:OH:4348, H-A:GLU:543:OE2:4910, H-A:GLY:454:N:4050, H-A:ARG:545:NH1:4927, H-A:ARG:545:NE:4924, V-A:ARG:545:CZ:4926, H-A:ARG:545:NH2:4928, V-B:GLY:544:CA:9886"]

$$$$
3aa_Grossjean_2025
     RDKit          3D

 34 36  0  0  0  0  0  0  0  0999 V2000
  131.6990  126.8100   74.0020 C   0  0  0  0  0  0  0  0  0  0  0  0
  130.2830  126.2460   73.8500 C   0  0  0  0  0  0  0  0  0  0  0  0
  129.3720  127.3100   73.6030 O   0  0  0  0  0  0  0  0  0  0  0  0
  129.6880  128.3160   72.7470 C   0  0  0  0  0  0  0  0  0  0  0  0
  129.8600  129.4850   73.1050 O   0  0  0  0  0  0  0  0  0  0  0  0
  129.7940  127.8680   71.3170 C   0  0  0  0  0  0  0  0  0  0  0  0
  130.9340  128.1220   70.5410 C   0  0  0  0  0  0  0  0  0  0  0  0
  131.0000  127.6880   69.2190 C   0  0  0  0  0  0  0  0  0  0  0  0
  129.9350  126.9880   68.6500 C   0  0  0  0  0  0  0  0  0  0  0  0
  130.1060  126.5920   67.3090 N   0  0  0  0  0  0  0  0  0  0  0  0
  129.9580  125.3730   66.7460 C   0  0  0  0  0  0  0  0  0  0  0  0
  129.6530  124.3410   67.3460 O   0  0  0  0  0  0  0  0  0  0  0  0
  130.2090  125.3070   65.2390 C   0  0  0  0  0  0  0  0  0  0  0  0
  129.8130  123.6680   64.5580 S   0  0  0  0  0  0  0  0  0  0  0  0
  130.2180  123.7110   62.8270 C   0  0  0  0  0  0  0  0  0  0  0  0
  129.1380  123.6130   62.0140 N   0  0  0  0  0  0  0  0  0  0  0  0
  129.3070  123.6310   60.6670 C   0  0  0  0  0  0  0  0  0  0  0  0
  128.0630  123.5330   59.8350 C   0  0  0  0  0  0  0  0  0  0  0  0
  128.0940  122.9210   58.5720 C   0  0  0  0  0  0  0  0  0  0  0  0
  126.9430  122.8250   57.7940 C   0  0  0  0  0  0  0  0  0  0  0  0
  125.7430  123.3420   58.2710 C   0  0  0  0  0  0  0  0  0  0  0  0
  125.6850  123.9500   59.5210 C   0  0  0  0  0  0  0  0  0  0  0  0
  126.8370  124.0420   60.2970 C   0  0  0  0  0  0  0  0  0  0  0  0
  130.5810  123.7570   60.1030 C   0  0  0  0  0  0  0  0  0  0  0  0
  131.7150  123.8420   60.9250 C   0  0  0  0  0  0  0  0  0  0  0  0
  133.1020  123.9680   60.2660 C   0  0  0  0  0  0  0  0  0  0  0  0
  133.9030  122.9370   60.5440 F   0  0  0  0  0  0  0  0  0  0  0  0
  132.9780  124.0290   58.9400 F   0  0  0  0  0  0  0  0  0  0  0  0
  133.7090  125.0760   60.6950 F   0  0  0  0  0  0  0  0  0  0  0  0
  131.5360  123.8060   62.3290 C   0  0  0  0  0  0  0  0  0  0  0  0
  132.6880  123.8330   63.2350 C   0  0  0  0  0  0  0  0  0  0  0  0
  133.5990  123.8540   63.9500 N   0  0  0  0  0  0  0  0  0  0  0  0
  128.7860  126.7420   69.4170 C   0  0  0  0  0  0  0  0  0  0  0  0
  128.7210  127.1780   70.7360 C   0  0  0  0  0  0  0  0  0  0  0  0
  1  2  1  0
  2  3  1  0
  3  4  1  0
  4  5  2  0
  4  6  1  0
  6  7  2  0
  7  8  1  0
  8  9  2  0
  9 10  1  0
 10 11  1  0
 11 12  2  0
 11 13  1  0
 13 14  1  0
 14 15  1  0
 15 16  2  0
 16 17  1  0
 17 18  1  0
 18 19  2  0
 19 20  1  0
 20 21  2  0
 21 22  1  0
 22 23  2  0
 17 24  2  0
 24 25  1  0
 25 26  1  0
 26 27  1  0
 26 28  1  0
 26 29  1  0
 25 30  2  0
 30 31  1  0
 31 32  3  0
  9 33  1  0
 33 34  2  0
 34  6  1  0
 30 15  1  0
 23 18  1  0
M  END
>  <Binding energies>  (27) 
[-8.56]

>  <Ligand effiencies>  (27) 
[-0.24457142857142858]

>  <Interactions>  (27) 
["V-B:HIS:456:CE1:9041, V-A:HIS:456:CD2:4068, V-B:GLU:543:CG:9879, V-B:GLU:543:C:9874, V-A:GLU:543:CD:4908, V-A:HIS:456:CE1:4070, V-A:GLU:543:CB:4906, V-B:GLU:543:CB:9878, V-B:TYR:539:CD2:9846, V-B:TYR:539:CE2:9848, V-B:PRO:540:CA:9855, V-B:PRO:540:CD:9859, V-B:PRO:540:CB:9857, V-B:PRO:540:N:9856, V-B:TYR:539:C:9839, V-A:ILE:369:CG2:3237, V-A:ILE:369:CD1:3239, V-A:HIS:456:CG:4066, H-B:LYS:547:NZ:9923, V-A:GLU:543:C:4902, V-A:ARG:545:CG:4922, V-A:GLY:544:C:4912, V-B:TYR:539:CZ:9849, H-A:LYS:547:NZ:4951, V-A:ASP:366:CB:3212, V-A:ASP:366:CG:3213, V-A:ASP:366:CA:3210, V-A:ILE:369:CB:3236, H-A:TYR:484:OH:4348, H-A:GLU:543:OE2:4910, H-A:GLY:454:N:4050, H-A:GLU:543:OE1:4909"]

$$$$
3ad_Grossjean_2025
     RDKit          3D

 29 31  0  0  0  0  0  0  0  0999 V2000
  129.4080  126.8880   63.0940 N   0  0  0  0  0  0  0  0  0  0  0  0
  129.2770  126.9830   64.2400 C   0  0  0  0  0  0  0  0  0  0  0  0
  129.1070  127.1060   65.6920 C   0  0  0  0  0  0  0  0  0  0  0  0
  128.3400  128.1600   66.2440 C   0  0  0  0  0  0  0  0  0  0  0  0
  127.6080  129.2010   65.3750 C   0  0  0  0  0  0  0  0  0  0  0  0
  127.3220  128.7470   64.1530 F   0  0  0  0  0  0  0  0  0  0  0  0
  126.4570  129.5480   65.9540 F   0  0  0  0  0  0  0  0  0  0  0  0
  128.3640  130.2900   65.2290 F   0  0  0  0  0  0  0  0  0  0  0  0
  128.2470  128.2610   67.6400 C   0  0  0  0  0  0  0  0  0  0  0  0
  128.9050  127.3390   68.4610 C   0  0  0  0  0  0  0  0  0  0  0  0
  128.8520  127.4090   69.9590 C   0  0  0  0  0  0  0  0  0  0  0  0
  127.7120  126.9810   70.6570 C   0  0  0  0  0  0  0  0  0  0  0  0
  127.6570  127.0420   72.0470 C   0  0  0  0  0  0  0  0  0  0  0  0
  128.7460  127.5340   72.7590 C   0  0  0  0  0  0  0  0  0  0  0  0
  129.8880  127.9620   72.0920 C   0  0  0  0  0  0  0  0  0  0  0  0
  129.9400  127.8980   70.7010 C   0  0  0  0  0  0  0  0  0  0  0  0
  129.6450  126.3340   67.9270 N   0  0  0  0  0  0  0  0  0  0  0  0
  129.7310  126.2040   66.5820 C   0  0  0  0  0  0  0  0  0  0  0  0
  130.7300  124.8270   66.0610 S   0  0  0  0  0  0  0  0  0  0  0  0
  132.4060  125.4610   65.7550 C   0  0  0  0  0  0  0  0  0  0  0  0
  132.9200  125.0880   64.3630 C   0  0  0  0  0  0  0  0  0  0  0  0
  133.9730  124.4590   64.2620 O   0  0  0  0  0  0  0  0  0  0  0  0
  132.1480  125.4950   63.3330 N   0  0  0  0  0  0  0  0  0  0  0  0
  132.3210  125.3090   61.9490 C   0  0  0  0  0  0  0  0  0  0  0  0
  133.1550  124.2480   61.5800 C   0  0  0  0  0  0  0  0  0  0  0  0
  133.3980  123.9790   60.2360 C   0  0  0  0  0  0  0  0  0  0  0  0
  132.8100  124.7740   59.2560 C   0  0  0  0  0  0  0  0  0  0  0  0
  131.9830  125.8370   59.6090 C   0  0  0  0  0  0  0  0  0  0  0  0
  131.7380  126.1100   60.9520 C   0  0  0  0  0  0  0  0  0  0  0  0
  1  2  3  0
  2  3  1  0
  3  4  2  0
  4  5  1  0
  5  6  1  0
  5  7  1  0
  5  8  1  0
  4  9  1  0
  9 10  2  0
 10 11  1  0
 11 12  2  0
 12 13  1  0
 13 14  2  0
 14 15  1  0
 15 16  2  0
 10 17  1  0
 17 18  2  0
 18 19  1  0
 19 20  1  0
 20 21  1  0
 21 22  2  0
 21 23  1  0
 23 24  1  0
 24 25  2  0
 25 26  1  0
 26 27  2  0
 27 28  1  0
 28 29  2  0
 18  3  1  0
 29 24  1  0
 16 11  1  0
M  END
>  <Binding energies>  (28) 
[-7.69]

>  <Ligand effiencies>  (28) 
[-0.25633333333333336]

>  <Interactions>  (28) 
["V-B:HIS:456:CE1:9041, V-A:GLU:543:CG:4907, V-B:GLU:543:CD:9880, V-B:GLU:543:CG:9879, V-B:TYR:484:CZ:9318, V-B:HIS:456:CD2:9039, V-B:GLU:543:C:9874, V-A:GLU:543:CD:4908, V-A:HIS:456:CE1:4070, V-A:GLU:543:CB:4906, V-B:GLY:544:C:9884, V-B:GLU:543:CB:9878, V-B:TYR:539:CE2:9848, V-A:ILE:369:CG2:3237, V-A:ASP:366:CB:3212, V-A:ASP:366:CG:3213, V-A:ASP:366:CA:3210, H-A:TYR:484:OH:4348, H-A:GLU:543:OE2:4910, H-A:GLY:454:N:4050, V-A:ARG:545:CZ:4926, H-A:ARG:545:NH2:4928, H-A:GLU:543:OE1:4909"]

$$$$
3ai_Grossjean_2025
     RDKit          3D

 28 30  0  0  0  0  0  0  0  0999 V2000
  129.5200  126.5280   63.7200 N   0  0  0  0  0  0  0  0  0  0  0  0
  129.3380  126.7270   64.8460 C   0  0  0  0  0  0  0  0  0  0  0  0
  129.1070  126.9800   66.2710 C   0  0  0  0  0  0  0  0  0  0  0  0
  128.3480  128.0980   66.6940 C   0  0  0  0  0  0  0  0  0  0  0  0
  127.6890  129.0790   65.7050 C   0  0  0  0  0  0  0  0  0  0  0  0
  128.3410  130.2400   65.6160 F   0  0  0  0  0  0  0  0  0  0  0  0
  127.6580  128.5410   64.4850 F   0  0  0  0  0  0  0  0  0  0  0  0
  126.4430  129.3510   66.0900 F   0  0  0  0  0  0  0  0  0  0  0  0
  128.1960  128.3230   68.0710 C   0  0  0  0  0  0  0  0  0  0  0  0
  128.7860  127.4590   68.9990 C   0  0  0  0  0  0  0  0  0  0  0  0
  128.6650  127.6570   70.4800 C   0  0  0  0  0  0  0  0  0  0  0  0
  129.6050  128.4320   71.1780 C   0  0  0  0  0  0  0  0  0  0  0  0
  129.4970  128.6240   72.5520 C   0  0  0  0  0  0  0  0  0  0  0  0
  128.4420  128.0440   73.2490 C   0  0  0  0  0  0  0  0  0  0  0  0
  127.4960  127.2740   72.5810 C   0  0  0  0  0  0  0  0  0  0  0  0
  127.6070  127.0840   71.2070 C   0  0  0  0  0  0  0  0  0  0  0  0
  129.5200  126.3930   68.5890 N   0  0  0  0  0  0  0  0  0  0  0  0
  129.6610  126.1410   67.2650 C   0  0  0  0  0  0  0  0  0  0  0  0
  130.6350  124.6910   66.9190 S   0  0  0  0  0  0  0  0  0  0  0  0
  129.8650  123.8230   65.5100 C   0  0  0  0  0  0  0  0  0  0  0  0
  130.7660  123.6610   64.2770 C   0  0  0  0  0  0  0  0  0  0  0  0
  130.2860  123.3700   63.1790 O   0  0  0  0  0  0  0  0  0  0  0  0
  132.0830  123.8620   64.5100 N   0  0  0  0  0  0  0  0  0  0  0  0
  133.1210  123.7900   63.5900 C   0  0  0  0  0  0  0  0  0  0  0  0
  133.2110  122.7930   62.6200 C   0  0  0  0  0  0  0  0  0  0  0  0
  134.3650  123.0720   61.9250 C   0  0  0  0  0  0  0  0  0  0  0  0
  134.9400  124.1810   62.4480 O   0  0  0  0  0  0  0  0  0  0  0  0
  134.1420  124.6270   63.5030 N   0  0  0  0  0  0  0  0  0  0  0  0
  1  2  3  0
  2  3  1  0
  3  4  2  0
  4  5  1  0
  5  6  1  0
  5  7  1  0
  5  8  1  0
  4  9  1  0
  9 10  2  0
 10 11  1  0
 11 12  2  0
 12 13  1  0
 13 14  2  0
 14 15  1  0
 15 16  2  0
 10 17  1  0
 17 18  2  0
 18 19  1  0
 19 20  1  0
 20 21  1  0
 21 22  2  0
 21 23  1  0
 23 24  1  0
 24 25  1  0
 25 26  2  0
 26 27  1  0
 27 28  1  0
 18  3  1  0
 28 24  2  0
 16 11  1  0
M  END
>  <Binding energies>  (29) 
[-7.1]

>  <Ligand effiencies>  (29) 
[-0.24482758620689654]

>  <Interactions>  (29) 
["V-B:HIS:456:CE1:9041, V-A:GLU:543:CG:4907, V-B:GLU:543:CD:9880, V-A:TYR:484:CE2:4346, V-B:GLU:543:CG:9879, V-B:TYR:484:CZ:9318, V-B:HIS:456:CD2:9039, V-A:GLU:543:CD:4908, V-B:HIS:456:CG:9037, V-A:HIS:456:CE1:4070, V-A:GLU:543:CB:4906, V-B:GLY:544:C:9884, V-A:TYR:484:CZ:4347, V-B:GLU:543:CB:9878, V-B:LYS:547:CE:9922, V-A:GLY:454:CA:4049, V-A:LEU:475:CD2:4259, V-A:ILE:369:CD1:3239, V-A:GLU:543:C:4902, H-A:TYR:484:OH:4348, H-A:GLY:454:N:4050, H-A:ARG:545:NH1:4927, H-A:ARG:545:NH2:4928, V-B:TYR:484:CE2:9317"]

$$$$
3aj_Grossjean_2025
     RDKit          3D

 28 30  0  0  0  0  0  0  0  0999 V2000
  133.9380  124.6930   64.2600 N   0  0  0  0  0  0  0  0  0  0  0  0
  133.0210  124.4770   63.5890 C   0  0  0  0  0  0  0  0  0  0  0  0
  131.8610  124.2020   62.7370 C   0  0  0  0  0  0  0  0  0  0  0  0
  131.9810  123.3700   61.5970 C   0  0  0  0  0  0  0  0  0  0  0  0
  133.3020  122.6780   61.2080 C   0  0  0  0  0  0  0  0  0  0  0  0
  133.8200  121.9550   62.2040 F   0  0  0  0  0  0  0  0  0  0  0  0
  133.1000  121.8570   60.1770 F   0  0  0  0  0  0  0  0  0  0  0  0
  134.2110  123.5900   60.8630 F   0  0  0  0  0  0  0  0  0  0  0  0
  130.8510  123.1760   60.7870 C   0  0  0  0  0  0  0  0  0  0  0  0
  129.6380  123.7970   61.1040 C   0  0  0  0  0  0  0  0  0  0  0  0
  128.4050  123.6310   60.2690 C   0  0  0  0  0  0  0  0  0  0  0  0
  127.1610  124.0870   60.7300 C   0  0  0  0  0  0  0  0  0  0  0  0
  126.0120  123.9410   59.9580 C   0  0  0  0  0  0  0  0  0  0  0  0
  126.0930  123.3320   58.7090 C   0  0  0  0  0  0  0  0  0  0  0  0
  127.3150  122.8730   58.2280 C   0  0  0  0  0  0  0  0  0  0  0  0
  128.4610  123.0240   59.0030 C   0  0  0  0  0  0  0  0  0  0  0  0
  129.5300  124.5990   62.1940 N   0  0  0  0  0  0  0  0  0  0  0  0
  130.6000  124.7830   63.0040 C   0  0  0  0  0  0  0  0  0  0  0  0
  130.2640  125.8450   64.3920 S   0  0  0  0  0  0  0  0  0  0  0  0
  131.0090  125.0810   65.8730 C   0  0  0  0  0  0  0  0  0  0  0  0
  130.2310  125.3030   67.1790 C   0  0  0  0  0  0  0  0  0  0  0  0
  129.5400  124.4040   67.6630 O   0  0  0  0  0  0  0  0  0  0  0  0
  130.3780  126.5330   67.7210 N   0  0  0  0  0  0  0  0  0  0  0  0
  129.7970  126.9960   68.8940 C   0  0  0  0  0  0  0  0  0  0  0  0
  128.5890  126.7460   69.3510 N   0  0  0  0  0  0  0  0  0  0  0  0
  128.3700  127.3500   70.5020 C   0  0  0  0  0  0  0  0  0  0  0  0
  129.4200  128.1150   71.0050 C   0  0  0  0  0  0  0  0  0  0  0  0
  130.7590  128.0320   69.9000 S   0  0  0  0  0  0  0  0  0  0  0  0
  1  2  3  0
  2  3  1  0
  3  4  2  0
  4  5  1  0
  5  6  1  0
  5  7  1  0
  5  8  1  0
  4  9  1  0
  9 10  2  0
 10 11  1  0
 11 12  2  0
 12 13  1  0
 13 14  2  0
 14 15  1  0
 15 16  2  0
 10 17  1  0
 17 18  2  0
 18 19  1  0
 19 20  1  0
 20 21  1  0
 21 22  2  0
 21 23  1  0
 23 24  1  0
 24 25  2  0
 25 26  1  0
 26 27  2  0
 27 28  1  0
 18  3  1  0
 28 24  1  0
 16 11  1  0
M  END
>  <Binding energies>  (30) 
[-7.17]

>  <Ligand effiencies>  (30) 
[-0.24724137931034482]

>  <Interactions>  (30) 
["V-B:HIS:456:CE1:9041, V-A:TYR:484:CE2:4346, V-B:GLU:543:CG:9879, V-A:GLU:543:CD:4908, V-A:HIS:456:CE1:4070, V-A:GLU:543:CB:4906, V-A:TYR:484:CZ:4347, V-B:GLU:543:CB:9878, V-B:TYR:539:CD2:9846, V-B:TYR:539:CE2:9848, V-A:GLY:454:CA:4049, V-B:PRO:540:CA:9855, V-A:LEU:475:CD2:4259, V-B:PRO:540:CB:9857, V-B:PRO:540:N:9856, V-B:TYR:539:C:9839, V-A:ILE:369:CG2:3237, V-A:ILE:369:CD1:3239, V-A:GLU:543:C:4902, V-A:GLY:544:C:4912, V-B:TYR:539:CZ:9849, V-A:ILE:369:CB:3236, H-A:TYR:484:OH:4348, H-A:GLU:543:OE2:4910, H-A:GLY:454:N:4050, H-A:ARG:545:NH1:4927, H-A:ARG:545:NE:4924, V-A:ARG:545:CZ:4926, H-A:ARG:545:NH2:4928"]

$$$$
3ak_Grossjean_2025
     RDKit          3D

 33 34  0  0  0  0  0  0  0  0999 V2000
  125.3950  122.7900   56.9080 C   0  0  0  0  0  0  0  0  0  0  0  0
  126.6200  122.0830   56.7910 O   0  0  0  0  0  0  0  0  0  0  0  0
  127.7600  122.8740   57.0940 C   0  0  0  0  0  0  0  0  0  0  0  0
  127.4720  123.7070   58.3490 C   0  0  0  0  0  0  0  0  0  0  0  0
  127.5910  122.8720   59.4960 O   0  0  0  0  0  0  0  0  0  0  0  0
  128.9040  122.3940   59.7740 C   0  0  0  0  0  0  0  0  0  0  0  0
  129.4700  122.8820   61.1200 C   0  0  0  0  0  0  0  0  0  0  0  0
  130.7870  123.3760   60.9210 O   0  0  0  0  0  0  0  0  0  0  0  0
  130.8940  124.7900   61.0240 C   0  0  0  0  0  0  0  0  0  0  0  0
  132.1340  125.1700   61.8540 C   0  0  0  0  0  0  0  0  0  0  0  0
  131.8700  125.2650   63.2910 N   0  0  0  0  0  0  0  0  0  0  0  0
  132.7770  125.0990   64.2740 C   0  0  0  0  0  0  0  0  0  0  0  0
  133.9640  124.8580   64.0520 O   0  0  0  0  0  0  0  0  0  0  0  0
  132.3140  125.2130   65.7360 C   0  0  0  0  0  0  0  0  0  0  0  0
  130.5990  124.6820   66.0940 S   0  0  0  0  0  0  0  0  0  0  0  0
  129.6700  126.0940   66.6730 C   0  0  0  0  0  0  0  0  0  0  0  0
  129.6100  126.2450   68.0190 N   0  0  0  0  0  0  0  0  0  0  0  0
  128.9220  127.2840   68.5550 C   0  0  0  0  0  0  0  0  0  0  0  0
  128.9090  127.3750   70.0520 C   0  0  0  0  0  0  0  0  0  0  0  0
  130.0180  127.8770   70.7500 C   0  0  0  0  0  0  0  0  0  0  0  0
  130.0100  127.9670   72.1400 C   0  0  0  0  0  0  0  0  0  0  0  0
  128.8880  127.5560   72.8510 C   0  0  0  0  0  0  0  0  0  0  0  0
  127.7750  127.0580   72.1840 C   0  0  0  0  0  0  0  0  0  0  0  0
  127.7860  126.9700   70.7950 C   0  0  0  0  0  0  0  0  0  0  0  0
  128.2830  128.2200   67.7350 C   0  0  0  0  0  0  0  0  0  0  0  0
  128.3300  128.0880   66.3390 C   0  0  0  0  0  0  0  0  0  0  0  0
  127.6110  129.1370   65.4690 C   0  0  0  0  0  0  0  0  0  0  0  0
  126.3680  129.3240   65.9120 F   0  0  0  0  0  0  0  0  0  0  0  0
  128.2660  130.2980   65.5170 F   0  0  0  0  0  0  0  0  0  0  0  0
  127.5300  128.7780   64.1860 F   0  0  0  0  0  0  0  0  0  0  0  0
  129.0410  126.9960   65.7870 C   0  0  0  0  0  0  0  0  0  0  0  0
  129.1240  126.8070   64.3350 C   0  0  0  0  0  0  0  0  0  0  0  0
  129.1900  126.6580   63.1890 N   0  0  0  0  0  0  0  0  0  0  0  0
  1  2  1  0
  2  3  1  0
  3  4  1  0
  4  5  1  0
  5  6  1  0
  6  7  1  0
  7  8  1  0
  8  9  1  0
  9 10  1  0
 10 11  1  0
 11 12  1  0
 12 13  2  0
 12 14  1  0
 14 15  1  0
 15 16  1  0
 16 17  2  0
 17 18  1  0
 18 19  1  0
 19 20  2  0
 20 21  1  0
 21 22  2  0
 22 23  1  0
 23 24  2  0
 18 25  2  0
 25 26  1  0
 26 27  1  0
 27 28  1  0
 27 29  1  0
 27 30  1  0
 26 31  2  0
 31 32  1  0
 32 33  3  0
 31 16  1  0
 24 19  1  0
M  END
>  <Binding energies>  (31) 
[-6.9]

>  <Ligand effiencies>  (31) 
[-0.20294117647058824]

>  <Interactions>  (31) 
["V-B:HIS:456:CE1:9041, V-A:GLU:543:CG:4907, V-B:GLU:543:CD:9880, V-B:GLU:543:CG:9879, V-B:TYR:484:CZ:9318, V-B:HIS:456:CD2:9039, V-B:GLU:543:C:9874, V-A:GLU:543:CD:4908, V-A:HIS:456:CE1:4070, V-A:GLU:543:CB:4906, V-B:GLY:544:C:9884, V-A:TYR:484:CZ:4347, V-B:GLU:543:CB:9878, V-B:TYR:539:CD2:9846, V-B:TYR:539:CE2:9848, V-B:PRO:540:CA:9855, V-B:PRO:540:CD:9859, V-B:PRO:540:CB:9857, V-B:PRO:540:N:9856, V-B:TYR:539:C:9839, V-B:LEU:363:CD1:8160, V-B:TYR:539:CG:9844, V-B:TYR:539:CD1:9845, V-B:MET:535:CE:9807, V-B:TYR:539:CE1:9847, V-B:TYR:539:CZ:9849, V-B:PRO:540:CG:9858, H-A:TYR:484:OH:4348, H-A:GLU:543:OE2:4910, H-A:GLY:454:N:4050, H-A:ARG:545:NH1:4927, H-A:ARG:545:NE:4924, V-A:ARG:545:CZ:4926, H-A:ARG:545:NH2:4928, H-B:TYR:539:N:9842, V-B:TYR:484:CE2:9317"]

$$$$
3bk_Grossjean_2025
     RDKit          3D

 30 31  0  0  0  0  0  0  0  0999 V2000
  132.9410  131.4590   62.2890 C   0  0  0  0  0  0  0  0  0  0  0  0
  131.7390  132.2050   62.4060 O   0  0  0  0  0  0  0  0  0  0  0  0
  130.6120  131.5550   61.8340 C   0  0  0  0  0  0  0  0  0  0  0  0
  131.0840  130.4410   60.8890 C   0  0  0  0  0  0  0  0  0  0  0  0
  131.0100  130.9000   59.5460 O   0  0  0  0  0  0  0  0  0  0  0  0
  132.2580  130.8890   58.8660 C   0  0  0  0  0  0  0  0  0  0  0  0
  132.3010  129.6920   57.9070 C   0  0  0  0  0  0  0  0  0  0  0  0
  131.1900  128.8440   58.1610 O   0  0  0  0  0  0  0  0  0  0  0  0
  131.4700  127.7840   59.0670 C   0  0  0  0  0  0  0  0  0  0  0  0
  131.8170  126.5140   58.2750 C   0  0  0  0  0  0  0  0  0  0  0  0
  132.3350  125.4470   59.1330 N   0  0  0  0  0  0  0  0  0  0  0  0
  133.1830  124.4780   58.7480 C   0  0  0  0  0  0  0  0  0  0  0  0
  133.6450  124.3870   57.6100 O   0  0  0  0  0  0  0  0  0  0  0  0
  133.5940  123.4660   59.8200 C   0  0  0  0  0  0  0  0  0  0  0  0
  133.7280  124.2330   61.4660 S   0  0  0  0  0  0  0  0  0  0  0  0
  132.1100  124.2800   62.2190 C   0  0  0  0  0  0  0  0  0  0  0  0
  131.0600  124.0790   61.3820 N   0  0  0  0  0  0  0  0  0  0  0  0
  129.7910  124.1010   61.8670 C   0  0  0  0  0  0  0  0  0  0  0  0
  128.6920  123.8490   60.8790 C   0  0  0  0  0  0  0  0  0  0  0  0
  127.3450  123.9850   61.2530 C   0  0  0  0  0  0  0  0  0  0  0  0
  126.3200  123.7470   60.3410 C   0  0  0  0  0  0  0  0  0  0  0  0
  126.6280  123.3700   59.0380 C   0  0  0  0  0  0  0  0  0  0  0  0
  127.9550  123.2330   58.6400 C   0  0  0  0  0  0  0  0  0  0  0  0
  128.9760  123.4730   59.5550 C   0  0  0  0  0  0  0  0  0  0  0  0
  129.5460  124.3220   63.2270 C   0  0  0  0  0  0  0  0  0  0  0  0
  130.6160  124.5320   64.1030 C   0  0  0  0  0  0  0  0  0  0  0  0
  130.3040  124.7710   65.5800 C   0  0  0  0  0  0  0  0  0  0  0  0
  131.9330  124.5130   63.6000 C   0  0  0  0  0  0  0  0  0  0  0  0
  133.0740  124.7270   64.4950 C   0  0  0  0  0  0  0  0  0  0  0  0
  133.9750  124.8970   65.2020 N   0  0  0  0  0  0  0  0  0  0  0  0
  1  2  1  0
  2  3  1  0
  3  4  1  0
  4  5  1  0
  5  6  1  0
  6  7  1  0
  7  8  1  0
  8  9  1  0
  9 10  1  0
 10 11  1  0
 11 12  1  0
 12 13  2  0
 12 14  1  0
 14 15  1  0
 15 16  1  0
 16 17  2  0
 17 18  1  0
 18 19  1  0
 19 20  2  0
 20 21  1  0
 21 22  2  0
 22 23  1  0
 23 24  2  0
 18 25  2  0
 25 26  1  0
 26 27  1  0
 26 28  2  0
 28 29  1  0
 29 30  3  0
 28 16  1  0
 24 19  1  0
M  END
>  <Binding energies>  (32) 
[-6.64]

>  <Ligand effiencies>  (32) 
[-0.21419354838709675]

>  <Interactions>  (32) 
["V-B:GLU:543:CD:9880, V-B:GLU:543:CG:9879, V-A:GLU:543:CD:4908, V-B:TYR:539:CD2:9846, V-B:TYR:539:CE2:9848, V-B:PRO:540:CA:9855, V-B:PRO:540:CB:9857, V-B:PRO:540:N:9856, V-A:ILE:369:CG2:3237, V-A:ILE:369:CD1:3239, H-B:TYR:539:OH:9850, V-B:TYR:539:CZ:9849, V-A:ASP:366:CB:3212, H-A:TYR:531:OH:4795, V-A:ASP:366:CG:3213, V-A:ASP:366:CA:3210, V-A:ILE:369:CB:3236, H-A:TYR:484:OH:4348, H-A:ASP:366:OD1:3214, V-A:PRO:540:CB:4885, H-A:GLY:454:N:4050, H-A:ARG:545:NE:4924, V-A:ARG:545:CZ:4926, H-A:ARG:545:NH2:4928, V-A:TYR:531:CE2:4793, V-A:TYR:531:CZ:4794, V-A:ASN:362:CB:3176, H-A:ALA:541:N:4891"]

$$$$
3cb_Grossjean_2025
     RDKit          3D

 30 32  0  0  0  0  0  0  0  0999 V2000
  129.4040  130.9420   73.3060 C   0  0  0  0  0  0  0  0  0  0  0  0
  129.8210  129.6150   73.5920 O   0  0  0  0  0  0  0  0  0  0  0  0
  129.0610  128.5500   73.2280 C   0  0  0  0  0  0  0  0  0  0  0  0
  128.2350  128.0160   73.9750 O   0  0  0  0  0  0  0  0  0  0  0  0
  129.3280  128.0820   71.8260 C   0  0  0  0  0  0  0  0  0  0  0  0
  128.3700  127.3770   71.0820 C   0  0  0  0  0  0  0  0  0  0  0  0
  128.6480  126.9600   69.7840 C   0  0  0  0  0  0  0  0  0  0  0  0
  129.8870  127.2320   69.2020 C   0  0  0  0  0  0  0  0  0  0  0  0
  130.0600  126.7670   67.8830 N   0  0  0  0  0  0  0  0  0  0  0  0
  130.0060  125.5100   67.3920 C   0  0  0  0  0  0  0  0  0  0  0  0
  129.7620  124.5030   68.0580 O   0  0  0  0  0  0  0  0  0  0  0  0
  130.2590  125.4060   65.8800 C   0  0  0  0  0  0  0  0  0  0  0  0
  130.5270  123.7100   65.2600 S   0  0  0  0  0  0  0  0  0  0  0  0
  130.2630  123.7260   63.4990 C   0  0  0  0  0  0  0  0  0  0  0  0
  129.0140  123.3430   63.1370 N   0  0  0  0  0  0  0  0  0  0  0  0
  128.6990  123.3170   61.8230 C   0  0  0  0  0  0  0  0  0  0  0  0
  127.2810  122.8910   61.4930 C   0  0  0  0  0  0  0  0  0  0  0  0
  129.6070  123.6630   60.8270 C   0  0  0  0  0  0  0  0  0  0  0  0
  130.9090  124.0470   61.1760 C   0  0  0  0  0  0  0  0  0  0  0  0
  131.8490  124.4030   60.0700 C   0  0  0  0  0  0  0  0  0  0  0  0
  133.0190  123.6590   59.8740 C   0  0  0  0  0  0  0  0  0  0  0  0
  133.8960  123.9750   58.8390 C   0  0  0  0  0  0  0  0  0  0  0  0
  133.6030  125.0400   57.9910 C   0  0  0  0  0  0  0  0  0  0  0  0
  132.4410  125.7860   58.1670 C   0  0  0  0  0  0  0  0  0  0  0  0
  131.5650  125.4650   59.2010 C   0  0  0  0  0  0  0  0  0  0  0  0
  131.2600  124.0660   62.5510 C   0  0  0  0  0  0  0  0  0  0  0  0
  132.6320  124.3690   62.9680 C   0  0  0  0  0  0  0  0  0  0  0  0
  133.7150  124.6080   63.2980 N   0  0  0  0  0  0  0  0  0  0  0  0
  130.8500  127.9410   69.9380 C   0  0  0  0  0  0  0  0  0  0  0  0
  130.5700  128.3580   71.2370 C   0  0  0  0  0  0  0  0  0  0  0  0
  1  2  1  0
  2  3  1  0
  3  4  2  0
  3  5  1  0
  5  6  2  0
  6  7  1  0
  7  8  2  0
  8  9  1  0
  9 10  1  0
 10 11  2  0
 10 12  1  0
 12 13  1  0
 13 14  1  0
 14 15  2  0
 15 16  1  0
 16 17  1  0
 16 18  2  0
 18 19  1  0
 19 20  1  0
 20 21  2  0
 21 22  1  0
 22 23  2  0
 23 24  1  0
 24 25  2  0
 19 26  2  0
 26 27  1  0
 27 28  3  0
  8 29  1  0
 29 30  2  0
 30  5  1  0
 26 14  1  0
 25 20  1  0
M  END
>  <Binding energies>  (33) 
[-8.44]

>  <Ligand effiencies>  (33) 
[-0.272258064516129]

>  <Interactions>  (33) 
["V-B:HIS:456:CE1:9041, V-B:GLU:543:CG:9879, V-B:HIS:456:CD2:9039, V-B:GLU:543:C:9874, V-A:GLU:543:CD:4908, V-A:HIS:456:CE1:4070, V-A:GLU:543:CB:4906, V-B:GLU:543:CB:9878, V-B:TYR:539:CE2:9848, V-B:PRO:540:CA:9855, V-A:ILE:369:CG2:3237, H-B:LYS:547:NZ:9923, V-A:GLU:543:C:4902, V-A:GLY:544:C:4912, V-B:PRO:540:C:9853, H-A:LYS:547:NZ:4951, V-A:ASP:366:CB:3212, V-A:ASP:366:CG:3213, V-A:ASP:366:CA:3210, V-A:ILE:369:CB:3236, H-A:TYR:484:OH:4348, H-A:GLU:543:OE2:4910, V-A:ASP:366:C:3208, H-A:GLY:454:N:4050, H-A:ARG:545:NH2:4928, V-A:LYS:547:CE:4950, V-A:GLY:544:CA:4914"]

$$$$
3ch_Grossjean_2025
     RDKit          3D

 32 34  0  0  0  0  0  0  0  0999 V2000
  132.7720  125.4250   58.4790 C   0  0  0  0  0  0  0  0  0  0  0  0
  133.0130  124.5880   59.6060 O   0  0  0  0  0  0  0  0  0  0  0  0
  132.5920  124.9950   60.8600 C   0  0  0  0  0  0  0  0  0  0  0  0
  131.4230  125.7360   61.0940 C   0  0  0  0  0  0  0  0  0  0  0  0
  131.0540  126.1050   62.3960 C   0  0  0  0  0  0  0  0  0  0  0  0
  129.9010  126.8410   62.7290 N   0  0  0  0  0  0  0  0  0  0  0  0
  128.6240  126.6760   62.3190 C   0  0  0  0  0  0  0  0  0  0  0  0
  128.2270  125.7990   61.5520 O   0  0  0  0  0  0  0  0  0  0  0  0
  127.6110  127.6550   62.9110 C   0  0  0  0  0  0  0  0  0  0  0  0
  128.3390  128.6940   64.2130 S   0  0  0  0  0  0  0  0  0  0  0  0
  128.7940  127.5880   65.5310 C   0  0  0  0  0  0  0  0  0  0  0  0
  129.2330  126.3780   65.1060 N   0  0  0  0  0  0  0  0  0  0  0  0
  129.5970  125.4610   66.0310 C   0  0  0  0  0  0  0  0  0  0  0  0
  130.0720  124.1270   65.4880 C   0  0  0  0  0  0  0  0  0  0  0  0
  129.5370  125.7110   67.4000 C   0  0  0  0  0  0  0  0  0  0  0  0
  129.0930  126.9600   67.8590 C   0  0  0  0  0  0  0  0  0  0  0  0
  129.0360  127.1800   69.3360 C   0  0  0  0  0  0  0  0  0  0  0  0
  130.1600  127.6570   70.0200 C   0  0  0  0  0  0  0  0  0  0  0  0
  130.1180  127.8560   71.3970 C   0  0  0  0  0  0  0  0  0  0  0  0
  128.9480  127.5750   72.0980 C   0  0  0  0  0  0  0  0  0  0  0  0
  127.8230  127.0930   71.4340 C   0  0  0  0  0  0  0  0  0  0  0  0
  127.8700  126.8940   70.0560 C   0  0  0  0  0  0  0  0  0  0  0  0
  128.7270  127.9380   66.9000 C   0  0  0  0  0  0  0  0  0  0  0  0
  128.3460  129.2910   67.3190 C   0  0  0  0  0  0  0  0  0  0  0  0
  128.0440  130.3580   67.6500 N   0  0  0  0  0  0  0  0  0  0  0  0
  131.8770  125.7430   63.4640 C   0  0  0  0  0  0  0  0  0  0  0  0
  133.0520  125.0040   63.2550 C   0  0  0  0  0  0  0  0  0  0  0  0
  133.9060  124.6070   64.2700 O   0  0  0  0  0  0  0  0  0  0  0  0
  133.6970  125.0930   65.5910 C   0  0  0  0  0  0  0  0  0  0  0  0
  133.3990  124.6380   61.9480 C   0  0  0  0  0  0  0  0  0  0  0  0
  134.5380  123.8990   61.7320 O   0  0  0  0  0  0  0  0  0  0  0  0
  134.3240  122.4950   61.7190 C   0  0  0  0  0  0  0  0  0  0  0  0
  1  2  1  0
  2  3  1  0
  3  4  2  0
  4  5  1  0
  5  6  1  0
  6  7  1  0
  7  8  2  0
  7  9  1  0
  9 10  1  0
 10 11  1  0
 11 12  2  0
 12 13  1  0
 13 14  1  0
 13 15  2  0
 15 16  1  0
 16 17  1  0
 17 18  2  0
 18 19  1  0
 19 20  2  0
 20 21  1  0
 21 22  2  0
 16 23  2  0
 23 24  1  0
 24 25  3  0
  5 26  2  0
 26 27  1  0
 27 28  1  0
 28 29  1  0
 27 30  2  0
 30 31  1  0
 31 32  1  0
 30  3  1  0
 23 11  1  0
 22 17  1  0
M  END
>  <Binding energies>  (34) 
[-7.07]

>  <Ligand effiencies>  (34) 
[-0.21424242424242426]

>  <Interactions>  (34) 
["V-B:HIS:456:CE1:9041, V-A:GLU:543:CG:4907, V-B:GLU:543:CD:9880, V-A:TYR:484:CE2:4346, V-B:GLU:543:CG:9879, H-B:TYR:484:OH:9319, V-B:TYR:484:CZ:9318, V-B:HIS:456:CD2:9039, V-B:GLU:543:C:9874, V-A:GLU:543:CD:4908, V-A:HIS:456:CE1:4070, V-A:GLU:543:CB:4906, V-B:GLY:544:C:9884, V-A:TYR:484:CZ:4347, V-B:GLU:543:CB:9878, V-B:GLU:543:CA:9876, V-A:GLY:454:CA:4049, V-A:ILE:369:CG2:3237, V-A:ILE:369:CD1:3239, V-A:ARG:545:CG:4922, V-A:ASP:366:CB:3212, V-A:ASP:366:CG:3213, V-A:ASP:366:CA:3210, H-A:TYR:484:OH:4348, H-A:GLU:543:OE2:4910, H-A:GLY:454:N:4050, H-A:ARG:545:NE:4924, V-A:ARG:545:CZ:4926, H-A:ARG:545:NH2:4928, V-A:ARG:545:CD:4923, H-A:GLU:543:OE1:4909"]

$$$$
3ci_Grossjean_2025
     RDKit          3D

 25 27  0  0  0  0  0  0  0  0999 V2000
  128.3520  122.0960   61.6620 C   0  0  0  0  0  0  0  0  0  0  0  0
  129.4670  122.7200   62.4810 C   0  0  0  0  0  0  0  0  0  0  0  0
  129.2000  123.5660   63.5530 C   0  0  0  0  0  0  0  0  0  0  0  0
  130.2640  124.1050   64.2910 C   0  0  0  0  0  0  0  0  0  0  0  0
  129.9300  124.9960   65.4430 C   0  0  0  0  0  0  0  0  0  0  0  0
  129.4020  126.2760   65.2290 C   0  0  0  0  0  0  0  0  0  0  0  0
  129.1010  127.1060   66.3060 C   0  0  0  0  0  0  0  0  0  0  0  0
  129.3330  126.6600   67.6040 C   0  0  0  0  0  0  0  0  0  0  0  0
  129.8650  125.3940   67.8330 C   0  0  0  0  0  0  0  0  0  0  0  0
  130.1650  124.5670   66.7550 C   0  0  0  0  0  0  0  0  0  0  0  0
  131.5880  123.7740   63.9050 C   0  0  0  0  0  0  0  0  0  0  0  0
  132.7410  124.3420   64.6120 C   0  0  0  0  0  0  0  0  0  0  0  0
  133.6500  124.7900   65.1720 N   0  0  0  0  0  0  0  0  0  0  0  0
  131.7690  122.9010   62.8050 C   0  0  0  0  0  0  0  0  0  0  0  0
  133.3920  122.3990   62.2470 S   0  0  0  0  0  0  0  0  0  0  0  0
  133.3270  121.9970   60.4700 C   0  0  0  0  0  0  0  0  0  0  0  0
  132.8620  120.5650   60.1870 C   0  0  0  0  0  0  0  0  0  0  0  0
  133.5210  119.8570   59.4240 O   0  0  0  0  0  0  0  0  0  0  0  0
  131.7220  120.1850   60.8060 N   0  0  0  0  0  0  0  0  0  0  0  0
  131.1040  118.9440   60.7440 C   0  0  0  0  0  0  0  0  0  0  0  0
  130.1180  118.5390   61.6420 C   0  0  0  0  0  0  0  0  0  0  0  0
  129.7730  117.2660   61.2460 C   0  0  0  0  0  0  0  0  0  0  0  0
  130.5130  116.9250   60.1640 O   0  0  0  0  0  0  0  0  0  0  0  0
  131.3540  117.9950   59.8560 N   0  0  0  0  0  0  0  0  0  0  0  0
  130.7230  122.3930   62.1060 N   0  0  0  0  0  0  0  0  0  0  0  0
  1  2  1  0
  2  3  2  0
  3  4  1  0
  4  5  1  0
  5  6  2  0
  6  7  1  0
  7  8  2  0
  8  9  1  0
  9 10  2  0
  4 11  2  0
 11 12  1  0
 12 13  3  0
 11 14  1  0
 14 15  1  0
 15 16  1  0
 16 17  1  0
 17 18  2  0
 17 19  1  0
 19 20  1  0
 20 21  1  0
 21 22  2  0
 22 23  1  0
 23 24  1  0
 14 25  2  0
 25  2  1  0
 10  5  1  0
 24 20  2  0
M  END
>  <Binding energies>  (35) 
[-7.9]

>  <Ligand effiencies>  (35) 
[-0.3038461538461539]

>  <Interactions>  (35) 
["V-B:GLU:543:CD:9880, V-A:TYR:484:CE2:4346, V-B:GLU:543:CG:9879, V-A:GLU:543:CD:4908, V-A:HIS:456:CE1:4070, V-A:TYR:484:CZ:4347, V-B:GLU:543:CB:9878, V-B:GLU:543:CA:9876, V-B:TYR:539:CD2:9846, V-B:TYR:539:CE2:9848, V-B:PRO:540:CA:9855, V-A:LEU:475:CD2:4259, V-A:ILE:369:CG2:3237, V-B:ALA:541:CB:9864, V-B:PRO:540:C:9853, V-B:ALA:541:CA:9862, H-A:SER:385:OG:3410, H-A:TYR:484:OH:4348, H-A:GLY:454:N:4050, H-A:ARG:545:NE:4924, H-A:ARG:545:NH2:4928, V-A:SER:385:CB:3409, V-A:LEU:475:CD1:4258, V-A:LEU:475:CG:4257, V-A:HIS:383:NE2:3394, V-A:PRO:482:CG:4327, V-A:PRO:482:CB:4326, H-A:HIS:383:HE2:3395"]

$$$$
3ck_Grossjean_2025
     RDKit          3D

 30 31  0  0  0  0  0  0  0  0999 V2000
  134.2110  126.8270   74.7470 C   0  0  0  0  0  0  0  0  0  0  0  0
  132.8470  127.2170   74.7290 O   0  0  0  0  0  0  0  0  0  0  0  0
  132.1020  126.6240   73.6740 C   0  0  0  0  0  0  0  0  0  0  0  0
  130.6660  127.1630   73.6920 C   0  0  0  0  0  0  0  0  0  0  0  0
  130.6260  128.4160   73.0190 O   0  0  0  0  0  0  0  0  0  0  0  0
  129.3600  128.7260   72.4540 C   0  0  0  0  0  0  0  0  0  0  0  0
  128.9050  127.5580   71.5710 C   0  0  0  0  0  0  0  0  0  0  0  0
  128.9430  127.9800   70.2160 O   0  0  0  0  0  0  0  0  0  0  0  0
  128.6410  126.9670   69.2680 C   0  0  0  0  0  0  0  0  0  0  0  0
  127.3650  127.3480   68.4940 C   0  0  0  0  0  0  0  0  0  0  0  0
  127.6260  127.9240   67.1720 N   0  0  0  0  0  0  0  0  0  0  0  0
  128.1380  129.1460   66.9350 C   0  0  0  0  0  0  0  0  0  0  0  0
  128.4740  129.9220   67.8310 O   0  0  0  0  0  0  0  0  0  0  0  0
  128.2880  129.5240   65.4530 C   0  0  0  0  0  0  0  0  0  0  0  0
  127.9920  128.1700   64.2650 S   0  0  0  0  0  0  0  0  0  0  0  0
  129.1990  126.8800   64.5340 C   0  0  0  0  0  0  0  0  0  0  0  0
  129.1780  126.3060   65.7640 N   0  0  0  0  0  0  0  0  0  0  0  0
  130.0670  125.3260   66.0390 C   0  0  0  0  0  0  0  0  0  0  0  0
  129.9850  124.7340   67.4320 C   0  0  0  0  0  0  0  0  0  0  0  0
  131.0050  124.8820   65.1110 C   0  0  0  0  0  0  0  0  0  0  0  0
  131.0490  125.4640   63.8370 C   0  0  0  0  0  0  0  0  0  0  0  0
  132.0870  124.9720   62.8820 C   0  0  0  0  0  0  0  0  0  0  0  0
  131.7270  124.6020   61.5810 C   0  0  0  0  0  0  0  0  0  0  0  0
  132.6890  124.1330   60.6890 C   0  0  0  0  0  0  0  0  0  0  0  0
  134.0150  124.0270   61.0980 C   0  0  0  0  0  0  0  0  0  0  0  0
  134.3870  124.3830   62.3920 C   0  0  0  0  0  0  0  0  0  0  0  0
  133.4250  124.8520   63.2810 C   0  0  0  0  0  0  0  0  0  0  0  0
  130.1130  126.4860   63.5310 C   0  0  0  0  0  0  0  0  0  0  0  0
  130.0860  127.1030   62.2000 C   0  0  0  0  0  0  0  0  0  0  0  0
  130.0640  127.5890   61.1500 N   0  0  0  0  0  0  0  0  0  0  0  0
  1  2  1  0
  2  3  1  0
  3  4  1  0
  4  5  1  0
  5  6  1  0
  6  7  1  0
  7  8  1  0
  8  9  1  0
  9 10  1  0
 10 11  1  0
 11 12  1  0
 12 13  2  0
 12 14  1  0
 14 15  1  0
 15 16  1  0
 16 17  2  0
 17 18  1  0
 18 19  1  0
 18 20  2  0
 20 21  1  0
 21 22  1  0
 22 23  2  0
 23 24  1  0
 24 25  2  0
 25 26  1  0
 26 27  2  0
 21 28  2  0
 28 29  1  0
 29 30  3  0
 28 16  1  0
 27 22  1  0
M  END
>  <Binding energies>  (36) 
[-6.05]

>  <Ligand effiencies>  (36) 
[-0.19516129032258064]

>  <Interactions>  (36) 
["V-B:HIS:456:CE1:9041, V-A:HIS:456:CD2:4068, V-A:GLU:543:CG:4907, V-B:GLU:543:CD:9880, V-A:TYR:484:CE2:4346, V-B:GLU:543:CG:9879, H-B:TYR:484:OH:9319, V-B:HIS:456:CD2:9039, V-B:GLU:543:C:9874, V-A:GLU:543:CD:4908, V-A:HIS:456:CE1:4070, V-A:GLU:543:CB:4906, V-A:TYR:484:CZ:4347, V-B:GLU:543:CB:9878, V-B:GLU:543:CA:9876, V-A:ILE:369:CD1:3239, V-A:HIS:456:CB:4065, V-A:HIS:456:CG:4066, V-A:LYS:547:CG:4948, H-A:LYS:547:NZ:4951, V-A:GLY:453:CA:4044, V-A:GLY:453:C:4042, V-A:ARG:545:CZ:4926, H-B:GLU:543:OE1:9881, H-B:GLU:543:OE2:9882, V-A:ARG:545:C:4917"]

$$$$
4aa_Grossjean_2025
     RDKit          3D

 26 28  0  0  0  0  0  0  0  0999 V2000
  126.8360  129.1320   74.7730 C   0  0  0  0  0  0  0  0  0  0  0  0
  126.8590  128.0960   73.6440 C   0  0  0  0  0  0  0  0  0  0  0  0
  128.1910  127.6400   73.4490 O   0  0  0  0  0  0  0  0  0  0  0  0
  129.0960  128.3900   72.7690 C   0  0  0  0  0  0  0  0  0  0  0  0
  129.6550  129.3820   73.2490 O   0  0  0  0  0  0  0  0  0  0  0  0
  129.3490  127.8960   71.3750 C   0  0  0  0  0  0  0  0  0  0  0  0
  130.5940  128.1360   70.7780 C   0  0  0  0  0  0  0  0  0  0  0  0
  130.8570  127.6950   69.4840 C   0  0  0  0  0  0  0  0  0  0  0  0
  129.8860  126.9980   68.7640 C   0  0  0  0  0  0  0  0  0  0  0  0
  130.2550  126.6060   67.4620 N   0  0  0  0  0  0  0  0  0  0  0  0
  130.1600  125.4000   66.8540 C   0  0  0  0  0  0  0  0  0  0  0  0
  129.7450  124.3780   67.4020 O   0  0  0  0  0  0  0  0  0  0  0  0
  130.6180  125.3640   65.4630 C   0  0  0  0  0  0  0  0  0  0  0  0
  129.4530  125.4610   64.1400 S   0  0  0  0  0  0  0  0  0  0  0  0
  130.7240  125.3120   62.9480 C   0  0  0  0  0  0  0  0  0  0  0  0
  130.4680  125.3180   61.6390 N   0  0  0  0  0  0  0  0  0  0  0  0
  131.5420  125.1910   60.8220 C   0  0  0  0  0  0  0  0  0  0  0  0
  131.2290  125.1950   59.3370 C   0  0  0  0  0  0  0  0  0  0  0  0
  132.8520  125.0630   61.2790 C   0  0  0  0  0  0  0  0  0  0  0  0
  133.1170  125.0590   62.6530 C   0  0  0  0  0  0  0  0  0  0  0  0
  134.5640  124.9170   63.1030 C   0  0  0  0  0  0  0  0  0  0  0  0
  132.0160  125.1860   63.5410 C   0  0  0  0  0  0  0  0  0  0  0  0
  131.9260  125.2140   64.9770 C   0  0  0  0  0  0  0  0  0  0  0  0
  133.0320  125.1060   65.7810 N   0  0  0  0  0  0  0  0  0  0  0  0
  128.6350  126.7570   69.3490 C   0  0  0  0  0  0  0  0  0  0  0  0
  128.3720  127.2020   70.6430 C   0  0  0  0  0  0  0  0  0  0  0  0
  1  2  1  0
  2  3  1  0
  3  4  1  0
  4  5  2  0
  4  6  1  0
  6  7  2  0
  7  8  1  0
  8  9  2  0
  9 10  1  0
 10 11  1  0
 11 12  2  0
 11 13  1  0
 13 14  1  0
 14 15  1  0
 15 16  2  0
 16 17  1  0
 17 18  1  0
 17 19  2  0
 19 20  1  0
 20 21  1  0
 20 22  2  0
 22 23  1  0
 23 24  1  0
  9 25  1  0
 25 26  2  0
 26  6  1  0
 23 13  2  0
 22 15  1  0
M  END
>  <Binding energies>  (37) 
[-6.99]

>  <Ligand effiencies>  (37) 
[-0.2410344827586207]

>  <Interactions>  (37) 
["V-B:HIS:456:CE1:9041, V-B:GLU:543:CD:9880, V-B:GLU:543:CG:9879, V-B:HIS:456:CD2:9039, V-B:GLU:543:C:9874, V-A:GLU:543:CD:4908, V-B:HIS:456:CG:9037, V-A:HIS:456:CE1:4070, V-A:GLU:543:CB:4906, V-A:TYR:484:CZ:4347, V-B:GLU:543:CB:9878, V-B:LYS:547:CE:9922, V-B:TYR:539:CE2:9848, H-B:LYS:547:NZ:9923, V-A:GLU:543:C:4902, V-A:GLY:544:C:4912, H-A:LYS:547:NZ:4951, V-B:HIS:456:CB:9036, V-A:ASP:366:CG:3213, V-A:GLY:453:CA:4044, V-A:GLY:453:C:4042, H-A:TYR:484:OH:4348, H-A:GLU:543:OE2:4910, V-A:ARG:545:CZ:4926, V-A:ARG:545:CD:4923, H-A:GLU:543:OE1:4909"]

$$$$
4ab_Grossjean_2025
     RDKit          3D

 25 27  0  0  0  0  0  0  0  0999 V2000
  129.3980  130.7360   73.2820 C   0  0  0  0  0  0  0  0  0  0  0  0
  129.8830  129.4090   73.1340 O   0  0  0  0  0  0  0  0  0  0  0  0
  129.0560  128.4000   72.7620 C   0  0  0  0  0  0  0  0  0  0  0  0
  128.1790  127.9330   73.4970 O   0  0  0  0  0  0  0  0  0  0  0  0
  129.3170  127.9010   71.3700 C   0  0  0  0  0  0  0  0  0  0  0  0
  130.5440  128.1920   70.7590 C   0  0  0  0  0  0  0  0  0  0  0  0
  130.8150  127.7450   69.4680 C   0  0  0  0  0  0  0  0  0  0  0  0
  129.8730  126.9940   68.7670 C   0  0  0  0  0  0  0  0  0  0  0  0
  130.2490  126.6020   67.4680 N   0  0  0  0  0  0  0  0  0  0  0  0
  130.2050  125.3830   66.8770 C   0  0  0  0  0  0  0  0  0  0  0  0
  129.8400  124.3510   67.4420 O   0  0  0  0  0  0  0  0  0  0  0  0
  130.6560  125.3490   65.4840 C   0  0  0  0  0  0  0  0  0  0  0  0
  129.4840  125.4390   64.1670 S   0  0  0  0  0  0  0  0  0  0  0  0
  130.7490  125.2980   62.9680 C   0  0  0  0  0  0  0  0  0  0  0  0
  130.4860  125.3000   61.6610 N   0  0  0  0  0  0  0  0  0  0  0  0
  131.5570  125.1810   60.8380 C   0  0  0  0  0  0  0  0  0  0  0  0
  131.2360  125.1800   59.3550 C   0  0  0  0  0  0  0  0  0  0  0  0
  132.8700  125.0650   61.2870 C   0  0  0  0  0  0  0  0  0  0  0  0
  133.1420  125.0620   62.6600 C   0  0  0  0  0  0  0  0  0  0  0  0
  134.5930  124.9310   63.1010 C   0  0  0  0  0  0  0  0  0  0  0  0
  132.0450  125.1810   63.5550 C   0  0  0  0  0  0  0  0  0  0  0  0
  131.9620  125.2070   64.9900 C   0  0  0  0  0  0  0  0  0  0  0  0
  133.0730  125.1040   65.7890 N   0  0  0  0  0  0  0  0  0  0  0  0
  128.6390  126.7030   69.3680 C   0  0  0  0  0  0  0  0  0  0  0  0
  128.3680  127.1520   70.6580 C   0  0  0  0  0  0  0  0  0  0  0  0
  1  2  1  0
  2  3  1  0
  3  4  2  0
  3  5  1  0
  5  6  2  0
  6  7  1  0
  7  8  2  0
  8  9  1  0
  9 10  1  0
 10 11  2  0
 10 12  1  0
 12 13  1  0
 13 14  1  0
 14 15  2  0
 15 16  1  0
 16 17  1  0
 16 18  2  0
 18 19  1  0
 19 20  1  0
 19 21  2  0
 21 22  1  0
 22 23  1  0
  8 24  1  0
 24 25  2  0
 25  5  1  0
 22 12  2  0
 21 14  1  0
M  END
>  <Binding energies>  (38) 
[-7.04]

>  <Ligand effiencies>  (38) 
[-0.25142857142857145]

>  <Interactions>  (38) 
["V-B:HIS:456:CE1:9041, V-B:GLU:543:CD:9880, V-B:GLU:543:CG:9879, V-B:HIS:456:CD2:9039, V-B:GLU:543:C:9874, V-A:GLU:543:CD:4908, V-A:HIS:456:CE1:4070, V-A:GLU:543:CB:4906, V-A:TYR:484:CZ:4347, V-B:GLU:543:CB:9878, V-B:TYR:539:CE2:9848, H-B:LYS:547:NZ:9923, V-A:GLU:543:C:4902, V-A:GLY:544:C:4912, H-A:LYS:547:NZ:4951, V-A:ASP:366:CG:3213, V-A:GLY:453:CA:4044, V-A:GLY:453:C:4042, H-A:TYR:484:OH:4348, H-A:GLU:543:OE2:4910, V-A:ARG:545:CZ:4926, V-A:ARG:545:CD:4923, H-A:GLU:543:OE1:4909, V-A:LYS:547:CE:4950"]

$$$$
4ac_Grossjean_2025
     RDKit          3D

 23 25  0  0  0  0  0  0  0  0999 V2000
  128.6170  128.4500   73.2230 C   0  0  0  0  0  0  0  0  0  0  0  0
  129.3150  129.0680   72.1470 O   0  0  0  0  0  0  0  0  0  0  0  0
  129.5580  128.3440   70.9960 C   0  0  0  0  0  0  0  0  0  0  0  0
  130.8480  128.4240   70.4720 C   0  0  0  0  0  0  0  0  0  0  0  0
  131.1870  127.7280   69.3140 C   0  0  0  0  0  0  0  0  0  0  0  0
  130.2380  126.9330   68.6700 C   0  0  0  0  0  0  0  0  0  0  0  0
  130.6670  126.2780   67.5000 N   0  0  0  0  0  0  0  0  0  0  0  0
  130.3320  125.0510   67.0330 C   0  0  0  0  0  0  0  0  0  0  0  0
  129.5810  124.2710   67.6210 O   0  0  0  0  0  0  0  0  0  0  0  0
  130.9370  124.6810   65.7510 C   0  0  0  0  0  0  0  0  0  0  0  0
  132.4120  125.4750   65.1980 S   0  0  0  0  0  0  0  0  0  0  0  0
  132.4280  124.5270   63.7280 C   0  0  0  0  0  0  0  0  0  0  0  0
  133.3810  124.6690   62.8060 N   0  0  0  0  0  0  0  0  0  0  0  0
  133.2760  123.8750   61.7140 C   0  0  0  0  0  0  0  0  0  0  0  0
  134.3700  124.0520   60.6780 C   0  0  0  0  0  0  0  0  0  0  0  0
  132.2490  122.9520   61.5220 C   0  0  0  0  0  0  0  0  0  0  0  0
  131.2500  122.8050   62.4920 C   0  0  0  0  0  0  0  0  0  0  0  0
  130.1520  121.7850   62.2370 C   0  0  0  0  0  0  0  0  0  0  0  0
  131.3290  123.6200   63.6520 C   0  0  0  0  0  0  0  0  0  0  0  0
  130.4950  123.7280   64.8200 C   0  0  0  0  0  0  0  0  0  0  0  0
  129.3710  122.9590   64.9890 N   0  0  0  0  0  0  0  0  0  0  0  0
  128.9350  126.8580   69.1830 C   0  0  0  0  0  0  0  0  0  0  0  0
  128.6000  127.5560   70.3410 C   0  0  0  0  0  0  0  0  0  0  0  0
  1  2  1  0
  2  3  1  0
  3  4  2  0
  4  5  1  0
  5  6  2  0
  6  7  1  0
  7  8  1  0
  8  9  2  0
  8 10  1  0
 10 11  1  0
 11 12  1  0
 12 13  2  0
 13 14  1  0
 14 15  1  0
 14 16  2  0
 16 17  1  0
 17 18  1  0
 17 19  2  0
 19 20  1  0
 20 21  1  0
  6 22  1  0
 22 23  2  0
 23  3  1  0
 20 10  2  0
 19 12  1  0
M  END
>  <Binding energies>  (39) 
[-5.93]

>  <Ligand effiencies>  (39) 
[-0.22807692307692307]

>  <Interactions>  (39) 
["V-B:HIS:456:CE1:9041, V-A:TYR:484:CE2:4346, V-B:GLU:543:CG:9879, V-B:HIS:456:CD2:9039, V-A:GLU:543:CD:4908, V-A:HIS:456:CE1:4070, V-A:GLU:543:CB:4906, V-A:TYR:484:CZ:4347, V-B:GLU:543:CB:9878, V-A:LEU:475:CD2:4259, V-A:ILE:369:CG2:3237, V-A:ILE:369:CD1:3239, V-A:GLU:543:CA:4904, V-A:GLU:543:C:4902, V-A:ARG:545:CG:4922, V-A:GLY:544:C:4912, V-B:ALA:541:CB:9864, V-A:ASP:366:CG:3213, V-A:ASP:366:CA:3210, V-A:ILE:369:CB:3236, H-A:TYR:484:OH:4348, H-A:GLU:543:OE2:4910, V-A:ARG:545:CZ:4926, H-A:ARG:545:NH2:4928, H-B:VAL:542:O:9867, V-A:GLY:544:CA:4914"]

$$$$
4ad_Grossjean_2025
     RDKit          3D

 21 23  0  0  0  0  0  0  0  0999 V2000
  132.6050  121.0400   60.1510 C   0  0  0  0  0  0  0  0  0  0  0  0
  132.5890  122.0090   61.3180 C   0  0  0  0  0  0  0  0  0  0  0  0
  133.6210  122.9260   61.5050 C   0  0  0  0  0  0  0  0  0  0  0  0
  133.5860  123.8090   62.5910 C   0  0  0  0  0  0  0  0  0  0  0  0
  134.7370  124.7900   62.7550 C   0  0  0  0  0  0  0  0  0  0  0  0
  132.4750  123.7290   63.4740 C   0  0  0  0  0  0  0  0  0  0  0  0
  132.1240  124.4640   64.6600 C   0  0  0  0  0  0  0  0  0  0  0  0
  132.9140  125.4710   65.1560 N   0  0  0  0  0  0  0  0  0  0  0  0
  130.9160  124.0570   65.2470 C   0  0  0  0  0  0  0  0  0  0  0  0
  130.2720  124.5700   66.4580 C   0  0  0  0  0  0  0  0  0  0  0  0
  129.4680  123.8760   67.0840 O   0  0  0  0  0  0  0  0  0  0  0  0
  130.6360  125.8250   66.8210 N   0  0  0  0  0  0  0  0  0  0  0  0
  130.1780  126.6140   67.8940 C   0  0  0  0  0  0  0  0  0  0  0  0
  128.7970  126.6040   68.1150 C   0  0  0  0  0  0  0  0  0  0  0  0
  128.2480  127.3450   69.1580 C   0  0  0  0  0  0  0  0  0  0  0  0
  129.0810  128.0900   69.9880 C   0  0  0  0  0  0  0  0  0  0  0  0
  130.4590  128.0980   69.7870 C   0  0  0  0  0  0  0  0  0  0  0  0
  131.0110  127.3590   68.7440 C   0  0  0  0  0  0  0  0  0  0  0  0
  130.1750  122.7430   64.3320 S   0  0  0  0  0  0  0  0  0  0  0  0
  131.4850  122.7460   63.1730 C   0  0  0  0  0  0  0  0  0  0  0  0
  131.5160  121.9040   62.1390 N   0  0  0  0  0  0  0  0  0  0  0  0
  1  2  1  0
  2  3  2  0
  3  4  1  0
  4  5  1  0
  4  6  2  0
  6  7  1  0
  7  8  1  0
  7  9  2  0
  9 10  1  0
 10 11  2  0
 10 12  1  0
 12 13  1  0
 13 14  2  0
 14 15  1  0
 15 16  2  0
 16 17  1  0
 17 18  2  0
  9 19  1  0
 19 20  1  0
 20 21  2  0
 21  2  1  0
 20  6  1  0
 18 13  1  0
M  END
>  <Binding energies>  (40) 
[-6.65]

>  <Ligand effiencies>  (40) 
[-0.27708333333333335]

>  <Interactions>  (40) 
["V-B:HIS:456:CE1:9041, V-A:TYR:484:CE2:4346, V-B:GLU:543:CG:9879, V-A:GLU:543:CD:4908, V-A:HIS:456:CE1:4070, V-A:GLU:543:CB:4906, V-A:TYR:484:CZ:4347, V-B:GLU:543:CB:9878, V-B:TYR:539:CD2:9846, V-B:TYR:539:CE2:9848, V-A:LEU:475:CD2:4259, V-A:ILE:369:CG2:3237, V-A:ILE:369:CD1:3239, V-A:GLU:543:C:4902, V-A:ARG:545:CG:4922, V-B:ALA:541:CB:9864, V-A:GLY:453:CA:4044, V-A:GLY:453:C:4042, H-A:TYR:484:OH:4348, H-A:GLU:543:OE2:4910, V-A:ARG:545:CZ:4926, V-A:ARG:545:CD:4923, H-A:GLU:543:OE1:4909"]

$$$$
4ae_Grossjean_2025
     RDKit          3D

 22 24  0  0  0  0  0  0  0  0999 V2000
  130.9950  128.0920   70.7200 C   0  0  0  0  0  0  0  0  0  0  0  0
  130.0950  127.7240   69.5560 C   0  0  0  0  0  0  0  0  0  0  0  0
  128.7570  128.1230   69.5130 C   0  0  0  0  0  0  0  0  0  0  0  0
  127.9860  127.7410   68.4140 C   0  0  0  0  0  0  0  0  0  0  0  0
  128.5650  126.9780   67.3970 C   0  0  0  0  0  0  0  0  0  0  0  0
  129.9140  126.6200   67.5000 C   0  0  0  0  0  0  0  0  0  0  0  0
  130.4340  125.8350   66.4560 N   0  0  0  0  0  0  0  0  0  0  0  0
  130.2090  124.5240   66.1870 C   0  0  0  0  0  0  0  0  0  0  0  0
  129.4790  123.8000   66.8660 O   0  0  0  0  0  0  0  0  0  0  0  0
  130.9050  123.9970   65.0120 C   0  0  0  0  0  0  0  0  0  0  0  0
  130.2250  122.6440   64.1060 S   0  0  0  0  0  0  0  0  0  0  0  0
  131.5820  122.6350   63.0050 C   0  0  0  0  0  0  0  0  0  0  0  0
  131.6720  121.7620   62.0020 N   0  0  0  0  0  0  0  0  0  0  0  0
  132.7780  121.8580   61.2250 C   0  0  0  0  0  0  0  0  0  0  0  0
  132.8630  120.8490   60.0940 C   0  0  0  0  0  0  0  0  0  0  0  0
  133.7850  122.8010   61.4240 C   0  0  0  0  0  0  0  0  0  0  0  0
  133.6870  123.7180   62.4770 C   0  0  0  0  0  0  0  0  0  0  0  0
  134.8130  124.7250   62.6560 C   0  0  0  0  0  0  0  0  0  0  0  0
  132.5410  123.6450   63.3150 C   0  0  0  0  0  0  0  0  0  0  0  0
  132.1300  124.4090   64.4630 C   0  0  0  0  0  0  0  0  0  0  0  0
  132.8810  125.4430   64.9630 N   0  0  0  0  0  0  0  0  0  0  0  0
  130.6720  126.9840   68.5760 N   0  0  0  0  0  0  0  0  0  0  0  0
  1  2  1  0
  2  3  2  0
  3  4  1  0
  4  5  2  0
  5  6  1  0
  6  7  1  0
  7  8  1  0
  8  9  2  0
  8 10  1  0
 10 11  1  0
 11 12  1  0
 12 13  2  0
 13 14  1  0
 14 15  1  0
 14 16  2  0
 16 17  1  0
 17 18  1  0
 17 19  2  0
 19 20  1  0
 20 21  1  0
  6 22  2  0
 22  2  1  0
 20 10  2  0
 19 12  1  0
M  END
>  <Binding energies>  (41) 
[-6.91]

>  <Ligand effiencies>  (41) 
[-0.2764]

>  <Interactions>  (41) 
["V-B:HIS:456:CE1:9041, V-B:GLU:543:CD:9880, V-A:TYR:484:CE2:4346, V-B:GLU:543:CG:9879, V-A:GLU:543:CD:4908, V-A:HIS:456:CE1:4070, V-A:GLU:543:CB:4906, V-A:TYR:484:CZ:4347, V-B:GLU:543:CB:9878, V-B:TYR:539:CD2:9846, V-B:TYR:539:CE2:9848, V-A:LEU:475:CD2:4259, V-A:ILE:369:CG2:3237, V-A:ILE:369:CD1:3239, V-A:GLU:543:C:4902, V-A:GLY:544:C:4912, V-B:ALA:541:CB:9864, V-A:ASP:366:CG:3213, V-A:GLY:453:CA:4044, V-A:GLY:453:C:4042, H-A:TYR:484:OH:4348, H-A:GLU:543:OE2:4910, V-A:ARG:545:CZ:4926, V-A:ARG:545:CD:4923, H-A:GLU:543:OE1:4909, V-A:GLY:544:CA:4914"]

$$$$
4af_Grossjean_2025
     RDKit          3D

 21 23  0  0  0  0  0  0  0  0999 V2000
  132.6040  120.9730   60.1890 C   0  0  0  0  0  0  0  0  0  0  0  0
  132.5800  121.9580   61.3440 C   0  0  0  0  0  0  0  0  0  0  0  0
  133.6130  122.8750   61.5260 C   0  0  0  0  0  0  0  0  0  0  0  0
  133.5720  123.7720   62.6000 C   0  0  0  0  0  0  0  0  0  0  0  0
  134.7230  124.7520   62.7580 C   0  0  0  0  0  0  0  0  0  0  0  0
  132.4550  123.7060   63.4760 C   0  0  0  0  0  0  0  0  0  0  0  0
  132.0990  124.4560   64.6510 C   0  0  0  0  0  0  0  0  0  0  0  0
  132.8900  125.4630   65.1440 N   0  0  0  0  0  0  0  0  0  0  0  0
  130.8830  124.0620   65.2330 C   0  0  0  0  0  0  0  0  0  0  0  0
  130.2400  124.5830   66.4410 C   0  0  0  0  0  0  0  0  0  0  0  0
  129.4620  123.8810   67.0890 O   0  0  0  0  0  0  0  0  0  0  0  0
  130.5770  125.8520   66.7760 N   0  0  0  0  0  0  0  0  0  0  0  0
  130.1090  126.6530   67.8350 C   0  0  0  0  0  0  0  0  0  0  0  0
  128.7590  126.8260   68.1910 C   0  0  0  0  0  0  0  0  0  0  0  0
  128.4280  127.6660   69.2550 C   0  0  0  0  0  0  0  0  0  0  0  0
  129.4560  128.3180   69.9380 C   0  0  0  0  0  0  0  0  0  0  0  0
  130.7640  128.1730   69.6100 N   0  0  0  0  0  0  0  0  0  0  0  0
  131.0700  127.3540   68.5730 C   0  0  0  0  0  0  0  0  0  0  0  0
  130.1450  122.7370   64.3290 S   0  0  0  0  0  0  0  0  0  0  0  0
  131.4640  122.7230   63.1800 C   0  0  0  0  0  0  0  0  0  0  0  0
  131.5000  121.8670   62.1580 N   0  0  0  0  0  0  0  0  0  0  0  0
  1  2  1  0
  2  3  2  0
  3  4  1  0
  4  5  1  0
  4  6  2  0
  6  7  1  0
  7  8  1  0
  7  9  2  0
  9 10  1  0
 10 11  2  0
 10 12  1  0
 12 13  1  0
 13 14  2  0
 14 15  1  0
 15 16  2  0
 16 17  1  0
 17 18  2  0
  9 19  1  0
 19 20  1  0
 20 21  2  0
 21  2  1  0
 20  6  1  0
 18 13  1  0
M  END
>  <Binding energies>  (42) 
[-6.35]

>  <Ligand effiencies>  (42) 
[-0.26458333333333334]

>  <Interactions>  (42) 
["V-B:HIS:456:CE1:9041, V-A:TYR:484:CE2:4346, V-B:GLU:543:CG:9879, V-A:GLU:543:CD:4908, V-A:HIS:456:CE1:4070, V-A:GLU:543:CB:4906, V-A:TYR:484:CZ:4347, V-B:GLU:543:CB:9878, V-B:TYR:539:CD2:9846, V-B:TYR:539:CE2:9848, V-A:LEU:475:CD2:4259, V-A:ILE:369:CG2:3237, V-A:ILE:369:CD1:3239, V-A:GLU:543:C:4902, V-A:ARG:545:CG:4922, V-B:ALA:541:CB:9864, V-A:GLY:453:CA:4044, V-A:GLY:453:C:4042, H-A:TYR:484:OH:4348, H-A:GLU:543:OE2:4910, V-A:ARG:545:CZ:4926, V-A:ARG:545:CD:4923, H-A:GLU:543:OE1:4909"]

$$$$
4ag_Grossjean_2025
     RDKit          3D

 22 24  0  0  0  0  0  0  0  0999 V2000
  132.2620  121.0820   60.7350 C   0  0  0  0  0  0  0  0  0  0  0  0
  132.2300  122.1260   61.8360 C   0  0  0  0  0  0  0  0  0  0  0  0
  133.2780  123.0310   61.9970 C   0  0  0  0  0  0  0  0  0  0  0  0
  133.2270  123.9860   63.0190 C   0  0  0  0  0  0  0  0  0  0  0  0
  134.3950  124.9510   63.1550 C   0  0  0  0  0  0  0  0  0  0  0  0
  132.0850  123.9920   63.8640 C   0  0  0  0  0  0  0  0  0  0  0  0
  131.7140  124.8140   64.9840 C   0  0  0  0  0  0  0  0  0  0  0  0
  132.5110  125.8320   65.4440 N   0  0  0  0  0  0  0  0  0  0  0  0
  130.4770  124.4760   65.5520 C   0  0  0  0  0  0  0  0  0  0  0  0
  129.7940  125.1030   66.6830 C   0  0  0  0  0  0  0  0  0  0  0  0
  129.5860  124.4860   67.7300 O   0  0  0  0  0  0  0  0  0  0  0  0
  129.3960  126.3810   66.5040 N   0  0  0  0  0  0  0  0  0  0  0  0
  128.7230  127.2070   67.5040 C   0  0  0  0  0  0  0  0  0  0  0  0
  129.5160  127.3880   68.7940 C   0  0  0  0  0  0  0  0  0  0  0  0
  130.8720  127.7210   68.7350 C   0  0  0  0  0  0  0  0  0  0  0  0
  131.5930  127.9110   69.9120 C   0  0  0  0  0  0  0  0  0  0  0  0
  130.9530  127.7770   71.1420 C   0  0  0  0  0  0  0  0  0  0  0  0
  129.5990  127.4600   71.2070 C   0  0  0  0  0  0  0  0  0  0  0  0
  128.8780  127.2710   70.0310 C   0  0  0  0  0  0  0  0  0  0  0  0
  129.7280  123.1260   64.6990 S   0  0  0  0  0  0  0  0  0  0  0  0
  131.0810  123.0150   63.5940 C   0  0  0  0  0  0  0  0  0  0  0  0
  131.1260  122.1040   62.6210 N   0  0  0  0  0  0  0  0  0  0  0  0
  1  2  1  0
  2  3  2  0
  3  4  1  0
  4  5  1  0
  4  6  2  0
  6  7  1  0
  7  8  1  0
  7  9  2  0
  9 10  1  0
 10 11  2  0
 10 12  1  0
 12 13  1  0
 13 14  1  0
 14 15  2  0
 15 16  1  0
 16 17  2  0
 17 18  1  0
 18 19  2  0
  9 20  1  0
 20 21  1  0
 21 22  2  0
 22  2  1  0
 21  6  1  0
 19 14  1  0
M  END
>  <Binding energies>  (43) 
[-6.53]

>  <Ligand effiencies>  (43) 
[-0.2612]

>  <Interactions>  (43) 
["V-B:HIS:456:CE1:9041, V-A:HIS:456:CD2:4068, V-A:GLU:543:CG:4907, V-B:GLU:543:CD:9880, V-A:TYR:484:CE2:4346, V-B:GLU:543:CG:9879, V-A:GLU:543:CD:4908, V-A:HIS:456:CE1:4070, V-A:GLU:543:CB:4906, V-A:TYR:484:CZ:4347, V-B:GLU:543:CB:9878, V-B:GLU:543:CA:9876, V-B:TYR:539:CD2:9846, V-B:TYR:539:CE2:9848, V-A:LEU:475:CD2:4259, V-A:ARG:545:CA:4919, V-A:GLU:543:C:4902, V-A:ARG:545:CG:4922, V-A:GLY:544:C:4912, V-A:GLY:453:CA:4044, V-A:GLY:453:C:4042, H-A:TYR:484:OH:4348, H-A:GLU:543:OE2:4910, V-A:ARG:545:CZ:4926, V-A:ARG:545:CD:4923, H-A:GLU:543:OE1:4909, H-B:GLU:543:OE2:9882"]

$$$$
4ah_Grossjean_2025
     RDKit          3D

 28 30  0  0  0  0  0  0  0  0999 V2000
  129.6610  132.6240   57.0860 C   0  0  0  0  0  0  0  0  0  0  0  0
  129.7190  131.3860   57.7830 O   0  0  0  0  0  0  0  0  0  0  0  0
  129.6490  131.3810   59.1650 C   0  0  0  0  0  0  0  0  0  0  0  0
  128.5140  130.9840   59.8910 C   0  0  0  0  0  0  0  0  0  0  0  0
  128.5140  131.0070   61.2860 C   0  0  0  0  0  0  0  0  0  0  0  0
  127.2880  130.5290   62.0570 C   0  0  0  0  0  0  0  0  0  0  0  0
  127.6160  129.8030   63.2840 N   0  0  0  0  0  0  0  0  0  0  0  0
  127.9150  130.3700   64.4720 C   0  0  0  0  0  0  0  0  0  0  0  0
  127.9780  131.5900   64.6280 O   0  0  0  0  0  0  0  0  0  0  0  0
  128.2040  129.4460   65.5680 C   0  0  0  0  0  0  0  0  0  0  0  0
  127.9650  129.9530   67.2410 S   0  0  0  0  0  0  0  0  0  0  0  0
  128.5400  128.4120   67.8370 C   0  0  0  0  0  0  0  0  0  0  0  0
  128.6040  128.1380   69.1400 N   0  0  0  0  0  0  0  0  0  0  0  0
  129.0650  126.9080   69.4680 C   0  0  0  0  0  0  0  0  0  0  0  0
  129.1330  126.6180   70.9560 C   0  0  0  0  0  0  0  0  0  0  0  0
  129.4590  125.9530   68.5330 C   0  0  0  0  0  0  0  0  0  0  0  0
  129.3940  126.2430   67.1650 C   0  0  0  0  0  0  0  0  0  0  0  0
  129.8360  125.1690   66.1830 C   0  0  0  0  0  0  0  0  0  0  0  0
  128.9160  127.5260   66.7820 C   0  0  0  0  0  0  0  0  0  0  0  0
  128.7260  128.1460   65.4980 C   0  0  0  0  0  0  0  0  0  0  0  0
  129.0240  127.5060   64.3220 N   0  0  0  0  0  0  0  0  0  0  0  0
  129.6650  131.4010   61.9680 C   0  0  0  0  0  0  0  0  0  0  0  0
  130.8130  131.8080   61.2690 C   0  0  0  0  0  0  0  0  0  0  0  0
  131.9810  132.2250   61.8800 O   0  0  0  0  0  0  0  0  0  0  0  0
  132.8890  131.2520   62.3870 C   0  0  0  0  0  0  0  0  0  0  0  0
  130.7890  131.7990   59.8680 C   0  0  0  0  0  0  0  0  0  0  0  0
  131.9110  132.1770   59.1700 O   0  0  0  0  0  0  0  0  0  0  0  0
  132.7230  131.0900   58.7470 C   0  0  0  0  0  0  0  0  0  0  0  0
  1  2  1  0
  2  3  1  0
  3  4  2  0
  4  5  1  0
  5  6  1  0
  6  7  1  0
  7  8  1  0
  8  9  2  0
  8 10  1  0
 10 11  1  0
 11 12  1  0
 12 13  2  0
 13 14  1  0
 14 15  1  0
 14 16  2  0
 16 17  1  0
 17 18  1  0
 17 19  2  0
 19 20  1  0
 20 21  1  0
  5 22  2  0
 22 23  1  0
 23 24  1  0
 24 25  1  0
 23 26  2  0
 26 27  1  0
 27 28  1  0
 26  3  1  0
 20 10  2  0
 19 12  1  0
M  END
>  <Binding energies>  (44) 
[-6.11]

>  <Ligand effiencies>  (44) 
[-0.1970967741935484]

>  <Interactions>  (44) 
["V-B:HIS:456:CE1:9041, V-A:HIS:456:CD2:4068, V-A:GLU:543:CG:4907, V-B:GLU:543:CD:9880, V-B:GLU:543:CG:9879, H-B:TYR:484:OH:9319, V-B:TYR:484:CZ:9318, V-B:GLU:543:C:9874, V-A:GLU:543:CD:4908, V-A:HIS:456:CE1:4070, V-A:GLU:543:CB:4906, V-B:GLU:543:CB:9878, V-B:GLU:543:CA:9876, V-A:GLU:543:CA:4904, V-A:PRO:540:CA:4883, H-A:GLU:543:OE2:4910, V-A:PRO:540:CB:4885, V-A:LEU:363:CD1:3189, H-A:GLU:543:OE1:4909, H-B:GLU:543:OE1:9881, V-A:ASN:362:CB:3176, H-B:GLU:543:OE2:9882, V-B:TYR:484:CE2:9317, H-A:ALA:541:N:4891"]

$$$$
4ai_Grossjean_2025
     RDKit          3D

 20 22  0  0  0  0  0  0  0  0999 V2000
  131.4030  121.0950   60.6330 C   0  0  0  0  0  0  0  0  0  0  0  0
  131.6040  122.0850   61.7670 C   0  0  0  0  0  0  0  0  0  0  0  0
  132.7090  122.9330   61.7890 C   0  0  0  0  0  0  0  0  0  0  0  0
  132.8720  123.8420   62.8410 C   0  0  0  0  0  0  0  0  0  0  0  0
  134.0930  124.7490   62.8200 C   0  0  0  0  0  0  0  0  0  0  0  0
  131.8820  123.8610   63.8610 C   0  0  0  0  0  0  0  0  0  0  0  0
  131.7370  124.6460   65.0570 C   0  0  0  0  0  0  0  0  0  0  0  0
  132.6540  125.6000   65.4220 N   0  0  0  0  0  0  0  0  0  0  0  0
  130.5820  124.3510   65.7970 C   0  0  0  0  0  0  0  0  0  0  0  0
  130.1310  124.9450   67.0570 C   0  0  0  0  0  0  0  0  0  0  0  0
  129.4900  124.2790   67.8730 O   0  0  0  0  0  0  0  0  0  0  0  0
  130.4830  126.2410   67.2480 N   0  0  0  0  0  0  0  0  0  0  0  0
  130.1990  127.0410   68.3470 C   0  0  0  0  0  0  0  0  0  0  0  0
  128.9090  127.2240   68.8430 C   0  0  0  0  0  0  0  0  0  0  0  0
  129.0540  128.0730   69.9160 C   0  0  0  0  0  0  0  0  0  0  0  0
  130.3640  128.3840   70.0600 O   0  0  0  0  0  0  0  0  0  0  0  0
  131.0800  127.7230   69.0610 N   0  0  0  0  0  0  0  0  0  0  0  0
  129.6500  123.0600   65.0350 S   0  0  0  0  0  0  0  0  0  0  0  0
  130.8000  122.9400   63.7210 C   0  0  0  0  0  0  0  0  0  0  0  0
  130.6420  122.0730   62.7210 N   0  0  0  0  0  0  0  0  0  0  0  0
  1  2  1  0
  2  3  2  0
  3  4  1  0
  4  5  1  0
  4  6  2  0
  6  7  1  0
  7  8  1  0
  7  9  2  0
  9 10  1  0
 10 11  2  0
 10 12  1  0
 12 13  1  0
 13 14  1  0
 14 15  2  0
 15 16  1  0
 16 17  1  0
  9 18  1  0
 18 19  1  0
 19 20  2  0
 20  2  1  0
 19  6  1  0
 17 13  2  0
M  END
>  <Binding energies>  (45) 
[-6.1]

>  <Ligand effiencies>  (45) 
[-0.2652173913043478]

>  <Interactions>  (45) 
["V-B:HIS:456:CE1:9041, V-A:TYR:484:CE2:4346, V-B:GLU:543:CG:9879, V-A:GLU:543:CD:4908, V-A:HIS:456:CE1:4070, V-A:GLU:543:CB:4906, V-A:TYR:484:CZ:4347, V-B:GLU:543:CB:9878, V-B:GLU:543:CA:9876, V-B:TYR:539:CD2:9846, V-B:TYR:539:CE2:9848, V-A:LEU:475:CD2:4259, V-A:GLY:453:CA:4044, H-A:TYR:484:OH:4348, H-A:GLU:543:OE2:4910, V-A:ARG:545:CZ:4926, V-A:ARG:545:CD:4923, H-A:GLU:543:OE1:4909"]

$$$$
4aj_Grossjean_2025
     RDKit          3D

 20 22  0  0  0  0  0  0  0  0999 V2000
  131.4360  121.1310   60.5830 C   0  0  0  0  0  0  0  0  0  0  0  0
  131.6270  122.1140   61.7230 C   0  0  0  0  0  0  0  0  0  0  0  0
  132.7340  122.9570   61.7650 C   0  0  0  0  0  0  0  0  0  0  0  0
  132.8940  123.8530   62.8290 C   0  0  0  0  0  0  0  0  0  0  0  0
  134.1200  124.7520   62.8280 C   0  0  0  0  0  0  0  0  0  0  0  0
  131.8970  123.8640   63.8410 C   0  0  0  0  0  0  0  0  0  0  0  0
  131.7480  124.6350   65.0460 C   0  0  0  0  0  0  0  0  0  0  0  0
  132.6650  125.5800   65.4290 N   0  0  0  0  0  0  0  0  0  0  0  0
  130.5870  124.3330   65.7750 C   0  0  0  0  0  0  0  0  0  0  0  0
  130.1300  124.9120   67.0400 C   0  0  0  0  0  0  0  0  0  0  0  0
  129.4900  124.2340   67.8480 O   0  0  0  0  0  0  0  0  0  0  0  0
  130.4720  126.2080   67.2450 N   0  0  0  0  0  0  0  0  0  0  0  0
  130.1750  126.9820   68.3580 C   0  0  0  0  0  0  0  0  0  0  0  0
  131.0050  127.6940   69.0910 N   0  0  0  0  0  0  0  0  0  0  0  0
  130.3770  128.3120   70.0730 C   0  0  0  0  0  0  0  0  0  0  0  0
  129.0020  128.1030   70.1510 C   0  0  0  0  0  0  0  0  0  0  0  0
  128.5180  127.0410   68.8630 S   0  0  0  0  0  0  0  0  0  0  0  0
  129.6510  123.0620   64.9860 S   0  0  0  0  0  0  0  0  0  0  0  0
  130.8100  122.9530   63.6810 C   0  0  0  0  0  0  0  0  0  0  0  0
  130.6560  122.0980   62.6690 N   0  0  0  0  0  0  0  0  0  0  0  0
  1  2  1  0
  2  3  2  0
  3  4  1  0
  4  5  1  0
  4  6  2  0
  6  7  1  0
  7  8  1  0
  7  9  2  0
  9 10  1  0
 10 11  2  0
 10 12  1  0
 12 13  1  0
 13 14  2  0
 14 15  1  0
 15 16  2  0
 16 17  1  0
  9 18  1  0
 18 19  1  0
 19 20  2  0
 20  2  1  0
 19  6  1  0
 17 13  1  0
M  END
>  <Binding energies>  (46) 
[-6.18]

>  <Ligand effiencies>  (46) 
[-0.26869565217391306]

>  <Interactions>  (46) 
["V-B:HIS:456:CE1:9041, V-A:TYR:484:CE2:4346, V-B:GLU:543:CG:9879, V-B:HIS:456:CD2:9039, V-A:GLU:543:CD:4908, V-A:HIS:456:CE1:4070, V-A:GLU:543:CB:4906, V-A:TYR:484:CZ:4347, V-B:GLU:543:CB:9878, V-B:GLU:543:CA:9876, V-B:TYR:539:CD2:9846, V-B:TYR:539:CE2:9848, V-A:LEU:475:CD2:4259, V-A:GLU:543:CA:4904, V-A:GLU:543:C:4902, V-A:GLY:544:C:4912, V-A:GLY:453:CA:4044, H-A:TYR:484:OH:4348, H-A:GLU:543:OE2:4910, V-A:ARG:545:CZ:4926, V-A:ARG:545:CD:4923, H-A:GLU:543:OE1:4909"]

$$$$
4ak_Grossjean_2025
     RDKit          3D

 25 26  0  0  0  0  0  0  0  0999 V2000
  127.6050  126.2330   72.1480 C   0  0  0  0  0  0  0  0  0  0  0  0
  128.6560  126.3130   73.0970 O   0  0  0  0  0  0  0  0  0  0  0  0
  129.9340  126.5290   72.5100 C   0  0  0  0  0  0  0  0  0  0  0  0
  130.6140  127.7230   73.1920 C   0  0  0  0  0  0  0  0  0  0  0  0
  130.3230  128.9090   72.4650 O   0  0  0  0  0  0  0  0  0  0  0  0
  129.1420  128.8250   71.6790 C   0  0  0  0  0  0  0  0  0  0  0  0
  129.5220  128.8100   70.1940 C   0  0  0  0  0  0  0  0  0  0  0  0
  130.2570  127.6270   69.9090 O   0  0  0  0  0  0  0  0  0  0  0  0
  129.5270  126.6610   69.1650 C   0  0  0  0  0  0  0  0  0  0  0  0
  129.2560  127.2060   67.7510 C   0  0  0  0  0  0  0  0  0  0  0  0
  129.8120  126.3730   66.6850 N   0  0  0  0  0  0  0  0  0  0  0  0
  129.8930  125.0270   66.7080 C   0  0  0  0  0  0  0  0  0  0  0  0
  129.4720  124.3570   67.6520 O   0  0  0  0  0  0  0  0  0  0  0  0
  130.5050  124.4000   65.5390 C   0  0  0  0  0  0  0  0  0  0  0  0
  129.6780  123.0890   64.6980 S   0  0  0  0  0  0  0  0  0  0  0  0
  130.9780  122.9540   63.5350 C   0  0  0  0  0  0  0  0  0  0  0  0
  130.9520  122.0560   62.5490 N   0  0  0  0  0  0  0  0  0  0  0  0
  132.0230  122.0550   61.7170 C   0  0  0  0  0  0  0  0  0  0  0  0
  131.9740  121.0270   60.6010 C   0  0  0  0  0  0  0  0  0  0  0  0
  133.1060  122.9210   61.8470 C   0  0  0  0  0  0  0  0  0  0  0  0
  133.1300  123.8630   62.8830 C   0  0  0  0  0  0  0  0  0  0  0  0
  134.3350  124.7840   62.9860 C   0  0  0  0  0  0  0  0  0  0  0  0
  132.0250  123.8930   63.7760 C   0  0  0  0  0  0  0  0  0  0  0  0
  131.7270  124.7100   64.9210 C   0  0  0  0  0  0  0  0  0  0  0  0
  132.5740  125.6960   65.3600 N   0  0  0  0  0  0  0  0  0  0  0  0
  1  2  1  0
  2  3  1  0
  3  4  1  0
  4  5  1  0
  5  6  1  0
  6  7  1  0
  7  8  1  0
  8  9  1  0
  9 10  1  0
 10 11  1  0
 11 12  1  0
 12 13  2  0
 12 14  1  0
 14 15  1  0
 15 16  1  0
 16 17  2  0
 17 18  1  0
 18 19  1  0
 18 20  2  0
 20 21  1  0
 21 22  1  0
 21 23  2  0
 23 24  1  0
 24 25  1  0
 24 14  2  0
 23 16  1  0
M  END
>  <Binding energies>  (47) 
[-5.31]

>  <Ligand effiencies>  (47) 
[-0.18964285714285714]

>  <Interactions>  (47) 
["V-B:HIS:456:CE1:9041, V-A:HIS:456:CD2:4068, V-A:TYR:484:CE2:4346, V-B:GLU:543:CG:9879, V-B:HIS:456:CD2:9039, V-B:GLU:543:C:9874, V-A:GLU:543:CD:4908, V-A:HIS:456:CE1:4070, V-A:GLU:543:CB:4906, V-B:GLY:544:C:9884, V-A:TYR:484:CZ:4347, V-B:GLU:543:CB:9878, V-B:LYS:547:CE:9922, V-B:GLU:543:CA:9876, V-B:TYR:539:CD2:9846, V-B:TYR:539:CE2:9848, V-A:LEU:475:CD2:4259, V-A:GLU:543:CA:4904, H-B:LYS:547:NZ:9923, V-A:GLU:543:C:4902, V-A:GLY:544:C:4912, V-B:ALA:541:CB:9864, H-A:LYS:547:NZ:4951, V-A:GLY:453:CA:4044, V-A:GLY:453:C:4042, H-A:TYR:484:OH:4348, H-A:GLU:543:OE2:4910, V-A:ARG:545:CZ:4926, V-A:ARG:545:CD:4923, H-A:GLU:543:OE1:4909, V-B:GLY:544:CA:9886"]

$$$$
4al_Grossjean_2025
     RDKit          3D

 16 17  0  0  0  0  0  0  0  0999 V2000
  128.1490  130.3390   64.7850 C   0  0  0  0  0  0  0  0  0  0  0  0
  128.3040  131.7420   64.6290 O   0  0  0  0  0  0  0  0  0  0  0  0
  127.6240  132.4150   63.6650 C   0  0  0  0  0  0  0  0  0  0  0  0
  126.5360  132.9660   63.8450 O   0  0  0  0  0  0  0  0  0  0  0  0
  128.3270  132.4220   62.3630 C   0  0  0  0  0  0  0  0  0  0  0  0
  127.5040  133.0170   60.9200 S   0  0  0  0  0  0  0  0  0  0  0  0
  128.9140  132.7010   59.9350 C   0  0  0  0  0  0  0  0  0  0  0  0
  128.9330  132.9600   58.6270 N   0  0  0  0  0  0  0  0  0  0  0  0
  130.0880  132.6690   57.9780 C   0  0  0  0  0  0  0  0  0  0  0  0
  130.0880  132.9710   56.4910 C   0  0  0  0  0  0  0  0  0  0  0  0
  131.2120  132.1310   58.6020 C   0  0  0  0  0  0  0  0  0  0  0  0
  131.1890  131.8600   59.9740 C   0  0  0  0  0  0  0  0  0  0  0  0
  132.4390  131.2730   60.6100 C   0  0  0  0  0  0  0  0  0  0  0  0
  129.9950  132.1520   60.6870 C   0  0  0  0  0  0  0  0  0  0  0  0
  129.6310  132.0050   62.0690 C   0  0  0  0  0  0  0  0  0  0  0  0
  130.4910  131.4980   63.0090 N   0  0  0  0  0  0  0  0  0  0  0  0
  1  2  1  0
  2  3  1  0
  3  4  2  0
  3  5  1  0
  5  6  1  0
  6  7  1  0
  7  8  2  0
  8  9  1  0
  9 10  1  0
  9 11  2  0
 11 12  1  0
 12 13  1  0
 12 14  2  0
 14 15  1  0
 15 16  1  0
 15  5  2  0
 14  7  1  0
M  END
>  <Binding energies>  (48) 
[-5.11]

>  <Ligand effiencies>  (48) 
[-0.2838888888888889]

>  <Interactions>  (48) 
["V-A:GLU:543:CG:4907, H-B:TYR:484:OH:9319, V-A:GLU:543:CD:4908, V-B:LEU:475:CD2:9230, V-A:TYR:539:C:4867, V-A:PRO:540:N:4884, V-A:PRO:540:CA:4883, V-A:TYR:539:CD1:4873, V-A:PRO:540:CB:4885, V-A:ILE:538:CA:4860, H-A:GLU:543:OE1:4909, V-A:ALA:541:CB:4892, V-A:ILE:538:CB:4862, V-A:ILE:538:C:4858"]

$$$$
4bc_Grossjean_2025
     RDKit          3D

 26 28  0  0  0  0  0  0  0  0999 V2000
  127.0070  127.7320   73.1910 C   0  0  0  0  0  0  0  0  0  0  0  0
  128.4100  127.6600   72.9610 O   0  0  0  0  0  0  0  0  0  0  0  0
  128.8750  127.5270   71.6660 C   0  0  0  0  0  0  0  0  0  0  0  0
  128.0030  126.9390   70.7500 C   0  0  0  0  0  0  0  0  0  0  0  0
  128.3840  126.7630   69.4220 C   0  0  0  0  0  0  0  0  0  0  0  0
  129.6430  127.1820   68.9900 C   0  0  0  0  0  0  0  0  0  0  0  0
  129.9450  126.9490   67.6360 N   0  0  0  0  0  0  0  0  0  0  0  0
  129.8480  125.8010   66.9210 C   0  0  0  0  0  0  0  0  0  0  0  0
  129.4900  124.7230   67.3980 O   0  0  0  0  0  0  0  0  0  0  0  0
  130.2090  125.9090   65.5050 C   0  0  0  0  0  0  0  0  0  0  0  0
  129.1480  126.7550   64.3810 S   0  0  0  0  0  0  0  0  0  0  0  0
  130.2300  126.4350   63.0460 C   0  0  0  0  0  0  0  0  0  0  0  0
  129.9590  126.8610   61.8130 N   0  0  0  0  0  0  0  0  0  0  0  0
  130.8710  126.5500   60.8630 C   0  0  0  0  0  0  0  0  0  0  0  0
  130.5450  127.0490   59.4670 C   0  0  0  0  0  0  0  0  0  0  0  0
  132.0360  125.8300   61.1140 C   0  0  0  0  0  0  0  0  0  0  0  0
  132.3270  125.3790   62.4110 C   0  0  0  0  0  0  0  0  0  0  0  0
  133.6210  124.5870   62.6370 C   0  0  0  0  0  0  0  0  0  0  0  0
  134.4020  125.1240   63.5760 F   0  0  0  0  0  0  0  0  0  0  0  0
  133.3270  123.3460   63.0210 F   0  0  0  0  0  0  0  0  0  0  0  0
  134.3270  124.5440   61.5070 F   0  0  0  0  0  0  0  0  0  0  0  0
  131.3860  125.6910   63.4370 C   0  0  0  0  0  0  0  0  0  0  0  0
  131.3460  125.4080   64.8510 C   0  0  0  0  0  0  0  0  0  0  0  0
  132.3360  124.7090   65.4950 N   0  0  0  0  0  0  0  0  0  0  0  0
  130.5310  127.7630   69.9090 C   0  0  0  0  0  0  0  0  0  0  0  0
  130.1470  127.9370   71.2360 C   0  0  0  0  0  0  0  0  0  0  0  0
  1  2  1  0
  2  3  1  0
  3  4  2  0
  4  5  1  0
  5  6  2  0
  6  7  1  0
  7  8  1  0
  8  9  2  0
  8 10  1  0
 10 11  1  0
 11 12  1  0
 12 13  2  0
 13 14  1  0
 14 15  1  0
 14 16  2  0
 16 17  1  0
 17 18  1  0
 18 19  1  0
 18 20  1  0
 18 21  1  0
 17 22  2  0
 22 23  1  0
 23 24  1  0
  6 25  1  0
 25 26  2  0
 26  3  1  0
 23 10  2  0
 22 12  1  0
M  END
>  <Binding energies>  (49) 
[-5.76]

>  <Ligand effiencies>  (49) 
[-0.1986206896551724]

>  <Interactions>  (49) 
["V-B:HIS:456:CE1:9041, V-B:GLU:543:CD:9880, V-B:GLU:543:CG:9879, V-B:HIS:456:CD2:9039, V-B:GLU:543:C:9874, V-A:GLU:543:CD:4908, V-B:HIS:456:CG:9037, V-A:HIS:456:CE1:4070, V-A:GLU:543:CB:4906, V-B:GLY:544:C:9884, V-A:TYR:484:CZ:4347, V-B:GLU:543:CB:9878, V-B:LYS:547:CE:9922, V-A:GLY:454:CA:4049, V-A:ILE:369:CD1:3239, H-B:LYS:547:NZ:9923, V-A:GLU:543:C:4902, V-A:ASP:366:CG:3213, V-A:GLY:453:CA:4044, V-A:GLY:453:C:4042, H-A:TYR:484:OH:4348, H-A:GLU:543:OE2:4910, V-A:ARG:545:CZ:4926, H-A:GLU:543:OE1:4909"]

$$$$
4bf_Grossjean_2025
     RDKit          3D

 24 26  0  0  0  0  0  0  0  0999 V2000
  130.7610  120.7040   60.6880 C   0  0  0  0  0  0  0  0  0  0  0  0
  131.0160  121.7700   61.7390 C   0  0  0  0  0  0  0  0  0  0  0  0
  132.0360  122.7040   61.5800 C   0  0  0  0  0  0  0  0  0  0  0  0
  132.2640  123.6820   62.5610 C   0  0  0  0  0  0  0  0  0  0  0  0
  133.4000  124.6870   62.3450 C   0  0  0  0  0  0  0  0  0  0  0  0
  134.2170  124.3440   61.3450 F   0  0  0  0  0  0  0  0  0  0  0  0
  132.8940  125.8850   62.0530 F   0  0  0  0  0  0  0  0  0  0  0  0
  134.1400  124.7770   63.4500 F   0  0  0  0  0  0  0  0  0  0  0  0
  131.4120  123.6680   63.7060 C   0  0  0  0  0  0  0  0  0  0  0  0
  131.3440  124.4910   64.8880 C   0  0  0  0  0  0  0  0  0  0  0  0
  132.1970  125.5430   65.1070 N   0  0  0  0  0  0  0  0  0  0  0  0
  130.3290  124.1230   65.7870 C   0  0  0  0  0  0  0  0  0  0  0  0
  130.0010  124.7160   67.0880 C   0  0  0  0  0  0  0  0  0  0  0  0
  129.4820  124.0360   67.9740 O   0  0  0  0  0  0  0  0  0  0  0  0
  130.3240  126.0250   67.2270 N   0  0  0  0  0  0  0  0  0  0  0  0
  130.1020  126.8920   68.3140 C   0  0  0  0  0  0  0  0  0  0  0  0
  131.0880  127.6600   68.9570 C   0  0  0  0  0  0  0  0  0  0  0  0
  130.7360  128.4710   70.0390 C   0  0  0  0  0  0  0  0  0  0  0  0
  129.4040  128.4900   70.4530 C   0  0  0  0  0  0  0  0  0  0  0  0
  128.4360  127.7530   69.8540 N   0  0  0  0  0  0  0  0  0  0  0  0
  128.7940  126.9700   68.8050 C   0  0  0  0  0  0  0  0  0  0  0  0
  129.4250  122.7330   65.1920 S   0  0  0  0  0  0  0  0  0  0  0  0
  130.4030  122.6570   63.7450 C   0  0  0  0  0  0  0  0  0  0  0  0
  130.1910  121.7310   62.8110 N   0  0  0  0  0  0  0  0  0  0  0  0
  1  2  1  0
  2  3  2  0
  3  4  1  0
  4  5  1  0
  5  6  1  0
  5  7  1  0
  5  8  1  0
  4  9  2  0
  9 10  1  0
 10 11  1  0
 10 12  2  0
 12 13  1  0
 13 14  2  0
 13 15  1  0
 15 16  1  0
 16 17  2  0
 17 18  1  0
 18 19  2  0
 19 20  1  0
 20 21  2  0
 12 22  1  0
 22 23  1  0
 23 24  2  0
 24  2  1  0
 23  9  1  0
 21 16  1  0
M  END
>  <Binding energies>  (50) 
[-5.75]

>  <Ligand effiencies>  (50) 
[-0.21296296296296297]

>  <Interactions>  (50) 
["V-B:HIS:456:CE1:9041, V-A:TYR:484:CE2:4346, V-B:GLU:543:CG:9879, V-B:HIS:456:CD2:9039, V-A:GLU:543:CD:4908, V-A:HIS:456:CE1:4070, V-A:GLU:543:CB:4906, V-A:TYR:484:CZ:4347, V-B:GLU:543:CB:9878, V-B:GLU:543:CA:9876, V-B:TYR:539:CD2:9846, V-B:TYR:539:CE2:9848, V-A:GLY:454:CA:4049, V-A:LEU:475:CD2:4259, V-A:ILE:369:CD1:3239, V-A:GLU:543:CA:4904, V-A:GLU:543:C:4902, V-A:ARG:545:CG:4922, V-A:GLY:544:C:4912, V-B:ALA:541:CB:9864, V-A:ASP:366:CG:3213, V-A:GLY:453:CA:4044, V-A:GLY:453:C:4042, H-A:TYR:484:OH:4348, H-A:GLU:543:OE2:4910, V-A:ARG:545:CZ:4926, H-A:GLU:543:OE1:4909"]

$$$$
4bh_Grossjean_2025
     RDKit          3D

 31 33  0  0  0  0  0  0  0  0999 V2000
  129.0230  132.5260   56.4660 C   0  0  0  0  0  0  0  0  0  0  0  0
  129.5450  133.2950   57.5440 O   0  0  0  0  0  0  0  0  0  0  0  0
  129.6820  132.7120   58.7910 C   0  0  0  0  0  0  0  0  0  0  0  0
  128.6400  132.6060   59.7250 C   0  0  0  0  0  0  0  0  0  0  0  0
  128.8500  132.0060   60.9670 C   0  0  0  0  0  0  0  0  0  0  0  0
  127.6960  131.8590   61.9510 C   0  0  0  0  0  0  0  0  0  0  0  0
  127.9700  130.9190   63.0380 N   0  0  0  0  0  0  0  0  0  0  0  0
  127.1390  129.9420   63.4560 C   0  0  0  0  0  0  0  0  0  0  0  0
  126.0190  129.7720   62.9700 O   0  0  0  0  0  0  0  0  0  0  0  0
  127.6240  129.1140   64.5600 C   0  0  0  0  0  0  0  0  0  0  0  0
  127.2330  129.5430   66.2220 S   0  0  0  0  0  0  0  0  0  0  0  0
  128.1570  128.1910   66.8340 C   0  0  0  0  0  0  0  0  0  0  0  0
  128.2530  127.9490   68.1410 N   0  0  0  0  0  0  0  0  0  0  0  0
  128.9920  126.8720   68.4930 C   0  0  0  0  0  0  0  0  0  0  0  0
  129.0900  126.6160   69.9860 C   0  0  0  0  0  0  0  0  0  0  0  0
  129.6300  126.0380   67.5790 C   0  0  0  0  0  0  0  0  0  0  0  0
  129.5340  126.2880   66.2010 C   0  0  0  0  0  0  0  0  0  0  0  0
  130.2510  125.3410   65.2330 C   0  0  0  0  0  0  0  0  0  0  0  0
  131.3810  125.8540   64.7390 F   0  0  0  0  0  0  0  0  0  0  0  0
  130.5690  124.2100   65.8600 F   0  0  0  0  0  0  0  0  0  0  0  0
  129.4540  125.0640   64.2010 F   0  0  0  0  0  0  0  0  0  0  0  0
  128.7640  127.4180   65.7960 C   0  0  0  0  0  0  0  0  0  0  0  0
  128.4510  127.9810   64.5050 C   0  0  0  0  0  0  0  0  0  0  0  0
  128.9160  127.4480   63.3300 N   0  0  0  0  0  0  0  0  0  0  0  0
  130.1070  131.4790   61.2720 C   0  0  0  0  0  0  0  0  0  0  0  0
  131.1690  131.5770   60.3610 C   0  0  0  0  0  0  0  0  0  0  0  0
  132.4410  131.0900   60.6020 O   0  0  0  0  0  0  0  0  0  0  0  0
  133.1720  131.5740   61.7240 C   0  0  0  0  0  0  0  0  0  0  0  0
  130.9450  132.2010   59.1250 C   0  0  0  0  0  0  0  0  0  0  0  0
  131.9720  132.2880   58.2150 O   0  0  0  0  0  0  0  0  0  0  0  0
  132.3080  131.0500   57.6030 C   0  0  0  0  0  0  0  0  0  0  0  0
  1  2  1  0
  2  3  1  0
  3  4  2  0
  4  5  1  0
  5  6  1  0
  6  7  1  0
  7  8  1  0
  8  9  2  0
  8 10  1  0
 10 11  1  0
 11 12  1  0
 12 13  2  0
 13 14  1  0
 14 15  1  0
 14 16  2  0
 16 17  1  0
 17 18  1  0
 18 19  1  0
 18 20  1  0
 18 21  1  0
 17 22  2  0
 22 23  1  0
 23 24  1  0
  5 25  2  0
 25 26  1  0
 26 27  1  0
 27 28  1  0
 26 29  2  0
 29 30  1  0
 30 31  1  0
 29  3  1  0
 23 10  2  0
 22 12  1  0
M  END
>  <Binding energies>  (51) 
[-5.51]

>  <Ligand effiencies>  (51) 
[-0.16205882352941176]

>  <Interactions>  (51) 
["V-B:HIS:456:CE1:9041, V-B:GLU:543:CD:9880, V-A:TYR:484:CE2:4346, V-B:GLU:543:CG:9879, V-B:TYR:484:CZ:9318, V-B:GLU:543:C:9874, V-A:GLU:543:CD:4908, V-A:HIS:456:CE1:4070, V-A:TYR:484:CZ:4347, V-B:GLU:543:CB:9878, V-A:TYR:539:C:4867, H-A:TYR:539:N:4870, V-A:PRO:540:N:4884, V-A:PRO:540:CA:4883, H-A:GLU:543:OE2:4910, V-A:TYR:539:CD1:4873, V-A:PRO:540:CB:4885, V-A:ARG:545:CZ:4926, V-A:MET:535:CE:4835, V-A:TYR:531:CE2:4793, V-A:LEU:363:CD1:3189, H-A:GLU:543:OE1:4909, H-B:GLU:543:OE1:9881, V-A:ASN:362:CB:3176, H-B:GLU:543:OE2:9882"]

$$$$
4bi_Grossjean_2025
     RDKit          3D

 23 25  0  0  0  0  0  0  0  0999 V2000
  130.7020  120.6750   60.8950 C   0  0  0  0  0  0  0  0  0  0  0  0
  131.0070  121.7630   61.9090 C   0  0  0  0  0  0  0  0  0  0  0  0
  132.0560  122.6570   61.7080 C   0  0  0  0  0  0  0  0  0  0  0  0
  132.3240  123.6620   62.6530 C   0  0  0  0  0  0  0  0  0  0  0  0
  133.4830  124.6270   62.3850 C   0  0  0  0  0  0  0  0  0  0  0  0
  134.2780  124.2250   61.3900 F   0  0  0  0  0  0  0  0  0  0  0  0
  133.0050  125.8260   62.0530 F   0  0  0  0  0  0  0  0  0  0  0  0
  134.2380  124.7400   63.4780 F   0  0  0  0  0  0  0  0  0  0  0  0
  131.4850  123.7130   63.8050 C   0  0  0  0  0  0  0  0  0  0  0  0
  131.4560  124.5770   64.9600 C   0  0  0  0  0  0  0  0  0  0  0  0
  132.3510  125.6000   65.1430 N   0  0  0  0  0  0  0  0  0  0  0  0
  130.4300  124.2830   65.8730 C   0  0  0  0  0  0  0  0  0  0  0  0
  130.1210  124.9430   67.1450 C   0  0  0  0  0  0  0  0  0  0  0  0
  129.5630  124.3260   68.0540 O   0  0  0  0  0  0  0  0  0  0  0  0
  130.5070  126.2400   67.2370 N   0  0  0  0  0  0  0  0  0  0  0  0
  130.3530  127.0930   68.3210 C   0  0  0  0  0  0  0  0  0  0  0  0
  129.1110  127.4050   68.8740 C   0  0  0  0  0  0  0  0  0  0  0  0
  129.3870  128.2670   69.9110 C   0  0  0  0  0  0  0  0  0  0  0  0
  130.7250  128.4630   69.9790 O   0  0  0  0  0  0  0  0  0  0  0  0
  131.3260  127.7140   68.9650 N   0  0  0  0  0  0  0  0  0  0  0  0
  129.4780  122.9010   65.3360 S   0  0  0  0  0  0  0  0  0  0  0  0
  130.4440  122.7380   63.8890 C   0  0  0  0  0  0  0  0  0  0  0  0
  130.1930  121.7880   62.9890 N   0  0  0  0  0  0  0  0  0  0  0  0
  1  2  1  0
  2  3  2  0
  3  4  1  0
  4  5  1  0
  5  6  1  0
  5  7  1  0
  5  8  1  0
  4  9  2  0
  9 10  1  0
 10 11  1  0
 10 12  2  0
 12 13  1  0
 13 14  2  0
 13 15  1  0
 15 16  1  0
 16 17  1  0
 17 18  2  0
 18 19  1  0
 19 20  1  0
 12 21  1  0
 21 22  1  0
 22 23  2  0
 23  2  1  0
 22  9  1  0
 20 16  2  0
M  END
>  <Binding energies>  (52) 
[-5.85]

>  <Ligand effiencies>  (52) 
[-0.22499999999999998]

>  <Interactions>  (52) 
["V-B:HIS:456:CE1:9041, V-A:TYR:484:CE2:4346, V-B:GLU:543:CG:9879, V-A:GLU:543:CD:4908, V-A:HIS:456:CE1:4070, V-A:GLU:543:CB:4906, V-A:TYR:484:CZ:4347, V-B:GLU:543:CB:9878, V-B:GLU:543:CA:9876, V-B:TYR:539:CD2:9846, V-B:TYR:539:CE2:9848, V-A:GLY:454:CA:4049, V-A:LEU:475:CD2:4259, V-A:ILE:369:CD1:3239, V-A:GLU:543:C:4902, V-B:ALA:541:CB:9864, V-A:ASP:366:CG:3213, V-A:GLY:453:CA:4044, V-A:GLY:453:C:4042, H-A:TYR:484:OH:4348, H-A:GLU:543:OE2:4910, V-A:ARG:545:CZ:4926, H-A:GLU:543:OE1:4909"]

$$$$
4bj_Grossjean_2025
     RDKit          3D

 23 25  0  0  0  0  0  0  0  0999 V2000
  130.6920  120.6620   60.9020 C   0  0  0  0  0  0  0  0  0  0  0  0
  130.9840  121.7550   61.9140 C   0  0  0  0  0  0  0  0  0  0  0  0
  132.0210  122.6620   61.7110 C   0  0  0  0  0  0  0  0  0  0  0  0
  132.2840  123.6650   62.6580 C   0  0  0  0  0  0  0  0  0  0  0  0
  133.4380  124.6380   62.3930 C   0  0  0  0  0  0  0  0  0  0  0  0
  134.2280  124.2490   61.3900 F   0  0  0  0  0  0  0  0  0  0  0  0
  132.9510  125.8380   62.0770 F   0  0  0  0  0  0  0  0  0  0  0  0
  134.1970  124.7430   63.4830 F   0  0  0  0  0  0  0  0  0  0  0  0
  131.4480  123.7060   63.8140 C   0  0  0  0  0  0  0  0  0  0  0  0
  131.4170  124.5650   64.9730 C   0  0  0  0  0  0  0  0  0  0  0  0
  132.3030  125.5960   65.1550 N   0  0  0  0  0  0  0  0  0  0  0  0
  130.3980  124.2560   65.8880 C   0  0  0  0  0  0  0  0  0  0  0  0
  130.0870  124.9080   67.1620 C   0  0  0  0  0  0  0  0  0  0  0  0
  129.4840  124.3020   68.0510 O   0  0  0  0  0  0  0  0  0  0  0  0
  130.5170  126.1880   67.2820 N   0  0  0  0  0  0  0  0  0  0  0  0
  130.3630  127.0210   68.3810 C   0  0  0  0  0  0  0  0  0  0  0  0
  131.2850  127.7310   68.9930 N   0  0  0  0  0  0  0  0  0  0  0  0
  130.7820  128.4140   70.0020 C   0  0  0  0  0  0  0  0  0  0  0  0
  129.4180  128.2640   70.2280 C   0  0  0  0  0  0  0  0  0  0  0  0
  128.7680  127.1630   69.0490 S   0  0  0  0  0  0  0  0  0  0  0  0
  129.4550  122.8680   65.3500 S   0  0  0  0  0  0  0  0  0  0  0  0
  130.4170  122.7200   63.8980 C   0  0  0  0  0  0  0  0  0  0  0  0
  130.1730  121.7690   62.9970 N   0  0  0  0  0  0  0  0  0  0  0  0
  1  2  1  0
  2  3  2  0
  3  4  1  0
  4  5  1  0
  5  6  1  0
  5  7  1  0
  5  8  1  0
  4  9  2  0
  9 10  1  0
 10 11  1  0
 10 12  2  0
 12 13  1  0
 13 14  2  0
 13 15  1  0
 15 16  1  0
 16 17  2  0
 17 18  1  0
 18 19  2  0
 19 20  1  0
 12 21  1  0
 21 22  1  0
 22 23  2  0
 23  2  1  0
 22  9  1  0
 20 16  1  0
M  END
>  <Binding energies>  (53) 
[-5.85]

>  <Ligand effiencies>  (53) 
[-0.22499999999999998]

>  <Interactions>  (53) 
["V-B:HIS:456:CE1:9041, V-A:TYR:484:CE2:4346, V-B:GLU:543:CG:9879, V-A:GLU:543:CD:4908, V-A:HIS:456:CE1:4070, V-A:GLU:543:CB:4906, V-A:TYR:484:CZ:4347, V-B:GLU:543:CB:9878, V-B:GLU:543:CA:9876, V-B:TYR:539:CD2:9846, V-B:TYR:539:CE2:9848, V-A:GLY:454:CA:4049, V-A:LEU:475:CD2:4259, V-A:ILE:369:CD1:3239, V-A:GLU:543:CA:4904, V-A:GLU:543:C:4902, V-A:GLY:544:C:4912, V-B:ALA:541:CB:9864, V-A:ASP:366:CG:3213, V-A:GLY:453:CA:4044, V-A:GLY:453:C:4042, H-A:TYR:484:OH:4348, H-A:GLU:543:OE2:4910, V-A:ARG:545:CZ:4926, H-A:GLU:543:OE1:4909"]

$$$$
4bk_Grossjean_2025
     RDKit          3D

 28 29  0  0  0  0  0  0  0  0999 V2000
  129.1250  129.2600   73.1540 C   0  0  0  0  0  0  0  0  0  0  0  0
  130.4390  129.1570   72.6280 O   0  0  0  0  0  0  0  0  0  0  0  0
  130.6010  128.0790   71.7160 C   0  0  0  0  0  0  0  0  0  0  0  0
  129.2980  127.2740   71.6380 C   0  0  0  0  0  0  0  0  0  0  0  0
  128.7500  127.3880   70.3320 O   0  0  0  0  0  0  0  0  0  0  0  0
  129.5130  128.2090   69.4590 C   0  0  0  0  0  0  0  0  0  0  0  0
  130.2440  127.3270   68.4380 C   0  0  0  0  0  0  0  0  0  0  0  0
  129.3000  126.5030   67.7680 O   0  0  0  0  0  0  0  0  0  0  0  0
  129.8490  125.2870   67.2720 C   0  0  0  0  0  0  0  0  0  0  0  0
  131.3250  125.5080   66.9010 C   0  0  0  0  0  0  0  0  0  0  0  0
  131.5950  125.3890   65.4680 N   0  0  0  0  0  0  0  0  0  0  0  0
  132.7890  125.0760   64.9230 C   0  0  0  0  0  0  0  0  0  0  0  0
  133.7850  124.8350   65.6070 O   0  0  0  0  0  0  0  0  0  0  0  0
  132.8360  125.0270   63.4600 C   0  0  0  0  0  0  0  0  0  0  0  0
  133.9820  123.9630   62.6480 S   0  0  0  0  0  0  0  0  0  0  0  0
  133.3970  124.4600   61.0780 C   0  0  0  0  0  0  0  0  0  0  0  0
  133.9150  123.9650   59.9550 N   0  0  0  0  0  0  0  0  0  0  0  0
  133.3790  124.4240   58.8000 C   0  0  0  0  0  0  0  0  0  0  0  0
  133.9820  123.8450   57.5330 C   0  0  0  0  0  0  0  0  0  0  0  0
  132.3480  125.3590   58.7430 C   0  0  0  0  0  0  0  0  0  0  0  0
  131.7990  125.8860   59.9230 C   0  0  0  0  0  0  0  0  0  0  0  0
  130.6690  126.9140   59.8100 C   0  0  0  0  0  0  0  0  0  0  0  0
  130.3990  127.2570   58.5480 F   0  0  0  0  0  0  0  0  0  0  0  0
  129.5510  126.4160   60.3370 F   0  0  0  0  0  0  0  0  0  0  0  0
  131.0050  128.0270   60.4620 F   0  0  0  0  0  0  0  0  0  0  0  0
  132.3410  125.4210   61.1590 C   0  0  0  0  0  0  0  0  0  0  0  0
  132.0410  125.7210   62.5370 C   0  0  0  0  0  0  0  0  0  0  0  0
  131.0640  126.6100   62.9060 N   0  0  0  0  0  0  0  0  0  0  0  0
  1  2  1  0
  2  3  1  0
  3  4  1  0
  4  5  1  0
  5  6  1  0
  6  7  1  0
  7  8  1  0
  8  9  1  0
  9 10  1  0
 10 11  1  0
 11 12  1  0
 12 13  2  0
 12 14  1  0
 14 15  1  0
 15 16  1  0
 16 17  2  0
 17 18  1  0
 18 19  1  0
 18 20  2  0
 20 21  1  0
 21 22  1  0
 22 23  1  0
 22 24  1  0
 22 25  1  0
 21 26  2  0
 26 27  1  0
 27 28  1  0
 27 14  2  0
 26 16  1  0
M  END
>  <Binding energies>  (54) 
[-4.92]

>  <Ligand effiencies>  (54) 
[-0.15870967741935485]

>  <Interactions>  (54) 
["V-B:HIS:456:CE1:9041, V-A:TYR:484:CE2:4346, V-B:GLU:543:CG:9879, V-B:HIS:456:CD2:9039, V-A:GLU:543:CD:4908, V-A:HIS:456:CE1:4070, V-A:GLU:543:CB:4906, V-A:TYR:484:CZ:4347, V-B:GLU:543:CB:9878, V-B:GLU:543:CA:9876, V-B:TYR:539:CE2:9848, V-A:GLY:454:CA:4049, V-A:ILE:369:CG2:3237, V-A:ILE:369:CD1:3239, V-A:GLU:543:C:4902, V-A:GLY:544:C:4912, V-B:TYR:539:CZ:9849, H-A:LYS:547:NZ:4951, V-A:ASP:366:CB:3212, V-A:ASP:366:CG:3213, V-A:ASP:366:CA:3210, V-A:ILE:369:CB:3236, H-A:TYR:484:OH:4348, H-A:GLU:543:OE2:4910, V-A:ASP:366:C:3208, H-A:GLY:454:N:4050, H-A:ARG:545:NE:4924, V-A:ARG:545:CZ:4926, H-A:GLU:543:OE1:4909, V-A:ILE:369:C:3232, V-A:ASN:370:CB:3245, V-A:ASN:370:CA:3243"]

$$$$
4cd_Grossjean_2025
     RDKit          3D

 29 32  0  0  0  0  0  0  0  0999 V2000
  129.0120  127.3140   63.7640 N   0  0  0  0  0  0  0  0  0  0  0  0
  129.3740  126.5900   64.8710 C   0  0  0  0  0  0  0  0  0  0  0  0
  130.0390  125.3550   64.8000 C   0  0  0  0  0  0  0  0  0  0  0  0
  130.4490  124.6060   63.6080 C   0  0  0  0  0  0  0  0  0  0  0  0
  129.8800  124.7800   62.5300 O   0  0  0  0  0  0  0  0  0  0  0  0
  131.4790  123.7440   63.7900 N   0  0  0  0  0  0  0  0  0  0  0  0
  132.0730  122.8510   62.8790 C   0  0  0  0  0  0  0  0  0  0  0  0
  131.1960  122.1650   62.0350 C   0  0  0  0  0  0  0  0  0  0  0  0
  131.6870  121.2690   61.0900 C   0  0  0  0  0  0  0  0  0  0  0  0
  133.0600  121.0640   60.9830 C   0  0  0  0  0  0  0  0  0  0  0  0
  133.9460  121.7510   61.8080 C   0  0  0  0  0  0  0  0  0  0  0  0
  133.4580  122.6480   62.7550 C   0  0  0  0  0  0  0  0  0  0  0  0
  130.3580  124.7110   66.4090 S   0  0  0  0  0  0  0  0  0  0  0  0
  129.5930  126.0900   67.1620 C   0  0  0  0  0  0  0  0  0  0  0  0
  129.5040  126.1970   68.4860 N   0  0  0  0  0  0  0  0  0  0  0  0
  128.8790  127.2990   68.9780 C   0  0  0  0  0  0  0  0  0  0  0  0
  128.7920  127.3920   70.4740 C   0  0  0  0  0  0  0  0  0  0  0  0
  129.8650  127.8940   71.2270 C   0  0  0  0  0  0  0  0  0  0  0  0
  129.7900  127.9840   72.6150 C   0  0  0  0  0  0  0  0  0  0  0  0
  128.6360  127.5700   73.2710 C   0  0  0  0  0  0  0  0  0  0  0  0
  127.5570  127.0720   72.5490 C   0  0  0  0  0  0  0  0  0  0  0  0
  127.6350  126.9860   71.1620 C   0  0  0  0  0  0  0  0  0  0  0  0
  128.3660  128.2950   68.1420 C   0  0  0  0  0  0  0  0  0  0  0  0
  128.4590  128.1920   66.7440 C   0  0  0  0  0  0  0  0  0  0  0  0
  127.8710  129.3190   65.8850 C   0  0  0  0  0  0  0  0  0  0  0  0
  128.4840  129.4520   64.7060 F   0  0  0  0  0  0  0  0  0  0  0  0
  126.5840  129.0750   65.6410 F   0  0  0  0  0  0  0  0  0  0  0  0
  127.9860  130.4810   66.5270 F   0  0  0  0  0  0  0  0  0  0  0  0
  129.1000  127.0360   66.2160 C   0  0  0  0  0  0  0  0  0  0  0  0
  1  2  1  0
  2  3  2  0
  3  4  1  0
  4  5  2  0
  4  6  1  0
  6  7  1  0
  7  8  2  0
  8  9  1  0
  9 10  2  0
 10 11  1  0
 11 12  2  0
  3 13  1  0
 13 14  1  0
 14 15  2  0
 15 16  1  0
 16 17  1  0
 17 18  2  0
 18 19  1  0
 19 20  2  0
 20 21  1  0
 21 22  2  0
 16 23  2  0
 23 24  1  0
 24 25  1  0
 25 26  1  0
 25 27  1  0
 25 28  1  0
 24 29  2  0
 29  2  1  0
 12  7  1  0
 29 14  1  0
 22 17  1  0
M  END
>  <Binding energies>  (55) 
[-7.24]

>  <Ligand effiencies>  (55) 
[-0.22625]

>  <Interactions>  (55) 
["V-B:HIS:456:CE1:9041, V-A:GLU:543:CG:4907, V-B:GLU:543:CD:9880, V-A:TYR:484:CE2:4346, V-B:GLU:543:CG:9879, V-B:TYR:484:CZ:9318, V-B:HIS:456:CD2:9039, V-B:GLU:543:C:9874, V-A:GLU:543:CD:4908, V-A:HIS:456:CE1:4070, V-A:GLU:543:CB:4906, V-B:GLY:544:C:9884, V-A:TYR:484:CZ:4347, V-B:GLU:543:CB:9878, V-B:LYS:547:CE:9922, V-B:TYR:539:CD2:9846, V-B:TYR:539:CE2:9848, V-A:GLY:454:CA:4049, V-A:LEU:475:CD2:4259, V-A:ILE:369:CG2:3237, V-A:ILE:369:CD1:3239, H-A:TYR:484:OH:4348, V-A:SER:385:C:3405, H-A:GLU:543:OE2:4910, H-A:GLU:543:OE1:4909, H-B:GLU:543:OE1:9881, V-A:SER:385:CB:3409, H-B:GLU:543:OE2:9882, V-B:TYR:484:CE2:9317"]

$$$$
4cg_Grossjean_2025
     RDKit          3D

 30 33  0  0  0  0  0  0  0  0999 V2000
  128.7530  127.1840   63.6790 N   0  0  0  0  0  0  0  0  0  0  0  0
  129.1080  126.4540   64.7840 C   0  0  0  0  0  0  0  0  0  0  0  0
  129.5950  125.1410   64.7130 C   0  0  0  0  0  0  0  0  0  0  0  0
  129.8620  124.3310   63.5250 C   0  0  0  0  0  0  0  0  0  0  0  0
  131.0120  124.1310   63.1290 O   0  0  0  0  0  0  0  0  0  0  0  0
  128.7780  123.8560   62.8760 N   0  0  0  0  0  0  0  0  0  0  0  0
  128.8070  123.0090   61.6850 C   0  0  0  0  0  0  0  0  0  0  0  0
  127.6430  123.2620   60.7330 C   0  0  0  0  0  0  0  0  0  0  0  0
  126.4160  123.7010   61.2380 C   0  0  0  0  0  0  0  0  0  0  0  0
  125.3600  123.9630   60.3690 C   0  0  0  0  0  0  0  0  0  0  0  0
  125.5380  123.7950   58.9970 C   0  0  0  0  0  0  0  0  0  0  0  0
  126.7630  123.3730   58.4870 C   0  0  0  0  0  0  0  0  0  0  0  0
  127.8200  123.1120   59.3550 C   0  0  0  0  0  0  0  0  0  0  0  0
  129.9720  124.5070   66.3120 S   0  0  0  0  0  0  0  0  0  0  0  0
  129.4540  125.9960   67.0680 C   0  0  0  0  0  0  0  0  0  0  0  0
  129.4970  126.1550   68.3880 N   0  0  0  0  0  0  0  0  0  0  0  0
  129.0790  127.3480   68.8860 C   0  0  0  0  0  0  0  0  0  0  0  0
  129.1380  127.4960   70.3800 C   0  0  0  0  0  0  0  0  0  0  0  0
  130.3030  127.9610   71.0130 C   0  0  0  0  0  0  0  0  0  0  0  0
  130.3630  128.0990   72.3960 C   0  0  0  0  0  0  0  0  0  0  0  0
  129.2560  127.7700   73.1720 C   0  0  0  0  0  0  0  0  0  0  0  0
  128.0910  127.3040   72.5720 C   0  0  0  0  0  0  0  0  0  0  0  0
  128.0350  127.1680   71.1880 C   0  0  0  0  0  0  0  0  0  0  0  0
  128.6010  128.3680   68.0550 C   0  0  0  0  0  0  0  0  0  0  0  0
  128.5510  128.2100   66.6610 C   0  0  0  0  0  0  0  0  0  0  0  0
  128.0160  129.3680   65.8090 C   0  0  0  0  0  0  0  0  0  0  0  0
  128.5880  129.4390   64.6060 F   0  0  0  0  0  0  0  0  0  0  0  0
  126.7050  129.2200   65.6210 F   0  0  0  0  0  0  0  0  0  0  0  0
  128.2440  130.5250   66.4280 F   0  0  0  0  0  0  0  0  0  0  0  0
  129.0020  126.9680   66.1280 C   0  0  0  0  0  0  0  0  0  0  0  0
  1  2  1  0
  2  3  2  0
  3  4  1  0
  4  5  2  0
  4  6  1  0
  6  7  1  0
  7  8  1  0
  8  9  2  0
  9 10  1  0
 10 11  2  0
 11 12  1  0
 12 13  2  0
  3 14  1  0
 14 15  1  0
 15 16  2  0
 16 17  1  0
 17 18  1  0
 18 19  2  0
 19 20  1  0
 20 21  2  0
 21 22  1  0
 22 23  2  0
 17 24  2  0
 24 25  1  0
 25 26  1  0
 26 27  1  0
 26 28  1  0
 26 29  1  0
 25 30  2  0
 30  2  1  0
 13  8  1  0
 30 15  1  0
 23 18  1  0
M  END
>  <Binding energies>  (56) 
[-7.5]

>  <Ligand effiencies>  (56) 
[-0.22727272727272727]

>  <Interactions>  (56) 
["V-B:HIS:456:CE1:9041, V-A:GLU:543:CG:4907, V-B:GLU:543:CD:9880, V-A:TYR:484:CE2:4346, V-B:GLU:543:CG:9879, V-B:TYR:484:CZ:9318, V-B:HIS:456:CD2:9039, V-A:GLU:543:CD:4908, V-A:HIS:456:CE1:4070, V-A:GLU:543:CB:4906, V-A:TYR:484:CZ:4347, V-B:GLU:543:CB:9878, V-B:GLU:543:CA:9876, V-B:PRO:540:CA:9855, V-B:PRO:540:CB:9857, V-B:PRO:540:N:9856, V-A:GLU:543:CA:4904, V-A:GLU:543:C:4902, V-A:GLY:544:C:4912, H-A:GLU:543:OE2:4910, H-A:GLU:543:OE1:4909, H-B:GLU:543:OE1:9881, H-B:GLU:543:OE2:9882, V-B:TYR:484:CE2:9317"]

$$$$
4ch_Grossjean_2025
     RDKit          3D

 36 39  0  0  0  0  0  0  0  0999 V2000
  125.8210  122.5950   56.8430 C   0  0  0  0  0  0  0  0  0  0  0  0
  127.1350  122.1060   57.0930 O   0  0  0  0  0  0  0  0  0  0  0  0
  127.9310  122.7490   58.0230 C   0  0  0  0  0  0  0  0  0  0  0  0
  128.2830  122.1990   59.2670 C   0  0  0  0  0  0  0  0  0  0  0  0
  129.0930  122.9040   60.1580 C   0  0  0  0  0  0  0  0  0  0  0  0
  129.4420  122.3030   61.5150 C   0  0  0  0  0  0  0  0  0  0  0  0
  129.3150  123.2360   62.6350 N   0  0  0  0  0  0  0  0  0  0  0  0
  130.1960  124.2080   62.9500 C   0  0  0  0  0  0  0  0  0  0  0  0
  131.2100  124.4250   62.2830 O   0  0  0  0  0  0  0  0  0  0  0  0
  129.8600  125.0240   64.1170 C   0  0  0  0  0  0  0  0  0  0  0  0
  130.2490  124.4520   65.7360 S   0  0  0  0  0  0  0  0  0  0  0  0
  129.5990  125.9060   66.4540 C   0  0  0  0  0  0  0  0  0  0  0  0
  129.5940  126.0880   67.7720 N   0  0  0  0  0  0  0  0  0  0  0  0
  129.0720  127.2520   68.2380 C   0  0  0  0  0  0  0  0  0  0  0  0
  129.0770  127.4240   69.7300 C   0  0  0  0  0  0  0  0  0  0  0  0
  130.1750  128.0080   70.3830 C   0  0  0  0  0  0  0  0  0  0  0  0
  130.1860  128.1690   71.7660 C   0  0  0  0  0  0  0  0  0  0  0  0
  129.0950  127.7470   72.5190 C   0  0  0  0  0  0  0  0  0  0  0  0
  127.9970  127.1620   71.8980 C   0  0  0  0  0  0  0  0  0  0  0  0
  127.9910  127.0010   70.5150 C   0  0  0  0  0  0  0  0  0  0  0  0
  128.5420  128.2200   67.3790 C   0  0  0  0  0  0  0  0  0  0  0  0
  128.5400  128.0380   65.9860 C   0  0  0  0  0  0  0  0  0  0  0  0
  127.9430  129.1380   65.1020 C   0  0  0  0  0  0  0  0  0  0  0  0
  126.6840  128.8900   64.7340 F   0  0  0  0  0  0  0  0  0  0  0  0
  127.9440  130.2960   65.7600 F   0  0  0  0  0  0  0  0  0  0  0  0
  128.6650  129.2650   63.9890 F   0  0  0  0  0  0  0  0  0  0  0  0
  129.0970  126.8260   65.4860 C   0  0  0  0  0  0  0  0  0  0  0  0
  129.2710  126.2980   64.1550 C   0  0  0  0  0  0  0  0  0  0  0  0
  128.8850  126.9790   63.0290 N   0  0  0  0  0  0  0  0  0  0  0  0
  129.5460  124.1790   59.8150 C   0  0  0  0  0  0  0  0  0  0  0  0
  129.2090  124.7540   58.5790 C   0  0  0  0  0  0  0  0  0  0  0  0
  129.6220  126.0100   58.1740 O   0  0  0  0  0  0  0  0  0  0  0  0
  130.9600  126.4220   58.4320 C   0  0  0  0  0  0  0  0  0  0  0  0
  128.4060  124.0250   57.6900 C   0  0  0  0  0  0  0  0  0  0  0  0
  128.0560  124.5820   56.4840 O   0  0  0  0  0  0  0  0  0  0  0  0
  127.2210  125.7260   56.5940 C   0  0  0  0  0  0  0  0  0  0  0  0
  1  2  1  0
  2  3  1  0
  3  4  2  0
  4  5  1  0
  5  6  1  0
  6  7  1  0
  7  8  1  0
  8  9  2  0
  8 10  1  0
 10 11  1  0
 11 12  1  0
 12 13  2  0
 13 14  1  0
 14 15  1  0
 15 16  2  0
 16 17  1  0
 17 18  2  0
 18 19  1  0
 19 20  2  0
 14 21  2  0
 21 22  1  0
 22 23  1  0
 23 24  1  0
 23 25  1  0
 23 26  1  0
 22 27  2  0
 27 28  1  0
 28 29  1  0
  5 30  2  0
 30 31  1  0
 31 32  1  0
 32 33  1  0
 31 34  2  0
 34 35  1  0
 35 36  1  0
 34  3  1  0
 28 10  2  0
 27 12  1  0
 20 15  1  0
M  END
>  <Binding energies>  (57) 
[-6.86]

>  <Ligand effiencies>  (57) 
[-0.1758974358974359]

>  <Interactions>  (57) 
["V-B:HIS:456:CE1:9041, V-A:GLU:543:CG:4907, V-B:GLU:543:CD:9880, V-A:TYR:484:CE2:4346, V-B:GLU:543:CG:9879, V-B:TYR:484:CZ:9318, V-B:HIS:456:CD2:9039, V-B:GLU:543:C:9874, V-A:GLU:543:CD:4908, V-A:HIS:456:CE1:4070, V-A:GLU:543:CB:4906, V-A:TYR:484:CZ:4347, V-B:GLU:543:CB:9878, V-B:TYR:539:CD2:9846, V-B:TYR:539:CE2:9848, V-B:PRO:540:CA:9855, V-B:PRO:540:CD:9859, V-B:PRO:540:CB:9857, V-B:PRO:540:N:9856, V-B:TYR:539:C:9839, V-A:GLU:543:C:4902, V-A:GLY:544:C:4912, V-B:TYR:539:CG:9844, V-B:MET:535:CE:9807, V-B:TYR:539:CZ:9849, H-B:TYR:539:N:9842, H-A:GLU:543:OE1:4909, H-B:GLU:543:OE1:9881, H-B:GLU:543:OE2:9882, V-B:TYR:484:CE2:9317"]

$$$$
4cj_Grossjean_2025
     RDKit          3D

 28 31  0  0  0  0  0  0  0  0999 V2000
  129.0840  127.1770   63.7990 N   0  0  0  0  0  0  0  0  0  0  0  0
  129.4860  126.5240   64.9360 C   0  0  0  0  0  0  0  0  0  0  0  0
  130.2720  125.3600   64.9170 C   0  0  0  0  0  0  0  0  0  0  0  0
  130.8070  124.6370   63.7610 C   0  0  0  0  0  0  0  0  0  0  0  0
  130.3930  124.8710   62.6230 O   0  0  0  0  0  0  0  0  0  0  0  0
  131.7590  123.7130   64.0420 N   0  0  0  0  0  0  0  0  0  0  0  0
  132.4230  122.8980   63.1350 C   0  0  0  0  0  0  0  0  0  0  0  0
  133.7110  122.6300   63.0840 N   0  0  0  0  0  0  0  0  0  0  0  0
  133.9960  121.8120   62.0900 C   0  0  0  0  0  0  0  0  0  0  0  0
  132.9220  121.3980   61.3060 C   0  0  0  0  0  0  0  0  0  0  0  0
  131.4650  122.1240   61.9140 S   0  0  0  0  0  0  0  0  0  0  0  0
  130.6120  124.7960   66.5520 S   0  0  0  0  0  0  0  0  0  0  0  0
  129.7020  126.1170   67.2450 C   0  0  0  0  0  0  0  0  0  0  0  0
  129.5790  126.2590   68.5620 N   0  0  0  0  0  0  0  0  0  0  0  0
  128.8590  127.3200   69.0090 C   0  0  0  0  0  0  0  0  0  0  0  0
  128.7520  127.4590   70.5000 C   0  0  0  0  0  0  0  0  0  0  0  0
  127.6110  127.0080   71.1830 C   0  0  0  0  0  0  0  0  0  0  0  0
  127.5020  127.1390   72.5660 C   0  0  0  0  0  0  0  0  0  0  0  0
  128.5360  127.7280   73.2870 C   0  0  0  0  0  0  0  0  0  0  0  0
  129.6750  128.1840   72.6350 C   0  0  0  0  0  0  0  0  0  0  0  0
  129.7800  128.0510   71.2530 C   0  0  0  0  0  0  0  0  0  0  0  0
  128.2460  128.2190   68.1300 C   0  0  0  0  0  0  0  0  0  0  0  0
  128.3670  128.0770   66.7390 C   0  0  0  0  0  0  0  0  0  0  0  0
  127.6710  129.1000   65.8330 C   0  0  0  0  0  0  0  0  0  0  0  0
  127.3090  128.5950   64.6520 F   0  0  0  0  0  0  0  0  0  0  0  0
  126.5680  129.5520   66.4290 F   0  0  0  0  0  0  0  0  0  0  0  0
  128.4920  130.1230   65.5940 F   0  0  0  0  0  0  0  0  0  0  0  0
  129.1360  126.9780   66.2600 C   0  0  0  0  0  0  0  0  0  0  0  0
  1  2  1  0
  2  3  2  0
  3  4  1  0
  4  5  2  0
  4  6  1  0
  6  7  1  0
  7  8  2  0
  8  9  1  0
  9 10  2  0
 10 11  1  0
  3 12  1  0
 12 13  1  0
 13 14  2  0
 14 15  1  0
 15 16  1  0
 16 17  2  0
 17 18  1  0
 18 19  2  0
 19 20  1  0
 20 21  2  0
 15 22  2  0
 22 23  1  0
 23 24  1  0
 24 25  1  0
 24 26  1  0
 24 27  1  0
 23 28  2  0
 28  2  1  0
 11  7  1  0
 28 13  1  0
 21 16  1  0
M  END
>  <Binding energies>  (58) 
[-6.93]

>  <Ligand effiencies>  (58) 
[-0.2235483870967742]

>  <Interactions>  (58) 
["V-B:HIS:456:CE1:9041, V-A:GLU:543:CG:4907, V-B:GLU:543:CD:9880, V-A:TYR:484:CE2:4346, V-B:GLU:543:CG:9879, V-B:TYR:484:CZ:9318, V-B:HIS:456:CD2:9039, V-B:GLU:543:C:9874, V-A:GLU:543:CD:4908, V-A:HIS:456:CE1:4070, V-A:GLU:543:CB:4906, V-B:GLY:544:C:9884, V-A:TYR:484:CZ:4347, V-B:GLU:543:CB:9878, V-B:LYS:547:CE:9922, V-A:GLY:454:CA:4049, V-A:LEU:475:CD2:4259, V-A:ILE:369:CG2:3237, V-A:ILE:369:CD1:3239, H-A:TYR:484:OH:4348, V-A:SER:385:C:3405, H-A:GLU:543:OE2:4910, H-A:GLY:454:N:4050, H-A:GLU:543:OE1:4909, H-B:GLU:543:OE1:9881, H-B:GLU:543:OE2:9882, V-B:TYR:484:CE2:9317"]

$$$$
4ck_Grossjean_2025
     RDKit          3D

 33 35  0  0  0  0  0  0  0  0999 V2000
  125.5720  122.4790   56.3970 C   0  0  0  0  0  0  0  0  0  0  0  0
  126.8290  122.1120   56.9420 O   0  0  0  0  0  0  0  0  0  0  0  0
  127.7510  123.1920   57.0130 C   0  0  0  0  0  0  0  0  0  0  0  0
  127.7880  123.7240   58.4520 C   0  0  0  0  0  0  0  0  0  0  0  0
  126.7830  123.0700   59.2140 O   0  0  0  0  0  0  0  0  0  0  0  0
  126.6760  123.5550   60.5460 C   0  0  0  0  0  0  0  0  0  0  0  0
  127.6340  122.7660   61.4470 C   0  0  0  0  0  0  0  0  0  0  0  0
  128.5570  122.0620   60.6280 O   0  0  0  0  0  0  0  0  0  0  0  0
  129.7270  121.6350   61.3150 C   0  0  0  0  0  0  0  0  0  0  0  0
  130.6700  122.8300   61.5160 C   0  0  0  0  0  0  0  0  0  0  0  0
  130.2710  123.6610   62.6530 N   0  0  0  0  0  0  0  0  0  0  0  0
  130.8110  124.8500   62.9910 C   0  0  0  0  0  0  0  0  0  0  0  0
  131.7070  125.3840   62.3350 O   0  0  0  0  0  0  0  0  0  0  0  0
  130.2600  125.4850   64.1890 C   0  0  0  0  0  0  0  0  0  0  0  0
  130.6550  124.8540   65.7850 S   0  0  0  0  0  0  0  0  0  0  0  0
  129.7240  126.1140   66.5600 C   0  0  0  0  0  0  0  0  0  0  0  0
  129.6240  126.1890   67.8850 N   0  0  0  0  0  0  0  0  0  0  0  0
  128.8770  127.2020   68.3970 C   0  0  0  0  0  0  0  0  0  0  0  0
  128.7990  127.2690   69.8950 C   0  0  0  0  0  0  0  0  0  0  0  0
  127.6140  126.9350   70.5690 C   0  0  0  0  0  0  0  0  0  0  0  0
  127.5340  126.9980   71.9590 C   0  0  0  0  0  0  0  0  0  0  0  0
  128.6440  127.3970   72.6960 C   0  0  0  0  0  0  0  0  0  0  0  0
  129.8320  127.7280   72.0540 C   0  0  0  0  0  0  0  0  0  0  0  0
  129.9080  127.6630   70.6640 C   0  0  0  0  0  0  0  0  0  0  0  0
  128.2430  128.1400   67.5760 C   0  0  0  0  0  0  0  0  0  0  0  0
  128.3410  128.0700   66.1770 C   0  0  0  0  0  0  0  0  0  0  0  0
  127.6170  129.1290   65.3370 C   0  0  0  0  0  0  0  0  0  0  0  0
  127.2220  128.6730   64.1470 F   0  0  0  0  0  0  0  0  0  0  0  0
  126.5310  129.5510   65.9830 F   0  0  0  0  0  0  0  0  0  0  0  0
  128.4290  130.1630   65.1190 F   0  0  0  0  0  0  0  0  0  0  0  0
  129.1190  127.0100   65.6300 C   0  0  0  0  0  0  0  0  0  0  0  0
  129.4510  126.6280   64.2780 C   0  0  0  0  0  0  0  0  0  0  0  0
  129.0090  127.3220   63.1810 N   0  0  0  0  0  0  0  0  0  0  0  0
  1  2  1  0
  2  3  1  0
  3  4  1  0
  4  5  1  0
  5  6  1  0
  6  7  1  0
  7  8  1  0
  8  9  1  0
  9 10  1  0
 10 11  1  0
 11 12  1  0
 12 13  2  0
 12 14  1  0
 14 15  1  0
 15 16  1  0
 16 17  2  0
 17 18  1  0
 18 19  1  0
 19 20  2  0
 20 21  1  0
 21 22  2  0
 22 23  1  0
 23 24  2  0
 18 25  2  0
 25 26  1  0
 26 27  1  0
 27 28  1  0
 27 29  1  0
 27 30  1  0
 26 31  2  0
 31 32  1  0
 32 33  1  0
 32 14  2  0
 31 16  1  0
 24 19  1  0
M  END
>  <Binding energies>  (59) 
[-6.27]

>  <Ligand effiencies>  (59) 
[-0.17416666666666666]

>  <Interactions>  (59) 
["V-B:HIS:456:CE1:9041, V-A:GLU:543:CG:4907, V-B:GLU:543:CD:9880, V-A:TYR:484:CE2:4346, V-B:GLU:543:CG:9879, V-B:TYR:484:CZ:9318, V-B:HIS:456:CD2:9039, V-B:GLU:543:C:9874, V-A:GLU:543:CD:4908, V-A:HIS:456:CE1:4070, V-A:GLU:543:CB:4906, V-B:GLY:544:C:9884, V-A:TYR:484:CZ:4347, V-B:GLU:543:CB:9878, V-B:TYR:539:CD2:9846, V-B:TYR:539:CE2:9848, V-B:PRO:540:CA:9855, V-B:PRO:540:CD:9859, V-B:PRO:540:CB:9857, V-B:PRO:540:N:9856, V-B:ALA:541:CB:9864, V-B:PRO:540:C:9853, V-B:LEU:363:CD1:8160, V-B:TYR:539:CG:9844, V-B:TYR:539:CD1:9845, V-B:MET:535:CE:9807, V-B:TYR:539:CE1:9847, V-B:TYR:539:CZ:9849, H-B:ALA:541:N:9863, H-A:ARG:545:NH2:4928, H-B:TYR:539:N:9842, H-A:GLU:543:OE1:4909, H-B:GLU:543:OE1:9881, V-B:GLY:544:CA:9886, H-B:GLU:543:OE2:9882, V-B:ILE:538:CG2:9835"]

$$$$
4dd_Grossjean_2025
     RDKit          3D

 26 29  0  0  0  0  0  0  0  0999 V2000
  127.7160  129.1430   65.7410 C   0  0  0  0  0  0  0  0  0  0  0  0
  128.3750  128.1050   66.6380 C   0  0  0  0  0  0  0  0  0  0  0  0
  128.2190  128.2360   68.0230 C   0  0  0  0  0  0  0  0  0  0  0  0
  128.8000  127.3140   68.9020 C   0  0  0  0  0  0  0  0  0  0  0  0
  128.6540  127.4320   70.3910 C   0  0  0  0  0  0  0  0  0  0  0  0
  127.4900  126.9880   71.0370 C   0  0  0  0  0  0  0  0  0  0  0  0
  127.3490  127.0910   72.4190 C   0  0  0  0  0  0  0  0  0  0  0  0
  128.3750  127.6450   73.1760 C   0  0  0  0  0  0  0  0  0  0  0  0
  129.5410  128.0910   72.5630 C   0  0  0  0  0  0  0  0  0  0  0  0
  129.6780  127.9840   71.1810 C   0  0  0  0  0  0  0  0  0  0  0  0
  129.5460  126.2660   68.4560 N   0  0  0  0  0  0  0  0  0  0  0  0
  129.6900  126.1370   67.1380 C   0  0  0  0  0  0  0  0  0  0  0  0
  130.6060  124.8280   66.4270 S   0  0  0  0  0  0  0  0  0  0  0  0
  130.2720  125.4150   64.7970 C   0  0  0  0  0  0  0  0  0  0  0  0
  130.7860  124.6960   63.6300 C   0  0  0  0  0  0  0  0  0  0  0  0
  130.4280  123.5400   63.3970 O   0  0  0  0  0  0  0  0  0  0  0  0
  131.6530  125.3910   62.8540 N   0  0  0  0  0  0  0  0  0  0  0  0
  132.3600  124.9810   61.7090 C   0  0  0  0  0  0  0  0  0  0  0  0
  131.7790  125.3130   60.4820 C   0  0  0  0  0  0  0  0  0  0  0  0
  132.4090  124.9640   59.2900 C   0  0  0  0  0  0  0  0  0  0  0  0
  133.6250  124.2880   59.3250 C   0  0  0  0  0  0  0  0  0  0  0  0
  134.2210  123.9620   60.5410 C   0  0  0  0  0  0  0  0  0  0  0  0
  133.5940  124.3100   61.7340 C   0  0  0  0  0  0  0  0  0  0  0  0
  129.4880  126.5790   64.8300 C   0  0  0  0  0  0  0  0  0  0  0  0
  129.0790  127.2570   63.7080 N   0  0  0  0  0  0  0  0  0  0  0  0
  129.1390  127.0110   66.1580 C   0  0  0  0  0  0  0  0  0  0  0  0
  1  2  1  0
  2  3  2  0
  3  4  1  0
  4  5  1  0
  5  6  2  0
  6  7  1  0
  7  8  2  0
  8  9  1  0
  9 10  2  0
  4 11  2  0
 11 12  1  0
 12 13  1  0
 13 14  1  0
 14 15  1  0
 15 16  2  0
 15 17  1  0
 17 18  1  0
 18 19  2  0
 19 20  1  0
 20 21  2  0
 21 22  1  0
 22 23  2  0
 14 24  2  0
 24 25  1  0
 24 26  1  0
 26  2  1  0
 10  5  1  0
 26 12  2  0
 23 18  1  0
M  END
>  <Binding energies>  (60) 
[-7.47]

>  <Ligand effiencies>  (60) 
[-0.2575862068965517]

>  <Interactions>  (60) 
["V-B:HIS:456:CE1:9041, V-A:GLU:543:CG:4907, V-B:GLU:543:CD:9880, V-A:TYR:484:CE2:4346, V-B:GLU:543:CG:9879, V-B:HIS:456:CD2:9039, V-B:GLU:543:C:9874, V-A:GLU:543:CD:4908, V-B:HIS:456:CG:9037, V-A:HIS:456:CE1:4070, V-A:GLU:543:CB:4906, V-B:GLY:544:C:9884, V-A:TYR:484:CZ:4347, V-B:GLU:543:CB:9878, V-B:LYS:547:CE:9922, V-B:TYR:539:CE2:9848, V-A:ILE:369:CG2:3237, V-A:ILE:369:CD1:3239, V-A:ASP:366:CB:3212, V-A:ASP:366:CG:3213, V-A:ASP:366:CA:3210, V-A:ILE:369:CB:3236, H-A:GLU:543:OE2:4910, H-A:GLU:543:OE1:4909, H-B:GLU:543:OE1:9881, V-B:GLY:544:CA:9886, H-B:GLU:543:OE2:9882"]

$$$$
4dg_Grossjean_2025
     RDKit          3D

 27 30  0  0  0  0  0  0  0  0999 V2000
  127.9460  129.3270   66.0920 C   0  0  0  0  0  0  0  0  0  0  0  0
  128.4850  128.2430   67.0140 C   0  0  0  0  0  0  0  0  0  0  0  0
  128.3600  128.4300   68.3950 C   0  0  0  0  0  0  0  0  0  0  0  0
  128.8350  127.4700   69.2970 C   0  0  0  0  0  0  0  0  0  0  0  0
  128.7150  127.6410   70.7850 C   0  0  0  0  0  0  0  0  0  0  0  0
  127.5820  127.1780   71.4750 C   0  0  0  0  0  0  0  0  0  0  0  0
  127.4630  127.3390   72.8530 C   0  0  0  0  0  0  0  0  0  0  0  0
  128.4790  127.9660   73.5650 C   0  0  0  0  0  0  0  0  0  0  0  0
  129.6110  128.4380   72.9070 C   0  0  0  0  0  0  0  0  0  0  0  0
  129.7250  128.2770   71.5290 C   0  0  0  0  0  0  0  0  0  0  0  0
  129.4170  126.3140   68.8750 N   0  0  0  0  0  0  0  0  0  0  0  0
  129.5370  126.1360   67.5600 C   0  0  0  0  0  0  0  0  0  0  0  0
  130.2710  124.7000   66.8840 S   0  0  0  0  0  0  0  0  0  0  0  0
  130.0090  125.2870   65.2420 C   0  0  0  0  0  0  0  0  0  0  0  0
  130.4750  124.5030   64.0990 C   0  0  0  0  0  0  0  0  0  0  0  0
  130.2000  124.8290   62.9420 O   0  0  0  0  0  0  0  0  0  0  0  0
  131.1820  123.3930   64.3940 N   0  0  0  0  0  0  0  0  0  0  0  0
  131.7640  122.4740   63.4160 C   0  0  0  0  0  0  0  0  0  0  0  0
  132.6620  123.1650   62.3960 C   0  0  0  0  0  0  0  0  0  0  0  0
  133.8620  123.7520   62.8120 C   0  0  0  0  0  0  0  0  0  0  0  0
  134.6990  124.3560   61.8790 C   0  0  0  0  0  0  0  0  0  0  0  0
  134.3420  124.3620   60.5320 C   0  0  0  0  0  0  0  0  0  0  0  0
  133.1570  123.7650   60.1090 C   0  0  0  0  0  0  0  0  0  0  0  0
  132.3190  123.1590   61.0420 C   0  0  0  0  0  0  0  0  0  0  0  0
  129.3940  126.5480   65.2430 C   0  0  0  0  0  0  0  0  0  0  0  0
  129.0850  127.2470   64.1040 N   0  0  0  0  0  0  0  0  0  0  0  0
  129.1020  127.0500   66.5590 C   0  0  0  0  0  0  0  0  0  0  0  0
  1  2  1  0
  2  3  2  0
  3  4  1  0
  4  5  1  0
  5  6  2  0
  6  7  1  0
  7  8  2  0
  8  9  1  0
  9 10  2  0
  4 11  2  0
 11 12  1  0
 12 13  1  0
 13 14  1  0
 14 15  1  0
 15 16  2  0
 15 17  1  0
 17 18  1  0
 18 19  1  0
 19 20  2  0
 20 21  1  0
 21 22  2  0
 22 23  1  0
 23 24  2  0
 14 25  2  0
 25 26  1  0
 25 27  1  0
 27  2  1  0
 10  5  1  0
 27 12  2  0
 24 19  1  0
M  END
>  <Binding energies>  (61) 
[-7.79]

>  <Ligand effiencies>  (61) 
[-0.25966666666666666]

>  <Interactions>  (61) 
["V-B:HIS:456:CE1:9041, V-A:GLU:543:CG:4907, V-B:GLU:543:CD:9880, V-A:TYR:484:CE2:4346, V-B:GLU:543:CG:9879, V-B:HIS:456:CD2:9039, V-A:GLU:543:CD:4908, V-B:HIS:456:CG:9037, V-A:HIS:456:CE1:4070, V-A:GLU:543:CB:4906, V-B:GLY:544:C:9884, V-A:TYR:484:CZ:4347, V-B:GLU:543:CB:9878, V-B:LYS:547:CE:9922, V-B:TYR:539:CE2:9848, V-A:GLY:454:CA:4049, V-A:LEU:475:CD2:4259, V-A:ILE:369:CG2:3237, V-A:ILE:369:CD1:3239, V-A:ASP:366:CB:3212, V-A:ASP:366:CG:3213, V-A:ASP:366:CA:3210, V-A:GLY:453:CA:4044, V-A:ILE:369:CB:3236, H-A:TYR:484:OH:4348, H-A:GLU:543:OE2:4910, H-A:GLU:543:OE1:4909, H-B:GLU:543:OE1:9881, H-B:GLU:543:OE2:9882"]

$$$$
4dj_Grossjean_2025
     RDKit          3D

 25 28  0  0  0  0  0  0  0  0999 V2000
  127.7610  129.1100   65.8620 C   0  0  0  0  0  0  0  0  0  0  0  0
  128.4090  128.0740   66.7690 C   0  0  0  0  0  0  0  0  0  0  0  0
  128.2640  128.2260   68.1530 C   0  0  0  0  0  0  0  0  0  0  0  0
  128.8370  127.3080   69.0410 C   0  0  0  0  0  0  0  0  0  0  0  0
  128.6930  127.4430   70.5310 C   0  0  0  0  0  0  0  0  0  0  0  0
  129.7020  128.0440   71.3010 C   0  0  0  0  0  0  0  0  0  0  0  0
  129.5760  128.1720   72.6810 C   0  0  0  0  0  0  0  0  0  0  0  0
  128.4340  127.6930   73.3160 C   0  0  0  0  0  0  0  0  0  0  0  0
  127.4210  127.0890   72.5790 C   0  0  0  0  0  0  0  0  0  0  0  0
  127.5510  126.9650   71.1990 C   0  0  0  0  0  0  0  0  0  0  0  0
  129.5400  126.2280   68.6040 N   0  0  0  0  0  0  0  0  0  0  0  0
  129.6790  126.0830   67.2870 C   0  0  0  0  0  0  0  0  0  0  0  0
  130.5650  124.7450   66.5900 S   0  0  0  0  0  0  0  0  0  0  0  0
  130.2450  125.3250   64.9540 C   0  0  0  0  0  0  0  0  0  0  0  0
  130.7640  124.5960   63.7960 C   0  0  0  0  0  0  0  0  0  0  0  0
  130.3140  124.8050   62.6660 O   0  0  0  0  0  0  0  0  0  0  0  0
  131.7430  123.6970   64.0630 N   0  0  0  0  0  0  0  0  0  0  0  0
  132.3980  122.8810   63.1520 C   0  0  0  0  0  0  0  0  0  0  0  0
  133.6820  122.5970   63.0990 N   0  0  0  0  0  0  0  0  0  0  0  0
  133.9580  121.7840   62.0980 C   0  0  0  0  0  0  0  0  0  0  0  0
  132.8800  121.3870   61.3120 C   0  0  0  0  0  0  0  0  0  0  0  0
  131.4310  122.1270   61.9250 S   0  0  0  0  0  0  0  0  0  0  0  0
  129.4870  126.5060   64.9760 C   0  0  0  0  0  0  0  0  0  0  0  0
  129.0940  127.1820   63.8470 N   0  0  0  0  0  0  0  0  0  0  0  0
  129.1490  126.9590   66.2980 C   0  0  0  0  0  0  0  0  0  0  0  0
  1  2  1  0
  2  3  2  0
  3  4  1  0
  4  5  1  0
  5  6  2  0
  6  7  1  0
  7  8  2  0
  8  9  1  0
  9 10  2  0
  4 11  2  0
 11 12  1  0
 12 13  1  0
 13 14  1  0
 14 15  1  0
 15 16  2  0
 15 17  1  0
 17 18  1  0
 18 19  2  0
 19 20  1  0
 20 21  2  0
 21 22  1  0
 14 23  2  0
 23 24  1  0
 23 25  1  0
 25  2  1  0
 10  5  1  0
 25 12  2  0
 22 18  1  0
M  END
>  <Binding energies>  (62) 
[-7.24]

>  <Ligand effiencies>  (62) 
[-0.25857142857142856]

>  <Interactions>  (62) 
["V-B:HIS:456:CE1:9041, V-A:GLU:543:CG:4907, V-B:GLU:543:CD:9880, V-A:TYR:484:CE2:4346, V-B:GLU:543:CG:9879, V-B:HIS:456:CD2:9039, V-B:GLU:543:C:9874, V-A:GLU:543:CD:4908, V-A:HIS:456:CE1:4070, V-A:GLU:543:CB:4906, V-B:GLY:544:C:9884, V-A:TYR:484:CZ:4347, V-B:GLU:543:CB:9878, V-B:LYS:547:CE:9922, V-A:GLY:454:CA:4049, V-A:LEU:475:CD2:4259, V-A:ILE:369:CG2:3237, V-A:ILE:369:CD1:3239, H-A:TYR:484:OH:4348, V-A:SER:385:C:3405, H-A:GLU:543:OE2:4910, H-A:GLY:454:N:4050, H-A:GLU:543:OE1:4909, H-B:GLU:543:OE1:9881, V-B:GLY:544:CA:9886, H-B:GLU:543:OE2:9882"]

$$$$
4ea_Grossjean_2025
     RDKit          3D

 31 34  0  0  0  0  0  0  0  0999 V2000
  130.1000  132.3220   73.2730 C   0  0  0  0  0  0  0  0  0  0  0  0
  129.1130  131.2070   73.6340 C   0  0  0  0  0  0  0  0  0  0  0  0
  129.6590  129.9510   73.2530 O   0  0  0  0  0  0  0  0  0  0  0  0
  128.8550  128.9120   72.9090 C   0  0  0  0  0  0  0  0  0  0  0  0
  127.8980  128.5370   73.5950 O   0  0  0  0  0  0  0  0  0  0  0  0
  129.2460  128.2630   71.6130 C   0  0  0  0  0  0  0  0  0  0  0  0
  130.5780  128.3360   71.1870 C   0  0  0  0  0  0  0  0  0  0  0  0
  130.9730  127.7450   69.9900 C   0  0  0  0  0  0  0  0  0  0  0  0
  130.0460  127.0700   69.1950 C   0  0  0  0  0  0  0  0  0  0  0  0
  130.5580  126.5120   68.0070 N   0  0  0  0  0  0  0  0  0  0  0  0
  130.2970  125.3220   67.4120 C   0  0  0  0  0  0  0  0  0  0  0  0
  129.5130  124.4830   67.8540 O   0  0  0  0  0  0  0  0  0  0  0  0
  131.0270  125.0750   66.1660 C   0  0  0  0  0  0  0  0  0  0  0  0
  132.7440  125.4660   66.0430 S   0  0  0  0  0  0  0  0  0  0  0  0
  132.8030  124.9080   64.3870 C   0  0  0  0  0  0  0  0  0  0  0  0
  133.9270  124.9440   63.6700 N   0  0  0  0  0  0  0  0  0  0  0  0
  133.8390  124.4820   62.3990 C   0  0  0  0  0  0  0  0  0  0  0  0
  135.1290  124.5320   61.6020 C   0  0  0  0  0  0  0  0  0  0  0  0
  132.6650  123.9900   61.8330 C   0  0  0  0  0  0  0  0  0  0  0  0
  131.4870  123.9540   62.5880 C   0  0  0  0  0  0  0  0  0  0  0  0
  130.2480  123.4290   61.9730 C   0  0  0  0  0  0  0  0  0  0  0  0
  130.0570  122.0490   61.8440 C   0  0  0  0  0  0  0  0  0  0  0  0
  128.8900  121.5540   61.2680 C   0  0  0  0  0  0  0  0  0  0  0  0
  127.9150  122.4400   60.8160 C   0  0  0  0  0  0  0  0  0  0  0  0
  128.0960  123.8160   60.9360 C   0  0  0  0  0  0  0  0  0  0  0  0
  129.2640  124.3090   61.5120 C   0  0  0  0  0  0  0  0  0  0  0  0
  131.5380  124.4300   63.9270 C   0  0  0  0  0  0  0  0  0  0  0  0
  130.5430  124.5370   64.9630 C   0  0  0  0  0  0  0  0  0  0  0  0
  129.2430  124.1430   64.7710 N   0  0  0  0  0  0  0  0  0  0  0  0
  128.7080  126.9920   69.6140 C   0  0  0  0  0  0  0  0  0  0  0  0
  128.3160  127.5840   70.8110 C   0  0  0  0  0  0  0  0  0  0  0  0
  1  2  1  0
  2  3  1  0
  3  4  1  0
  4  5  2  0
  4  6  1  0
  6  7  2  0
  7  8  1  0
  8  9  2  0
  9 10  1  0
 10 11  1  0
 11 12  2  0
 11 13  1  0
 13 14  1  0
 14 15  1  0
 15 16  2  0
 16 17  1  0
 17 18  1  0
 17 19  2  0
 19 20  1  0
 20 21  1  0
 21 22  2  0
 22 23  1  0
 23 24  2  0
 24 25  1  0
 25 26  2  0
 20 27  2  0
 27 28  1  0
 28 29  1  0
  9 30  1  0
 30 31  2  0
 31  6  1  0
 28 13  2  0
 27 15  1  0
 26 21  1  0
M  END
>  <Binding energies>  (63) 
[-7.83]

>  <Ligand effiencies>  (63) 
[-0.23029411764705882]

>  <Interactions>  (63) 
["V-B:HIS:456:CE1:9041, V-B:GLU:543:CD:9880, V-A:TYR:484:CE2:4346, V-B:GLU:543:CG:9879, V-B:HIS:456:CD2:9039, V-A:HIS:456:CE1:4070, V-A:GLU:543:CB:4906, V-A:TYR:484:CZ:4347, V-B:GLU:543:CB:9878, V-B:PRO:540:CA:9855, V-A:LEU:475:CD2:4259, V-B:PRO:540:N:9856, V-B:TYR:539:C:9839, V-A:ILE:369:CD1:3239, V-A:GLU:543:C:4902, V-A:ARG:545:CG:4922, V-A:GLY:544:C:4912, V-B:ALA:541:CB:9864, V-B:PRO:540:C:9853, H-A:LYS:547:NZ:4951, V-A:ASP:366:CG:3213, V-A:ASP:366:CA:3210, V-A:GLY:453:CA:4044, H-A:GLU:543:OE2:4910, H-A:GLY:454:N:4050, H-A:ARG:545:NH1:4927, H-A:ARG:545:NE:4924, V-A:ARG:545:CZ:4926, H-A:ARG:545:NH2:4928, V-A:ARG:545:CD:4923, H-B:GLU:543:OE1:9881, V-A:LYS:547:CE:4950, V-A:GLY:544:CA:4914"]

$$$$
4eb_Grossjean_2025
     RDKit          3D

 30 33  0  0  0  0  0  0  0  0999 V2000
  129.2350  131.1760   73.2870 C   0  0  0  0  0  0  0  0  0  0  0  0
  129.6020  129.8050   73.3510 O   0  0  0  0  0  0  0  0  0  0  0  0
  128.7570  128.8350   72.9160 C   0  0  0  0  0  0  0  0  0  0  0  0
  127.7330  128.5040   73.5220 O   0  0  0  0  0  0  0  0  0  0  0  0
  129.1920  128.2050   71.6240 C   0  0  0  0  0  0  0  0  0  0  0  0
  130.5340  128.2990   71.2360 C   0  0  0  0  0  0  0  0  0  0  0  0
  130.9690  127.7260   70.0440 C   0  0  0  0  0  0  0  0  0  0  0  0
  130.0730  127.0480   69.2170 C   0  0  0  0  0  0  0  0  0  0  0  0
  130.6230  126.5100   68.0380 N   0  0  0  0  0  0  0  0  0  0  0  0
  130.3490  125.3510   67.3910 C   0  0  0  0  0  0  0  0  0  0  0  0
  129.5120  124.5290   67.7640 O   0  0  0  0  0  0  0  0  0  0  0  0
  131.1310  125.1140   66.1740 C   0  0  0  0  0  0  0  0  0  0  0  0
  132.8220  125.6130   66.0890 S   0  0  0  0  0  0  0  0  0  0  0  0
  132.9670  125.0100   64.4540 C   0  0  0  0  0  0  0  0  0  0  0  0
  134.1090  125.0970   63.7690 N   0  0  0  0  0  0  0  0  0  0  0  0
  134.0900  124.5930   62.5120 C   0  0  0  0  0  0  0  0  0  0  0  0
  135.4000  124.7030   61.7510 C   0  0  0  0  0  0  0  0  0  0  0  0
  132.9690  124.0080   61.9280 C   0  0  0  0  0  0  0  0  0  0  0  0
  131.7730  123.9180   62.6500 C   0  0  0  0  0  0  0  0  0  0  0  0
  130.5890  123.2940   62.0160 C   0  0  0  0  0  0  0  0  0  0  0  0
  129.5880  124.0940   61.4560 C   0  0  0  0  0  0  0  0  0  0  0  0
  128.4750  123.5070   60.8580 C   0  0  0  0  0  0  0  0  0  0  0  0
  128.3630  122.1200   60.8230 C   0  0  0  0  0  0  0  0  0  0  0  0
  129.3540  121.3140   61.3800 C   0  0  0  0  0  0  0  0  0  0  0  0
  130.4650  121.9020   61.9780 C   0  0  0  0  0  0  0  0  0  0  0  0
  131.7520  124.4360   63.9730 C   0  0  0  0  0  0  0  0  0  0  0  0
  130.7210  124.5090   64.9750 C   0  0  0  0  0  0  0  0  0  0  0  0
  129.4550  124.0250   64.7600 N   0  0  0  0  0  0  0  0  0  0  0  0
  128.7260  126.9490   69.5970 C   0  0  0  0  0  0  0  0  0  0  0  0
  128.2930  127.5230   70.7900 C   0  0  0  0  0  0  0  0  0  0  0  0
  1  2  1  0
  2  3  1  0
  3  4  2  0
  3  5  1  0
  5  6  2  0
  6  7  1  0
  7  8  2  0
  8  9  1  0
  9 10  1  0
 10 11  2  0
 10 12  1  0
 12 13  1  0
 13 14  1  0
 14 15  2  0
 15 16  1  0
 16 17  1  0
 16 18  2  0
 18 19  1  0
 19 20  1  0
 20 21  2  0
 21 22  1  0
 22 23  2  0
 23 24  1  0
 24 25  2  0
 19 26  2  0
 26 27  1  0
 27 28  1  0
  8 29  1  0
 29 30  2  0
 30  5  1  0
 27 12  2  0
 26 14  1  0
 25 20  1  0
M  END
>  <Binding energies>  (64) 
[-7.76]

>  <Ligand effiencies>  (64) 
[-0.23515151515151514]

>  <Interactions>  (64) 
["V-B:HIS:456:CE1:9041, V-B:GLU:543:CD:9880, V-A:TYR:484:CE2:4346, V-B:GLU:543:CG:9879, V-B:HIS:456:CD2:9039, V-A:HIS:456:CE1:4070, V-A:GLU:543:CB:4906, V-A:TYR:484:CZ:4347, V-B:GLU:543:CB:9878, V-B:TYR:539:CD2:9846, V-B:PRO:540:CA:9855, V-A:LEU:475:CD2:4259, V-B:PRO:540:N:9856, V-B:TYR:539:C:9839, V-A:ILE:369:CD1:3239, V-A:GLU:543:C:4902, V-A:ARG:545:CG:4922, V-A:GLY:544:C:4912, V-B:ALA:541:CB:9864, V-B:PRO:540:C:9853, H-A:LYS:547:NZ:4951, V-A:ASP:366:CG:3213, V-A:ASP:366:CA:3210, V-A:GLY:453:CA:4044, V-A:GLY:453:C:4042, H-A:GLU:543:OE2:4910, H-A:GLY:454:N:4050, H-A:ARG:545:NH1:4927, H-A:ARG:545:NE:4924, V-A:ARG:545:CZ:4926, H-A:ARG:545:NH2:4928, V-A:ARG:545:CD:4923, H-B:GLU:543:OE1:9881"]

$$$$
8b_Ghoteimi_2023
     RDKit          3D

 34 38  0  0  0  0  0  0  0  0999 V2000
  130.9740  126.8890   73.9030 C   0  0  0  0  0  0  0  0  0  0  0  0
  130.2710  127.9540   73.2710 O   0  0  0  0  0  0  0  0  0  0  0  0
  129.9390  127.8410   71.9340 C   0  0  0  0  0  0  0  0  0  0  0  0
  130.9560  128.0950   71.0160 C   0  0  0  0  0  0  0  0  0  0  0  0
  130.7140  128.0070   69.6490 C   0  0  0  0  0  0  0  0  0  0  0  0
  129.4440  127.6610   69.1630 C   0  0  0  0  0  0  0  0  0  0  0  0
  129.1770  127.5670   67.6940 C   0  0  0  0  0  0  0  0  0  0  0  0
  128.5500  128.6010   66.9910 C   0  0  0  0  0  0  0  0  0  0  0  0
  128.3130  128.4880   65.6180 C   0  0  0  0  0  0  0  0  0  0  0  0
  127.6370  129.5970   64.9050 C   0  0  0  0  0  0  0  0  0  0  0  0
  128.3540  130.7380   64.5410 C   0  0  0  0  0  0  0  0  0  0  0  0
  127.7200  131.7750   63.8620 C   0  0  0  0  0  0  0  0  0  0  0  0
  126.3650  131.6900   63.5410 C   0  0  0  0  0  0  0  0  0  0  0  0
  125.8210  132.7660   62.8660 O   0  0  0  0  0  0  0  0  0  0  0  0
  126.5960  133.4250   61.8700 C   0  0  0  0  0  0  0  0  0  0  0  0
  125.6460  130.5430   63.9130 C   0  0  0  0  0  0  0  0  0  0  0  0
  126.2810  129.5060   64.5910 C   0  0  0  0  0  0  0  0  0  0  0  0
  128.7330  127.3000   64.9620 C   0  0  0  0  0  0  0  0  0  0  0  0
  128.6560  126.8610   63.5930 C   0  0  0  0  0  0  0  0  0  0  0  0
  128.0940  127.6300   62.6060 N   0  0  0  0  0  0  0  0  0  0  0  0
  129.2070  125.5890   63.3730 C   0  0  0  0  0  0  0  0  0  0  0  0
  129.3030  124.8430   62.1160 C   0  0  0  0  0  0  0  0  0  0  0  0
  130.4000  124.6260   61.5950 O   0  0  0  0  0  0  0  0  0  0  0  0
  128.1210  124.4280   61.5940 N   0  0  0  0  0  0  0  0  0  0  0  0
  127.9200  123.7050   60.4260 C   0  0  0  0  0  0  0  0  0  0  0  0
  127.1900  124.1950   59.3440 C   0  0  0  0  0  0  0  0  0  0  0  0
  127.2230  123.1880   58.4060 C   0  0  0  0  0  0  0  0  0  0  0  0
  127.9380  122.1480   58.8960 O   0  0  0  0  0  0  0  0  0  0  0  0
  128.3760  122.4880   60.1770 N   0  0  0  0  0  0  0  0  0  0  0  0
  129.8410  124.9010   64.8690 S   0  0  0  0  0  0  0  0  0  0  0  0
  129.3650  126.3170   65.7770 C   0  0  0  0  0  0  0  0  0  0  0  0
  129.5900  126.4220   67.0860 N   0  0  0  0  0  0  0  0  0  0  0  0
  128.4270  127.4040   70.0920 C   0  0  0  0  0  0  0  0  0  0  0  0
  128.6660  127.4930   71.4610 C   0  0  0  0  0  0  0  0  0  0  0  0
  1  2  1  0
  2  3  1  0
  3  4  2  0
  4  5  1  0
  5  6  2  0
  6  7  1  0
  7  8  2  0
  8  9  1  0
  9 10  1  0
 10 11  2  0
 11 12  1  0
 12 13  2  0
 13 14  1  0
 14 15  1  0
 13 16  1  0
 16 17  2  0
  9 18  2  0
 18 19  1  0
 19 20  1  0
 19 21  2  0
 21 22  1  0
 22 23  2  0
 22 24  1  0
 24 25  1  0
 25 26  1  0
 26 27  2  0
 27 28  1  0
 28 29  1  0
 21 30  1  0
 30 31  1  0
 31 32  2  0
  6 33  1  0
 33 34  2  0
 34  3  1  0
 32  7  1  0
 17 10  1  0
 31 18  1  0
 29 25  2  0
M  END
>  <Binding energies>  (65) 
[-7.43]

>  <Ligand effiencies>  (65) 
[-0.2008108108108108]

>  <Interactions>  (65) 
["V-B:HIS:456:CE1:9041, V-A:HIS:456:CD2:4068, V-A:GLU:543:CG:4907, V-B:GLU:543:CD:9880, V-B:GLU:543:CG:9879, V-B:HIS:456:CD2:9039, V-A:GLU:543:CD:4908, V-A:HIS:456:CE1:4070, V-A:GLU:543:CB:4906, V-B:LEU:475:CD2:9230, V-B:GLU:543:CB:9878, V-B:PRO:540:CA:9855, V-B:PRO:540:CB:9857, V-B:PRO:540:N:9856, V-A:GLU:543:C:4902, V-A:GLY:544:C:4912, H-A:LYS:547:NZ:4951, H-A:GLU:543:OE1:4909, H-B:GLU:543:OE1:9881, H-B:GLU:543:OE2:9882, V-A:GLY:544:CA:4914"]

$$$$
9d_Ghoteimi_2023
     RDKit          3D

 38 43  0  0  0  0  0  0  0  0999 V2000
  126.4850  128.0080   60.1290 C   0  0  0  0  0  0  0  0  0  0  0  0
  127.4620  128.8560   60.7150 O   0  0  0  0  0  0  0  0  0  0  0  0
  127.1780  129.5790   61.8300 C   0  0  0  0  0  0  0  0  0  0  0  0
  126.5560  130.6450   61.8210 O   0  0  0  0  0  0  0  0  0  0  0  0
  127.6970  128.9570   63.0680 C   0  0  0  0  0  0  0  0  0  0  0  0
  127.4280  129.7410   64.6240 S   0  0  0  0  0  0  0  0  0  0  0  0
  128.2560  128.4500   65.4620 C   0  0  0  0  0  0  0  0  0  0  0  0
  128.3720  128.4420   66.7890 N   0  0  0  0  0  0  0  0  0  0  0  0
  129.0190  127.3850   67.3460 C   0  0  0  0  0  0  0  0  0  0  0  0
  129.1140  127.3840   68.8380 C   0  0  0  0  0  0  0  0  0  0  0  0
  128.0310  126.9690   69.6190 C   0  0  0  0  0  0  0  0  0  0  0  0
  128.1090  126.9670   71.0090 C   0  0  0  0  0  0  0  0  0  0  0  0
  129.2800  127.3680   71.6700 C   0  0  0  0  0  0  0  0  0  0  0  0
  129.3680  127.3880   73.0660 N   0  0  0  0  0  0  0  0  0  0  0  0
  130.5780  126.9120   73.7670 C   0  0  0  0  0  0  0  0  0  0  0  0
  130.3740  126.6810   75.2780 C   0  0  0  0  0  0  0  0  0  0  0  0
  129.8640  127.8560   75.8850 O   0  0  0  0  0  0  0  0  0  0  0  0
  128.6110  128.2250   75.3320 C   0  0  0  0  0  0  0  0  0  0  0  0
  128.7590  128.5040   73.8210 C   0  0  0  0  0  0  0  0  0  0  0  0
  130.3590  127.7980   70.8830 C   0  0  0  0  0  0  0  0  0  0  0  0
  130.2790  127.8030   69.4930 C   0  0  0  0  0  0  0  0  0  0  0  0
  129.5740  126.3600   66.5750 C   0  0  0  0  0  0  0  0  0  0  0  0
  129.4720  126.3740   65.1790 C   0  0  0  0  0  0  0  0  0  0  0  0
  130.1040  125.2740   64.4060 C   0  0  0  0  0  0  0  0  0  0  0  0
  129.5950  123.9750   64.4660 C   0  0  0  0  0  0  0  0  0  0  0  0
  130.1790  122.9510   63.7250 C   0  0  0  0  0  0  0  0  0  0  0  0
  131.2800  123.2040   62.8900 C   0  0  0  0  0  0  0  0  0  0  0  0
  131.8900  122.1930   62.1440 N   0  0  0  0  0  0  0  0  0  0  0  0
  133.3050  122.3430   61.7550 C   0  0  0  0  0  0  0  0  0  0  0  0
  133.9530  121.0210   61.2910 C   0  0  0  0  0  0  0  0  0  0  0  0
  133.1940  120.4520   60.2340 O   0  0  0  0  0  0  0  0  0  0  0  0
  131.8610  120.1720   60.6380 C   0  0  0  0  0  0  0  0  0  0  0  0
  131.1620  121.4750   61.0810 C   0  0  0  0  0  0  0  0  0  0  0  0
  131.7840  124.5120   62.8390 C   0  0  0  0  0  0  0  0  0  0  0  0
  131.2000  125.5340   63.5810 C   0  0  0  0  0  0  0  0  0  0  0  0
  128.7620  127.4510   64.5790 C   0  0  0  0  0  0  0  0  0  0  0  0
  128.4090  127.7600   63.2170 C   0  0  0  0  0  0  0  0  0  0  0  0
  128.7220  126.9420   62.1630 N   0  0  0  0  0  0  0  0  0  0  0  0
  1  2  1  0
  2  3  1  0
  3  4  2  0
  3  5  1  0
  5  6  1  0
  6  7  1  0
  7  8  2  0
  8  9  1  0
  9 10  1  0
 10 11  2  0
 11 12  1  0
 12 13  2  0
 13 14  1  0
 14 15  1  0
 15 16  1  0
 16 17  1  0
 17 18  1  0
 18 19  1  0
 13 20  1  0
 20 21  2  0
  9 22  2  0
 22 23  1  0
 23 24  1  0
 24 25  2  0
 25 26  1  0
 26 27  2  0
 27 28  1  0
 28 29  1  0
 29 30  1  0
 30 31  1  0
 31 32  1  0
 32 33  1  0
 27 34  1  0
 34 35  2  0
 23 36  2  0
 36 37  1  0
 37 38  1  0
 37  5  2  0
 36  7  1  0
 21 10  1  0
 35 24  1  0
 19 14  1  0
 33 28  1  0
M  END
>  <Binding energies>  (66) 
[-7.58]

>  <Ligand effiencies>  (66) 
[-0.1895]

>  <Interactions>  (66) 
["V-B:HIS:456:CE1:9041, V-A:HIS:456:CD2:4068, V-A:GLU:543:CG:4907, V-B:GLU:543:CD:9880, V-B:GLU:543:CG:9879, V-B:HIS:456:CD2:9039, V-B:GLU:543:C:9874, V-A:GLU:543:CD:4908, V-A:HIS:456:CE1:4070, V-A:GLU:543:CB:4906, V-B:GLU:543:CB:9878, V-B:TYR:539:CD2:9846, V-B:TYR:539:CE2:9848, V-A:LEU:475:CD2:4259, V-A:ILE:369:CG2:3237, V-A:ILE:369:CD1:3239, H-B:LYS:547:NZ:9923, V-A:GLU:543:C:4902, V-A:GLY:544:C:4912, H-A:LYS:547:NZ:4951, H-A:SER:385:OG:3410, V-B:ASP:366:CG:8184, V-A:SER:385:C:3405, H-B:GLU:543:OE1:9881, V-A:SER:385:CA:3407, V-A:SER:385:CB:3409"]

$$$$
RR10_Rahimova_2017
     RDKit          3D

 34 38  0  0  0  0  0  0  0  0999 V2000
  131.7380  132.1440   57.0290 C   0  0  0  0  0  0  0  0  0  0  0  0
  131.3300  132.0240   58.5080 C   0  0  1  0  0  0  0  0  0  0  0  0
  130.0960  131.1100   58.6930 C   0  0  0  0  0  0  0  0  0  0  0  0
  129.6840  131.0310   60.1800 C   0  0  0  0  0  0  0  0  0  0  0  0
  130.8370  130.5170   61.0800 C   0  0  1  0  0  0  0  0  0  0  0  0
  131.1270  129.1050   60.7980 N   0  0  0  0  0  0  0  0  0  0  0  0
  130.4000  128.0580   61.2300 C   0  0  0  0  0  0  0  0  0  0  0  0
  129.3770  128.1840   61.9070 O   0  0  0  0  0  0  0  0  0  0  0  0
  130.9130  126.6530   60.8510 C   0  0  1  0  0  0  0  0  0  0  0  0
  131.7230  126.7400   59.5310 C   0  0  0  0  0  0  0  0  0  0  0  0
  132.3170  125.3510   59.1960 C   0  0  0  0  0  0  0  0  0  0  0  0
  133.1060  124.7430   60.3790 C   0  0  0  0  0  0  0  0  0  0  0  0
  132.2840  124.7550   61.6190 N   0  0  0  0  0  0  0  0  0  0  0  0
  132.9660  123.8180   62.9600 S   0  0  0  0  0  0  0  0  0  0  0  0
  134.2510  124.4220   63.3320 O   0  0  0  0  0  0  0  0  0  0  0  0
  132.8950  122.3960   62.5990 O   0  0  0  0  0  0  0  0  0  0  0  0
  131.8500  124.0930   64.3360 C   0  0  0  0  0  0  0  0  0  0  0  0
  130.7490  123.2470   64.5050 C   0  0  0  0  0  0  0  0  0  0  0  0
  129.8410  123.4100   65.5550 C   0  0  0  0  0  0  0  0  0  0  0  0
  130.0880  124.4650   66.4360 C   0  0  0  0  0  0  0  0  0  0  0  0
  129.4460  124.9430   67.5540 N   0  0  0  0  0  0  0  0  0  0  0  0
  130.1580  126.0280   68.0210 C   0  0  0  0  0  0  0  0  0  0  0  0
  129.7580  126.8260   69.2290 C   0  0  0  0  0  0  0  0  0  0  0  0
  128.4670  126.7110   69.7600 C   0  0  0  0  0  0  0  0  0  0  0  0
  128.0960  127.4470   70.8820 C   0  0  0  0  0  0  0  0  0  0  0  0
  129.0160  128.3050   71.4790 C   0  0  0  0  0  0  0  0  0  0  0  0
  130.3030  128.4310   70.9640 C   0  0  0  0  0  0  0  0  0  0  0  0
  130.6730  127.6940   69.8420 C   0  0  0  0  0  0  0  0  0  0  0  0
  131.2170  126.2770   67.2830 N   0  0  0  0  0  0  0  0  0  0  0  0
  131.2000  125.3300   66.2930 C   0  0  0  0  0  0  0  0  0  0  0  0
  132.0960  125.1410   65.2310 C   0  0  0  0  0  0  0  0  0  0  0  0
  131.8010  126.1070   61.9960 C   0  0  0  0  0  0  0  0  0  0  0  0
  132.0730  131.4320   60.8710 C   0  0  0  0  0  0  0  0  0  0  0  0
  132.4940  131.5070   59.3860 C   0  0  0  0  0  0  0  0  0  0  0  0
  2  1  1  6
  2  3  1  0
  3  4  1  0
  4  5  1  0
  5  6  1  6
  6  7  1  0
  7  8  2  0
  9  7  1  1
  9 10  1  0
 10 11  1  0
 11 12  1  0
 12 13  1  0
 13 14  1  0
 14 15  2  0
 14 16  2  0
 14 17  1  0
 17 18  2  0
 18 19  1  0
 19 20  2  0
 20 21  1  0
 21 22  1  0
 22 23  1  0
 23 24  2  0
 24 25  1  0
 25 26  2  0
 26 27  1  0
 27 28  2  0
 22 29  2  0
 29 30  1  0
 30 31  2  0
 13 32  1  0
  5 33  1  0
 33 34  1  0
 34  2  1  0
 32  9  1  0
 31 17  1  0
 30 20  1  0
 28 23  1  0
M  END
>  <Binding energies>  (67) 
[-9.36]

>  <Ligand effiencies>  (67) 
[-0.26]

>  <Interactions>  (67) 
["V-B:HIS:456:CE1:9041, V-A:TYR:484:CE2:4346, V-B:GLU:543:CG:9879, V-B:HIS:456:CD2:9039, V-B:GLU:543:C:9874, V-A:HIS:456:CE1:4070, V-A:GLU:543:CB:4906, V-A:TYR:484:CZ:4347, V-B:GLU:543:CB:9878, V-B:GLU:543:CA:9876, V-A:LEU:475:CD2:4259, V-A:GLU:543:C:4902, V-A:GLY:544:C:4912, V-A:ASP:366:CB:3212, V-A:ASP:366:CG:3213, H-A:ASP:366:OD2:3215, H-A:ASP:366:OD1:3214, V-A:PRO:540:N:4884, V-A:PRO:540:CA:4883, V-A:PRO:540:CB:4885, H-A:GLY:454:N:4050, V-A:ARG:545:CZ:4926, H-A:ARG:545:NH2:4928, V-A:LEU:363:CD1:3189, H-B:GLU:543:O:9875"]

$$$$
RR12_Rahimova_2017
     RDKit          3D

 26 28  0  0  0  0  0  0  0  0999 V2000
  129.8660  120.6890   61.6150 C   0  0  0  0  0  0  0  0  0  0  0  0
  129.4420  122.0530   61.0530 C   0  0  0  0  0  0  0  0  0  0  0  0
  129.4660  123.1650   62.1170 C   0  0  0  0  0  0  0  0  0  0  0  0
  130.8400  123.5030   62.4820 N   0  0  0  0  0  0  0  0  0  0  0  0
  131.3790  123.5800   63.7570 C   0  0  0  0  0  0  0  0  0  0  0  0
  130.5800  123.3620   65.0300 C   0  0  0  0  0  0  0  0  0  0  0  0
  130.0670  124.6820   65.6350 C   0  0  0  0  0  0  0  0  0  0  0  0
  130.2210  124.7350   67.1670 C   0  0  0  0  0  0  0  0  0  0  0  0
  129.1940  125.5330   67.8360 N   0  0  0  0  0  0  0  0  0  0  0  0
  128.7410  126.7240   67.4070 C   0  0  0  0  0  0  0  0  0  0  0  0
  129.1570  127.2780   66.3870 O   0  0  0  0  0  0  0  0  0  0  0  0
  127.6510  127.3710   68.2730 C   0  0  0  0  0  0  0  0  0  0  0  0
  127.6070  126.7230   69.5450 O   0  0  0  0  0  0  0  0  0  0  0  0
  128.5150  127.0870   70.5220 C   0  0  0  0  0  0  0  0  0  0  0  0
  128.1870  126.7390   71.8340 C   0  0  0  0  0  0  0  0  0  0  0  0
  129.0410  127.0590   72.8850 C   0  0  0  0  0  0  0  0  0  0  0  0
  130.2320  127.7310   72.6250 C   0  0  0  0  0  0  0  0  0  0  0  0
  130.5740  128.0880   71.3220 C   0  0  0  0  0  0  0  0  0  0  0  0
  129.7180  127.7670   70.2710 C   0  0  0  0  0  0  0  0  0  0  0  0
  132.6540  123.8810   63.7640 N   0  0  0  0  0  0  0  0  0  0  0  0
  132.9980  123.9850   62.4450 C   0  0  0  0  0  0  0  0  0  0  0  0
  134.2480  124.2770   61.8790 C   0  0  0  0  0  0  0  0  0  0  0  0
  134.3460  124.3210   60.4880 C   0  0  0  0  0  0  0  0  0  0  0  0
  133.2360  124.0810   59.6760 C   0  0  0  0  0  0  0  0  0  0  0  0
  131.9790  123.7900   60.2090 C   0  0  0  0  0  0  0  0  0  0  0  0
  131.8810  123.7470   61.6060 C   0  0  0  0  0  0  0  0  0  0  0  0
  1  2  1  0
  2  3  1  0
  3  4  1  0
  4  5  1  0
  5  6  1  0
  6  7  1  0
  7  8  1  0
  8  9  1  0
  9 10  1  0
 10 11  2  0
 10 12  1  0
 12 13  1  0
 13 14  1  0
 14 15  2  0
 15 16  1  0
 16 17  2  0
 17 18  1  0
 18 19  2  0
  5 20  2  0
 20 21  1  0
 21 22  2  0
 22 23  1  0
 23 24  2  0
 24 25  1  0
 25 26  2  0
 26  4  1  0
 19 14  1  0
 26 21  1  0
M  END
>  <Binding energies>  (68) 
[-5.78]

>  <Ligand effiencies>  (68) 
[-0.21407407407407408]

>  <Interactions>  (68) 
["V-B:HIS:456:CE1:9041, V-B:GLU:543:CD:9880, V-A:TYR:484:CE2:4346, V-B:GLU:543:CG:9879, V-B:GLU:543:C:9874, V-A:HIS:456:CE1:4070, V-A:TYR:484:CZ:4347, V-B:GLU:543:CB:9878, V-B:GLU:543:CA:9876, V-B:TYR:539:CD2:9846, V-B:TYR:539:CE2:9848, V-A:LEU:475:CD2:4259, V-A:ILE:369:CG2:3237, V-A:ILE:369:CD1:3239, H-A:HIS:456:NE2:4071, V-A:GLU:543:C:4902, V-A:GLY:544:C:4912, V-B:ALA:541:CB:9864, V-A:ASP:366:CB:3212, V-A:ASP:366:CG:3213, V-A:ASP:366:CA:3210, V-A:ILE:369:CB:3236, H-A:TYR:484:OH:4348, H-B:GLU:543:O:9875"]

$$$$
RR13_Rahimova_2017
     RDKit          3D

 48 54  0  0  0  0  0  0  0  0999 V2000
  129.2980  122.5670   61.9500 Cl  0  0  0  0  0  0  0  0  0  0  0  0
  130.9450  122.3390   61.4660 C   0  0  0  0  0  0  0  0  0  0  0  0
  131.2940  121.1070   60.9060 C   0  0  0  0  0  0  0  0  0  0  0  0
  132.6060  120.8550   60.5170 C   0  0  0  0  0  0  0  0  0  0  0  0
  133.5820  121.8340   60.6860 C   0  0  0  0  0  0  0  0  0  0  0  0
  133.2410  123.0650   61.2430 C   0  0  0  0  0  0  0  0  0  0  0  0
  131.9200  123.3430   61.6320 C   0  0  0  0  0  0  0  0  0  0  0  0
  131.5740  124.7060   62.2700 C   0  0  1  0  0  0  0  0  0  0  0  0
  132.3890  124.9390   63.5510 C   0  0  0  0  0  0  0  0  0  0  0  0
  133.6830  124.7620   63.7010 N   0  0  0  0  0  0  0  0  0  0  0  0
  133.9590  125.0720   65.0290 N   0  0  0  0  0  0  0  0  0  0  0  0
  132.7950  125.4240   65.6850 N   0  0  0  0  0  0  0  0  0  0  0  0
  131.8380  125.3100   64.7580 N   0  0  0  0  0  0  0  0  0  0  0  0
  130.4550  125.6440   65.0810 C   0  0  0  0  0  0  0  0  0  0  0  0
  130.1820  125.3980   66.5770 C   0  0  0  0  0  0  0  0  0  0  0  0
  129.6730  126.6460   67.2810 C   0  0  0  0  0  0  0  0  0  0  0  0
  130.1500  126.9730   68.5540 C   0  0  0  0  0  0  0  0  0  0  0  0
  129.6780  128.1110   69.2010 C   0  0  0  0  0  0  0  0  0  0  0  0
  128.7310  128.9190   68.5730 C   0  0  0  0  0  0  0  0  0  0  0  0
  128.2510  128.5980   67.3060 C   0  0  0  0  0  0  0  0  0  0  0  0
  128.7230  127.4590   66.6580 C   0  0  0  0  0  0  0  0  0  0  0  0
  131.6720  125.8430   61.3230 N   0  0  0  0  0  0  0  0  0  0  0  0
  130.6580  126.8670   61.6370 C   0  0  0  0  0  0  0  0  0  0  0  0
  130.8400  128.1130   60.7390 C   0  0  0  0  0  0  0  0  0  0  0  0
  130.6800  127.7590   59.3190 N   0  0  0  0  0  0  0  0  0  0  0  0
  130.7650  128.9390   58.4280 C   0  0  1  0  0  0  0  0  0  0  0  0
  129.5120  129.8400   58.3950 C   0  0  0  0  0  0  0  0  0  0  0  0
  128.4460  129.4850   59.2330 C   0  0  0  0  0  0  0  0  0  0  0  0
  127.2810  130.2510   59.2810 C   0  0  0  0  0  0  0  0  0  0  0  0
  127.1630  131.3850   58.4840 C   0  0  0  0  0  0  0  0  0  0  0  0
  128.2030  131.7460   57.6330 C   0  0  0  0  0  0  0  0  0  0  0  0
  129.3730  130.9840   57.5730 C   0  0  0  0  0  0  0  0  0  0  0  0
  130.5800  131.4760   56.4330 Cl  0  0  0  0  0  0  0  0  0  0  0  0
  132.0160  129.7860   58.6700 C   0  0  0  0  0  0  0  0  0  0  0  0
  133.0780  129.8160   57.8970 N   0  0  0  0  0  0  0  0  0  0  0  0
  133.9520  130.7260   58.4830 N   0  0  0  0  0  0  0  0  0  0  0  0
  133.3860  131.2590   59.6220 N   0  0  0  0  0  0  0  0  0  0  0  0
  132.1820  130.6800   59.7060 N   0  0  0  0  0  0  0  0  0  0  0  0
  131.2960  130.9960   60.8210 C   0  0  0  0  0  0  0  0  0  0  0  0
  130.4030  132.2010   60.4730 C   0  0  0  0  0  0  0  0  0  0  0  0
  129.3650  132.4770   61.5500 C   0  0  0  0  0  0  0  0  0  0  0  0
  129.4940  131.8880   62.8110 C   0  0  0  0  0  0  0  0  0  0  0  0
  128.5480  132.1460   63.7990 C   0  0  0  0  0  0  0  0  0  0  0  0
  127.4750  132.9920   63.5230 C   0  0  0  0  0  0  0  0  0  0  0  0
  127.3410  133.5820   62.2670 C   0  0  0  0  0  0  0  0  0  0  0  0
  128.2880  133.3260   61.2800 C   0  0  0  0  0  0  0  0  0  0  0  0
  131.6990  126.7390   59.0090 C   0  0  0  0  0  0  0  0  0  0  0  0
  131.5050  125.4920   59.9020 C   0  0  0  0  0  0  0  0  0  0  0  0
  1  2  1  0
  2  3  2  0
  3  4  1  0
  4  5  2  0
  5  6  1  0
  6  7  2  0
  7  8  1  0
  8  9  1  0
  9 10  2  0
 10 11  1  0
 11 12  2  0
 12 13  1  0
 13 14  1  0
 14 15  1  0
 15 16  1  0
 16 17  2  0
 17 18  1  0
 18 19  2  0
 19 20  1  0
 20 21  2  0
  8 22  1  6
 22 23  1  0
 23 24  1  0
 24 25  1  0
 26 25  1  1
 26 27  1  0
 27 28  2  0
 28 29  1  0
 29 30  2  0
 30 31  1  0
 31 32  2  0
 32 33  1  0
 26 34  1  0
 34 35  2  0
 35 36  1  0
 36 37  2  0
 37 38  1  0
 38 39  1  0
 39 40  1  0
 40 41  1  0
 41 42  2  0
 42 43  1  0
 43 44  2  0
 44 45  1  0
 45 46  2  0
 25 47  1  0
 47 48  1  0
  7  2  1  0
 13  9  1  0
 21 16  1  0
 48 22  1  0
 32 27  1  0
 38 34  1  0
 46 41  1  0
M  END
>  <Binding energies>  (69) 
[-11.79]

>  <Ligand effiencies>  (69) 
[-0.24562499999999998]

>  <Interactions>  (69) 
["V-B:HIS:456:CE1:9041, V-A:GLU:543:CG:4907, V-B:GLU:543:CD:9880, V-B:GLU:543:CG:9879, V-A:GLU:543:CD:4908, V-A:HIS:456:CE1:4070, V-A:GLU:543:CB:4906, V-B:LEU:475:CD2:9230, V-B:GLU:543:CB:9878, V-B:TYR:539:CD2:9846, V-B:TYR:539:CE2:9848, V-A:LEU:475:CD2:4259, V-A:ILE:369:CG2:3237, V-A:ILE:369:CD1:3239, V-A:GLU:543:CA:4904, V-A:GLU:543:C:4902, V-B:ALA:541:CB:9864, V-A:ASP:366:CB:3212, H-A:TYR:531:OH:4795, V-A:ASP:366:CG:3213, H-A:TYR:484:OH:4348, V-A:PRO:540:CA:4883, V-A:TYR:539:CE1:4875, V-A:PRO:540:CB:4885, H-A:GLY:454:N:4050, H-A:ARG:545:NH1:4927, H-A:ARG:545:NE:4924, V-A:ARG:545:CZ:4926, H-A:ARG:545:NH2:4928, V-A:MET:535:CE:4835, V-A:ALA:541:CB:4892, V-A:PRO:540:C:4881"]

$$$$
RR14_Rahimova_2017
     RDKit          3D

 39 43  0  0  0  0  0  0  0  0999 V2000
  129.1640  130.0290   73.2380 C   0  0  0  0  0  0  0  0  0  0  0  0
  130.2400  129.2770   72.6870 O   0  0  0  0  0  0  0  0  0  0  0  0
  130.0040  128.4680   71.5930 C   0  0  0  0  0  0  0  0  0  0  0  0
  128.8780  127.6460   71.6570 C   0  0  0  0  0  0  0  0  0  0  0  0
  128.5740  126.7790   70.6130 C   0  0  0  0  0  0  0  0  0  0  0  0
  129.4020  126.7210   69.4890 C   0  0  0  0  0  0  0  0  0  0  0  0
  129.1080  125.7260   68.3730 C   0  0  0  0  0  0  0  0  0  0  0  0
  129.1180  126.3310   67.0410 N   0  0  0  0  0  0  0  0  0  0  0  0
  128.5840  127.5420   66.8450 N   0  0  0  0  0  0  0  0  0  0  0  0
  128.7390  127.7780   65.4930 N   0  0  0  0  0  0  0  0  0  0  0  0
  129.3640  126.6930   64.8860 N   0  0  0  0  0  0  0  0  0  0  0  0
  129.5780  125.8230   65.8450 C   0  0  0  0  0  0  0  0  0  0  0  0
  130.2220  124.4560   65.6610 C   0  0  0  0  0  0  0  0  0  0  0  0
  130.4280  124.1170   64.2440 N   0  0  0  0  0  0  0  0  0  0  0  0
  131.8100  123.6980   63.9750 C   0  0  0  0  0  0  0  0  0  0  0  0
  132.6250  124.7450   63.1850 C   0  0  0  0  0  0  0  0  0  0  0  0
  131.8390  125.4000   62.0300 C   0  0  0  0  0  0  0  0  0  0  0  0
  132.5800  125.4270   60.7650 N   0  0  0  0  0  0  0  0  0  0  0  0
  131.6510  125.5160   59.6310 C   0  0  0  0  0  0  0  0  0  0  0  0
  132.3980  125.4940   58.2800 C   0  0  0  0  0  0  0  0  0  0  0  0
  133.2360  124.3460   58.2030 O   0  0  0  0  0  0  0  0  0  0  0  0
  134.2110  124.3190   59.2390 C   0  0  0  0  0  0  0  0  0  0  0  0
  133.5190  124.3040   60.6190 C   0  0  0  0  0  0  0  0  0  0  0  0
  129.4820  123.0700   63.8320 C   0  0  0  0  0  0  0  0  0  0  0  0
  128.9420  123.1770   62.4080 C   0  0  0  0  0  0  0  0  0  0  0  0
  128.2910  124.2900   61.9880 C   0  0  0  0  0  0  0  0  0  0  0  0
  127.7240  124.4030   60.6290 C   0  0  0  0  0  0  0  0  0  0  0  0
  127.0620  125.5480   60.1550 C   0  0  0  0  0  0  0  0  0  0  0  0
  126.8780  126.7830   61.0270 C   0  0  0  0  0  0  0  0  0  0  0  0
  126.5630  125.5530   58.8500 C   0  0  0  0  0  0  0  0  0  0  0  0
  126.7170  124.4410   58.0240 C   0  0  0  0  0  0  0  0  0  0  0  0
  127.3760  123.2980   58.4860 C   0  0  0  0  0  0  0  0  0  0  0  0
  127.5310  122.0990   57.5590 C   0  0  0  0  0  0  0  0  0  0  0  0
  127.8810  123.2810   59.7950 C   0  0  0  0  0  0  0  0  0  0  0  0
  128.5510  122.1490   60.3050 N   0  0  0  0  0  0  0  0  0  0  0  0
  129.0860  122.0010   61.5430 C   0  0  0  0  0  0  0  0  0  0  0  0
  129.6330  120.9460   61.8640 O   0  0  0  0  0  0  0  0  0  0  0  0
  130.5140  127.5600   69.4020 C   0  0  0  0  0  0  0  0  0  0  0  0
  130.8180  128.4270   70.4490 C   0  0  0  0  0  0  0  0  0  0  0  0
  1  2  1  0
  2  3  1  0
  3  4  2  0
  4  5  1  0
  5  6  2  0
  6  7  1  0
  7  8  1  0
  8  9  1  0
  9 10  2  0
 10 11  1  0
 11 12  2  0
 12 13  1  0
 13 14  1  0
 14 15  1  0
 15 16  1  0
 16 17  1  0
 17 18  1  0
 18 19  1  0
 19 20  1  0
 20 21  1  0
 21 22  1  0
 22 23  1  0
 14 24  1  0
 24 25  1  0
 25 26  2  0
 26 27  1  0
 27 28  2  0
 28 29  1  0
 28 30  1  0
 30 31  2  0
 31 32  1  0
 32 33  1  0
 32 34  2  0
 34 35  1  0
 35 36  1  0
 36 37  2  0
  6 38  1  0
 38 39  2  0
 39  3  1  0
 12  8  1  0
 23 18  1  0
 36 25  1  0
 34 27  1  0
M  END
>  <Binding energies>  (70) 
[-9.33]

>  <Ligand effiencies>  (70) 
[-0.23325]

>  <Interactions>  (70) 
["V-B:GLU:543:CD:9880, V-A:TYR:484:CE2:4346, V-B:GLU:543:CG:9879, V-B:HIS:456:CD2:9039, V-B:GLU:543:C:9874, V-A:GLU:543:CD:4908, V-A:HIS:456:CE1:4070, V-A:GLU:543:CB:4906, V-A:TYR:484:CZ:4347, V-B:GLU:543:CB:9878, V-B:GLU:543:CA:9876, V-B:TYR:539:CD2:9846, V-B:TYR:539:CE2:9848, V-B:PRO:540:CA:9855, V-B:PRO:540:CD:9859, V-B:PRO:540:N:9856, V-B:TYR:539:C:9839, V-A:ILE:369:CG2:3237, V-A:ILE:369:CD1:3239, V-A:GLU:543:CA:4904, V-A:GLU:543:C:4902, V-A:GLY:544:C:4912, V-B:ALA:541:CB:9864, V-B:PRO:540:C:9853, V-B:TYR:539:CG:9844, V-B:TYR:539:CD1:9845, H-B:TYR:539:OH:9850, V-B:TYR:539:CE1:9847, V-B:TYR:539:CZ:9849, H-A:LYS:547:NZ:4951, V-A:ASP:366:CB:3212, V-B:TYR:539:CA:9841, V-A:ASP:366:CG:3213, V-A:ASP:366:CA:3210, V-A:ILE:369:CB:3236, V-A:ASP:366:C:3208, V-A:ARG:545:CZ:4926, H-B:TYR:539:O:9840, V-A:GLY:544:CA:4914"]

$$$$
RR15_Rahimova_2017
     RDKit          3D

 45 49  0  0  0  0  0  0  0  0999 V2000
  126.7780  128.4380   74.1270 C   0  0  0  0  0  0  0  0  0  0  0  0
  128.0940  128.1300   73.6810 O   0  0  0  0  0  0  0  0  0  0  0  0
  128.2950  127.7330   72.3700 C   0  0  0  0  0  0  0  0  0  0  0  0
  127.2570  127.3470   71.5070 C   0  0  0  0  0  0  0  0  0  0  0  0
  127.5280  126.9560   70.1980 C   0  0  0  0  0  0  0  0  0  0  0  0
  128.8400  126.9360   69.7140 C   0  0  0  0  0  0  0  0  0  0  0  0
  129.1330  126.5070   68.3030 C   0  0  0  0  0  0  0  0  0  0  0  0
  129.8580  125.4360   68.0110 N   0  0  0  0  0  0  0  0  0  0  0  0
  129.9130  125.3760   66.6340 N   0  0  0  0  0  0  0  0  0  0  0  0
  129.1680  126.4120   66.2440 N   0  0  0  0  0  0  0  0  0  0  0  0
  129.0860  126.8230   64.8440 C   0  0  0  0  0  0  0  0  0  0  0  0
  130.2450  126.3170   63.9490 C   0  0  0  0  0  0  0  0  0  0  0  0
  131.2860  125.9470   64.4980 O   0  0  0  0  0  0  0  0  0  0  0  0
  130.0800  126.2620   62.5920 N   0  0  0  0  0  0  0  0  0  0  0  0
  128.9870  125.4770   61.9830 C   0  0  0  0  0  0  0  0  0  0  0  0
  129.4140  124.0590   61.5470 C   0  0  0  0  0  0  0  0  0  0  0  0
  130.3100  123.3100   62.5610 C   0  0  0  0  0  0  0  0  0  0  0  0
  131.5850  122.8550   61.9980 N   0  0  0  0  0  0  0  0  0  0  0  0
  132.6270  122.6260   63.0110 C   0  0  0  0  0  0  0  0  0  0  0  0
  133.9180  122.0670   62.3770 C   0  0  0  0  0  0  0  0  0  0  0  0
  133.6290  120.8930   61.6260 O   0  0  0  0  0  0  0  0  0  0  0  0
  132.6980  121.1350   60.5770 C   0  0  0  0  0  0  0  0  0  0  0  0
  131.3710  121.6660   61.1630 C   0  0  0  0  0  0  0  0  0  0  0  0
  130.8420  127.1220   61.6350 C   0  0  2  0  0  0  0  0  0  0  0  0
  130.0120  128.3010   61.0390 C   0  0  0  0  0  0  0  0  0  0  0  0
  129.1600  128.1050   60.1730 O   0  0  0  0  0  0  0  0  0  0  0  0
  130.2650  129.5140   61.5630 N   0  0  0  0  0  0  0  0  0  0  0  0
  129.5460  130.7400   61.2390 C   0  0  0  0  0  0  0  0  0  0  0  0
  130.5050  131.9410   61.1490 C   0  0  2  0  0  0  0  0  0  0  0  0
  131.4620  131.9330   59.9440 C   0  0  0  0  0  0  0  0  0  0  0  0
  132.7800  131.4640   60.5100 C   0  0  0  0  0  0  0  0  0  0  0  0
  132.7320  132.0550   61.9090 C   0  0  0  0  0  0  0  0  0  0  0  0
  131.3750  131.8430   62.2850 O   0  0  0  0  0  0  0  0  0  0  0  0
  131.6420  126.2640   60.6610 C   0  0  0  0  0  0  0  0  0  0  0  0
  132.6870  125.4860   61.1730 C   0  0  0  0  0  0  0  0  0  0  0  0
  133.4520  124.6840   60.3310 C   0  0  0  0  0  0  0  0  0  0  0  0
  133.1750  124.6540   58.9670 C   0  0  0  0  0  0  0  0  0  0  0  0
  133.9180  123.8740   58.1490 F   0  0  0  0  0  0  0  0  0  0  0  0
  132.1390  125.4200   58.4400 C   0  0  0  0  0  0  0  0  0  0  0  0
  131.3760  126.2220   59.2830 C   0  0  0  0  0  0  0  0  0  0  0  0
  128.6970  127.1650   67.2450 N   0  0  0  0  0  0  0  0  0  0  0  0
  129.8730  127.3240   70.5770 C   0  0  0  0  0  0  0  0  0  0  0  0
  129.6160  127.7250   71.8990 C   0  0  0  0  0  0  0  0  0  0  0  0
  130.6010  128.1200   72.7870 O   0  0  0  0  0  0  0  0  0  0  0  0
  131.3020  127.1370   73.5420 C   0  0  0  0  0  0  0  0  0  0  0  0
  1  2  1  0
  2  3  1  0
  3  4  2  0
  4  5  1  0
  5  6  2  0
  6  7  1  0
  7  8  1  0
  8  9  2  0
  9 10  1  0
 10 11  1  0
 11 12  1  0
 12 13  2  0
 12 14  1  0
 14 15  1  0
 15 16  1  0
 16 17  1  0
 17 18  1  0
 18 19  1  0
 19 20  1  0
 20 21  1  0
 21 22  1  0
 22 23  1  0
 24 14  1  6
 24 25  1  0
 25 26  2  0
 25 27  1  0
 27 28  1  0
 29 28  1  6
 29 30  1  0
 30 31  1  0
 31 32  1  0
 32 33  1  0
 24 34  1  0
 34 35  2  0
 35 36  1  0
 36 37  2  0
 37 38  1  0
 37 39  1  0
 39 40  2  0
 10 41  1  0
  6 42  1  0
 42 43  2  0
 43 44  1  0
 44 45  1  0
 43  3  1  0
 41  7  2  0
 23 18  1  0
 33 29  1  0
 40 34  1  0
M  END
>  <Binding energies>  (71) 
[-8.58]

>  <Ligand effiencies>  (71) 
[-0.1865217391304348]

>  <Interactions>  (71) 
["V-B:HIS:456:CE1:9041, V-A:HIS:456:CD2:4068, V-B:GLU:543:CD:9880, V-B:GLU:543:CG:9879, V-B:HIS:456:CD2:9039, V-B:GLU:543:C:9874, V-A:GLU:543:CD:4908, V-B:HIS:456:CG:9037, V-A:HIS:456:CE1:4070, V-B:GLY:544:C:9884, V-B:GLU:543:CB:9878, V-B:TYR:539:CD2:9846, V-B:TYR:539:CE2:9848, V-A:GLY:454:CA:4049, V-A:LEU:475:CD2:4259, V-A:ILE:369:CG2:3237, V-A:ILE:369:CD1:3239, V-A:HIS:456:CG:4066, H-B:LYS:547:NZ:9923, V-B:TYR:539:CZ:9849, H-A:LYS:547:NZ:4951, V-B:HIS:456:CB:9036, V-A:ASP:366:CB:3212, V-A:ASP:366:CG:3213, H-A:SER:385:OG:3410, V-A:ASP:366:CA:3210, H-A:ASP:366:OD2:3215, V-A:ILE:369:CB:3236, V-A:PRO:540:CA:4883, V-A:ASP:366:C:3208, V-A:PRO:540:CB:4885, H-A:ARG:545:NH2:4928, H-A:GLU:543:OE1:4909, V-A:ASN:362:CB:3176, H-A:ALA:541:N:4891, V-A:PRO:540:C:4881"]

$$$$
RR17_Rahimova_2017
     RDKit          3D

 38 41  0  0  0  0  0  0  0  0999 V2000
  129.7280  125.9110   56.6650 C   0  0  0  0  0  0  0  0  0  0  0  0
  130.5990  126.4990   57.7780 C   0  0  0  0  0  0  0  0  0  0  0  0
  131.8890  125.8970   57.7160 O   0  0  0  0  0  0  0  0  0  0  0  0
  132.2660  124.9990   58.6980 C   0  0  0  0  0  0  0  0  0  0  0  0
  131.2500  124.5120   59.5190 C   0  0  0  0  0  0  0  0  0  0  0  0
  131.5330  123.6060   60.5360 C   0  0  0  0  0  0  0  0  0  0  0  0
  132.8470  123.1660   60.7540 C   0  0  0  0  0  0  0  0  0  0  0  0
  133.1220  122.1870   61.8580 C   0  0  0  0  0  0  0  0  0  0  0  0
  133.2200  120.9730   61.6560 O   0  0  0  0  0  0  0  0  0  0  0  0
  133.2640  122.7610   63.2860 C   0  0  0  0  0  0  0  0  0  0  0  0
  133.4070  124.5840   63.2840 S   0  0  0  0  0  0  0  0  0  0  0  0
  132.6430  124.9510   64.8390 C   0  0  0  0  0  0  0  0  0  0  0  0
  133.2560  125.4430   65.8900 N   0  0  0  0  0  0  0  0  0  0  0  0
  132.3140  125.5940   66.9000 N   0  0  0  0  0  0  0  0  0  0  0  0
  131.1650  125.1890   66.4200 C   0  0  0  0  0  0  0  0  0  0  0  0
  129.8550  125.1950   67.1940 C   0  0  0  0  0  0  0  0  0  0  0  0
  129.3940  126.5310   67.5640 N   0  0  0  0  0  0  0  0  0  0  0  0
  129.3620  127.0080   68.8860 C   0  0  0  0  0  0  0  0  0  0  0  0
  130.5080  127.6390   69.3690 C   0  0  0  0  0  0  0  0  0  0  0  0
  130.5460  128.1300   70.6710 C   0  0  0  0  0  0  0  0  0  0  0  0
  129.4330  127.9980   71.5060 C   0  0  0  0  0  0  0  0  0  0  0  0
  129.4930  128.5370   72.9350 C   0  0  0  0  0  0  0  0  0  0  0  0
  128.3250  128.4190   73.5700 F   0  0  0  0  0  0  0  0  0  0  0  0
  130.4130  127.8790   73.6420 F   0  0  0  0  0  0  0  0  0  0  0  0
  129.8230  129.8280   72.9020 F   0  0  0  0  0  0  0  0  0  0  0  0
  128.2800  127.3720   71.0210 C   0  0  0  0  0  0  0  0  0  0  0  0
  128.2420  126.8830   69.7190 C   0  0  0  0  0  0  0  0  0  0  0  0
  131.3050  124.7560   65.1180 N   0  0  0  0  0  0  0  0  0  0  0  0
  130.3080  124.2610   64.2640 C   0  0  0  0  0  0  0  0  0  0  0  0
  129.8210  122.9680   64.4520 C   0  0  0  0  0  0  0  0  0  0  0  0
  128.8340  122.4770   63.6020 C   0  0  0  0  0  0  0  0  0  0  0  0
  128.3320  123.2770   62.5630 C   0  0  0  0  0  0  0  0  0  0  0  0
  127.3540  122.8740   61.6740 O   0  0  0  0  0  0  0  0  0  0  0  0
  126.4050  123.8260   61.2060 C   0  0  0  0  0  0  0  0  0  0  0  0
  128.8330  124.5690   62.3890 C   0  0  0  0  0  0  0  0  0  0  0  0
  129.8190  125.0670   63.2350 C   0  0  0  0  0  0  0  0  0  0  0  0
  133.8680  123.6560   59.9270 C   0  0  0  0  0  0  0  0  0  0  0  0
  133.5820  124.5630   58.9090 C   0  0  0  0  0  0  0  0  0  0  0  0
  1  2  1  0
  2  3  1  0
  3  4  1  0
  4  5  2  0
  5  6  1  0
  6  7  2  0
  7  8  1  0
  8  9  2  0
  8 10  1  0
 10 11  1  0
 11 12  1  0
 12 13  2  0
 13 14  1  0
 14 15  2  0
 15 16  1  0
 16 17  1  0
 17 18  1  0
 18 19  2  0
 19 20  1  0
 20 21  2  0
 21 22  1  0
 22 23  1  0
 22 24  1  0
 22 25  1  0
 21 26  1  0
 26 27  2  0
 15 28  1  0
 28 29  1  0
 29 30  2  0
 30 31  1  0
 31 32  2  0
 32 33  1  0
 33 34  1  0
 32 35  1  0
 35 36  2  0
  7 37  1  0
 37 38  2  0
 38  4  1  0
 28 12  1  0
 36 29  1  0
 27 18  1  0
M  END
>  <Binding energies>  (72) 
[-8.05]

>  <Ligand effiencies>  (72) 
[-0.20641025641025643]

>  <Interactions>  (72) 
["V-B:HIS:456:CE1:9041, V-B:GLU:543:CD:9880, V-A:TYR:484:CE2:4346, V-B:GLU:543:CG:9879, V-B:HIS:456:CD2:9039, V-B:GLU:543:C:9874, V-A:HIS:456:CE1:4070, V-A:GLU:543:CB:4906, V-A:TYR:484:CZ:4347, V-B:GLU:543:CB:9878, V-B:GLU:543:CA:9876, V-B:TYR:539:CE2:9848, V-A:GLY:454:CA:4049, V-B:PRO:540:CA:9855, V-A:LEU:475:CD2:4259, V-B:PRO:540:CB:9857, V-A:ILE:369:CG2:3237, V-A:ILE:369:CD1:3239, V-A:GLU:543:C:4902, V-A:GLY:544:C:4912, V-B:ALA:541:CB:9864, H-B:TYR:539:OH:9850, V-B:TYR:539:CZ:9849, V-B:ALA:541:CA:9862, H-B:ALA:541:N:9863, V-A:ASP:366:CB:3212, H-A:TYR:531:OH:4795, V-A:ASP:366:CG:3213, H-A:SER:385:OG:3410, V-A:ASP:366:CA:3210, V-A:ILE:369:CB:3236, H-A:TYR:484:OH:4348, H-A:GLU:543:OE2:4910, V-A:ASP:366:C:3208, H-A:GLY:454:N:4050, H-A:ARG:545:NE:4924, V-A:ARG:545:CZ:4926, H-A:ARG:545:NH2:4928, H-B:GLU:543:OE2:9882, V-A:LYS:547:CE:4950, V-A:GLY:544:CA:4914"]

$$$$
RR19_Rahimova_2017
     RDKit          3D

 46 51  0  0  0  0  0  0  0  0999 V2000
  128.2890  128.8460   61.1620 O   0  0  0  0  0  0  0  0  0  0  0  0
  128.3850  127.7340   61.6900 C   0  0  0  0  0  0  0  0  0  0  0  0
  128.4910  127.4900   63.0210 N   0  0  0  0  0  0  0  0  0  0  0  0
  128.3160  128.2760   64.1330 C   0  0  0  0  0  0  0  0  0  0  0  0
  127.6420  129.8290   64.1470 S   0  0  0  0  0  0  0  0  0  0  0  0
  128.7790  127.5930   65.2310 N   0  0  0  0  0  0  0  0  0  0  0  0
  128.7190  127.8380   66.5650 C   0  0  0  0  0  0  0  0  0  0  0  0
  128.0370  128.7030   67.1200 O   0  0  0  0  0  0  0  0  0  0  0  0
  129.6360  126.9220   67.4130 C   0  0  2  0  0  0  0  0  0  0  0  0
  129.4960  125.4010   67.1160 C   0  0  0  0  0  0  0  0  0  0  0  0
  130.5330  124.8300   66.1620 C   0  0  0  0  0  0  0  0  0  0  0  0
  130.2230  123.7360   65.3260 C   0  0  0  0  0  0  0  0  0  0  0  0
  131.1560  123.2780   64.4060 C   0  0  0  0  0  0  0  0  0  0  0  0
  132.3920  123.9030   64.2910 C   0  0  0  0  0  0  0  0  0  0  0  0
  132.7000  125.0000   65.0860 C   0  0  0  0  0  0  0  0  0  0  0  0
  131.7790  125.4750   66.0110 C   0  0  0  0  0  0  0  0  0  0  0  0
  129.4920  127.2110   68.8670 N   0  0  0  0  0  0  0  0  0  0  0  0
  128.3140  126.9970   69.5190 C   0  0  0  0  0  0  0  0  0  0  0  0
  127.2560  126.5910   69.0350 O   0  0  0  0  0  0  0  0  0  0  0  0
  128.5750  127.3520   70.9350 C   0  0  0  0  0  0  0  0  0  0  0  0
  127.7380  127.3350   72.0520 C   0  0  0  0  0  0  0  0  0  0  0  0
  128.2630  127.7210   73.2890 C   0  0  0  0  0  0  0  0  0  0  0  0
  129.6040  128.1150   73.3950 C   0  0  0  0  0  0  0  0  0  0  0  0
  130.4280  128.1240   72.2640 C   0  0  0  0  0  0  0  0  0  0  0  0
  129.8840  127.7360   71.0390 C   0  0  0  0  0  0  0  0  0  0  0  0
  130.4960  127.6360   69.6910 C   0  0  0  0  0  0  0  0  0  0  0  0
  131.6650  127.8780   69.3860 O   0  0  0  0  0  0  0  0  0  0  0  0
  128.4040  126.4630   60.8000 C   0  0  2  0  0  0  0  0  0  0  0  0
  127.4440  125.3380   61.2860 C   0  0  0  0  0  0  0  0  0  0  0  0
  128.0230  123.9400   61.1660 C   0  0  0  0  0  0  0  0  0  0  0  0
  128.1480  123.3320   59.8980 C   0  0  0  0  0  0  0  0  0  0  0  0
  128.7700  122.0950   59.7800 C   0  0  0  0  0  0  0  0  0  0  0  0
  129.2960  121.4660   60.9000 C   0  0  0  0  0  0  0  0  0  0  0  0
  129.2160  122.0700   62.1490 C   0  0  0  0  0  0  0  0  0  0  0  0
  128.5960  123.3060   62.2890 C   0  0  0  0  0  0  0  0  0  0  0  0
  129.7760  125.9380   60.5480 N   0  0  0  0  0  0  0  0  0  0  0  0
  130.6440  125.6800   61.5670 C   0  0  0  0  0  0  0  0  0  0  0  0
  130.4500  125.8460   62.7710 O   0  0  0  0  0  0  0  0  0  0  0  0
  131.8700  125.1570   60.9150 C   0  0  0  0  0  0  0  0  0  0  0  0
  133.0850  124.7350   61.4590 C   0  0  0  0  0  0  0  0  0  0  0  0
  134.0840  124.2790   60.5920 C   0  0  0  0  0  0  0  0  0  0  0  0
  133.8590  124.2460   59.2090 C   0  0  0  0  0  0  0  0  0  0  0  0
  132.6330  124.6710   58.6840 C   0  0  0  0  0  0  0  0  0  0  0  0
  131.6500  125.1250   59.5660 C   0  0  0  0  0  0  0  0  0  0  0  0
  130.2780  125.6270   59.3160 C   0  0  0  0  0  0  0  0  0  0  0  0
  129.7100  125.7390   58.2280 O   0  0  0  0  0  0  0  0  0  0  0  0
  1  2  2  0
  2  3  1  0
  3  4  1  0
  4  5  2  0
  4  6  1  0
  6  7  1  0
  7  8  2  0
  7  9  1  0
  9 10  1  1
 10 11  1  0
 11 12  2  0
 12 13  1  0
 13 14  2  0
 14 15  1  0
 15 16  2  0
  9 17  1  0
 17 18  1  0
 18 19  2  0
 18 20  1  0
 20 21  2  0
 21 22  1  0
 22 23  2  0
 23 24  1  0
 24 25  2  0
 25 26  1  0
 26 27  2  0
  2 28  1  0
 28 29  1  1
 29 30  1  0
 30 31  2  0
 31 32  1  0
 32 33  2  0
 33 34  1  0
 34 35  2  0
 28 36  1  0
 36 37  1  0
 37 38  2  0
 37 39  1  0
 39 40  2  0
 40 41  1  0
 41 42  2  0
 42 43  1  0
 43 44  2  0
 44 45  1  0
 45 46  2  0
 16 11  1  0
 26 17  1  0
 35 30  1  0
 45 36  1  0
 25 20  1  0
 44 39  1  0
M  END
>  <Binding energies>  (73) 
[-10.48]

>  <Ligand effiencies>  (73) 
[-0.21833333333333335]

>  <Interactions>  (73) 
["V-B:HIS:456:CE1:9041, V-A:GLU:543:CG:4907, V-B:GLU:543:CD:9880, V-A:TYR:484:CE2:4346, V-B:GLU:543:CG:9879, V-B:HIS:456:CD2:9039, V-B:GLU:543:C:9874, V-A:GLU:543:CD:4908, V-B:HIS:456:CG:9037, V-A:HIS:456:CE1:4070, V-A:GLU:543:CB:4906, V-B:GLY:544:C:9884, V-A:TYR:484:CZ:4347, V-B:GLU:543:CB:9878, V-B:GLU:543:CA:9876, V-B:TYR:539:CD2:9846, V-B:TYR:539:CE2:9848, V-B:PRO:540:CA:9855, V-A:LEU:475:CD2:4259, V-B:PRO:540:N:9856, V-B:TYR:539:C:9839, V-A:ILE:369:CG2:3237, V-A:ILE:369:CD1:3239, V-A:GLY:544:C:4912, V-B:ALA:541:CB:9864, V-B:PRO:540:C:9853, H-B:TYR:539:OH:9850, V-B:TYR:539:CZ:9849, H-A:ARG:545:N:4920, V-A:ASP:366:CB:3212, V-A:ASP:366:CG:3213, V-A:ASP:366:CA:3210, V-A:ILE:369:CB:3236, H-A:GLU:543:OE2:4910, V-A:ARG:545:CZ:4926, H-A:GLU:543:OE1:4909, H-B:GLU:543:OE1:9881, H-B:GLU:543:OE2:9882"]

$$$$
RR1_Rahimova_2017
     RDKit          3D

 41 44  0  0  0  0  0  0  0  0999 V2000
  127.9860  133.0020   64.0500 C   0  0  0  0  0  0  0  0  0  0  0  0
  128.0280  131.7470   64.7200 O   0  0  0  0  0  0  0  0  0  0  0  0
  127.7350  130.5960   64.0160 C   0  0  0  0  0  0  0  0  0  0  0  0
  126.6110  129.7890   64.2530 C   0  0  0  0  0  0  0  0  0  0  0  0
  126.4000  128.6400   63.4960 C   0  0  0  0  0  0  0  0  0  0  0  0
  127.3000  128.2810   62.4910 C   0  0  0  0  0  0  0  0  0  0  0  0
  127.0250  127.0780   61.8130 N   0  0  0  0  0  0  0  0  0  0  0  0
  127.5840  126.5840   60.6870 C   0  0  0  0  0  0  0  0  0  0  0  0
  128.4210  127.1730   60.0030 O   0  0  0  0  0  0  0  0  0  0  0  0
  127.0890  125.1840   60.2890 C   0  0  0  0  0  0  0  0  0  0  0  0
  126.9660  123.9780   61.6550 S   0  0  0  0  0  0  0  0  0  0  0  0
  128.6890  123.7860   61.9620 C   0  0  0  0  0  0  0  0  0  0  0  0
  129.4290  122.8390   61.4420 N   0  0  0  0  0  0  0  0  0  0  0  0
  130.6430  123.0810   61.9260 C   0  0  0  0  0  0  0  0  0  0  0  0
  131.8320  122.2330   61.5750 C   0  0  0  0  0  0  0  0  0  0  0  0
  133.1300  122.5850   61.9790 C   0  0  0  0  0  0  0  0  0  0  0  0
  134.2160  121.7790   61.6340 C   0  0  0  0  0  0  0  0  0  0  0  0
  133.9780  120.6270   60.8860 C   0  0  0  0  0  0  0  0  0  0  0  0
  132.7380  120.2580   60.4780 N   0  0  0  0  0  0  0  0  0  0  0  0
  131.6950  121.0540   60.8250 C   0  0  0  0  0  0  0  0  0  0  0  0
  130.7320  124.1200   62.7350 N   0  0  0  0  0  0  0  0  0  0  0  0
  129.4760  124.5750   62.7610 N   0  0  0  0  0  0  0  0  0  0  0  0
  129.1320  125.7640   63.5410 C   0  0  0  0  0  0  0  0  0  0  0  0
  129.5910  125.7330   65.0090 C   0  0  0  0  0  0  0  0  0  0  0  0
  130.6240  125.1390   65.3370 O   0  0  0  0  0  0  0  0  0  0  0  0
  128.7880  126.3880   65.8690 N   0  0  0  0  0  0  0  0  0  0  0  0
  129.2130  126.5290   67.1830 N   0  0  0  0  0  0  0  0  0  0  0  0
  128.4790  127.3130   68.0030 C   0  0  0  0  0  0  0  0  0  0  0  0
  127.4010  127.8270   67.6870 O   0  0  0  0  0  0  0  0  0  0  0  0
  129.0450  127.5190   69.3930 C   0  0  0  0  0  0  0  0  0  0  0  0
  130.3380  128.0290   69.5510 C   0  0  0  0  0  0  0  0  0  0  0  0
  130.8830  128.2160   70.8180 C   0  0  0  0  0  0  0  0  0  0  0  0
  130.1490  127.8890   71.9700 C   0  0  0  0  0  0  0  0  0  0  0  0
  130.6360  128.0370   73.2560 O   0  0  0  0  0  0  0  0  0  0  0  0
  131.1930  126.9140   73.9290 C   0  0  0  0  0  0  0  0  0  0  0  0
  128.8550  127.3700   71.8320 C   0  0  0  0  0  0  0  0  0  0  0  0
  128.1810  127.0460   72.9980 O   0  0  0  0  0  0  0  0  0  0  0  0
  126.9830  127.7360   73.3340 C   0  0  0  0  0  0  0  0  0  0  0  0
  128.3140  127.1930   70.5460 C   0  0  0  0  0  0  0  0  0  0  0  0
  128.4240  129.0860   62.2510 C   0  0  0  0  0  0  0  0  0  0  0  0
  128.6310  130.2340   63.0100 C   0  0  0  0  0  0  0  0  0  0  0  0
  1  2  1  0
  2  3  1  0
  3  4  2  0
  4  5  1  0
  5  6  2  0
  6  7  1  0
  7  8  1  0
  8  9  2  0
  8 10  1  0
 10 11  1  0
 11 12  1  0
 12 13  2  0
 13 14  1  0
 14 15  1  0
 15 16  2  0
 16 17  1  0
 17 18  2  0
 18 19  1  0
 19 20  2  0
 14 21  2  0
 21 22  1  0
 22 23  1  0
 23 24  1  0
 24 25  2  0
 24 26  1  0
 26 27  1  0
 27 28  1  0
 28 29  2  0
 28 30  1  0
 30 31  2  0
 31 32  1  0
 32 33  2  0
 33 34  1  0
 34 35  1  0
 33 36  1  0
 36 37  1  0
 37 38  1  0
 36 39  2  0
  6 40  1  0
 40 41  2  0
 41  3  1  0
 22 12  1  0
 39 30  1  0
 20 15  1  0
M  END
>  <Binding energies>  (74) 
[-7.35]

>  <Ligand effiencies>  (74) 
[-0.16704545454545452]

>  <Interactions>  (74) 
["V-B:HIS:456:CE1:9041, V-A:HIS:456:CD2:4068, V-B:GLU:543:CD:9880, V-B:GLU:543:CG:9879, H-B:TYR:484:OH:9319, V-B:HIS:456:CD2:9039, V-A:GLU:543:CD:4908, V-B:HIS:456:CG:9037, V-A:HIS:456:CE1:4070, V-A:GLU:543:CB:4906, V-B:LEU:475:CD2:9230, V-B:GLU:543:CB:9878, V-B:LYS:547:CE:9922, V-B:TYR:539:CD2:9846, V-B:TYR:539:CE2:9848, V-A:LEU:475:CD2:4259, V-A:ILE:369:CG2:3237, V-A:ILE:369:CD1:3239, H-B:LYS:547:NZ:9923, V-A:GLU:543:C:4902, V-A:GLY:544:C:4912, H-A:LYS:547:NZ:4951, H-A:SER:385:OG:3410, H-A:TYR:484:OH:4348, V-A:SER:385:C:3405, H-A:GLU:543:OE2:4910, H-B:GLU:543:OE1:9881, V-A:ALA:541:CB:4892, V-A:SER:385:CA:3407, V-A:SER:385:CB:3409, H-B:GLU:543:OE2:9882, V-B:TYR:484:CE2:9317, H-B:ASP:366:OD1:8185, V-A:GLY:544:CA:4914"]

$$$$
RR22_Rahimova_2017
     RDKit          3D

 31 36  0  0  0  0  0  0  0  0999 V2000
  130.3480  129.2950   57.1450 O   0  0  0  0  0  0  0  0  0  0  0  0
  130.1480  128.2650   57.7850 C   0  0  0  0  0  0  0  0  0  0  0  0
  130.9420  127.7210   58.7780 N   0  0  0  0  0  0  0  0  0  0  0  0
  130.5320  126.5380   59.4720 C   0  0  1  0  0  0  0  0  0  0  0  0
  131.6110  125.6130   59.3060 O   0  0  0  0  0  0  0  0  0  0  0  0
  132.2500  125.1270   60.4470 C   0  0  0  0  0  0  0  0  0  0  0  0
  133.5000  124.5390   60.2570 C   0  0  0  0  0  0  0  0  0  0  0  0
  134.1820  123.9930   61.3450 C   0  0  0  0  0  0  0  0  0  0  0  0
  133.6110  124.0300   62.6170 C   0  0  0  0  0  0  0  0  0  0  0  0
  132.3590  124.6190   62.8070 C   0  0  0  0  0  0  0  0  0  0  0  0
  131.6750  125.1910   61.7300 C   0  0  0  0  0  0  0  0  0  0  0  0
  130.2990  125.8120   61.8230 C   0  0  1  0  0  0  0  0  0  0  0  0
  129.8090  126.5240   63.0680 C   0  0  0  0  0  0  0  0  0  0  0  0
  128.8600  127.5430   62.4300 C   0  0  0  0  0  0  0  0  0  0  0  0
  127.8150  128.2500   63.1970 C   0  0  0  0  0  0  0  0  0  0  0  0
  126.5860  128.5690   62.6010 C   0  0  0  0  0  0  0  0  0  0  0  0
  125.6040  129.2340   63.3290 C   0  0  0  0  0  0  0  0  0  0  0  0
  125.8430  129.5840   64.6550 C   0  0  0  0  0  0  0  0  0  0  0  0
  127.0580  129.2740   65.2610 C   0  0  0  0  0  0  0  0  0  0  0  0
  128.0410  128.6080   64.5350 C   0  0  0  0  0  0  0  0  0  0  0  0
  129.1190  127.7000   61.1860 N   0  0  0  0  0  0  0  0  0  0  0  0
  130.2110  126.8740   60.8670 N   0  0  0  0  0  0  0  0  0  0  0  0
  129.3410  125.9770   58.7100 C   0  0  0  0  0  0  0  0  0  0  0  0
  128.9030  124.7050   58.8590 C   0  0  0  0  0  0  0  0  0  0  0  0
  127.7590  124.0430   58.2030 C   0  0  0  0  0  0  0  0  0  0  0  0
  126.4570  124.5650   58.2220 C   0  0  0  0  0  0  0  0  0  0  0  0
  125.4230  123.8820   57.5790 C   0  0  0  0  0  0  0  0  0  0  0  0
  125.7190  122.6820   56.9330 C   0  0  0  0  0  0  0  0  0  0  0  0
  126.9660  122.1500   56.9060 N   0  0  0  0  0  0  0  0  0  0  0  0
  127.9590  122.8290   57.5360 C   0  0  0  0  0  0  0  0  0  0  0  0
  128.7110  127.1730   57.5670 S   0  0  0  0  0  0  0  0  0  0  0  0
  1  2  2  0
  2  3  1  0
  4  3  1  6
  4  5  1  0
  5  6  1  0
  6  7  2  0
  7  8  1  0
  8  9  2  0
  9 10  1  0
 10 11  2  0
 11 12  1  0
 12 13  1  1
 13 14  1  0
 14 15  1  0
 15 16  2  0
 16 17  1  0
 17 18  2  0
 18 19  1  0
 19 20  2  0
 14 21  2  0
 21 22  1  0
  4 23  1  0
 23 24  2  0
 24 25  1  0
 25 26  2  0
 26 27  1  0
 27 28  2  0
 28 29  1  0
 29 30  2  0
 23 31  1  0
 31  2  1  0
 22  4  1  0
 30 25  1  0
 11  6  1  0
 22 12  1  0
 20 15  1  0
M  END
>  <Binding energies>  (75) 
[-7.7]

>  <Ligand effiencies>  (75) 
[-0.240625]

>  <Interactions>  (75) 
["V-B:GLU:543:CD:9880, V-A:GLU:543:CD:4908, V-B:TYR:539:CD2:9846, V-B:TYR:539:CE2:9848, V-B:PRO:540:CA:9855, V-B:PRO:540:CD:9859, V-B:PRO:540:CB:9857, V-B:PRO:540:N:9856, V-B:TYR:539:C:9839, V-A:ILE:369:CD1:3239, V-B:LEU:363:CD1:8160, V-B:TYR:539:CG:9844, V-B:TYR:539:CD1:9845, V-B:MET:535:CE:9807, V-B:TYR:539:CE1:9847, V-B:TYR:539:CZ:9849, V-A:ASP:366:CB:3212, H-A:TYR:531:OH:4795, V-A:ASP:366:CG:3213, V-A:ASP:366:CA:3210, H-A:ASP:366:OD2:3215, H-B:TYR:539:N:9842, V-B:ARG:545:CZ:9898"]

$$$$
RR24_Rahimova_2017
     RDKit          3D

 43 49  0  0  0  0  0  0  0  0999 V2000
  131.0910  131.8770   63.1600 C   0  0  0  0  0  0  0  0  0  0  0  0
  129.8320  132.4940   62.5340 C   0  0  2  0  0  0  0  0  0  0  0  0
  128.5100  131.8940   63.0970 C   0  0  0  0  0  0  0  0  0  0  0  0
  128.1240  132.1210   64.2480 O   0  0  0  0  0  0  0  0  0  0  0  0
  127.8730  131.0930   62.1930 O   0  0  0  0  0  0  0  0  0  0  0  0
  128.0380  129.7280   62.2590 C   0  0  0  0  0  0  0  0  0  0  0  0
  128.4760  129.0360   61.1280 C   0  0  0  0  0  0  0  0  0  0  0  0
  128.6560  127.6570   61.1860 C   0  0  0  0  0  0  0  0  0  0  0  0
  128.4070  126.9660   62.3750 C   0  0  0  0  0  0  0  0  0  0  0  0
  128.5890  125.4440   62.4280 C   0  0  1  0  0  0  0  0  0  0  0  0
  128.0520  124.7540   61.1520 C   0  0  0  0  0  0  0  0  0  0  0  0
  128.7800  123.8770   60.4370 C   0  0  0  0  0  0  0  0  0  0  0  0
  130.0610  123.5300   60.7890 N   0  0  0  0  0  0  0  0  0  0  0  0
  130.6670  124.0680   61.9000 C   0  0  0  0  0  0  0  0  0  0  0  0
  131.9290  123.6150   62.1140 N   0  0  0  0  0  0  0  0  0  0  0  0
  132.7130  124.0930   63.1180 C   0  0  0  0  0  0  0  0  0  0  0  0
  133.9290  123.8950   63.0800 O   0  0  0  0  0  0  0  0  0  0  0  0
  132.0470  124.9150   64.0140 N   0  0  0  0  0  0  0  0  0  0  0  0
  132.8290  125.3890   65.1740 C   0  0  0  0  0  0  0  0  0  0  0  0
  130.7700  125.4360   63.8920 C   0  0  0  0  0  0  0  0  0  0  0  0
  130.2560  126.2090   64.7070 O   0  0  0  0  0  0  0  0  0  0  0  0
  130.0470  124.9700   62.7040 C   0  0  0  0  0  0  0  0  0  0  0  0
  128.0260  123.3900   59.2940 C   0  0  0  0  0  0  0  0  0  0  0  0
  128.3270  122.4920   58.2680 C   0  0  0  0  0  0  0  0  0  0  0  0
  127.3650  122.2260   57.2910 C   0  0  0  0  0  0  0  0  0  0  0  0
  126.1160  122.8520   57.3440 C   0  0  0  0  0  0  0  0  0  0  0  0
  125.8200  123.7490   58.3740 C   0  0  0  0  0  0  0  0  0  0  0  0
  126.7860  124.0130   59.3460 C   0  0  0  0  0  0  0  0  0  0  0  0
  126.7410  124.9000   60.5270 C   0  0  0  0  0  0  0  0  0  0  0  0
  125.8320  125.6200   60.9360 O   0  0  0  0  0  0  0  0  0  0  0  0
  127.9860  127.6650   63.5120 C   0  0  0  0  0  0  0  0  0  0  0  0
  127.8080  129.0440   63.4550 C   0  0  0  0  0  0  0  0  0  0  0  0
  129.8780  132.4700   61.0420 N   0  0  0  0  0  0  0  0  0  0  0  0
  128.9390  133.1100   60.2900 C   0  0  0  0  0  0  0  0  0  0  0  0
  127.9690  133.7550   60.6930 O   0  0  0  0  0  0  0  0  0  0  0  0
  129.3300  132.8650   58.8790 C   0  0  0  0  0  0  0  0  0  0  0  0
  128.7380  133.2750   57.6830 C   0  0  0  0  0  0  0  0  0  0  0  0
  129.3360  132.8930   56.4760 C   0  0  0  0  0  0  0  0  0  0  0  0
  130.5020  132.1190   56.4800 C   0  0  0  0  0  0  0  0  0  0  0  0
  131.0800  131.7180   57.6890 C   0  0  0  0  0  0  0  0  0  0  0  0
  130.4690  132.1070   58.8820 C   0  0  0  0  0  0  0  0  0  0  0  0
  130.8390  131.8460   60.2950 C   0  0  0  0  0  0  0  0  0  0  0  0
  131.8090  131.2080   60.7060 O   0  0  0  0  0  0  0  0  0  0  0  0
  2  1  1  1
  2  3  1  0
  3  4  2  0
  3  5  1  0
  5  6  1  0
  6  7  2  0
  7  8  1  0
  8  9  2  0
 10  9  1  6
 10 11  1  0
 11 12  2  0
 12 13  1  0
 13 14  1  0
 14 15  1  0
 15 16  1  0
 16 17  2  0
 16 18  1  0
 18 19  1  0
 18 20  1  0
 20 21  2  0
 20 22  1  0
 12 23  1  0
 23 24  2  0
 24 25  1  0
 25 26  2  0
 26 27  1  0
 27 28  2  0
 28 29  1  0
 29 30  2  0
  9 31  1  0
 31 32  2  0
  2 33  1  0
 33 34  1  0
 34 35  2  0
 34 36  1  0
 36 37  2  0
 37 38  1  0
 38 39  2  0
 39 40  1  0
 40 41  2  0
 41 42  1  0
 42 43  2  0
 32  6  1  0
 42 33  1  0
 22 10  1  0
 28 23  1  0
 41 36  1  0
 29 11  1  0
 22 14  2  0
M  END
>  <Binding energies>  (76) 
[-8.96]

>  <Ligand effiencies>  (76) 
[-0.19911111111111113]

>  <Interactions>  (76) 
["V-A:GLU:543:CG:4907, V-B:GLU:543:CD:9880, H-B:TYR:484:OH:9319, V-A:GLU:543:CD:4908, V-B:TYR:539:CD2:9846, V-B:TYR:539:CE2:9848, V-B:PRO:540:CA:9855, V-B:PRO:540:CD:9859, V-B:PRO:540:CB:9857, V-B:PRO:540:N:9856, V-B:TYR:539:C:9839, V-B:TYR:539:CG:9844, V-B:TYR:539:CD1:9845, V-B:TYR:539:CE1:9847, V-B:TYR:539:CZ:9849, V-B:TYR:539:CA:9841, V-A:TYR:539:C:4867, V-A:TYR:539:CA:4869, V-A:PRO:540:N:4884, V-A:PRO:540:CA:4883, V-A:TYR:539:CE1:4875, V-A:TYR:539:CD1:4873, V-A:PRO:540:CB:4885, H-A:GLY:454:N:4050, V-A:ARG:545:CZ:4926, V-A:ARG:545:CD:4923, V-A:MET:535:CE:4835, V-A:ILE:538:CA:4860, V-A:ALA:541:CB:4892, V-A:TYR:539:CG:4872, V-A:ALA:541:CA:4890, V-A:ALA:541:C:4888, V-A:PRO:540:C:4881, H-B:ARG:545:NH2:9900"]

$$$$
RR25_Rahimova_2017
     RDKit          3D

 39 44  0  0  0  0  0  0  0  0999 V2000
  129.7630  124.0250   65.3740 O   0  0  0  0  0  0  0  0  0  0  0  0
  130.1830  124.5690   64.3520 C   0  0  0  0  0  0  0  0  0  0  0  0
  131.1960  123.9180   63.6920 O   0  0  0  0  0  0  0  0  0  0  0  0
  131.5790  124.2870   62.4150 C   0  0  0  0  0  0  0  0  0  0  0  0
  132.1710  123.3000   61.6280 C   0  0  0  0  0  0  0  0  0  0  0  0
  132.5890  123.6050   60.3350 C   0  0  0  0  0  0  0  0  0  0  0  0
  132.4270  124.8970   59.8120 C   0  0  0  0  0  0  0  0  0  0  0  0
  132.8660  125.2170   58.4310 N   0  0  0  0  0  0  0  0  0  0  0  0
  133.6250  124.4380   57.8610 O   0  0  0  0  0  0  0  0  0  0  0  0
  132.4550  126.2490   57.9090 O   0  0  0  0  0  0  0  0  0  0  0  0
  131.8400  125.8790   60.6260 C   0  0  0  0  0  0  0  0  0  0  0  0
  131.4220  125.5920   61.9280 C   0  0  0  0  0  0  0  0  0  0  0  0
  130.7730  126.6160   62.8420 C   0  0  0  0  0  0  0  0  0  0  0  0
  129.7100  125.9180   63.7370 C   0  0  2  0  0  0  0  0  0  0  0  0
  129.0920  126.9190   64.7570 C   0  0  0  0  0  0  0  0  0  0  0  0
  129.3530  126.7120   65.9460 O   0  0  0  0  0  0  0  0  0  0  0  0
  128.4090  128.0340   64.3600 N   0  0  0  0  0  0  0  0  0  0  0  0
  127.8090  128.1690   63.0150 C   0  0  0  0  0  0  0  0  0  0  0  0
  127.9520  129.6320   62.5470 C   0  0  0  0  0  0  0  0  0  0  0  0
  127.3780  130.5650   63.5210 N   0  0  0  0  0  0  0  0  0  0  0  0
  127.3930  131.9450   63.0180 C   0  0  0  0  0  0  0  0  0  0  0  0
  128.8300  132.5100   62.8520 C   0  0  0  0  0  0  0  0  0  0  0  0
  129.4170  132.4150   61.4840 N   0  0  0  0  0  0  0  0  0  0  0  0
  130.7320  132.0020   61.4350 C   0  0  0  0  0  0  0  0  0  0  0  0
  131.4030  131.7590   62.4450 O   0  0  0  0  0  0  0  0  0  0  0  0
  131.2940  131.8470   60.0350 C   0  0  0  0  0  0  0  0  0  0  0  0
  132.6130  131.4070   59.8680 C   0  0  0  0  0  0  0  0  0  0  0  0
  133.1590  131.2460   58.5960 C   0  0  0  0  0  0  0  0  0  0  0  0
  132.4070  131.5150   57.4540 C   0  0  0  0  0  0  0  0  0  0  0  0
  131.0690  131.9620   57.5730 C   0  0  0  0  0  0  0  0  0  0  0  0
  130.2490  132.2510   56.4570 C   0  0  0  0  0  0  0  0  0  0  0  0
  128.9380  132.6840   56.6460 C   0  0  0  0  0  0  0  0  0  0  0  0
  128.4130  132.8410   57.9270 C   0  0  0  0  0  0  0  0  0  0  0  0
  129.1880  132.5670   59.0610 C   0  0  0  0  0  0  0  0  0  0  0  0
  130.5230  132.1240   58.8770 C   0  0  0  0  0  0  0  0  0  0  0  0
  128.5780  132.7420   60.4390 C   0  0  0  0  0  0  0  0  0  0  0  0
  127.4150  133.1300   60.5960 O   0  0  0  0  0  0  0  0  0  0  0  0
  128.0850  130.4460   64.7980 C   0  0  0  0  0  0  0  0  0  0  0  0
  127.9780  129.0170   65.3800 C   0  0  0  0  0  0  0  0  0  0  0  0
  1  2  2  0
  2  3  1  0
  3  4  1  0
  4  5  2  0
  5  6  1  0
  6  7  2  0
  7  8  1  0
  8  9  2  0
  8 10  1  0
  7 11  1  0
 11 12  2  0
 12 13  1  0
 13 14  1  0
 14 15  1  1
 15 16  2  0
 15 17  1  0
 17 18  1  0
 18 19  1  0
 19 20  1  0
 20 21  1  0
 21 22  1  0
 22 23  1  0
 23 24  1  0
 24 25  2  0
 24 26  1  0
 26 27  2  0
 27 28  1  0
 28 29  2  0
 29 30  1  0
 30 31  2  0
 31 32  1  0
 32 33  2  0
 33 34  1  0
 34 35  2  0
 34 36  1  0
 36 37  2  0
 20 38  1  0
 38 39  1  0
 14  2  1  0
 39 17  1  0
 12  4  1  0
 36 23  1  0
 35 26  1  0
 35 30  1  0
M  CHG  2   8   1  10  -1
M  END
>  <Binding energies>  (77) 
[-10.26]

>  <Ligand effiencies>  (77) 
[-0.2630769230769231]

>  <Interactions>  (77) 
["V-A:GLU:543:CG:4907, V-B:GLU:543:CD:9880, V-B:GLU:543:CG:9879, H-B:TYR:484:OH:9319, V-A:GLU:543:CD:4908, V-B:TYR:539:CE2:9848, H-B:TYR:539:OH:9850, V-A:ASP:366:CB:3212, H-A:TYR:531:OH:4795, V-A:ASP:366:CG:3213, V-A:ASP:366:CA:3210, V-A:TYR:539:C:4867, H-A:TYR:484:OH:4348, V-A:PRO:540:N:4884, V-A:PRO:540:CA:4883, V-A:TYR:539:CE1:4875, V-A:TYR:539:CD1:4873, V-A:PRO:540:CB:4885, V-A:MET:535:CE:4835, V-A:LEU:363:CD1:3189, V-A:ALA:541:CB:4892, V-A:TYR:539:CG:4872, H-A:ALA:541:N:4891, V-A:PRO:540:C:4881, V-A:LEU:363:CA:3185"]

$$$$
RR27_Rahimova_2017
     RDKit          3D

 39 44  0  0  0  0  0  0  0  0999 V2000
  127.1810  122.8910   62.1010 O   0  0  0  0  0  0  0  0  0  0  0  0
  128.3540  123.2660   62.0190 C   0  0  0  0  0  0  0  0  0  0  0  0
  129.4300  122.5090   62.8520 C   0  0  0  0  0  0  0  0  0  0  0  0
  130.2310  123.4340   63.7870 C   0  0  0  0  0  0  0  0  0  0  0  0
  131.6340  123.4760   63.7640 C   0  0  0  0  0  0  0  0  0  0  0  0
  132.3260  124.3250   64.6220 C   0  0  0  0  0  0  0  0  0  0  0  0
  131.6210  125.1360   65.5070 C   0  0  0  0  0  0  0  0  0  0  0  0
  130.2300  125.1040   65.5430 C   0  0  0  0  0  0  0  0  0  0  0  0
  129.5380  124.2540   64.6850 C   0  0  0  0  0  0  0  0  0  0  0  0
  130.2860  121.5790   61.9700 C   0  0  0  0  0  0  0  0  0  0  0  0
  131.4500  122.0310   61.3350 C   0  0  0  0  0  0  0  0  0  0  0  0
  132.1940  121.1670   60.5350 C   0  0  0  0  0  0  0  0  0  0  0  0
  131.7730  119.8510   60.3640 C   0  0  0  0  0  0  0  0  0  0  0  0
  130.6120  119.3910   60.9800 C   0  0  0  0  0  0  0  0  0  0  0  0
  129.8690  120.2560   61.7770 C   0  0  0  0  0  0  0  0  0  0  0  0
  128.7420  124.2120   61.1170 N   0  0  0  0  0  0  0  0  0  0  0  0
  130.0560  124.8720   61.1480 C   0  0  0  0  0  0  0  0  0  0  0  0
  129.9210  126.0930   62.0850 C   0  0  0  0  0  0  0  0  0  0  0  0
  128.7610  127.0500   61.6660 C   0  0  0  0  0  0  0  0  0  0  0  0
  128.5110  128.2240   62.6310 C   0  0  0  0  0  0  0  0  0  0  0  0
  128.1380  127.8960   63.9020 N   0  0  0  0  0  0  0  0  0  0  0  0
  127.9310  128.8960   64.8030 C   0  0  0  0  0  0  0  0  0  0  0  0
  127.5590  128.6930   66.1060 O   0  0  0  0  0  0  0  0  0  0  0  0
  128.1090  130.2290   64.3850 C   0  0  0  0  0  0  0  0  0  0  0  0
  127.9940  131.4350   65.0120 N   0  0  0  0  0  0  0  0  0  0  0  0
  128.2880  132.4120   64.0810 N   0  0  0  0  0  0  0  0  0  0  0  0
  128.5870  131.8180   62.9060 N   0  0  0  0  0  0  0  0  0  0  0  0
  128.9160  132.6220   61.7310 C   0  0  0  0  0  0  0  0  0  0  0  0
  130.2240  132.2230   61.0620 C   0  0  0  0  0  0  0  0  0  0  0  0
  131.3260  131.8490   61.8380 C   0  0  0  0  0  0  0  0  0  0  0  0
  132.5220  131.4720   61.2240 C   0  0  0  0  0  0  0  0  0  0  0  0
  132.6200  131.4630   59.8340 C   0  0  0  0  0  0  0  0  0  0  0  0
  131.5220  131.8270   59.0530 C   0  0  0  0  0  0  0  0  0  0  0  0
  131.6330  131.7900   57.3300 Cl  0  0  0  0  0  0  0  0  0  0  0  0
  130.3290  132.2100   59.6660 C   0  0  0  0  0  0  0  0  0  0  0  0
  128.4850  130.4440   63.0420 C   0  0  0  0  0  0  0  0  0  0  0  0
  128.6860  129.4830   62.1370 N   0  0  0  0  0  0  0  0  0  0  0  0
  127.4640  126.2660   61.2970 C   0  0  0  0  0  0  0  0  0  0  0  0
  127.7340  125.0210   60.4150 C   0  0  0  0  0  0  0  0  0  0  0  0
  1  2  2  0
  2  3  1  0
  3  4  1  0
  4  5  2  0
  5  6  1  0
  6  7  2  0
  7  8  1  0
  8  9  2  0
  3 10  1  0
 10 11  2  0
 11 12  1  0
 12 13  2  0
 13 14  1  0
 14 15  2  0
  2 16  1  0
 16 17  1  0
 17 18  1  0
 18 19  1  0
 19 20  1  0
 20 21  2  0
 21 22  1  0
 22 23  1  0
 22 24  2  0
 24 25  1  0
 25 26  2  0
 26 27  1  0
 27 28  1  0
 28 29  1  0
 29 30  2  0
 30 31  1  0
 31 32  2  0
 32 33  1  0
 33 34  1  0
 33 35  2  0
 27 36  1  0
 36 37  2  0
 19 38  1  0
 38 39  1  0
  9  4  1  0
 15 10  1  0
 39 16  1  0
 37 20  1  0
 36 24  1  0
 35 29  1  0
M  END
>  <Binding energies>  (78) 
[-10.07]

>  <Ligand effiencies>  (78) 
[-0.25175000000000003]

>  <Interactions>  (78) 
["V-A:GLU:543:CG:4907, V-B:GLU:543:CD:9880, V-B:GLU:543:CG:9879, H-B:TYR:484:OH:9319, V-A:GLU:543:CD:4908, V-B:GLU:543:CB:9878, V-B:TYR:539:CD2:9846, V-B:TYR:539:CE2:9848, V-A:LEU:475:CD2:4259, V-B:ALA:541:CB:9864, H-B:ALA:541:N:9863, V-A:PRO:540:N:4884, V-A:PRO:540:CA:4883, V-A:PRO:540:CB:4885, V-A:LEU:363:CD1:3189, H-B:GLU:543:OE2:9882, V-A:PRO:540:C:4881"]

$$$$
RR28_Rahimova_2017
     RDKit          3D

 46 49  0  0  0  0  0  0  0  0999 V2000
  133.6690  124.5880   63.3950 C   0  0  0  0  0  0  0  0  0  0  0  0
  132.2310  125.0960   63.4200 C   0  0  0  0  0  0  0  0  0  0  0  0
  131.9650  126.1890   62.9250 O   0  0  0  0  0  0  0  0  0  0  0  0
  131.3220  124.2870   64.0010 N   0  0  0  0  0  0  0  0  0  0  0  0
  129.8700  124.5170   64.1760 C   0  0  0  0  0  0  0  0  0  0  0  0
  129.6530  125.2380   65.5370 C   0  0  0  0  0  0  0  0  0  0  0  0
  129.9950  124.5790   66.7270 C   0  0  0  0  0  0  0  0  0  0  0  0
  129.8100  125.1910   67.9630 C   0  0  0  0  0  0  0  0  0  0  0  0
  129.2780  126.4790   68.0370 C   0  0  0  0  0  0  0  0  0  0  0  0
  129.0780  127.1340   69.4040 C   0  0  0  0  0  0  0  0  0  0  0  0
  128.8860  126.2360   70.3730 F   0  0  0  0  0  0  0  0  0  0  0  0
  130.1440  127.8660   69.7260 F   0  0  0  0  0  0  0  0  0  0  0  0
  128.0090  127.9290   69.3560 F   0  0  0  0  0  0  0  0  0  0  0  0
  128.9310  127.1460   66.8590 C   0  0  0  0  0  0  0  0  0  0  0  0
  129.1160  126.5320   65.6240 C   0  0  0  0  0  0  0  0  0  0  0  0
  129.0780  123.1680   64.0420 C   0  0  0  0  0  0  0  0  0  0  0  0
  129.1490  122.5540   62.6210 C   0  0  0  0  0  0  0  0  0  0  0  0
  128.5960  123.5630   61.7030 N   0  0  0  0  0  0  0  0  0  0  0  0
  127.2790  123.5330   61.3610 C   0  0  0  0  0  0  0  0  0  0  0  0
  126.5470  122.5870   61.6590 O   0  0  0  0  0  0  0  0  0  0  0  0
  126.7230  124.6390   60.4310 C   0  0  0  0  0  0  0  0  0  0  0  0
  125.9420  124.1470   59.1820 C   0  0  0  0  0  0  0  0  0  0  0  0
  126.4630  124.6840   57.8290 C   0  0  0  0  0  0  0  0  0  0  0  0
  126.2760  123.9950   56.8220 O   0  0  0  0  0  0  0  0  0  0  0  0
  126.9820  125.9430   57.7560 N   0  0  0  0  0  0  0  0  0  0  0  0
  127.5100  126.6660   58.9180 C   0  0  0  0  0  0  0  0  0  0  0  0
  128.9800  126.2220   59.0830 C   0  0  0  0  0  0  0  0  0  0  0  0
  129.8800  126.4490   57.8180 C   0  0  0  0  0  0  0  0  0  0  0  0
  131.1110  125.6410   57.9480 N   0  0  0  0  0  0  0  0  0  0  0  0
  131.8730  125.4570   59.0450 C   0  0  0  0  0  0  0  0  0  0  0  0
  133.1070  124.5770   58.8700 C   0  0  0  0  0  0  0  0  0  0  0  0
  131.6300  125.9510   60.1450 O   0  0  0  0  0  0  0  0  0  0  0  0
  130.3030  127.9540   57.8090 C   0  0  0  0  0  0  0  0  0  0  0  0
  129.4480  128.9820   57.3770 C   0  0  0  0  0  0  0  0  0  0  0  0
  129.8640  130.3110   57.3850 C   0  0  0  0  0  0  0  0  0  0  0  0
  131.1470  130.6460   57.8220 C   0  0  0  0  0  0  0  0  0  0  0  0
  131.6170  132.1010   57.8410 C   0  0  0  0  0  0  0  0  0  0  0  0
  132.0460  132.4710   56.6330 F   0  0  0  0  0  0  0  0  0  0  0  0
  130.5970  132.8840   58.1890 F   0  0  0  0  0  0  0  0  0  0  0  0
  132.6110  132.2970   58.7080 F   0  0  0  0  0  0  0  0  0  0  0  0
  132.0110  129.6350   58.2460 C   0  0  0  0  0  0  0  0  0  0  0  0
  131.5930  128.3090   58.2370 C   0  0  0  0  0  0  0  0  0  0  0  0
  129.0740  126.0220   56.5310 C   0  0  0  0  0  0  0  0  0  0  0  0
  127.5750  126.4230   56.5010 C   0  0  0  0  0  0  0  0  0  0  0  0
  129.4080  124.7850   61.6240 C   0  0  0  0  0  0  0  0  0  0  0  0
  129.3670  125.4490   63.0250 C   0  0  0  0  0  0  0  0  0  0  0  0
  1  2  1  0
  2  3  2  0
  2  4  1  0
  4  5  1  0
  5  6  1  0
  6  7  2  0
  7  8  1  0
  8  9  2  0
  9 10  1  0
 10 11  1  0
 10 12  1  0
 10 13  1  0
  9 14  1  0
 14 15  2  0
  5 16  1  0
 16 17  1  0
 17 18  1  0
 18 19  1  0
 19 20  2  0
 19 21  1  0
 21 22  1  0
 22 23  1  0
 23 24  2  0
 23 25  1  0
 25 26  1  0
 26 27  1  0
 27 28  1  0
 28 29  1  0
 29 30  1  0
 30 31  1  0
 30 32  2  0
 28 33  1  0
 33 34  2  0
 34 35  1  0
 35 36  2  0
 36 37  1  0
 37 38  1  0
 37 39  1  0
 37 40  1  0
 36 41  1  0
 41 42  2  0
 28 43  1  0
 43 44  1  0
 18 45  1  0
 45 46  1  0
 46  5  1  0
 15  6  1  0
 44 25  1  0
 42 33  1  0
M  END
>  <Binding energies>  (79) 
[-8.24]

>  <Ligand effiencies>  (79) 
[-0.17166666666666666]

>  <Interactions>  (79) 
["V-B:HIS:456:CE1:9041, V-B:GLU:543:CD:9880, V-A:TYR:484:CE2:4346, V-B:GLU:543:CG:9879, V-B:HIS:456:CD2:9039, V-B:GLU:543:C:9874, V-A:GLU:543:CD:4908, V-A:HIS:456:CE1:4070, V-A:GLU:543:CB:4906, V-A:TYR:484:CZ:4347, V-B:GLU:543:CB:9878, V-B:GLU:543:CA:9876, V-B:TYR:539:CE2:9848, V-B:PRO:540:CA:9855, V-B:PRO:540:CB:9857, V-A:GLU:543:C:4902, V-B:ALA:541:CB:9864, H-B:TYR:539:OH:9850, V-B:TYR:539:CZ:9849, H-B:ALA:541:N:9863, V-A:ASP:366:CB:3212, H-A:TYR:531:OH:4795, V-A:ASP:366:CG:3213, V-A:ASP:366:CA:3210, V-A:TYR:539:C:4867, V-A:PRO:540:CD:4887, H-A:TYR:484:OH:4348, V-A:PRO:540:N:4884, V-A:PRO:540:CA:4883, V-A:PRO:540:CB:4885, V-A:ARG:545:CZ:4926, H-A:ARG:545:NH2:4928, V-A:MET:535:CE:4835, V-A:LEU:363:CD1:3189, V-A:TYR:531:CZ:4794, V-A:ILE:538:CB:4862, V-A:ILE:538:CG2:4863, V-A:PRO:540:CG:4886"]

$$$$
RR29_Rahimova_2017
     RDKit          3D

 18 19  0  0  0  0  0  0  0  0999 V2000
  129.7950  124.7330   67.6370 C   0  0  0  0  0  0  0  0  0  0  0  0
  129.8560  125.8440   66.5990 C   0  0  0  0  0  0  0  0  0  0  0  0
  129.2510  127.1730   67.1020 C   0  0  0  0  0  0  0  0  0  0  0  0
  128.3520  126.9600   68.3380 C   0  0  0  0  0  0  0  0  0  0  0  0
  129.0920  127.2220   69.6410 C   0  0  0  0  0  0  0  0  0  0  0  0
  130.2290  128.0530   69.6490 C   0  0  0  0  0  0  0  0  0  0  0  0
  130.9250  128.3090   70.8400 C   0  0  0  0  0  0  0  0  0  0  0  0
  130.4570  127.7040   72.0000 C   0  0  0  0  0  0  0  0  0  0  0  0
  129.3550  126.8950   71.9970 C   0  0  0  0  0  0  0  0  0  0  0  0
  128.6400  126.6320   70.8340 C   0  0  0  0  0  0  0  0  0  0  0  0
  129.1060  126.4710   73.2650 O   0  0  0  0  0  0  0  0  0  0  0  0
  130.2160  126.8700   74.0230 C   0  0  0  0  0  0  0  0  0  0  0  0
  130.9320  127.8130   73.2690 O   0  0  0  0  0  0  0  0  0  0  0  0
  130.3700  125.5860   65.4530 N   0  0  0  0  0  0  0  0  0  0  0  0
  130.3490  126.5640   64.4830 N   0  0  0  0  0  0  0  0  0  0  0  0
  129.5850  126.5120   63.3800 C   0  0  0  0  0  0  0  0  0  0  0  0
  128.7380  125.5250   63.0850 N   0  0  0  0  0  0  0  0  0  0  0  0
  129.6780  127.5140   62.5180 N   0  0  0  0  0  0  0  0  0  0  0  0
  1  2  1  0
  2  3  1  0
  3  4  1  0
  4  5  1  0
  5  6  2  0
  6  7  1  0
  7  8  2  0
  8  9  1  0
  9 10  2  0
  9 11  1  0
 11 12  1  0
 12 13  1  0
  2 14  2  0
 14 15  1  0
 15 16  1  0
 16 17  1  0
 16 18  2  0
 10  5  1  0
 13  8  1  0
M  CHG  1  18   1
M  END
>  <Binding energies>  (80) 
[-6.95]

>  <Ligand effiencies>  (80) 
[-0.3021739130434783]

>  <Interactions>  (80) 
["V-B:HIS:456:CE1:9041, V-A:HIS:456:CD2:4068, V-B:GLU:543:CD:9880, V-A:TYR:484:CE2:4346, V-B:GLU:543:CG:9879, V-B:GLU:543:C:9874, V-A:GLU:543:CD:4908, V-A:HIS:456:CE1:4070, V-A:GLU:543:CB:4906, V-A:TYR:484:CZ:4347, V-B:GLU:543:CB:9878, V-B:GLU:543:CA:9876, H-B:LYS:547:NZ:9923, V-A:GLU:543:C:4902, V-A:GLY:544:C:4912, H-A:LYS:547:NZ:4951, H-A:GLU:543:OE2:4910, H-A:GLU:543:OE1:4909, H-B:GLU:543:OE1:9881, V-A:GLY:544:CA:4914"]

$$$$
RR30_Rahimova_2017
     RDKit          3D

 18 19  0  0  0  0  0  0  0  0999 V2000
  128.9440  127.7990   72.6180 C   0  0  0  0  0  0  0  0  0  0  0  0
  130.2460  128.4510   72.1290 C   0  0  0  0  0  0  0  0  0  0  0  0
  130.5620  128.0940   70.6940 C   0  0  0  0  0  0  0  0  0  0  0  0
  131.7270  128.0950   70.0960 N   0  0  0  0  0  0  0  0  0  0  0  0
  131.4840  127.7010   68.7830 N   0  0  0  0  0  0  0  0  0  0  0  0
  130.1930  127.5050   68.6970 C   0  0  0  0  0  0  0  0  0  0  0  0
  129.2760  126.9790   67.2850 S   0  0  0  0  0  0  0  0  0  0  0  0
  129.5400  125.1800   67.3930 C   0  0  0  0  0  0  0  0  0  0  0  0
  130.4120  124.6540   66.2500 C   0  0  0  0  0  0  0  0  0  0  0  0
  130.1100  123.5910   65.7030 O   0  0  0  0  0  0  0  0  0  0  0  0
  131.4970  125.4000   65.9420 N   0  0  0  0  0  0  0  0  0  0  0  0
  132.4300  125.1270   64.9530 C   0  0  0  0  0  0  0  0  0  0  0  0
  133.7310  124.9900   65.0770 N   0  0  0  0  0  0  0  0  0  0  0  0
  134.3520  124.7200   63.8640 N   0  0  0  0  0  0  0  0  0  0  0  0
  133.5160  124.6590   62.8530 C   0  0  0  0  0  0  0  0  0  0  0  0
  133.9520  124.3810   61.4330 C   0  0  0  0  0  0  0  0  0  0  0  0
  131.8600  124.9310   63.3250 S   0  0  0  0  0  0  0  0  0  0  0  0
  129.5470  127.7300   69.8700 O   0  0  0  0  0  0  0  0  0  0  0  0
  1  2  1  0
  2  3  1  0
  3  4  2  0
  4  5  1  0
  5  6  2  0
  6  7  1  0
  7  8  1  0
  8  9  1  0
  9 10  2  0
  9 11  1  0
 11 12  1  0
 12 13  2  0
 13 14  1  0
 14 15  2  0
 15 16  1  0
 15 17  1  0
  6 18  1  0
 18  3  1  0
 17 12  1  0
M  END
>  <Binding energies>  (81) 
[-6.31]

>  <Ligand effiencies>  (81) 
[-0.33210526315789474]

>  <Interactions>  (81) 
["V-A:TYR:484:CE2:4346, V-B:GLU:543:CG:9879, V-B:HIS:456:CD2:9039, V-B:GLU:543:C:9874, V-A:GLU:543:CD:4908, V-A:HIS:456:CE1:4070, V-A:GLU:543:CB:4906, V-A:TYR:484:CZ:4347, V-B:GLU:543:CB:9878, V-B:GLU:543:CA:9876, V-A:ILE:369:CD1:3239, V-A:GLU:543:C:4902, V-A:GLY:544:C:4912, H-A:ARG:545:N:4920, V-A:ASP:366:CG:3213, H-A:TYR:484:OH:4348, H-A:GLU:543:OE2:4910, H-A:GLY:454:N:4050, H-A:ARG:545:NH1:4927, H-A:ARG:545:NE:4924, V-A:ARG:545:CZ:4926, H-A:ARG:545:NH2:4928"]

$$$$
RR31_Rahimova_2017
     RDKit          3D

 18 19  0  0  0  0  0  0  0  0999 V2000
  129.5910  128.3230   72.8640 C   0  0  0  0  0  0  0  0  0  0  0  0
  129.6250  127.8840   71.4070 C   0  0  0  0  0  0  0  0  0  0  0  0
  130.7760  128.1130   70.6530 C   0  0  0  0  0  0  0  0  0  0  0  0
  130.8400  127.7190   69.3180 C   0  0  0  0  0  0  0  0  0  0  0  0
  129.7560  127.0770   68.6980 C   0  0  0  0  0  0  0  0  0  0  0  0
  129.8000  126.6860   67.3580 N   0  0  0  0  0  0  0  0  0  0  0  0
  130.3810  125.3950   66.9390 C   0  0  0  0  0  0  0  0  0  0  0  0
  130.7160  125.3140   65.4310 C   0  0  0  0  0  0  0  0  0  0  0  0
  129.5340  125.6080   64.6160 N   0  0  0  0  0  0  0  0  0  0  0  0
  129.8120  125.5040   63.1800 C   0  0  0  0  0  0  0  0  0  0  0  0
  131.2770  125.8280   62.8240 C   0  0  0  0  0  0  0  0  0  0  0  0
  131.4080  126.5100   61.4530 C   0  0  0  0  0  0  0  0  0  0  0  0
  131.3270  128.0320   61.6150 N   0  0  0  0  0  0  0  0  0  0  0  0
  129.1080  126.9690   64.9380 C   0  0  0  0  0  0  0  0  0  0  0  0
  128.7230  127.0850   66.4300 C   0  0  0  0  0  0  0  0  0  0  0  0
  128.6010  126.8610   69.4650 C   0  0  0  0  0  0  0  0  0  0  0  0
  128.5240  127.2530   70.8060 C   0  0  0  0  0  0  0  0  0  0  0  0
  127.2400  126.9920   71.5840 C   0  0  0  0  0  0  0  0  0  0  0  0
  1  2  1  0
  2  3  2  0
  3  4  1  0
  4  5  2  0
  5  6  1  0
  6  7  1  0
  7  8  1  0
  8  9  1  0
  9 10  1  0
 10 11  1  0
 11 12  1  0
 12 13  1  0
  9 14  1  0
 14 15  1  0
  5 16  1  0
 16 17  2  0
 17 18  1  0
 17  2  1  0
 15  6  1  0
M  CHG  1  13   1
M  END
>  <Binding energies>  (82) 
[-6.39]

>  <Ligand effiencies>  (82) 
[-0.30428571428571427]

>  <Interactions>  (82) 
["V-B:HIS:456:CE1:9041, V-B:GLU:543:CD:9880, V-A:TYR:484:CE2:4346, V-B:GLU:543:CG:9879, V-B:HIS:456:CD2:9039, V-B:GLU:543:C:9874, V-A:GLU:543:CD:4908, V-B:HIS:456:CG:9037, V-A:HIS:456:CE1:4070, V-A:GLU:543:CB:4906, V-B:GLY:544:C:9884, V-B:GLU:543:CB:9878, V-A:GLU:543:C:4902, V-A:GLY:544:C:4912, V-A:ASP:366:CG:3213, H-A:ASP:366:OD2:3215, H-A:ASP:366:OD1:3214, H-A:GLU:543:OE2:4910, H-A:GLU:543:OE1:4909, V-B:GLY:544:CA:9886"]

$$$$
RR32_Rahimova_2017
     RDKit          3D

 18 20  0  0  0  0  0  0  0  0999 V2000
  127.8010  129.1790   65.7190 C   0  0  0  0  0  0  0  0  0  0  0  0
  128.4580  128.1600   66.6450 C   0  0  0  0  0  0  0  0  0  0  0  0
  128.4200  128.3970   68.0190 C   0  0  0  0  0  0  0  0  0  0  0  0
  129.0060  127.4880   68.8950 C   0  0  0  0  0  0  0  0  0  0  0  0
  128.9670  127.7270   70.2580 N   0  0  0  0  0  0  0  0  0  0  0  0
  127.9750  126.9740   71.0480 C   0  0  0  0  0  0  0  0  0  0  0  0
  127.8860  127.4410   72.5200 C   0  0  0  0  0  0  0  0  0  0  0  0
  129.1900  127.3180   73.1690 N   0  0  0  0  0  0  0  0  0  0  0  0
  129.0990  127.7270   74.5660 C   0  0  0  0  0  0  0  0  0  0  0  0
  130.1340  128.1720   72.4520 C   0  0  0  0  0  0  0  0  0  0  0  0
  130.2550  127.7190   70.9770 C   0  0  0  0  0  0  0  0  0  0  0  0
  129.6270  126.3580   68.4690 N   0  0  0  0  0  0  0  0  0  0  0  0
  129.6830  126.1000   67.1340 C   0  0  0  0  0  0  0  0  0  0  0  0
  130.3390  124.9160   66.7180 C   0  0  0  0  0  0  0  0  0  0  0  0
  130.4270  124.6010   65.3670 C   0  0  0  0  0  0  0  0  0  0  0  0
  129.8720  125.4420   64.4100 C   0  0  0  0  0  0  0  0  0  0  0  0
  129.2200  126.6140   64.7850 C   0  0  0  0  0  0  0  0  0  0  0  0
  129.1070  126.9770   66.1590 C   0  0  0  0  0  0  0  0  0  0  0  0
  1  2  1  0
  2  3  2  0
  3  4  1  0
  4  5  1  0
  5  6  1  0
  6  7  1  0
  7  8  1  0
  8  9  1  0
  8 10  1  0
 10 11  1  0
  4 12  2  0
 12 13  1  0
 13 14  2  0
 14 15  1  0
 15 16  2  0
 16 17  1  0
 17 18  2  0
 18  2  1  0
 11  5  1  0
 18 13  1  0
M  END
>  <Binding energies>  (83) 
[-5.62]

>  <Ligand effiencies>  (83) 
[-0.31222222222222223]

>  <Interactions>  (83) 
["V-B:HIS:456:CE1:9041, V-A:GLU:543:CG:4907, V-B:GLU:543:CD:9880, V-A:TYR:484:CE2:4346, V-B:GLU:543:CG:9879, V-B:HIS:456:CD2:9039, V-B:GLU:543:C:9874, V-A:GLU:543:CD:4908, V-A:HIS:456:CE1:4070, V-A:GLU:543:CB:4906, V-B:GLY:544:C:9884, V-A:TYR:484:CZ:4347, V-B:GLU:543:CB:9878, H-B:LYS:547:NZ:9923, V-A:GLY:544:C:4912"]

$$$$
RR5_Rahimova_2017
     RDKit          3D

 45 50  0  0  0  0  0  0  0  0999 V2000
  129.0430  132.6380   61.1890 O   0  0  0  0  0  0  0  0  0  0  0  0
  128.6810  131.4710   61.3280 C   0  0  0  0  0  0  0  0  0  0  0  0
  127.6490  131.1160   62.4150 C   0  0  0  0  0  0  0  0  0  0  0  0
  127.9800  129.8000   63.2050 C   0  0  2  0  0  0  0  0  0  0  0  0
  127.2540  128.5980   62.7470 N   0  0  0  0  0  0  0  0  0  0  0  0
  127.8280  127.6950   61.8630 C   0  0  0  0  0  0  0  0  0  0  0  0
  128.9720  127.7400   61.4040 O   0  0  0  0  0  0  0  0  0  0  0  0
  126.9160  126.7510   61.5710 O   0  0  0  0  0  0  0  0  0  0  0  0
  126.7970  126.2150   60.2560 C   0  0  0  0  0  0  0  0  0  0  0  0
  126.5340  124.6940   60.3050 C   0  0  0  0  0  0  0  0  0  0  0  0
  126.3260  124.0670   58.9380 C   0  0  0  0  0  0  0  0  0  0  0  0
  125.3780  124.3690   57.9560 C   0  0  0  0  0  0  0  0  0  0  0  0
  125.3840  123.6720   56.7470 C   0  0  0  0  0  0  0  0  0  0  0  0
  126.3320  122.6740   56.5170 C   0  0  0  0  0  0  0  0  0  0  0  0
  127.2790  122.3690   57.4970 C   0  0  0  0  0  0  0  0  0  0  0  0
  127.2710  123.0670   58.7050 C   0  0  0  0  0  0  0  0  0  0  0  0
  128.1290  122.9520   59.8960 C   0  0  0  0  0  0  0  0  0  0  0  0
  129.2030  122.1040   60.1760 C   0  0  0  0  0  0  0  0  0  0  0  0
  129.8420  122.1860   61.4130 C   0  0  0  0  0  0  0  0  0  0  0  0
  129.4120  123.1140   62.3650 C   0  0  0  0  0  0  0  0  0  0  0  0
  128.3410  123.9610   62.0790 C   0  0  0  0  0  0  0  0  0  0  0  0
  127.7000  123.8840   60.8400 C   0  0  0  0  0  0  0  0  0  0  0  0
  127.7520  129.9990   64.7240 C   0  0  0  0  0  0  0  0  0  0  0  0
  128.2860  130.8580   65.3970 O   0  0  0  0  0  0  0  0  0  0  0  0
  126.8520  129.0780   65.1780 O   0  0  0  0  0  0  0  0  0  0  0  0
  129.1000  130.4370   60.5630 N   0  0  0  0  0  0  0  0  0  0  0  0
  130.0620  130.3240   59.4260 C   0  0  0  0  0  0  0  0  0  0  0  0
  129.4170  131.2680   58.3570 C   0  0  0  0  0  0  0  0  0  0  0  0
  130.2010  132.1340   57.5750 C   0  0  0  0  0  0  0  0  0  0  0  0
  129.6160  132.9680   56.6260 C   0  0  0  0  0  0  0  0  0  0  0  0
  128.2370  132.9600   56.4510 C   0  0  0  0  0  0  0  0  0  0  0  0
  127.4370  132.1130   57.2090 C   0  0  0  0  0  0  0  0  0  0  0  0
  128.0230  131.2720   58.1500 C   0  0  0  0  0  0  0  0  0  0  0  0
  131.4480  130.8460   59.9330 C   0  0  0  0  0  0  0  0  0  0  0  0
  131.6620  131.1830   61.2790 C   0  0  0  0  0  0  0  0  0  0  0  0
  132.8980  131.6650   61.7040 C   0  0  0  0  0  0  0  0  0  0  0  0
  133.9350  131.8170   60.7890 C   0  0  0  0  0  0  0  0  0  0  0  0
  133.7480  131.4860   59.4510 C   0  0  0  0  0  0  0  0  0  0  0  0
  132.5150  130.9970   59.0300 C   0  0  0  0  0  0  0  0  0  0  0  0
  130.0490  128.8180   58.9950 C   0  0  0  0  0  0  0  0  0  0  0  0
  131.1090  127.9580   59.3370 C   0  0  0  0  0  0  0  0  0  0  0  0
  131.1070  126.6210   58.9490 C   0  0  0  0  0  0  0  0  0  0  0  0
  130.0390  126.1170   58.2160 C   0  0  0  0  0  0  0  0  0  0  0  0
  128.9710  126.9380   57.8750 C   0  0  0  0  0  0  0  0  0  0  0  0
  128.9770  128.2750   58.2640 C   0  0  0  0  0  0  0  0  0  0  0  0
  1  2  2  0
  2  3  1  0
  4  3  1  6
  4  5  1  0
  5  6  1  0
  6  7  2  0
  6  8  1  0
  8  9  1  0
  9 10  1  0
 10 11  1  0
 11 12  2  0
 12 13  1  0
 13 14  2  0
 14 15  1  0
 15 16  2  0
 16 17  1  0
 17 18  2  0
 18 19  1  0
 19 20  2  0
 20 21  1  0
 21 22  2  0
  4 23  1  0
 23 24  2  0
 23 25  1  0
  2 26  1  0
 26 27  1  0
 27 28  1  0
 28 29  2  0
 29 30  1  0
 30 31  2  0
 31 32  1  0
 32 33  2  0
 27 34  1  0
 34 35  2  0
 35 36  1  0
 36 37  2  0
 37 38  1  0
 38 39  2  0
 27 40  1  0
 40 41  2  0
 41 42  1  0
 42 43  2  0
 43 44  1  0
 44 45  2  0
 22 10  1  0
 33 28  1  0
 39 34  1  0
 45 40  1  0
 16 11  1  0
 22 17  1  0
M  END
>  <Binding energies>  (84) 
[-9.33]

>  <Ligand effiencies>  (84) 
[-0.194375]

>  <Interactions>  (84) 
["V-A:GLU:543:CG:4907, V-B:GLU:543:CD:9880, H-B:TYR:484:OH:9319, V-A:GLU:543:CD:4908, V-B:TYR:539:CD2:9846, V-B:TYR:539:CE2:9848, V-B:PRO:540:CA:9855, V-B:PRO:540:CD:9859, V-B:PRO:540:CB:9857, V-B:PRO:540:N:9856, V-B:TYR:539:C:9839, V-B:LEU:363:CD1:8160, V-B:TYR:539:CG:9844, V-B:TYR:539:CD1:9845, V-B:MET:535:CE:9807, V-B:TYR:539:CA:9841, V-A:ASP:366:CG:3213, V-A:PRO:540:CA:4883, V-A:TYR:539:CE1:4875, V-A:TYR:539:CD1:4873, V-A:PRO:540:CB:4885, V-A:MET:535:CE:4835, V-A:LEU:363:CD1:3189, V-A:ILE:538:CA:4860, H-B:GLU:543:OE1:9881, V-A:ASN:362:CB:3176, V-A:TYR:539:CE2:4876, V-A:TYR:539:CZ:4877, V-A:TYR:539:CG:4872, H-B:GLU:543:OE2:9882, V-A:ASN:362:C:3172, V-A:LEU:363:CA:3185, V-A:LEU:363:CB:3187, V-A:TYR:539:CD2:4874, H-B:ARG:545:NH2:9900"]

$$$$
