1a_Grossjean_2025
     RDKit          3D

 26 27  0  0  0  0  0  0  0  0999 V2000
  124.2330  123.1300   56.2680 C   0  0  0  0  0  0  0  0  0  0  0  0
  125.3600  123.8120   55.4870 C   0  0  0  0  0  0  0  0  0  0  0  0
  126.4970  122.9590   55.4530 O   0  0  0  0  0  0  0  0  0  0  0  0
  127.6430  123.2910   56.1020 C   0  0  0  0  0  0  0  0  0  0  0  0
  128.1930  122.5570   56.9280 O   0  0  0  0  0  0  0  0  0  0  0  0
  128.1650  124.6480   55.7260 C   0  0  0  0  0  0  0  0  0  0  0  0
  127.8060  125.7580   56.5010 C   0  0  0  0  0  0  0  0  0  0  0  0
  128.2700  127.0290   56.1750 C   0  0  0  0  0  0  0  0  0  0  0  0
  129.1000  127.2180   55.0700 C   0  0  0  0  0  0  0  0  0  0  0  0
  129.5080  128.5450   54.8320 N   0  0  0  0  0  0  0  0  0  0  0  0
  128.7720  129.6690   54.7030 C   0  0  0  0  0  0  0  0  0  0  0  0
  127.5450  129.7330   54.7760 O   0  0  0  0  0  0  0  0  0  0  0  0
  129.5700  130.9490   54.4440 C   0  0  0  0  0  0  0  0  0  0  0  0
  129.3530  132.1720   55.7720 S   0  0  0  0  0  0  0  0  0  0  0  0
  130.4640  131.7330   57.0900 C   0  0  0  0  0  0  0  0  0  0  0  0
  131.7240  131.4510   56.6720 N   0  0  0  0  0  0  0  0  0  0  0  0
  132.6510  131.0990   57.5940 C   0  0  0  0  0  0  0  0  0  0  0  0
  134.0340  130.7860   57.0520 C   0  0  0  0  0  0  0  0  0  0  0  0
  132.3680  131.0250   58.9560 C   0  0  0  0  0  0  0  0  0  0  0  0
  131.0770  131.3340   59.3990 C   0  0  0  0  0  0  0  0  0  0  0  0
  130.7930  131.2610   60.8980 C   0  0  0  0  0  0  0  0  0  0  0  0
  130.0930  131.7070   58.4550 C   0  0  0  0  0  0  0  0  0  0  0  0
  128.7480  132.0830   58.9000 C   0  0  0  0  0  0  0  0  0  0  0  0
  127.6870  132.3780   59.2550 N   0  0  0  0  0  0  0  0  0  0  0  0
  129.4720  126.1110   54.2920 C   0  0  0  0  0  0  0  0  0  0  0  0
  129.0070  124.8400   54.6190 C   0  0  0  0  0  0  0  0  0  0  0  0
  1  2  1  0
  2  3  1  0
  3  4  1  0
  4  5  2  0
  4  6  1  0
  6  7  2  0
  7  8  1  0
  8  9  2  0
  9 10  1  0
 10 11  1  0
 11 12  2  0
 11 13  1  0
 13 14  1  0
 14 15  1  0
 15 16  2  0
 16 17  1  0
 17 18  1  0
 17 19  2  0
 19 20  1  0
 20 21  1  0
 20 22  2  0
 22 23  1  0
 23 24  3  0
  9 25  1  0
 25 26  2  0
 26  6  1  0
 22 15  1  0
M  END
>  <Binding energies>  (1) 
[-8.4]

>  <Ligand effiencies>  (1) 
[-0.3111111111111111]

>  <Interactions>  (1) 
["V-B:PRO:540:N:9856, V-B:PRO:540:CB:9857, V-B:TYR:539:CE1:9847, V-B:TYR:539:CD1:9845, V-A:ASP:366:CG:3211, V-A:PRO:540:N:4882, H-A:TYR:539:N:4868, H-A:MET:535:SD:4832, V-A:TYR:531:CE2:4791, V-A:LEU:363:CA:3183, H-A:TYR:531:OH:4793, V-A:ASP:366:CB:3210, V-A:TYR:539:C:4865, V-A:LEU:363:CD1:3187, V-A:PRO:540:CA:4881, V-A:TYR:531:CZ:4792, V-A:PRO:540:CB:4883, V-B:TYR:531:CE2:9765, V-B:LEU:363:CD1:8161, V-A:MET:535:CE:4833, V-B:TYR:531:CZ:9766, H-B:TYR:539:N:9842, V-B:ILE:538:CG2:9835, V-B:PRO:540:CD:9859, V-B:ILE:538:CB:9834, V-B:PRO:540:CG:9858, V-A:LEU:363:CB:3185, V-A:MET:535:CG:4831, V-A:TYR:539:CE2:4874, V-A:TYR:539:CD2:4872"]

$$$$
1aa_Ghoteimi_2023
     RDKit          3D

 40 43  0  0  0  0  0  0  0  0999 V2000
  129.0110  128.8800   72.3110 C   0  0  0  0  0  0  0  0  0  0  0  0
  128.1800  127.5950   72.3790 C   0  0  0  0  0  0  0  0  0  0  0  0
  128.8600  126.5550   71.6890 O   0  0  0  0  0  0  0  0  0  0  0  0
  129.7870  126.8340   70.7370 C   0  0  0  0  0  0  0  0  0  0  0  0
  131.0050  126.7690   70.9330 O   0  0  0  0  0  0  0  0  0  0  0  0
  129.1850  127.2310   69.4200 C   0  0  0  0  0  0  0  0  0  0  0  0
  127.7970  127.2520   69.2140 C   0  0  0  0  0  0  0  0  0  0  0  0
  127.2660  127.6250   67.9820 C   0  0  0  0  0  0  0  0  0  0  0  0
  128.1200  127.9880   66.9290 C   0  0  0  0  0  0  0  0  0  0  0  0
  127.6990  128.3810   65.6450 N   0  0  0  0  0  0  0  0  0  0  0  0
  126.7980  129.3160   65.2650 C   0  0  0  0  0  0  0  0  0  0  0  0
  126.1580  130.0310   66.0360 O   0  0  0  0  0  0  0  0  0  0  0  0
  126.5630  129.4950   63.7570 C   0  0  0  0  0  0  0  0  0  0  0  0
  126.8430  128.2760   63.0570 O   0  0  0  0  0  0  0  0  0  0  0  0
  127.9430  128.1870   62.2150 C   0  0  0  0  0  0  0  0  0  0  0  0
  128.8510  127.2000   62.4500 N   0  0  0  0  0  0  0  0  0  0  0  0
  129.9490  127.0880   61.6570 C   0  0  0  0  0  0  0  0  0  0  0  0
  130.9000  125.9720   61.9810 C   0  0  0  0  0  0  0  0  0  0  0  0
  131.3930  125.7990   63.2830 C   0  0  0  0  0  0  0  0  0  0  0  0
  132.2770  124.7660   63.5850 C   0  0  0  0  0  0  0  0  0  0  0  0
  132.6940  123.8760   62.5980 C   0  0  0  0  0  0  0  0  0  0  0  0
  133.5720  122.8830   62.9900 O   0  0  0  0  0  0  0  0  0  0  0  0
  134.0520  121.9590   62.0190 C   0  0  0  0  0  0  0  0  0  0  0  0
  132.2060  124.0330   61.2940 C   0  0  0  0  0  0  0  0  0  0  0  0
  131.3220  125.0660   60.9940 C   0  0  0  0  0  0  0  0  0  0  0  0
  130.1470  127.9680   60.5860 C   0  0  0  0  0  0  0  0  0  0  0  0
  129.2220  128.9850   60.3150 C   0  0  0  0  0  0  0  0  0  0  0  0
  129.4850  129.8840   59.1520 C   0  0  0  0  0  0  0  0  0  0  0  0
  129.7040  131.2500   59.3540 C   0  0  0  0  0  0  0  0  0  0  0  0
  129.9590  132.0930   58.2760 C   0  0  0  0  0  0  0  0  0  0  0  0
  130.0080  131.5880   56.9770 C   0  0  0  0  0  0  0  0  0  0  0  0
  130.2670  132.4970   55.9700 O   0  0  0  0  0  0  0  0  0  0  0  0
  130.0870  132.1030   54.6140 C   0  0  0  0  0  0  0  0  0  0  0  0
  129.7970  130.2160   56.7700 C   0  0  0  0  0  0  0  0  0  0  0  0
  129.5410  129.3750   57.8500 C   0  0  0  0  0  0  0  0  0  0  0  0
  128.0940  129.1020   61.1600 C   0  0  0  0  0  0  0  0  0  0  0  0
  127.0980  130.1600   60.9830 C   0  0  0  0  0  0  0  0  0  0  0  0
  126.3100  130.9960   60.8440 N   0  0  0  0  0  0  0  0  0  0  0  0
  129.5010  127.9670   67.1300 C   0  0  0  0  0  0  0  0  0  0  0  0
  130.0290  127.5930   68.3620 C   0  0  0  0  0  0  0  0  0  0  0  0
  1  2  1  0
  2  3  1  0
  3  4  1  0
  4  5  2  0
  4  6  1  0
  6  7  2  0
  7  8  1  0
  8  9  2  0
  9 10  1  0
 10 11  1  0
 11 12  2  0
 11 13  1  0
 13 14  1  0
 14 15  1  0
 15 16  2  0
 16 17  1  0
 17 18  1  0
 18 19  2  0
 19 20  1  0
 20 21  2  0
 21 22  1  0
 22 23  1  0
 21 24  1  0
 24 25  2  0
 17 26  2  0
 26 27  1  0
 27 28  1  0
 28 29  2  0
 29 30  1  0
 30 31  2  0
 31 32  1  0
 32 33  1  0
 31 34  1  0
 34 35  2  0
 27 36  2  0
 36 37  1  0
 37 38  3  0
  9 39  1  0
 39 40  2  0
 40  6  1  0
 36 15  1  0
 25 18  1  0
 35 28  1  0
M  END
>  <Binding energies>  (2) 
[-7.84]

>  <Ligand effiencies>  (2) 
[-0.19121951219512195]

>  <Interactions>  (2) 
["H-B:GLU:543:OE1:9881, H-B:ARG:545:NH2:9900, V-A:LEU:475:CD2:4257, V-A:PRO:540:N:4882, H-A:TYR:539:N:4868, V-A:ILE:538:CA:4858, V-A:TYR:539:C:4865, V-A:ILE:538:CB:4860, V-A:PRO:540:CA:4881, V-A:ILE:538:CG2:4861, V-A:GLU:543:CD:4906, V-B:GLU:543:CD:9880, H-B:GLU:543:OE2:9882, V-A:ARG:545:CZ:4924, H-A:GLU:543:OE2:4908, H-A:GLU:543:OE1:4907, V-A:GLY:454:CA:4047, H-A:TYR:484:OH:4346, H-A:GLY:454:N:4048, V-A:ILE:538:C:4856, H-B:TYR:484:OH:9320, V-A:ILE:369:CD1:3237, V-B:HIS:456:CE1:9042, V-A:HIS:456:CD2:4066, V-B:GLY:544:C:9884, V-B:HIS:456:CD2:9040, V-A:LYS:547:CE:4948, V-A:HIS:456:CE1:4068, V-B:LYS:547:CE:9922, V-B:GLU:543:CG:9879, V-B:GLU:543:C:9874, V-A:GLU:543:CG:4905, V-B:ARG:545:CG:9894, V-A:GLY:544:CA:4912, V-A:GLU:543:C:4900, V-A:GLU:543:CB:4904, H-A:HIS:456:ND1:4065"]

$$$$
1b_Grossjean_2025
     RDKit          3D

 25 26  0  0  0  0  0  0  0  0999 V2000
  128.8220  132.3380   57.9160 C   0  0  0  0  0  0  0  0  0  0  0  0
  129.1380  132.8550   56.6300 O   0  0  0  0  0  0  0  0  0  0  0  0
  129.8020  132.1000   55.7190 C   0  0  0  0  0  0  0  0  0  0  0  0
  130.8020  132.4920   55.1090 O   0  0  0  0  0  0  0  0  0  0  0  0
  129.2040  130.7340   55.5300 C   0  0  0  0  0  0  0  0  0  0  0  0
  127.9390  130.5510   54.9510 C   0  0  0  0  0  0  0  0  0  0  0  0
  127.4140  129.2730   54.7920 C   0  0  0  0  0  0  0  0  0  0  0  0
  128.1370  128.1530   55.2050 C   0  0  0  0  0  0  0  0  0  0  0  0
  127.5070  126.9110   54.9970 N   0  0  0  0  0  0  0  0  0  0  0  0
  128.0330  125.7160   54.6520 C   0  0  0  0  0  0  0  0  0  0  0  0
  129.2270  125.4890   54.4550 O   0  0  0  0  0  0  0  0  0  0  0  0
  127.0270  124.5710   54.5180 C   0  0  0  0  0  0  0  0  0  0  0  0
  127.6250  123.0380   55.2910 S   0  0  0  0  0  0  0  0  0  0  0  0
  127.5660  123.2750   57.0540 C   0  0  0  0  0  0  0  0  0  0  0  0
  128.7560  123.0720   57.6730 N   0  0  0  0  0  0  0  0  0  0  0  0
  128.8250  123.2270   59.0160 C   0  0  0  0  0  0  0  0  0  0  0  0
  130.1910  123.0000   59.6370 C   0  0  0  0  0  0  0  0  0  0  0  0
  127.7200  123.5750   59.7900 C   0  0  0  0  0  0  0  0  0  0  0  0
  126.4840  123.7640   59.1640 C   0  0  0  0  0  0  0  0  0  0  0  0
  125.2840  124.1290   60.0360 C   0  0  0  0  0  0  0  0  0  0  0  0
  126.3880  123.6080   57.7630 C   0  0  0  0  0  0  0  0  0  0  0  0
  125.0950  123.7570   57.0910 C   0  0  0  0  0  0  0  0  0  0  0  0
  124.0720  123.8760   56.5630 N   0  0  0  0  0  0  0  0  0  0  0  0
  129.4020  128.3280   55.7850 C   0  0  0  0  0  0  0  0  0  0  0  0
  129.9270  129.6070   55.9430 C   0  0  0  0  0  0  0  0  0  0  0  0
  1  2  1  0
  2  3  1  0
  3  4  2  0
  3  5  1  0
  5  6  2  0
  6  7  1  0
  7  8  2  0
  8  9  1  0
  9 10  1  0
 10 11  2  0
 10 12  1  0
 12 13  1  0
 13 14  1  0
 14 15  2  0
 15 16  1  0
 16 17  1  0
 16 18  2  0
 18 19  1  0
 19 20  1  0
 19 21  2  0
 21 22  1  0
 22 23  3  0
  8 24  1  0
 24 25  2  0
 25  5  1  0
 21 14  1  0
M  END
>  <Binding energies>  (3) 
[-7.9]

>  <Ligand effiencies>  (3) 
[-0.3038461538461539]

>  <Interactions>  (3) 
["V-B:PRO:540:N:9856, V-B:PRO:540:CB:9857, V-B:PRO:540:CA:9855, V-B:TYR:539:CE2:9848, V-B:TYR:539:CD2:9846, V-A:TYR:539:CE1:4873, V-A:PRO:540:N:4882, H-A:TYR:539:N:4868, V-A:ILE:538:CA:4858, V-A:TYR:539:CZ:4875, V-A:TYR:539:C:4865, H-B:TYR:539:N:9842, H-B:MET:535:SD:9806, H-B:TYR:531:OH:9767, V-B:TYR:539:C:9839, V-B:PRO:540:CD:9859, V-A:TYR:539:CE2:4874, V-A:TYR:539:CD1:4871, V-A:TYR:539:CD2:4872, V-A:TYR:539:CG:4870, V-B:MET:535:CG:9805"]

$$$$
1c_Grossjean_2025
     RDKit          3D

 23 24  0  0  0  0  0  0  0  0999 V2000
  134.4330  125.0000   66.3370 C   0  0  0  0  0  0  0  0  0  0  0  0
  134.3190  125.4070   64.9770 O   0  0  0  0  0  0  0  0  0  0  0  0
  133.2680  124.9300   64.2170 C   0  0  0  0  0  0  0  0  0  0  0  0
  133.5760  124.5100   62.9240 C   0  0  0  0  0  0  0  0  0  0  0  0
  132.5860  124.0120   62.0820 C   0  0  0  0  0  0  0  0  0  0  0  0
  131.2610  123.9220   62.5340 C   0  0  0  0  0  0  0  0  0  0  0  0
  130.1830  123.4450   61.7640 N   0  0  0  0  0  0  0  0  0  0  0  0
  130.0430  122.2660   61.1210 C   0  0  0  0  0  0  0  0  0  0  0  0
  130.8710  121.3550   61.1130 O   0  0  0  0  0  0  0  0  0  0  0  0
  128.7300  122.0870   60.3580 C   0  0  0  0  0  0  0  0  0  0  0  0
  128.5010  123.3720   59.0930 S   0  0  0  0  0  0  0  0  0  0  0  0
  126.7550  123.5680   58.8010 C   0  0  0  0  0  0  0  0  0  0  0  0
  126.0420  123.8110   59.9310 N   0  0  0  0  0  0  0  0  0  0  0  0
  124.7030  123.9780   59.8330 C   0  0  0  0  0  0  0  0  0  0  0  0
  123.9760  124.2560   61.1360 C   0  0  0  0  0  0  0  0  0  0  0  0
  124.0220  123.9000   58.6210 C   0  0  0  0  0  0  0  0  0  0  0  0
  124.7420  123.6260   57.4530 C   0  0  0  0  0  0  0  0  0  0  0  0
  123.9710  123.5280   56.1380 C   0  0  0  0  0  0  0  0  0  0  0  0
  126.1430  123.4460   57.5310 C   0  0  0  0  0  0  0  0  0  0  0  0
  126.9060  123.1040   56.3280 C   0  0  0  0  0  0  0  0  0  0  0  0
  127.5080  122.8340   55.3780 N   0  0  0  0  0  0  0  0  0  0  0  0
  130.9470  124.3520   63.8240 C   0  0  0  0  0  0  0  0  0  0  0  0
  131.9400  124.8500   64.6630 C   0  0  0  0  0  0  0  0  0  0  0  0
  1  2  1  0
  2  3  1  0
  3  4  2  0
  4  5  1  0
  5  6  2  0
  6  7  1  0
  7  8  1  0
  8  9  2  0
  8 10  1  0
 10 11  1  0
 11 12  1  0
 12 13  2  0
 13 14  1  0
 14 15  1  0
 14 16  2  0
 16 17  1  0
 17 18  1  0
 17 19  2  0
 19 20  1  0
 20 21  3  0
  6 22  1  0
 22 23  2  0
 23  3  1  0
 19 12  1  0
M  END
>  <Binding energies>  (4) 
[-7.39]

>  <Ligand effiencies>  (4) 
[-0.30791666666666667]

>  <Interactions>  (4) 
["V-B:PRO:540:N:9856, V-B:LEU:363:CA:8157, H-B:GLU:543:OE1:9881, V-B:ALA:541:CB:9864, V-B:ASP:366:CG:8185, V-B:PRO:540:CB:9857, V-B:PRO:540:CA:9855, V-B:PRO:540:C:9853, H-B:ALA:541:N:9863, V-B:ARG:545:CZ:9898, V-B:TYR:531:CE2:9765, V-B:LEU:363:CD1:8161, V-B:TYR:531:CZ:9766, V-B:ASN:362:CB:8148, H-B:TYR:539:N:9842, V-B:GLU:543:CD:9880, V-B:TYR:539:C:9839, V-B:ILE:538:CG2:9835, V-B:PRO:540:CD:9859, V-B:ILE:538:CB:9834, V-A:ARG:545:CZ:4924, V-A:GLY:454:CA:4047, V-A:ARG:545:CD:4921, H-A:TYR:484:OH:4346, H-A:ARG:545:NE:4922, H-A:GLY:454:N:4048, H-A:ARG:545:NH1:4925, V-A:HIS:456:CE1:4068, V-A:ARG:545:CG:4920, V-A:GLY:453:CA:4042, V-A:GLY:453:C:4040, V-A:ARG:545:CB:4919, V-B:ASN:362:C:8144, V-B:ASN:362:CA:8146, V-A:ILE:455:C:4050"]

$$$$
1d_Grossjean_2025
     RDKit          3D

 21 22  0  0  0  0  0  0  0  0999 V2000
  128.9460  132.5720   74.0240 C   0  0  0  0  0  0  0  0  0  0  0  0
  127.8930  131.4880   74.1380 C   0  0  0  0  0  0  0  0  0  0  0  0
  126.7750  131.6390   74.9560 C   0  0  0  0  0  0  0  0  0  0  0  0
  125.8300  130.6090   75.0150 C   0  0  0  0  0  0  0  0  0  0  0  0
  124.6050  130.8050   75.9060 C   0  0  0  0  0  0  0  0  0  0  0  0
  126.0370  129.4370   74.2510 C   0  0  0  0  0  0  0  0  0  0  0  0
  125.0380  128.3670   74.2590 C   0  0  0  0  0  0  0  0  0  0  0  0
  124.2460  127.5220   74.2680 N   0  0  0  0  0  0  0  0  0  0  0  0
  127.2120  129.3590   73.4670 C   0  0  0  0  0  0  0  0  0  0  0  0
  127.6310  127.9630   72.4480 S   0  0  0  0  0  0  0  0  0  0  0  0
  129.4360  127.9740   72.2280 C   0  0  0  0  0  0  0  0  0  0  0  0
  130.0920  126.7070   72.7800 C   0  0  0  0  0  0  0  0  0  0  0  0
  129.4700  125.6450   72.7450 O   0  0  0  0  0  0  0  0  0  0  0  0
  131.3470  126.8640   73.2520 N   0  0  0  0  0  0  0  0  0  0  0  0
  132.2160  125.9240   73.8360 C   0  0  0  0  0  0  0  0  0  0  0  0
  131.6380  124.7010   74.1870 C   0  0  0  0  0  0  0  0  0  0  0  0
  132.4090  123.6980   74.7660 C   0  0  0  0  0  0  0  0  0  0  0  0
  133.7670  123.9150   74.9910 C   0  0  0  0  0  0  0  0  0  0  0  0
  134.3580  125.1250   74.6380 C   0  0  0  0  0  0  0  0  0  0  0  0
  133.5880  126.1310   74.0600 C   0  0  0  0  0  0  0  0  0  0  0  0
  128.1120  130.3740   73.4010 N   0  0  0  0  0  0  0  0  0  0  0  0
  1  2  1  0
  2  3  2  0
  3  4  1  0
  4  5  1  0
  4  6  2  0
  6  7  1  0
  7  8  3  0
  6  9  1  0
  9 10  1  0
 10 11  1  0
 11 12  1  0
 12 13  2  0
 12 14  1  0
 14 15  1  0
 15 16  2  0
 16 17  1  0
 17 18  2  0
 18 19  1  0
 19 20  2  0
  9 21  2  0
 21  2  1  0
 20 15  1  0
M  END
>  <Binding energies>  (5) 
[-8.48]

>  <Ligand effiencies>  (5) 
[-0.3854545454545455]

>  <Interactions>  (5) 
["V-A:LYS:471:CE:4218, V-B:VAL:458:CG2:9059, V-A:HIS:456:CB:4063, V-A:HIS:456:CD2:4066, V-B:LYS:471:CD:9191, H-A:GLY:544:O:4911, V-A:VAL:458:CG2:4085, V-A:HIS:456:CG:4064, V-A:HIS:456:C:4059, V-A:VAL:457:C:4071, V-B:LYS:471:CE:9192, V-B:HIS:456:C:9033, V-B:HIS:456:CD2:9040, V-A:LYS:547:CE:4948, V-B:LYS:471:CG:9190, H-A:LYS:547:NZ:4949, V-B:HIS:456:CG:9038, V-B:HIS:456:CB:9037, V-A:HIS:456:CA:4061, H-B:LYS:547:NZ:9923, V-A:VAL:457:CA:4073, V-B:ASP:473:CG:9212, V-A:GLY:544:C:4910, V-A:GLY:544:CA:4912"]

$$$$
1e_Grossjean_2025
     RDKit          3D

 22 23  0  0  0  0  0  0  0  0999 V2000
  126.0250  131.7540   75.5670 C   0  0  0  0  0  0  0  0  0  0  0  0
  125.6220  130.3540   75.1450 C   0  0  0  0  0  0  0  0  0  0  0  0
  124.3320  129.8650   75.3710 C   0  0  0  0  0  0  0  0  0  0  0  0
  124.0340  128.5660   74.9580 C   0  0  0  0  0  0  0  0  0  0  0  0
  125.0200  127.7940   74.3390 C   0  0  0  0  0  0  0  0  0  0  0  0
  126.2900  128.3470   74.1390 C   0  0  0  0  0  0  0  0  0  0  0  0
  127.2440  127.5190   73.5210 N   0  0  0  0  0  0  0  0  0  0  0  0
  128.3870  127.8750   72.8950 C   0  0  0  0  0  0  0  0  0  0  0  0
  128.7830  129.0330   72.7520 O   0  0  0  0  0  0  0  0  0  0  0  0
  129.2090  126.7260   72.3070 C   0  0  0  0  0  0  0  0  0  0  0  0
  130.9710  126.8630   72.7330 S   0  0  0  0  0  0  0  0  0  0  0  0
  131.4920  125.3430   73.5030 C   0  0  0  0  0  0  0  0  0  0  0  0
  130.5820  124.3420   73.3900 N   0  0  0  0  0  0  0  0  0  0  0  0
  130.8650  123.1380   73.9400 C   0  0  0  0  0  0  0  0  0  0  0  0
  129.8060  122.0670   73.7660 C   0  0  0  0  0  0  0  0  0  0  0  0
  132.0500  122.8870   74.6290 C   0  0  0  0  0  0  0  0  0  0  0  0
  132.9840  123.9180   74.7730 C   0  0  0  0  0  0  0  0  0  0  0  0
  134.2670  123.6210   75.5480 C   0  0  0  0  0  0  0  0  0  0  0  0
  132.7080  125.1850   74.2100 C   0  0  0  0  0  0  0  0  0  0  0  0
  133.6490  126.2910   74.4020 C   0  0  0  0  0  0  0  0  0  0  0  0
  134.3940  127.1640   74.5550 N   0  0  0  0  0  0  0  0  0  0  0  0
  126.5900  129.6170   74.5440 N   0  0  0  0  0  0  0  0  0  0  0  0
  1  2  1  0
  2  3  2  0
  3  4  1  0
  4  5  2  0
  5  6  1  0
  6  7  1  0
  7  8  1  0
  8  9  2  0
  8 10  1  0
 10 11  1  0
 11 12  1  0
 12 13  2  0
 13 14  1  0
 14 15  1  0
 14 16  2  0
 16 17  1  0
 17 18  1  0
 17 19  2  0
 19 20  1  0
 20 21  3  0
  6 22  2  0
 22  2  1  0
 19 12  1  0
M  END
>  <Binding energies>  (6) 
[-7.89]

>  <Ligand effiencies>  (6) 
[-0.34304347826086956]

>  <Interactions>  (6) 
["V-A:LYS:471:CE:4218, H-B:GLY:544:O:9885, V-B:HIS:456:CA:9035, V-B:VAL:458:CG2:9059, V-B:VAL:457:C:9045, V-A:HIS:456:CB:4063, V-A:HIS:456:CD2:4066, V-B:LYS:471:CD:9191, V-B:GLY:544:C:9884, V-A:VAL:458:CG2:4085, V-A:HIS:456:CG:4064, V-A:HIS:456:C:4059, V-B:LYS:471:CE:9192, V-A:LYS:471:CG:4216, V-B:HIS:456:C:9033, V-B:LYS:471:CG:9190, V-B:VAL:457:CA:9047, H-A:LYS:547:NZ:4949, V-A:ASP:473:CG:4238, V-A:LYS:471:CD:4217, V-B:HIS:456:CB:9037, H-B:LYS:547:NZ:9923, V-B:ASP:473:CG:9212, V-B:LYS:547:CE:9922, V-B:LYS:547:CG:9920, V-B:LYS:547:CD:9921, V-A:LYS:547:CD:4947"]

$$$$
1f_Grossjean_2025
     RDKit          3D

 21 22  0  0  0  0  0  0  0  0999 V2000
  129.0500  132.5280   73.8510 C   0  0  0  0  0  0  0  0  0  0  0  0
  127.9770  131.4710   74.0380 C   0  0  0  0  0  0  0  0  0  0  0  0
  126.8580  131.7000   74.8340 C   0  0  0  0  0  0  0  0  0  0  0  0
  125.9080  130.6840   74.9790 C   0  0  0  0  0  0  0  0  0  0  0  0
  124.6980  130.9520   75.8720 C   0  0  0  0  0  0  0  0  0  0  0  0
  126.1020  129.4550   74.3080 C   0  0  0  0  0  0  0  0  0  0  0  0
  125.1470  128.3590   74.4920 C   0  0  0  0  0  0  0  0  0  0  0  0
  124.3910  127.4950   74.6380 N   0  0  0  0  0  0  0  0  0  0  0  0
  127.2540  129.3200   73.4970 C   0  0  0  0  0  0  0  0  0  0  0  0
  127.6650  127.8490   72.5790 S   0  0  0  0  0  0  0  0  0  0  0  0
  129.4720  127.8160   72.3240 C   0  0  0  0  0  0  0  0  0  0  0  0
  130.1750  126.5520   72.8410 C   0  0  0  0  0  0  0  0  0  0  0  0
  129.6310  125.4510   72.7450 O   0  0  0  0  0  0  0  0  0  0  0  0
  131.3810  126.7710   73.4070 N   0  0  0  0  0  0  0  0  0  0  0  0
  132.2890  125.8550   73.9710 C   0  0  0  0  0  0  0  0  0  0  0  0
  131.9660  124.5770   74.4620 C   0  0  0  0  0  0  0  0  0  0  0  0
  132.9720  123.7660   74.9940 C   0  0  0  0  0  0  0  0  0  0  0  0
  134.2790  124.2520   75.0190 C   0  0  0  0  0  0  0  0  0  0  0  0
  134.6180  125.4780   74.5470 N   0  0  0  0  0  0  0  0  0  0  0  0
  133.6290  126.2540   74.0330 C   0  0  0  0  0  0  0  0  0  0  0  0
  128.1810  130.3030   73.3840 N   0  0  0  0  0  0  0  0  0  0  0  0
  1  2  1  0
  2  3  2  0
  3  4  1  0
  4  5  1  0
  4  6  2  0
  6  7  1  0
  7  8  3  0
  6  9  1  0
  9 10  1  0
 10 11  1  0
 11 12  1  0
 12 13  2  0
 12 14  1  0
 14 15  1  0
 15 16  2  0
 16 17  1  0
 17 18  2  0
 18 19  1  0
 19 20  2  0
  9 21  2  0
 21  2  1  0
 20 15  1  0
M  END
>  <Binding energies>  (7) 
[-8.1]

>  <Ligand effiencies>  (7) 
[-0.36818181818181817]

>  <Interactions>  (7) 
["V-A:LYS:471:CE:4218, V-B:VAL:458:CG2:9059, V-A:HIS:456:CB:4063, V-B:LYS:471:CD:9191, H-A:GLY:544:O:4911, V-A:VAL:458:CG2:4085, V-A:HIS:456:CG:4064, H-A:VAL:458:N:4082, V-A:HIS:456:C:4059, V-A:VAL:457:C:4071, V-B:LYS:471:CE:9192, V-B:HIS:456:C:9033, V-B:HIS:456:CD2:9040, V-A:LYS:547:CE:4948, V-B:LYS:471:CG:9190, H-A:LYS:547:NZ:4949, V-B:HIS:456:CG:9038, V-B:HIS:456:CB:9037, V-A:HIS:456:CA:4061, H-B:LYS:547:NZ:9923, V-B:ASP:473:CG:9212, V-A:GLY:544:C:4910, V-B:LYS:547:CE:9922, H-A:VAL:457:N:4074"]

$$$$
1g_Grossjean_2025
     RDKit          3D

 22 23  0  0  0  0  0  0  0  0999 V2000
  128.7610  132.7990   59.9870 C   0  0  0  0  0  0  0  0  0  0  0  0
  128.1160  131.9920   58.8750 C   0  0  0  0  0  0  0  0  0  0  0  0
  127.0630  131.1150   59.1260 C   0  0  0  0  0  0  0  0  0  0  0  0
  126.5190  130.3850   58.0640 C   0  0  0  0  0  0  0  0  0  0  0  0
  125.3740  129.4190   58.3660 C   0  0  0  0  0  0  0  0  0  0  0  0
  127.0430  130.5610   56.7640 C   0  0  0  0  0  0  0  0  0  0  0  0
  126.5240  129.7690   55.6460 C   0  0  0  0  0  0  0  0  0  0  0  0
  126.1130  129.1410   54.7650 N   0  0  0  0  0  0  0  0  0  0  0  0
  128.0960  131.4910   56.5970 C   0  0  0  0  0  0  0  0  0  0  0  0
  128.8660  131.8420   55.0320 S   0  0  0  0  0  0  0  0  0  0  0  0
  130.5280  131.1070   55.0710 C   0  0  0  0  0  0  0  0  0  0  0  0
  131.4000  131.7200   56.1680 C   0  0  0  0  0  0  0  0  0  0  0  0
  131.1920  132.8730   56.5490 O   0  0  0  0  0  0  0  0  0  0  0  0
  132.3750  130.9370   56.6600 N   0  0  0  0  0  0  0  0  0  0  0  0
  133.2850  131.2970   57.7480 C   0  0  0  0  0  0  0  0  0  0  0  0
  132.6950  131.1200   59.1440 C   0  0  0  0  0  0  0  0  0  0  0  0
  131.3710  130.6930   59.2930 C   0  0  0  0  0  0  0  0  0  0  0  0
  130.8330  130.5310   60.5670 C   0  0  0  0  0  0  0  0  0  0  0  0
  131.6210  130.7910   61.6870 C   0  0  0  0  0  0  0  0  0  0  0  0
  132.9410  131.2120   61.5450 C   0  0  0  0  0  0  0  0  0  0  0  0
  133.4800  131.3760   60.2710 C   0  0  0  0  0  0  0  0  0  0  0  0
  128.6330  132.1780   57.6380 N   0  0  0  0  0  0  0  0  0  0  0  0
  1  2  1  0
  2  3  2  0
  3  4  1  0
  4  5  1  0
  4  6  2  0
  6  7  1  0
  7  8  3  0
  6  9  1  0
  9 10  1  0
 10 11  1  0
 11 12  1  0
 12 13  2  0
 12 14  1  0
 14 15  1  0
 15 16  1  0
 16 17  2  0
 17 18  1  0
 18 19  2  0
 19 20  1  0
 20 21  2  0
  9 22  2  0
 22  2  1  0
 21 16  1  0
M  END
>  <Binding energies>  (8) 
[-8.04]

>  <Ligand effiencies>  (8) 
[-0.3495652173913043]

>  <Interactions>  (8) 
["V-B:ASP:366:CG:8185, V-A:TYR:539:CE1:4873, V-A:PRO:540:N:4882, H-A:TYR:539:N:4868, V-A:TYR:539:CZ:4875, V-A:TYR:531:CE2:4791, V-A:LEU:363:CA:3183, H-A:TYR:531:OH:4793, V-A:TYR:539:C:4865, V-A:PRO:540:CA:4881, V-A:TYR:531:CZ:4792, V-A:GLU:543:CD:4906, V-A:PRO:540:CB:4883, H-B:TYR:531:OH:9767, V-A:ARG:545:CZ:4924, H-A:ASP:366:OD2:3213, V-A:ASN:362:CB:3174, V-A:TYR:539:CE2:4874, V-B:ASP:366:CB:8184, V-A:TYR:539:CD1:4871, V-A:ASN:362:C:3170, V-A:TYR:539:CD2:4872"]

$$$$
1h_Grossjean_2025
     RDKit          3D

 28 29  0  0  0  0  0  0  0  0999 V2000
  127.0450  130.2620   55.6880 C   0  0  0  0  0  0  0  0  0  0  0  0
  127.7700  131.2380   56.4290 O   0  0  0  0  0  0  0  0  0  0  0  0
  128.9250  130.8650   57.0920 C   0  0  0  0  0  0  0  0  0  0  0  0
  128.9750  129.8720   58.0830 C   0  0  0  0  0  0  0  0  0  0  0  0
  130.1760  129.5580   58.7200 C   0  0  0  0  0  0  0  0  0  0  0  0
  130.2200  128.4610   59.7790 C   0  0  0  0  0  0  0  0  0  0  0  0
  130.7260  127.1790   59.2870 N   0  0  0  0  0  0  0  0  0  0  0  0
  129.9930  126.0610   59.1350 C   0  0  0  0  0  0  0  0  0  0  0  0
  128.7880  125.9970   59.3730 O   0  0  0  0  0  0  0  0  0  0  0  0
  130.7390  124.8200   58.6440 C   0  0  0  0  0  0  0  0  0  0  0  0
  129.7480  123.3080   58.8420 S   0  0  0  0  0  0  0  0  0  0  0  0
  128.3340  123.4260   57.7590 C   0  0  0  0  0  0  0  0  0  0  0  0
  128.6080  123.4210   56.4280 N   0  0  0  0  0  0  0  0  0  0  0  0
  127.5820  123.5040   55.5500 C   0  0  0  0  0  0  0  0  0  0  0  0
  127.9670  123.4870   54.0830 C   0  0  0  0  0  0  0  0  0  0  0  0
  126.2520  123.5960   55.9550 C   0  0  0  0  0  0  0  0  0  0  0  0
  125.9560  123.6050   57.3220 C   0  0  0  0  0  0  0  0  0  0  0  0
  124.4920  123.7060   57.7430 C   0  0  0  0  0  0  0  0  0  0  0  0
  127.0130  123.5200   58.2560 C   0  0  0  0  0  0  0  0  0  0  0  0
  126.7340  123.5290   59.6950 C   0  0  0  0  0  0  0  0  0  0  0  0
  126.5120  123.5370   60.8310 N   0  0  0  0  0  0  0  0  0  0  0  0
  131.3480  130.2140   58.3430 C   0  0  0  0  0  0  0  0  0  0  0  0
  131.3290  131.2070   57.3510 C   0  0  0  0  0  0  0  0  0  0  0  0
  132.4500  131.8980   56.9290 O   0  0  0  0  0  0  0  0  0  0  0  0
  133.7240  131.2630   56.9790 C   0  0  0  0  0  0  0  0  0  0  0  0
  130.1090  131.5320   56.7410 C   0  0  0  0  0  0  0  0  0  0  0  0
  130.0760  132.4970   55.7640 O   0  0  0  0  0  0  0  0  0  0  0  0
  129.9360  131.9840   54.4470 C   0  0  0  0  0  0  0  0  0  0  0  0
  1  2  1  0
  2  3  1  0
  3  4  2  0
  4  5  1  0
  5  6  1  0
  6  7  1  0
  7  8  1  0
  8  9  2  0
  8 10  1  0
 10 11  1  0
 11 12  1  0
 12 13  2  0
 13 14  1  0
 14 15  1  0
 14 16  2  0
 16 17  1  0
 17 18  1  0
 17 19  2  0
 19 20  1  0
 20 21  3  0
  5 22  2  0
 22 23  1  0
 23 24  1  0
 24 25  1  0
 23 26  2  0
 26 27  1  0
 27 28  1  0
 26  3  1  0
 19 12  1  0
M  END
>  <Binding energies>  (9) 
[-7.0]

>  <Ligand effiencies>  (9) 
[-0.2413793103448276]

>  <Interactions>  (9) 
["V-B:PRO:540:N:9856, V-B:ILE:538:CA:9832, V-B:PRO:540:CB:9857, V-B:PRO:540:CA:9855, V-B:PRO:540:C:9853, H-B:ALA:541:N:9863, V-B:TYR:539:CE2:9848, V-B:TYR:539:CE1:9847, V-B:TYR:539:CD1:9845, V-B:TYR:539:CD2:9846, V-A:TYR:539:CE1:4873, V-A:ASP:366:CG:3211, H-A:TYR:539:N:4868, V-A:ILE:538:CA:4858, V-A:TYR:539:CZ:4875, V-A:TYR:531:CE2:4791, V-A:LEU:363:CA:3183, V-A:LEU:363:CD1:3187, V-A:ILE:538:CB:4860, V-A:PRO:540:CA:4881, V-A:ILE:538:CG2:4861, V-A:TYR:531:CZ:4792, V-A:PRO:540:CB:4883, V-B:TYR:539:C:9839, V-B:PRO:540:CD:9859, V-A:LEU:363:CB:3185, H-A:ASP:366:OD2:3213, V-A:ILE:538:C:4856, H-A:TYR:539:OH:4876, H-A:ASP:366:OD1:3212"]

$$$$
1i_Grossjean_2025
     RDKit          3D

 20 21  0  0  0  0  0  0  0  0999 V2000
  129.4790  122.3230   73.1290 C   0  0  0  0  0  0  0  0  0  0  0  0
  130.5100  123.3690   73.5090 C   0  0  0  0  0  0  0  0  0  0  0  0
  131.6580  123.0350   74.2240 C   0  0  0  0  0  0  0  0  0  0  0  0
  132.5800  124.0400   74.5380 C   0  0  0  0  0  0  0  0  0  0  0  0
  133.8390  123.6470   75.3080 C   0  0  0  0  0  0  0  0  0  0  0  0
  132.3210  125.3690   74.1280 C   0  0  0  0  0  0  0  0  0  0  0  0
  133.2960  126.4270   74.4010 C   0  0  0  0  0  0  0  0  0  0  0  0
  134.0690  127.2610   74.6170 N   0  0  0  0  0  0  0  0  0  0  0  0
  131.1170  125.6190   73.4270 C   0  0  0  0  0  0  0  0  0  0  0  0
  130.6320  127.2270   72.8380 S   0  0  0  0  0  0  0  0  0  0  0  0
  128.8720  127.1420   72.3930 C   0  0  0  0  0  0  0  0  0  0  0  0
  128.0570  128.2570   73.0510 C   0  0  0  0  0  0  0  0  0  0  0  0
  128.5040  129.4040   73.0640 O   0  0  0  0  0  0  0  0  0  0  0  0
  126.8720  127.8780   73.5790 N   0  0  0  0  0  0  0  0  0  0  0  0
  125.9480  128.6810   74.2320 C   0  0  0  0  0  0  0  0  0  0  0  0
  126.3040  129.8180   74.9550 C   0  0  0  0  0  0  0  0  0  0  0  0
  125.1180  130.3210   75.4380 C   0  0  0  0  0  0  0  0  0  0  0  0
  124.1000  129.5270   75.0290 O   0  0  0  0  0  0  0  0  0  0  0  0
  124.6390  128.4900   74.2660 N   0  0  0  0  0  0  0  0  0  0  0  0
  130.2400  124.6340   73.1100 N   0  0  0  0  0  0  0  0  0  0  0  0
  1  2  1  0
  2  3  2  0
  3  4  1  0
  4  5  1  0
  4  6  2  0
  6  7  1  0
  7  8  3  0
  6  9  1  0
  9 10  1  0
 10 11  1  0
 11 12  1  0
 12 13  2  0
 12 14  1  0
 14 15  1  0
 15 16  1  0
 16 17  2  0
 17 18  1  0
 18 19  1  0
  9 20  2  0
 20  2  1  0
 19 15  2  0
M  END
>  <Binding energies>  (10) 
[-7.67]

>  <Ligand effiencies>  (10) 
[-0.36523809523809525]

>  <Interactions>  (10) 
["V-A:LYS:471:CE:4218, H-B:GLY:544:O:9885, V-B:VAL:458:CG2:9059, V-A:HIS:456:CB:4063, V-A:HIS:456:CD2:4066, V-B:GLY:544:C:9884, V-A:VAL:458:CG2:4085, V-A:HIS:456:CG:4064, V-A:HIS:456:C:4059, V-A:LYS:471:CG:4216, V-B:HIS:456:C:9033, V-B:HIS:456:CD2:9040, H-A:LYS:547:NZ:4949, V-A:ASP:473:CG:4238, V-A:LYS:471:CD:4217, V-B:HIS:456:CG:9038, V-B:HIS:456:CB:9037, H-B:LYS:547:NZ:9923, V-B:LYS:547:CE:9922, V-A:LYS:547:CG:4946, V-B:LYS:547:CD:9921, V-A:LYS:547:CD:4947, H-B:VAL:457:N:9048"]

$$$$
1k_Grossjean_2025
     RDKit          3D

 25 25  0  0  0  0  0  0  0  0999 V2000
  128.4850  123.1320   57.1580 C   0  0  0  0  0  0  0  0  0  0  0  0
  127.9900  122.5110   55.9820 O   0  0  0  0  0  0  0  0  0  0  0  0
  127.6530  123.4330   54.9540 C   0  0  0  0  0  0  0  0  0  0  0  0
  126.1310  123.6290   54.9210 C   0  0  0  0  0  0  0  0  0  0  0  0
  125.5210  122.7500   55.8570 O   0  0  0  0  0  0  0  0  0  0  0  0
  124.2560  123.2020   56.3240 C   0  0  0  0  0  0  0  0  0  0  0  0
  124.4630  124.2910   57.3840 C   0  0  0  0  0  0  0  0  0  0  0  0
  125.8470  124.3950   57.6930 O   0  0  0  0  0  0  0  0  0  0  0  0
  126.1580  125.4700   58.5690 C   0  0  0  0  0  0  0  0  0  0  0  0
  126.3340  126.7650   57.7540 C   0  0  0  0  0  0  0  0  0  0  0  0
  126.5860  127.9530   58.5720 N   0  0  0  0  0  0  0  0  0  0  0  0
  127.4560  128.9320   58.2690 C   0  0  0  0  0  0  0  0  0  0  0  0
  128.1410  128.9300   57.2440 O   0  0  0  0  0  0  0  0  0  0  0  0
  127.5530  130.0730   59.2940 C   0  0  0  0  0  0  0  0  0  0  0  0
  127.8730  131.7330   58.6010 S   0  0  0  0  0  0  0  0  0  0  0  0
  129.3330  131.6690   57.5730 C   0  0  0  0  0  0  0  0  0  0  0  0
  129.1190  131.7370   56.2330 N   0  0  0  0  0  0  0  0  0  0  0  0
  130.1810  131.6840   55.3980 C   0  0  0  0  0  0  0  0  0  0  0  0
  129.8600  131.7560   53.9180 C   0  0  0  0  0  0  0  0  0  0  0  0
  131.4920  131.5710   55.8550 C   0  0  0  0  0  0  0  0  0  0  0  0
  131.7270  131.5070   57.2330 C   0  0  0  0  0  0  0  0  0  0  0  0
  133.1710  131.3830   57.7130 C   0  0  0  0  0  0  0  0  0  0  0  0
  130.6310  131.5570   58.1230 C   0  0  0  0  0  0  0  0  0  0  0  0
  130.8480  131.4890   59.5710 C   0  0  0  0  0  0  0  0  0  0  0  0
  131.0200  131.4340   60.7140 N   0  0  0  0  0  0  0  0  0  0  0  0
  1  2  1  0
  2  3  1  0
  3  4  1  0
  4  5  1  0
  5  6  1  0
  6  7  1  0
  7  8  1  0
  8  9  1  0
  9 10  1  0
 10 11  1  0
 11 12  1  0
 12 13  2  0
 12 14  1  0
 14 15  1  0
 15 16  1  0
 16 17  2  0
 17 18  1  0
 18 19  1  0
 18 20  2  0
 20 21  1  0
 21 22  1  0
 21 23  2  0
 23 24  1  0
 24 25  3  0
 23 16  1  0
M  END
>  <Binding energies>  (11) 
[-6.38]

>  <Ligand effiencies>  (11) 
[-0.24538461538461537]

>  <Interactions>  (11) 
["V-B:PRO:540:N:9856, V-B:TYR:539:CZ:9849, V-B:ILE:538:CA:9832, V-B:ASP:366:CG:8185, V-B:PRO:540:CB:9857, V-B:TYR:539:CE2:9848, V-B:TYR:539:CE1:9847, V-B:TYR:539:CD1:9845, V-B:TYR:539:CD2:9846, V-A:PRO:540:N:4882, V-A:ILE:538:CA:4858, V-A:LEU:363:CA:3183, V-A:TYR:539:C:4865, V-A:ILE:538:CB:4860, V-A:PRO:540:CA:4881, V-A:ILE:538:CG2:4861, V-A:PRO:540:CB:4883, V-B:TYR:531:CE2:9765, V-B:LEU:363:CD1:8161, V-B:TYR:531:CZ:9766, H-B:TYR:539:N:9842, H-B:TYR:531:OH:9767, V-B:TYR:539:C:9839, V-B:ILE:538:CG2:9835, H-B:ASP:366:OD2:8187, V-B:PRO:540:CD:9859, V-B:ILE:538:CB:9834, V-B:PRO:540:CG:9858, H-A:ALA:541:N:4889, V-A:MET:535:CG:4831, V-A:MET:535:CB:4830, V-B:TYR:539:CG:9844, H-B:ASP:366:OD1:8186"]

$$$$
1l_Grossjean_2025
     RDKit          3D

 17 17  0  0  0  0  0  0  0  0999 V2000
  133.6300  126.4790   74.1530 C   0  0  0  0  0  0  0  0  0  0  0  0
  132.3620  125.8860   73.9080 O   0  0  0  0  0  0  0  0  0  0  0  0
  131.4330  126.8710   73.5760 N   0  0  0  0  0  0  0  0  0  0  0  0
  130.2720  126.5050   72.9980 C   0  0  0  0  0  0  0  0  0  0  0  0
  129.8720  125.3390   72.9450 O   0  0  0  0  0  0  0  0  0  0  0  0
  129.4470  127.6580   72.4080 C   0  0  0  0  0  0  0  0  0  0  0  0
  127.6700  127.6250   72.8210 S   0  0  0  0  0  0  0  0  0  0  0  0
  127.2550  129.1700   73.6120 C   0  0  0  0  0  0  0  0  0  0  0  0
  128.1270  130.1910   73.4060 N   0  0  0  0  0  0  0  0  0  0  0  0
  127.8730  131.3920   73.9780 C   0  0  0  0  0  0  0  0  0  0  0  0
  128.8920  132.4820   73.7010 C   0  0  0  0  0  0  0  0  0  0  0  0
  126.7520  131.6260   74.7700 C   0  0  0  0  0  0  0  0  0  0  0  0
  125.8460  130.5830   74.9880 C   0  0  0  0  0  0  0  0  0  0  0  0
  124.6220  130.8620   75.8600 C   0  0  0  0  0  0  0  0  0  0  0  0
  126.0910  129.3220   74.4020 C   0  0  0  0  0  0  0  0  0  0  0  0
  125.1580  128.2100   74.6140 C   0  0  0  0  0  0  0  0  0  0  0  0
  124.4220  127.3350   74.7830 N   0  0  0  0  0  0  0  0  0  0  0  0
  1  2  1  0
  2  3  1  0
  3  4  1  0
  4  5  2  0
  4  6  1  0
  6  7  1  0
  7  8  1  0
  8  9  2  0
  9 10  1  0
 10 11  1  0
 10 12  2  0
 12 13  1  0
 13 14  1  0
 13 15  2  0
 15 16  1  0
 16 17  3  0
 15  8  1  0
M  END
>  <Binding energies>  (12) 
[-6.82]

>  <Ligand effiencies>  (12) 
[-0.3788888888888889]

>  <Interactions>  (12) 
["V-B:VAL:458:CG2:9059, V-A:HIS:456:CB:4063, V-B:LYS:471:CD:9191, H-A:GLY:544:O:4911, V-A:VAL:458:CG2:4085, V-B:LYS:471:CE:9192, V-B:HIS:456:C:9033, V-B:HIS:456:CD2:9040, V-A:LYS:547:CE:4948, V-B:LYS:471:CG:9190, H-A:LYS:547:NZ:4949, V-B:HIS:456:CG:9038, V-B:HIS:456:CB:9037, H-B:LYS:547:NZ:9923, V-B:ASP:473:CG:9212, V-A:GLY:544:C:4910, V-B:LYS:547:CE:9922, V-A:LYS:547:CG:4946, V-B:LYS:547:CG:9920, V-B:LYS:547:CD:9921, V-A:LYS:547:CD:4947"]

$$$$
1m_Grossjean_2025
     RDKit          3D

 20 20  0  0  0  0  0  0  0  0999 V2000
  130.6780  125.7430   64.8780 C   0  0  0  0  0  0  0  0  0  0  0  0
  131.1580  125.2020   63.6550 O   0  0  0  0  0  0  0  0  0  0  0  0
  132.0240  124.1680   63.6550 C   0  0  0  0  0  0  0  0  0  0  0  0
  133.2480  124.2570   63.7980 O   0  0  0  0  0  0  0  0  0  0  0  0
  131.2970  122.8210   63.4630 C   0  0  0  0  0  0  0  0  0  0  0  0
  130.2240  122.8910   62.4600 N   0  0  0  0  0  0  0  0  0  0  0  0
  130.1150  122.1070   61.3710 C   0  0  0  0  0  0  0  0  0  0  0  0
  130.9380  121.2350   61.0860 O   0  0  0  0  0  0  0  0  0  0  0  0
  128.8910  122.3730   60.4850 C   0  0  0  0  0  0  0  0  0  0  0  0
  129.2310  123.3670   58.9920 S   0  0  0  0  0  0  0  0  0  0  0  0
  127.7230  123.4870   58.0540 C   0  0  0  0  0  0  0  0  0  0  0  0
  127.9130  123.4430   56.7110 N   0  0  0  0  0  0  0  0  0  0  0  0
  126.8350  123.5190   55.8970 C   0  0  0  0  0  0  0  0  0  0  0  0
  127.1250  123.4440   54.4100 C   0  0  0  0  0  0  0  0  0  0  0  0
  125.5360  123.6540   56.3810 C   0  0  0  0  0  0  0  0  0  0  0  0
  125.3290  123.7270   57.7630 C   0  0  0  0  0  0  0  0  0  0  0  0
  123.8980  123.8910   58.2700 C   0  0  0  0  0  0  0  0  0  0  0  0
  126.4410  123.6500   58.6330 C   0  0  0  0  0  0  0  0  0  0  0  0
  126.2520  123.7750   60.0810 C   0  0  0  0  0  0  0  0  0  0  0  0
  126.1030  123.8730   61.2230 N   0  0  0  0  0  0  0  0  0  0  0  0
  1  2  1  0
  2  3  1  0
  3  4  2  0
  3  5  1  0
  5  6  1  0
  6  7  1  0
  7  8  2  0
  7  9  1  0
  9 10  1  0
 10 11  1  0
 11 12  2  0
 12 13  1  0
 13 14  1  0
 13 15  2  0
 15 16  1  0
 16 17  1  0
 16 18  2  0
 18 19  1  0
 19 20  3  0
 18 11  1  0
M  END
>  <Binding energies>  (13) 
[-6.66]

>  <Ligand effiencies>  (13) 
[-0.31714285714285717]

>  <Interactions>  (13) 
["V-B:PRO:540:N:9856, V-B:LEU:363:CA:8157, H-B:GLU:543:OE1:9881, V-B:ILE:538:CA:9832, V-B:ALA:541:CB:9864, V-B:PRO:540:CB:9857, V-B:PRO:540:CA:9855, V-B:PRO:540:C:9853, H-B:ALA:541:N:9863, V-A:LEU:475:CD2:4257, V-B:GLU:543:CD:9880, V-B:TYR:539:C:9839, V-B:ILE:538:CG2:9835, V-B:PRO:540:CD:9859, V-B:ILE:538:CB:9834, H-A:TYR:484:OH:4346, H-A:GLY:454:N:4048, V-A:TYR:484:CZ:4345"]

$$$$
1n_Grossjean_2025
     RDKit          3D

 27 28  0  0  0  0  0  0  0  0999 V2000
  124.0340  123.5470   57.0150 C   0  0  0  0  0  0  0  0  0  0  0  0
  124.9570  123.3490   55.8070 C   0  0  0  0  0  0  0  0  0  0  0  0
  126.1250  122.6490   56.2150 O   0  0  0  0  0  0  0  0  0  0  0  0
  127.1230  123.2800   56.8860 C   0  0  0  0  0  0  0  0  0  0  0  0
  127.7980  122.7400   57.7670 O   0  0  0  0  0  0  0  0  0  0  0  0
  127.3330  124.6990   56.4400 C   0  0  0  0  0  0  0  0  0  0  0  0
  126.9440  125.7910   57.2300 C   0  0  0  0  0  0  0  0  0  0  0  0
  127.1500  127.0930   56.7860 C   0  0  0  0  0  0  0  0  0  0  0  0
  127.7390  127.3330   55.5430 C   0  0  0  0  0  0  0  0  0  0  0  0
  127.8950  128.6870   55.1910 N   0  0  0  0  0  0  0  0  0  0  0  0
  126.9600  129.6130   54.8850 C   0  0  0  0  0  0  0  0  0  0  0  0
  125.7440  129.4220   54.8700 O   0  0  0  0  0  0  0  0  0  0  0  0
  127.4970  131.0080   54.5390 C   0  0  0  0  0  0  0  0  0  0  0  0
  128.9360  130.9810   53.9800 C   0  0  0  0  0  0  0  0  0  0  0  0
  130.0740  132.1600   54.7680 S   0  0  0  0  0  0  0  0  0  0  0  0
  130.0600  131.8340   56.5180 C   0  0  0  0  0  0  0  0  0  0  0  0
  128.8160  131.8320   57.0600 N   0  0  0  0  0  0  0  0  0  0  0  0
  128.6840  131.5780   58.3830 C   0  0  0  0  0  0  0  0  0  0  0  0
  127.2640  131.5810   58.9160 C   0  0  0  0  0  0  0  0  0  0  0  0
  129.7730  131.3260   59.2140 C   0  0  0  0  0  0  0  0  0  0  0  0
  131.0620  131.3470   58.6680 C   0  0  0  0  0  0  0  0  0  0  0  0
  132.2420  131.0810   59.6000 C   0  0  0  0  0  0  0  0  0  0  0  0
  131.2250  131.6140   57.2900 C   0  0  0  0  0  0  0  0  0  0  0  0
  132.5670  131.6920   56.7090 C   0  0  0  0  0  0  0  0  0  0  0  0
  133.6280  131.7540   56.2520 N   0  0  0  0  0  0  0  0  0  0  0  0
  128.1390  126.2460   54.7520 C   0  0  0  0  0  0  0  0  0  0  0  0
  127.9360  124.9440   55.2000 C   0  0  0  0  0  0  0  0  0  0  0  0
  1  2  1  0
  2  3  1  0
  3  4  1  0
  4  5  2  0
  4  6  1  0
  6  7  2  0
  7  8  1  0
  8  9  2  0
  9 10  1  0
 10 11  1  0
 11 12  2  0
 11 13  1  0
 13 14  1  0
 14 15  1  0
 15 16  1  0
 16 17  2  0
 17 18  1  0
 18 19  1  0
 18 20  2  0
 20 21  1  0
 21 22  1  0
 21 23  2  0
 23 24  1  0
 24 25  3  0
  9 26  1  0
 26 27  2  0
 27  6  1  0
 23 16  1  0
M  END
>  <Binding energies>  (14) 
[-8.63]

>  <Ligand effiencies>  (14) 
[-0.3082142857142857]

>  <Interactions>  (14) 
["V-B:PRO:540:N:9856, V-B:ILE:538:CA:9832, V-B:PRO:540:CB:9857, V-B:PRO:540:CA:9855, V-A:TYR:539:CE1:4873, V-A:PRO:540:N:4882, H-A:TYR:539:N:4868, H-A:MET:535:SD:4832, V-A:TYR:539:CZ:4875, V-A:TYR:531:CE2:4791, H-A:TYR:531:OH:4793, V-A:TYR:539:C:4865, V-A:PRO:540:CA:4881, V-A:PRO:540:CB:4883, V-B:TYR:531:CE2:9765, V-B:LEU:363:CD1:8161, H-B:TYR:539:N:9842, H-B:TYR:531:OH:9767, V-B:TYR:539:C:9839, V-B:ILE:538:CG2:9835, V-B:PRO:540:CD:9859, V-B:ILE:538:CB:9834, V-B:PRO:540:CG:9858, V-A:MET:535:CG:4831, V-A:PRO:540:CD:4885, V-A:TYR:539:CE2:4874, H-A:TYR:539:OH:4876, V-A:TYR:539:CD2:4872"]

$$$$
1q_Grossjean_2025
     RDKit          3D

 21 21  0  0  0  0  0  0  0  0999 V2000
  131.0100  125.0050   64.4580 C   0  0  0  0  0  0  0  0  0  0  0  0
  131.4750  124.1730   63.4050 O   0  0  0  0  0  0  0  0  0  0  0  0
  132.8000  124.0840   63.1330 C   0  0  0  0  0  0  0  0  0  0  0  0
  133.6850  124.7710   63.6470 O   0  0  0  0  0  0  0  0  0  0  0  0
  133.1520  123.0350   62.0570 C   0  0  0  0  0  0  0  0  0  0  0  0
  131.9780  122.2900   61.5760 N   0  0  0  0  0  0  0  0  0  0  0  0
  132.0010  121.2410   60.7310 C   0  0  0  0  0  0  0  0  0  0  0  0
  133.0410  120.7780   60.2600 O   0  0  0  0  0  0  0  0  0  0  0  0
  130.6370  120.6240   60.3890 C   0  0  0  0  0  0  0  0  0  0  0  0
  129.4710  121.6320   60.3730 C   0  0  0  0  0  0  0  0  0  0  0  0
  129.7510  123.0510   59.2720 S   0  0  0  0  0  0  0  0  0  0  0  0
  128.3180  123.2520   58.2320 C   0  0  0  0  0  0  0  0  0  0  0  0
  128.5920  123.1300   56.9080 N   0  0  0  0  0  0  0  0  0  0  0  0
  127.5830  123.2660   56.0170 C   0  0  0  0  0  0  0  0  0  0  0  0
  127.9700  123.1330   54.5560 C   0  0  0  0  0  0  0  0  0  0  0  0
  126.2680  123.5160   56.4040 C   0  0  0  0  0  0  0  0  0  0  0  0
  125.9690  123.6180   57.7660 C   0  0  0  0  0  0  0  0  0  0  0  0
  124.5160  123.8750   58.1650 C   0  0  0  0  0  0  0  0  0  0  0  0
  127.0060  123.4780   58.7150 C   0  0  0  0  0  0  0  0  0  0  0  0
  126.7020  123.5250   60.1470 C   0  0  0  0  0  0  0  0  0  0  0  0
  126.4570  123.5630   61.2780 N   0  0  0  0  0  0  0  0  0  0  0  0
  1  2  1  0
  2  3  1  0
  3  4  2  0
  3  5  1  0
  5  6  1  0
  6  7  1  0
  7  8  2  0
  7  9  1  0
  9 10  1  0
 10 11  1  0
 11 12  1  0
 12 13  2  0
 13 14  1  0
 14 15  1  0
 14 16  2  0
 16 17  1  0
 17 18  1  0
 17 19  2  0
 19 20  1  0
 20 21  3  0
 19 12  1  0
M  END
>  <Binding energies>  (15) 
[-6.45]

>  <Ligand effiencies>  (15) 
[-0.2931818181818182]

>  <Interactions>  (15) 
["V-B:PRO:540:N:9856, V-A:TRP:381:CH2:3370, V-B:ILE:538:CA:9832, V-B:ALA:541:CB:9864, V-B:PRO:540:CB:9857, V-B:PRO:540:CA:9855, V-B:PRO:540:C:9853, H-B:ALA:541:N:9863, V-B:TYR:539:CE2:9848, V-A:LEU:475:CD2:4257, V-B:TYR:539:CE1:9847, V-B:TYR:539:CD1:9845, V-B:TYR:539:CD2:9846, V-B:GLU:543:CD:9880, V-B:TYR:539:C:9839, V-A:GLY:454:CA:4047, H-A:TYR:484:OH:4346, H-A:ARG:545:NE:4922, H-A:GLY:454:N:4048, H-A:ARG:545:NH1:4925, V-B:ILE:538:C:9830"]

$$$$
2a_Grossjean_2025
     RDKit          3D

 29 30  0  0  0  0  0  0  0  0999 V2000
  123.8770  123.2030   56.6060 C   0  0  0  0  0  0  0  0  0  0  0  0
  124.9640  123.5960   55.6010 C   0  0  0  0  0  0  0  0  0  0  0  0
  126.0680  122.7070   55.7320 O   0  0  0  0  0  0  0  0  0  0  0  0
  127.2510  123.1320   56.2450 C   0  0  0  0  0  0  0  0  0  0  0  0
  127.9910  122.4200   56.9310 O   0  0  0  0  0  0  0  0  0  0  0  0
  127.5820  124.5490   55.8730 C   0  0  0  0  0  0  0  0  0  0  0  0
  127.1500  125.6380   56.6450 C   0  0  0  0  0  0  0  0  0  0  0  0
  127.4720  126.9400   56.2720 C   0  0  0  0  0  0  0  0  0  0  0  0
  128.2230  127.1820   55.1210 C   0  0  0  0  0  0  0  0  0  0  0  0
  128.4770  128.5350   54.8340 N   0  0  0  0  0  0  0  0  0  0  0  0
  127.6310  129.5870   54.7930 C   0  0  0  0  0  0  0  0  0  0  0  0
  126.4160  129.5360   54.9860 O   0  0  0  0  0  0  0  0  0  0  0  0
  128.2750  130.9400   54.4710 C   0  0  0  0  0  0  0  0  0  0  0  0
  128.3820  132.0500   55.9150 S   0  0  0  0  0  0  0  0  0  0  0  0
  129.9790  131.8650   56.7010 C   0  0  0  0  0  0  0  0  0  0  0  0
  131.0550  132.1260   55.9160 N   0  0  0  0  0  0  0  0  0  0  0  0
  132.2940  131.9940   56.4420 C   0  0  0  0  0  0  0  0  0  0  0  0
  133.4470  132.2760   55.4960 C   0  0  0  0  0  0  0  0  0  0  0  0
  132.5130  131.6090   57.7610 C   0  0  0  0  0  0  0  0  0  0  0  0
  131.4150  131.3430   58.5930 C   0  0  0  0  0  0  0  0  0  0  0  0
  131.6740  130.9190   60.0510 C   0  0  0  0  0  0  0  0  0  0  0  0
  132.9750  131.0050   60.3290 F   0  0  0  0  0  0  0  0  0  0  0  0
  131.0000  131.7140   60.8840 F   0  0  0  0  0  0  0  0  0  0  0  0
  131.2930  129.6630   60.2990 F   0  0  0  0  0  0  0  0  0  0  0  0
  130.1100  131.4740   58.0540 C   0  0  0  0  0  0  0  0  0  0  0  0
  128.9270  131.2050   58.8780 C   0  0  0  0  0  0  0  0  0  0  0  0
  127.9930  130.9930   59.5280 N   0  0  0  0  0  0  0  0  0  0  0  0
  128.6650  126.0980   54.3490 C   0  0  0  0  0  0  0  0  0  0  0  0
  128.3460  124.7960   54.7250 C   0  0  0  0  0  0  0  0  0  0  0  0
  1  2  1  0
  2  3  1  0
  3  4  1  0
  4  5  2  0
  4  6  1  0
  6  7  2  0
  7  8  1  0
  8  9  2  0
  9 10  1  0
 10 11  1  0
 11 12  2  0
 11 13  1  0
 13 14  1  0
 14 15  1  0
 15 16  2  0
 16 17  1  0
 17 18  1  0
 17 19  2  0
 19 20  1  0
 20 21  1  0
 21 22  1  0
 21 23  1  0
 21 24  1  0
 20 25  2  0
 25 26  1  0
 26 27  3  0
  9 28  1  0
 28 29  2  0
 29  6  1  0
 25 15  1  0
M  END
>  <Binding energies>  (16) 
[-8.23]

>  <Ligand effiencies>  (16) 
[-0.2743333333333334]

>  <Interactions>  (16) 
["V-B:PRO:540:N:9856, V-B:PRO:540:CB:9857, V-A:TYR:539:CE1:4873, V-A:ASP:366:CG:3211, V-A:PRO:540:N:4882, H-A:TYR:539:N:4868, H-A:MET:535:SD:4832, V-A:TYR:531:CE2:4791, H-A:TYR:531:OH:4793, V-A:TYR:539:C:4865, V-A:LEU:363:CD1:3187, V-A:ILE:538:CB:4860, V-A:PRO:540:CA:4881, V-A:ILE:538:CG2:4861, V-A:TYR:531:CZ:4792, V-A:PRO:540:CB:4883, V-B:TYR:531:CE2:9765, V-B:LEU:363:CD1:8161, V-B:TYR:531:CZ:9766, H-B:TYR:539:N:9842, H-B:TYR:531:OH:9767, V-B:TYR:539:C:9839, V-B:ILE:538:CG2:9835, V-B:PRO:540:CD:9859, V-B:ILE:538:CB:9834, V-B:PRO:540:CG:9858, V-A:PRO:540:CD:4885, V-A:ASN:362:CB:3174, H-A:TYR:539:OH:4876, V-A:PRO:540:C:4879, V-A:ILE:538:CD1:4863"]

$$$$
2b_Grossjean_2025
     RDKit          3D

 28 29  0  0  0  0  0  0  0  0999 V2000
  124.7790  123.6830   55.8730 C   0  0  0  0  0  0  0  0  0  0  0  0
  125.7900  122.7570   56.2450 O   0  0  0  0  0  0  0  0  0  0  0  0
  127.0750  123.1580   56.4240 C   0  0  0  0  0  0  0  0  0  0  0  0
  128.0130  122.3750   56.6030 O   0  0  0  0  0  0  0  0  0  0  0  0
  127.2410  124.6500   56.3850 C   0  0  0  0  0  0  0  0  0  0  0  0
  126.9420  125.4580   57.4910 C   0  0  0  0  0  0  0  0  0  0  0  0
  127.1060  126.8390   57.4210 C   0  0  0  0  0  0  0  0  0  0  0  0
  127.5750  127.4380   56.2530 C   0  0  0  0  0  0  0  0  0  0  0  0
  127.6970  128.8410   56.2890 N   0  0  0  0  0  0  0  0  0  0  0  0
  127.3040  129.7160   57.2400 C   0  0  0  0  0  0  0  0  0  0  0  0
  126.7180  129.4200   58.2820 O   0  0  0  0  0  0  0  0  0  0  0  0
  127.6210  131.1850   56.9440 C   0  0  0  0  0  0  0  0  0  0  0  0
  128.2610  132.0860   58.3940 S   0  0  0  0  0  0  0  0  0  0  0  0
  129.9980  131.7260   58.6180 C   0  0  0  0  0  0  0  0  0  0  0  0
  130.3750  131.4010   59.8810 N   0  0  0  0  0  0  0  0  0  0  0  0
  131.6750  131.1220   60.1240 C   0  0  0  0  0  0  0  0  0  0  0  0
  132.0150  130.7800   61.5620 C   0  0  0  0  0  0  0  0  0  0  0  0
  132.6470  131.1460   59.1280 C   0  0  0  0  0  0  0  0  0  0  0  0
  132.2800  131.4720   57.8140 C   0  0  0  0  0  0  0  0  0  0  0  0
  133.3670  131.4890   56.7220 C   0  0  0  0  0  0  0  0  0  0  0  0
  132.8360  131.1560   55.5450 F   0  0  0  0  0  0  0  0  0  0  0  0
  133.9010  132.7080   56.6260 F   0  0  0  0  0  0  0  0  0  0  0  0
  134.3620  130.6340   56.9700 F   0  0  0  0  0  0  0  0  0  0  0  0
  130.9200  131.7740   57.5450 C   0  0  0  0  0  0  0  0  0  0  0  0
  130.4810  132.1270   56.1920 C   0  0  0  0  0  0  0  0  0  0  0  0
  130.1350  132.4060   55.1230 N   0  0  0  0  0  0  0  0  0  0  0  0
  127.8680  126.6380   55.1390 C   0  0  0  0  0  0  0  0  0  0  0  0
  127.7030  125.2570   55.2100 C   0  0  0  0  0  0  0  0  0  0  0  0
  1  2  1  0
  2  3  1  0
  3  4  2  0
  3  5  1  0
  5  6  2  0
  6  7  1  0
  7  8  2  0
  8  9  1  0
  9 10  1  0
 10 11  2  0
 10 12  1  0
 12 13  1  0
 13 14  1  0
 14 15  2  0
 15 16  1  0
 16 17  1  0
 16 18  2  0
 18 19  1  0
 19 20  1  0
 20 21  1  0
 20 22  1  0
 20 23  1  0
 19 24  2  0
 24 25  1  0
 25 26  3  0
  8 27  1  0
 27 28  2  0
 28  5  1  0
 24 14  1  0
M  END
>  <Binding energies>  (17) 
[-7.39]

>  <Ligand effiencies>  (17) 
[-0.25482758620689655]

>  <Interactions>  (17) 
["V-B:PRO:540:N:9856, V-A:TYR:539:CE1:4873, V-A:ASP:366:CG:3211, V-A:PRO:540:N:4882, H-A:TYR:539:N:4868, V-A:TYR:539:CZ:4875, V-A:TYR:531:CE2:4791, V-A:LEU:363:CA:3183, V-A:ASP:366:CB:3210, V-A:TYR:539:C:4865, V-A:LEU:363:CD1:3187, V-A:PRO:540:CA:4881, V-A:ILE:538:CG2:4861, V-A:TYR:531:CZ:4792, V-A:GLU:543:CD:4906, V-A:PRO:540:CB:4883, V-B:TYR:531:CE2:9765, V-B:TYR:531:CZ:9766, H-B:TYR:539:N:9842, V-B:TYR:539:C:9839, V-B:ILE:538:CG2:9835, V-B:ILE:538:CB:9834, V-A:ARG:545:CZ:4924, V-A:LEU:363:CB:3185, V-A:PRO:540:CD:4885, V-A:TYR:539:CE2:4874, V-A:TYR:539:CD2:4872, V-A:LEU:363:C:3181, V-A:PRO:540:CG:4884, V-A:LEU:363:CG:3186"]

$$$$
2c_Grossjean_2025
     RDKit          3D

 26 27  0  0  0  0  0  0  0  0999 V2000
  125.3440  122.7560   56.3530 C   0  0  0  0  0  0  0  0  0  0  0  0
  126.7410  122.9260   56.1310 O   0  0  0  0  0  0  0  0  0  0  0  0
  127.2180  124.1690   55.7640 C   0  0  0  0  0  0  0  0  0  0  0  0
  126.8500  125.2420   56.5750 C   0  0  0  0  0  0  0  0  0  0  0  0
  127.2810  126.5340   56.2850 C   0  0  0  0  0  0  0  0  0  0  0  0
  128.0850  126.7670   55.1590 C   0  0  0  0  0  0  0  0  0  0  0  0
  128.5830  128.0320   54.7960 N   0  0  0  0  0  0  0  0  0  0  0  0
  127.9510  129.2240   54.8180 C   0  0  0  0  0  0  0  0  0  0  0  0
  126.7670  129.3850   55.1240 O   0  0  0  0  0  0  0  0  0  0  0  0
  128.8110  130.4210   54.3840 C   0  0  0  0  0  0  0  0  0  0  0  0
  128.7790  131.8600   55.5090 S   0  0  0  0  0  0  0  0  0  0  0  0
  130.0390  131.6620   56.7630 C   0  0  0  0  0  0  0  0  0  0  0  0
  131.3210  131.6600   56.3140 N   0  0  0  0  0  0  0  0  0  0  0  0
  132.3240  131.5050   57.2040 C   0  0  0  0  0  0  0  0  0  0  0  0
  133.7250  131.4970   56.6230 C   0  0  0  0  0  0  0  0  0  0  0  0
  132.1000  131.3560   58.5710 C   0  0  0  0  0  0  0  0  0  0  0  0
  130.7850  131.3620   59.0590 C   0  0  0  0  0  0  0  0  0  0  0  0
  130.5530  131.1980   60.5730 C   0  0  0  0  0  0  0  0  0  0  0  0
  129.9620  130.0280   60.8200 F   0  0  0  0  0  0  0  0  0  0  0  0
  131.7170  131.2400   61.2220 F   0  0  0  0  0  0  0  0  0  0  0  0
  129.7750  132.1560   61.0820 F   0  0  0  0  0  0  0  0  0  0  0  0
  129.7210  131.5190   58.1340 C   0  0  0  0  0  0  0  0  0  0  0  0
  128.3260  131.5300   58.5880 C   0  0  0  0  0  0  0  0  0  0  0  0
  127.2260  131.5400   58.9460 N   0  0  0  0  0  0  0  0  0  0  0  0
  128.4690  125.6940   54.3530 C   0  0  0  0  0  0  0  0  0  0  0  0
  128.0370  124.4040   54.6480 C   0  0  0  0  0  0  0  0  0  0  0  0
  1  2  1  0
  2  3  1  0
  3  4  2  0
  4  5  1  0
  5  6  2  0
  6  7  1  0
  7  8  1  0
  8  9  2  0
  8 10  1  0
 10 11  1  0
 11 12  1  0
 12 13  2  0
 13 14  1  0
 14 15  1  0
 14 16  2  0
 16 17  1  0
 17 18  1  0
 18 19  1  0
 18 20  1  0
 18 21  1  0
 17 22  2  0
 22 23  1  0
 23 24  3  0
  6 25  1  0
 25 26  2  0
 26  3  1  0
 22 12  1  0
M  END
>  <Binding energies>  (18) 
[-6.88]

>  <Ligand effiencies>  (18) 
[-0.2548148148148148]

>  <Interactions>  (18) 
["V-B:PRO:540:N:9856, V-B:ILE:538:CA:9832, V-B:PRO:540:CB:9857, V-B:PRO:540:CA:9855, V-A:PRO:540:N:4882, H-A:MET:535:SD:4832, V-A:TYR:531:CE2:4791, V-A:LEU:363:CA:3183, H-A:TYR:531:OH:4793, V-A:TYR:539:C:4865, V-A:LEU:363:CD1:3187, V-A:PRO:540:CA:4881, V-A:TYR:531:CZ:4792, V-A:PRO:540:CB:4883, H-B:TYR:539:N:9842, H-B:TYR:531:OH:9767, V-B:TYR:539:C:9839, V-B:PRO:540:CD:9859, V-B:ILE:538:CB:9834, V-A:LEU:363:CB:3185, V-A:PRO:540:CD:4885, V-A:TYR:539:CE2:4874, V-A:ALA:541:CB:4890, V-A:PRO:540:C:4879, V-A:TYR:539:CD2:4872, V-A:ALA:541:CA:4888"]

$$$$
2d_Ghoteimi_2023
     RDKit          3D

 38 42  0  0  0  0  0  0  0  0999 V2000
  131.5280  120.9350   60.4240 C   0  0  0  0  0  0  0  0  0  0  0  0
  132.2990  122.0840   60.7420 O   0  0  0  0  0  0  0  0  0  0  0  0
  133.6470  122.0250   60.7510 C   0  0  0  0  0  0  0  0  0  0  0  0
  134.3180  121.0040   60.9270 O   0  0  0  0  0  0  0  0  0  0  0  0
  134.2670  123.4080   60.5020 C   0  0  0  0  0  0  0  0  0  0  0  0
  134.5230  124.3090   62.0690 S   0  0  0  0  0  0  0  0  0  0  0  0
  132.9300  124.7790   62.7110 C   0  0  0  0  0  0  0  0  0  0  0  0
  131.9280  124.6430   61.8090 N   0  0  0  0  0  0  0  0  0  0  0  0
  130.6590  124.9720   62.1600 C   0  0  0  0  0  0  0  0  0  0  0  0
  129.6100  124.8130   61.1060 C   0  0  0  0  0  0  0  0  0  0  0  0
  128.3550  125.4120   61.2550 C   0  0  0  0  0  0  0  0  0  0  0  0
  127.3730  125.2680   60.2780 C   0  0  0  0  0  0  0  0  0  0  0  0
  127.6160  124.5270   59.1110 C   0  0  0  0  0  0  0  0  0  0  0  0
  126.6350  124.3570   58.1270 N   0  0  0  0  0  0  0  0  0  0  0  0
  126.8880  123.5550   56.9150 C   0  0  0  0  0  0  0  0  0  0  0  0
  125.8530  123.7850   55.7940 C   0  0  0  0  0  0  0  0  0  0  0  0
  124.5440  123.5530   56.2890 O   0  0  0  0  0  0  0  0  0  0  0  0
  124.2280  124.4290   57.3580 C   0  0  0  0  0  0  0  0  0  0  0  0
  125.2180  124.2230   58.5240 C   0  0  0  0  0  0  0  0  0  0  0  0
  128.8710  123.9180   58.9730 C   0  0  0  0  0  0  0  0  0  0  0  0
  129.8510  124.0600   59.9500 C   0  0  0  0  0  0  0  0  0  0  0  0
  130.3660  125.4460   63.4410 C   0  0  0  0  0  0  0  0  0  0  0  0
  131.3760  125.5640   64.4030 C   0  0  0  0  0  0  0  0  0  0  0  0
  130.9850  126.0510   65.7600 C   0  0  0  0  0  0  0  0  0  0  0  0
  131.7180  127.0630   66.3810 C   0  0  0  0  0  0  0  0  0  0  0  0
  131.3540  127.5330   67.6400 C   0  0  0  0  0  0  0  0  0  0  0  0
  130.2450  126.9990   68.3160 C   0  0  0  0  0  0  0  0  0  0  0  0
  129.8540  127.4630   69.5750 N   0  0  0  0  0  0  0  0  0  0  0  0
  130.6250  127.1360   70.7890 C   0  0  0  0  0  0  0  0  0  0  0  0
  130.2610  128.0150   72.0050 C   0  0  0  0  0  0  0  0  0  0  0  0
  128.8650  127.9430   72.2550 O   0  0  0  0  0  0  0  0  0  0  0  0
  128.1090  128.3940   71.1430 C   0  0  0  0  0  0  0  0  0  0  0  0
  128.4170  127.5220   69.9060 C   0  0  0  0  0  0  0  0  0  0  0  0
  129.5040  125.9950   67.6760 C   0  0  0  0  0  0  0  0  0  0  0  0
  129.8680  125.5270   66.4170 C   0  0  0  0  0  0  0  0  0  0  0  0
  132.7010  125.2170   64.0360 C   0  0  0  0  0  0  0  0  0  0  0  0
  133.7900  125.3050   65.0130 C   0  0  0  0  0  0  0  0  0  0  0  0
  134.6470  125.3760   65.7880 N   0  0  0  0  0  0  0  0  0  0  0  0
  1  2  1  0
  2  3  1  0
  3  4  2  0
  3  5  1  0
  5  6  1  0
  6  7  1  0
  7  8  2  0
  8  9  1  0
  9 10  1  0
 10 11  2  0
 11 12  1  0
 12 13  2  0
 13 14  1  0
 14 15  1  0
 15 16  1  0
 16 17  1  0
 17 18  1  0
 18 19  1  0
 13 20  1  0
 20 21  2  0
  9 22  2  0
 22 23  1  0
 23 24  1  0
 24 25  2  0
 25 26  1  0
 26 27  2  0
 27 28  1  0
 28 29  1  0
 29 30  1  0
 30 31  1  0
 31 32  1  0
 32 33  1  0
 27 34  1  0
 34 35  2  0
 23 36  2  0
 36 37  1  0
 37 38  3  0
 36  7  1  0
 21 10  1  0
 35 24  1  0
 19 14  1  0
 33 28  1  0
M  END
>  <Binding energies>  (19) 
[-6.63]

>  <Ligand effiencies>  (19) 
[-0.1744736842105263]

>  <Interactions>  (19) 
["V-B:PRO:540:N:9856, V-A:TRP:381:CH2:3370, V-B:PRO:540:CB:9857, V-B:PRO:540:CA:9855, V-B:TYR:539:CE2:9848, V-A:LEU:475:CD2:4257, V-B:TYR:539:CD2:9846, V-A:GLU:543:CD:4906, V-B:TYR:531:CE2:9765, V-B:TYR:531:CZ:9766, V-B:GLU:543:CD:9880, H-B:TYR:531:OH:9767, V-B:TYR:539:C:9839, V-B:ILE:538:CB:9834, V-A:ARG:545:CZ:4924, V-A:ARG:545:CD:4921, H-A:TYR:484:OH:4346, H-A:ARG:545:NE:4922, H-A:GLY:454:N:4048, V-A:ILE:369:CG2:3235, V-A:ILE:369:CD1:3237, V-B:HIS:456:CE1:9042, V-A:HIS:456:CD2:4066, V-A:HIS:456:CG:4064, V-B:HIS:456:CD2:9040, V-A:LYS:547:CE:4948, V-B:HIS:456:CG:9038, V-A:HIS:456:CE1:4068, V-A:GLY:544:C:4910, V-B:GLU:543:CG:9879, V-B:GLU:543:C:9874, V-A:ARG:545:CG:4920, V-A:GLY:453:CA:4042, V-A:GLY:453:C:4040, V-A:GLU:543:CG:4905, V-B:GLU:543:CB:9878, V-A:GLY:544:CA:4912, V-A:GLU:543:C:4900, V-B:GLU:543:CA:9876, V-A:ILE:369:CG1:3236"]

$$$$
2d_Grossjean_2025
     RDKit          3D

 24 25  0  0  0  0  0  0  0  0999 V2000
  128.2310  122.7590   59.6410 C   0  0  0  0  0  0  0  0  0  0  0  0
  129.6380  123.0600   60.1220 C   0  0  0  0  0  0  0  0  0  0  0  0
  129.9820  122.9750   61.4690 C   0  0  0  0  0  0  0  0  0  0  0  0
  131.2980  123.2580   61.8640 C   0  0  0  0  0  0  0  0  0  0  0  0
  131.6620  123.1480   63.3580 C   0  0  0  0  0  0  0  0  0  0  0  0
  131.9280  124.3580   63.8520 F   0  0  0  0  0  0  0  0  0  0  0  0
  130.6450  122.6170   64.0390 F   0  0  0  0  0  0  0  0  0  0  0  0
  132.7330  122.3820   63.5740 F   0  0  0  0  0  0  0  0  0  0  0  0
  132.2380  123.6310   60.8710 C   0  0  0  0  0  0  0  0  0  0  0  0
  133.6360  123.8910   61.2250 C   0  0  0  0  0  0  0  0  0  0  0  0
  134.7400  124.0950   61.5060 N   0  0  0  0  0  0  0  0  0  0  0  0
  131.7930  123.7150   59.5300 C   0  0  0  0  0  0  0  0  0  0  0  0
  132.8310  124.1980   58.1640 S   0  0  0  0  0  0  0  0  0  0  0  0
  132.1960  125.7590   57.4680 C   0  0  0  0  0  0  0  0  0  0  0  0
  131.1870  125.5430   56.3360 C   0  0  0  0  0  0  0  0  0  0  0  0
  131.3570  126.1250   55.2640 O   0  0  0  0  0  0  0  0  0  0  0  0
  130.1490  124.7300   56.6260 N   0  0  0  0  0  0  0  0  0  0  0  0
  129.0740  124.3360   55.8070 C   0  0  0  0  0  0  0  0  0  0  0  0
  127.9250  123.9010   56.4720 C   0  0  0  0  0  0  0  0  0  0  0  0
  126.8100  123.4850   55.7490 C   0  0  0  0  0  0  0  0  0  0  0  0
  126.8490  123.4950   54.3570 C   0  0  0  0  0  0  0  0  0  0  0  0
  127.9930  123.9140   53.6830 C   0  0  0  0  0  0  0  0  0  0  0  0
  129.1080  124.3320   54.4020 C   0  0  0  0  0  0  0  0  0  0  0  0
  130.5220  123.4180   59.1640 N   0  0  0  0  0  0  0  0  0  0  0  0
  1  2  1  0
  2  3  2  0
  3  4  1  0
  4  5  1  0
  5  6  1  0
  5  7  1  0
  5  8  1  0
  4  9  2  0
  9 10  1  0
 10 11  3  0
  9 12  1  0
 12 13  1  0
 13 14  1  0
 14 15  1  0
 15 16  2  0
 15 17  1  0
 17 18  1  0
 18 19  2  0
 19 20  1  0
 20 21  2  0
 21 22  1  0
 22 23  2  0
 12 24  2  0
 24  2  1  0
 23 18  1  0
M  END
>  <Binding energies>  (20) 
[-6.36]

>  <Ligand effiencies>  (20) 
[-0.2544]

>  <Interactions>  (20) 
["V-B:PRO:540:N:9856, V-B:TYR:539:CZ:9849, V-B:ILE:538:CA:9832, V-B:ALA:541:CB:9864, V-B:PRO:540:CA:9855, V-B:TYR:539:CE2:9848, V-A:LEU:475:CD2:4257, V-B:TYR:539:CE1:9847, V-A:ASP:366:CG:3211, H-A:TYR:531:OH:4793, V-A:ASP:366:CB:3210, V-B:TYR:539:C:9839, V-B:ILE:538:CG2:9835, V-B:ILE:538:CB:9834, V-A:GLY:454:CA:4047, H-A:GLY:454:N:4048, H-B:TYR:539:OH:9850, V-A:ILE:369:CD1:3237, V-B:MET:535:CG:9805, V-B:MET:535:CB:9804, V-A:TYR:484:CZ:4345, V-B:GLU:543:CB:9878, V-A:TYR:484:CE1:4343"]

$$$$
2e_Grossjean_2025
     RDKit          3D

 25 26  0  0  0  0  0  0  0  0999 V2000
  132.8720  124.6580   63.8000 C   0  0  0  0  0  0  0  0  0  0  0  0
  132.9680  123.8650   62.5110 C   0  0  0  0  0  0  0  0  0  0  0  0
  133.2370  122.4940   62.5140 C   0  0  0  0  0  0  0  0  0  0  0  0
  133.3000  121.8270   61.2890 C   0  0  0  0  0  0  0  0  0  0  0  0
  133.0950  122.5390   60.1040 C   0  0  0  0  0  0  0  0  0  0  0  0
  132.8390  123.9130   60.1730 C   0  0  0  0  0  0  0  0  0  0  0  0
  132.5980  124.5710   58.9550 N   0  0  0  0  0  0  0  0  0  0  0  0
  133.2260  124.3920   57.7720 C   0  0  0  0  0  0  0  0  0  0  0  0
  134.0910  123.5420   57.5530 O   0  0  0  0  0  0  0  0  0  0  0  0
  132.8370  125.3670   56.6570 C   0  0  0  0  0  0  0  0  0  0  0  0
  131.3250  126.2990   57.0590 S   0  0  0  0  0  0  0  0  0  0  0  0
  130.0250  125.0870   57.1310 C   0  0  0  0  0  0  0  0  0  0  0  0
  129.9030  124.4580   58.3260 N   0  0  0  0  0  0  0  0  0  0  0  0
  128.9680  123.4890   58.4530 C   0  0  0  0  0  0  0  0  0  0  0  0
  128.8850  122.8290   59.8160 C   0  0  0  0  0  0  0  0  0  0  0  0
  128.1320  123.1080   57.4060 C   0  0  0  0  0  0  0  0  0  0  0  0
  128.2520  123.7420   56.1600 C   0  0  0  0  0  0  0  0  0  0  0  0
  127.3350  123.2950   55.0060 C   0  0  0  0  0  0  0  0  0  0  0  0
  127.9620  122.3980   54.2440 F   0  0  0  0  0  0  0  0  0  0  0  0
  126.2230  122.7450   55.4950 F   0  0  0  0  0  0  0  0  0  0  0  0
  126.9690  124.3070   54.2170 F   0  0  0  0  0  0  0  0  0  0  0  0
  129.2230  124.7630   56.0120 C   0  0  0  0  0  0  0  0  0  0  0  0
  129.4180  125.4430   54.7280 C   0  0  0  0  0  0  0  0  0  0  0  0
  129.5720  125.9790   53.7130 N   0  0  0  0  0  0  0  0  0  0  0  0
  132.7680  124.5700   61.3680 N   0  0  0  0  0  0  0  0  0  0  0  0
  1  2  1  0
  2  3  2  0
  3  4  1  0
  4  5  2  0
  5  6  1  0
  6  7  1  0
  7  8  1  0
  8  9  2  0
  8 10  1  0
 10 11  1  0
 11 12  1  0
 12 13  2  0
 13 14  1  0
 14 15  1  0
 14 16  2  0
 16 17  1  0
 17 18  1  0
 18 19  1  0
 18 20  1  0
 18 21  1  0
 17 22  2  0
 22 23  1  0
 23 24  3  0
  6 25  2  0
 25  2  1  0
 22 12  1  0
M  END
>  <Binding energies>  (21) 
[-6.53]

>  <Ligand effiencies>  (21) 
[-0.25115384615384617]

>  <Interactions>  (21) 
["V-B:PRO:540:N:9856, V-B:TYR:539:CZ:9849, V-B:ILE:538:CA:9832, V-B:TYR:539:CE2:9848, V-A:LEU:475:CD2:4257, V-B:TYR:539:CE1:9847, V-B:TYR:539:CD1:9845, V-B:TYR:539:CD2:9846, V-A:ASP:366:CG:3211, H-A:TYR:531:OH:4793, V-A:ASP:366:CB:3210, V-B:TYR:539:C:9839, V-B:ILE:538:CG2:9835, V-B:PRO:540:CD:9859, V-B:ILE:538:CB:9834, V-A:ARG:545:CZ:4924, V-A:GLY:454:CA:4047, V-B:TYR:539:CG:9844, H-B:TYR:539:OH:9850, H-A:ASP:366:OD1:3212, V-A:ILE:369:CG2:3235, V-A:ILE:369:CD1:3237, V-A:TYR:531:CE1:4790, V-A:ASP:366:CA:3208, V-B:TYR:539:CA:9841, V-B:ILE:538:C:9830, V-B:MET:535:CG:9805, V-B:MET:535:CB:9804, V-A:ASP:366:C:3206, V-B:VAL:537:C:9822"]

$$$$
2f_Grossjean_2025
     RDKit          3D

 24 25  0  0  0  0  0  0  0  0999 V2000
  129.2050  132.4340   73.4630 C   0  0  0  0  0  0  0  0  0  0  0  0
  128.1720  131.3600   73.7470 C   0  0  0  0  0  0  0  0  0  0  0  0
  127.0970  131.5890   74.6010 C   0  0  0  0  0  0  0  0  0  0  0  0
  126.1720  130.5610   74.8380 C   0  0  0  0  0  0  0  0  0  0  0  0
  124.9960  130.8300   75.7960 C   0  0  0  0  0  0  0  0  0  0  0  0
  125.3010  130.4120   77.0260 F   0  0  0  0  0  0  0  0  0  0  0  0
  124.7330  132.1370   75.8370 F   0  0  0  0  0  0  0  0  0  0  0  0
  123.8750  130.2060   75.4280 F   0  0  0  0  0  0  0  0  0  0  0  0
  126.3620  129.3140   74.1880 C   0  0  0  0  0  0  0  0  0  0  0  0
  125.4570  128.1920   74.4470 C   0  0  0  0  0  0  0  0  0  0  0  0
  124.7400  127.3060   74.6520 N   0  0  0  0  0  0  0  0  0  0  0  0
  127.4690  129.1810   73.3160 C   0  0  0  0  0  0  0  0  0  0  0  0
  127.8540  127.6950   72.4110 S   0  0  0  0  0  0  0  0  0  0  0  0
  129.6640  127.6230   72.1860 C   0  0  0  0  0  0  0  0  0  0  0  0
  130.3470  126.3920   72.7990 C   0  0  0  0  0  0  0  0  0  0  0  0
  129.8210  125.2800   72.7260 O   0  0  0  0  0  0  0  0  0  0  0  0
  131.5210  126.6510   73.4140 N   0  0  0  0  0  0  0  0  0  0  0  0
  132.4050  125.7680   74.0630 C   0  0  0  0  0  0  0  0  0  0  0  0
  132.0380  124.5730   74.7100 C   0  0  0  0  0  0  0  0  0  0  0  0
  133.0180  123.7840   75.3130 C   0  0  0  0  0  0  0  0  0  0  0  0
  134.3470  124.2070   75.2520 C   0  0  0  0  0  0  0  0  0  0  0  0
  134.7280  125.3500   74.6280 N   0  0  0  0  0  0  0  0  0  0  0  0
  133.7630  126.1060   74.0460 C   0  0  0  0  0  0  0  0  0  0  0  0
  128.3650  130.1780   73.1170 N   0  0  0  0  0  0  0  0  0  0  0  0
  1  2  1  0
  2  3  2  0
  3  4  1  0
  4  5  1  0
  5  6  1  0
  5  7  1  0
  5  8  1  0
  4  9  2  0
  9 10  1  0
 10 11  3  0
  9 12  1  0
 12 13  1  0
 13 14  1  0
 14 15  1  0
 15 16  2  0
 15 17  1  0
 17 18  1  0
 18 19  2  0
 19 20  1  0
 20 21  2  0
 21 22  1  0
 22 23  2  0
 12 24  2  0
 24  2  1  0
 23 18  1  0
M  END
>  <Binding energies>  (22) 
[-7.53]

>  <Ligand effiencies>  (22) 
[-0.3012]

>  <Interactions>  (22) 
["V-A:LYS:471:CE:4218, V-B:HIS:456:CA:9035, V-B:VAL:458:CG2:9059, V-B:VAL:457:C:9045, V-A:HIS:456:CB:4063, V-A:HIS:456:CD2:4066, V-B:LYS:471:CD:9191, H-A:GLY:544:O:4911, V-A:VAL:458:CG2:4085, V-A:HIS:456:CG:4064, H-A:VAL:458:N:4082, V-A:HIS:456:C:4059, V-A:VAL:457:C:4071, V-B:LYS:471:CE:9192, V-A:LYS:471:CG:4216, V-B:HIS:456:C:9033, V-B:HIS:456:CD2:9040, V-A:LYS:547:CE:4948, V-B:LYS:471:CB:9189, V-B:LYS:471:CG:9190, V-B:VAL:457:CA:9047, H-A:LYS:547:NZ:4949, V-A:LYS:471:CD:4217, V-B:HIS:456:CG:9038, V-B:HIS:456:CB:9037, V-A:HIS:456:CA:4061, H-B:LYS:547:NZ:9923, V-B:ASP:473:CG:9212, V-A:GLY:544:C:4910, V-B:LYS:547:CE:9922, H-A:VAL:457:N:4074, V-B:LYS:547:CD:9921, V-B:ASP:473:CB:9211"]

$$$$
2g_Grossjean_2025
     RDKit          3D

 25 26  0  0  0  0  0  0  0  0999 V2000
  129.6240  131.7180   60.7500 C   0  0  0  0  0  0  0  0  0  0  0  0
  130.2420  131.6080   59.3700 C   0  0  0  0  0  0  0  0  0  0  0  0
  131.6040  131.3750   59.1970 C   0  0  0  0  0  0  0  0  0  0  0  0
  132.1300  131.2890   57.8980 C   0  0  0  0  0  0  0  0  0  0  0  0
  133.6410  131.0390   57.7260 C   0  0  0  0  0  0  0  0  0  0  0  0
  133.8500  129.8790   57.1020 F   0  0  0  0  0  0  0  0  0  0  0  0
  134.1820  132.0220   57.0050 F   0  0  0  0  0  0  0  0  0  0  0  0
  134.2920  130.9880   58.8910 F   0  0  0  0  0  0  0  0  0  0  0  0
  131.2470  131.4340   56.7980 C   0  0  0  0  0  0  0  0  0  0  0  0
  131.7530  131.4090   55.4230 C   0  0  0  0  0  0  0  0  0  0  0  0
  132.1530  131.3900   54.3370 N   0  0  0  0  0  0  0  0  0  0  0  0
  129.8720  131.6380   57.0700 C   0  0  0  0  0  0  0  0  0  0  0  0
  128.6260  131.8160   55.8120 S   0  0  0  0  0  0  0  0  0  0  0  0
  127.9070  130.1640   55.5160 C   0  0  0  0  0  0  0  0  0  0  0  0
  126.6510  129.8540   56.3420 C   0  0  0  0  0  0  0  0  0  0  0  0
  125.7300  129.1770   55.8810 O   0  0  0  0  0  0  0  0  0  0  0  0
  126.6330  130.3740   57.5830 N   0  0  0  0  0  0  0  0  0  0  0  0
  125.5530  130.2090   58.5580 C   0  0  0  0  0  0  0  0  0  0  0  0
  125.3590  131.4010   59.4890 C   0  0  0  0  0  0  0  0  0  0  0  0
  124.0740  131.7540   59.9090 C   0  0  0  0  0  0  0  0  0  0  0  0
  123.8970  132.8190   60.7900 C   0  0  0  0  0  0  0  0  0  0  0  0
  125.0070  133.5200   61.2540 C   0  0  0  0  0  0  0  0  0  0  0  0
  126.2920  133.1650   60.8490 C   0  0  0  0  0  0  0  0  0  0  0  0
  126.4690  132.1010   59.9700 C   0  0  0  0  0  0  0  0  0  0  0  0
  129.3860  131.7420   58.3320 N   0  0  0  0  0  0  0  0  0  0  0  0
  1  2  1  0
  2  3  2  0
  3  4  1  0
  4  5  1  0
  5  6  1  0
  5  7  1  0
  5  8  1  0
  4  9  2  0
  9 10  1  0
 10 11  3  0
  9 12  1  0
 12 13  1  0
 13 14  1  0
 14 15  1  0
 15 16  2  0
 15 17  1  0
 17 18  1  0
 18 19  1  0
 19 20  2  0
 20 21  1  0
 21 22  2  0
 22 23  1  0
 23 24  2  0
 12 25  2  0
 25  2  1  0
 24 19  1  0
M  END
>  <Binding energies>  (23) 
[-6.66]

>  <Ligand effiencies>  (23) 
[-0.2561538461538462]

>  <Interactions>  (23) 
["V-B:ASP:366:CG:8185, V-A:ASP:366:CG:3211, V-A:PRO:540:N:4882, V-A:TYR:539:CZ:4875, V-A:TYR:531:CE2:4791, V-A:LEU:363:CA:3183, H-A:TYR:531:OH:4793, V-A:ASP:366:CB:3210, V-A:TYR:539:C:4865, V-A:LEU:363:CD1:3187, V-A:ILE:538:CB:4860, V-A:PRO:540:CA:4881, V-A:ILE:538:CG2:4861, V-A:TYR:531:CZ:4792, V-A:PRO:540:CB:4883, H-B:TYR:531:OH:9767, V-A:LEU:363:CB:3185, V-A:PRO:540:CD:4885, V-A:TYR:539:CE2:4874, H-A:TYR:539:OH:4876, V-A:ASN:362:C:3170, V-A:TYR:539:CD2:4872, V-A:PRO:540:CG:4884, V-B:ILE:369:CD1:8211, V-B:ILE:369:CG2:8209, V-B:LEU:475:CD2:9231, V-A:LEU:363:CG:3186"]

$$$$
2h_Grossjean_2025
     RDKit          3D

 31 32  0  0  0  0  0  0  0  0999 V2000
  123.8900  122.7440   55.9080 C   0  0  0  0  0  0  0  0  0  0  0  0
  125.2830  122.5650   56.1390 O   0  0  0  0  0  0  0  0  0  0  0  0
  126.0300  123.6180   56.6370 C   0  0  0  0  0  0  0  0  0  0  0  0
  125.5220  124.5950   57.5080 C   0  0  0  0  0  0  0  0  0  0  0  0
  126.3380  125.6220   57.9750 C   0  0  0  0  0  0  0  0  0  0  0  0
  127.6760  125.6980   57.5850 C   0  0  0  0  0  0  0  0  0  0  0  0
  128.5570  126.8220   58.1270 C   0  0  0  0  0  0  0  0  0  0  0  0
  127.9410  128.1460   58.0340 N   0  0  0  0  0  0  0  0  0  0  0  0
  128.3910  129.1530   57.2650 C   0  0  0  0  0  0  0  0  0  0  0  0
  129.4330  129.0890   56.6090 O   0  0  0  0  0  0  0  0  0  0  0  0
  127.5120  130.4110   57.2400 C   0  0  0  0  0  0  0  0  0  0  0  0
  128.1710  131.8300   58.1790 S   0  0  0  0  0  0  0  0  0  0  0  0
  129.9330  131.6020   58.2860 C   0  0  0  0  0  0  0  0  0  0  0  0
  130.3600  131.2190   59.5150 N   0  0  0  0  0  0  0  0  0  0  0  0
  131.6840  131.0350   59.7120 C   0  0  0  0  0  0  0  0  0  0  0  0
  132.0890  130.6140   61.1120 C   0  0  0  0  0  0  0  0  0  0  0  0
  132.6280  131.2180   58.7040 C   0  0  0  0  0  0  0  0  0  0  0  0
  132.2030  131.5950   57.4210 C   0  0  0  0  0  0  0  0  0  0  0  0
  133.2610  131.7850   56.3160 C   0  0  0  0  0  0  0  0  0  0  0  0
  134.3360  131.0440   56.5850 F   0  0  0  0  0  0  0  0  0  0  0  0
  132.8180  131.4240   55.1100 F   0  0  0  0  0  0  0  0  0  0  0  0
  133.6240  133.0660   56.2440 F   0  0  0  0  0  0  0  0  0  0  0  0
  130.8160  131.7850   57.1950 C   0  0  0  0  0  0  0  0  0  0  0  0
  130.3160  132.1210   55.8590 C   0  0  0  0  0  0  0  0  0  0  0  0
  129.9230  132.3830   54.8030 N   0  0  0  0  0  0  0  0  0  0  0  0
  128.1910  124.7410   56.6960 C   0  0  0  0  0  0  0  0  0  0  0  0
  129.5070  124.8100   56.3050 O   0  0  0  0  0  0  0  0  0  0  0  0
  129.7490  125.6910   55.2150 C   0  0  0  0  0  0  0  0  0  0  0  0
  127.3710  123.6940   56.2410 C   0  0  0  0  0  0  0  0  0  0  0  0
  127.8770  122.7450   55.3860 O   0  0  0  0  0  0  0  0  0  0  0  0
  127.9340  123.1580   54.0270 C   0  0  0  0  0  0  0  0  0  0  0  0
  1  2  1  0
  2  3  1  0
  3  4  2  0
  4  5  1  0
  5  6  2  0
  6  7  1  0
  7  8  1  0
  8  9  1  0
  9 10  2  0
  9 11  1  0
 11 12  1  0
 12 13  1  0
 13 14  2  0
 14 15  1  0
 15 16  1  0
 15 17  2  0
 17 18  1  0
 18 19  1  0
 19 20  1  0
 19 21  1  0
 19 22  1  0
 18 23  2  0
 23 24  1  0
 24 25  3  0
  6 26  1  0
 26 27  1  0
 27 28  1  0
 26 29  2  0
 29 30  1  0
 30 31  1  0
 29  3  1  0
 23 13  1  0
M  END
>  <Binding energies>  (24) 
[-6.9]

>  <Ligand effiencies>  (24) 
[-0.215625]

>  <Interactions>  (24) 
["V-B:PRO:540:N:9856, V-B:ILE:538:CA:9832, V-B:PRO:540:CB:9857, V-B:TYR:539:CE1:9847, V-B:TYR:539:CD1:9845, V-A:PRO:540:N:4882, H-A:TYR:539:N:4868, V-A:ILE:538:CA:4858, V-A:TYR:539:CZ:4875, V-A:TYR:531:CE2:4791, V-A:LEU:363:CA:3183, H-A:TYR:531:OH:4793, V-A:ASP:366:CB:3210, V-A:TYR:539:C:4865, V-A:LEU:363:CD1:3187, V-A:ILE:538:CB:4860, V-A:PRO:540:CA:4881, V-A:ILE:538:CG2:4861, V-A:TYR:531:CZ:4792, V-A:PRO:540:CB:4883, V-B:TYR:531:CE2:9765, V-B:LEU:363:CD1:8161, H-B:TYR:539:N:9842, V-B:ILE:538:CG2:9835, V-B:PRO:540:CD:9859, V-B:ILE:538:CB:9834, V-B:PRO:540:CG:9858, V-A:LEU:363:CB:3185, V-A:PRO:540:CD:4885, V-A:TYR:539:CE2:4874, V-A:LEU:363:C:3181, V-B:ILE:538:C:9830, V-A:PRO:540:CG:4884, V-A:TYR:531:CD2:4789, V-A:ILE:538:CD1:4863, V-A:LEU:363:CG:3186, V-B:ILE:538:CD1:9837"]

$$$$
2i_Grossjean_2025
     RDKit          3D

 23 24  0  0  0  0  0  0  0  0999 V2000
  124.6790  124.0970   61.5880 C   0  0  0  0  0  0  0  0  0  0  0  0
  125.4990  123.8690   60.3310 C   0  0  0  0  0  0  0  0  0  0  0  0
  124.9150  123.8790   59.0670 C   0  0  0  0  0  0  0  0  0  0  0  0
  125.7170  123.6660   57.9360 C   0  0  0  0  0  0  0  0  0  0  0  0
  125.0540  123.6790   56.5450 C   0  0  0  0  0  0  0  0  0  0  0  0
  125.6990  124.5250   55.7410 F   0  0  0  0  0  0  0  0  0  0  0  0
  125.0920  122.4580   56.0080 F   0  0  0  0  0  0  0  0  0  0  0  0
  123.7750  124.0590   56.5860 F   0  0  0  0  0  0  0  0  0  0  0  0
  127.1060  123.4460   58.1220 C   0  0  0  0  0  0  0  0  0  0  0  0
  127.9900  123.2200   56.9740 C   0  0  0  0  0  0  0  0  0  0  0  0
  128.6890  123.0410   56.0690 N   0  0  0  0  0  0  0  0  0  0  0  0
  127.6140  123.4510   59.4410 C   0  0  0  0  0  0  0  0  0  0  0  0
  129.3430  123.1780   59.7960 S   0  0  0  0  0  0  0  0  0  0  0  0
  129.4630  122.3360   61.4040 C   0  0  0  0  0  0  0  0  0  0  0  0
  130.7250  122.7330   62.1730 C   0  0  0  0  0  0  0  0  0  0  0  0
  131.7480  122.0600   62.0330 O   0  0  0  0  0  0  0  0  0  0  0  0
  130.6050  123.8040   62.9860 N   0  0  0  0  0  0  0  0  0  0  0  0
  131.5930  124.3440   63.7940 C   0  0  0  0  0  0  0  0  0  0  0  0
  131.4850  125.1510   64.9350 C   0  0  0  0  0  0  0  0  0  0  0  0
  132.7840  125.3830   65.3240 C   0  0  0  0  0  0  0  0  0  0  0  0
  133.6220  124.7460   64.4720 O   0  0  0  0  0  0  0  0  0  0  0  0
  132.8510  124.0870   63.5110 N   0  0  0  0  0  0  0  0  0  0  0  0
  126.8210  123.6600   60.5230 N   0  0  0  0  0  0  0  0  0  0  0  0
  1  2  1  0
  2  3  2  0
  3  4  1  0
  4  5  1  0
  5  6  1  0
  5  7  1  0
  5  8  1  0
  4  9  2  0
  9 10  1  0
 10 11  3  0
  9 12  1  0
 12 13  1  0
 13 14  1  0
 14 15  1  0
 15 16  2  0
 15 17  1  0
 17 18  1  0
 18 19  1  0
 19 20  2  0
 20 21  1  0
 21 22  1  0
 12 23  2  0
 23  2  1  0
 22 18  2  0
M  END
>  <Binding energies>  (25) 
[-7.5]

>  <Ligand effiencies>  (25) 
[-0.3125]

>  <Interactions>  (25) 
["V-B:PRO:540:N:9856, H-B:GLU:543:OE1:9881, V-B:ILE:538:CA:9832, V-B:ALA:541:CB:9864, V-B:PRO:540:CB:9857, V-B:PRO:540:CA:9855, V-B:PRO:540:C:9853, H-B:ALA:541:N:9863, V-B:TYR:539:CD2:9846, V-B:ARG:545:CZ:9898, V-B:TYR:531:CE2:9765, V-B:LEU:363:CD1:8161, V-B:TYR:531:CZ:9766, V-B:ASN:362:CB:8148, H-B:TYR:539:N:9842, V-B:GLU:543:CD:9880, V-B:TYR:539:C:9839, V-B:ILE:538:CG2:9835, V-B:PRO:540:CD:9859, V-B:ILE:538:CB:9834, V-B:PRO:540:CG:9858, V-A:ARG:545:CZ:4924, V-A:ARG:545:CD:4921, H-A:TYR:484:OH:4346, H-A:ARG:545:NE:4922, H-A:GLY:454:N:4048, V-B:TYR:539:CG:9844, V-A:HIS:456:CE1:4068, V-B:ILE:538:C:9830, V-A:ARG:545:CG:4920"]

$$$$
2k_Grossjean_2025
     RDKit          3D

 28 28  0  0  0  0  0  0  0  0999 V2000
  124.1550  123.1210   56.0900 C   0  0  0  0  0  0  0  0  0  0  0  0
  125.4380  122.5380   56.2590 O   0  0  0  0  0  0  0  0  0  0  0  0
  126.2950  123.2920   57.1070 C   0  0  0  0  0  0  0  0  0  0  0  0
  127.7540  122.8790   56.8680 C   0  0  0  0  0  0  0  0  0  0  0  0
  127.9770  122.7560   55.4710 O   0  0  0  0  0  0  0  0  0  0  0  0
  127.6090  123.9050   54.7170 C   0  0  0  0  0  0  0  0  0  0  0  0
  128.8340  124.8200   54.5980 C   0  0  0  0  0  0  0  0  0  0  0  0
  128.4670  126.1030   55.0780 O   0  0  0  0  0  0  0  0  0  0  0  0
  129.4590  127.1090   54.9350 C   0  0  0  0  0  0  0  0  0  0  0  0
  128.7670  128.4790   54.8080 C   0  0  0  0  0  0  0  0  0  0  0  0
  128.4090  129.0610   56.1040 N   0  0  0  0  0  0  0  0  0  0  0  0
  127.1580  129.3330   56.5220 C   0  0  0  0  0  0  0  0  0  0  0  0
  126.1520  129.0890   55.8530 O   0  0  0  0  0  0  0  0  0  0  0  0
  127.0460  130.0000   57.9010 C   0  0  0  0  0  0  0  0  0  0  0  0
  127.7920  131.6620   58.0290 S   0  0  0  0  0  0  0  0  0  0  0  0
  129.5690  131.5070   58.1570 C   0  0  0  0  0  0  0  0  0  0  0  0
  130.0420  131.1490   59.3780 N   0  0  0  0  0  0  0  0  0  0  0  0
  131.3760  131.0180   59.5490 C   0  0  0  0  0  0  0  0  0  0  0  0
  131.8260  130.6280   60.9430 C   0  0  0  0  0  0  0  0  0  0  0  0
  132.2890  131.2230   58.5180 C   0  0  0  0  0  0  0  0  0  0  0  0
  131.8220  131.5850   57.2450 C   0  0  0  0  0  0  0  0  0  0  0  0
  132.8460  131.8020   56.1140 C   0  0  0  0  0  0  0  0  0  0  0  0
  133.0880  133.0930   55.8770 F   0  0  0  0  0  0  0  0  0  0  0  0
  134.0070  131.2290   56.4330 F   0  0  0  0  0  0  0  0  0  0  0  0
  132.3950  131.2640   54.9810 F   0  0  0  0  0  0  0  0  0  0  0  0
  130.4250  131.7340   57.0540 C   0  0  0  0  0  0  0  0  0  0  0  0
  129.8820  132.1150   55.7460 C   0  0  0  0  0  0  0  0  0  0  0  0
  129.4540  132.4140   54.7130 N   0  0  0  0  0  0  0  0  0  0  0  0
  1  2  1  0
  2  3  1  0
  3  4  1  0
  4  5  1  0
  5  6  1  0
  6  7  1  0
  7  8  1  0
  8  9  1  0
  9 10  1  0
 10 11  1  0
 11 12  1  0
 12 13  2  0
 12 14  1  0
 14 15  1  0
 15 16  1  0
 16 17  2  0
 17 18  1  0
 18 19  1  0
 18 20  2  0
 20 21  1  0
 21 22  1  0
 22 23  1  0
 22 24  1  0
 22 25  1  0
 21 26  2  0
 26 27  1  0
 27 28  3  0
 26 16  1  0
M  END
>  <Binding energies>  (26) 
[-6.49]

>  <Ligand effiencies>  (26) 
[-0.22379310344827588]

>  <Interactions>  (26) 
["V-B:PRO:540:N:9856, V-B:PRO:540:CB:9857, V-B:PRO:540:CA:9855, V-B:TYR:539:CD1:9845, V-B:TYR:539:CD2:9846, V-A:PRO:540:N:4882, H-A:TYR:539:N:4868, V-A:ILE:538:CA:4858, V-A:TYR:531:CE2:4791, V-A:LEU:363:CA:3183, V-A:TYR:539:C:4865, V-A:LEU:363:CD1:3187, V-A:ILE:538:CB:4860, V-A:PRO:540:CA:4881, V-A:ILE:538:CG2:4861, V-A:TYR:531:CZ:4792, V-A:PRO:540:CB:4883, V-B:TYR:531:CE2:9765, V-B:LEU:363:CD1:8161, H-B:TYR:539:N:9842, H-B:TYR:531:OH:9767, V-B:TYR:539:C:9839, V-B:ILE:538:CG2:9835, V-B:PRO:540:CD:9859, V-B:ILE:538:CB:9834, V-A:LEU:363:CB:3185, V-A:PRO:540:CD:4885, V-A:ILE:538:CG1:4862, V-B:TYR:539:CG:9844, V-B:TYR:539:CA:9841, V-A:PRO:540:CG:4884, V-A:ILE:538:CD1:4863"]

$$$$
3aa_Grossjean_2025
     RDKit          3D

 34 36  0  0  0  0  0  0  0  0999 V2000
  132.8670  132.1380   56.2850 C   0  0  0  0  0  0  0  0  0  0  0  0
  131.9540  131.6390   55.1610 C   0  0  0  0  0  0  0  0  0  0  0  0
  130.7440  132.3860   55.1650 O   0  0  0  0  0  0  0  0  0  0  0  0
  129.7590  132.1150   56.0580 C   0  0  0  0  0  0  0  0  0  0  0  0
  129.4140  132.8970   56.9500 O   0  0  0  0  0  0  0  0  0  0  0  0
  129.1380  130.7610   55.8650 C   0  0  0  0  0  0  0  0  0  0  0  0
  128.1410  130.5310   54.9050 C   0  0  0  0  0  0  0  0  0  0  0  0
  127.5890  129.2610   54.7490 C   0  0  0  0  0  0  0  0  0  0  0  0
  128.0260  128.1980   55.5410 C   0  0  0  0  0  0  0  0  0  0  0  0
  127.4060  126.9560   55.3000 N   0  0  0  0  0  0  0  0  0  0  0  0
  127.9340  125.7120   55.3190 C   0  0  0  0  0  0  0  0  0  0  0  0
  129.1150  125.4410   55.5410 O   0  0  0  0  0  0  0  0  0  0  0  0
  126.9550  124.5760   55.0240 C   0  0  0  0  0  0  0  0  0  0  0  0
  127.5590  122.9820   55.6570 S   0  0  0  0  0  0  0  0  0  0  0  0
  127.6830  123.1360   57.4250 C   0  0  0  0  0  0  0  0  0  0  0  0
  128.8950  122.7830   57.9180 N   0  0  0  0  0  0  0  0  0  0  0  0
  129.1240  122.8530   59.2550 C   0  0  0  0  0  0  0  0  0  0  0  0
  130.4940  122.4590   59.7200 C   0  0  0  0  0  0  0  0  0  0  0  0
  131.5700  123.3540   59.6100 C   0  0  0  0  0  0  0  0  0  0  0  0
  132.8450  122.9960   60.0410 C   0  0  0  0  0  0  0  0  0  0  0  0
  133.0600  121.7360   60.5890 C   0  0  0  0  0  0  0  0  0  0  0  0
  132.0100  120.8330   60.7110 C   0  0  0  0  0  0  0  0  0  0  0  0
  130.7360  121.1940   60.2810 C   0  0  0  0  0  0  0  0  0  0  0  0
  128.1280  123.2920   60.1330 C   0  0  0  0  0  0  0  0  0  0  0  0
  126.8590  123.6460   59.6480 C   0  0  0  0  0  0  0  0  0  0  0  0
  125.7860  124.1130   60.6480 C   0  0  0  0  0  0  0  0  0  0  0  0
  126.0270  123.7040   61.8960 F   0  0  0  0  0  0  0  0  0  0  0  0
  125.7260  125.4450   60.6700 F   0  0  0  0  0  0  0  0  0  0  0  0
  124.5930  123.6340   60.2910 F   0  0  0  0  0  0  0  0  0  0  0  0
  126.6200  123.5560   58.2550 C   0  0  0  0  0  0  0  0  0  0  0  0
  125.2980  123.8580   57.6990 C   0  0  0  0  0  0  0  0  0  0  0  0
  124.2530  124.0950   57.2600 N   0  0  0  0  0  0  0  0  0  0  0  0
  129.0130  128.4240   56.5120 C   0  0  0  0  0  0  0  0  0  0  0  0
  129.5610  129.6930   56.6680 C   0  0  0  0  0  0  0  0  0  0  0  0
  1  2  1  0
  2  3  1  0
  3  4  1  0
  4  5  2  0
  4  6  1  0
  6  7  2  0
  7  8  1  0
  8  9  2  0
  9 10  1  0
 10 11  1  0
 11 12  2  0
 11 13  1  0
 13 14  1  0
 14 15  1  0
 15 16  2  0
 16 17  1  0
 17 18  1  0
 18 19  2  0
 19 20  1  0
 20 21  2  0
 21 22  1  0
 22 23  2  0
 17 24  2  0
 24 25  1  0
 25 26  1  0
 26 27  1  0
 26 28  1  0
 26 29  1  0
 25 30  2  0
 30 31  1  0
 31 32  3  0
  9 33  1  0
 33 34  2  0
 34  6  1  0
 30 15  1  0
 23 18  1  0
M  END
>  <Binding energies>  (27) 
[-9.21]

>  <Ligand effiencies>  (27) 
[-0.2631428571428572]

>  <Interactions>  (27) 
["V-B:PRO:540:N:9856, V-A:TRP:381:CH2:3370, V-B:ASP:366:CG:8185, V-B:PRO:540:CB:9857, V-B:PRO:540:CA:9855, V-B:PRO:540:C:9853, V-B:ALA:541:CA:9862, V-B:TYR:539:CE2:9848, V-A:LEU:475:CD2:4257, V-B:TYR:539:CD2:9846, V-A:TYR:539:CE1:4873, V-A:PRO:540:N:4882, H-A:TYR:539:N:4868, V-A:ILE:538:CA:4858, V-A:TYR:531:CE2:4791, V-A:TYR:539:C:4865, V-A:LEU:363:CD1:3187, V-A:ILE:538:CB:4860, V-A:PRO:540:CA:4881, V-A:ILE:538:CG2:4861, V-A:TYR:531:CZ:4792, V-A:PRO:540:CB:4883, V-B:ALA:541:C:9860, H-B:TYR:539:N:9842, V-B:GLU:543:CD:9880, H-B:MET:535:SD:9806, H-B:TYR:531:OH:9767, V-B:TYR:539:C:9839, V-A:PRO:540:CD:4885, V-A:ILE:369:CG2:3235, V-A:ILE:369:CD1:3237, V-A:PRO:540:CG:4884"]

$$$$
3ad_Grossjean_2025
     RDKit          3D

 29 31  0  0  0  0  0  0  0  0999 V2000
  133.8770  127.3370   74.2780 N   0  0  0  0  0  0  0  0  0  0  0  0
  133.1180  126.4810   74.1020 C   0  0  0  0  0  0  0  0  0  0  0  0
  132.1590  125.3940   73.8810 C   0  0  0  0  0  0  0  0  0  0  0  0
  132.3660  124.1180   74.4580 C   0  0  0  0  0  0  0  0  0  0  0  0
  133.5640  123.8030   75.3740 C   0  0  0  0  0  0  0  0  0  0  0  0
  134.6970  124.3760   74.9620 F   0  0  0  0  0  0  0  0  0  0  0  0
  133.3180  124.2410   76.6110 F   0  0  0  0  0  0  0  0  0  0  0  0
  133.7760  122.4860   75.4160 F   0  0  0  0  0  0  0  0  0  0  0  0
  131.4430  123.0990   74.1780 C   0  0  0  0  0  0  0  0  0  0  0  0
  130.3470  123.3460   73.3440 C   0  0  0  0  0  0  0  0  0  0  0  0
  129.3400  122.2890   73.0000 C   0  0  0  0  0  0  0  0  0  0  0  0
  128.6060  121.6430   74.0070 C   0  0  0  0  0  0  0  0  0  0  0  0
  127.6690  120.6620   73.6940 C   0  0  0  0  0  0  0  0  0  0  0  0
  127.4510  120.3140   72.3640 C   0  0  0  0  0  0  0  0  0  0  0  0
  128.1630  120.9420   71.3480 C   0  0  0  0  0  0  0  0  0  0  0  0
  129.0990  121.9230   71.6650 C   0  0  0  0  0  0  0  0  0  0  0  0
  130.1570  124.5690   72.7890 N   0  0  0  0  0  0  0  0  0  0  0  0
  131.0230  125.5740   73.0610 C   0  0  0  0  0  0  0  0  0  0  0  0
  130.6110  127.1080   72.2590 S   0  0  0  0  0  0  0  0  0  0  0  0
  128.8000  127.1670   72.1040 C   0  0  0  0  0  0  0  0  0  0  0  0
  128.1980  128.3770   72.8220 C   0  0  0  0  0  0  0  0  0  0  0  0
  128.7750  129.4630   72.7510 O   0  0  0  0  0  0  0  0  0  0  0  0
  127.0500  128.1410   73.4920 N   0  0  0  0  0  0  0  0  0  0  0  0
  126.2430  129.0220   74.2340 C   0  0  0  0  0  0  0  0  0  0  0  0
  126.8520  130.2190   74.6240 C   0  0  0  0  0  0  0  0  0  0  0  0
  126.1430  131.1600   75.3660 C   0  0  0  0  0  0  0  0  0  0  0  0
  124.8230  130.9030   75.7240 C   0  0  0  0  0  0  0  0  0  0  0  0
  124.2060  129.7130   75.3490 C   0  0  0  0  0  0  0  0  0  0  0  0
  124.9110  128.7690   74.6070 C   0  0  0  0  0  0  0  0  0  0  0  0
  1  2  3  0
  2  3  1  0
  3  4  2  0
  4  5  1  0
  5  6  1  0
  5  7  1  0
  5  8  1  0
  4  9  1  0
  9 10  2  0
 10 11  1  0
 11 12  2  0
 12 13  1  0
 13 14  2  0
 14 15  1  0
 15 16  2  0
 10 17  1  0
 17 18  2  0
 18 19  1  0
 19 20  1  0
 20 21  1  0
 21 22  2  0
 21 23  1  0
 23 24  1  0
 24 25  2  0
 25 26  1  0
 26 27  2  0
 27 28  1  0
 28 29  2  0
 18  3  1  0
 29 24  1  0
 16 11  1  0
M  END
>  <Binding energies>  (28) 
[-9.43]

>  <Ligand effiencies>  (28) 
[-0.3143333333333333]

>  <Interactions>  (28) 
["V-A:LYS:471:CE:4218, H-B:GLY:544:O:9885, V-B:HIS:456:CA:9035, V-B:VAL:458:CG2:9059, V-B:VAL:457:C:9045, V-A:HIS:456:CB:4063, V-A:HIS:456:CD2:4066, V-B:LYS:471:CD:9191, V-B:GLY:544:C:9884, V-A:VAL:458:CG2:4085, V-A:HIS:456:CG:4064, V-A:HIS:456:C:4059, V-A:VAL:457:C:4071, V-B:LYS:471:CE:9192, V-A:LYS:471:CG:4216, V-B:HIS:456:C:9033, V-B:HIS:456:CD2:9040, V-A:LYS:547:CE:4948, V-B:LYS:471:CG:9190, V-B:VAL:457:CA:9047, H-A:LYS:547:NZ:4949, V-A:ASP:473:CG:4238, V-A:LYS:471:CD:4217, V-B:HIS:456:CG:9038, V-B:HIS:456:CB:9037, V-A:HIS:456:CA:4061, H-B:LYS:547:NZ:9923, V-A:LYS:471:CB:4215, V-A:VAL:457:CA:4073, V-B:ASP:473:CG:9212, V-B:LYS:547:CE:9922, V-B:GLY:544:CA:9886, V-B:GLU:543:C:9874, V-A:TYR:484:CG:4340, V-A:TYR:484:CB:4339, V-B:GLU:543:CA:9876, V-A:TYR:484:CD1:4341, V-A:LYS:547:CG:4946, V-A:ASP:473:CB:4237, V-A:LYS:547:CD:4947"]

$$$$
3ai_Grossjean_2025
     RDKit          3D

 28 30  0  0  0  0  0  0  0  0999 V2000
  133.5850  127.2940   74.3710 N   0  0  0  0  0  0  0  0  0  0  0  0
  132.8710  126.4130   74.1390 C   0  0  0  0  0  0  0  0  0  0  0  0
  131.9660  125.2970   73.8470 C   0  0  0  0  0  0  0  0  0  0  0  0
  132.2720  123.9840   74.2810 C   0  0  0  0  0  0  0  0  0  0  0  0
  133.5260  123.6550   75.1130 C   0  0  0  0  0  0  0  0  0  0  0  0
  133.8890  122.3740   75.0170 F   0  0  0  0  0  0  0  0  0  0  0  0
  134.5550  124.3960   74.6980 F   0  0  0  0  0  0  0  0  0  0  0  0
  133.3020  123.9090   76.4020 F   0  0  0  0  0  0  0  0  0  0  0  0
  131.3980  122.9430   73.9350 C   0  0  0  0  0  0  0  0  0  0  0  0
  130.2530  123.2030   73.1750 C   0  0  0  0  0  0  0  0  0  0  0  0
  129.2910  122.1280   72.7670 C   0  0  0  0  0  0  0  0  0  0  0  0
  128.5840  121.3960   73.7330 C   0  0  0  0  0  0  0  0  0  0  0  0
  127.6860  120.3990   73.3620 C   0  0  0  0  0  0  0  0  0  0  0  0
  127.4810  120.1220   72.0140 C   0  0  0  0  0  0  0  0  0  0  0  0
  128.1680  120.8340   71.0370 C   0  0  0  0  0  0  0  0  0  0  0  0
  129.0650  121.8300   71.4120 C   0  0  0  0  0  0  0  0  0  0  0  0
  129.9680  124.4620   72.7530 N   0  0  0  0  0  0  0  0  0  0  0  0
  130.7840  125.4880   73.0960 C   0  0  0  0  0  0  0  0  0  0  0  0
  130.2390  127.0650   72.4740 S   0  0  0  0  0  0  0  0  0  0  0  0
  128.4150  127.0920   72.5380 C   0  0  0  0  0  0  0  0  0  0  0  0
  127.8080  128.3470   73.1820 C   0  0  0  0  0  0  0  0  0  0  0  0
  128.3950  129.4300   73.1300 O   0  0  0  0  0  0  0  0  0  0  0  0
  126.6150  128.1490   73.7880 N   0  0  0  0  0  0  0  0  0  0  0  0
  125.8370  129.0950   74.4420 C   0  0  0  0  0  0  0  0  0  0  0  0
  126.3320  130.3260   74.8700 C   0  0  0  0  0  0  0  0  0  0  0  0
  125.2630  130.9560   75.4640 C   0  0  0  0  0  0  0  0  0  0  0  0
  124.1790  130.1470   75.3970 O   0  0  0  0  0  0  0  0  0  0  0  0
  124.5550  128.9710   74.7470 N   0  0  0  0  0  0  0  0  0  0  0  0
  1  2  3  0
  2  3  1  0
  3  4  2  0
  4  5  1  0
  5  6  1  0
  5  7  1  0
  5  8  1  0
  4  9  1  0
  9 10  2  0
 10 11  1  0
 11 12  2  0
 12 13  1  0
 13 14  2  0
 14 15  1  0
 15 16  2  0
 10 17  1  0
 17 18  2  0
 18 19  1  0
 19 20  1  0
 20 21  1  0
 21 22  2  0
 21 23  1  0
 23 24  1  0
 24 25  1  0
 25 26  2  0
 26 27  1  0
 27 28  1  0
 18  3  1  0
 28 24  2  0
 16 11  1  0
M  END
>  <Binding energies>  (29) 
[-8.61]

>  <Ligand effiencies>  (29) 
[-0.2968965517241379]

>  <Interactions>  (29) 
["V-A:LYS:471:CE:4218, H-B:GLY:544:O:9885, V-B:VAL:458:CG2:9059, V-A:HIS:456:CB:4063, V-A:HIS:456:CD2:4066, V-B:LYS:471:CD:9191, V-B:GLY:544:C:9884, V-A:VAL:458:CG2:4085, V-A:HIS:456:CG:4064, V-A:HIS:456:C:4059, V-A:VAL:457:C:4071, V-B:LYS:471:CE:9192, V-A:LYS:471:CG:4216, V-B:HIS:456:C:9033, V-B:HIS:456:CD2:9040, V-A:LYS:547:CE:4948, H-A:LYS:547:NZ:4949, V-A:ASP:473:CG:4238, V-A:LYS:471:CD:4217, V-B:HIS:456:CG:9038, V-B:HIS:456:CB:9037, V-A:HIS:456:CA:4061, H-B:LYS:547:NZ:9923, V-A:LYS:471:CB:4215, V-A:VAL:457:CA:4073, V-B:LYS:547:CE:9922, V-B:GLY:544:CA:9886, V-B:GLU:543:C:9874, V-A:TYR:484:CG:4340, V-A:TYR:484:CB:4339, V-B:GLU:543:CA:9876, V-A:TYR:484:CD1:4341, V-A:ASP:473:CB:4237, V-A:LYS:547:CD:4947, H-B:VAL:457:N:9048"]

$$$$
3aj_Grossjean_2025
     RDKit          3D

 28 30  0  0  0  0  0  0  0  0999 V2000
  133.8760  127.2990   74.2700 N   0  0  0  0  0  0  0  0  0  0  0  0
  133.1180  126.4440   74.0900 C   0  0  0  0  0  0  0  0  0  0  0  0
  132.1570  125.3600   73.8650 C   0  0  0  0  0  0  0  0  0  0  0  0
  132.3550  124.0850   74.4490 C   0  0  0  0  0  0  0  0  0  0  0  0
  133.5440  123.7710   75.3770 C   0  0  0  0  0  0  0  0  0  0  0  0
  134.6830  124.3360   74.9680 F   0  0  0  0  0  0  0  0  0  0  0  0
  133.2920  124.2170   76.6080 F   0  0  0  0  0  0  0  0  0  0  0  0
  133.7480  122.4540   75.4270 F   0  0  0  0  0  0  0  0  0  0  0  0
  131.4310  123.0670   74.1630 C   0  0  0  0  0  0  0  0  0  0  0  0
  130.3460  123.3140   73.3170 C   0  0  0  0  0  0  0  0  0  0  0  0
  129.3370  122.2610   72.9710 C   0  0  0  0  0  0  0  0  0  0  0  0
  129.1230  121.8850   71.6360 C   0  0  0  0  0  0  0  0  0  0  0  0
  128.1900  120.9040   71.3080 C   0  0  0  0  0  0  0  0  0  0  0  0
  127.4560  120.2860   72.3160 C   0  0  0  0  0  0  0  0  0  0  0  0
  127.6510  120.6400   73.6470 C   0  0  0  0  0  0  0  0  0  0  0  0
  128.5850  121.6190   73.9700 C   0  0  0  0  0  0  0  0  0  0  0  0
  130.1650  124.5360   72.7530 N   0  0  0  0  0  0  0  0  0  0  0  0
  131.0290  125.5410   73.0320 C   0  0  0  0  0  0  0  0  0  0  0  0
  130.6200  127.0730   72.2230 S   0  0  0  0  0  0  0  0  0  0  0  0
  128.8020  127.1790   72.1120 C   0  0  0  0  0  0  0  0  0  0  0  0
  128.1760  128.3850   72.8290 C   0  0  0  0  0  0  0  0  0  0  0  0
  128.6980  129.5000   72.7610 O   0  0  0  0  0  0  0  0  0  0  0  0
  127.0420  128.1090   73.5110 N   0  0  0  0  0  0  0  0  0  0  0  0
  126.2730  129.0090   74.2370 C   0  0  0  0  0  0  0  0  0  0  0  0
  126.6500  130.1540   74.7630 N   0  0  0  0  0  0  0  0  0  0  0  0
  125.6550  130.7550   75.3850 C   0  0  0  0  0  0  0  0  0  0  0  0
  124.4310  130.0900   75.3720 C   0  0  0  0  0  0  0  0  0  0  0  0
  124.6070  128.5990   74.4970 S   0  0  0  0  0  0  0  0  0  0  0  0
  1  2  3  0
  2  3  1  0
  3  4  2  0
  4  5  1  0
  5  6  1  0
  5  7  1  0
  5  8  1  0
  4  9  1  0
  9 10  2  0
 10 11  1  0
 11 12  2  0
 12 13  1  0
 13 14  2  0
 14 15  1  0
 15 16  2  0
 10 17  1  0
 17 18  2  0
 18 19  1  0
 19 20  1  0
 20 21  1  0
 21 22  2  0
 21 23  1  0
 23 24  1  0
 24 25  2  0
 25 26  1  0
 26 27  2  0
 27 28  1  0
 18  3  1  0
 28 24  1  0
 16 11  1  0
M  END
>  <Binding energies>  (30) 
[-9.03]

>  <Ligand effiencies>  (30) 
[-0.3113793103448276]

>  <Interactions>  (30) 
["V-A:LYS:471:CE:4218, H-B:GLY:544:O:9885, V-B:HIS:456:CA:9035, V-B:VAL:458:CG2:9059, V-B:VAL:457:C:9045, V-A:HIS:456:CB:4063, V-A:HIS:456:CD2:4066, V-B:GLY:544:C:9884, V-A:VAL:458:CG2:4085, V-A:HIS:456:CG:4064, V-A:HIS:456:C:4059, V-A:VAL:457:C:4071, V-B:LYS:471:CE:9192, V-A:LYS:471:CG:4216, V-B:HIS:456:C:9033, V-B:HIS:456:CD2:9040, V-A:LYS:547:CE:4948, H-A:LYS:547:NZ:4949, V-A:ASP:473:CG:4238, V-A:LYS:471:CD:4217, V-B:HIS:456:CG:9038, V-B:HIS:456:CB:9037, V-A:HIS:456:CA:4061, H-B:LYS:547:NZ:9923, V-A:LYS:471:CB:4215, V-A:VAL:457:CA:4073, V-B:LYS:547:CE:9922, V-B:GLY:544:CA:9886, V-B:GLU:543:C:9874, V-A:TYR:484:CG:4340, V-A:TYR:484:CB:4339, V-B:GLU:543:CA:9876, V-A:TYR:484:CD1:4341, V-A:ASP:473:CB:4237, V-A:LYS:547:CD:4947"]

$$$$
3ak_Grossjean_2025
     RDKit          3D

 33 34  0  0  0  0  0  0  0  0999 V2000
  132.6890  131.3770   61.3050 C   0  0  0  0  0  0  0  0  0  0  0  0
  131.3290  131.7340   61.1150 O   0  0  0  0  0  0  0  0  0  0  0  0
  130.8250  131.3790   59.8350 C   0  0  0  0  0  0  0  0  0  0  0  0
  131.9650  130.7910   58.9950 C   0  0  0  0  0  0  0  0  0  0  0  0
  131.7080  131.0530   57.6190 O   0  0  0  0  0  0  0  0  0  0  0  0
  132.6640  131.8820   56.9620 C   0  0  0  0  0  0  0  0  0  0  0  0
  132.2630  132.2750   55.5290 C   0  0  0  0  0  0  0  0  0  0  0  0
  130.8610  132.5020   55.4820 O   0  0  0  0  0  0  0  0  0  0  0  0
  130.1670  131.6430   54.5870 C   0  0  0  0  0  0  0  0  0  0  0  0
  129.3410  130.6100   55.3750 C   0  0  0  0  0  0  0  0  0  0  0  0
  130.1530  129.5650   56.0010 N   0  0  0  0  0  0  0  0  0  0  0  0
  129.6880  128.4330   56.5620 C   0  0  0  0  0  0  0  0  0  0  0  0
  128.4900  128.1460   56.5900 O   0  0  0  0  0  0  0  0  0  0  0  0
  130.6900  127.4540   57.1960 C   0  0  0  0  0  0  0  0  0  0  0  0
  130.8030  125.7920   56.4350 S   0  0  0  0  0  0  0  0  0  0  0  0
  129.8540  124.6440   57.4220 C   0  0  0  0  0  0  0  0  0  0  0  0
  128.5320  124.5730   57.1280 N   0  0  0  0  0  0  0  0  0  0  0  0
  127.7270  123.7340   57.8270 C   0  0  0  0  0  0  0  0  0  0  0  0
  126.2790  123.7180   57.4360 C   0  0  0  0  0  0  0  0  0  0  0  0
  125.8750  123.1810   56.2040 C   0  0  0  0  0  0  0  0  0  0  0  0
  124.5320  123.1600   55.8360 C   0  0  0  0  0  0  0  0  0  0  0  0
  123.5720  123.6760   56.7000 C   0  0  0  0  0  0  0  0  0  0  0  0
  123.9450  124.2110   57.9280 C   0  0  0  0  0  0  0  0  0  0  0  0
  125.2890  124.2300   58.2930 C   0  0  0  0  0  0  0  0  0  0  0  0
  128.2450  122.9230   58.8430 C   0  0  0  0  0  0  0  0  0  0  0  0
  129.6080  122.9760   59.1660 C   0  0  0  0  0  0  0  0  0  0  0  0
  130.1420  122.0700   60.2920 C   0  0  0  0  0  0  0  0  0  0  0  0
  131.1700  121.3470   59.8490 F   0  0  0  0  0  0  0  0  0  0  0  0
  130.5480  122.8120   61.3230 F   0  0  0  0  0  0  0  0  0  0  0  0
  129.2220  121.2180   60.7520 F   0  0  0  0  0  0  0  0  0  0  0  0
  130.4410  123.8610   58.4390 C   0  0  0  0  0  0  0  0  0  0  0  0
  131.8750  123.9590   58.7330 C   0  0  0  0  0  0  0  0  0  0  0  0
  133.0060  124.0370   58.9660 N   0  0  0  0  0  0  0  0  0  0  0  0
  1  2  1  0
  2  3  1  0
  3  4  1  0
  4  5  1  0
  5  6  1  0
  6  7  1  0
  7  8  1  0
  8  9  1  0
  9 10  1  0
 10 11  1  0
 11 12  1  0
 12 13  2  0
 12 14  1  0
 14 15  1  0
 15 16  1  0
 16 17  2  0
 17 18  1  0
 18 19  1  0
 19 20  2  0
 20 21  1  0
 21 22  2  0
 22 23  1  0
 23 24  2  0
 18 25  2  0
 25 26  1  0
 26 27  1  0
 27 28  1  0
 27 29  1  0
 27 30  1  0
 26 31  2  0
 31 32  1  0
 32 33  3  0
 31 16  1  0
 24 19  1  0
M  END
>  <Binding energies>  (31) 
[-7.63]

>  <Ligand effiencies>  (31) 
[-0.22441176470588234]

>  <Interactions>  (31) 
["V-B:PRO:540:N:9856, V-B:LEU:363:CA:8157, V-B:TYR:539:CZ:9849, V-B:ALA:541:CB:9864, V-B:ASP:366:CG:8185, V-B:PRO:540:CB:9857, V-B:PRO:540:CA:9855, V-B:PRO:540:C:9853, V-B:ALA:541:CA:9862, V-B:TYR:539:CE2:9848, V-B:TYR:539:CD2:9846, V-A:PRO:540:N:4882, H-A:TYR:539:N:4868, V-A:ILE:538:CA:4858, V-A:TYR:531:CE2:4791, H-A:TYR:531:OH:4793, V-A:ILE:538:CB:4860, V-A:PRO:540:CA:4881, V-A:ILE:538:CG2:4861, V-A:PRO:540:CB:4883, V-B:TYR:531:CE2:9765, V-B:LEU:363:CD1:8161, V-B:TYR:531:CZ:9766, V-B:TYR:539:C:9839, V-B:ILE:538:CG2:9835, V-B:PRO:540:CD:9859, V-B:ILE:538:CB:9834, H-A:ALA:541:N:4889, V-A:PRO:540:CD:4885, V-A:ASN:362:CB:3174, H-B:TYR:539:OH:9850, V-A:PRO:540:C:4879, V-A:PRO:540:CG:4884"]

$$$$
3bk_Grossjean_2025
     RDKit          3D

 30 31  0  0  0  0  0  0  0  0999 V2000
  131.6470  132.0640   56.6830 C   0  0  0  0  0  0  0  0  0  0  0  0
  130.6370  132.4960   55.7840 O   0  0  0  0  0  0  0  0  0  0  0  0
  130.5400  131.6940   54.6150 C   0  0  0  0  0  0  0  0  0  0  0  0
  129.1450  131.0570   54.5400 C   0  0  0  0  0  0  0  0  0  0  0  0
  128.2840  131.7000   55.4690 O   0  0  0  0  0  0  0  0  0  0  0  0
  127.5190  130.8010   56.2610 C   0  0  0  0  0  0  0  0  0  0  0  0
  126.5120  130.0680   55.3660 C   0  0  0  0  0  0  0  0  0  0  0  0
  126.1020  128.8650   56.0040 O   0  0  0  0  0  0  0  0  0  0  0  0
  126.3050  128.8620   57.4110 C   0  0  0  0  0  0  0  0  0  0  0  0
  126.7780  127.4710   57.8560 C   0  0  0  0  0  0  0  0  0  0  0  0
  126.5120  126.4430   56.8480 N   0  0  0  0  0  0  0  0  0  0  0  0
  127.4310  125.8800   56.0460 C   0  0  0  0  0  0  0  0  0  0  0  0
  128.6310  126.1570   56.0810 O   0  0  0  0  0  0  0  0  0  0  0  0
  126.9240  124.8200   55.0650 C   0  0  0  0  0  0  0  0  0  0  0  0
  127.0870  123.1360   55.7390 S   0  0  0  0  0  0  0  0  0  0  0  0
  127.2790  123.2340   57.5110 C   0  0  0  0  0  0  0  0  0  0  0  0
  128.4620  122.7880   58.0050 N   0  0  0  0  0  0  0  0  0  0  0  0
  128.6960  122.8220   59.3430 C   0  0  0  0  0  0  0  0  0  0  0  0
  130.0350  122.3300   59.8030 C   0  0  0  0  0  0  0  0  0  0  0  0
  130.1750  121.0540   60.3720 C   0  0  0  0  0  0  0  0  0  0  0  0
  131.4160  120.5940   60.8060 C   0  0  0  0  0  0  0  0  0  0  0  0
  132.5370  121.4060   60.6740 C   0  0  0  0  0  0  0  0  0  0  0  0
  132.4270  122.6720   60.1090 C   0  0  0  0  0  0  0  0  0  0  0  0
  131.1850  123.1280   59.6760 C   0  0  0  0  0  0  0  0  0  0  0  0
  127.7320  123.3200   60.2280 C   0  0  0  0  0  0  0  0  0  0  0  0
  126.5060  123.7830   59.7360 C   0  0  0  0  0  0  0  0  0  0  0  0
  125.4820  124.3170   60.7350 C   0  0  0  0  0  0  0  0  0  0  0  0
  126.2620  123.7440   58.3470 C   0  0  0  0  0  0  0  0  0  0  0  0
  124.9890  124.2250   57.8020 C   0  0  0  0  0  0  0  0  0  0  0  0
  123.9830  124.6040   57.3730 N   0  0  0  0  0  0  0  0  0  0  0  0
  1  2  1  0
  2  3  1  0
  3  4  1  0
  4  5  1  0
  5  6  1  0
  6  7  1  0
  7  8  1  0
  8  9  1  0
  9 10  1  0
 10 11  1  0
 11 12  1  0
 12 13  2  0
 12 14  1  0
 14 15  1  0
 15 16  1  0
 16 17  2  0
 17 18  1  0
 18 19  1  0
 19 20  2  0
 20 21  1  0
 21 22  2  0
 22 23  1  0
 23 24  2  0
 18 25  2  0
 25 26  1  0
 26 27  1  0
 26 28  2  0
 28 29  1  0
 29 30  3  0
 28 16  1  0
 24 19  1  0
M  END
>  <Binding energies>  (32) 
[-7.84]

>  <Ligand effiencies>  (32) 
[-0.2529032258064516]

>  <Interactions>  (32) 
["V-B:PRO:540:N:9856, V-A:TRP:381:CH2:3370, V-B:ALA:541:CB:9864, V-B:PRO:540:CB:9857, V-B:PRO:540:CA:9855, V-B:TYR:539:CE2:9848, V-A:LEU:475:CD2:4257, V-B:TYR:539:CD2:9846, V-A:TYR:539:CE1:4873, V-A:PRO:540:N:4882, H-A:TYR:539:N:4868, V-A:ILE:538:CA:4858, V-A:TYR:539:CZ:4875, V-A:TYR:539:C:4865, V-A:ILE:538:CB:4860, V-A:PRO:540:CA:4881, V-A:ILE:538:CG2:4861, V-A:PRO:540:CB:4883, V-B:TYR:531:CZ:9766, H-B:TYR:539:N:9842, H-B:TYR:531:OH:9767, V-B:TYR:539:C:9839, H-B:ASP:366:OD2:8187, V-A:PRO:540:CD:4885, V-A:TYR:539:CE2:4874"]

$$$$
3cb_Grossjean_2025
     RDKit          3D

 30 32  0  0  0  0  0  0  0  0999 V2000
  125.3850  123.3440   55.8680 C   0  0  0  0  0  0  0  0  0  0  0  0
  126.7170  122.8520   55.9080 O   0  0  0  0  0  0  0  0  0  0  0  0
  127.7000  123.5420   56.5410 C   0  0  0  0  0  0  0  0  0  0  0  0
  128.4610  123.0360   57.3700 O   0  0  0  0  0  0  0  0  0  0  0  0
  127.7670  124.9870   56.1340 C   0  0  0  0  0  0  0  0  0  0  0  0
  128.3850  125.3950   54.9420 C   0  0  0  0  0  0  0  0  0  0  0  0
  128.4270  126.7420   54.5930 C   0  0  0  0  0  0  0  0  0  0  0  0
  127.8610  127.7080   55.4250 C   0  0  0  0  0  0  0  0  0  0  0  0
  127.9590  129.0390   54.9730 N   0  0  0  0  0  0  0  0  0  0  0  0
  127.1210  129.7540   54.1910 C   0  0  0  0  0  0  0  0  0  0  0  0
  126.0570  129.3360   53.7300 O   0  0  0  0  0  0  0  0  0  0  0  0
  127.5840  131.1920   53.9100 C   0  0  0  0  0  0  0  0  0  0  0  0
  129.2210  131.6210   54.5940 S   0  0  0  0  0  0  0  0  0  0  0  0
  129.1650  131.3460   56.3530 C   0  0  0  0  0  0  0  0  0  0  0  0
  127.9220  131.0690   56.8160 N   0  0  0  0  0  0  0  0  0  0  0  0
  127.7580  130.8410   58.1380 C   0  0  0  0  0  0  0  0  0  0  0  0
  126.3430  130.5240   58.5830 C   0  0  0  0  0  0  0  0  0  0  0  0
  128.8150  130.8860   59.0430 C   0  0  0  0  0  0  0  0  0  0  0  0
  130.1060  131.1880   58.5890 C   0  0  0  0  0  0  0  0  0  0  0  0
  131.2060  131.2300   59.6010 C   0  0  0  0  0  0  0  0  0  0  0  0
  130.9050  131.3460   60.9640 C   0  0  0  0  0  0  0  0  0  0  0  0
  131.9220  131.3750   61.9150 C   0  0  0  0  0  0  0  0  0  0  0  0
  133.2500  131.2850   61.5050 C   0  0  0  0  0  0  0  0  0  0  0  0
  133.5670  131.1620   60.1550 C   0  0  0  0  0  0  0  0  0  0  0  0
  132.5470  131.1310   59.2070 C   0  0  0  0  0  0  0  0  0  0  0  0
  130.2920  131.4420   57.2060 C   0  0  0  0  0  0  0  0  0  0  0  0
  131.6020  131.8530   56.6910 C   0  0  0  0  0  0  0  0  0  0  0  0
  132.6350  132.1770   56.2840 N   0  0  0  0  0  0  0  0  0  0  0  0
  127.2380  127.3070   56.6170 C   0  0  0  0  0  0  0  0  0  0  0  0
  127.1950  125.9600   56.9650 C   0  0  0  0  0  0  0  0  0  0  0  0
  1  2  1  0
  2  3  1  0
  3  4  2  0
  3  5  1  0
  5  6  2  0
  6  7  1  0
  7  8  2  0
  8  9  1  0
  9 10  1  0
 10 11  2  0
 10 12  1  0
 12 13  1  0
 13 14  1  0
 14 15  2  0
 15 16  1  0
 16 17  1  0
 16 18  2  0
 18 19  1  0
 19 20  1  0
 20 21  2  0
 21 22  1  0
 22 23  2  0
 23 24  1  0
 24 25  2  0
 19 26  2  0
 26 27  1  0
 27 28  3  0
  8 29  1  0
 29 30  2  0
 30  5  1  0
 26 14  1  0
 25 20  1  0
M  END
>  <Binding energies>  (33) 
[-8.52]

>  <Ligand effiencies>  (33) 
[-0.27483870967741936]

>  <Interactions>  (33) 
["V-B:ILE:538:CA:9832, V-B:MET:535:CE:9807, V-A:TYR:539:CE1:4873, V-A:ASP:366:CG:3211, V-A:PRO:540:N:4882, V-A:TYR:539:CZ:4875, V-A:PRO:540:CA:4881, V-A:GLU:543:CD:4906, V-A:PRO:540:CB:4883, H-B:TYR:539:N:9842, H-B:TYR:531:OH:9767, V-B:ILE:538:CG2:9835, V-B:PRO:540:CD:9859, V-B:ILE:538:CB:9834, V-A:ARG:545:CZ:4924, V-A:PRO:540:CD:4885, V-A:ASN:362:CB:3174, V-A:ALA:541:C:4886, V-A:TYR:539:CE2:4874, V-A:ASN:362:C:3170, V-A:PRO:540:C:4879, V-A:ALA:541:CA:4888, H-B:ASN:370:ND2:8220, V-A:ASN:362:CG:3175"]

$$$$
3ch_Grossjean_2025
     RDKit          3D

 32 34  0  0  0  0  0  0  0  0999 V2000
  126.9730  129.2780   54.9450 C   0  0  0  0  0  0  0  0  0  0  0  0
  127.6160  130.4520   55.4300 O   0  0  0  0  0  0  0  0  0  0  0  0
  128.8460  130.3480   56.0540 C   0  0  0  0  0  0  0  0  0  0  0  0
  129.2460  129.2440   56.8230 C   0  0  0  0  0  0  0  0  0  0  0  0
  130.5150  129.2030   57.4190 C   0  0  0  0  0  0  0  0  0  0  0  0
  131.0060  128.1410   58.2010 N   0  0  0  0  0  0  0  0  0  0  0  0
  130.3360  127.1400   58.8130 C   0  0  0  0  0  0  0  0  0  0  0  0
  129.1170  126.9700   58.7790 O   0  0  0  0  0  0  0  0  0  0  0  0
  131.2030  126.1310   59.5670 C   0  0  0  0  0  0  0  0  0  0  0  0
  131.2430  124.5110   58.7450 S   0  0  0  0  0  0  0  0  0  0  0  0
  129.9940  124.5680   57.4790 C   0  0  0  0  0  0  0  0  0  0  0  0
  130.4530  124.9810   56.2720 N   0  0  0  0  0  0  0  0  0  0  0  0
  129.5800  125.0670   55.2430 C   0  0  0  0  0  0  0  0  0  0  0  0
  130.1580  125.5410   53.9240 C   0  0  0  0  0  0  0  0  0  0  0  0
  128.2310  124.7490   55.3750 C   0  0  0  0  0  0  0  0  0  0  0  0
  127.7380  124.3120   56.6140 C   0  0  0  0  0  0  0  0  0  0  0  0
  126.2810  123.9920   56.7110 C   0  0  0  0  0  0  0  0  0  0  0  0
  125.5080  124.5410   57.7400 C   0  0  0  0  0  0  0  0  0  0  0  0
  124.1520  124.2410   57.8430 C   0  0  0  0  0  0  0  0  0  0  0  0
  123.5640  123.3840   56.9150 C   0  0  0  0  0  0  0  0  0  0  0  0
  124.3210  122.8240   55.8900 C   0  0  0  0  0  0  0  0  0  0  0  0
  125.6770  123.1260   55.7920 C   0  0  0  0  0  0  0  0  0  0  0  0
  128.6460  124.1990   57.6970 C   0  0  0  0  0  0  0  0  0  0  0  0
  128.2070  123.6590   58.9880 C   0  0  0  0  0  0  0  0  0  0  0  0
  127.8600  123.2340   60.0070 N   0  0  0  0  0  0  0  0  0  0  0  0
  131.3770  130.2890   57.2540 C   0  0  0  0  0  0  0  0  0  0  0  0
  131.0000  131.4050   56.4910 C   0  0  0  0  0  0  0  0  0  0  0  0
  131.8100  132.5090   56.2830 O   0  0  0  0  0  0  0  0  0  0  0  0
  133.1760  132.3180   55.9330 C   0  0  0  0  0  0  0  0  0  0  0  0
  129.7310  131.4230   55.8990 C   0  0  0  0  0  0  0  0  0  0  0  0
  129.3560  132.5020   55.1340 O   0  0  0  0  0  0  0  0  0  0  0  0
  129.1430  132.1960   53.7630 C   0  0  0  0  0  0  0  0  0  0  0  0
  1  2  1  0
  2  3  1  0
  3  4  2  0
  4  5  1  0
  5  6  1  0
  6  7  1  0
  7  8  2  0
  7  9  1  0
  9 10  1  0
 10 11  1  0
 11 12  2  0
 12 13  1  0
 13 14  1  0
 13 15  2  0
 15 16  1  0
 16 17  1  0
 17 18  2  0
 18 19  1  0
 19 20  2  0
 20 21  1  0
 21 22  2  0
 16 23  2  0
 23 24  1  0
 24 25  3  0
  5 26  2  0
 26 27  1  0
 27 28  1  0
 28 29  1  0
 27 30  2  0
 30 31  1  0
 31 32  1  0
 30  3  1  0
 23 11  1  0
 22 17  1  0
M  END
>  <Binding energies>  (34) 
[-8.29]

>  <Ligand effiencies>  (34) 
[-0.25121212121212116]

>  <Interactions>  (34) 
["V-B:PRO:540:N:9856, V-B:LEU:363:CA:8157, V-B:TYR:539:CZ:9849, V-B:ILE:538:CA:9832, V-B:PRO:540:CB:9857, H-B:ALA:541:N:9863, V-B:TYR:539:CE2:9848, V-B:TYR:539:CE1:9847, V-A:TYR:539:CE1:4873, V-A:ASP:366:CG:3211, V-A:PRO:540:N:4882, H-A:TYR:539:N:4868, V-A:ILE:538:CA:4858, V-A:TYR:531:CE2:4791, H-A:TYR:531:OH:4793, V-A:LEU:363:CD1:3187, V-A:ILE:538:CB:4860, V-A:ILE:538:CG2:4861, V-A:PRO:540:CB:4883, V-B:TYR:531:CE2:9765, V-B:LEU:363:CD1:8161, V-A:MET:535:CE:4833, V-B:ILE:538:CG2:9835, V-B:PRO:540:CD:9859, V-B:ILE:538:CB:9834, V-B:PRO:540:CG:9858, H-A:ASP:366:OD2:3213, V-A:PRO:540:CD:4885, H-B:TYR:539:OH:9850, V-A:TYR:539:CD1:4871, H-A:ASP:366:OD1:3212, V-A:PRO:540:CG:4884, V-A:VAL:537:C:4848, V-B:LEU:363:CB:8159"]

$$$$
3ci_Grossjean_2025
     RDKit          3D

 25 27  0  0  0  0  0  0  0  0999 V2000
  129.4960  121.7850   60.7550 C   0  0  0  0  0  0  0  0  0  0  0  0
  129.7600  122.6430   59.5330 C   0  0  0  0  0  0  0  0  0  0  0  0
  128.8210  122.7720   58.5130 C   0  0  0  0  0  0  0  0  0  0  0  0
  129.1050  123.5900   57.4110 C   0  0  0  0  0  0  0  0  0  0  0  0
  128.0620  123.7110   56.3480 C   0  0  0  0  0  0  0  0  0  0  0  0
  126.7310  123.9970   56.6790 C   0  0  0  0  0  0  0  0  0  0  0  0
  125.7610  124.1000   55.6860 C   0  0  0  0  0  0  0  0  0  0  0  0
  126.1170  123.9100   54.3540 C   0  0  0  0  0  0  0  0  0  0  0  0
  127.4340  123.6170   54.0080 C   0  0  0  0  0  0  0  0  0  0  0  0
  128.4010  123.5150   55.0040 C   0  0  0  0  0  0  0  0  0  0  0  0
  130.3570  124.2550   57.3690 C   0  0  0  0  0  0  0  0  0  0  0  0
  130.7260  125.0900   56.2210 C   0  0  0  0  0  0  0  0  0  0  0  0
  131.0160  125.7490   55.3140 N   0  0  0  0  0  0  0  0  0  0  0  0
  131.2520  124.0730   58.4510 C   0  0  0  0  0  0  0  0  0  0  0  0
  132.8460  124.8790   58.5130 S   0  0  0  0  0  0  0  0  0  0  0  0
  134.0250  123.8280   59.4230 C   0  0  0  0  0  0  0  0  0  0  0  0
  133.6550  123.6370   60.8980 C   0  0  0  0  0  0  0  0  0  0  0  0
  133.5610  122.4950   61.3520 O   0  0  0  0  0  0  0  0  0  0  0  0
  133.4410  124.7710   61.6010 N   0  0  0  0  0  0  0  0  0  0  0  0
  133.1250  124.8780   62.9490 C   0  0  0  0  0  0  0  0  0  0  0  0
  131.8140  124.8730   63.4240 C   0  0  0  0  0  0  0  0  0  0  0  0
  131.9280  125.0000   64.7900 C   0  0  0  0  0  0  0  0  0  0  0  0
  133.2400  125.0760   65.1190 O   0  0  0  0  0  0  0  0  0  0  0  0
  133.9880  124.9980   63.9430 N   0  0  0  0  0  0  0  0  0  0  0  0
  130.9540  123.2740   59.5080 N   0  0  0  0  0  0  0  0  0  0  0  0
  1  2  1  0
  2  3  2  0
  3  4  1  0
  4  5  1  0
  5  6  2  0
  6  7  1  0
  7  8  2  0
  8  9  1  0
  9 10  2  0
  4 11  2  0
 11 12  1  0
 12 13  3  0
 11 14  1  0
 14 15  1  0
 15 16  1  0
 16 17  1  0
 17 18  2  0
 17 19  1  0
 19 20  1  0
 20 21  1  0
 21 22  2  0
 22 23  1  0
 23 24  1  0
 14 25  2  0
 25  2  1  0
 10  5  1  0
 24 20  2  0
M  END
>  <Binding energies>  (35) 
[-8.86]

>  <Ligand effiencies>  (35) 
[-0.34076923076923077]

>  <Interactions>  (35) 
["V-B:TYR:539:CZ:9849, V-B:ILE:538:CA:9832, V-B:ALA:541:CB:9864, V-B:TYR:539:CE2:9848, V-B:TYR:539:CE1:9847, V-B:TYR:539:CD1:9845, V-B:TYR:539:CD2:9846, V-A:ASP:366:CG:3211, H-A:TYR:531:OH:4793, V-A:ASP:366:CB:3210, V-B:TYR:531:CE2:9765, V-B:TYR:531:CZ:9766, V-B:TYR:539:C:9839, V-B:ILE:538:CG2:9835, V-B:ILE:538:CB:9834, V-A:ARG:545:CZ:4924, H-A:ASP:366:OD2:3213, H-A:TYR:484:OH:4346, H-A:ARG:545:NE:4922, H-A:GLY:454:N:4048, V-B:TYR:539:CG:9844, H-B:TYR:539:OH:9850, H-A:ARG:545:NH2:4926, H-A:ASP:366:OD1:3212, V-A:ILE:369:CB:3234, V-A:ILE:369:CG2:3235, V-A:ILE:369:CD1:3237, H-A:ARG:545:NH1:4925, V-A:ASP:366:CA:3208, V-B:MET:535:CG:9805, V-B:MET:535:CB:9804"]

$$$$
3ck_Grossjean_2025
     RDKit          3D

 30 31  0  0  0  0  0  0  0  0999 V2000
  125.7790  124.2100   61.4770 C   0  0  0  0  0  0  0  0  0  0  0  0
  126.4720  123.2060   60.7530 O   0  0  0  0  0  0  0  0  0  0  0  0
  127.8800  123.2470   60.9350 C   0  0  0  0  0  0  0  0  0  0  0  0
  128.5790  122.8280   59.6350 C   0  0  0  0  0  0  0  0  0  0  0  0
  127.6020  122.6240   58.6210 O   0  0  0  0  0  0  0  0  0  0  0  0
  127.0420  123.8270   58.1100 C   0  0  0  0  0  0  0  0  0  0  0  0
  125.7700  123.4910   57.3210 C   0  0  0  0  0  0  0  0  0  0  0  0
  126.1470  122.8040   56.1370 O   0  0  0  0  0  0  0  0  0  0  0  0
  125.9010  123.5130   54.9330 C   0  0  0  0  0  0  0  0  0  0  0  0
  126.7580  124.7930   54.9050 C   0  0  0  0  0  0  0  0  0  0  0  0
  128.1980  124.5370   54.8050 N   0  0  0  0  0  0  0  0  0  0  0  0
  129.1360  125.4480   54.4900 C   0  0  0  0  0  0  0  0  0  0  0  0
  128.8800  126.6340   54.2710 O   0  0  0  0  0  0  0  0  0  0  0  0
  130.5770  124.9180   54.4240 C   0  0  0  0  0  0  0  0  0  0  0  0
  131.7630  125.7290   55.5510 S   0  0  0  0  0  0  0  0  0  0  0  0
  131.1320  125.6480   57.2210 C   0  0  0  0  0  0  0  0  0  0  0  0
  129.9720  126.3160   57.4410 N   0  0  0  0  0  0  0  0  0  0  0  0
  129.4390  126.3010   58.6830 C   0  0  0  0  0  0  0  0  0  0  0  0
  128.1430  127.0710   58.8540 C   0  0  0  0  0  0  0  0  0  0  0  0
  130.0340  125.6290   59.7470 C   0  0  0  0  0  0  0  0  0  0  0  0
  131.2360  124.9380   59.5450 C   0  0  0  0  0  0  0  0  0  0  0  0
  131.8500  124.2500   60.7200 C   0  0  0  0  0  0  0  0  0  0  0  0
  133.1380  124.5990   61.1440 C   0  0  0  0  0  0  0  0  0  0  0  0
  133.7210  123.9550   62.2340 C   0  0  0  0  0  0  0  0  0  0  0  0
  133.0190  122.9540   62.8990 C   0  0  0  0  0  0  0  0  0  0  0  0
  131.7400  122.5900   62.4840 C   0  0  0  0  0  0  0  0  0  0  0  0
  131.1600  123.2360   61.3950 C   0  0  0  0  0  0  0  0  0  0  0  0
  131.8000  124.9340   58.2430 C   0  0  0  0  0  0  0  0  0  0  0  0
  133.0350  124.1930   57.9620 C   0  0  0  0  0  0  0  0  0  0  0  0
  134.0090  123.6080   57.7410 N   0  0  0  0  0  0  0  0  0  0  0  0
  1  2  1  0
  2  3  1  0
  3  4  1  0
  4  5  1  0
  5  6  1  0
  6  7  1  0
  7  8  1  0
  8  9  1  0
  9 10  1  0
 10 11  1  0
 11 12  1  0
 12 13  2  0
 12 14  1  0
 14 15  1  0
 15 16  1  0
 16 17  2  0
 17 18  1  0
 18 19  1  0
 18 20  2  0
 20 21  1  0
 21 22  1  0
 22 23  2  0
 23 24  1  0
 24 25  2  0
 25 26  1  0
 26 27  2  0
 21 28  2  0
 28 29  1  0
 29 30  3  0
 28 16  1  0
 27 22  1  0
M  END
>  <Binding energies>  (36) 
[-6.36]

>  <Ligand effiencies>  (36) 
[-0.20516129032258065]

>  <Interactions>  (36) 
["V-B:PRO:540:N:9856, V-B:TYR:539:CZ:9849, V-B:ILE:538:CA:9832, V-B:ALA:541:CB:9864, V-B:PRO:540:CB:9857, V-B:PRO:540:CA:9855, H-B:ALA:541:N:9863, V-B:TYR:539:CE2:9848, V-A:LEU:475:CD2:4257, V-B:TYR:539:CE1:9847, V-A:ASP:366:CG:3211, H-A:TYR:531:OH:4793, V-A:ASP:366:CB:3210, V-B:TYR:531:CZ:9766, H-B:TYR:539:N:9842, V-B:GLU:543:CD:9880, V-B:TYR:539:C:9839, V-B:ILE:538:CG2:9835, V-B:PRO:540:CD:9859, V-B:ILE:538:CB:9834, V-A:GLY:454:CA:4047, H-B:TYR:539:OH:9850, V-A:ASP:366:CA:3208, V-B:MET:535:CG:9805, V-A:GLY:453:CA:4042, V-A:GLY:453:C:4040"]

$$$$
4aa_Grossjean_2025
     RDKit          3D

 26 28  0  0  0  0  0  0  0  0999 V2000
  130.6130  126.4700   72.3000 C   0  0  0  0  0  0  0  0  0  0  0  0
  129.6310  127.5690   72.7170 C   0  0  0  0  0  0  0  0  0  0  0  0
  129.3420  128.3940   71.5960 O   0  0  0  0  0  0  0  0  0  0  0  0
  128.4360  128.0120   70.6580 C   0  0  0  0  0  0  0  0  0  0  0  0
  127.2170  127.9860   70.8600 O   0  0  0  0  0  0  0  0  0  0  0  0
  129.0640  127.6190   69.3530 C   0  0  0  0  0  0  0  0  0  0  0  0
  128.2410  127.2350   68.2860 C   0  0  0  0  0  0  0  0  0  0  0  0
  128.7930  126.8610   67.0640 C   0  0  0  0  0  0  0  0  0  0  0  0
  130.1760  126.8710   66.8800 C   0  0  0  0  0  0  0  0  0  0  0  0
  130.6270  126.4660   65.6090 N   0  0  0  0  0  0  0  0  0  0  0  0
  131.7610  125.8170   65.2500 C   0  0  0  0  0  0  0  0  0  0  0  0
  132.6530  125.4970   66.0350 O   0  0  0  0  0  0  0  0  0  0  0  0
  131.8880  125.5260   63.8210 C   0  0  0  0  0  0  0  0  0  0  0  0
  133.2860  124.6330   63.2150 S   0  0  0  0  0  0  0  0  0  0  0  0
  132.7130  124.7620   61.5680 C   0  0  0  0  0  0  0  0  0  0  0  0
  133.3880  124.2390   60.5430 N   0  0  0  0  0  0  0  0  0  0  0  0
  132.8360  124.4130   59.3170 C   0  0  0  0  0  0  0  0  0  0  0  0
  133.6230  123.8140   58.1640 C   0  0  0  0  0  0  0  0  0  0  0  0
  131.6380  125.0870   59.0940 C   0  0  0  0  0  0  0  0  0  0  0  0
  130.9320  125.6330   60.1720 C   0  0  0  0  0  0  0  0  0  0  0  0
  129.6280  126.3600   59.8790 C   0  0  0  0  0  0  0  0  0  0  0  0
  131.4800  125.4750   61.4730 C   0  0  0  0  0  0  0  0  0  0  0  0
  131.0350  125.9030   62.7720 C   0  0  0  0  0  0  0  0  0  0  0  0
  129.8740  126.6130   62.9490 N   0  0  0  0  0  0  0  0  0  0  0  0
  131.0090  127.2490   67.9430 C   0  0  0  0  0  0  0  0  0  0  0  0
  130.4550  127.6200   69.1660 C   0  0  0  0  0  0  0  0  0  0  0  0
  1  2  1  0
  2  3  1  0
  3  4  1  0
  4  5  2  0
  4  6  1  0
  6  7  2  0
  7  8  1  0
  8  9  2  0
  9 10  1  0
 10 11  1  0
 11 12  2  0
 11 13  1  0
 13 14  1  0
 14 15  1  0
 15 16  2  0
 16 17  1  0
 17 18  1  0
 17 19  2  0
 19 20  1  0
 20 21  1  0
 20 22  2  0
 22 23  1  0
 23 24  1  0
  9 25  1  0
 25 26  2  0
 26  6  1  0
 23 13  2  0
 22 15  1  0
M  END
>  <Binding energies>  (37) 
[-7.2]

>  <Ligand effiencies>  (37) 
[-0.2482758620689655]

>  <Interactions>  (37) 
["H-B:GLU:543:OE1:9881, V-B:TYR:539:CZ:9849, V-B:TYR:539:CE2:9848, V-A:ASP:366:CG:3211, V-A:ASP:366:CB:3210, V-A:GLU:543:CD:4906, V-B:GLU:543:CD:9880, H-B:GLU:543:OE2:9882, V-A:ARG:545:CZ:4924, H-A:GLU:543:OE2:4908, H-A:GLU:543:OE1:4907, V-A:ARG:545:CD:4921, H-A:TYR:484:OH:4346, H-A:ARG:545:NE:4922, V-A:ILE:369:CB:3234, V-A:ILE:369:CG2:3235, V-A:ASP:366:CA:3208, V-B:HIS:456:CE1:9042, V-A:HIS:456:CD2:4066, V-A:HIS:456:CG:4064, V-B:HIS:456:CD2:9040, V-A:LYS:547:CE:4948, V-A:HIS:456:CE1:4068, V-A:GLY:544:C:4910, V-B:GLU:543:CG:9879, V-B:GLU:543:C:9874, V-A:ARG:545:CG:4920, V-A:GLU:543:CG:4905, V-B:GLU:543:CB:9878, V-A:GLU:543:C:4900, H-A:HIS:456:ND1:4065, H-B:HIS:456:ND1:9039"]

$$$$
4ab_Grossjean_2025
     RDKit          3D

 25 27  0  0  0  0  0  0  0  0999 V2000
  130.1360  127.2460   72.5450 C   0  0  0  0  0  0  0  0  0  0  0  0
  129.4860  128.3400   71.9150 O   0  0  0  0  0  0  0  0  0  0  0  0
  128.4400  128.1410   71.0730 C   0  0  0  0  0  0  0  0  0  0  0  0
  127.2610  128.3110   71.4010 O   0  0  0  0  0  0  0  0  0  0  0  0
  128.8580  127.6860   69.7050 C   0  0  0  0  0  0  0  0  0  0  0  0
  130.2230  127.6240   69.3930 C   0  0  0  0  0  0  0  0  0  0  0  0
  130.6430  127.2080   68.1320 C   0  0  0  0  0  0  0  0  0  0  0  0
  129.7110  126.8380   67.1630 C   0  0  0  0  0  0  0  0  0  0  0  0
  130.2450  126.4420   65.9220 N   0  0  0  0  0  0  0  0  0  0  0  0
  131.5130  126.0990   65.5870 C   0  0  0  0  0  0  0  0  0  0  0  0
  132.4660  126.1230   66.3660 O   0  0  0  0  0  0  0  0  0  0  0  0
  131.7040  125.7060   64.1900 C   0  0  0  0  0  0  0  0  0  0  0  0
  133.1640  124.8430   63.6990 S   0  0  0  0  0  0  0  0  0  0  0  0
  132.6440  124.8140   62.0300 C   0  0  0  0  0  0  0  0  0  0  0  0
  133.3790  124.2510   61.0700 N   0  0  0  0  0  0  0  0  0  0  0  0
  132.8620  124.2990   59.8180 C   0  0  0  0  0  0  0  0  0  0  0  0
  133.7170  123.6570   58.7410 C   0  0  0  0  0  0  0  0  0  0  0  0
  131.6380  124.8870   59.5070 C   0  0  0  0  0  0  0  0  0  0  0  0
  130.8690  125.4780   60.5160 C   0  0  0  0  0  0  0  0  0  0  0  0
  129.5410  126.1090   60.1260 C   0  0  0  0  0  0  0  0  0  0  0  0
  131.3800  125.4510   61.8420 C   0  0  0  0  0  0  0  0  0  0  0  0
  130.8700  125.9560   63.0880 C   0  0  0  0  0  0  0  0  0  0  0  0
  129.6710  126.6170   63.1740 N   0  0  0  0  0  0  0  0  0  0  0  0
  128.3420  126.9030   67.4640 C   0  0  0  0  0  0  0  0  0  0  0  0
  127.9240  127.3220   68.7240 C   0  0  0  0  0  0  0  0  0  0  0  0
  1  2  1  0
  2  3  1  0
  3  4  2  0
  3  5  1  0
  5  6  2  0
  6  7  1  0
  7  8  2  0
  8  9  1  0
  9 10  1  0
 10 11  2  0
 10 12  1  0
 12 13  1  0
 13 14  1  0
 14 15  2  0
 15 16  1  0
 16 17  1  0
 16 18  2  0
 18 19  1  0
 19 20  1  0
 19 21  2  0
 21 22  1  0
 22 23  1  0
  8 24  1  0
 24 25  2  0
 25  5  1  0
 22 12  2  0
 21 14  1  0
M  END
>  <Binding energies>  (38) 
[-6.96]

>  <Ligand effiencies>  (38) 
[-0.24857142857142858]

>  <Interactions>  (38) 
["H-B:GLU:543:OE1:9881, V-B:TYR:539:CE2:9848, V-A:ASP:366:CG:3211, V-A:GLU:543:CD:4906, V-B:GLU:543:CD:9880, H-B:GLU:543:OE2:9882, V-A:ARG:545:CZ:4924, H-A:GLU:543:OE2:4908, H-A:GLU:543:OE1:4907, V-A:ARG:545:CD:4921, H-A:TYR:484:OH:4346, H-A:ARG:545:NE:4922, V-A:ILE:369:CB:3234, V-A:ILE:369:CG2:3235, V-A:ILE:369:CD1:3237, V-A:ASP:366:CA:3208, V-B:HIS:456:CE1:9042, V-B:HIS:456:CD2:9040, V-A:LYS:547:CE:4948, V-A:HIS:456:CE1:4068, V-A:GLY:544:C:4910, V-B:GLU:543:CG:9879, V-B:GLU:543:C:9874, V-A:ARG:545:CG:4920, V-A:GLU:543:CG:4905, V-B:GLU:543:CB:9878, V-A:GLU:543:C:4900, H-A:HIS:456:ND1:4065, H-B:HIS:456:ND1:9039"]

$$$$
4ac_Grossjean_2025
     RDKit          3D

 23 25  0  0  0  0  0  0  0  0999 V2000
  134.0500  124.9910   66.1990 C   0  0  0  0  0  0  0  0  0  0  0  0
  134.3560  125.2650   64.8350 O   0  0  0  0  0  0  0  0  0  0  0  0
  133.4050  125.0080   63.8670 C   0  0  0  0  0  0  0  0  0  0  0  0
  132.0830  125.2990   64.2000 C   0  0  0  0  0  0  0  0  0  0  0  0
  131.0560  125.0740   63.2870 C   0  0  0  0  0  0  0  0  0  0  0  0
  131.3410  124.5610   62.0210 C   0  0  0  0  0  0  0  0  0  0  0  0
  130.2390  124.3540   61.1710 N   0  0  0  0  0  0  0  0  0  0  0  0
  130.1150  123.5100   60.1190 C   0  0  0  0  0  0  0  0  0  0  0  0
  131.0200  122.7810   59.7100 O   0  0  0  0  0  0  0  0  0  0  0  0
  128.8050  123.5140   59.4620 C   0  0  0  0  0  0  0  0  0  0  0  0
  128.6730  123.1800   57.7350 S   0  0  0  0  0  0  0  0  0  0  0  0
  126.9350  123.3760   57.7810 C   0  0  0  0  0  0  0  0  0  0  0  0
  126.1790  123.2360   56.6920 N   0  0  0  0  0  0  0  0  0  0  0  0
  124.8470  123.4150   56.8650 C   0  0  0  0  0  0  0  0  0  0  0  0
  124.0050  123.2510   55.6130 C   0  0  0  0  0  0  0  0  0  0  0  0
  124.2600  123.7290   58.0890 C   0  0  0  0  0  0  0  0  0  0  0  0
  125.0560  123.8750   59.2300 C   0  0  0  0  0  0  0  0  0  0  0  0
  124.3680  124.2180   60.5430 C   0  0  0  0  0  0  0  0  0  0  0  0
  126.4580  123.6930   59.0880 C   0  0  0  0  0  0  0  0  0  0  0  0
  127.5450  123.7640   60.0280 C   0  0  0  0  0  0  0  0  0  0  0  0
  127.3470  124.0530   61.3540 N   0  0  0  0  0  0  0  0  0  0  0  0
  132.6670  124.2530   61.6830 C   0  0  0  0  0  0  0  0  0  0  0  0
  133.6920  124.4800   62.5980 C   0  0  0  0  0  0  0  0  0  0  0  0
  1  2  1  0
  2  3  1  0
  3  4  2  0
  4  5  1  0
  5  6  2  0
  6  7  1  0
  7  8  1  0
  8  9  2  0
  8 10  1  0
 10 11  1  0
 11 12  1  0
 12 13  2  0
 13 14  1  0
 14 15  1  0
 14 16  2  0
 16 17  1  0
 17 18  1  0
 17 19  2  0
 19 20  1  0
 20 21  1  0
  6 22  1  0
 22 23  2  0
 23  3  1  0
 20 10  2  0
 19 12  1  0
M  END
>  <Binding energies>  (39) 
[-7.03]

>  <Ligand effiencies>  (39) 
[-0.2703846153846154]

>  <Interactions>  (39) 
["V-B:PRO:540:N:9856, H-B:GLU:543:OE1:9881, V-B:TYR:539:CZ:9849, V-B:ASP:366:CG:8185, V-B:PRO:540:CB:9857, V-B:PRO:540:CA:9855, V-B:TYR:539:CE2:9848, V-B:TYR:539:CD2:9846, V-B:TYR:531:CE2:9765, V-B:LEU:363:CD1:8161, V-B:TYR:531:CZ:9766, V-B:ASN:362:CB:8148, H-B:TYR:539:N:9842, V-B:GLU:543:CD:9880, V-B:TYR:539:C:9839, V-B:ILE:538:CG2:9835, V-B:PRO:540:CD:9859, V-B:ILE:538:CB:9834, H-B:GLU:543:OE2:9882, V-B:PRO:540:CG:9858, V-A:ARG:545:CZ:4924, V-A:GLY:454:CA:4047, V-A:ARG:545:CD:4921, H-A:TYR:484:OH:4346, H-A:ARG:545:NE:4922, H-A:GLY:454:N:4048, V-B:TYR:539:CG:9844, H-A:ARG:545:NH1:4925, V-A:HIS:456:CE1:4068, V-A:ARG:545:CG:4920, V-A:GLY:453:CA:4042, V-A:GLY:453:C:4040, V-A:TYR:484:CZ:4345, V-B:ASN:362:C:8144"]

$$$$
4ad_Grossjean_2025
     RDKit          3D

 21 23  0  0  0  0  0  0  0  0999 V2000
  125.9910  116.7990   70.7680 C   0  0  0  0  0  0  0  0  0  0  0  0
  126.7950  117.7120   71.6740 C   0  0  0  0  0  0  0  0  0  0  0  0
  127.0890  117.3450   72.9860 C   0  0  0  0  0  0  0  0  0  0  0  0
  127.8310  118.2050   73.8040 C   0  0  0  0  0  0  0  0  0  0  0  0
  128.1250  117.7610   75.2290 C   0  0  0  0  0  0  0  0  0  0  0  0
  128.2600  119.4410   73.2500 C   0  0  0  0  0  0  0  0  0  0  0  0
  129.0210  120.5350   73.7920 C   0  0  0  0  0  0  0  0  0  0  0  0
  129.4980  120.5270   75.0790 N   0  0  0  0  0  0  0  0  0  0  0  0
  129.2240  121.5920   72.8900 C   0  0  0  0  0  0  0  0  0  0  0  0
  129.9310  122.8540   73.1100 C   0  0  0  0  0  0  0  0  0  0  0  0
  129.4340  123.9240   72.7500 O   0  0  0  0  0  0  0  0  0  0  0  0
  131.1310  122.7470   73.7320 N   0  0  0  0  0  0  0  0  0  0  0  0
  132.0680  123.7500   74.0490 C   0  0  0  0  0  0  0  0  0  0  0  0
  131.7220  125.0510   73.6710 C   0  0  0  0  0  0  0  0  0  0  0  0
  132.5780  126.1130   73.9500 C   0  0  0  0  0  0  0  0  0  0  0  0
  133.7770  125.8770   74.6150 C   0  0  0  0  0  0  0  0  0  0  0  0
  134.1270  124.5880   75.0090 C   0  0  0  0  0  0  0  0  0  0  0  0
  133.2740  123.5230   74.7310 C   0  0  0  0  0  0  0  0  0  0  0  0
  128.4730  121.2490   71.3300 S   0  0  0  0  0  0  0  0  0  0  0  0
  127.8930  119.7000   71.8950 C   0  0  0  0  0  0  0  0  0  0  0  0
  127.1870  118.8810   71.1130 N   0  0  0  0  0  0  0  0  0  0  0  0
  1  2  1  0
  2  3  2  0
  3  4  1  0
  4  5  1  0
  4  6  2  0
  6  7  1  0
  7  8  1  0
  7  9  2  0
  9 10  1  0
 10 11  2  0
 10 12  1  0
 12 13  1  0
 13 14  2  0
 14 15  1  0
 15 16  2  0
 16 17  1  0
 17 18  2  0
  9 19  1  0
 19 20  1  0
 20 21  2  0
 21  2  1  0
 20  6  1  0
 18 13  1  0
M  END
>  <Binding energies>  (40) 
[-7.18]

>  <Ligand effiencies>  (40) 
[-0.29916666666666664]

>  <Interactions>  (40) 
["V-A:LYS:471:CE:4218, V-A:HIS:456:CB:4063, V-A:HIS:456:CD2:4066, V-A:VAL:458:CG2:4085, V-A:HIS:456:CG:4064, V-A:HIS:456:C:4059, V-A:VAL:457:C:4071, V-A:ASP:473:CG:4238, V-A:HIS:456:CA:4061, H-B:LYS:547:NZ:9923, V-B:LYS:547:CE:9922, V-B:GLY:544:CA:9886, V-B:GLU:543:C:9874, V-A:TYR:484:CG:4340, V-A:TYR:484:CB:4339, V-B:VAL:542:CG1:9871, V-B:GLU:543:CA:9876, V-A:TYR:484:CD1:4341, H-A:ASP:473:OD2:4240, H-A:TYR:484:N:4338, V-A:SER:483:CB:4331"]

$$$$
4ae_Grossjean_2025
     RDKit          3D

 22 24  0  0  0  0  0  0  0  0999 V2000
  131.9210  126.8860   74.2470 C   0  0  0  0  0  0  0  0  0  0  0  0
  132.3030  125.4290   74.4210 C   0  0  0  0  0  0  0  0  0  0  0  0
  133.5400  125.0560   74.9520 C   0  0  0  0  0  0  0  0  0  0  0  0
  133.8260  123.6960   75.0760 C   0  0  0  0  0  0  0  0  0  0  0  0
  132.8810  122.7520   74.6680 C   0  0  0  0  0  0  0  0  0  0  0  0
  131.6580  123.1940   74.1520 C   0  0  0  0  0  0  0  0  0  0  0  0
  130.7550  122.1980   73.7400 N   0  0  0  0  0  0  0  0  0  0  0  0
  129.6130  122.3330   73.0220 C   0  0  0  0  0  0  0  0  0  0  0  0
  129.1820  123.4140   72.6150 O   0  0  0  0  0  0  0  0  0  0  0  0
  128.8910  121.0880   72.7510 C   0  0  0  0  0  0  0  0  0  0  0  0
  128.0290  120.8710   71.2270 S   0  0  0  0  0  0  0  0  0  0  0  0
  127.4740  119.2850   71.7110 C   0  0  0  0  0  0  0  0  0  0  0  0
  126.7040  118.5370   70.9220 N   0  0  0  0  0  0  0  0  0  0  0  0
  126.3380  117.3300   71.4170 C   0  0  0  0  0  0  0  0  0  0  0  0
  125.4550  116.4970   70.5060 C   0  0  0  0  0  0  0  0  0  0  0  0
  126.7240  116.8580   72.6710 C   0  0  0  0  0  0  0  0  0  0  0  0
  127.5340  117.6460   73.4960 C   0  0  0  0  0  0  0  0  0  0  0  0
  127.9260  117.0890   74.8570 C   0  0  0  0  0  0  0  0  0  0  0  0
  127.9360  118.9200   73.0110 C   0  0  0  0  0  0  0  0  0  0  0  0
  128.7440  119.9650   73.5820 C   0  0  0  0  0  0  0  0  0  0  0  0
  129.3100  119.8570   74.8270 N   0  0  0  0  0  0  0  0  0  0  0  0
  131.3740  124.5240   74.0220 N   0  0  0  0  0  0  0  0  0  0  0  0
  1  2  1  0
  2  3  2  0
  3  4  1  0
  4  5  2  0
  5  6  1  0
  6  7  1  0
  7  8  1  0
  8  9  2  0
  8 10  1  0
 10 11  1  0
 11 12  1  0
 12 13  2  0
 13 14  1  0
 14 15  1  0
 14 16  2  0
 16 17  1  0
 17 18  1  0
 17 19  2  0
 19 20  1  0
 20 21  1  0
  6 22  2  0
 22  2  1  0
 20 10  2  0
 19 12  1  0
M  END
>  <Binding energies>  (41) 
[-7.17]

>  <Ligand effiencies>  (41) 
[-0.2868]

>  <Interactions>  (41) 
["V-A:LYS:471:CE:4218, V-A:HIS:456:CB:4063, V-A:HIS:456:CD2:4066, V-A:VAL:458:CG2:4085, V-A:HIS:456:CG:4064, V-A:HIS:456:C:4059, V-A:LYS:471:CG:4216, V-A:LYS:547:CE:4948, V-A:ASP:473:CG:4238, V-A:LYS:471:CD:4217, H-B:LYS:547:NZ:9923, V-B:LYS:547:CE:9922, V-B:GLY:544:CA:9886, V-B:GLU:543:C:9874, V-A:TYR:484:CB:4339, V-B:VAL:542:CG1:9871, V-B:GLU:543:CA:9876, V-A:TYR:484:CD1:4341, V-A:LYS:547:CG:4946, H-A:ASP:473:OD2:4240, V-A:ASP:473:CB:4237, V-A:LYS:547:CD:4947, H-A:TYR:484:N:4338, V-A:SER:483:CB:4331"]

$$$$
4af_Grossjean_2025
     RDKit          3D

 21 23  0  0  0  0  0  0  0  0999 V2000
  131.6290  131.8180   55.2720 C   0  0  0  0  0  0  0  0  0  0  0  0
  131.3140  131.7300   56.7550 C   0  0  0  0  0  0  0  0  0  0  0  0
  132.3110  131.4390   57.6830 C   0  0  0  0  0  0  0  0  0  0  0  0
  131.9970  131.3600   59.0460 C   0  0  0  0  0  0  0  0  0  0  0  0
  133.1180  131.0380   60.0210 C   0  0  0  0  0  0  0  0  0  0  0  0
  130.6470  131.5840   59.4290 C   0  0  0  0  0  0  0  0  0  0  0  0
  129.9880  131.5790   60.7080 C   0  0  0  0  0  0  0  0  0  0  0  0
  130.6620  131.3260   61.8770 N   0  0  0  0  0  0  0  0  0  0  0  0
  128.6130  131.8530   60.6430 C   0  0  0  0  0  0  0  0  0  0  0  0
  127.6400  131.8980   61.7360 C   0  0  0  0  0  0  0  0  0  0  0  0
  127.1550  132.9700   62.1010 O   0  0  0  0  0  0  0  0  0  0  0  0
  127.3210  130.6970   62.2770 N   0  0  0  0  0  0  0  0  0  0  0  0
  126.4690  130.4000   63.3570 C   0  0  0  0  0  0  0  0  0  0  0  0
  126.8680  129.8270   64.5790 C   0  0  0  0  0  0  0  0  0  0  0  0
  125.9150  129.5660   65.5640 C   0  0  0  0  0  0  0  0  0  0  0  0
  124.5800  129.8810   65.3040 C   0  0  0  0  0  0  0  0  0  0  0  0
  124.1680  130.4260   64.1320 N   0  0  0  0  0  0  0  0  0  0  0  0
  125.1060  130.6730   63.1840 C   0  0  0  0  0  0  0  0  0  0  0  0
  128.0960  132.1250   58.9770 S   0  0  0  0  0  0  0  0  0  0  0  0
  129.7220  131.8740   58.3820 C   0  0  0  0  0  0  0  0  0  0  0  0
  130.0170  131.9500   57.0830 N   0  0  0  0  0  0  0  0  0  0  0  0
  1  2  1  0
  2  3  2  0
  3  4  1  0
  4  5  1  0
  4  6  2  0
  6  7  1  0
  7  8  1  0
  7  9  2  0
  9 10  1  0
 10 11  2  0
 10 12  1  0
 12 13  1  0
 13 14  2  0
 14 15  1  0
 15 16  2  0
 16 17  1  0
 17 18  2  0
  9 19  1  0
 19 20  1  0
 20 21  2  0
 21  2  1  0
 20  6  1  0
 18 13  1  0
M  END
>  <Binding energies>  (42) 
[-7.12]

>  <Ligand effiencies>  (42) 
[-0.2966666666666667]

>  <Interactions>  (42) 
["V-A:ASP:366:CG:3211, V-A:PRO:540:N:4882, V-A:ILE:538:CA:4858, V-A:TYR:531:CE2:4791, V-A:TYR:539:C:4865, V-A:ILE:538:CB:4860, V-A:PRO:540:CA:4881, V-A:ILE:538:CG2:4861, V-A:GLU:543:CD:4906, V-A:PRO:540:CB:4883, V-B:ARG:545:CZ:9898, H-A:GLU:543:OE2:4908, H-A:GLU:543:OE1:4907, V-A:PRO:540:CD:4885, V-A:ASN:362:CB:3174, V-A:TYR:539:CE2:4874, H-B:GLY:454:N:9022, V-A:ALA:541:CB:4890, H-B:TYR:484:OH:9320, V-A:TYR:539:CD2:4872, V-B:HIS:456:CE1:9042, V-A:ALA:541:CA:4888, V-B:ARG:545:CG:9894, V-B:ARG:545:CD:9895, H-A:ALA:541:O:4887"]

$$$$
4ag_Grossjean_2025
     RDKit          3D

 22 24  0  0  0  0  0  0  0  0999 V2000
  130.2040  120.2700   60.3730 C   0  0  0  0  0  0  0  0  0  0  0  0
  131.0010  121.3960   61.0040 C   0  0  0  0  0  0  0  0  0  0  0  0
  132.0890  121.9630   60.3420 C   0  0  0  0  0  0  0  0  0  0  0  0
  132.8100  123.0020   60.9420 C   0  0  0  0  0  0  0  0  0  0  0  0
  133.9880  123.5880   60.1790 C   0  0  0  0  0  0  0  0  0  0  0  0
  132.3940  123.4420   62.2270 C   0  0  0  0  0  0  0  0  0  0  0  0
  132.8930  124.4600   63.1110 C   0  0  0  0  0  0  0  0  0  0  0  0
  133.9740  125.2430   62.7920 N   0  0  0  0  0  0  0  0  0  0  0  0
  132.1790  124.5700   64.3130 C   0  0  0  0  0  0  0  0  0  0  0  0
  132.4040  125.4960   65.4220 C   0  0  0  0  0  0  0  0  0  0  0  0
  133.5020  125.5790   65.9770 O   0  0  0  0  0  0  0  0  0  0  0  0
  131.3400  126.2320   65.8070 N   0  0  0  0  0  0  0  0  0  0  0  0
  131.3440  127.2350   66.8710 C   0  0  0  0  0  0  0  0  0  0  0  0
  130.0800  127.2380   67.7230 C   0  0  0  0  0  0  0  0  0  0  0  0
  130.1810  127.2490   69.1180 C   0  0  0  0  0  0  0  0  0  0  0  0
  129.0290  127.2770   69.8990 C   0  0  0  0  0  0  0  0  0  0  0  0
  127.7790  127.3040   69.2830 C   0  0  0  0  0  0  0  0  0  0  0  0
  127.6710  127.3090   67.8950 C   0  0  0  0  0  0  0  0  0  0  0  0
  128.8230  127.2820   67.1130 C   0  0  0  0  0  0  0  0  0  0  0  0
  130.8500  123.4110   64.3760 S   0  0  0  0  0  0  0  0  0  0  0  0
  131.2650  122.7810   62.7980 C   0  0  0  0  0  0  0  0  0  0  0  0
  130.5750  121.7910   62.2280 N   0  0  0  0  0  0  0  0  0  0  0  0
  1  2  1  0
  2  3  2  0
  3  4  1  0
  4  5  1  0
  4  6  2  0
  6  7  1  0
  7  8  1  0
  7  9  2  0
  9 10  1  0
 10 11  2  0
 10 12  1  0
 12 13  1  0
 13 14  1  0
 14 15  2  0
 15 16  1  0
 16 17  2  0
 17 18  1  0
 18 19  2  0
  9 20  1  0
 20 21  1  0
 21 22  2  0
 22  2  1  0
 21  6  1  0
 19 14  1  0
M  END
>  <Binding energies>  (43) 
[-7.0]

>  <Ligand effiencies>  (43) 
[-0.28]

>  <Interactions>  (43) 
["H-B:GLU:543:OE1:9881, V-A:TRP:381:CH2:3370, V-B:ALA:541:CB:9864, V-B:TYR:539:CE2:9848, V-A:LEU:475:CD2:4257, V-B:TYR:539:CD2:9846, V-A:GLU:543:CD:4906, V-B:GLU:543:CD:9880, H-B:GLU:543:OE2:9882, V-A:ARG:545:CZ:4924, H-A:GLU:543:OE2:4908, V-A:ARG:545:CD:4921, H-A:TYR:484:OH:4346, H-A:ARG:545:NE:4922, H-A:ASP:366:OD1:3212, V-A:ILE:369:CG2:3235, V-A:ILE:369:CD1:3237, V-B:HIS:456:CE1:9042, V-B:GLY:544:C:9884, V-A:HIS:456:CE1:4068, V-B:GLU:543:CG:9879, V-B:GLU:543:C:9874, V-A:ARG:545:CG:4920, V-A:GLY:453:CA:4042, V-A:GLY:453:C:4040, V-A:GLU:543:CG:4905, V-A:TYR:484:CZ:4345, V-B:ARG:545:CG:9894, V-B:GLU:543:CB:9878, V-A:GLU:543:C:4900, V-A:TYR:484:CE1:4343, H-A:HIS:456:ND1:4065"]

$$$$
4ah_Grossjean_2025
     RDKit          3D

 28 30  0  0  0  0  0  0  0  0999 V2000
  133.2340  132.3740   55.8710 C   0  0  0  0  0  0  0  0  0  0  0  0
  131.8700  132.7730   55.9430 O   0  0  0  0  0  0  0  0  0  0  0  0
  131.0390  132.1840   56.8810 C   0  0  0  0  0  0  0  0  0  0  0  0
  131.4730  131.7260   58.1350 C   0  0  0  0  0  0  0  0  0  0  0  0
  130.5780  131.1400   59.0300 C   0  0  0  0  0  0  0  0  0  0  0  0
  131.0590  130.6910   60.4060 C   0  0  0  0  0  0  0  0  0  0  0  0
  131.2820  129.2480   60.5060 N   0  0  0  0  0  0  0  0  0  0  0  0
  130.3130  128.3100   60.5700 C   0  0  0  0  0  0  0  0  0  0  0  0
  129.1140  128.5930   60.5880 O   0  0  0  0  0  0  0  0  0  0  0  0
  130.7690  126.9240   60.6600 C   0  0  0  0  0  0  0  0  0  0  0  0
  131.4330  126.1150   59.2380 S   0  0  0  0  0  0  0  0  0  0  0  0
  131.6570  124.6290   60.1340 C   0  0  0  0  0  0  0  0  0  0  0  0
  132.1740  123.5360   59.5720 N   0  0  0  0  0  0  0  0  0  0  0  0
  132.2960  122.4530   60.3760 C   0  0  0  0  0  0  0  0  0  0  0  0
  132.8840  121.2200   59.7150 C   0  0  0  0  0  0  0  0  0  0  0  0
  131.9190  122.4370   61.7160 C   0  0  0  0  0  0  0  0  0  0  0  0
  131.3740  123.5840   62.3050 C   0  0  0  0  0  0  0  0  0  0  0  0
  130.9760  123.5170   63.7720 C   0  0  0  0  0  0  0  0  0  0  0  0
  131.2280  124.7410   61.4920 C   0  0  0  0  0  0  0  0  0  0  0  0
  130.7150  126.0570   61.7610 C   0  0  0  0  0  0  0  0  0  0  0  0
  130.2290  126.4180   62.9920 N   0  0  0  0  0  0  0  0  0  0  0  0
  129.2300  131.0340   58.6860 C   0  0  0  0  0  0  0  0  0  0  0  0
  128.7690  131.4780   57.4380 C   0  0  0  0  0  0  0  0  0  0  0  0
  127.4510  131.3900   57.0250 O   0  0  0  0  0  0  0  0  0  0  0  0
  126.6600  130.2840   57.4490 C   0  0  0  0  0  0  0  0  0  0  0  0
  129.6850  132.0460   56.5410 C   0  0  0  0  0  0  0  0  0  0  0  0
  129.2440  132.5020   55.3220 O   0  0  0  0  0  0  0  0  0  0  0  0
  129.4460  131.5860   54.2540 C   0  0  0  0  0  0  0  0  0  0  0  0
  1  2  1  0
  2  3  1  0
  3  4  2  0
  4  5  1  0
  5  6  1  0
  6  7  1  0
  7  8  1  0
  8  9  2  0
  8 10  1  0
 10 11  1  0
 11 12  1  0
 12 13  2  0
 13 14  1  0
 14 15  1  0
 14 16  2  0
 16 17  1  0
 17 18  1  0
 17 19  2  0
 19 20  1  0
 20 21  1  0
  5 22  2  0
 22 23  1  0
 23 24  1  0
 24 25  1  0
 23 26  2  0
 26 27  1  0
 27 28  1  0
 26  3  1  0
 20 10  2  0
 19 12  1  0
M  END
>  <Binding energies>  (44) 
[-7.22]

>  <Ligand effiencies>  (44) 
[-0.2329032258064516]

>  <Interactions>  (44) 
["H-B:GLU:543:OE1:9881, V-A:TRP:381:CH2:3370, V-B:TYR:539:CE2:9848, V-A:LEU:475:CD2:4257, V-B:TYR:539:CD2:9846, V-A:ASP:366:CG:3211, V-A:PRO:540:N:4882, H-A:TYR:539:N:4868, V-A:ILE:538:CA:4858, V-A:TYR:539:CZ:4875, V-A:TYR:531:CE2:4791, V-A:TYR:539:C:4865, V-A:LEU:363:CD1:3187, V-A:ILE:538:CB:4860, V-A:PRO:540:CA:4881, V-A:ILE:538:CG2:4861, V-A:GLU:543:CD:4906, V-A:PRO:540:CB:4883, V-B:GLU:543:CD:9880, H-B:GLU:543:OE2:9882, H-A:GLU:543:OE2:4908, H-A:GLU:543:OE1:4907, H-A:ASP:366:OD2:3213, V-A:PRO:540:CD:4885, V-A:TYR:539:CE2:4874, H-A:TYR:539:OH:4876, H-A:ASP:366:OD1:3212, V-A:ILE:369:CG2:3235, V-A:PRO:540:CG:4884"]

$$$$
4ai_Grossjean_2025
     RDKit          3D

 20 22  0  0  0  0  0  0  0  0999 V2000
  124.7910  123.4610   55.7550 C   0  0  0  0  0  0  0  0  0  0  0  0
  125.4840  123.5790   57.1000 C   0  0  0  0  0  0  0  0  0  0  0  0
  124.7560  123.8310   58.2620 C   0  0  0  0  0  0  0  0  0  0  0  0
  125.4150  123.9290   59.4920 C   0  0  0  0  0  0  0  0  0  0  0  0
  124.5770  124.2030   60.7320 C   0  0  0  0  0  0  0  0  0  0  0  0
  126.8270  123.7640   59.5040 C   0  0  0  0  0  0  0  0  0  0  0  0
  127.7980  123.8000   60.5640 C   0  0  0  0  0  0  0  0  0  0  0  0
  127.4480  124.0340   61.8700 N   0  0  0  0  0  0  0  0  0  0  0  0
  129.1160  123.5690   60.1390 C   0  0  0  0  0  0  0  0  0  0  0  0
  130.3410  123.5450   60.9400 C   0  0  0  0  0  0  0  0  0  0  0  0
  131.3190  122.8900   60.5750 O   0  0  0  0  0  0  0  0  0  0  0  0
  130.3100  124.2950   62.0710 N   0  0  0  0  0  0  0  0  0  0  0  0
  131.3270  124.4600   63.0020 C   0  0  0  0  0  0  0  0  0  0  0  0
  131.1210  125.0120   64.2660 C   0  0  0  0  0  0  0  0  0  0  0  0
  132.3580  125.0030   64.8680 C   0  0  0  0  0  0  0  0  0  0  0  0
  133.2630  124.4730   64.0110 O   0  0  0  0  0  0  0  0  0  0  0  0
  132.5980  124.1310   62.8330 N   0  0  0  0  0  0  0  0  0  0  0  0
  129.1870  123.3240   58.3920 S   0  0  0  0  0  0  0  0  0  0  0  0
  127.4540  123.5100   58.2470 C   0  0  0  0  0  0  0  0  0  0  0  0
  126.8290  123.4170   57.0720 N   0  0  0  0  0  0  0  0  0  0  0  0
  1  2  1  0
  2  3  2  0
  3  4  1  0
  4  5  1  0
  4  6  2  0
  6  7  1  0
  7  8  1  0
  7  9  2  0
  9 10  1  0
 10 11  2  0
 10 12  1  0
 12 13  1  0
 13 14  1  0
 14 15  2  0
 15 16  1  0
 16 17  1  0
  9 18  1  0
 18 19  1  0
 19 20  2  0
 20  2  1  0
 19  6  1  0
 17 13  2  0
M  END
>  <Binding energies>  (45) 
[-6.9]

>  <Ligand effiencies>  (45) 
[-0.3]

>  <Interactions>  (45) 
["V-B:PRO:540:N:9856, H-B:GLU:543:OE1:9881, V-B:ALA:541:CB:9864, V-B:ASP:366:CG:8185, V-B:PRO:540:CB:9857, V-B:PRO:540:CA:9855, V-B:TYR:539:CE2:9848, V-B:TYR:539:CD2:9846, V-B:TYR:531:CE2:9765, V-B:TYR:531:CZ:9766, V-B:ASN:362:CB:8148, V-B:GLU:543:CD:9880, V-B:TYR:539:C:9839, V-B:ILE:538:CG2:9835, V-B:PRO:540:CD:9859, V-B:ILE:538:CB:9834, H-B:GLU:543:OE2:9882, V-A:ARG:545:CZ:4924, H-A:TYR:484:OH:4346, H-A:GLY:454:N:4048, V-A:HIS:456:CE1:4068, H-B:ALA:541:O:9861"]

$$$$
4aj_Grossjean_2025
     RDKit          3D

 20 22  0  0  0  0  0  0  0  0999 V2000
  126.1020  116.5760   70.8750 C   0  0  0  0  0  0  0  0  0  0  0  0
  126.8760  117.5320   71.7650 C   0  0  0  0  0  0  0  0  0  0  0  0
  127.2120  117.1830   73.0710 C   0  0  0  0  0  0  0  0  0  0  0  0
  127.9210  118.0820   73.8750 C   0  0  0  0  0  0  0  0  0  0  0  0
  128.2630  117.6540   75.2940 C   0  0  0  0  0  0  0  0  0  0  0  0
  128.2770  119.3370   73.3130 C   0  0  0  0  0  0  0  0  0  0  0  0
  128.9870  120.4700   73.8430 C   0  0  0  0  0  0  0  0  0  0  0  0
  129.4750  120.4950   75.1240 N   0  0  0  0  0  0  0  0  0  0  0  0
  129.1330  121.5270   72.9320 C   0  0  0  0  0  0  0  0  0  0  0  0
  129.7850  122.8230   73.1360 C   0  0  0  0  0  0  0  0  0  0  0  0
  129.2760  123.8590   72.7040 O   0  0  0  0  0  0  0  0  0  0  0  0
  130.9500  122.7850   73.8290 N   0  0  0  0  0  0  0  0  0  0  0  0
  131.7540  123.8650   74.1670 C   0  0  0  0  0  0  0  0  0  0  0  0
  131.5010  125.1450   73.9970 N   0  0  0  0  0  0  0  0  0  0  0  0
  132.4890  125.8980   74.4400 C   0  0  0  0  0  0  0  0  0  0  0  0
  133.5790  125.2240   74.9850 C   0  0  0  0  0  0  0  0  0  0  0  0
  133.2810  123.5130   74.9090 S   0  0  0  0  0  0  0  0  0  0  0  0
  128.3730  121.1460   71.3860 S   0  0  0  0  0  0  0  0  0  0  0  0
  127.8760  119.5720   71.9630 C   0  0  0  0  0  0  0  0  0  0  0  0
  127.2000  118.7180   71.1940 N   0  0  0  0  0  0  0  0  0  0  0  0
  1  2  1  0
  2  3  2  0
  3  4  1  0
  4  5  1  0
  4  6  2  0
  6  7  1  0
  7  8  1  0
  7  9  2  0
  9 10  1  0
 10 11  2  0
 10 12  1  0
 12 13  1  0
 13 14  2  0
 14 15  1  0
 15 16  2  0
 16 17  1  0
  9 18  1  0
 18 19  1  0
 19 20  2  0
 20  2  1  0
 19  6  1  0
 17 13  1  0
M  END
>  <Binding energies>  (46) 
[-6.75]

>  <Ligand effiencies>  (46) 
[-0.29347826086956524]

>  <Interactions>  (46) 
["V-A:LYS:471:CE:4218, V-A:HIS:456:CB:4063, V-A:HIS:456:CD2:4066, V-A:VAL:458:CG2:4085, V-A:HIS:456:CG:4064, V-A:HIS:456:C:4059, V-A:ASP:473:CG:4238, V-A:LYS:471:CD:4217, H-B:LYS:547:NZ:9923, V-B:LYS:547:CE:9922, V-B:GLY:544:CA:9886, V-B:GLU:543:C:9874, V-A:TYR:484:CG:4340, V-A:TYR:484:CB:4339, V-B:VAL:542:CG1:9871, V-B:GLU:543:CA:9876, V-A:TYR:484:CD1:4341, H-A:ASP:473:OD2:4240, H-A:TYR:484:N:4338, V-A:SER:483:CB:4331"]

$$$$
4ak_Grossjean_2025
     RDKit          3D

 25 26  0  0  0  0  0  0  0  0999 V2000
  132.5320  125.6630   56.2550 C   0  0  0  0  0  0  0  0  0  0  0  0
  131.6080  125.9950   55.2310 O   0  0  0  0  0  0  0  0  0  0  0  0
  130.3590  125.3260   55.3560 C   0  0  0  0  0  0  0  0  0  0  0  0
  130.0000  124.6590   54.0220 C   0  0  0  0  0  0  0  0  0  0  0  0
  128.6060  124.8000   53.7850 O   0  0  0  0  0  0  0  0  0  0  0  0
  127.8610  123.6120   54.0190 C   0  0  0  0  0  0  0  0  0  0  0  0
  126.4840  123.9800   54.5840 C   0  0  0  0  0  0  0  0  0  0  0  0
  126.0680  122.9760   55.4990 O   0  0  0  0  0  0  0  0  0  0  0  0
  124.8250  123.2520   56.1300 C   0  0  0  0  0  0  0  0  0  0  0  0
  125.0510  123.4400   57.6410 C   0  0  0  0  0  0  0  0  0  0  0  0
  126.4630  123.4810   58.0220 N   0  0  0  0  0  0  0  0  0  0  0  0
  126.9290  123.5230   59.2860 C   0  0  0  0  0  0  0  0  0  0  0  0
  126.1820  123.5100   60.2660 O   0  0  0  0  0  0  0  0  0  0  0  0
  128.3820  123.5770   59.4340 C   0  0  0  0  0  0  0  0  0  0  0  0
  129.4190  123.6730   58.0110 S   0  0  0  0  0  0  0  0  0  0  0  0
  130.8580  123.7080   59.0050 C   0  0  0  0  0  0  0  0  0  0  0  0
  132.0800  123.7770   58.4750 N   0  0  0  0  0  0  0  0  0  0  0  0
  133.1100  123.7950   59.3560 C   0  0  0  0  0  0  0  0  0  0  0  0
  134.4920  123.8760   58.7340 C   0  0  0  0  0  0  0  0  0  0  0  0
  132.9480  123.7480   60.7390 C   0  0  0  0  0  0  0  0  0  0  0  0
  131.6640  123.6750   61.2920 C   0  0  0  0  0  0  0  0  0  0  0  0
  131.5390  123.6210   62.8070 C   0  0  0  0  0  0  0  0  0  0  0  0
  130.5590  123.6530   60.4000 C   0  0  0  0  0  0  0  0  0  0  0  0
  129.1390  123.5850   60.6170 C   0  0  0  0  0  0  0  0  0  0  0  0
  128.5910  123.5300   61.8730 N   0  0  0  0  0  0  0  0  0  0  0  0
  1  2  1  0
  2  3  1  0
  3  4  1  0
  4  5  1  0
  5  6  1  0
  6  7  1  0
  7  8  1  0
  8  9  1  0
  9 10  1  0
 10 11  1  0
 11 12  1  0
 12 13  2  0
 12 14  1  0
 14 15  1  0
 15 16  1  0
 16 17  2  0
 17 18  1  0
 18 19  1  0
 18 20  2  0
 20 21  1  0
 21 22  1  0
 21 23  2  0
 23 24  1  0
 24 25  1  0
 24 14  2  0
 23 16  1  0
M  END
>  <Binding energies>  (47) 
[-6.06]

>  <Ligand effiencies>  (47) 
[-0.21642857142857141]

>  <Interactions>  (47) 
["V-B:PRO:540:N:9856, H-B:GLU:543:OE1:9881, V-B:TYR:539:CZ:9849, V-B:ILE:538:CA:9832, V-B:ALA:541:CB:9864, V-B:PRO:540:CB:9857, V-B:PRO:540:CA:9855, H-B:ALA:541:N:9863, V-B:TYR:539:CE2:9848, V-B:TYR:539:CE1:9847, V-B:TYR:539:CD1:9845, V-B:TYR:539:CD2:9846, V-A:ASP:366:CG:3211, H-A:TYR:531:OH:4793, V-A:ASP:366:CB:3210, V-A:TYR:531:CZ:4792, V-B:TYR:531:CE2:9765, H-B:TYR:539:N:9842, V-B:GLU:543:CD:9880, V-B:TYR:539:C:9839, V-B:ILE:538:CG2:9835, V-B:PRO:540:CD:9859, V-B:ILE:538:CB:9834, V-B:PRO:540:CG:9858, H-B:TYR:539:OH:9850, V-A:ILE:369:CB:3234, V-A:ILE:369:CG2:3235, V-A:ILE:369:CD1:3237, V-A:TYR:531:CE1:4790, V-A:ASP:366:CA:3208, V-B:MET:535:CG:9805, V-A:ASP:366:C:3206, V-A:ILE:369:CG1:3236"]

$$$$
4al_Grossjean_2025
     RDKit          3D

 16 17  0  0  0  0  0  0  0  0999 V2000
  129.7100  128.8040   61.5030 C   0  0  0  0  0  0  0  0  0  0  0  0
  130.9200  129.5300   61.6500 O   0  0  0  0  0  0  0  0  0  0  0  0
  130.9730  130.8600   61.3760 C   0  0  0  0  0  0  0  0  0  0  0  0
  131.0950  131.7370   62.2350 O   0  0  0  0  0  0  0  0  0  0  0  0
  130.8700  131.1540   59.9300 C   0  0  0  0  0  0  0  0  0  0  0  0
  129.2860  131.4130   59.1950 S   0  0  0  0  0  0  0  0  0  0  0  0
  130.0130  131.6730   57.6250 C   0  0  0  0  0  0  0  0  0  0  0  0
  129.2790  131.9400   56.5450 N   0  0  0  0  0  0  0  0  0  0  0  0
  129.9640  132.1210   55.3880 C   0  0  0  0  0  0  0  0  0  0  0  0
  129.1100  132.4230   54.1710 C   0  0  0  0  0  0  0  0  0  0  0  0
  131.3520  132.0410   55.2900 C   0  0  0  0  0  0  0  0  0  0  0  0
  132.1190  131.7610   56.4260 C   0  0  0  0  0  0  0  0  0  0  0  0
  133.6290  131.6850   56.2690 C   0  0  0  0  0  0  0  0  0  0  0  0
  131.4350  131.5660   57.6560 C   0  0  0  0  0  0  0  0  0  0  0  0
  131.8950  131.2690   58.9840 C   0  0  0  0  0  0  0  0  0  0  0  0
  133.2230  131.1140   59.2880 N   0  0  0  0  0  0  0  0  0  0  0  0
  1  2  1  0
  2  3  1  0
  3  4  2  0
  3  5  1  0
  5  6  1  0
  6  7  1  0
  7  8  2  0
  8  9  1  0
  9 10  1  0
  9 11  2  0
 11 12  1  0
 12 13  1  0
 12 14  2  0
 14 15  1  0
 15 16  1  0
 15  5  2  0
 14  7  1  0
M  END
>  <Binding energies>  (48) 
[-5.86]

>  <Ligand effiencies>  (48) 
[-0.3255555555555556]

>  <Interactions>  (48) 
["V-A:TYR:539:CE1:4873, V-A:ASP:366:CG:3211, V-A:PRO:540:N:4882, V-A:ILE:538:CA:4858, V-A:TYR:531:CE2:4791, V-A:LEU:363:CA:3183, V-A:TYR:539:C:4865, V-A:LEU:363:CD1:3187, V-A:ILE:538:CB:4860, V-A:PRO:540:CA:4881, V-A:ILE:538:CG2:4861, V-A:TYR:531:CZ:4792, V-A:GLU:543:CD:4906, V-A:PRO:540:CB:4883, H-A:ALA:541:N:4889, H-A:ASP:366:OD2:3213, V-A:PRO:540:CD:4885, V-A:ILE:538:C:4856, H-A:ARG:545:NH2:4926, V-A:TYR:539:CD1:4871, H-A:ASN:362:O:3171, V-A:VAL:537:C:4848"]

$$$$
4bc_Grossjean_2025
     RDKit          3D

 26 28  0  0  0  0  0  0  0  0999 V2000
  128.7240  128.6770   71.9110 C   0  0  0  0  0  0  0  0  0  0  0  0
  127.9900  128.0380   70.8710 O   0  0  0  0  0  0  0  0  0  0  0  0
  128.6450  127.6720   69.7110 C   0  0  0  0  0  0  0  0  0  0  0  0
  127.8420  127.3360   68.6220 C   0  0  0  0  0  0  0  0  0  0  0  0
  128.4120  126.9540   67.4110 C   0  0  0  0  0  0  0  0  0  0  0  0
  129.8000  126.9120   67.2700 C   0  0  0  0  0  0  0  0  0  0  0  0
  130.2850  126.5000   66.0150 N   0  0  0  0  0  0  0  0  0  0  0  0
  130.6500  125.2620   65.6010 C   0  0  0  0  0  0  0  0  0  0  0  0
  130.6390  124.2650   66.3240 O   0  0  0  0  0  0  0  0  0  0  0  0
  131.0800  125.1670   64.2020 C   0  0  0  0  0  0  0  0  0  0  0  0
  132.3590  124.0460   63.7420 S   0  0  0  0  0  0  0  0  0  0  0  0
  132.2480  124.5360   62.0680 C   0  0  0  0  0  0  0  0  0  0  0  0
  133.0300  123.9980   61.1320 N   0  0  0  0  0  0  0  0  0  0  0  0
  132.8540  124.4580   59.8730 C   0  0  0  0  0  0  0  0  0  0  0  0
  133.7500  123.8280   58.8230 C   0  0  0  0  0  0  0  0  0  0  0  0
  131.9240  125.4370   59.5290 C   0  0  0  0  0  0  0  0  0  0  0  0
  131.0980  126.0080   60.5100 C   0  0  0  0  0  0  0  0  0  0  0  0
  130.0910  127.0830   60.0830 C   0  0  0  0  0  0  0  0  0  0  0  0
  130.2800  128.2490   60.7040 F   0  0  0  0  0  0  0  0  0  0  0  0
  130.1980  127.3040   58.7740 F   0  0  0  0  0  0  0  0  0  0  0  0
  128.8530  126.6780   60.3630 F   0  0  0  0  0  0  0  0  0  0  0  0
  131.2570  125.5420   61.8490 C   0  0  0  0  0  0  0  0  0  0  0  0
  130.6040  125.8800   63.0910 C   0  0  0  0  0  0  0  0  0  0  0  0
  129.6050  126.8170   63.1700 N   0  0  0  0  0  0  0  0  0  0  0  0
  130.6160  127.2360   68.3650 C   0  0  0  0  0  0  0  0  0  0  0  0
  130.0420  127.6160   69.5740 C   0  0  0  0  0  0  0  0  0  0  0  0
  1  2  1  0
  2  3  1  0
  3  4  2  0
  4  5  1  0
  5  6  2  0
  6  7  1  0
  7  8  1  0
  8  9  2  0
  8 10  1  0
 10 11  1  0
 11 12  1  0
 12 13  2  0
 13 14  1  0
 14 15  1  0
 14 16  2  0
 16 17  1  0
 17 18  1  0
 18 19  1  0
 18 20  1  0
 18 21  1  0
 17 22  2  0
 22 23  1  0
 23 24  1  0
  6 25  1  0
 25 26  2  0
 26  3  1  0
 23 10  2  0
 22 12  1  0
M  END
>  <Binding energies>  (49) 
[-6.24]

>  <Ligand effiencies>  (49) 
[-0.21517241379310345]

>  <Interactions>  (49) 
["H-B:GLU:543:OE1:9881, V-B:TYR:539:CE2:9848, V-A:ASP:366:CG:3211, V-A:ASP:366:CB:3210, V-A:GLU:543:CD:4906, V-B:GLU:543:CD:9880, H-B:GLU:543:OE2:9882, H-A:GLU:543:OE2:4908, H-A:GLU:543:OE1:4907, H-A:TYR:484:OH:4346, V-A:ILE:369:CB:3234, V-A:ILE:369:CG2:3235, V-A:ILE:369:CD1:3237, V-A:ASP:366:CA:3208, V-B:HIS:456:CE1:9042, V-B:HIS:456:CD2:9040, V-A:HIS:456:CE1:4068, V-A:GLY:544:C:4910, V-B:GLU:543:CG:9879, V-B:GLU:543:C:9874, V-A:ARG:545:CG:4920, V-A:GLU:543:CG:4905, V-B:GLU:543:CB:9878, V-A:GLU:543:C:4900"]

$$$$
4bf_Grossjean_2025
     RDKit          3D

 24 26  0  0  0  0  0  0  0  0999 V2000
  132.0850  131.8210   55.4300 C   0  0  0  0  0  0  0  0  0  0  0  0
  131.5670  131.6820   56.8510 C   0  0  0  0  0  0  0  0  0  0  0  0
  132.4430  131.5100   57.9190 C   0  0  0  0  0  0  0  0  0  0  0  0
  131.9510  131.3790   59.2270 C   0  0  0  0  0  0  0  0  0  0  0  0
  132.9520  131.1880   60.3710 C   0  0  0  0  0  0  0  0  0  0  0  0
  132.6840  130.1200   61.1270 F   0  0  0  0  0  0  0  0  0  0  0  0
  134.1790  131.0290   59.8760 F   0  0  0  0  0  0  0  0  0  0  0  0
  132.9350  132.2560   61.1690 F   0  0  0  0  0  0  0  0  0  0  0  0
  130.5350  131.4320   59.4000 C   0  0  0  0  0  0  0  0  0  0  0  0
  129.6840  131.3360   60.5600 C   0  0  0  0  0  0  0  0  0  0  0  0
  130.1800  131.1630   61.8280 N   0  0  0  0  0  0  0  0  0  0  0  0
  128.3130  131.4400   60.2780 C   0  0  0  0  0  0  0  0  0  0  0  0
  127.1790  131.3550   61.2040 C   0  0  0  0  0  0  0  0  0  0  0  0
  126.1380  131.9740   60.9800 O   0  0  0  0  0  0  0  0  0  0  0  0
  127.3690  130.5530   62.2800 N   0  0  0  0  0  0  0  0  0  0  0  0
  126.5120  130.2950   63.3670 C   0  0  0  0  0  0  0  0  0  0  0  0
  126.8740  129.6240   64.5480 C   0  0  0  0  0  0  0  0  0  0  0  0
  125.9190  129.4190   65.5470 C   0  0  0  0  0  0  0  0  0  0  0  0
  124.6220  129.8880   65.3380 C   0  0  0  0  0  0  0  0  0  0  0  0
  124.2460  130.5320   64.2050 N   0  0  0  0  0  0  0  0  0  0  0  0
  125.1850  130.7230   63.2430 C   0  0  0  0  0  0  0  0  0  0  0  0
  128.0330  131.6570   58.5510 S   0  0  0  0  0  0  0  0  0  0  0  0
  129.7490  131.6140   58.2200 C   0  0  0  0  0  0  0  0  0  0  0  0
  130.2210  131.7380   56.9810 N   0  0  0  0  0  0  0  0  0  0  0  0
  1  2  1  0
  2  3  2  0
  3  4  1  0
  4  5  1  0
  5  6  1  0
  5  7  1  0
  5  8  1  0
  4  9  2  0
  9 10  1  0
 10 11  1  0
 10 12  2  0
 12 13  1  0
 13 14  2  0
 13 15  1  0
 15 16  1  0
 16 17  2  0
 17 18  1  0
 18 19  2  0
 19 20  1  0
 20 21  2  0
 12 22  1  0
 22 23  1  0
 23 24  2  0
 24  2  1  0
 23  9  1  0
 21 16  1  0
M  END
>  <Binding energies>  (50) 
[-6.69]

>  <Ligand effiencies>  (50) 
[-0.2477777777777778]

>  <Interactions>  (50) 
["V-A:ASP:366:CG:3211, V-A:PRO:540:N:4882, V-A:ILE:538:CA:4858, V-A:TYR:531:CE2:4791, V-A:LEU:363:CA:3183, V-A:TYR:539:C:4865, V-A:ILE:538:CB:4860, V-A:PRO:540:CA:4881, V-A:ILE:538:CG2:4861, V-A:TYR:531:CZ:4792, V-A:GLU:543:CD:4906, V-A:PRO:540:CB:4883, V-B:ARG:545:CZ:9898, V-A:ARG:545:CZ:4924, H-A:GLU:543:OE2:4908, H-A:GLU:543:OE1:4907, V-A:PRO:540:CD:4885, V-A:ASN:362:CB:3174, V-A:ALA:541:C:4886, V-A:TYR:539:CE2:4874, H-B:GLY:454:N:9022, V-A:ALA:541:CB:4890, H-B:TYR:484:OH:9320, V-A:ASN:362:C:3170, V-A:PRO:540:C:4879, V-A:TYR:539:CD2:4872, V-B:HIS:456:CE1:9042, V-A:ALA:541:CA:4888, V-B:ARG:545:CG:9894, V-B:ARG:545:CD:9895, H-A:ALA:541:O:4887, V-A:ASN:362:CA:3172"]

$$$$
4bh_Grossjean_2025
     RDKit          3D

 31 33  0  0  0  0  0  0  0  0999 V2000
  126.9830  130.5170   56.5980 C   0  0  0  0  0  0  0  0  0  0  0  0
  127.6450  131.7510   56.8490 O   0  0  0  0  0  0  0  0  0  0  0  0
  128.9520  131.7420   57.3010 C   0  0  0  0  0  0  0  0  0  0  0  0
  129.3300  131.3640   58.5990 C   0  0  0  0  0  0  0  0  0  0  0  0
  130.6700  131.3800   58.9880 C   0  0  0  0  0  0  0  0  0  0  0  0
  131.0660  130.9230   60.3870 C   0  0  0  0  0  0  0  0  0  0  0  0
  131.3160  129.4850   60.4820 N   0  0  0  0  0  0  0  0  0  0  0  0
  130.4280  128.5150   60.1800 C   0  0  0  0  0  0  0  0  0  0  0  0
  129.2750  128.7610   59.8210 O   0  0  0  0  0  0  0  0  0  0  0  0
  130.8980  127.1390   60.3450 C   0  0  0  0  0  0  0  0  0  0  0  0
  131.3540  126.1880   58.9350 S   0  0  0  0  0  0  0  0  0  0  0  0
  131.7070  124.7970   59.9340 C   0  0  0  0  0  0  0  0  0  0  0  0
  132.1420  123.6540   59.4060 N   0  0  0  0  0  0  0  0  0  0  0  0
  132.3830  122.6500   60.2800 C   0  0  0  0  0  0  0  0  0  0  0  0
  132.8750  121.3560   59.6560 C   0  0  0  0  0  0  0  0  0  0  0  0
  132.2050  122.7600   61.6560 C   0  0  0  0  0  0  0  0  0  0  0  0
  131.7460  123.9620   62.2190 C   0  0  0  0  0  0  0  0  0  0  0  0
  131.5670  124.0380   63.7390 C   0  0  0  0  0  0  0  0  0  0  0  0
  130.6350  124.9160   64.1130 F   0  0  0  0  0  0  0  0  0  0  0  0
  131.2040  122.8450   64.2100 F   0  0  0  0  0  0  0  0  0  0  0  0
  132.7150  124.4050   64.3090 F   0  0  0  0  0  0  0  0  0  0  0  0
  131.4790  125.0410   61.3240 C   0  0  0  0  0  0  0  0  0  0  0  0
  131.0030  126.3870   61.5260 C   0  0  0  0  0  0  0  0  0  0  0  0
  130.6890  126.8870   62.7630 N   0  0  0  0  0  0  0  0  0  0  0  0
  131.6490  131.7500   58.0640 C   0  0  0  0  0  0  0  0  0  0  0  0
  131.3000  132.1400   56.7620 C   0  0  0  0  0  0  0  0  0  0  0  0
  132.2150  132.5320   55.8010 O   0  0  0  0  0  0  0  0  0  0  0  0
  133.5850  132.1770   55.9570 C   0  0  0  0  0  0  0  0  0  0  0  0
  129.9460  132.1370   56.3950 C   0  0  0  0  0  0  0  0  0  0  0  0
  129.5910  132.4990   55.1160 O   0  0  0  0  0  0  0  0  0  0  0  0
  129.7500  131.4620   54.1580 C   0  0  0  0  0  0  0  0  0  0  0  0
  1  2  1  0
  2  3  1  0
  3  4  2  0
  4  5  1  0
  5  6  1  0
  6  7  1  0
  7  8  1  0
  8  9  2  0
  8 10  1  0
 10 11  1  0
 11 12  1  0
 12 13  2  0
 13 14  1  0
 14 15  1  0
 14 16  2  0
 16 17  1  0
 17 18  1  0
 18 19  1  0
 18 20  1  0
 18 21  1  0
 17 22  2  0
 22 23  1  0
 23 24  1  0
  5 25  2  0
 25 26  1  0
 26 27  1  0
 27 28  1  0
 26 29  2  0
 29 30  1  0
 30 31  1  0
 29  3  1  0
 23 10  2  0
 22 12  1  0
M  END
>  <Binding energies>  (51) 
[-6.3]

>  <Ligand effiencies>  (51) 
[-0.18529411764705883]

>  <Interactions>  (51) 
["H-B:GLU:543:OE1:9881, V-B:TYR:539:CE2:9848, V-B:TYR:539:CD2:9846, V-A:TYR:539:CE1:4873, V-A:ASP:366:CG:3211, V-A:PRO:540:N:4882, H-A:TYR:539:N:4868, V-A:ILE:538:CA:4858, V-A:TYR:539:CZ:4875, V-A:TYR:531:CE2:4791, V-A:TYR:539:C:4865, V-A:LEU:363:CD1:3187, V-A:ILE:538:CB:4860, V-A:PRO:540:CA:4881, V-A:ILE:538:CG2:4861, V-A:GLU:543:CD:4906, V-A:PRO:540:CB:4883, V-B:GLU:543:CD:9880, H-B:GLU:543:OE2:9882, V-A:ARG:545:CZ:4924, H-A:GLU:543:OE2:4908, H-A:GLU:543:OE1:4907, H-A:ASP:366:OD2:3213, V-A:MET:535:CG:4831, V-A:PRO:540:CD:4885, V-A:MET:535:CB:4830, V-A:TYR:539:CE2:4874, H-A:TYR:539:OH:4876, H-A:ASP:366:OD1:3212, V-A:ILE:369:CG2:3235, V-A:TYR:539:CD2:4872, V-A:PRO:540:CG:4884, V-A:TYR:484:CZ:4345, V-A:TYR:484:CE1:4343"]

$$$$
4bi_Grossjean_2025
     RDKit          3D

 23 25  0  0  0  0  0  0  0  0999 V2000
  131.6670  132.0470   55.5020 C   0  0  0  0  0  0  0  0  0  0  0  0
  131.1480  131.8320   56.9130 C   0  0  0  0  0  0  0  0  0  0  0  0
  132.0200  131.5720   57.9660 C   0  0  0  0  0  0  0  0  0  0  0  0
  131.5260  131.3800   59.2670 C   0  0  0  0  0  0  0  0  0  0  0  0
  132.5250  131.1040   60.3960 C   0  0  0  0  0  0  0  0  0  0  0  0
  133.7830  130.9920   59.9640 F   0  0  0  0  0  0  0  0  0  0  0  0
  132.4950  132.1020   61.2800 F   0  0  0  0  0  0  0  0  0  0  0  0
  132.2100  129.9630   61.0090 F   0  0  0  0  0  0  0  0  0  0  0  0
  130.1130  131.4600   59.4470 C   0  0  0  0  0  0  0  0  0  0  0  0
  129.2610  131.3190   60.6020 C   0  0  0  0  0  0  0  0  0  0  0  0
  129.7490  131.0450   61.8540 N   0  0  0  0  0  0  0  0  0  0  0  0
  127.8940  131.4940   60.3320 C   0  0  0  0  0  0  0  0  0  0  0  0
  126.7610  131.4070   61.2590 C   0  0  0  0  0  0  0  0  0  0  0  0
  125.6650  131.8850   60.9590 O   0  0  0  0  0  0  0  0  0  0  0  0
  127.0110  130.7610   62.4250 N   0  0  0  0  0  0  0  0  0  0  0  0
  126.1250  130.5260   63.4680 C   0  0  0  0  0  0  0  0  0  0  0  0
  126.4970  129.9010   64.6570 C   0  0  0  0  0  0  0  0  0  0  0  0
  125.3490  129.8590   65.4150 C   0  0  0  0  0  0  0  0  0  0  0  0
  124.3370  130.4290   64.7170 O   0  0  0  0  0  0  0  0  0  0  0  0
  124.8420  130.8480   63.4840 N   0  0  0  0  0  0  0  0  0  0  0  0
  127.6180  131.8160   58.6220 S   0  0  0  0  0  0  0  0  0  0  0  0
  129.3310  131.7340   58.2830 C   0  0  0  0  0  0  0  0  0  0  0  0
  129.8050  131.9170   57.0510 N   0  0  0  0  0  0  0  0  0  0  0  0
  1  2  1  0
  2  3  2  0
  3  4  1  0
  4  5  1  0
  5  6  1  0
  5  7  1  0
  5  8  1  0
  4  9  2  0
  9 10  1  0
 10 11  1  0
 10 12  2  0
 12 13  1  0
 13 14  2  0
 13 15  1  0
 15 16  1  0
 16 17  1  0
 17 18  2  0
 18 19  1  0
 19 20  1  0
 12 21  1  0
 21 22  1  0
 22 23  2  0
 23  2  1  0
 22  9  1  0
 20 16  2  0
M  END
>  <Binding energies>  (52) 
[-6.57]

>  <Ligand effiencies>  (52) 
[-0.2526923076923077]

>  <Interactions>  (52) 
["V-A:ASP:366:CG:3211, V-A:PRO:540:N:4882, V-A:ILE:538:CA:4858, V-A:TYR:539:CZ:4875, V-A:LEU:363:CA:3183, V-A:TYR:539:C:4865, V-A:ILE:538:CB:4860, V-A:PRO:540:CA:4881, V-A:ILE:538:CG2:4861, V-A:GLU:543:CD:4906, V-A:PRO:540:CB:4883, V-B:ARG:545:CZ:9898, V-A:ARG:545:CZ:4924, H-A:GLU:543:OE2:4908, H-A:GLU:543:OE1:4907, V-A:PRO:540:CD:4885, V-A:ASN:362:CB:3174, V-A:ALA:541:C:4886, V-A:TYR:539:CE2:4874, H-B:GLY:454:N:9022, V-A:ALA:541:CB:4890, H-B:TYR:484:OH:9320, V-A:ASN:362:C:3170, V-A:PRO:540:C:4879, V-A:TYR:539:CD2:4872, V-B:HIS:456:CE1:9042, V-A:ALA:541:CA:4888, V-B:ARG:545:CD:9895, H-A:ALA:541:O:4887"]

$$$$
4bj_Grossjean_2025
     RDKit          3D

 23 25  0  0  0  0  0  0  0  0999 V2000
  126.1510  116.5800   70.8790 C   0  0  0  0  0  0  0  0  0  0  0  0
  126.9190  117.5310   71.7790 C   0  0  0  0  0  0  0  0  0  0  0  0
  127.2470  117.1760   73.0850 C   0  0  0  0  0  0  0  0  0  0  0  0
  127.9520  118.0680   73.9080 C   0  0  0  0  0  0  0  0  0  0  0  0
  128.2880  117.6340   75.3400 C   0  0  0  0  0  0  0  0  0  0  0  0
  127.8100  118.4690   76.2640 F   0  0  0  0  0  0  0  0  0  0  0  0
  127.7670  116.4310   75.5800 F   0  0  0  0  0  0  0  0  0  0  0  0
  129.6110  117.5800   75.4940 F   0  0  0  0  0  0  0  0  0  0  0  0
  128.3090  119.3300   73.3470 C   0  0  0  0  0  0  0  0  0  0  0  0
  129.0120  120.4750   73.8740 C   0  0  0  0  0  0  0  0  0  0  0  0
  129.4960  120.5220   75.1560 N   0  0  0  0  0  0  0  0  0  0  0  0
  129.1600  121.5280   72.9570 C   0  0  0  0  0  0  0  0  0  0  0  0
  129.8040  122.8280   73.1570 C   0  0  0  0  0  0  0  0  0  0  0  0
  129.2850  123.8630   72.7310 O   0  0  0  0  0  0  0  0  0  0  0  0
  130.9740  122.7990   73.8410 N   0  0  0  0  0  0  0  0  0  0  0  0
  131.7740  123.8850   74.1730 C   0  0  0  0  0  0  0  0  0  0  0  0
  131.5250  125.1620   73.9770 N   0  0  0  0  0  0  0  0  0  0  0  0
  132.5050  125.9210   74.4230 C   0  0  0  0  0  0  0  0  0  0  0  0
  133.5850  125.2580   74.9980 C   0  0  0  0  0  0  0  0  0  0  0  0
  133.2910  123.5450   74.9420 S   0  0  0  0  0  0  0  0  0  0  0  0
  128.4080  121.1400   71.4110 S   0  0  0  0  0  0  0  0  0  0  0  0
  127.9160  119.5680   71.9940 C   0  0  0  0  0  0  0  0  0  0  0  0
  127.2440  118.7180   71.2170 N   0  0  0  0  0  0  0  0  0  0  0  0
  1  2  1  0
  2  3  2  0
  3  4  1  0
  4  5  1  0
  5  6  1  0
  5  7  1  0
  5  8  1  0
  4  9  2  0
  9 10  1  0
 10 11  1  0
 10 12  2  0
 12 13  1  0
 13 14  2  0
 13 15  1  0
 15 16  1  0
 16 17  2  0
 17 18  1  0
 18 19  2  0
 19 20  1  0
 12 21  1  0
 21 22  1  0
 22 23  2  0
 23  2  1  0
 22  9  1  0
 20 16  1  0
M  END
>  <Binding energies>  (53) 
[-6.43]

>  <Ligand effiencies>  (53) 
[-0.24730769230769228]

>  <Interactions>  (53) 
["V-A:LYS:471:CE:4218, V-A:HIS:456:CB:4063, V-A:HIS:456:CD2:4066, V-A:VAL:458:CG2:4085, V-A:HIS:456:CG:4064, V-A:HIS:456:C:4059, V-A:ASP:473:CG:4238, V-A:LYS:471:CD:4217, H-B:LYS:547:NZ:9923, V-B:LYS:547:CE:9922, V-B:GLY:544:CA:9886, V-B:GLU:543:C:9874, V-A:TYR:484:CG:4340, V-A:TYR:484:CB:4339, V-B:VAL:542:CG1:9871, V-B:GLU:543:CA:9876, V-A:TYR:484:CD1:4341, H-A:ASP:473:OD2:4240, H-A:TYR:484:N:4338, V-A:SER:483:CB:4331"]

$$$$
4bk_Grossjean_2025
     RDKit          3D

 28 29  0  0  0  0  0  0  0  0999 V2000
  132.0770  125.4320   74.0160 C   0  0  0  0  0  0  0  0  0  0  0  0
  130.7560  125.3370   73.5070 O   0  0  0  0  0  0  0  0  0  0  0  0
  130.5210  126.1730   72.3810 C   0  0  0  0  0  0  0  0  0  0  0  0
  129.0160  126.4280   72.2370 C   0  0  0  0  0  0  0  0  0  0  0  0
  128.8070  127.6040   71.4670 O   0  0  0  0  0  0  0  0  0  0  0  0
  129.4150  127.5640   70.1820 C   0  0  0  0  0  0  0  0  0  0  0  0
  128.3640  127.8840   69.1110 C   0  0  0  0  0  0  0  0  0  0  0  0
  128.4840  126.9560   68.0430 O   0  0  0  0  0  0  0  0  0  0  0  0
  129.2060  127.4570   66.9240 C   0  0  0  0  0  0  0  0  0  0  0  0
  130.6360  126.8890   66.9440 C   0  0  0  0  0  0  0  0  0  0  0  0
  131.0290  126.2430   65.6910 N   0  0  0  0  0  0  0  0  0  0  0  0
  131.0030  124.9140   65.4580 C   0  0  0  0  0  0  0  0  0  0  0  0
  130.6140  124.1030   66.3010 O   0  0  0  0  0  0  0  0  0  0  0  0
  131.4560  124.4830   64.1350 C   0  0  0  0  0  0  0  0  0  0  0  0
  132.7230  125.3780   63.3000 S   0  0  0  0  0  0  0  0  0  0  0  0
  132.6720  124.2740   61.9470 C   0  0  0  0  0  0  0  0  0  0  0  0
  133.4680  124.4320   60.8900 N   0  0  0  0  0  0  0  0  0  0  0  0
  133.3390  123.5130   59.9050 C   0  0  0  0  0  0  0  0  0  0  0  0
  134.2570  123.7110   58.7130 C   0  0  0  0  0  0  0  0  0  0  0  0
  132.4400  122.4510   59.9520 C   0  0  0  0  0  0  0  0  0  0  0  0
  131.5970  122.2800   61.0610 C   0  0  0  0  0  0  0  0  0  0  0  0
  130.6210  121.0980   61.0640 C   0  0  0  0  0  0  0  0  0  0  0  0
  130.6000  120.4420   62.2260 F   0  0  0  0  0  0  0  0  0  0  0  0
  129.3840  121.5340   60.8290 F   0  0  0  0  0  0  0  0  0  0  0  0
  130.9670  120.2250   60.1190 F   0  0  0  0  0  0  0  0  0  0  0  0
  131.7090  123.2310   62.1180 C   0  0  0  0  0  0  0  0  0  0  0  0
  131.0330  123.3770   63.3830 C   0  0  0  0  0  0  0  0  0  0  0  0
  130.0600  122.5090   63.8090 N   0  0  0  0  0  0  0  0  0  0  0  0
  1  2  1  0
  2  3  1  0
  3  4  1  0
  4  5  1  0
  5  6  1  0
  6  7  1  0
  7  8  1  0
  8  9  1  0
  9 10  1  0
 10 11  1  0
 11 12  1  0
 12 13  2  0
 12 14  1  0
 14 15  1  0
 15 16  1  0
 16 17  2  0
 17 18  1  0
 18 19  1  0
 18 20  2  0
 20 21  1  0
 21 22  1  0
 22 23  1  0
 22 24  1  0
 22 25  1  0
 21 26  2  0
 26 27  1  0
 27 28  1  0
 27 14  2  0
 26 16  1  0
M  END
>  <Binding energies>  (54) 
[-5.91]

>  <Ligand effiencies>  (54) 
[-0.19064516129032258]

>  <Interactions>  (54) 
["V-A:TRP:381:CZ2:3368, H-B:GLU:543:OE1:9881, V-A:TRP:381:CH2:3370, V-B:ALA:541:CB:9864, V-B:ALA:541:CA:9862, V-B:TYR:539:CE2:9848, V-A:LEU:475:CD2:4257, V-B:TYR:539:CD2:9846, V-A:ASP:366:CG:3211, V-A:ASP:366:CB:3210, V-A:GLU:543:CD:4906, V-B:GLU:543:CD:9880, V-A:ARG:545:CZ:4924, H-A:GLU:543:OE2:4908, H-A:TYR:484:OH:4346, V-A:ILE:369:CB:3234, V-A:ILE:369:CG2:3235, V-A:ILE:369:CD1:3237, V-A:ASP:366:CA:3208, V-B:HIS:456:CE1:9042, V-A:HIS:456:CB:4063, V-A:HIS:456:CD2:4066, V-B:GLY:544:C:9884, V-A:HIS:456:CG:4064, H-B:LYS:547:NZ:9923, V-A:HIS:456:CE1:4068, V-B:LYS:547:CE:9922, V-B:GLY:544:CA:9886, V-B:GLU:543:CG:9879, V-A:ARG:545:CG:4920, V-A:GLU:543:CG:4905, V-A:TYR:484:CZ:4345, V-B:GLU:543:CB:9878, V-A:TYR:484:CE1:4343, V-A:ILE:369:CG1:3236, V-A:LEU:475:CG:4255, V-A:LEU:475:CD1:4256"]

$$$$
4cd_Grossjean_2025
     RDKit          3D

 29 32  0  0  0  0  0  0  0  0999 V2000
  132.7390  123.5840   63.7490 N   0  0  0  0  0  0  0  0  0  0  0  0
  131.9350  124.4820   63.0930 C   0  0  0  0  0  0  0  0  0  0  0  0
  131.1890  125.4720   63.7530 C   0  0  0  0  0  0  0  0  0  0  0  0
  131.0940  125.7370   65.1920 C   0  0  0  0  0  0  0  0  0  0  0  0
  131.9340  125.2850   65.9710 O   0  0  0  0  0  0  0  0  0  0  0  0
  130.0420  126.5030   65.5730 N   0  0  0  0  0  0  0  0  0  0  0  0
  129.6390  126.8930   66.8640 C   0  0  0  0  0  0  0  0  0  0  0  0
  130.6670  127.1800   67.7660 C   0  0  0  0  0  0  0  0  0  0  0  0
  130.3700  127.5880   69.0630 C   0  0  0  0  0  0  0  0  0  0  0  0
  129.0410  127.7170   69.4580 C   0  0  0  0  0  0  0  0  0  0  0  0
  128.0070  127.4480   68.5660 C   0  0  0  0  0  0  0  0  0  0  0  0
  128.3010  127.0390   67.2670 C   0  0  0  0  0  0  0  0  0  0  0  0
  130.2800  126.4540   62.6060 S   0  0  0  0  0  0  0  0  0  0  0  0
  130.8960  125.5300   61.2580 C   0  0  0  0  0  0  0  0  0  0  0  0
  130.5420  125.8080   60.0050 N   0  0  0  0  0  0  0  0  0  0  0  0
  131.0620  125.0250   59.0240 C   0  0  0  0  0  0  0  0  0  0  0  0
  130.6420  125.3610   57.6230 C   0  0  0  0  0  0  0  0  0  0  0  0
  131.5890  125.4420   56.5890 C   0  0  0  0  0  0  0  0  0  0  0  0
  131.2070  125.7520   55.2860 C   0  0  0  0  0  0  0  0  0  0  0  0
  129.8660  125.9860   54.9990 C   0  0  0  0  0  0  0  0  0  0  0  0
  128.9080  125.9090   56.0030 C   0  0  0  0  0  0  0  0  0  0  0  0
  129.2940  125.5970   57.3030 C   0  0  0  0  0  0  0  0  0  0  0  0
  131.9480  123.9810   59.3030 C   0  0  0  0  0  0  0  0  0  0  0  0
  132.3320  123.6820   60.6210 C   0  0  0  0  0  0  0  0  0  0  0  0
  133.3050  122.5200   60.8560 C   0  0  0  0  0  0  0  0  0  0  0  0
  132.7750  121.5310   61.5800 F   0  0  0  0  0  0  0  0  0  0  0  0
  133.6810  122.0030   59.6870 F   0  0  0  0  0  0  0  0  0  0  0  0
  134.3800  122.9590   61.5110 F   0  0  0  0  0  0  0  0  0  0  0  0
  131.7830  124.4880   61.6590 C   0  0  0  0  0  0  0  0  0  0  0  0
  1  2  1  0
  2  3  2  0
  3  4  1  0
  4  5  2  0
  4  6  1  0
  6  7  1  0
  7  8  2  0
  8  9  1  0
  9 10  2  0
 10 11  1  0
 11 12  2  0
  3 13  1  0
 13 14  1  0
 14 15  2  0
 15 16  1  0
 16 17  1  0
 17 18  2  0
 18 19  1  0
 19 20  2  0
 20 21  1  0
 21 22  2  0
 16 23  2  0
 23 24  1  0
 24 25  1  0
 25 26  1  0
 25 27  1  0
 25 28  1  0
 24 29  2  0
 29  2  1  0
 12  7  1  0
 29 14  1  0
 22 17  1  0
M  END
>  <Binding energies>  (55) 
[-6.27]

>  <Ligand effiencies>  (55) 
[-0.1959375]

>  <Interactions>  (55) 
["H-B:GLU:543:OE1:9881, V-B:TYR:539:CZ:9849, V-B:TYR:539:CE2:9848, V-A:LEU:475:CD2:4257, V-A:TYR:531:CZ:4792, V-A:GLU:543:CD:4906, V-B:GLU:543:CD:9880, H-B:GLU:543:OE2:9882, H-A:GLU:543:OE2:4908, V-A:GLY:454:CA:4047, H-A:TYR:484:OH:4346, V-A:ILE:369:CB:3234, V-A:ILE:369:CG2:3235, V-A:ILE:369:CD1:3237, V-A:TYR:531:CE1:4790, V-B:HIS:456:CE1:9042, V-A:HIS:456:CE1:4068, V-A:GLY:544:C:4910, V-B:GLU:543:CG:9879, V-B:GLU:543:C:9874, V-A:ARG:545:CG:4920, V-A:GLY:453:C:4040, V-A:GLU:543:CG:4905, V-A:TYR:484:CZ:4345, V-B:GLU:543:CB:9878, V-A:GLU:543:C:4900"]

$$$$
4cg_Grossjean_2025
     RDKit          3D

 30 33  0  0  0  0  0  0  0  0999 V2000
  131.9850  122.4620   63.3690 N   0  0  0  0  0  0  0  0  0  0  0  0
  131.2040  123.4210   62.7780 C   0  0  0  0  0  0  0  0  0  0  0  0
  131.0600  124.7180   63.2920 C   0  0  0  0  0  0  0  0  0  0  0  0
  131.7040  125.3120   64.4620 C   0  0  0  0  0  0  0  0  0  0  0  0
  132.8810  125.0700   64.7400 O   0  0  0  0  0  0  0  0  0  0  0  0
  130.9240  126.1000   65.2310 N   0  0  0  0  0  0  0  0  0  0  0  0
  131.3600  126.8120   66.4310 C   0  0  0  0  0  0  0  0  0  0  0  0
  130.2320  127.0800   67.4210 C   0  0  0  0  0  0  0  0  0  0  0  0
  130.5260  127.2610   68.7750 C   0  0  0  0  0  0  0  0  0  0  0  0
  129.5010  127.5380   69.6780 C   0  0  0  0  0  0  0  0  0  0  0  0
  128.1900  127.6410   69.2220 C   0  0  0  0  0  0  0  0  0  0  0  0
  127.8930  127.4770   67.8700 C   0  0  0  0  0  0  0  0  0  0  0  0
  128.9160  127.2030   66.9670 C   0  0  0  0  0  0  0  0  0  0  0  0
  130.0040  125.6980   62.2770 S   0  0  0  0  0  0  0  0  0  0  0  0
  129.7440  124.3580   61.1840 C   0  0  0  0  0  0  0  0  0  0  0  0
  128.9620  124.4770   60.1150 N   0  0  0  0  0  0  0  0  0  0  0  0
  128.8230  123.3840   59.3200 C   0  0  0  0  0  0  0  0  0  0  0  0
  127.9330  123.5500   58.1220 C   0  0  0  0  0  0  0  0  0  0  0  0
  126.5830  123.9100   58.2700 C   0  0  0  0  0  0  0  0  0  0  0  0
  125.7540  124.0650   57.1630 C   0  0  0  0  0  0  0  0  0  0  0  0
  126.2630  123.8580   55.8850 C   0  0  0  0  0  0  0  0  0  0  0  0
  127.5950  123.4980   55.7090 C   0  0  0  0  0  0  0  0  0  0  0  0
  128.4200  123.3450   56.8190 C   0  0  0  0  0  0  0  0  0  0  0  0
  129.4560  122.1710   59.6160 C   0  0  0  0  0  0  0  0  0  0  0  0
  130.2820  122.0340   60.7420 C   0  0  0  0  0  0  0  0  0  0  0  0
  130.9440  120.6770   61.0070 C   0  0  0  0  0  0  0  0  0  0  0  0
  130.6110  119.7480   60.1090 F   0  0  0  0  0  0  0  0  0  0  0  0
  132.2710  120.8090   60.9730 F   0  0  0  0  0  0  0  0  0  0  0  0
  130.5780  120.2230   62.2050 F   0  0  0  0  0  0  0  0  0  0  0  0
  130.4470  123.1800   61.5740 C   0  0  0  0  0  0  0  0  0  0  0  0
  1  2  1  0
  2  3  2  0
  3  4  1  0
  4  5  2  0
  4  6  1  0
  6  7  1  0
  7  8  1  0
  8  9  2  0
  9 10  1  0
 10 11  2  0
 11 12  1  0
 12 13  2  0
  3 14  1  0
 14 15  1  0
 15 16  2  0
 16 17  1  0
 17 18  1  0
 18 19  2  0
 19 20  1  0
 20 21  2  0
 21 22  1  0
 22 23  2  0
 17 24  2  0
 24 25  1  0
 25 26  1  0
 26 27  1  0
 26 28  1  0
 26 29  1  0
 25 30  2  0
 30  2  1  0
 13  8  1  0
 30 15  1  0
 23 18  1  0
M  END
>  <Binding energies>  (56) 
[-8.11]

>  <Ligand effiencies>  (56) 
[-0.24575757575757573]

>  <Interactions>  (56) 
["V-B:PRO:540:N:9856, V-A:TRP:381:CZ2:3368, H-B:GLU:543:OE1:9881, V-B:TYR:539:CZ:9849, V-A:TRP:381:CH2:3370, V-B:ALA:541:CB:9864, V-B:PRO:540:CA:9855, V-B:TYR:539:CE2:9848, V-A:LEU:475:CD2:4257, V-B:TYR:539:CE1:9847, V-A:PRO:482:CB:4324, V-B:TYR:539:CD1:9845, V-B:TYR:539:CD2:9846, V-A:GLU:543:CD:4906, V-B:GLU:543:CD:9880, V-B:TYR:539:C:9839, H-B:GLU:543:OE2:9882, V-A:ARG:545:CZ:4924, H-A:GLU:543:OE2:4908, V-A:GLY:454:CA:4047, V-A:ARG:545:CD:4921, H-A:TYR:484:OH:4346, H-A:ARG:545:NE:4922, V-B:TYR:539:CG:9844, V-B:HIS:456:CE1:9042, V-A:HIS:456:CE1:4068, V-B:GLU:543:CG:9879, V-A:ARG:545:CG:4920, V-A:GLU:543:CG:4905, V-A:TYR:484:CZ:4345, V-B:GLU:543:CB:9878, V-A:GLU:543:C:4900, V-A:LEU:475:CG:4255, V-A:LEU:475:CD1:4256, V-A:TRP:381:CZ3:3369"]

$$$$
4ch_Grossjean_2025
     RDKit          3D

 36 39  0  0  0  0  0  0  0  0999 V2000
  126.5010  128.3800   66.5630 C   0  0  0  0  0  0  0  0  0  0  0  0
  126.9320  127.4660   67.5660 O   0  0  0  0  0  0  0  0  0  0  0  0
  128.2770  127.3890   67.8800 C   0  0  0  0  0  0  0  0  0  0  0  0
  129.2770  127.0280   66.9620 C   0  0  0  0  0  0  0  0  0  0  0  0
  130.6170  126.9730   67.3490 C   0  0  0  0  0  0  0  0  0  0  0  0
  131.6850  126.5510   66.3470 C   0  0  0  0  0  0  0  0  0  0  0  0
  131.1590  125.8960   65.1480 N   0  0  0  0  0  0  0  0  0  0  0  0
  131.9000  125.3000   64.1910 C   0  0  0  0  0  0  0  0  0  0  0  0
  133.1290  125.2280   64.2530 O   0  0  0  0  0  0  0  0  0  0  0  0
  131.1550  124.7070   63.0800 C   0  0  0  0  0  0  0  0  0  0  0  0
  130.0370  125.6910   62.1410 S   0  0  0  0  0  0  0  0  0  0  0  0
  129.6460  124.3380   61.1070 C   0  0  0  0  0  0  0  0  0  0  0  0
  128.7710  124.4540   60.1120 N   0  0  0  0  0  0  0  0  0  0  0  0
  128.5350  123.3490   59.3580 C   0  0  0  0  0  0  0  0  0  0  0  0
  127.5370  123.5120   58.2470 C   0  0  0  0  0  0  0  0  0  0  0  0
  127.9090  123.3020   56.9090 C   0  0  0  0  0  0  0  0  0  0  0  0
  126.9890  123.4520   55.8750 C   0  0  0  0  0  0  0  0  0  0  0  0
  125.6790  123.8170   56.1640 C   0  0  0  0  0  0  0  0  0  0  0  0
  125.2850  124.0360   57.4800 C   0  0  0  0  0  0  0  0  0  0  0  0
  126.2080  123.8860   58.5110 C   0  0  0  0  0  0  0  0  0  0  0  0
  129.1670  122.1290   59.6170 C   0  0  0  0  0  0  0  0  0  0  0  0
  130.0920  121.9940   60.6650 C   0  0  0  0  0  0  0  0  0  0  0  0
  130.7490  120.6290   60.8950 C   0  0  0  0  0  0  0  0  0  0  0  0
  130.5330  120.1420   62.1190 F   0  0  0  0  0  0  0  0  0  0  0  0
  130.2670  119.7440   60.0240 F   0  0  0  0  0  0  0  0  0  0  0  0
  132.0680  120.7300   60.7340 F   0  0  0  0  0  0  0  0  0  0  0  0
  130.3560  123.1500   61.4540 C   0  0  0  0  0  0  0  0  0  0  0  0
  131.2220  123.3960   62.5820 C   0  0  0  0  0  0  0  0  0  0  0  0
  132.0310  122.4290   63.1230 N   0  0  0  0  0  0  0  0  0  0  0  0
  130.9650  127.2640   68.6690 C   0  0  0  0  0  0  0  0  0  0  0  0
  129.9860  127.6270   69.6070 C   0  0  0  0  0  0  0  0  0  0  0  0
  130.2590  127.9300   70.9290 O   0  0  0  0  0  0  0  0  0  0  0  0
  130.6230  126.8850   71.8250 C   0  0  0  0  0  0  0  0  0  0  0  0
  128.6460  127.6920   69.1980 C   0  0  0  0  0  0  0  0  0  0  0  0
  127.6760  128.0310   70.1100 O   0  0  0  0  0  0  0  0  0  0  0  0
  127.6800  127.2290   71.2840 C   0  0  0  0  0  0  0  0  0  0  0  0
  1  2  1  0
  2  3  1  0
  3  4  2  0
  4  5  1  0
  5  6  1  0
  6  7  1  0
  7  8  1  0
  8  9  2  0
  8 10  1  0
 10 11  1  0
 11 12  1  0
 12 13  2  0
 13 14  1  0
 14 15  1  0
 15 16  2  0
 16 17  1  0
 17 18  2  0
 18 19  1  0
 19 20  2  0
 14 21  2  0
 21 22  1  0
 22 23  1  0
 23 24  1  0
 23 25  1  0
 23 26  1  0
 22 27  2  0
 27 28  1  0
 28 29  1  0
  5 30  2  0
 30 31  1  0
 31 32  1  0
 32 33  1  0
 31 34  2  0
 34 35  1  0
 35 36  1  0
 34  3  1  0
 28 10  2  0
 27 12  1  0
 20 15  1  0
M  END
>  <Binding energies>  (57) 
[-7.08]

>  <Ligand effiencies>  (57) 
[-0.18153846153846154]

>  <Interactions>  (57) 
["V-B:PRO:540:N:9856, V-A:TRP:381:CZ2:3368, H-B:GLU:543:OE1:9881, V-A:TRP:381:CH2:3370, V-B:ALA:541:CB:9864, V-B:PRO:540:CB:9857, V-B:PRO:540:CA:9855, V-B:TYR:539:CE2:9848, V-A:LEU:475:CD2:4257, V-A:PRO:482:CB:4324, V-B:TYR:539:CD2:9846, V-A:GLU:543:CD:4906, V-B:GLU:543:CD:9880, V-B:TYR:539:C:9839, H-B:GLU:543:OE2:9882, V-A:ARG:545:CZ:4924, H-A:GLU:543:OE2:4908, V-A:GLY:454:CA:4047, V-A:ARG:545:CD:4921, H-A:TYR:484:OH:4346, H-A:ARG:545:NE:4922, H-A:GLY:454:N:4048, V-B:TYR:539:CG:9844, H-A:ARG:545:NH2:4926, V-B:HIS:456:CE1:9042, V-A:HIS:456:CD2:4066, V-B:GLY:544:C:9884, V-A:HIS:456:CG:4064, V-A:HIS:456:CE1:4068, V-A:GLY:544:C:4910, V-B:GLY:544:CA:9886, V-B:GLU:543:CG:9879, V-A:ARG:545:CG:4920, V-A:GLU:543:CG:4905, V-B:ARG:545:CG:9894, V-B:GLU:543:CB:9878, V-A:GLU:543:C:4900, V-B:ARG:545:CD:9895, V-A:LEU:475:CG:4255, V-A:LEU:475:CD1:4256, V-A:TRP:381:CZ3:3369, H-B:HIS:456:ND1:9039"]

$$$$
4cj_Grossjean_2025
     RDKit          3D

 28 31  0  0  0  0  0  0  0  0999 V2000
  131.4610  122.3170   63.4230 N   0  0  0  0  0  0  0  0  0  0  0  0
  130.8810  123.3290   62.7020 C   0  0  0  0  0  0  0  0  0  0  0  0
  130.7700  124.6460   63.1780 C   0  0  0  0  0  0  0  0  0  0  0  0
  131.2240  125.1960   64.4570 C   0  0  0  0  0  0  0  0  0  0  0  0
  132.3740  124.9960   64.8570 O   0  0  0  0  0  0  0  0  0  0  0  0
  130.3000  125.9120   65.1450 N   0  0  0  0  0  0  0  0  0  0  0  0
  130.4730  126.5350   66.3740 C   0  0  0  0  0  0  0  0  0  0  0  0
  131.5390  127.1700   66.8130 N   0  0  0  0  0  0  0  0  0  0  0  0
  131.3530  127.6440   68.0290 C   0  0  0  0  0  0  0  0  0  0  0  0
  130.1090  127.3960   68.6030 C   0  0  0  0  0  0  0  0  0  0  0  0
  129.1380  126.4920   67.4800 S   0  0  0  0  0  0  0  0  0  0  0  0
  129.9850  125.6870   61.9930 S   0  0  0  0  0  0  0  0  0  0  0  0
  129.8100  124.3560   60.8740 C   0  0  0  0  0  0  0  0  0  0  0  0
  129.2430  124.5220   59.6820 N   0  0  0  0  0  0  0  0  0  0  0  0
  129.1580  123.4320   58.8760 C   0  0  0  0  0  0  0  0  0  0  0  0
  128.5240  123.6560   57.5340 C   0  0  0  0  0  0  0  0  0  0  0  0
  127.2000  123.2570   57.2880 C   0  0  0  0  0  0  0  0  0  0  0  0
  126.6080  123.4570   56.0440 C   0  0  0  0  0  0  0  0  0  0  0  0
  127.3360  124.0590   55.0220 C   0  0  0  0  0  0  0  0  0  0  0  0
  128.6490  124.4610   55.2370 C   0  0  0  0  0  0  0  0  0  0  0  0
  129.2360  124.2600   56.4840 C   0  0  0  0  0  0  0  0  0  0  0  0
  129.6200  122.1760   59.2820 C   0  0  0  0  0  0  0  0  0  0  0  0
  130.2190  121.9890   60.5380 C   0  0  0  0  0  0  0  0  0  0  0  0
  130.7070  120.5860   60.9180 C   0  0  0  0  0  0  0  0  0  0  0  0
  130.2680  120.1840   62.1120 F   0  0  0  0  0  0  0  0  0  0  0  0
  130.2800  119.7020   60.0170 F   0  0  0  0  0  0  0  0  0  0  0  0
  132.0400  120.5670   60.9550 F   0  0  0  0  0  0  0  0  0  0  0  0
  130.3310  123.1310   61.3830 C   0  0  0  0  0  0  0  0  0  0  0  0
  1  2  1  0
  2  3  2  0
  3  4  1  0
  4  5  2  0
  4  6  1  0
  6  7  1  0
  7  8  2  0
  8  9  1  0
  9 10  2  0
 10 11  1  0
  3 12  1  0
 12 13  1  0
 13 14  2  0
 14 15  1  0
 15 16  1  0
 16 17  2  0
 17 18  1  0
 18 19  2  0
 19 20  1  0
 20 21  2  0
 15 22  2  0
 22 23  1  0
 23 24  1  0
 24 25  1  0
 24 26  1  0
 24 27  1  0
 23 28  2  0
 28  2  1  0
 11  7  1  0
 28 13  1  0
 21 16  1  0
M  END
>  <Binding energies>  (58) 
[-6.58]

>  <Ligand effiencies>  (58) 
[-0.21225806451612902]

>  <Interactions>  (58) 
["V-B:PRO:540:N:9856, V-A:TRP:381:CZ2:3368, H-B:GLU:543:OE1:9881, V-B:TYR:539:CZ:9849, V-A:TRP:381:CH2:3370, V-B:ALA:541:CB:9864, V-B:PRO:540:CA:9855, V-B:ALA:541:CA:9862, V-B:TYR:539:CE2:9848, V-A:LEU:475:CD2:4257, V-B:TYR:539:CE1:9847, V-A:PRO:482:CB:4324, V-B:TYR:539:CD2:9846, V-A:GLU:543:CD:4906, V-B:GLU:543:CD:9880, V-B:TYR:539:C:9839, H-B:GLU:543:OE2:9882, H-A:GLU:543:OE2:4908, H-A:TYR:484:OH:4346, H-A:ARG:545:NE:4922, V-B:TYR:539:CG:9844, V-A:HIS:456:CE1:4068, V-A:GLY:544:C:4910, V-B:GLU:543:CG:9879, V-B:GLU:543:C:9874, V-A:ARG:545:CG:4920, V-A:GLU:543:CG:4905, V-A:TYR:484:CZ:4345, V-B:GLU:543:CB:9878, V-A:GLU:543:C:4900, V-A:ARG:545:CA:4917, V-A:LEU:475:CG:4255, V-A:LEU:475:CD1:4256, V-A:TRP:381:CZ3:3369"]

$$$$
4ck_Grossjean_2025
     RDKit          3D

 33 35  0  0  0  0  0  0  0  0999 V2000
  126.7560  129.8040   74.2410 C   0  0  0  0  0  0  0  0  0  0  0  0
  127.8630  129.1680   73.6210 O   0  0  0  0  0  0  0  0  0  0  0  0
  127.5010  128.3660   72.5050 C   0  0  0  0  0  0  0  0  0  0  0  0
  128.5780  127.2960   72.2870 C   0  0  0  0  0  0  0  0  0  0  0  0
  129.6080  127.8350   71.4710 O   0  0  0  0  0  0  0  0  0  0  0  0
  129.8270  127.1010   70.2730 C   0  0  0  0  0  0  0  0  0  0  0  0
  128.8800  127.6220   69.1840 C   0  0  0  0  0  0  0  0  0  0  0  0
  129.5830  127.6660   67.9500 O   0  0  0  0  0  0  0  0  0  0  0  0
  129.7970  126.3880   67.3640 C   0  0  0  0  0  0  0  0  0  0  0  0
  130.9360  126.4750   66.3380 C   0  0  0  0  0  0  0  0  0  0  0  0
  130.6010  125.7990   65.0840 N   0  0  0  0  0  0  0  0  0  0  0  0
  131.4470  125.0640   64.3320 C   0  0  0  0  0  0  0  0  0  0  0  0
  132.6190  124.8610   64.6550 O   0  0  0  0  0  0  0  0  0  0  0  0
  130.8860  124.5040   63.1020 C   0  0  0  0  0  0  0  0  0  0  0  0
  130.0170  125.5420   61.9740 S   0  0  0  0  0  0  0  0  0  0  0  0
  129.7730  124.2090   60.8700 C   0  0  0  0  0  0  0  0  0  0  0  0
  129.1210  124.3690   59.7220 N   0  0  0  0  0  0  0  0  0  0  0  0
  128.9790  123.2750   58.9280 C   0  0  0  0  0  0  0  0  0  0  0  0
  128.2550  123.4930   57.6310 C   0  0  0  0  0  0  0  0  0  0  0  0
  126.8600  123.3540   57.5540 C   0  0  0  0  0  0  0  0  0  0  0  0
  126.1820  123.5520   56.3540 C   0  0  0  0  0  0  0  0  0  0  0  0
  126.8930  123.8950   55.2090 C   0  0  0  0  0  0  0  0  0  0  0  0
  128.2750  124.0450   55.2580 C   0  0  0  0  0  0  0  0  0  0  0  0
  128.9490  123.8460   56.4610 C   0  0  0  0  0  0  0  0  0  0  0  0
  129.5010  122.0280   59.2890 C   0  0  0  0  0  0  0  0  0  0  0  0
  130.1900  121.8480   60.4990 C   0  0  0  0  0  0  0  0  0  0  0  0
  130.7320  120.4530   60.8340 C   0  0  0  0  0  0  0  0  0  0  0  0
  130.3440  119.5180   59.9650 F   0  0  0  0  0  0  0  0  0  0  0  0
  132.0640  120.4750   60.8290 F   0  0  0  0  0  0  0  0  0  0  0  0
  130.3020  120.0810   62.0390 F   0  0  0  0  0  0  0  0  0  0  0  0
  130.3420  122.9880   61.3390 C   0  0  0  0  0  0  0  0  0  0  0  0
  130.9800  123.1900   62.6180 C   0  0  0  0  0  0  0  0  0  0  0  0
  131.6160  122.1840   63.2980 N   0  0  0  0  0  0  0  0  0  0  0  0
  1  2  1  0
  2  3  1  0
  3  4  1  0
  4  5  1  0
  5  6  1  0
  6  7  1  0
  7  8  1  0
  8  9  1  0
  9 10  1  0
 10 11  1  0
 11 12  1  0
 12 13  2  0
 12 14  1  0
 14 15  1  0
 15 16  1  0
 16 17  2  0
 17 18  1  0
 18 19  1  0
 19 20  2  0
 20 21  1  0
 21 22  2  0
 22 23  1  0
 23 24  2  0
 18 25  2  0
 25 26  1  0
 26 27  1  0
 27 28  1  0
 27 29  1  0
 27 30  1  0
 26 31  2  0
 31 32  1  0
 32 33  1  0
 32 14  2  0
 31 16  1  0
 24 19  1  0
M  END
>  <Binding energies>  (59) 
[-6.98]

>  <Ligand effiencies>  (59) 
[-0.1938888888888889]

>  <Interactions>  (59) 
["V-B:PRO:540:N:9856, V-A:TRP:381:CZ2:3368, H-B:GLU:543:OE1:9881, V-B:TYR:539:CZ:9849, V-A:TRP:381:CH2:3370, V-B:ALA:541:CB:9864, V-B:PRO:540:CA:9855, V-B:ALA:541:CA:9862, V-B:TYR:539:CE2:9848, V-A:LEU:475:CD2:4257, V-B:TYR:539:CE1:9847, V-A:PRO:482:CB:4324, V-B:TYR:539:CD2:9846, V-A:GLU:543:CD:4906, V-B:GLU:543:CD:9880, V-B:TYR:539:C:9839, H-B:GLU:543:OE2:9882, H-A:GLU:543:OE2:4908, H-A:TYR:484:OH:4346, H-A:ARG:545:NE:4922, V-B:TYR:539:CG:9844, V-B:HIS:456:CE1:9042, V-A:HIS:456:CD2:4066, V-B:GLY:544:C:9884, V-B:HIS:456:CD2:9040, H-A:LYS:547:NZ:4949, V-B:HIS:456:CG:9038, V-B:HIS:456:CB:9037, V-A:HIS:456:CE1:4068, V-B:LYS:547:CE:9922, V-B:GLU:543:CG:9879, V-A:ARG:545:CG:4920, V-A:TYR:484:CZ:4345, V-B:GLU:543:CB:9878, V-A:LEU:475:CG:4255, V-A:LEU:475:CD1:4256, V-A:TRP:381:CZ3:3369, V-B:TYR:539:CB:9843"]

$$$$
4dd_Grossjean_2025
     RDKit          3D

 26 29  0  0  0  0  0  0  0  0999 V2000
  130.6210  120.7180   61.1390 C   0  0  0  0  0  0  0  0  0  0  0  0
  130.2860  122.1260   60.6730 C   0  0  0  0  0  0  0  0  0  0  0  0
  129.7930  122.2920   59.3730 C   0  0  0  0  0  0  0  0  0  0  0  0
  129.4650  123.5620   58.8840 C   0  0  0  0  0  0  0  0  0  0  0  0
  128.9400  123.7700   57.4940 C   0  0  0  0  0  0  0  0  0  0  0  0
  127.7320  123.1820   57.0860 C   0  0  0  0  0  0  0  0  0  0  0  0
  127.2370  123.3730   55.7990 C   0  0  0  0  0  0  0  0  0  0  0  0
  127.9480  124.1560   54.8960 C   0  0  0  0  0  0  0  0  0  0  0  0
  129.1470  124.7520   55.2730 C   0  0  0  0  0  0  0  0  0  0  0  0
  129.6370  124.5600   56.5630 C   0  0  0  0  0  0  0  0  0  0  0  0
  129.6210  124.6850   59.6380 N   0  0  0  0  0  0  0  0  0  0  0  0
  130.0840  124.5280   60.8770 C   0  0  0  0  0  0  0  0  0  0  0  0
  130.3160  125.8820   61.9600 S   0  0  0  0  0  0  0  0  0  0  0  0
  130.8940  124.8180   63.2440 C   0  0  0  0  0  0  0  0  0  0  0  0
  131.2770  125.3680   64.5460 C   0  0  0  0  0  0  0  0  0  0  0  0
  132.4340  125.2610   64.9560 O   0  0  0  0  0  0  0  0  0  0  0  0
  130.2850  125.9880   65.2290 N   0  0  0  0  0  0  0  0  0  0  0  0
  130.3050  126.5670   66.5110 C   0  0  0  0  0  0  0  0  0  0  0  0
  129.1240  126.4550   67.2510 C   0  0  0  0  0  0  0  0  0  0  0  0
  129.0490  126.9830   68.5370 C   0  0  0  0  0  0  0  0  0  0  0  0
  130.1580  127.6180   69.0880 C   0  0  0  0  0  0  0  0  0  0  0  0
  131.3440  127.7260   68.3670 C   0  0  0  0  0  0  0  0  0  0  0  0
  131.4230  127.1990   67.0810 C   0  0  0  0  0  0  0  0  0  0  0  0
  130.9030  123.4790   62.8240 C   0  0  0  0  0  0  0  0  0  0  0  0
  131.3100  122.4330   63.6150 N   0  0  0  0  0  0  0  0  0  0  0  0
  130.4410  123.2860   61.4750 C   0  0  0  0  0  0  0  0  0  0  0  0
  1  2  1  0
  2  3  2  0
  3  4  1  0
  4  5  1  0
  5  6  2  0
  6  7  1  0
  7  8  2  0
  8  9  1  0
  9 10  2  0
  4 11  2  0
 11 12  1  0
 12 13  1  0
 13 14  1  0
 14 15  1  0
 15 16  2  0
 15 17  1  0
 17 18  1  0
 18 19  2  0
 19 20  1  0
 20 21  2  0
 21 22  1  0
 22 23  2  0
 14 24  2  0
 24 25  1  0
 24 26  1  0
 26  2  1  0
 10  5  1  0
 26 12  2  0
 23 18  1  0
M  END
>  <Binding energies>  (60) 
[-7.01]

>  <Ligand effiencies>  (60) 
[-0.24172413793103448]

>  <Interactions>  (60) 
["V-B:PRO:540:N:9856, H-B:GLU:543:OE1:9881, V-B:TYR:539:CZ:9849, V-B:ALA:541:CB:9864, V-B:TYR:539:CE2:9848, V-A:LEU:475:CD2:4257, V-B:TYR:539:CE1:9847, V-B:TYR:539:CD2:9846, V-A:GLU:543:CD:4906, V-B:GLU:543:CD:9880, V-B:TYR:539:C:9839, H-B:GLU:543:OE2:9882, H-A:GLU:543:OE2:4908, V-A:ARG:545:CD:4921, H-A:TYR:484:OH:4346, H-A:ARG:545:NE:4922, V-A:HIS:456:CE1:4068, V-A:GLY:544:C:4910, V-B:GLU:543:CG:9879, V-B:GLU:543:C:9874, V-A:ARG:545:CG:4920, V-A:GLU:543:CG:4905, V-A:TYR:484:CZ:4345, V-B:GLU:543:CB:9878, V-A:GLU:543:C:4900, V-A:TYR:484:CE1:4343, V-A:ARG:545:CA:4917, V-A:ARG:545:CB:4919"]

$$$$
4dg_Grossjean_2025
     RDKit          3D

 27 30  0  0  0  0  0  0  0  0999 V2000
  130.6480  120.5330   61.3830 C   0  0  0  0  0  0  0  0  0  0  0  0
  130.1410  121.9130   60.9940 C   0  0  0  0  0  0  0  0  0  0  0  0
  129.3990  122.0350   59.8130 C   0  0  0  0  0  0  0  0  0  0  0  0
  128.9040  123.2780   59.3990 C   0  0  0  0  0  0  0  0  0  0  0  0
  128.1030  123.4390   58.1370 C   0  0  0  0  0  0  0  0  0  0  0  0
  128.7110  123.3160   56.8770 C   0  0  0  0  0  0  0  0  0  0  0  0
  127.9740  123.4690   55.7050 C   0  0  0  0  0  0  0  0  0  0  0  0
  126.6140  123.7480   55.7760 C   0  0  0  0  0  0  0  0  0  0  0  0
  125.9870  123.8790   57.0110 C   0  0  0  0  0  0  0  0  0  0  0  0
  126.7270  123.7270   58.1800 C   0  0  0  0  0  0  0  0  0  0  0  0
  129.1040  124.4090   60.1280 N   0  0  0  0  0  0  0  0  0  0  0  0
  129.8110  124.2950   61.2520 C   0  0  0  0  0  0  0  0  0  0  0  0
  130.1470  125.6700   62.2780 S   0  0  0  0  0  0  0  0  0  0  0  0
  131.0410  124.6600   63.4130 C   0  0  0  0  0  0  0  0  0  0  0  0
  131.6780  125.2590   64.5840 C   0  0  0  0  0  0  0  0  0  0  0  0
  132.8340  124.9710   64.9040 O   0  0  0  0  0  0  0  0  0  0  0  0
  130.9120  126.1050   65.3040 N   0  0  0  0  0  0  0  0  0  0  0  0
  131.3450  126.8330   66.4960 C   0  0  0  0  0  0  0  0  0  0  0  0
  130.2080  127.1420   67.4630 C   0  0  0  0  0  0  0  0  0  0  0  0
  128.8960  127.2310   66.9870 C   0  0  0  0  0  0  0  0  0  0  0  0
  127.8510  127.4810   67.8720 C   0  0  0  0  0  0  0  0  0  0  0  0
  128.1190  127.6300   69.2310 C   0  0  0  0  0  0  0  0  0  0  0  0
  129.4210  127.5260   69.7150 C   0  0  0  0  0  0  0  0  0  0  0  0
  130.4660  127.2750   68.8300 C   0  0  0  0  0  0  0  0  0  0  0  0
  131.0780  123.3240   62.9860 C   0  0  0  0  0  0  0  0  0  0  0  0
  131.7190  122.3220   63.6700 N   0  0  0  0  0  0  0  0  0  0  0  0
  130.3700  123.0870   61.7570 C   0  0  0  0  0  0  0  0  0  0  0  0
  1  2  1  0
  2  3  2  0
  3  4  1  0
  4  5  1  0
  5  6  2  0
  6  7  1  0
  7  8  2  0
  8  9  1  0
  9 10  2  0
  4 11  2  0
 11 12  1  0
 12 13  1  0
 13 14  1  0
 14 15  1  0
 15 16  2  0
 15 17  1  0
 17 18  1  0
 18 19  1  0
 19 20  2  0
 20 21  1  0
 21 22  2  0
 22 23  1  0
 23 24  2  0
 14 25  2  0
 25 26  1  0
 25 27  1  0
 27  2  1  0
 10  5  1  0
 27 12  2  0
 24 19  1  0
M  END
>  <Binding energies>  (61) 
[-8.53]

>  <Ligand effiencies>  (61) 
[-0.2843333333333333]

>  <Interactions>  (61) 
["V-B:PRO:540:N:9856, H-B:GLU:543:OE1:9881, V-B:TYR:539:CZ:9849, V-B:ALA:541:CB:9864, V-B:PRO:540:CA:9855, V-B:TYR:539:CE2:9848, V-A:LEU:475:CD2:4257, V-B:TYR:539:CE1:9847, V-B:TYR:539:CD1:9845, V-B:TYR:539:CD2:9846, V-A:GLU:543:CD:4906, V-B:GLU:543:CD:9880, V-B:TYR:539:C:9839, H-B:GLU:543:OE2:9882, H-A:GLU:543:OE2:4908, V-A:ARG:545:CD:4921, H-A:TYR:484:OH:4346, H-A:ARG:545:NE:4922, V-B:TYR:539:CG:9844, V-B:HIS:456:CE1:9042, V-A:HIS:456:CE1:4068, V-B:GLU:543:CG:9879, V-A:ARG:545:CG:4920, V-A:GLU:543:CG:4905, V-A:TYR:484:CZ:4345, V-B:GLU:543:CB:9878, V-A:GLU:543:C:4900, V-A:TYR:484:CE1:4343"]

$$$$
4dj_Grossjean_2025
     RDKit          3D

 25 28  0  0  0  0  0  0  0  0999 V2000
  130.6380  120.5240   61.2300 C   0  0  0  0  0  0  0  0  0  0  0  0
  130.2700  121.9250   60.7650 C   0  0  0  0  0  0  0  0  0  0  0  0
  129.7460  122.0760   59.4760 C   0  0  0  0  0  0  0  0  0  0  0  0
  129.3890  123.3390   58.9880 C   0  0  0  0  0  0  0  0  0  0  0  0
  128.8190  123.5310   57.6110 C   0  0  0  0  0  0  0  0  0  0  0  0
  127.5620  123.0040   57.2720 C   0  0  0  0  0  0  0  0  0  0  0  0
  127.0280  123.1780   55.9980 C   0  0  0  0  0  0  0  0  0  0  0  0
  127.7490  123.8810   55.0380 C   0  0  0  0  0  0  0  0  0  0  0  0
  128.9980  124.4100   55.3450 C   0  0  0  0  0  0  0  0  0  0  0  0
  129.5270  124.2350   56.6200 C   0  0  0  0  0  0  0  0  0  0  0  0
  129.5180  124.4640   59.7430 N   0  0  0  0  0  0  0  0  0  0  0  0
  130.0170  124.3210   60.9700 C   0  0  0  0  0  0  0  0  0  0  0  0
  130.2440  125.6840   62.0430 S   0  0  0  0  0  0  0  0  0  0  0  0
  130.8840  124.6380   63.3120 C   0  0  0  0  0  0  0  0  0  0  0  0
  131.3130  125.2040   64.5920 C   0  0  0  0  0  0  0  0  0  0  0  0
  132.4530  125.0010   65.0200 O   0  0  0  0  0  0  0  0  0  0  0  0
  130.3810  125.9370   65.2480 N   0  0  0  0  0  0  0  0  0  0  0  0
  130.5300  126.5760   66.4700 C   0  0  0  0  0  0  0  0  0  0  0  0
  131.5850  127.2190   66.9230 N   0  0  0  0  0  0  0  0  0  0  0  0
  131.3750  127.7060   68.1300 C   0  0  0  0  0  0  0  0  0  0  0  0
  130.1220  127.4610   68.6840 C   0  0  0  0  0  0  0  0  0  0  0  0
  129.1750  126.5410   67.5530 S   0  0  0  0  0  0  0  0  0  0  0  0
  130.9140  123.2980   62.8950 C   0  0  0  0  0  0  0  0  0  0  0  0
  131.3680  122.2650   63.6770 N   0  0  0  0  0  0  0  0  0  0  0  0
  130.4210  123.0900   61.5610 C   0  0  0  0  0  0  0  0  0  0  0  0
  1  2  1  0
  2  3  2  0
  3  4  1  0
  4  5  1  0
  5  6  2  0
  6  7  1  0
  7  8  2  0
  8  9  1  0
  9 10  2  0
  4 11  2  0
 11 12  1  0
 12 13  1  0
 13 14  1  0
 14 15  1  0
 15 16  2  0
 15 17  1  0
 17 18  1  0
 18 19  2  0
 19 20  1  0
 20 21  2  0
 21 22  1  0
 14 23  2  0
 23 24  1  0
 23 25  1  0
 25  2  1  0
 10  5  1  0
 25 12  2  0
 22 18  1  0
M  END
>  <Binding energies>  (62) 
[-6.96]

>  <Ligand effiencies>  (62) 
[-0.24857142857142858]

>  <Interactions>  (62) 
["V-B:PRO:540:N:9856, H-B:GLU:543:OE1:9881, V-B:TYR:539:CZ:9849, V-B:ILE:538:CA:9832, V-B:ALA:541:CB:9864, V-B:PRO:540:CA:9855, V-B:TYR:539:CE2:9848, V-A:LEU:475:CD2:4257, V-B:TYR:539:CE1:9847, V-B:TYR:539:CD2:9846, V-A:GLU:543:CD:4906, V-B:GLU:543:CD:9880, V-B:TYR:539:C:9839, H-B:GLU:543:OE2:9882, H-A:GLU:543:OE2:4908, H-A:TYR:484:OH:4346, H-A:ARG:545:NE:4922, V-B:TYR:539:CA:9841, V-A:HIS:456:CE1:4068, V-A:GLY:544:C:4910, V-B:GLU:543:CG:9879, V-B:GLU:543:C:9874, V-A:ARG:545:CG:4920, V-A:GLU:543:CG:4905, V-A:TYR:484:CZ:4345, V-B:GLU:543:CB:9878, V-A:GLU:543:C:4900, V-A:TYR:484:CE1:4343, V-A:ARG:545:CA:4917, V-A:ARG:545:CB:4919"]

$$$$
4ea_Grossjean_2025
     RDKit          3D

 31 34  0  0  0  0  0  0  0  0999 V2000
  133.7920  131.7640   56.7420 C   0  0  0  0  0  0  0  0  0  0  0  0
  132.8980  132.1430   55.5580 C   0  0  0  0  0  0  0  0  0  0  0  0
  131.6890  132.7130   56.0410 O   0  0  0  0  0  0  0  0  0  0  0  0
  130.4890  132.1260   55.7980 C   0  0  0  0  0  0  0  0  0  0  0  0
  129.5750  132.6790   55.1800 O   0  0  0  0  0  0  0  0  0  0  0  0
  130.3860  130.7360   56.3560 C   0  0  0  0  0  0  0  0  0  0  0  0
  131.0350  130.4330   57.5600 C   0  0  0  0  0  0  0  0  0  0  0  0
  130.9580  129.1540   58.1040 C   0  0  0  0  0  0  0  0  0  0  0  0
  130.2330  128.1520   57.4570 C   0  0  0  0  0  0  0  0  0  0  0  0
  130.2250  126.8990   58.0990 N   0  0  0  0  0  0  0  0  0  0  0  0
  129.3430  125.8730   58.0120 C   0  0  0  0  0  0  0  0  0  0  0  0
  128.3350  125.8820   57.3040 O   0  0  0  0  0  0  0  0  0  0  0  0
  129.6610  124.7050   58.8380 C   0  0  0  0  0  0  0  0  0  0  0  0
  129.1980  123.0850   58.3090 S   0  0  0  0  0  0  0  0  0  0  0  0
  129.8940  122.3650   59.7430 C   0  0  0  0  0  0  0  0  0  0  0  0
  129.8660  121.0490   59.9560 N   0  0  0  0  0  0  0  0  0  0  0  0
  130.4400  120.6190   61.1060 C   0  0  0  0  0  0  0  0  0  0  0  0
  130.3960  119.1180   61.3290 C   0  0  0  0  0  0  0  0  0  0  0  0
  131.0370  121.4650   62.0380 C   0  0  0  0  0  0  0  0  0  0  0  0
  131.0650  122.8450   61.8110 C   0  0  0  0  0  0  0  0  0  0  0  0
  131.7020  123.7320   62.8100 C   0  0  0  0  0  0  0  0  0  0  0  0
  133.0150  124.1750   62.6210 C   0  0  0  0  0  0  0  0  0  0  0  0
  133.6150  125.0110   63.5590 C   0  0  0  0  0  0  0  0  0  0  0  0
  132.9010  125.4000   64.6910 C   0  0  0  0  0  0  0  0  0  0  0  0
  131.5950  124.9610   64.8910 C   0  0  0  0  0  0  0  0  0  0  0  0
  130.9970  124.1250   63.9520 C   0  0  0  0  0  0  0  0  0  0  0  0
  130.4720  123.3370   60.6150 C   0  0  0  0  0  0  0  0  0  0  0  0
  130.3250  124.6640   60.0740 C   0  0  0  0  0  0  0  0  0  0  0  0
  130.7980  125.7750   60.7230 N   0  0  0  0  0  0  0  0  0  0  0  0
  129.5790  128.4470   56.2500 C   0  0  0  0  0  0  0  0  0  0  0  0
  129.6570  129.7260   55.7080 C   0  0  0  0  0  0  0  0  0  0  0  0
  1  2  1  0
  2  3  1  0
  3  4  1  0
  4  5  2  0
  4  6  1  0
  6  7  2  0
  7  8  1  0
  8  9  2  0
  9 10  1  0
 10 11  1  0
 11 12  2  0
 11 13  1  0
 13 14  1  0
 14 15  1  0
 15 16  2  0
 16 17  1  0
 17 18  1  0
 17 19  2  0
 19 20  1  0
 20 21  1  0
 21 22  2  0
 22 23  1  0
 23 24  2  0
 24 25  1  0
 25 26  2  0
 20 27  2  0
 27 28  1  0
 28 29  1  0
  9 30  1  0
 30 31  2  0
 31  6  1  0
 28 13  2  0
 27 15  1  0
 26 21  1  0
M  END
>  <Binding energies>  (63) 
[-7.32]

>  <Ligand effiencies>  (63) 
[-0.21529411764705883]

>  <Interactions>  (63) 
["V-A:TRP:381:CZ2:3368, V-B:TYR:539:CZ:9849, V-A:TRP:381:CH2:3370, V-B:ALA:541:CB:9864, V-A:PRO:482:CG:4325, V-B:TYR:539:CE2:9848, V-A:LEU:475:CD2:4257, V-A:PRO:482:CB:4324, V-B:TYR:539:CD2:9846, H-A:TYR:539:N:4868, V-A:ILE:538:CA:4858, V-A:TYR:531:CE2:4791, V-A:LEU:363:CA:3183, V-A:LEU:363:CD1:3187, V-A:ILE:538:CB:4860, V-A:ILE:538:CG2:4861, V-A:TYR:531:CZ:4792, V-A:PRO:540:CB:4883, V-B:GLU:543:CD:9880, V-B:TYR:539:C:9839, V-A:ARG:545:CZ:4924, V-A:LEU:363:CB:3185, H-A:ASP:366:OD2:3213, V-A:PRO:540:CD:4885, V-A:ARG:545:CD:4921, V-B:TYR:539:CG:9844, H-A:ASP:366:OD1:3212, V-A:HIS:456:CE1:4068, V-A:PRO:540:CG:4884, V-A:ARG:545:CG:4920, V-A:GLY:453:CA:4042, V-A:GLY:453:C:4040, V-A:LEU:475:CG:4255, V-A:LEU:475:CD1:4256"]

$$$$
4eb_Grossjean_2025
     RDKit          3D

 30 33  0  0  0  0  0  0  0  0999 V2000
  129.7370  127.0580   72.6620 C   0  0  0  0  0  0  0  0  0  0  0  0
  129.1070  128.1990   72.0980 O   0  0  0  0  0  0  0  0  0  0  0  0
  128.1950  128.0710   71.0990 C   0  0  0  0  0  0  0  0  0  0  0  0
  126.9870  128.2730   71.2520 O   0  0  0  0  0  0  0  0  0  0  0  0
  128.8040  127.6600   69.7890 C   0  0  0  0  0  0  0  0  0  0  0  0
  127.9630  127.2930   68.7300 C   0  0  0  0  0  0  0  0  0  0  0  0
  128.4970  126.9070   67.5040 C   0  0  0  0  0  0  0  0  0  0  0  0
  129.8780  126.8800   67.3100 C   0  0  0  0  0  0  0  0  0  0  0  0
  130.3040  126.4730   66.0300 N   0  0  0  0  0  0  0  0  0  0  0  0
  130.6750  125.2520   65.5760 C   0  0  0  0  0  0  0  0  0  0  0  0
  130.6990  124.2320   66.2660 O   0  0  0  0  0  0  0  0  0  0  0  0
  131.0640  125.2020   64.1640 C   0  0  0  0  0  0  0  0  0  0  0  0
  132.3650  124.1340   63.6340 S   0  0  0  0  0  0  0  0  0  0  0  0
  132.1830  124.6550   61.9740 C   0  0  0  0  0  0  0  0  0  0  0  0
  132.9480  124.1710   60.9950 N   0  0  0  0  0  0  0  0  0  0  0  0
  132.7060  124.6570   59.7540 C   0  0  0  0  0  0  0  0  0  0  0  0
  133.5870  124.0920   58.6540 C   0  0  0  0  0  0  0  0  0  0  0  0
  131.7270  125.6070   59.4700 C   0  0  0  0  0  0  0  0  0  0  0  0
  130.9260  126.1130   60.5010 C   0  0  0  0  0  0  0  0  0  0  0  0
  129.8900  127.1220   60.1850 C   0  0  0  0  0  0  0  0  0  0  0  0
  130.2450  128.4640   60.0170 C   0  0  0  0  0  0  0  0  0  0  0  0
  129.2700  129.4140   59.7180 C   0  0  0  0  0  0  0  0  0  0  0  0
  127.9400  129.0210   59.5900 C   0  0  0  0  0  0  0  0  0  0  0  0
  127.5770  127.6860   59.7580 C   0  0  0  0  0  0  0  0  0  0  0  0
  128.5520  126.7380   60.0570 C   0  0  0  0  0  0  0  0  0  0  0  0
  131.1490  125.6280   61.8190 C   0  0  0  0  0  0  0  0  0  0  0  0
  130.5280  125.9200   63.0840 C   0  0  0  0  0  0  0  0  0  0  0  0
  129.5030  126.8250   63.2040 N   0  0  0  0  0  0  0  0  0  0  0  0
  130.7280  127.2450   68.3650 C   0  0  0  0  0  0  0  0  0  0  0  0
  130.1930  127.6310   69.5910 C   0  0  0  0  0  0  0  0  0  0  0  0
  1  2  1  0
  2  3  1  0
  3  4  2  0
  3  5  1  0
  5  6  2  0
  6  7  1  0
  7  8  2  0
  8  9  1  0
  9 10  1  0
 10 11  2  0
 10 12  1  0
 12 13  1  0
 13 14  1  0
 14 15  2  0
 15 16  1  0
 16 17  1  0
 16 18  2  0
 18 19  1  0
 19 20  1  0
 20 21  2  0
 21 22  1  0
 22 23  2  0
 23 24  1  0
 24 25  2  0
 19 26  2  0
 26 27  1  0
 27 28  1  0
  8 29  1  0
 29 30  2  0
 30  5  1  0
 27 12  2  0
 26 14  1  0
 25 20  1  0
M  END
>  <Binding energies>  (64) 
[-7.09]

>  <Ligand effiencies>  (64) 
[-0.21484848484848484]

>  <Interactions>  (64) 
["H-B:GLU:543:OE1:9881, V-B:TYR:539:CE2:9848, V-A:ASP:366:CG:3211, V-A:ASP:366:CB:3210, V-A:GLU:543:CD:4906, V-B:GLU:543:CD:9880, H-B:GLU:543:OE2:9882, H-A:GLU:543:OE2:4908, H-A:GLU:543:OE1:4907, H-A:TYR:484:OH:4346, V-A:ILE:369:CG2:3235, V-A:ASP:366:CA:3208, V-B:HIS:456:CE1:9042, V-B:GLY:544:C:9884, V-B:HIS:456:CD2:9040, V-A:LYS:547:CE:4948, V-A:HIS:456:CE1:4068, V-A:GLY:544:C:4910, V-B:GLU:543:CG:9879, V-B:GLU:543:C:9874, V-A:ARG:545:CG:4920, V-A:GLU:543:CG:4905, V-B:GLU:543:CB:9878, V-A:GLU:543:C:4900, H-B:HIS:456:ND1:9039"]

$$$$
8b_Ghoteimi_2023
     RDKit          3D

 34 38  0  0  0  0  0  0  0  0999 V2000
  133.6680  133.2460   55.5340 C   0  0  0  0  0  0  0  0  0  0  0  0
  132.2760  133.2650   55.8290 O   0  0  0  0  0  0  0  0  0  0  0  0
  131.7400  132.2640   56.6170 C   0  0  0  0  0  0  0  0  0  0  0  0
  130.3560  132.1090   56.5720 C   0  0  0  0  0  0  0  0  0  0  0  0
  129.7290  131.1280   57.3330 C   0  0  0  0  0  0  0  0  0  0  0  0
  130.4720  130.2730   58.1610 C   0  0  0  0  0  0  0  0  0  0  0  0
  129.8030  129.2180   58.9820 C   0  0  0  0  0  0  0  0  0  0  0  0
  128.8060  129.5300   59.9130 C   0  0  0  0  0  0  0  0  0  0  0  0
  128.1950  128.5240   60.6680 C   0  0  0  0  0  0  0  0  0  0  0  0
  127.1500  128.8890   61.6520 C   0  0  0  0  0  0  0  0  0  0  0  0
  127.4110  128.8000   63.0210 C   0  0  0  0  0  0  0  0  0  0  0  0
  126.4300  129.1530   63.9440 C   0  0  0  0  0  0  0  0  0  0  0  0
  125.1780  129.5970   63.5150 C   0  0  0  0  0  0  0  0  0  0  0  0
  124.2690  129.9270   64.5020 O   0  0  0  0  0  0  0  0  0  0  0  0
  124.6550  129.8140   65.8680 C   0  0  0  0  0  0  0  0  0  0  0  0
  124.9180  129.6820   62.1390 C   0  0  0  0  0  0  0  0  0  0  0  0
  125.8990  129.3290   61.2160 C   0  0  0  0  0  0  0  0  0  0  0  0
  128.6120  127.1820   60.4560 C   0  0  0  0  0  0  0  0  0  0  0  0
  128.2050  125.9300   61.0380 C   0  0  0  0  0  0  0  0  0  0  0  0
  127.2330  125.8510   62.0020 N   0  0  0  0  0  0  0  0  0  0  0  0
  128.8900  124.8170   60.5270 C   0  0  0  0  0  0  0  0  0  0  0  0
  128.7290  123.4050   60.8840 C   0  0  0  0  0  0  0  0  0  0  0  0
  127.7490  123.0270   61.5310 O   0  0  0  0  0  0  0  0  0  0  0  0
  129.7190  122.5810   60.4580 N   0  0  0  0  0  0  0  0  0  0  0  0
  129.8190  121.2100   60.6500 C   0  0  0  0  0  0  0  0  0  0  0  0
  131.0380  120.5440   60.7630 C   0  0  0  0  0  0  0  0  0  0  0  0
  130.7080  119.2190   60.9370 C   0  0  0  0  0  0  0  0  0  0  0  0
  129.3600  119.0940   60.9330 O   0  0  0  0  0  0  0  0  0  0  0  0
  128.8070  120.3630   60.7520 N   0  0  0  0  0  0  0  0  0  0  0  0
  130.0630  125.2980   59.3010 S   0  0  0  0  0  0  0  0  0  0  0  0
  129.6300  126.9830   59.4800 C   0  0  0  0  0  0  0  0  0  0  0  0
  130.2150  127.9410   58.7620 N   0  0  0  0  0  0  0  0  0  0  0  0
  131.8630  130.4320   58.1990 C   0  0  0  0  0  0  0  0  0  0  0  0
  132.4940  131.4140   57.4390 C   0  0  0  0  0  0  0  0  0  0  0  0
  1  2  1  0
  2  3  1  0
  3  4  2  0
  4  5  1  0
  5  6  2  0
  6  7  1  0
  7  8  2  0
  8  9  1  0
  9 10  1  0
 10 11  2  0
 11 12  1  0
 12 13  2  0
 13 14  1  0
 14 15  1  0
 13 16  1  0
 16 17  2  0
  9 18  2  0
 18 19  1  0
 19 20  1  0
 19 21  2  0
 21 22  1  0
 22 23  2  0
 22 24  1  0
 24 25  1  0
 25 26  1  0
 26 27  2  0
 27 28  1  0
 28 29  1  0
 21 30  1  0
 30 31  1  0
 31 32  2  0
  6 33  1  0
 33 34  2  0
 34  3  1  0
 32  7  1  0
 17 10  1  0
 31 18  1  0
 29 25  2  0
M  END
>  <Binding energies>  (65) 
[-5.22]

>  <Ligand effiencies>  (65) 
[-0.14108108108108108]

>  <Interactions>  (65) 
["V-A:TRP:381:CZ2:3368, H-B:GLU:543:OE1:9881, V-A:TRP:381:CH2:3370, V-B:ALA:541:CB:9864, V-A:PRO:482:CG:4325, V-B:ASP:366:CG:8185, H-B:ARG:545:NH2:9900, H-B:ALA:541:N:9863, V-A:LEU:475:CD2:4257, V-A:PRO:482:CB:4324, V-B:TYR:539:CD2:9846, V-A:PRO:540:N:4882, H-A:TYR:539:N:4868, V-A:ILE:538:CA:4858, V-A:TYR:539:C:4865, V-A:LEU:363:CD1:3187, V-A:ILE:538:CB:4860, V-A:PRO:540:CA:4881, V-A:ILE:538:CG2:4861, V-A:GLU:543:CD:4906, V-A:PRO:540:CB:4883, V-B:ARG:545:CZ:9898, V-B:GLU:543:CD:9880, H-B:GLU:543:OE2:9882, V-A:PRO:540:CD:4885, V-A:ILE:538:CG1:4862, H-B:GLY:454:N:9022, H-B:TYR:484:OH:9320, V-B:HIS:456:CE1:9042, V-A:PRO:540:CG:4884, V-B:ARG:545:CG:9894, H-B:ARG:545:NE:9896, V-B:ARG:545:CD:9895, V-B:TYR:484:CZ:9319, V-A:ILE:538:CD1:4863, V-A:LEU:363:CG:3186, H-B:ARG:545:NH1:9899"]

$$$$
9d_Ghoteimi_2023
     RDKit          3D

 38 43  0  0  0  0  0  0  0  0999 V2000
  134.3610  123.9420   58.5400 C   0  0  0  0  0  0  0  0  0  0  0  0
  133.4350  122.9850   59.0330 O   0  0  0  0  0  0  0  0  0  0  0  0
  133.5070  122.5420   60.3150 C   0  0  0  0  0  0  0  0  0  0  0  0
  134.1250  121.5320   60.6620 O   0  0  0  0  0  0  0  0  0  0  0  0
  132.7600  123.3970   61.2630 C   0  0  0  0  0  0  0  0  0  0  0  0
  133.0390  123.2380   62.9970 S   0  0  0  0  0  0  0  0  0  0  0  0
  131.8910  124.5110   63.3390 C   0  0  0  0  0  0  0  0  0  0  0  0
  131.6540  124.9200   64.5840 N   0  0  0  0  0  0  0  0  0  0  0  0
  130.7560  125.9280   64.7420 C   0  0  0  0  0  0  0  0  0  0  0  0
  130.5250  126.3890   66.1460 C   0  0  0  0  0  0  0  0  0  0  0  0
  131.5010  127.1300   66.8190 C   0  0  0  0  0  0  0  0  0  0  0  0
  131.2970  127.5620   68.1270 C   0  0  0  0  0  0  0  0  0  0  0  0
  130.1010  127.2770   68.8060 C   0  0  0  0  0  0  0  0  0  0  0  0
  129.8880  127.6890   70.1260 N   0  0  0  0  0  0  0  0  0  0  0  0
  128.6170  128.3180   70.5400 C   0  0  0  0  0  0  0  0  0  0  0  0
  128.6830  129.0140   71.9150 C   0  0  0  0  0  0  0  0  0  0  0  0
  129.1440  128.1030   72.8990 O   0  0  0  0  0  0  0  0  0  0  0  0
  130.4430  127.6230   72.5950 C   0  0  0  0  0  0  0  0  0  0  0  0
  130.4340  126.8850   71.2390 C   0  0  0  0  0  0  0  0  0  0  0  0
  129.1320  126.5200   68.1310 C   0  0  0  0  0  0  0  0  0  0  0  0
  129.3380  126.0860   66.8250 C   0  0  0  0  0  0  0  0  0  0  0  0
  130.0770  126.4980   63.6630 C   0  0  0  0  0  0  0  0  0  0  0  0
  130.3080  126.0580   62.3540 C   0  0  0  0  0  0  0  0  0  0  0  0
  129.5380  126.6790   61.2450 C   0  0  0  0  0  0  0  0  0  0  0  0
  128.2610  126.2180   60.9170 C   0  0  0  0  0  0  0  0  0  0  0  0
  127.5360  126.8160   59.8890 C   0  0  0  0  0  0  0  0  0  0  0  0
  128.0640  127.9020   59.1730 C   0  0  0  0  0  0  0  0  0  0  0  0
  127.3610  128.5120   58.1320 N   0  0  0  0  0  0  0  0  0  0  0  0
  125.8850  128.5130   58.1660 C   0  0  0  0  0  0  0  0  0  0  0  0
  125.2540  129.5330   57.1950 C   0  0  0  0  0  0  0  0  0  0  0  0
  125.7300  129.3090   55.8760 O   0  0  0  0  0  0  0  0  0  0  0  0
  127.1420  129.4420   55.7990 C   0  0  0  0  0  0  0  0  0  0  0  0
  127.8180  128.4160   56.7330 C   0  0  0  0  0  0  0  0  0  0  0  0
  129.3470  128.3560   59.5100 C   0  0  0  0  0  0  0  0  0  0  0  0
  130.0720  127.7570   60.5360 C   0  0  0  0  0  0  0  0  0  0  0  0
  131.2750  125.0320   62.1620 C   0  0  0  0  0  0  0  0  0  0  0  0
  131.8080  124.3880   60.9900 C   0  0  0  0  0  0  0  0  0  0  0  0
  131.4330  124.7300   59.7170 N   0  0  0  0  0  0  0  0  0  0  0  0
  1  2  1  0
  2  3  1  0
  3  4  2  0
  3  5  1  0
  5  6  1  0
  6  7  1  0
  7  8  2  0
  8  9  1  0
  9 10  1  0
 10 11  2  0
 11 12  1  0
 12 13  2  0
 13 14  1  0
 14 15  1  0
 15 16  1  0
 16 17  1  0
 17 18  1  0
 18 19  1  0
 13 20  1  0
 20 21  2  0
  9 22  2  0
 22 23  1  0
 23 24  1  0
 24 25  2  0
 25 26  1  0
 26 27  2  0
 27 28  1  0
 28 29  1  0
 29 30  1  0
 30 31  1  0
 31 32  1  0
 32 33  1  0
 27 34  1  0
 34 35  2  0
 23 36  2  0
 36 37  1  0
 37 38  1  0
 37  5  2  0
 36  7  1  0
 21 10  1  0
 35 24  1  0
 19 14  1  0
 33 28  1  0
M  END
>  <Binding energies>  (66) 
[-5.66]

>  <Ligand effiencies>  (66) 
[-0.14150000000000001]

>  <Interactions>  (66) 
["V-B:ASP:366:CG:8185, V-A:ASP:366:CG:3211, V-A:ASP:366:CB:3210, V-A:GLU:543:CD:4906, V-B:GLU:543:CD:9880, H-B:TYR:531:OH:9767, V-A:GLY:454:CA:4047, V-A:ARG:545:CD:4921, H-A:TYR:484:OH:4346, V-B:ASP:366:CB:8184, H-A:TYR:539:OH:4876, H-A:ASP:366:OD1:3212, V-A:ILE:369:CB:3234, V-A:ILE:369:CG2:3235, V-A:ILE:369:CD1:3237, V-A:ASP:366:CA:3208, V-B:HIS:456:CE1:9042, V-A:HIS:456:CD2:4066, V-A:HIS:456:CG:4064, V-B:HIS:456:CD2:9040, V-A:LYS:547:CE:4948, H-A:LYS:547:NZ:4949, V-B:HIS:456:CG:9038, V-A:HIS:456:CE1:4068, V-A:GLY:544:C:4910, V-B:GLU:543:CG:9879, V-B:GLU:543:C:9874, V-A:ARG:545:CG:4920, V-A:GLU:543:CG:4905, V-B:GLU:543:CB:9878, V-A:GLY:544:CA:4912, V-A:GLU:543:C:4900, V-A:ASP:366:C:3206, V-A:ARG:545:CA:4917"]

$$$$
RR10_Rahimova_2017
     RDKit          3D

 34 38  0  0  0  0  0  0  0  0999 V2000
  132.8770  132.1240   56.0220 C   0  0  0  0  0  0  0  0  0  0  0  0
  131.3560  132.1570   56.2470 C   0  0  1  0  0  0  0  0  0  0  0  0
  130.5730  131.9700   54.9270 C   0  0  0  0  0  0  0  0  0  0  0  0
  129.0490  132.0400   55.1710 C   0  0  0  0  0  0  0  0  0  0  0  0
  128.5720  130.9810   56.1990 C   0  0  1  0  0  0  0  0  0  0  0  0
  128.7020  129.6260   55.6470 N   0  0  0  0  0  0  0  0  0  0  0  0
  127.6790  128.7970   55.3670 C   0  0  0  0  0  0  0  0  0  0  0  0
  126.4970  129.1090   55.5290 O   0  0  0  0  0  0  0  0  0  0  0  0
  128.0480  127.3970   54.8330 C   0  0  1  0  0  0  0  0  0  0  0  0
  129.5860  127.3000   54.6620 C   0  0  0  0  0  0  0  0  0  0  0  0
  129.9670  125.8680   54.2150 C   0  0  0  0  0  0  0  0  0  0  0  0
  129.3680  124.7800   55.1370 C   0  0  0  0  0  0  0  0  0  0  0  0
  127.9020  124.9810   55.3020 N   0  0  0  0  0  0  0  0  0  0  0  0
  127.0610  123.6340   56.0870 S   0  0  0  0  0  0  0  0  0  0  0  0
  127.6040  122.3810   55.5480 O   0  0  0  0  0  0  0  0  0  0  0  0
  125.6190  123.9040   56.0220 O   0  0  0  0  0  0  0  0  0  0  0  0
  127.5590  123.7140   57.8070 C   0  0  0  0  0  0  0  0  0  0  0  0
  126.6150  123.4560   58.8060 C   0  0  0  0  0  0  0  0  0  0  0  0
  126.9390  123.5040   60.1650 C   0  0  0  0  0  0  0  0  0  0  0  0
  128.2620  123.8220   60.4810 C   0  0  0  0  0  0  0  0  0  0  0  0
  128.9500  123.9690   61.6620 N   0  0  0  0  0  0  0  0  0  0  0  0
  130.2550  124.2960   61.3550 C   0  0  0  0  0  0  0  0  0  0  0  0
  131.3140  124.5470   62.3890 C   0  0  0  0  0  0  0  0  0  0  0  0
  130.9600  124.7830   63.7250 C   0  0  0  0  0  0  0  0  0  0  0  0
  131.9410  125.0120   64.6860 C   0  0  0  0  0  0  0  0  0  0  0  0
  133.2830  125.0080   64.3160 C   0  0  0  0  0  0  0  0  0  0  0  0
  133.6520  124.7750   62.9940 C   0  0  0  0  0  0  0  0  0  0  0  0
  132.6700  124.5460   62.0340 C   0  0  0  0  0  0  0  0  0  0  0  0
  130.4540  124.3630   60.0570 N   0  0  0  0  0  0  0  0  0  0  0  0
  129.2390  124.0780   59.4900 C   0  0  0  0  0  0  0  0  0  0  0  0
  128.8860  124.0200   58.1340 C   0  0  0  0  0  0  0  0  0  0  0  0
  127.5440  126.3220   55.8290 C   0  0  0  0  0  0  0  0  0  0  0  0
  129.3780  131.1700   57.5130 C   0  0  0  0  0  0  0  0  0  0  0  0
  130.9020  131.0920   57.2730 C   0  0  0  0  0  0  0  0  0  0  0  0
  2  1  1  6
  2  3  1  0
  3  4  1  0
  4  5  1  0
  5  6  1  6
  6  7  1  0
  7  8  2  0
  9  7  1  1
  9 10  1  0
 10 11  1  0
 11 12  1  0
 12 13  1  0
 13 14  1  0
 14 15  2  0
 14 16  2  0
 14 17  1  0
 17 18  2  0
 18 19  1  0
 19 20  2  0
 20 21  1  0
 21 22  1  0
 22 23  1  0
 23 24  2  0
 24 25  1  0
 25 26  2  0
 26 27  1  0
 27 28  2  0
 22 29  2  0
 29 30  1  0
 30 31  2  0
 13 32  1  0
  5 33  1  0
 33 34  1  0
 34  2  1  0
 32  9  1  0
 31 17  1  0
 30 20  1  0
 28 23  1  0
M  END
>  <Binding energies>  (67) 
[-11.13]

>  <Ligand effiencies>  (67) 
[-0.3091666666666667]

>  <Interactions>  (67) 
["V-B:PRO:540:N:9856, H-B:GLU:543:OE1:9881, V-B:TYR:539:CZ:9849, V-B:PRO:540:CB:9857, V-B:PRO:540:CA:9855, V-B:PRO:540:C:9853, V-B:TYR:539:CE1:9847, V-A:TYR:539:CE1:4873, V-A:PRO:540:N:4882, V-A:ILE:538:CA:4858, V-A:TYR:539:CZ:4875, V-A:TYR:531:CE2:4791, H-A:TYR:531:OH:4793, V-A:TYR:539:C:4865, V-A:LEU:363:CD1:3187, V-A:ILE:538:CB:4860, V-A:ILE:538:CG2:4861, V-A:PRO:540:CB:4883, V-A:MET:535:CE:4833, H-B:TYR:539:N:9842, V-B:GLU:543:CD:9880, H-B:TYR:531:OH:9767, V-B:TYR:539:C:9839, H-B:GLU:543:OE2:9882, V-A:ARG:545:CZ:4924, V-A:PRO:540:CD:4885, V-A:ARG:545:CD:4921, V-A:ILE:538:C:4856, V-A:TYR:539:CD1:4871, V-A:GLY:453:CA:4042, V-A:GLY:453:C:4040"]

$$$$
RR12_Rahimova_2017
     RDKit          3D

 26 28  0  0  0  0  0  0  0  0999 V2000
  126.4860  123.5040   55.3590 C   0  0  0  0  0  0  0  0  0  0  0  0
  127.7890  123.2740   56.1350 C   0  0  0  0  0  0  0  0  0  0  0  0
  128.2300  124.5170   56.9310 C   0  0  0  0  0  0  0  0  0  0  0  0
  129.6150  124.8650   56.6210 N   0  0  0  0  0  0  0  0  0  0  0  0
  130.0800  125.5900   55.5350 C   0  0  0  0  0  0  0  0  0  0  0  0
  129.1880  126.1180   54.4240 C   0  0  0  0  0  0  0  0  0  0  0  0
  128.6380  127.5230   54.7320 C   0  0  0  0  0  0  0  0  0  0  0  0
  129.4890  128.2820   55.7670 C   0  0  0  0  0  0  0  0  0  0  0  0
  130.0170  129.5550   55.2780 N   0  0  0  0  0  0  0  0  0  0  0  0
  129.2710  130.5680   54.7990 C   0  0  0  0  0  0  0  0  0  0  0  0
  128.0410  130.5220   54.7200 O   0  0  0  0  0  0  0  0  0  0  0  0
  130.0490  131.8110   54.3510 C   0  0  0  0  0  0  0  0  0  0  0  0
  130.4550  132.5580   55.4990 O   0  0  0  0  0  0  0  0  0  0  0  0
  131.4200  132.0360   56.3400 C   0  0  0  0  0  0  0  0  0  0  0  0
  132.7350  132.0640   55.8680 C   0  0  0  0  0  0  0  0  0  0  0  0
  133.7760  131.5640   56.6460 C   0  0  0  0  0  0  0  0  0  0  0  0
  133.5030  131.0330   57.9030 C   0  0  0  0  0  0  0  0  0  0  0  0
  132.1970  130.9950   58.3880 C   0  0  0  0  0  0  0  0  0  0  0  0
  131.1570  131.4950   57.6090 C   0  0  0  0  0  0  0  0  0  0  0  0
  131.3780  125.7640   55.5440 N   0  0  0  0  0  0  0  0  0  0  0  0
  131.8060  125.1580   56.6920 C   0  0  0  0  0  0  0  0  0  0  0  0
  133.1080  125.0560   57.2040 C   0  0  0  0  0  0  0  0  0  0  0  0
  133.2880  124.3850   58.4140 C   0  0  0  0  0  0  0  0  0  0  0  0
  132.2090  123.8280   59.1010 C   0  0  0  0  0  0  0  0  0  0  0  0
  130.9010  123.9110   58.6170 C   0  0  0  0  0  0  0  0  0  0  0  0
  130.7220  124.5850   57.4020 C   0  0  0  0  0  0  0  0  0  0  0  0
  1  2  1  0
  2  3  1  0
  3  4  1  0
  4  5  1  0
  5  6  1  0
  6  7  1  0
  7  8  1  0
  8  9  1  0
  9 10  1  0
 10 11  2  0
 10 12  1  0
 12 13  1  0
 13 14  1  0
 14 15  2  0
 15 16  1  0
 16 17  2  0
 17 18  1  0
 18 19  2  0
  5 20  2  0
 20 21  1  0
 21 22  2  0
 22 23  1  0
 23 24  2  0
 24 25  1  0
 25 26  2  0
 26  4  1  0
 19 14  1  0
 26 21  1  0
M  END
>  <Binding energies>  (68) 
[-7.95]

>  <Ligand effiencies>  (68) 
[-0.29444444444444445]

>  <Interactions>  (68) 
["V-B:TYR:539:CZ:9849, V-B:ILE:538:CA:9832, V-B:TYR:539:CE2:9848, V-B:TYR:539:CE1:9847, V-B:TYR:539:CD1:9845, V-B:TYR:539:CD2:9846, V-A:ASP:366:CG:3211, V-A:PRO:540:N:4882, H-A:TYR:539:N:4868, V-A:ILE:538:CA:4858, V-A:TYR:531:CE2:4791, V-A:LEU:363:CA:3183, H-A:TYR:531:OH:4793, V-A:ASP:366:CB:3210, V-A:LEU:363:CD1:3187, V-A:ILE:538:CB:4860, V-A:PRO:540:CA:4881, V-A:ILE:538:CG2:4861, V-A:TYR:531:CZ:4792, V-A:PRO:540:CB:4883, V-B:ILE:538:CG2:9835, V-B:ILE:538:CB:9834, V-A:LEU:363:CB:3185, V-A:PRO:540:CD:4885, V-B:TYR:539:CG:9844, H-B:TYR:539:OH:9850, V-A:ASP:366:CA:3208, V-A:ASP:366:C:3206"]

$$$$
RR13_Rahimova_2017
     RDKit          3D

 48 54  0  0  0  0  0  0  0  0999 V2000
  128.4790  123.1630   59.9690 Cl  0  0  0  0  0  0  0  0  0  0  0  0
  128.5970  123.5290   58.2820 C   0  0  0  0  0  0  0  0  0  0  0  0
  127.6210  123.0030   57.4320 C   0  0  0  0  0  0  0  0  0  0  0  0
  127.6730  123.2430   56.0620 C   0  0  0  0  0  0  0  0  0  0  0  0
  128.7050  124.0120   55.5300 C   0  0  0  0  0  0  0  0  0  0  0  0
  129.6820  124.5410   56.3710 C   0  0  0  0  0  0  0  0  0  0  0  0
  129.6410  124.3190   57.7580 C   0  0  0  0  0  0  0  0  0  0  0  0
  130.7500  124.8950   58.6650 C   0  0  1  0  0  0  0  0  0  0  0  0
  132.1440  124.5270   58.1350 C   0  0  0  0  0  0  0  0  0  0  0  0
  132.7700  125.0820   57.1200 N   0  0  0  0  0  0  0  0  0  0  0  0
  133.9790  124.4040   57.0020 N   0  0  0  0  0  0  0  0  0  0  0  0
  134.0620  123.4110   57.9580 N   0  0  0  0  0  0  0  0  0  0  0  0
  132.9070  123.4910   58.6290 N   0  0  0  0  0  0  0  0  0  0  0  0
  132.6480  122.6070   59.7590 C   0  0  0  0  0  0  0  0  0  0  0  0
  133.5720  122.9630   60.9390 C   0  0  0  0  0  0  0  0  0  0  0  0
  132.8040  123.5550   62.1110 C   0  0  0  0  0  0  0  0  0  0  0  0
  133.1710  124.8000   62.6280 C   0  0  0  0  0  0  0  0  0  0  0  0
  132.4730  125.3370   63.7060 C   0  0  0  0  0  0  0  0  0  0  0  0
  131.4100  124.6270   64.2630 C   0  0  0  0  0  0  0  0  0  0  0  0
  131.0400  123.3860   63.7520 C   0  0  0  0  0  0  0  0  0  0  0  0
  131.7390  122.8470   62.6740 C   0  0  0  0  0  0  0  0  0  0  0  0
  130.6090  126.3490   58.9200 N   0  0  0  0  0  0  0  0  0  0  0  0
  130.4970  126.6120   60.3660 C   0  0  0  0  0  0  0  0  0  0  0  0
  130.4830  128.1330   60.6480 C   0  0  0  0  0  0  0  0  0  0  0  0
  129.3280  128.7710   59.9960 N   0  0  0  0  0  0  0  0  0  0  0  0
  129.2280  130.2160   60.3070 C   0  0  1  0  0  0  0  0  0  0  0  0
  128.1510  130.6010   61.3450 C   0  0  0  0  0  0  0  0  0  0  0  0
  127.6870  129.5860   62.1930 C   0  0  0  0  0  0  0  0  0  0  0  0
  126.7280  129.8470   63.1710 C   0  0  0  0  0  0  0  0  0  0  0  0
  126.2120  131.1310   63.3120 C   0  0  0  0  0  0  0  0  0  0  0  0
  126.6470  132.1500   62.4690 C   0  0  0  0  0  0  0  0  0  0  0  0
  127.6050  131.8990   61.4830 C   0  0  0  0  0  0  0  0  0  0  0  0
  128.0290  133.2150   60.4410 Cl  0  0  0  0  0  0  0  0  0  0  0  0
  130.5720  130.8430   60.6870 C   0  0  0  0  0  0  0  0  0  0  0  0
  130.8750  131.3410   61.8630 N   0  0  0  0  0  0  0  0  0  0  0  0
  132.1910  131.7820   61.7650 N   0  0  0  0  0  0  0  0  0  0  0  0
  132.6830  131.5230   60.5020 N   0  0  0  0  0  0  0  0  0  0  0  0
  131.6730  130.9240   59.8600 N   0  0  0  0  0  0  0  0  0  0  0  0
  131.8300  130.5200   58.4670 C   0  0  0  0  0  0  0  0  0  0  0  0
  131.9000  131.7570   57.5540 C   0  0  0  0  0  0  0  0  0  0  0  0
  130.8080  131.7520   56.4950 C   0  0  0  0  0  0  0  0  0  0  0  0
  129.4640  131.7550   56.8780 C   0  0  0  0  0  0  0  0  0  0  0  0
  128.4650  131.7570   55.9090 C   0  0  0  0  0  0  0  0  0  0  0  0
  128.8130  131.7550   54.5580 C   0  0  0  0  0  0  0  0  0  0  0  0
  130.1520  131.7530   54.1710 C   0  0  0  0  0  0  0  0  0  0  0  0
  131.1520  131.7520   55.1390 C   0  0  0  0  0  0  0  0  0  0  0  0
  129.4460  128.5100   58.5500 C   0  0  0  0  0  0  0  0  0  0  0  0
  129.4490  126.9890   58.2740 C   0  0  0  0  0  0  0  0  0  0  0  0
  1  2  1  0
  2  3  2  0
  3  4  1  0
  4  5  2  0
  5  6  1  0
  6  7  2  0
  7  8  1  0
  8  9  1  0
  9 10  2  0
 10 11  1  0
 11 12  2  0
 12 13  1  0
 13 14  1  0
 14 15  1  0
 15 16  1  0
 16 17  2  0
 17 18  1  0
 18 19  2  0
 19 20  1  0
 20 21  2  0
  8 22  1  6
 22 23  1  0
 23 24  1  0
 24 25  1  0
 26 25  1  1
 26 27  1  0
 27 28  2  0
 28 29  1  0
 29 30  2  0
 30 31  1  0
 31 32  2  0
 32 33  1  0
 26 34  1  0
 34 35  2  0
 35 36  1  0
 36 37  2  0
 37 38  1  0
 38 39  1  0
 39 40  1  0
 40 41  1  0
 41 42  2  0
 42 43  1  0
 43 44  2  0
 44 45  1  0
 45 46  2  0
 25 47  1  0
 47 48  1  0
  7  2  1  0
 13  9  1  0
 21 16  1  0
 48 22  1  0
 32 27  1  0
 38 34  1  0
 46 41  1  0
M  END
>  <Binding energies>  (69) 
[-14.3]

>  <Ligand effiencies>  (69) 
[-0.29791666666666666]

>  <Interactions>  (69) 
["V-B:PRO:540:N:9856, V-B:TYR:539:CZ:9849, V-B:PRO:540:CA:9855, V-B:TYR:539:CE2:9848, V-A:LEU:475:CD2:4257, V-B:TYR:539:CE1:9847, V-B:TYR:539:CD1:9845, V-B:TYR:539:CD2:9846, V-A:TYR:539:CE1:4873, V-A:ASP:366:CG:3211, V-A:PRO:540:N:4882, V-A:ILE:538:CA:4858, V-A:TYR:539:CZ:4875, V-A:TYR:539:C:4865, V-A:ILE:538:CB:4860, V-A:PRO:540:CA:4881, V-A:ILE:538:CG2:4861, V-A:GLU:543:CD:4906, V-A:PRO:540:CB:4883, V-B:TYR:539:C:9839, V-A:ARG:545:CZ:4924, H-A:ALA:541:N:4889, V-A:MET:535:CG:4831, V-A:PRO:540:CD:4885, V-A:MET:535:CB:4830, V-A:TYR:539:CE2:4874, V-A:ALA:541:CB:4890, H-B:TYR:539:OH:9850, V-A:TYR:539:CD1:4871, V-A:ILE:369:CG2:3235, V-A:ILE:369:CD1:3237, V-A:TYR:539:CD2:4872, V-A:TYR:539:CG:4870, V-B:TYR:539:CA:9841, V-A:TYR:484:CZ:4345"]

$$$$
RR14_Rahimova_2017
     RDKit          3D

 39 43  0  0  0  0  0  0  0  0999 V2000
  133.3190  132.1570   56.1510 C   0  0  0  0  0  0  0  0  0  0  0  0
  132.1090  132.8480   55.8620 O   0  0  0  0  0  0  0  0  0  0  0  0
  130.9010  132.2250   56.1120 C   0  0  0  0  0  0  0  0  0  0  0  0
  130.6870  131.7850   57.4190 C   0  0  0  0  0  0  0  0  0  0  0  0
  129.5110  131.1250   57.7600 C   0  0  0  0  0  0  0  0  0  0  0  0
  128.5340  130.8910   56.7890 C   0  0  0  0  0  0  0  0  0  0  0  0
  127.2740  130.1110   57.1430 C   0  0  0  0  0  0  0  0  0  0  0  0
  127.1880  128.8150   56.4700 N   0  0  0  0  0  0  0  0  0  0  0  0
  126.8930  128.7480   55.1670 N   0  0  0  0  0  0  0  0  0  0  0  0
  126.8670  127.3970   54.8810 N   0  0  0  0  0  0  0  0  0  0  0  0
  127.1420  126.6610   56.0290 N   0  0  0  0  0  0  0  0  0  0  0  0
  127.3260  127.5430   56.9830 C   0  0  0  0  0  0  0  0  0  0  0  0
  127.6320  127.2120   58.4370 C   0  0  0  0  0  0  0  0  0  0  0  0
  128.6230  126.1310   58.5720 N   0  0  0  0  0  0  0  0  0  0  0  0
  129.9830  126.5920   58.2660 C   0  0  0  0  0  0  0  0  0  0  0  0
  130.5150  126.0760   56.9110 C   0  0  0  0  0  0  0  0  0  0  0  0
  130.1750  124.5960   56.6350 C   0  0  0  0  0  0  0  0  0  0  0  0
  128.7790  124.3860   56.2370 N   0  0  0  0  0  0  0  0  0  0  0  0
  128.1400  123.4010   57.1190 C   0  0  0  0  0  0  0  0  0  0  0  0
  126.6830  123.1170   56.6940 C   0  0  0  0  0  0  0  0  0  0  0  0
  126.6400  122.7260   55.3260 O   0  0  0  0  0  0  0  0  0  0  0  0
  127.1570  123.7300   54.4610 C   0  0  0  0  0  0  0  0  0  0  0  0
  128.6290  124.0310   54.8170 C   0  0  0  0  0  0  0  0  0  0  0  0
  128.5650  125.5590   59.9250 C   0  0  0  0  0  0  0  0  0  0  0  0
  129.2150  124.1880   60.1010 C   0  0  0  0  0  0  0  0  0  0  0  0
  130.5540  124.0270   59.9710 C   0  0  0  0  0  0  0  0  0  0  0  0
  131.2030  122.7060   60.0970 C   0  0  0  0  0  0  0  0  0  0  0  0
  132.5900  122.5050   59.9880 C   0  0  0  0  0  0  0  0  0  0  0  0
  133.5450  123.6620   59.7270 C   0  0  0  0  0  0  0  0  0  0  0  0
  133.1030  121.2130   60.1260 C   0  0  0  0  0  0  0  0  0  0  0  0
  132.2560  120.1330   60.3690 C   0  0  0  0  0  0  0  0  0  0  0  0
  130.8750  120.3220   60.4810 C   0  0  0  0  0  0  0  0  0  0  0  0
  129.9760  119.1220   60.7480 C   0  0  0  0  0  0  0  0  0  0  0  0
  130.3490  121.6160   60.3440 C   0  0  0  0  0  0  0  0  0  0  0  0
  128.9620  121.8540   60.4470 N   0  0  0  0  0  0  0  0  0  0  0  0
  128.3240  123.0470   60.3380 C   0  0  0  0  0  0  0  0  0  0  0  0
  127.0990  123.1100   60.4340 O   0  0  0  0  0  0  0  0  0  0  0  0
  128.7270  131.3530   55.4850 C   0  0  0  0  0  0  0  0  0  0  0  0
  129.9040  132.0130   55.1460 C   0  0  0  0  0  0  0  0  0  0  0  0
  1  2  1  0
  2  3  1  0
  3  4  2  0
  4  5  1  0
  5  6  2  0
  6  7  1  0
  7  8  1  0
  8  9  1  0
  9 10  2  0
 10 11  1  0
 11 12  2  0
 12 13  1  0
 13 14  1  0
 14 15  1  0
 15 16  1  0
 16 17  1  0
 17 18  1  0
 18 19  1  0
 19 20  1  0
 20 21  1  0
 21 22  1  0
 22 23  1  0
 14 24  1  0
 24 25  1  0
 25 26  2  0
 26 27  1  0
 27 28  2  0
 28 29  1  0
 28 30  1  0
 30 31  2  0
 31 32  1  0
 32 33  1  0
 32 34  2  0
 34 35  1  0
 35 36  1  0
 36 37  2  0
  6 38  1  0
 38 39  2  0
 39  3  1  0
 12  8  1  0
 23 18  1  0
 36 25  1  0
 34 27  1  0
M  END
>  <Binding energies>  (70) 
[-10.5]

>  <Ligand effiencies>  (70) 
[-0.2625]

>  <Interactions>  (70) 
["V-B:PRO:540:N:9856, V-A:TRP:381:CZ2:3368, V-B:TYR:539:CZ:9849, V-A:TRP:381:CH2:3370, V-B:ILE:538:CA:9832, V-B:ALA:541:CB:9864, V-A:PRO:482:CG:4325, V-B:PRO:540:CA:9855, V-B:PRO:540:C:9853, H-B:ALA:541:N:9863, V-B:TYR:539:CE2:9848, V-A:LEU:475:CD2:4257, V-B:TYR:539:CE1:9847, V-A:PRO:482:CB:4324, V-B:TYR:539:CD1:9845, V-B:TYR:539:CD2:9846, V-A:TYR:539:CE1:4873, V-A:ASP:366:CG:3211, V-A:PRO:540:N:4882, H-A:TYR:539:N:4868, V-A:ILE:538:CA:4858, V-A:TYR:539:CZ:4875, V-A:TYR:531:CE2:4791, V-A:TYR:539:C:4865, V-A:LEU:363:CD1:3187, V-A:ILE:538:CB:4860, V-A:PRO:540:CA:4881, V-A:ILE:538:CG2:4861, V-A:PRO:540:CB:4883, H-B:TYR:539:N:9842, H-B:TYR:531:OH:9767, V-B:TYR:539:C:9839, V-B:ILE:538:CG2:9835, V-B:PRO:540:CD:9859, V-B:ILE:538:CB:9834, V-A:PRO:540:CD:4885, V-A:TYR:539:CD1:4871, V-A:ILE:369:CG2:3235, V-A:ILE:369:CD1:3237, H-B:TYR:539:O:9840, V-A:PRO:540:CG:4884"]

$$$$
RR15_Rahimova_2017
     RDKit          3D

 45 49  0  0  0  0  0  0  0  0999 V2000
  133.0800  122.9120   62.5710 C   0  0  0  0  0  0  0  0  0  0  0  0
  133.7580  123.8840   61.7820 O   0  0  0  0  0  0  0  0  0  0  0  0
  133.2400  124.2420   60.5490 C   0  0  0  0  0  0  0  0  0  0  0  0
  133.7960  123.8380   59.3250 C   0  0  0  0  0  0  0  0  0  0  0  0
  133.2260  124.2370   58.1180 C   0  0  0  0  0  0  0  0  0  0  0  0
  132.0890  125.0510   58.0990 C   0  0  0  0  0  0  0  0  0  0  0  0
  131.4770  125.4880   56.7960 C   0  0  0  0  0  0  0  0  0  0  0  0
  132.2000  125.7810   55.7230 N   0  0  0  0  0  0  0  0  0  0  0  0
  131.2980  126.1430   54.7430 N   0  0  0  0  0  0  0  0  0  0  0  0
  130.1130  125.9850   55.3330 N   0  0  0  0  0  0  0  0  0  0  0  0
  128.8690  126.4160   54.6980 C   0  0  0  0  0  0  0  0  0  0  0  0
  128.3600  127.8100   55.1450 C   0  0  0  0  0  0  0  0  0  0  0  0
  128.6360  128.7840   54.4410 O   0  0  0  0  0  0  0  0  0  0  0  0
  127.6020  127.9230   56.2780 N   0  0  0  0  0  0  0  0  0  0  0  0
  126.9850  126.7390   56.9100 C   0  0  0  0  0  0  0  0  0  0  0  0
  127.3340  126.5850   58.4060 C   0  0  0  0  0  0  0  0  0  0  0  0
  126.7000  125.3550   59.0970 C   0  0  0  0  0  0  0  0  0  0  0  0
  126.6870  124.1500   58.2610 N   0  0  0  0  0  0  0  0  0  0  0  0
  125.5730  124.1140   57.3020 C   0  0  0  0  0  0  0  0  0  0  0  0
  125.6540  122.8700   56.3900 C   0  0  0  0  0  0  0  0  0  0  0  0
  126.9220  122.8150   55.7460 O   0  0  0  0  0  0  0  0  0  0  0  0
  127.9990  122.7450   56.6740 C   0  0  0  0  0  0  0  0  0  0  0  0
  127.9840  123.9870   57.5920 C   0  0  0  0  0  0  0  0  0  0  0  0
  127.4920  129.1850   57.0720 C   0  0  2  0  0  0  0  0  0  0  0  0
  126.0520  129.7870   57.1150 C   0  0  0  0  0  0  0  0  0  0  0  0
  125.2740  129.6410   56.1720 O   0  0  0  0  0  0  0  0  0  0  0  0
  125.7230  130.4260   58.2510 N   0  0  0  0  0  0  0  0  0  0  0  0
  124.4080  130.9770   58.5580 C   0  0  0  0  0  0  0  0  0  0  0  0
  124.3110  131.3960   60.0370 C   0  0  2  0  0  0  0  0  0  0  0  0
  124.2460  132.9130   60.2900 C   0  0  0  0  0  0  0  0  0  0  0  0
  125.6460  133.2860   60.7160 C   0  0  0  0  0  0  0  0  0  0  0  0
  126.0750  132.0340   61.4620 C   0  0  0  0  0  0  0  0  0  0  0  0
  125.5450  130.9940   60.6470 O   0  0  0  0  0  0  0  0  0  0  0  0
  128.6390  130.1320   56.7380 C   0  0  0  0  0  0  0  0  0  0  0  0
  129.9160  129.8140   57.2150 C   0  0  0  0  0  0  0  0  0  0  0  0
  131.0010  130.6420   56.9410 C   0  0  0  0  0  0  0  0  0  0  0  0
  130.8160  131.7960   56.1860 C   0  0  0  0  0  0  0  0  0  0  0  0
  131.8700  132.6010   55.9190 F   0  0  0  0  0  0  0  0  0  0  0  0
  129.5530  132.1280   55.7020 C   0  0  0  0  0  0  0  0  0  0  0  0
  128.4690  131.3000   55.9770 C   0  0  0  0  0  0  0  0  0  0  0  0
  130.1760  125.6190   56.6190 N   0  0  0  0  0  0  0  0  0  0  0  0
  131.5350  125.4520   59.3220 C   0  0  0  0  0  0  0  0  0  0  0  0
  132.0970  125.0540   60.5480 C   0  0  0  0  0  0  0  0  0  0  0  0
  131.5850  125.4210   61.7810 O   0  0  0  0  0  0  0  0  0  0  0  0
  130.4150  126.2280   61.8440 C   0  0  0  0  0  0  0  0  0  0  0  0
  1  2  1  0
  2  3  1  0
  3  4  2  0
  4  5  1  0
  5  6  2  0
  6  7  1  0
  7  8  1  0
  8  9  2  0
  9 10  1  0
 10 11  1  0
 11 12  1  0
 12 13  2  0
 12 14  1  0
 14 15  1  0
 15 16  1  0
 16 17  1  0
 17 18  1  0
 18 19  1  0
 19 20  1  0
 20 21  1  0
 21 22  1  0
 22 23  1  0
 24 14  1  6
 24 25  1  0
 25 26  2  0
 25 27  1  0
 27 28  1  0
 29 28  1  6
 29 30  1  0
 30 31  1  0
 31 32  1  0
 32 33  1  0
 24 34  1  0
 34 35  2  0
 35 36  1  0
 36 37  2  0
 37 38  1  0
 37 39  1  0
 39 40  2  0
 10 41  1  0
  6 42  1  0
 42 43  2  0
 43 44  1  0
 44 45  1  0
 43  3  1  0
 41  7  2  0
 23 18  1  0
 33 29  1  0
 40 34  1  0
M  END
>  <Binding energies>  (71) 
[-9.36]

>  <Ligand effiencies>  (71) 
[-0.2034782608695652]

>  <Interactions>  (71) 
["V-B:PRO:540:N:9856, V-B:TYR:539:CZ:9849, V-B:ILE:538:CA:9832, V-B:ASP:366:CG:8185, V-B:PRO:540:CB:9857, V-B:PRO:540:CA:9855, V-B:TYR:539:CE2:9848, V-A:LEU:475:CD2:4257, V-B:TYR:539:CE1:9847, V-B:TYR:539:CD1:9845, V-B:TYR:539:CD2:9846, V-A:TYR:539:CE1:4873, V-A:ASP:366:CG:3211, V-A:PRO:540:N:4882, V-A:ILE:538:CA:4858, V-A:TYR:539:CZ:4875, H-A:TYR:531:OH:4793, V-A:ASP:366:CB:3210, V-A:TYR:539:C:4865, V-A:ILE:538:CB:4860, V-A:PRO:540:CA:4881, V-A:ILE:538:CG2:4861, H-B:TYR:539:N:9842, H-B:TYR:531:OH:9767, V-B:TYR:539:C:9839, V-B:PRO:540:CD:9859, V-B:ILE:538:CB:9834, V-A:PRO:540:CD:4885, V-A:GLY:454:CA:4047, H-A:GLY:454:N:4048, V-A:TYR:539:CE2:4874, V-A:ILE:538:C:4856, V-B:TYR:539:CG:9844, V-B:ASP:366:CB:8184, H-A:TYR:539:OH:4876, H-B:TYR:539:OH:9850, H-A:ARG:545:NH2:4926, V-A:TYR:539:CD1:4871, V-A:ILE:369:CB:3234, V-A:ILE:369:CG2:3235, V-A:ILE:369:CD1:3237, V-A:ASP:366:CA:3208, V-A:TYR:539:CD2:4872, V-B:TYR:539:CA:9841, V-B:ILE:369:CD1:8211, V-B:ILE:369:CG2:8209"]

$$$$
RR17_Rahimova_2017
     RDKit          3D

 38 41  0  0  0  0  0  0  0  0999 V2000
  133.5200  132.1040   55.8900 C   0  0  0  0  0  0  0  0  0  0  0  0
  132.2680  132.4520   56.7000 C   0  0  0  0  0  0  0  0  0  0  0  0
  131.1630  132.5690   55.8080 O   0  0  0  0  0  0  0  0  0  0  0  0
  130.1970  131.5800   55.7920 C   0  0  0  0  0  0  0  0  0  0  0  0
  129.3510  131.5540   54.6840 C   0  0  0  0  0  0  0  0  0  0  0  0
  128.3480  130.5960   54.5800 C   0  0  0  0  0  0  0  0  0  0  0  0
  128.1690  129.6380   55.5890 C   0  0  0  0  0  0  0  0  0  0  0  0
  127.0790  128.6160   55.4490 C   0  0  0  0  0  0  0  0  0  0  0  0
  126.0640  128.8190   54.7750 O   0  0  0  0  0  0  0  0  0  0  0  0
  127.2670  127.2810   56.2040 C   0  0  0  0  0  0  0  0  0  0  0  0
  128.0450  126.0000   55.1570 S   0  0  0  0  0  0  0  0  0  0  0  0
  129.6310  125.8910   55.9370 C   0  0  0  0  0  0  0  0  0  0  0  0
  130.7670  126.2830   55.4080 N   0  0  0  0  0  0  0  0  0  0  0  0
  131.7740  126.0370   56.3330 N   0  0  0  0  0  0  0  0  0  0  0  0
  131.2080  125.5090   57.3890 C   0  0  0  0  0  0  0  0  0  0  0  0
  131.9500  125.0950   58.6510 C   0  0  0  0  0  0  0  0  0  0  0  0
  131.9960  126.1350   59.6760 N   0  0  0  0  0  0  0  0  0  0  0  0
  131.7380  125.9000   61.0380 C   0  0  0  0  0  0  0  0  0  0  0  0
  132.6590  125.1240   61.7420 C   0  0  0  0  0  0  0  0  0  0  0  0
  132.4610  124.8480   63.0920 C   0  0  0  0  0  0  0  0  0  0  0  0
  131.3390  125.3510   63.7570 C   0  0  0  0  0  0  0  0  0  0  0  0
  131.1330  125.0340   65.2380 C   0  0  0  0  0  0  0  0  0  0  0  0
  130.3230  125.9110   65.8350 F   0  0  0  0  0  0  0  0  0  0  0  0
  130.6030  123.8190   65.3840 F   0  0  0  0  0  0  0  0  0  0  0  0
  132.3130  125.0630   65.8580 F   0  0  0  0  0  0  0  0  0  0  0  0
  130.4180  126.1360   63.0550 C   0  0  0  0  0  0  0  0  0  0  0  0
  130.6170  126.4120   61.7050 C   0  0  0  0  0  0  0  0  0  0  0  0
  129.8480  125.3770   57.1990 N   0  0  0  0  0  0  0  0  0  0  0  0
  128.9000  124.8660   58.0980 C   0  0  0  0  0  0  0  0  0  0  0  0
  128.3320  123.6140   57.8610 C   0  0  0  0  0  0  0  0  0  0  0  0
  127.3880  123.1100   58.7520 C   0  0  0  0  0  0  0  0  0  0  0  0
  127.0110  123.8550   59.8810 C   0  0  0  0  0  0  0  0  0  0  0  0
  126.0850  123.4340   60.8170 O   0  0  0  0  0  0  0  0  0  0  0  0
  124.8450  124.1240   60.9250 C   0  0  0  0  0  0  0  0  0  0  0  0
  127.5890  125.1070   60.1010 C   0  0  0  0  0  0  0  0  0  0  0  0
  128.5330  125.6170   59.2150 C   0  0  0  0  0  0  0  0  0  0  0  0
  129.0210  129.6640   56.7020 C   0  0  0  0  0  0  0  0  0  0  0  0
  130.0250  130.6240   56.8040 C   0  0  0  0  0  0  0  0  0  0  0  0
  1  2  1  0
  2  3  1  0
  3  4  1  0
  4  5  2  0
  5  6  1  0
  6  7  2  0
  7  8  1  0
  8  9  2  0
  8 10  1  0
 10 11  1  0
 11 12  1  0
 12 13  2  0
 13 14  1  0
 14 15  2  0
 15 16  1  0
 16 17  1  0
 17 18  1  0
 18 19  2  0
 19 20  1  0
 20 21  2  0
 21 22  1  0
 22 23  1  0
 22 24  1  0
 22 25  1  0
 21 26  1  0
 26 27  2  0
 15 28  1  0
 28 29  1  0
 29 30  2  0
 30 31  1  0
 31 32  2  0
 32 33  1  0
 33 34  1  0
 32 35  1  0
 35 36  2  0
  7 37  1  0
 37 38  2  0
 38  4  1  0
 28 12  1  0
 36 29  1  0
 27 18  1  0
M  END
>  <Binding energies>  (72) 
[-8.54]

>  <Ligand effiencies>  (72) 
[-0.21897435897435896]

>  <Interactions>  (72) 
["V-B:PRO:540:N:9856, V-B:PRO:540:CB:9857, V-B:PRO:540:CA:9855, H-B:ALA:541:N:9863, V-A:TYR:539:CE1:4873, V-A:ASP:366:CG:3211, V-A:PRO:540:N:4882, H-A:TYR:539:N:4868, V-A:ILE:538:CA:4858, V-A:TYR:531:CE2:4791, H-A:TYR:531:OH:4793, V-A:ASP:366:CB:3210, V-A:TYR:539:C:4865, V-A:LEU:363:CD1:3187, V-A:ILE:538:CB:4860, V-A:PRO:540:CA:4881, V-A:ILE:538:CG2:4861, V-A:TYR:531:CZ:4792, V-A:PRO:540:CB:4883, V-B:ASN:362:CB:8148, V-B:GLU:543:CD:9880, H-B:TYR:531:OH:9767, V-B:TYR:539:C:9839, V-A:ARG:545:CZ:4924, H-A:ASP:366:OD2:3213, V-A:PRO:540:CD:4885, H-B:TYR:539:OH:9850, H-A:ASP:366:OD1:3212, V-A:HIS:456:CE1:4068, V-A:PRO:540:CG:4884, V-B:GLU:543:CG:9879, V-A:ARG:545:CG:4920, V-A:TYR:484:CZ:4345, V-B:GLU:543:CB:9878, V-A:TYR:484:CE1:4343"]

$$$$
RR19_Rahimova_2017
     RDKit          3D

 46 51  0  0  0  0  0  0  0  0999 V2000
  128.6430  126.3540   54.6440 O   0  0  0  0  0  0  0  0  0  0  0  0
  128.6190  126.4030   55.8770 C   0  0  0  0  0  0  0  0  0  0  0  0
  128.6160  127.5320   56.6300 N   0  0  0  0  0  0  0  0  0  0  0  0
  128.4250  128.8580   56.3280 C   0  0  0  0  0  0  0  0  0  0  0  0
  127.8680  129.4610   54.8470 S   0  0  0  0  0  0  0  0  0  0  0  0
  128.7590  129.6110   57.4260 N   0  0  0  0  0  0  0  0  0  0  0  0
  128.6270  130.9300   57.7160 C   0  0  0  0  0  0  0  0  0  0  0  0
  127.9750  131.7590   57.0760 O   0  0  0  0  0  0  0  0  0  0  0  0
  129.4130  131.3780   58.9740 C   0  0  2  0  0  0  0  0  0  0  0  0
  130.8720  130.8410   59.0570 C   0  0  0  0  0  0  0  0  0  0  0  0
  131.7750  131.2390   57.9010 C   0  0  0  0  0  0  0  0  0  0  0  0
  131.2680  131.9690   56.8040 C   0  0  0  0  0  0  0  0  0  0  0  0
  132.1240  132.3910   55.7960 C   0  0  0  0  0  0  0  0  0  0  0  0
  133.4840  132.1130   55.8680 C   0  0  0  0  0  0  0  0  0  0  0  0
  134.0010  131.4220   56.9560 C   0  0  0  0  0  0  0  0  0  0  0  0
  133.1630  130.9930   57.9760 C   0  0  0  0  0  0  0  0  0  0  0  0
  128.6520  131.0880   60.2200 N   0  0  0  0  0  0  0  0  0  0  0  0
  128.2100  132.0910   61.0310 C   0  0  0  0  0  0  0  0  0  0  0  0
  128.3860  133.3020   60.8840 O   0  0  0  0  0  0  0  0  0  0  0  0
  127.4680  131.4180   62.1250 C   0  0  0  0  0  0  0  0  0  0  0  0
  126.8070  131.9390   63.2380 C   0  0  0  0  0  0  0  0  0  0  0  0
  126.1740  131.0540   64.1180 C   0  0  0  0  0  0  0  0  0  0  0  0
  126.2090  129.6740   63.8770 C   0  0  0  0  0  0  0  0  0  0  0  0
  126.8770  129.1710   62.7550 C   0  0  0  0  0  0  0  0  0  0  0  0
  127.5020  130.0700   61.8900 C   0  0  0  0  0  0  0  0  0  0  0  0
  128.2660  129.8450   60.6380 C   0  0  0  0  0  0  0  0  0  0  0  0
  128.4930  128.7650   60.0900 O   0  0  0  0  0  0  0  0  0  0  0  0
  128.6040  125.0840   56.6950 C   0  0  2  0  0  0  0  0  0  0  0  0
  127.4610  125.0080   57.7480 C   0  0  0  0  0  0  0  0  0  0  0  0
  126.1690  124.4150   57.2140 C   0  0  0  0  0  0  0  0  0  0  0  0
  126.2090  123.3620   56.2750 C   0  0  0  0  0  0  0  0  0  0  0  0
  125.0300  122.7530   55.8650 C   0  0  0  0  0  0  0  0  0  0  0  0
  123.8120  123.1570   56.3950 C   0  0  0  0  0  0  0  0  0  0  0  0
  123.7610  124.1660   57.3500 C   0  0  0  0  0  0  0  0  0  0  0  0
  124.9280  124.7880   57.7720 C   0  0  0  0  0  0  0  0  0  0  0  0
  129.9250  124.7480   57.2980 N   0  0  0  0  0  0  0  0  0  0  0  0
  130.0260  123.9920   58.4280 C   0  0  0  0  0  0  0  0  0  0  0  0
  129.1040  123.5170   59.0920 O   0  0  0  0  0  0  0  0  0  0  0  0
  131.4820  123.8630   58.6860 C   0  0  0  0  0  0  0  0  0  0  0  0
  132.1750  123.2080   59.7050 C   0  0  0  0  0  0  0  0  0  0  0  0
  133.5740  123.2500   59.6980 C   0  0  0  0  0  0  0  0  0  0  0  0
  134.2540  123.9360   58.6830 C   0  0  0  0  0  0  0  0  0  0  0  0
  133.5410  124.5850   57.6690 C   0  0  0  0  0  0  0  0  0  0  0  0
  132.1460  124.5330   57.6960 C   0  0  0  0  0  0  0  0  0  0  0  0
  131.1350  125.1090   56.7760 C   0  0  0  0  0  0  0  0  0  0  0  0
  131.3420  125.7700   55.7590 O   0  0  0  0  0  0  0  0  0  0  0  0
  1  2  2  0
  2  3  1  0
  3  4  1  0
  4  5  2  0
  4  6  1  0
  6  7  1  0
  7  8  2  0
  7  9  1  0
  9 10  1  1
 10 11  1  0
 11 12  2  0
 12 13  1  0
 13 14  2  0
 14 15  1  0
 15 16  2  0
  9 17  1  0
 17 18  1  0
 18 19  2  0
 18 20  1  0
 20 21  2  0
 21 22  1  0
 22 23  2  0
 23 24  1  0
 24 25  2  0
 25 26  1  0
 26 27  2  0
  2 28  1  0
 28 29  1  1
 29 30  1  0
 30 31  2  0
 31 32  1  0
 32 33  2  0
 33 34  1  0
 34 35  2  0
 28 36  1  0
 36 37  1  0
 37 38  2  0
 37 39  1  0
 39 40  2  0
 40 41  1  0
 41 42  2  0
 42 43  1  0
 43 44  2  0
 44 45  1  0
 45 46  2  0
 16 11  1  0
 26 17  1  0
 35 30  1  0
 45 36  1  0
 25 20  1  0
 44 39  1  0
M  END
>  <Binding energies>  (73) 
[-12.15]

>  <Ligand effiencies>  (73) 
[-0.253125]

>  <Interactions>  (73) 
["V-B:PRO:540:N:9856, V-B:LEU:363:CA:8157, V-B:TYR:539:CZ:9849, V-B:ILE:538:CA:9832, V-B:ASP:366:CG:8185, V-B:PRO:540:CB:9857, V-B:TYR:539:CE2:9848, V-B:TYR:539:CD2:9846, V-A:ASP:366:CG:3211, V-A:PRO:540:N:4882, V-A:ILE:538:CA:4858, V-A:TYR:531:CE2:4791, V-A:LEU:363:CA:3183, H-A:TYR:531:OH:4793, V-A:ASP:366:CB:3210, V-A:TYR:539:C:4865, V-A:LEU:363:CD1:3187, V-A:ILE:538:CB:4860, V-A:PRO:540:CA:4881, V-A:ILE:538:CG2:4861, V-A:TYR:531:CZ:4792, V-A:PRO:540:CB:4883, V-B:ARG:545:CZ:9898, V-B:TYR:531:CE2:9765, V-B:LEU:363:CD1:8161, V-B:TYR:531:CZ:9766, V-B:ILE:538:CG2:9835, V-B:PRO:540:CD:9859, V-B:ILE:538:CB:9834, V-B:PRO:540:CG:9858, H-A:ALA:541:N:4889, V-A:LEU:363:CB:3185, V-A:PRO:540:CD:4885, V-A:ALA:541:CB:4890, H-B:TYR:539:OH:9850, V-A:ILE:369:CB:3234, V-A:ILE:369:CG2:3235, V-A:ILE:369:CD1:3237, V-A:ASP:366:CA:3208, V-B:ILE:538:C:9830, V-A:ASP:366:C:3206"]

$$$$
RR1_Rahimova_2017
     RDKit          3D

 41 44  0  0  0  0  0  0  0  0999 V2000
  126.9460  128.7890   73.6360 C   0  0  0  0  0  0  0  0  0  0  0  0
  128.3100  128.7870   73.2310 O   0  0  0  0  0  0  0  0  0  0  0  0
  128.6520  128.2160   72.0210 C   0  0  0  0  0  0  0  0  0  0  0  0
  129.9660  127.9060   71.6360 C   0  0  0  0  0  0  0  0  0  0  0  0
  130.2170  127.3380   70.3900 C   0  0  0  0  0  0  0  0  0  0  0  0
  129.1660  127.0660   69.5130 C   0  0  0  0  0  0  0  0  0  0  0  0
  129.5250  126.5340   68.2600 N   0  0  0  0  0  0  0  0  0  0  0  0
  130.4590  126.9640   67.3850 C   0  0  0  0  0  0  0  0  0  0  0  0
  131.1340  127.9840   67.5240 O   0  0  0  0  0  0  0  0  0  0  0  0
  130.6350  126.0700   66.1470 C   0  0  0  0  0  0  0  0  0  0  0  0
  132.3650  125.7400   65.6580 S   0  0  0  0  0  0  0  0  0  0  0  0
  132.0310  124.9040   64.1440 C   0  0  0  0  0  0  0  0  0  0  0  0
  132.5960  123.7790   63.7840 N   0  0  0  0  0  0  0  0  0  0  0  0
  132.0500  123.5130   62.6020 C   0  0  0  0  0  0  0  0  0  0  0  0
  132.4010  122.2840   61.8130 C   0  0  0  0  0  0  0  0  0  0  0  0
  133.7360  121.9050   61.6000 C   0  0  0  0  0  0  0  0  0  0  0  0
  134.0320  120.7590   60.8590 C   0  0  0  0  0  0  0  0  0  0  0  0
  132.9760  120.0100   60.3440 C   0  0  0  0  0  0  0  0  0  0  0  0
  131.6750  120.3460   60.5310 N   0  0  0  0  0  0  0  0  0  0  0  0
  131.4080  121.4640   61.2540 C   0  0  0  0  0  0  0  0  0  0  0  0
  131.1730  124.4010   62.1710 N   0  0  0  0  0  0  0  0  0  0  0  0
  131.1610  125.2980   63.1610 N   0  0  0  0  0  0  0  0  0  0  0  0
  130.2810  126.4660   63.0940 C   0  0  0  0  0  0  0  0  0  0  0  0
  130.1250  127.0830   61.6940 C   0  0  0  0  0  0  0  0  0  0  0  0
  129.6110  126.4390   60.7720 O   0  0  0  0  0  0  0  0  0  0  0  0
  130.5880  128.3420   61.5730 N   0  0  0  0  0  0  0  0  0  0  0  0
  130.3490  129.0150   60.3830 N   0  0  0  0  0  0  0  0  0  0  0  0
  130.5390  130.3530   60.3660 C   0  0  0  0  0  0  0  0  0  0  0  0
  131.0090  130.9970   61.3100 O   0  0  0  0  0  0  0  0  0  0  0  0
  130.1610  131.0530   59.0770 C   0  0  0  0  0  0  0  0  0  0  0  0
  128.8140  131.2850   58.7780 C   0  0  0  0  0  0  0  0  0  0  0  0
  128.4430  131.9150   57.5940 C   0  0  0  0  0  0  0  0  0  0  0  0
  129.4130  132.3270   56.6660 C   0  0  0  0  0  0  0  0  0  0  0  0
  129.1110  132.9460   55.4660 O   0  0  0  0  0  0  0  0  0  0  0  0
  129.1260  132.1860   54.2620 C   0  0  0  0  0  0  0  0  0  0  0  0
  130.7670  132.0970   56.9440 C   0  0  0  0  0  0  0  0  0  0  0  0
  131.6820  132.5050   55.9870 O   0  0  0  0  0  0  0  0  0  0  0  0
  133.0260  132.0430   56.0580 C   0  0  0  0  0  0  0  0  0  0  0  0
  131.1280  131.4660   58.1470 C   0  0  0  0  0  0  0  0  0  0  0  0
  127.8510  127.3740   69.8950 C   0  0  0  0  0  0  0  0  0  0  0  0
  127.6040  127.9410   71.1420 C   0  0  0  0  0  0  0  0  0  0  0  0
  1  2  1  0
  2  3  1  0
  3  4  2  0
  4  5  1  0
  5  6  2  0
  6  7  1  0
  7  8  1  0
  8  9  2  0
  8 10  1  0
 10 11  1  0
 11 12  1  0
 12 13  2  0
 13 14  1  0
 14 15  1  0
 15 16  2  0
 16 17  1  0
 17 18  2  0
 18 19  1  0
 19 20  2  0
 14 21  2  0
 21 22  1  0
 22 23  1  0
 23 24  1  0
 24 25  2  0
 24 26  1  0
 26 27  1  0
 27 28  1  0
 28 29  2  0
 28 30  1  0
 30 31  2  0
 31 32  1  0
 32 33  2  0
 33 34  1  0
 34 35  1  0
 33 36  1  0
 36 37  1  0
 37 38  1  0
 36 39  2  0
  6 40  1  0
 40 41  2  0
 41  3  1  0
 22 12  1  0
 39 30  1  0
 20 15  1  0
M  END
>  <Binding energies>  (74) 
[-11.21]

>  <Ligand effiencies>  (74) 
[-0.2547727272727273]

>  <Interactions>  (74) 
["V-A:TRP:381:CZ2:3368, V-A:TRP:381:CH2:3370, V-A:LEU:475:CD2:4257, V-B:TYR:539:CD2:9846, V-A:TYR:539:CE1:4873, V-A:PRO:540:N:4882, H-A:TYR:539:N:4868, V-A:ILE:538:CA:4858, V-A:TYR:539:CZ:4875, V-A:TYR:531:CE2:4791, V-A:TYR:539:C:4865, V-A:LEU:363:CD1:3187, V-A:ILE:538:CB:4860, V-A:PRO:540:CA:4881, V-A:ILE:538:CG2:4861, V-A:GLU:543:CD:4906, V-A:PRO:540:CB:4883, V-B:GLU:543:CD:9880, V-A:ARG:545:CZ:4924, H-A:GLU:543:OE2:4908, H-A:ALA:541:N:4889, H-A:GLU:543:OE1:4907, V-A:PRO:540:CD:4885, V-A:GLY:454:CA:4047, H-A:TYR:484:OH:4346, H-A:ARG:545:NE:4922, H-A:GLY:454:N:4048, V-A:TYR:539:CE2:4874, V-A:ILE:538:C:4856, V-A:TYR:539:CA:4867, V-A:TYR:539:CD1:4871, V-A:ILE:369:CG2:3235, V-A:ILE:369:CD1:3237, V-A:TYR:539:CD2:4872, V-A:TYR:539:CG:4870, V-B:HIS:456:CE1:9042, V-A:HIS:456:CD2:4066, V-B:GLY:544:C:9884, V-B:HIS:456:CD2:9040, V-A:LYS:547:CE:4948, H-A:LYS:547:NZ:4949, V-B:HIS:456:CG:9038, V-B:HIS:456:CB:9037, V-A:HIS:456:CE1:4068, H-A:HIS:456:NE2:4069, V-A:GLY:544:C:4910, H-B:GLU:543:O:9875, V-B:GLU:543:CG:9879, V-B:GLU:543:C:9874, V-A:ARG:545:CG:4920, V-A:GLU:543:CG:4905, V-B:GLU:543:CB:9878, V-A:GLY:544:CA:4912, V-A:SER:385:C:3403"]

$$$$
RR22_Rahimova_2017
     RDKit          3D

 31 36  0  0  0  0  0  0  0  0999 V2000
  125.3910  130.1690   53.6260 O   0  0  0  0  0  0  0  0  0  0  0  0
  126.0110  130.2040   54.6860 C   0  0  0  0  0  0  0  0  0  0  0  0
  125.4960  130.1280   55.9690 N   0  0  0  0  0  0  0  0  0  0  0  0
  126.3670  130.1220   57.1040 C   0  0  1  0  0  0  0  0  0  0  0  0
  125.9220  131.2090   57.9220 O   0  0  0  0  0  0  0  0  0  0  0  0
  125.4960  130.9290   59.2210 C   0  0  0  0  0  0  0  0  0  0  0  0
  124.7370  131.9150   59.8530 C   0  0  0  0  0  0  0  0  0  0  0  0
  124.3090  131.7240   61.1660 C   0  0  0  0  0  0  0  0  0  0  0  0
  124.6450  130.5550   61.8480 C   0  0  0  0  0  0  0  0  0  0  0  0
  125.4040  129.5680   61.2160 C   0  0  0  0  0  0  0  0  0  0  0  0
  125.8200  129.7340   59.8920 C   0  0  0  0  0  0  0  0  0  0  0  0
  126.6800  128.7480   59.1340 C   0  0  1  0  0  0  0  0  0  0  0  0
  126.6100  127.2530   59.3750 C   0  0  0  0  0  0  0  0  0  0  0  0
  126.9820  126.7450   57.9800 C   0  0  0  0  0  0  0  0  0  0  0  0
  127.4430  125.3650   57.7300 C   0  0  0  0  0  0  0  0  0  0  0  0
  128.6000  124.8750   58.3530 C   0  0  0  0  0  0  0  0  0  0  0  0
  129.0290  123.5720   58.1150 C   0  0  0  0  0  0  0  0  0  0  0  0
  128.3070  122.7520   57.2530 C   0  0  0  0  0  0  0  0  0  0  0  0
  127.1560  123.2230   56.6270 C   0  0  0  0  0  0  0  0  0  0  0  0
  126.7240  124.5250   56.8650 C   0  0  0  0  0  0  0  0  0  0  0  0
  126.8140  127.6560   57.0960 N   0  0  0  0  0  0  0  0  0  0  0  0
  126.3250  128.8010   57.7480 N   0  0  0  0  0  0  0  0  0  0  0  0
  127.7520  130.4870   56.5920 C   0  0  0  0  0  0  0  0  0  0  0  0
  128.7500  130.9100   57.4030 C   0  0  0  0  0  0  0  0  0  0  0  0
  130.1350  131.2740   57.0440 C   0  0  0  0  0  0  0  0  0  0  0  0
  131.2560  130.8200   57.7530 C   0  0  0  0  0  0  0  0  0  0  0  0
  132.5360  131.2060   57.3560 C   0  0  0  0  0  0  0  0  0  0  0  0
  132.6640  132.0500   56.2530 C   0  0  0  0  0  0  0  0  0  0  0  0
  131.5980  132.5120   55.5530 N   0  0  0  0  0  0  0  0  0  0  0  0
  130.3600  132.1240   55.9550 C   0  0  0  0  0  0  0  0  0  0  0  0
  127.8160  130.3740   54.8270 S   0  0  0  0  0  0  0  0  0  0  0  0
  1  2  2  0
  2  3  1  0
  4  3  1  6
  4  5  1  0
  5  6  1  0
  6  7  2  0
  7  8  1  0
  8  9  2  0
  9 10  1  0
 10 11  2  0
 11 12  1  0
 12 13  1  1
 13 14  1  0
 14 15  1  0
 15 16  2  0
 16 17  1  0
 17 18  2  0
 18 19  1  0
 19 20  2  0
 14 21  2  0
 21 22  1  0
  4 23  1  0
 23 24  2  0
 24 25  1  0
 25 26  2  0
 26 27  1  0
 27 28  2  0
 28 29  1  0
 29 30  2  0
 23 31  1  0
 31  2  1  0
 22  4  1  0
 30 25  1  0
 11  6  1  0
 22 12  1  0
 20 15  1  0
M  END
>  <Binding energies>  (75) 
[-8.99]

>  <Ligand effiencies>  (75) 
[-0.2809375]

>  <Interactions>  (75) 
["V-B:PRO:540:N:9856, V-B:TYR:539:CZ:9849, V-B:ASP:366:CG:8185, V-B:TYR:539:CE2:9848, V-B:TYR:539:CE1:9847, V-B:TYR:539:CD1:9845, V-B:TYR:539:CD2:9846, V-A:TYR:539:CE1:4873, V-A:PRO:540:N:4882, H-A:TYR:539:N:4868, V-A:ILE:538:CA:4858, V-A:TYR:539:CZ:4875, V-A:TYR:531:CE2:4791, V-A:TYR:539:C:4865, V-A:ILE:538:CB:4860, V-A:PRO:540:CA:4881, V-A:PRO:540:CB:4883, H-B:TYR:531:OH:9767, V-B:TYR:539:C:9839, V-A:PRO:540:CD:4885, V-A:TYR:539:CE2:4874, V-B:TYR:539:CG:9844, V-B:TYR:531:CE1:9764, H-A:TYR:539:OH:4876, V-B:TYR:539:CA:9841, V-B:ILE:369:CD1:8211, H-B:ASN:370:ND2:8220, H-B:ASP:366:O:8181"]

$$$$
RR24_Rahimova_2017
     RDKit          3D

 43 49  0  0  0  0  0  0  0  0999 V2000
  129.1180  132.2530   55.0810 C   0  0  0  0  0  0  0  0  0  0  0  0
  129.9690  130.9940   55.2980 C   0  0  2  0  0  0  0  0  0  0  0  0
  129.1660  129.6720   55.1180 C   0  0  0  0  0  0  0  0  0  0  0  0
  127.9310  129.6490   55.1120 O   0  0  0  0  0  0  0  0  0  0  0  0
  129.9780  128.5800   55.0010 O   0  0  0  0  0  0  0  0  0  0  0  0
  129.7730  127.4900   55.8170 C   0  0  0  0  0  0  0  0  0  0  0  0
  129.2400  126.3190   55.2740 C   0  0  0  0  0  0  0  0  0  0  0  0
  129.0380  125.2080   56.0880 C   0  0  0  0  0  0  0  0  0  0  0  0
  129.3750  125.2590   57.4430 C   0  0  0  0  0  0  0  0  0  0  0  0
  129.1330  124.0380   58.3380 C   0  0  1  0  0  0  0  0  0  0  0  0
  130.2610  123.8510   59.3790 C   0  0  0  0  0  0  0  0  0  0  0  0
  130.0200  123.6920   60.6930 C   0  0  0  0  0  0  0  0  0  0  0  0
  128.7470  123.6850   61.2090 N   0  0  0  0  0  0  0  0  0  0  0  0
  127.6470  123.8440   60.3990 C   0  0  0  0  0  0  0  0  0  0  0  0
  126.4630  123.8040   61.0620 N   0  0  0  0  0  0  0  0  0  0  0  0
  125.2730  124.0210   60.4400 C   0  0  0  0  0  0  0  0  0  0  0  0
  124.2790  124.2900   61.1170 O   0  0  0  0  0  0  0  0  0  0  0  0
  125.3600  124.0760   59.0570 N   0  0  0  0  0  0  0  0  0  0  0  0
  124.0830  124.2190   58.3270 C   0  0  0  0  0  0  0  0  0  0  0  0
  126.5070  124.1250   58.2840 C   0  0  0  0  0  0  0  0  0  0  0  0
  126.5100  124.2270   57.0540 O   0  0  0  0  0  0  0  0  0  0  0  0
  127.7500  124.0210   59.0560 C   0  0  0  0  0  0  0  0  0  0  0  0
  131.2620  123.5390   61.4320 C   0  0  0  0  0  0  0  0  0  0  0  0
  131.5480  123.3550   62.7860 C   0  0  0  0  0  0  0  0  0  0  0  0
  132.8800  123.2410   63.1920 C   0  0  0  0  0  0  0  0  0  0  0  0
  133.9110  123.3090   62.2510 C   0  0  0  0  0  0  0  0  0  0  0  0
  133.6190  123.4930   60.8970 C   0  0  0  0  0  0  0  0  0  0  0  0
  132.2860  123.6080   60.4970 C   0  0  0  0  0  0  0  0  0  0  0  0
  131.7010  123.8020   59.1530 C   0  0  0  0  0  0  0  0  0  0  0  0
  132.2570  123.9060   58.0610 O   0  0  0  0  0  0  0  0  0  0  0  0
  129.9270  126.4280   57.9790 C   0  0  0  0  0  0  0  0  0  0  0  0
  130.1310  127.5380   57.1660 C   0  0  0  0  0  0  0  0  0  0  0  0
  130.7120  131.0360   56.5920 N   0  0  0  0  0  0  0  0  0  0  0  0
  132.0590  131.2350   56.6350 C   0  0  0  0  0  0  0  0  0  0  0  0
  132.8230  131.3910   55.6800 O   0  0  0  0  0  0  0  0  0  0  0  0
  132.4150  131.2230   58.0760 C   0  0  0  0  0  0  0  0  0  0  0  0
  133.6470  131.3760   58.7130 C   0  0  0  0  0  0  0  0  0  0  0  0
  133.6870  131.3230   60.1120 C   0  0  0  0  0  0  0  0  0  0  0  0
  132.5110  131.1230   60.8450 C   0  0  0  0  0  0  0  0  0  0  0  0
  131.2860  130.9720   60.1870 C   0  0  0  0  0  0  0  0  0  0  0  0
  131.2660  131.0260   58.7930 C   0  0  0  0  0  0  0  0  0  0  0  0
  130.1430  130.9070   57.8300 C   0  0  0  0  0  0  0  0  0  0  0  0
  128.9520  130.7330   58.0920 O   0  0  0  0  0  0  0  0  0  0  0  0
  2  1  1  1
  2  3  1  0
  3  4  2  0
  3  5  1  0
  5  6  1  0
  6  7  2  0
  7  8  1  0
  8  9  2  0
 10  9  1  1
 10 11  1  0
 11 12  2  0
 12 13  1  0
 13 14  1  0
 14 15  1  0
 15 16  1  0
 16 17  2  0
 16 18  1  0
 18 19  1  0
 18 20  1  0
 20 21  2  0
 20 22  1  0
 12 23  1  0
 23 24  2  0
 24 25  1  0
 25 26  2  0
 26 27  1  0
 27 28  2  0
 28 29  1  0
 29 30  2  0
  9 31  1  0
 31 32  2  0
  2 33  1  0
 33 34  1  0
 34 35  2  0
 34 36  1  0
 36 37  2  0
 37 38  1  0
 38 39  2  0
 39 40  1  0
 40 41  2  0
 41 42  1  0
 42 43  2  0
 32  6  1  0
 42 33  1  0
 22 10  1  0
 28 23  1  0
 41 36  1  0
 29 11  1  0
 22 14  2  0
M  END
>  <Binding energies>  (76) 
[-10.9]

>  <Ligand effiencies>  (76) 
[-0.24222222222222223]

>  <Interactions>  (76) 
["V-B:LEU:363:CA:8157, H-B:GLU:543:OE1:9881, V-B:ALA:541:CB:9864, V-B:ASP:366:CG:8185, V-B:PRO:540:CB:9857, H-B:ARG:545:NH2:9900, V-B:PRO:540:CA:9855, V-B:PRO:540:C:9853, V-B:TYR:539:CE2:9848, V-A:TYR:539:CE1:4873, V-A:ASP:366:CG:3211, V-A:PRO:540:N:4882, V-A:ILE:538:CA:4858, V-A:TYR:539:CZ:4875, V-A:TYR:531:CE2:4791, V-A:LEU:363:CA:3183, H-A:TYR:531:OH:4793, V-A:PRO:540:CA:4881, V-A:TYR:531:CZ:4792, V-A:PRO:540:CB:4883, H-B:TYR:531:OH:9767, V-A:ASN:362:CB:3174, V-A:GLY:454:CA:4047, V-A:ILE:538:C:4856, H-B:TYR:539:OH:9850, V-A:TYR:539:CD1:4871, V-A:ILE:369:CD1:3237, V-A:ASN:362:C:3170, V-A:TYR:539:CG:4870, H-B:ALA:541:O:9861, V-A:GLY:453:C:4040"]

$$$$
RR25_Rahimova_2017
     RDKit          3D

 39 44  0  0  0  0  0  0  0  0999 V2000
  131.3110  125.7170   55.3230 O   0  0  0  0  0  0  0  0  0  0  0  0
  131.2990  125.5060   56.5360 C   0  0  0  0  0  0  0  0  0  0  0  0
  132.2480  124.6340   57.0090 O   0  0  0  0  0  0  0  0  0  0  0  0
  132.5000  124.5070   58.3630 C   0  0  0  0  0  0  0  0  0  0  0  0
  133.7730  124.0690   58.7260 C   0  0  0  0  0  0  0  0  0  0  0  0
  134.0930  123.9100   60.0730 C   0  0  0  0  0  0  0  0  0  0  0  0
  133.1470  124.1810   61.0730 C   0  0  0  0  0  0  0  0  0  0  0  0
  133.4930  124.0190   62.5070 N   0  0  0  0  0  0  0  0  0  0  0  0
  133.2510  122.9450   63.0520 O   0  0  0  0  0  0  0  0  0  0  0  0
  134.0080  124.9640   63.0970 O   0  0  0  0  0  0  0  0  0  0  0  0
  131.8670  124.6090   60.6860 C   0  0  0  0  0  0  0  0  0  0  0  0
  131.5270  124.7660   59.3390 C   0  0  0  0  0  0  0  0  0  0  0  0
  130.1620  125.2360   58.8710 C   0  0  0  0  0  0  0  0  0  0  0  0
  130.3180  126.1000   57.5880 C   0  0  2  0  0  0  0  0  0  0  0  0
  128.9300  126.5190   57.0220 C   0  0  0  0  0  0  0  0  0  0  0  0
  127.9500  125.9520   57.5150 O   0  0  0  0  0  0  0  0  0  0  0  0
  128.7870  127.5410   56.1260 N   0  0  0  0  0  0  0  0  0  0  0  0
  129.9010  128.0310   55.2870 C   0  0  0  0  0  0  0  0  0  0  0  0
  129.7780  129.5620   55.1330 C   0  0  0  0  0  0  0  0  0  0  0  0
  128.4620  129.9430   54.6110 N   0  0  0  0  0  0  0  0  0  0  0  0
  128.3890  131.3850   54.3390 C   0  0  0  0  0  0  0  0  0  0  0  0
  129.7200  132.1240   54.6410 C   0  0  0  0  0  0  0  0  0  0  0  0
  130.2600  131.9630   56.0230 N   0  0  0  0  0  0  0  0  0  0  0  0
  129.3260  132.0420   57.0340 C   0  0  0  0  0  0  0  0  0  0  0  0
  128.1270  132.2670   56.8310 O   0  0  0  0  0  0  0  0  0  0  0  0
  129.8810  131.8100   58.4260 C   0  0  0  0  0  0  0  0  0  0  0  0
  129.0140  131.8430   59.5260 C   0  0  0  0  0  0  0  0  0  0  0  0
  129.4880  131.6260   60.8190 C   0  0  0  0  0  0  0  0  0  0  0  0
  130.8380  131.3680   61.0530 C   0  0  0  0  0  0  0  0  0  0  0  0
  131.7510  131.3260   59.9720 C   0  0  0  0  0  0  0  0  0  0  0  0
  133.1330  131.0680   60.1380 C   0  0  0  0  0  0  0  0  0  0  0  0
  133.9770  131.0380   59.0300 C   0  0  0  0  0  0  0  0  0  0  0  0
  133.4820  131.2600   57.7460 C   0  0  0  0  0  0  0  0  0  0  0  0
  132.1220  131.5190   57.5340 C   0  0  0  0  0  0  0  0  0  0  0  0
  131.2560  131.5510   58.6570 C   0  0  0  0  0  0  0  0  0  0  0  0
  131.6200  131.7470   56.1210 C   0  0  0  0  0  0  0  0  0  0  0  0
  132.3760  131.7220   55.1450 O   0  0  0  0  0  0  0  0  0  0  0  0
  127.4160  129.5150   55.5410 C   0  0  0  0  0  0  0  0  0  0  0  0
  127.4250  127.9810   55.7450 C   0  0  0  0  0  0  0  0  0  0  0  0
  1  2  2  0
  2  3  1  0
  3  4  1  0
  4  5  2  0
  5  6  1  0
  6  7  2  0
  7  8  1  0
  8  9  2  0
  8 10  1  0
  7 11  1  0
 11 12  2  0
 12 13  1  0
 13 14  1  0
 14 15  1  6
 15 16  2  0
 15 17  1  0
 17 18  1  0
 18 19  1  0
 19 20  1  0
 20 21  1  0
 21 22  1  0
 22 23  1  0
 23 24  1  0
 24 25  2  0
 24 26  1  0
 26 27  2  0
 27 28  1  0
 28 29  2  0
 29 30  1  0
 30 31  2  0
 31 32  1  0
 32 33  2  0
 33 34  1  0
 34 35  2  0
 34 36  1  0
 36 37  2  0
 20 38  1  0
 38 39  1  0
 14  2  1  0
 39 17  1  0
 12  4  1  0
 36 23  1  0
 35 26  1  0
 35 30  1  0
M  CHG  2   8   1  10  -1
M  END
>  <Binding energies>  (77) 
[-11.37]

>  <Ligand effiencies>  (77) 
[-0.2915384615384615]

>  <Interactions>  (77) 
["V-B:TYR:539:CZ:9849, V-B:TYR:539:CE2:9848, V-A:TYR:539:CE1:4873, V-A:ASP:366:CG:3211, V-A:PRO:540:N:4882, V-A:ILE:538:CA:4858, V-A:TYR:539:CZ:4875, V-A:LEU:363:CA:3183, H-A:TYR:531:OH:4793, V-A:ASP:366:CB:3210, V-A:TYR:539:C:4865, V-A:ILE:538:CB:4860, V-A:PRO:540:CA:4881, V-A:ILE:538:CG2:4861, V-A:TYR:531:CZ:4792, V-A:PRO:540:CB:4883, V-A:PRO:540:CD:4885, V-A:ASN:362:CB:3174, V-A:GLY:454:CA:4047, H-A:TYR:484:OH:4346, H-A:ARG:545:NE:4922, H-A:GLY:454:N:4048, V-A:ILE:538:C:4856, H-B:TYR:539:OH:9850, H-A:ARG:545:NH2:4926, V-A:TYR:539:CD1:4871, V-A:ILE:369:CB:3234, V-A:ILE:369:CG2:3235, V-A:ILE:369:CD1:3237, H-A:ARG:545:NH1:4925, V-A:ASP:366:CA:3208, V-A:ASN:362:C:3170, V-A:PRO:540:C:4879, V-A:TYR:539:CG:4870"]

$$$$
RR27_Rahimova_2017
     RDKit          3D

 39 44  0  0  0  0  0  0  0  0999 V2000
  127.2250  123.1070   57.3170 O   0  0  0  0  0  0  0  0  0  0  0  0
  128.2710  123.6480   57.6870 C   0  0  0  0  0  0  0  0  0  0  0  0
  128.5210  123.8050   59.2160 C   0  0  0  0  0  0  0  0  0  0  0  0
  129.5750  122.8230   59.7600 C   0  0  0  0  0  0  0  0  0  0  0  0
  130.9510  123.0720   59.6410 C   0  0  0  0  0  0  0  0  0  0  0  0
  131.8770  122.1640   60.1460 C   0  0  0  0  0  0  0  0  0  0  0  0
  131.4330  121.0030   60.7710 C   0  0  0  0  0  0  0  0  0  0  0  0
  130.0720  120.7400   60.8950 C   0  0  0  0  0  0  0  0  0  0  0  0
  129.1460  121.6480   60.3900 C   0  0  0  0  0  0  0  0  0  0  0  0
  127.2010  123.8450   60.0100 C   0  0  0  0  0  0  0  0  0  0  0  0
  125.9580  123.9270   59.3690 C   0  0  0  0  0  0  0  0  0  0  0  0
  124.7840  123.9740   60.1170 C   0  0  0  0  0  0  0  0  0  0  0  0
  124.8500  123.9430   61.5070 C   0  0  0  0  0  0  0  0  0  0  0  0
  126.0790  123.8730   62.1580 C   0  0  0  0  0  0  0  0  0  0  0  0
  127.2510  123.8280   61.4090 C   0  0  0  0  0  0  0  0  0  0  0  0
  129.2610  123.9690   56.8060 N   0  0  0  0  0  0  0  0  0  0  0  0
  130.4010  124.8340   57.1460 C   0  0  0  0  0  0  0  0  0  0  0  0
  129.9540  126.2890   56.8820 C   0  0  0  0  0  0  0  0  0  0  0  0
  129.4310  126.5040   55.4260 C   0  0  0  0  0  0  0  0  0  0  0  0
  128.8680  127.9090   55.1430 C   0  0  0  0  0  0  0  0  0  0  0  0
  127.5080  128.0210   55.0990 N   0  0  0  0  0  0  0  0  0  0  0  0
  126.9580  129.2470   54.8790 C   0  0  0  0  0  0  0  0  0  0  0  0
  125.6100  129.4860   54.8180 O   0  0  0  0  0  0  0  0  0  0  0  0
  127.8160  130.3500   54.7040 C   0  0  0  0  0  0  0  0  0  0  0  0
  127.6050  131.6790   54.4770 N   0  0  0  0  0  0  0  0  0  0  0  0
  128.8460  132.2810   54.3840 N   0  0  0  0  0  0  0  0  0  0  0  0
  129.8000  131.3430   54.5580 N   0  0  0  0  0  0  0  0  0  0  0  0
  131.2150  131.7010   54.4830 C   0  0  0  0  0  0  0  0  0  0  0  0
  131.9530  131.5590   55.8080 C   0  0  0  0  0  0  0  0  0  0  0  0
  133.3270  131.8080   55.8780 C   0  0  0  0  0  0  0  0  0  0  0  0
  134.0010  131.6880   57.0940 C   0  0  0  0  0  0  0  0  0  0  0  0
  133.3050  131.3240   58.2460 C   0  0  0  0  0  0  0  0  0  0  0  0
  131.9310  131.0840   58.1850 C   0  0  0  0  0  0  0  0  0  0  0  0
  131.0620  130.6600   59.6150 Cl  0  0  0  0  0  0  0  0  0  0  0  0
  131.2590  131.1960   56.9680 C   0  0  0  0  0  0  0  0  0  0  0  0
  129.2050  130.1080   54.7590 C   0  0  0  0  0  0  0  0  0  0  0  0
  129.7700  128.9160   54.9650 N   0  0  0  0  0  0  0  0  0  0  0  0
  128.4790  125.3540   54.9730 C   0  0  0  0  0  0  0  0  0  0  0  0
  128.9980  123.9460   55.3590 C   0  0  0  0  0  0  0  0  0  0  0  0
  1  2  2  0
  2  3  1  0
  3  4  1  0
  4  5  2  0
  5  6  1  0
  6  7  2  0
  7  8  1  0
  8  9  2  0
  3 10  1  0
 10 11  2  0
 11 12  1  0
 12 13  2  0
 13 14  1  0
 14 15  2  0
  2 16  1  0
 16 17  1  0
 17 18  1  0
 18 19  1  0
 19 20  1  0
 20 21  2  0
 21 22  1  0
 22 23  1  0
 22 24  2  0
 24 25  1  0
 25 26  2  0
 26 27  1  0
 27 28  1  0
 28 29  1  0
 29 30  2  0
 30 31  1  0
 31 32  2  0
 32 33  1  0
 33 34  1  0
 33 35  2  0
 27 36  1  0
 36 37  2  0
 19 38  1  0
 38 39  1  0
  9  4  1  0
 15 10  1  0
 39 16  1  0
 37 20  1  0
 36 24  1  0
 35 29  1  0
M  END
>  <Binding energies>  (78) 
[-11.84]

>  <Ligand effiencies>  (78) 
[-0.296]

>  <Interactions>  (78) 
["V-B:PRO:540:N:9856, V-B:TYR:539:CZ:9849, V-B:ALA:541:CB:9864, V-B:PRO:540:CB:9857, V-B:PRO:540:CA:9855, V-B:PRO:540:C:9853, V-B:ALA:541:CA:9862, V-B:TYR:539:CE2:9848, V-A:LEU:475:CD2:4257, V-B:TYR:539:CE1:9847, V-B:TYR:539:CD1:9845, V-B:TYR:539:CD2:9846, V-A:TYR:539:CE1:4873, H-A:TYR:539:N:4868, V-A:ILE:538:CA:4858, V-A:TYR:531:CE2:4791, V-A:LEU:363:CA:3183, H-A:TYR:531:OH:4793, V-A:LEU:363:CD1:3187, V-A:ILE:538:CB:4860, V-A:PRO:540:CA:4881, V-A:ILE:538:CG2:4861, V-A:TYR:531:CZ:4792, V-A:PRO:540:CB:4883, V-B:ALA:541:C:9860, V-B:ARG:545:CZ:9898, V-B:ASN:362:CB:8148, H-B:TYR:539:N:9842, V-B:GLU:543:CD:9880, H-B:TYR:531:OH:9767, V-B:TYR:539:C:9839, V-A:LEU:363:CB:3185, V-A:MET:535:CG:4831, V-A:PRO:540:CD:4885, H-A:TYR:539:OH:4876, V-A:PRO:540:CG:4884"]

$$$$
RR28_Rahimova_2017
     RDKit          3D

 46 49  0  0  0  0  0  0  0  0999 V2000
  133.9850  131.7080   56.8200 C   0  0  0  0  0  0  0  0  0  0  0  0
  132.4750  131.4980   56.8600 C   0  0  0  0  0  0  0  0  0  0  0  0
  131.7430  132.2270   56.1930 O   0  0  0  0  0  0  0  0  0  0  0  0
  132.0320  130.4970   57.6470 N   0  0  0  0  0  0  0  0  0  0  0  0
  130.6350  130.0710   57.8870 C   0  0  0  0  0  0  0  0  0  0  0  0
  130.4110  128.7110   57.1660 C   0  0  0  0  0  0  0  0  0  0  0  0
  129.6230  128.6690   56.0050 C   0  0  0  0  0  0  0  0  0  0  0  0
  129.3970  127.4700   55.3360 C   0  0  0  0  0  0  0  0  0  0  0  0
  129.9550  126.2830   55.8140 C   0  0  0  0  0  0  0  0  0  0  0  0
  129.6920  124.9740   55.0690 C   0  0  0  0  0  0  0  0  0  0  0  0
  130.6980  124.6440   54.2560 F   0  0  0  0  0  0  0  0  0  0  0  0
  129.5180  123.9760   55.9350 F   0  0  0  0  0  0  0  0  0  0  0  0
  128.5870  125.1020   54.3340 F   0  0  0  0  0  0  0  0  0  0  0  0
  130.7400  126.3100   56.9700 C   0  0  0  0  0  0  0  0  0  0  0  0
  130.9650  127.5110   57.6380 C   0  0  0  0  0  0  0  0  0  0  0  0
  129.6320  131.1950   57.4410 C   0  0  0  0  0  0  0  0  0  0  0  0
  129.7380  132.4850   58.2940 C   0  0  0  0  0  0  0  0  0  0  0  0
  129.4720  132.0860   59.6860 N   0  0  0  0  0  0  0  0  0  0  0  0
  128.2130  132.1700   60.1970 C   0  0  0  0  0  0  0  0  0  0  0  0
  127.2970  132.7290   59.5900 O   0  0  0  0  0  0  0  0  0  0  0  0
  127.9620  131.6970   61.6490 C   0  0  0  0  0  0  0  0  0  0  0  0
  127.0970  130.4160   61.8050 C   0  0  0  0  0  0  0  0  0  0  0  0
  127.0030  129.5290   60.5410 C   0  0  0  0  0  0  0  0  0  0  0  0
  126.1160  129.7840   59.7210 O   0  0  0  0  0  0  0  0  0  0  0  0
  127.9650  128.5950   60.2970 N   0  0  0  0  0  0  0  0  0  0  0  0
  128.8320  128.0380   61.3420 C   0  0  0  0  0  0  0  0  0  0  0  0
  128.0550  126.8660   61.9810 C   0  0  0  0  0  0  0  0  0  0  0  0
  127.5980  125.7540   60.9730 C   0  0  0  0  0  0  0  0  0  0  0  0
  126.5510  124.9250   61.6070 N   0  0  0  0  0  0  0  0  0  0  0  0
  125.5510  124.2480   61.0090 C   0  0  0  0  0  0  0  0  0  0  0  0
  124.6030  123.4880   61.9320 C   0  0  0  0  0  0  0  0  0  0  0  0
  125.3710  124.2160   59.7930 O   0  0  0  0  0  0  0  0  0  0  0  0
  128.8310  124.8310   60.7030 C   0  0  0  0  0  0  0  0  0  0  0  0
  128.8520  123.8690   59.6800 C   0  0  0  0  0  0  0  0  0  0  0  0
  129.9710  123.0670   59.4720 C   0  0  0  0  0  0  0  0  0  0  0  0
  131.0980  123.2050   60.2850 C   0  0  0  0  0  0  0  0  0  0  0  0
  132.3360  122.3350   60.0670 C   0  0  0  0  0  0  0  0  0  0  0  0
  131.9860  121.0660   59.8510 F   0  0  0  0  0  0  0  0  0  0  0  0
  133.0000  122.7810   59.0010 F   0  0  0  0  0  0  0  0  0  0  0  0
  133.1600  122.3620   61.1160 F   0  0  0  0  0  0  0  0  0  0  0  0
  131.0900  124.1510   61.3110 C   0  0  0  0  0  0  0  0  0  0  0  0
  129.9700  124.9510   61.5160 C   0  0  0  0  0  0  0  0  0  0  0  0
  127.0400  126.4420   59.6680 C   0  0  0  0  0  0  0  0  0  0  0  0
  127.8290  127.6780   59.1580 C   0  0  0  0  0  0  0  0  0  0  0  0
  130.4930  131.1850   60.2390 C   0  0  0  0  0  0  0  0  0  0  0  0
  130.4270  129.8680   59.4230 C   0  0  0  0  0  0  0  0  0  0  0  0
  1  2  1  0
  2  3  2  0
  2  4  1  0
  4  5  1  0
  5  6  1  0
  6  7  2  0
  7  8  1  0
  8  9  2  0
  9 10  1  0
 10 11  1  0
 10 12  1  0
 10 13  1  0
  9 14  1  0
 14 15  2  0
  5 16  1  0
 16 17  1  0
 17 18  1  0
 18 19  1  0
 19 20  2  0
 19 21  1  0
 21 22  1  0
 22 23  1  0
 23 24  2  0
 23 25  1  0
 25 26  1  0
 26 27  1  0
 27 28  1  0
 28 29  1  0
 29 30  1  0
 30 31  1  0
 30 32  2  0
 28 33  1  0
 33 34  2  0
 34 35  1  0
 35 36  2  0
 36 37  1  0
 37 38  1  0
 37 39  1  0
 37 40  1  0
 36 41  1  0
 41 42  2  0
 28 43  1  0
 43 44  1  0
 18 45  1  0
 45 46  1  0
 46  5  1  0
 15  6  1  0
 44 25  1  0
 42 33  1  0
M  END
>  <Binding energies>  (79) 
[-8.43]

>  <Ligand effiencies>  (79) 
[-0.175625]

>  <Interactions>  (79) 
["H-B:GLU:543:OE1:9881, V-B:TYR:539:CZ:9849, V-A:TRP:381:CH2:3370, V-B:PRO:540:CB:9857, V-B:PRO:540:CA:9855, V-B:PRO:540:C:9853, V-B:TYR:539:CE2:9848, V-A:LEU:475:CD2:4257, V-B:TYR:539:CE1:9847, V-B:TYR:539:CD1:9845, V-B:TYR:539:CD2:9846, V-A:ASP:366:CG:3211, V-A:PRO:540:N:4882, H-A:TYR:539:N:4868, V-A:TYR:531:CE2:4791, V-A:LEU:363:CA:3183, H-A:TYR:531:OH:4793, V-A:TYR:539:C:4865, V-A:LEU:363:CD1:3187, V-A:PRO:540:CA:4881, V-A:PRO:540:CB:4883, V-B:ALA:541:C:9860, V-B:ASN:362:CB:8148, V-B:GLU:543:CD:9880, H-B:GLU:543:OE2:9882, V-A:LEU:363:CB:3185, H-A:ASP:366:OD2:3213, V-A:PRO:540:CD:4885, V-A:TYR:539:CA:4867, V-A:ALA:541:CB:4890, V-A:ILE:369:CG2:3235, V-A:ILE:369:CD1:3237, V-A:PRO:540:CG:4884, V-A:LEU:363:CG:3186, V-B:ASN:362:CG:8149"]

$$$$
RR29_Rahimova_2017
     RDKit          3D

 18 19  0  0  0  0  0  0  0  0999 V2000
  130.7210  121.1120   61.0560 C   0  0  0  0  0  0  0  0  0  0  0  0
  130.1780  122.4120   61.6310 C   0  0  0  0  0  0  0  0  0  0  0  0
  128.8640  122.8660   60.9590 C   0  0  0  0  0  0  0  0  0  0  0  0
  128.9800  122.8670   59.4200 C   0  0  0  0  0  0  0  0  0  0  0  0
  127.6530  123.1690   58.7410 C   0  0  0  0  0  0  0  0  0  0  0  0
  126.6450  123.8600   59.4420 C   0  0  0  0  0  0  0  0  0  0  0  0
  125.4150  124.1490   58.8350 C   0  0  0  0  0  0  0  0  0  0  0  0
  125.2280  123.7200   57.5260 C   0  0  0  0  0  0  0  0  0  0  0  0
  126.2010  123.0480   56.8420 C   0  0  0  0  0  0  0  0  0  0  0  0
  127.4340  122.7560   57.4150 C   0  0  0  0  0  0  0  0  0  0  0  0
  125.7640  122.7830   55.5820 O   0  0  0  0  0  0  0  0  0  0  0  0
  124.4030  123.1240   55.5740 C   0  0  0  0  0  0  0  0  0  0  0  0
  124.1500  123.8980   56.7170 O   0  0  0  0  0  0  0  0  0  0  0  0
  130.8340  122.9900   62.5680 N   0  0  0  0  0  0  0  0  0  0  0  0
  130.3910  124.2100   63.0310 N   0  0  0  0  0  0  0  0  0  0  0  0
  131.0420  124.9490   63.9440 C   0  0  0  0  0  0  0  0  0  0  0  0
  132.2040  124.6150   64.5070 N   0  0  0  0  0  0  0  0  0  0  0  0
  130.4930  126.0960   64.3140 N   0  0  0  0  0  0  0  0  0  0  0  0
  1  2  1  0
  2  3  1  0
  3  4  1  0
  4  5  1  0
  5  6  2  0
  6  7  1  0
  7  8  2  0
  8  9  1  0
  9 10  2  0
  9 11  1  0
 11 12  1  0
 12 13  1  0
  2 14  2  0
 14 15  1  0
 15 16  1  0
 16 17  1  0
 16 18  2  0
 10  5  1  0
 13  8  1  0
M  CHG  1  18   1
M  END
>  <Binding energies>  (80) 
[-7.31]

>  <Ligand effiencies>  (80) 
[-0.3178260869565217]

>  <Interactions>  (80) 
["V-B:PRO:540:N:9856, H-B:GLU:543:OE1:9881, V-B:ILE:538:CA:9832, V-B:ALA:541:CB:9864, V-B:PRO:540:CB:9857, V-B:PRO:540:CA:9855, V-B:TYR:539:CE2:9848, V-A:LEU:475:CD2:4257, V-B:TYR:539:CD2:9846, V-A:GLU:543:CD:4906, V-B:TYR:531:CE2:9765, V-B:LEU:363:CD1:8161, V-B:TYR:531:CZ:9766, H-B:TYR:539:N:9842, V-B:GLU:543:CD:9880, H-B:TYR:531:OH:9767, V-B:TYR:539:C:9839, V-B:ILE:538:CG2:9835, V-B:PRO:540:CD:9859, V-B:ILE:538:CB:9834, H-B:GLU:543:OE2:9882, H-A:GLU:543:OE2:4908, H-A:TYR:484:OH:4346, V-B:TYR:539:CG:9844, V-B:TYR:539:CA:9841, V-A:TYR:484:CZ:4345"]

$$$$
RR30_Rahimova_2017
     RDKit          3D

 18 19  0  0  0  0  0  0  0  0999 V2000
  127.6890  130.9970   54.3230 C   0  0  0  0  0  0  0  0  0  0  0  0
  129.0740  131.3480   53.7580 C   0  0  0  0  0  0  0  0  0  0  0  0
  130.0240  131.8320   54.8310 C   0  0  0  0  0  0  0  0  0  0  0  0
  129.7390  132.4780   55.9350 N   0  0  0  0  0  0  0  0  0  0  0  0
  130.9560  132.7010   56.5730 N   0  0  0  0  0  0  0  0  0  0  0  0
  131.8720  132.1800   55.7970 C   0  0  0  0  0  0  0  0  0  0  0  0
  133.6140  132.1320   56.0700 S   0  0  0  0  0  0  0  0  0  0  0  0
  133.7090  130.7360   57.2360 C   0  0  0  0  0  0  0  0  0  0  0  0
  133.0940  131.0760   58.5970 C   0  0  0  0  0  0  0  0  0  0  0  0
  133.8350  131.2500   59.5660 O   0  0  0  0  0  0  0  0  0  0  0  0
  131.7430  131.1270   58.6380 N   0  0  0  0  0  0  0  0  0  0  0  0
  130.9640  131.4110   59.7500 C   0  0  0  0  0  0  0  0  0  0  0  0
  131.3190  131.4090   61.0150 N   0  0  0  0  0  0  0  0  0  0  0  0
  130.2680  131.7430   61.8590 N   0  0  0  0  0  0  0  0  0  0  0  0
  129.1460  131.9900   61.2220 C   0  0  0  0  0  0  0  0  0  0  0  0
  127.8620  132.3700   61.9220 C   0  0  0  0  0  0  0  0  0  0  0  0
  129.2980  131.8290   59.4930 S   0  0  0  0  0  0  0  0  0  0  0  0
  131.3530  131.6090   54.6790 O   0  0  0  0  0  0  0  0  0  0  0  0
  1  2  1  0
  2  3  1  0
  3  4  2  0
  4  5  1  0
  5  6  2  0
  6  7  1  0
  7  8  1  0
  8  9  1  0
  9 10  2  0
  9 11  1  0
 11 12  1  0
 12 13  2  0
 13 14  1  0
 14 15  2  0
 15 16  1  0
 15 17  1  0
  6 18  1  0
 18  3  1  0
 17 12  1  0
M  END
>  <Binding energies>  (81) 
[-7.58]

>  <Ligand effiencies>  (81) 
[-0.39894736842105266]

>  <Interactions>  (81) 
["V-A:TYR:539:CE1:4873, V-A:ASP:366:CG:3211, V-A:PRO:540:N:4882, H-A:TYR:539:N:4868, V-A:ILE:538:CA:4858, V-A:TYR:539:CZ:4875, V-A:TYR:531:CE2:4791, V-A:LEU:363:CA:3183, H-A:TYR:531:OH:4793, V-A:ASP:366:CB:3210, V-A:LEU:363:CD1:3187, V-A:ILE:538:CB:4860, V-A:PRO:540:CA:4881, V-A:ILE:538:CG2:4861, V-A:TYR:531:CZ:4792, V-A:PRO:540:CB:4883, H-A:ALA:541:N:4889, V-A:MET:535:CG:4831, V-A:PRO:540:CD:4885, V-A:MET:535:CB:4830, V-A:ALA:541:CB:4890, H-A:LEU:363:N:3184"]

$$$$
RR31_Rahimova_2017
     RDKit          3D

 18 19  0  0  0  0  0  0  0  0999 V2000
  131.9310  131.7460   55.1690 C   0  0  0  0  0  0  0  0  0  0  0  0
  131.0260  131.7660   56.3940 C   0  0  0  0  0  0  0  0  0  0  0  0
  129.6780  132.0900   56.2390 C   0  0  0  0  0  0  0  0  0  0  0  0
  128.8240  132.1130   57.3400 C   0  0  0  0  0  0  0  0  0  0  0  0
  129.2910  131.8040   58.6280 C   0  0  0  0  0  0  0  0  0  0  0  0
  128.4490  131.8330   59.7420 N   0  0  0  0  0  0  0  0  0  0  0  0
  128.6270  132.8130   60.8310 C   0  0  0  0  0  0  0  0  0  0  0  0
  127.8910  132.4420   62.1400 C   0  0  0  0  0  0  0  0  0  0  0  0
  126.4620  132.2340   61.8960 N   0  0  0  0  0  0  0  0  0  0  0  0
  125.7300  131.9150   63.1270 C   0  0  0  0  0  0  0  0  0  0  0  0
  126.5320  131.0150   64.0880 C   0  0  0  0  0  0  0  0  0  0  0  0
  126.2720  129.5200   63.8410 C   0  0  0  0  0  0  0  0  0  0  0  0
  127.5760  128.7300   63.9930 N   0  0  0  0  0  0  0  0  0  0  0  0
  126.3360  131.1270   60.9480 C   0  0  0  0  0  0  0  0  0  0  0  0
  127.0230  131.4730   59.6070 C   0  0  0  0  0  0  0  0  0  0  0  0
  130.6500  131.4880   58.7700 C   0  0  0  0  0  0  0  0  0  0  0  0
  131.5190  131.4620   57.6720 C   0  0  0  0  0  0  0  0  0  0  0  0
  132.9860  131.1140   57.8940 C   0  0  0  0  0  0  0  0  0  0  0  0
  1  2  1  0
  2  3  2  0
  3  4  1  0
  4  5  2  0
  5  6  1  0
  6  7  1  0
  7  8  1  0
  8  9  1  0
  9 10  1  0
 10 11  1  0
 11 12  1  0
 12 13  1  0
  9 14  1  0
 14 15  1  0
  5 16  1  0
 16 17  2  0
 17 18  1  0
 17  2  1  0
 15  6  1  0
M  CHG  1  13   1
M  END
>  <Binding energies>  (82) 
[-7.58]

>  <Ligand effiencies>  (82) 
[-0.36095238095238097]

>  <Interactions>  (82) 
["H-B:GLU:543:OE1:9881, V-A:PRO:540:N:4882, V-A:ILE:538:CA:4858, V-A:TYR:539:CZ:4875, V-A:TYR:531:CE2:4791, V-A:TYR:539:C:4865, V-A:ILE:538:CB:4860, V-A:PRO:540:CA:4881, V-A:ILE:538:CG2:4861, V-A:TYR:531:CZ:4792, V-A:GLU:543:CD:4906, V-A:PRO:540:CB:4883, V-B:ARG:545:CZ:9898, V-B:GLU:543:CD:9880, H-B:GLU:543:OE2:9882, H-A:GLU:543:OE2:4908, H-A:GLU:543:OE1:4907, V-A:TYR:539:CE2:4874, V-A:ALA:541:CB:4890, V-A:TYR:539:CD1:4871, V-A:TYR:539:CD2:4872, V-A:TYR:539:CG:4870"]

$$$$
RR32_Rahimova_2017
     RDKit          3D

 18 20  0  0  0  0  0  0  0  0999 V2000
  125.4570  124.4080   61.0510 C   0  0  0  0  0  0  0  0  0  0  0  0
  126.2830  123.8750   59.8850 C   0  0  0  0  0  0  0  0  0  0  0  0
  127.5960  123.4750   60.1340 C   0  0  0  0  0  0  0  0  0  0  0  0
  128.3790  122.9810   59.0950 C   0  0  0  0  0  0  0  0  0  0  0  0
  129.6810  122.5850   59.3470 N   0  0  0  0  0  0  0  0  0  0  0  0
  130.6830  123.6480   59.5470 C   0  0  0  0  0  0  0  0  0  0  0  0
  132.1310  123.1120   59.6400 C   0  0  0  0  0  0  0  0  0  0  0  0
  132.2450  122.1500   60.7360 N   0  0  0  0  0  0  0  0  0  0  0  0
  133.6180  121.6690   60.8440 C   0  0  0  0  0  0  0  0  0  0  0  0
  131.3390  121.0390   60.4570 C   0  0  0  0  0  0  0  0  0  0  0  0
  129.8790  121.5430   60.3730 C   0  0  0  0  0  0  0  0  0  0  0  0
  127.9190  122.8680   57.8220 N   0  0  0  0  0  0  0  0  0  0  0  0
  126.6430  123.2530   57.5460 C   0  0  0  0  0  0  0  0  0  0  0  0
  126.1900  123.1260   56.2100 C   0  0  0  0  0  0  0  0  0  0  0  0
  124.8960  123.5040   55.8710 C   0  0  0  0  0  0  0  0  0  0  0  0
  124.0330  124.0080   56.8360 C   0  0  0  0  0  0  0  0  0  0  0  0
  124.4460  124.1450   58.1580 C   0  0  0  0  0  0  0  0  0  0  0  0
  125.7640  123.7710   58.5520 C   0  0  0  0  0  0  0  0  0  0  0  0
  1  2  1  0
  2  3  2  0
  3  4  1  0
  4  5  1  0
  5  6  1  0
  6  7  1  0
  7  8  1  0
  8  9  1  0
  8 10  1  0
 10 11  1  0
  4 12  2  0
 12 13  1  0
 13 14  2  0
 14 15  1  0
 15 16  2  0
 16 17  1  0
 17 18  2  0
 18  2  1  0
 11  5  1  0
 18 13  1  0
M  END
>  <Binding energies>  (83) 
[-6.59]

>  <Ligand effiencies>  (83) 
[-0.3661111111111111]

>  <Interactions>  (83) 
["V-B:PRO:540:N:9856, V-B:ILE:538:CA:9832, V-B:ALA:541:CB:9864, V-B:PRO:540:CB:9857, V-B:PRO:540:CA:9855, V-B:TYR:539:CE2:9848, V-A:LEU:475:CD2:4257, V-B:TYR:539:CD2:9846, V-B:TYR:531:CE2:9765, V-B:LEU:363:CD1:8161, V-B:TYR:531:CZ:9766, V-B:TYR:539:C:9839, V-B:ILE:538:CG2:9835, V-B:PRO:540:CD:9859, V-B:ILE:538:CB:9834, V-A:ILE:369:CG2:3235, V-A:ILE:369:CD1:3237"]

$$$$
RR5_Rahimova_2017
     RDKit          3D

 45 50  0  0  0  0  0  0  0  0999 V2000
  128.2250  122.3820   57.1940 O   0  0  0  0  0  0  0  0  0  0  0  0
  128.4340  123.5370   56.8270 C   0  0  0  0  0  0  0  0  0  0  0  0
  128.5830  123.8470   55.3250 C   0  0  0  0  0  0  0  0  0  0  0  0
  127.2580  124.3390   54.6410 C   0  0  2  0  0  0  0  0  0  0  0  0
  126.9750  125.7800   54.7940 N   0  0  0  0  0  0  0  0  0  0  0  0
  127.9660  126.6810   55.1590 C   0  0  0  0  0  0  0  0  0  0  0  0
  129.1580  126.4270   55.3490 O   0  0  0  0  0  0  0  0  0  0  0  0
  127.4060  127.8960   55.2910 O   0  0  0  0  0  0  0  0  0  0  0  0
  127.7140  128.9580   54.3920 C   0  0  0  0  0  0  0  0  0  0  0  0
  127.5640  130.3280   55.0890 C   0  0  0  0  0  0  0  0  0  0  0  0
  126.8450  130.2560   56.4250 C   0  0  0  0  0  0  0  0  0  0  0  0
  125.5660  129.7770   56.7220 C   0  0  0  0  0  0  0  0  0  0  0  0
  125.1100  129.7860   58.0410 C   0  0  0  0  0  0  0  0  0  0  0  0
  125.9270  130.2730   59.0630 C   0  0  0  0  0  0  0  0  0  0  0  0
  127.2040  130.7550   58.7680 C   0  0  0  0  0  0  0  0  0  0  0  0
  127.6580  130.7460   57.4480 C   0  0  0  0  0  0  0  0  0  0  0  0
  128.9310  131.1910   56.8590 C   0  0  0  0  0  0  0  0  0  0  0  0
  130.0630  131.7640   57.4430 C   0  0  0  0  0  0  0  0  0  0  0  0
  131.1470  132.1210   56.6400 C   0  0  0  0  0  0  0  0  0  0  0  0
  131.1000  131.9040   55.2610 C   0  0  0  0  0  0  0  0  0  0  0  0
  129.9690  131.3280   54.6830 C   0  0  0  0  0  0  0  0  0  0  0  0
  128.8820  130.9660   55.4830 C   0  0  0  0  0  0  0  0  0  0  0  0
  126.0440  123.5140   55.1360 C   0  0  0  0  0  0  0  0  0  0  0  0
  126.1190  122.4320   55.6820 O   0  0  0  0  0  0  0  0  0  0  0  0
  124.8900  124.1980   54.8810 O   0  0  0  0  0  0  0  0  0  0  0  0
  128.5190  124.6050   57.6520 N   0  0  0  0  0  0  0  0  0  0  0  0
  128.4340  124.7670   59.1350 C   0  0  0  0  0  0  0  0  0  0  0  0
  129.4370  123.6760   59.6410 C   0  0  0  0  0  0  0  0  0  0  0  0
  128.9850  122.4670   60.1970 C   0  0  0  0  0  0  0  0  0  0  0  0
  129.8860  121.5030   60.6420 C   0  0  0  0  0  0  0  0  0  0  0  0
  131.2540  121.7370   60.5490 C   0  0  0  0  0  0  0  0  0  0  0  0
  131.7290  122.9230   60.0020 C   0  0  0  0  0  0  0  0  0  0  0  0
  130.8280  123.8810   59.5480 C   0  0  0  0  0  0  0  0  0  0  0  0
  128.9050  126.2210   59.4740 C   0  0  0  0  0  0  0  0  0  0  0  0
  129.4420  127.0700   58.4930 C   0  0  0  0  0  0  0  0  0  0  0  0
  129.8730  128.3530   58.8210 C   0  0  0  0  0  0  0  0  0  0  0  0
  129.7750  128.8020   60.1340 C   0  0  0  0  0  0  0  0  0  0  0  0
  129.2440  127.9810   61.1220 C   0  0  0  0  0  0  0  0  0  0  0  0
  128.8050  126.7030   60.7910 C   0  0  0  0  0  0  0  0  0  0  0  0
  126.9490  124.4550   59.5220 C   0  0  0  0  0  0  0  0  0  0  0  0
  126.5770  124.2530   60.8630 C   0  0  0  0  0  0  0  0  0  0  0  0
  125.2600  123.9680   61.2130 C   0  0  0  0  0  0  0  0  0  0  0  0
  124.2870  123.8850   60.2240 C   0  0  0  0  0  0  0  0  0  0  0  0
  124.6210  124.0930   58.8910 C   0  0  0  0  0  0  0  0  0  0  0  0
  125.9390  124.3780   58.5460 C   0  0  0  0  0  0  0  0  0  0  0  0
  1  2  2  0
  2  3  1  0
  4  3  1  1
  4  5  1  0
  5  6  1  0
  6  7  2  0
  6  8  1  0
  8  9  1  0
  9 10  1  0
 10 11  1  0
 11 12  2  0
 12 13  1  0
 13 14  2  0
 14 15  1  0
 15 16  2  0
 16 17  1  0
 17 18  2  0
 18 19  1  0
 19 20  2  0
 20 21  1  0
 21 22  2  0
  4 23  1  0
 23 24  2  0
 23 25  1  0
  2 26  1  0
 26 27  1  0
 27 28  1  0
 28 29  2  0
 29 30  1  0
 30 31  2  0
 31 32  1  0
 32 33  2  0
 27 34  1  0
 34 35  2  0
 35 36  1  0
 36 37  2  0
 37 38  1  0
 38 39  2  0
 27 40  1  0
 40 41  2  0
 41 42  1  0
 42 43  2  0
 43 44  1  0
 44 45  2  0
 22 10  1  0
 33 28  1  0
 39 34  1  0
 45 40  1  0
 16 11  1  0
 22 17  1  0
M  END
>  <Binding energies>  (84) 
[-11.27]

>  <Ligand effiencies>  (84) 
[-0.23479166666666665]

>  <Interactions>  (84) 
["V-B:TYR:539:CZ:9849, V-B:ILE:538:CA:9832, V-B:ALA:541:CB:9864, V-B:ASP:366:CG:8185, V-B:PRO:540:CB:9857, V-B:PRO:540:CA:9855, V-B:TYR:539:CE2:9848, V-B:TYR:539:CE1:9847, V-B:TYR:539:CD1:9845, V-B:TYR:539:CD2:9846, V-B:MET:535:CE:9807, V-A:TYR:539:CE1:4873, V-A:PRO:540:N:4882, V-A:ILE:538:CA:4858, V-A:TYR:539:CZ:4875, V-A:TYR:539:C:4865, V-A:ILE:538:CB:4860, V-A:PRO:540:CA:4881, V-A:ILE:538:CG2:4861, V-B:TYR:531:CZ:9766, V-B:ASN:362:CB:8148, H-B:TYR:539:N:9842, H-B:MET:535:SD:9806, H-B:TYR:531:OH:9767, V-B:ILE:538:CG2:9835, V-B:ILE:538:CB:9834, V-A:PRO:540:CD:4885, V-A:TYR:539:CE2:4874, V-B:ASP:366:CB:8184, V-B:MET:535:CG:9805, V-B:ASN:362:C:8144"]

$$$$
