1a_Ghoteimi_2023
     RDKit          3D

 67 70  0  0  0  0  0  0  0  0999 V2000
  131.6500  126.4500   66.0040 C   0  0  0  0  0  0  0  0  0  0  0  0
  132.0610  125.0650   65.4960 C   0  0  0  0  0  0  0  0  0  0  0  0
  133.0580  125.2080   64.4910 O   0  0  0  0  0  0  0  0  0  0  0  0
  132.9370  124.5870   63.2900 C   0  0  0  0  0  0  0  0  0  0  0  0
  133.8230  123.8840   62.7950 O   0  0  0  0  0  0  0  0  0  0  0  0
  131.6140  124.8370   62.6250 C   0  0  0  0  0  0  0  0  0  0  0  0
  131.0340  126.1130   62.5820 C   0  0  0  0  0  0  0  0  0  0  0  0
  129.8040  126.3130   61.9610 C   0  0  0  0  0  0  0  0  0  0  0  0
  129.1310  125.2360   61.3650 C   0  0  0  0  0  0  0  0  0  0  0  0
  127.8850  125.3220   60.7160 N   0  0  0  0  0  0  0  0  0  0  0  0
  127.0470  124.3410   60.3160 C   0  0  0  0  0  0  0  0  0  0  0  0
  127.2330  123.1340   60.4710 O   0  0  0  0  0  0  0  0  0  0  0  0
  125.7690  124.8100   59.6210 C   0  0  0  0  0  0  0  0  0  0  0  0
  126.1310  125.7280   58.0950 S   0  0  0  0  0  0  0  0  0  0  0  0
  126.7560  127.3130   58.6070 C   0  0  0  0  0  0  0  0  0  0  0  0
  126.2270  127.7630   59.7690 N   0  0  0  0  0  0  0  0  0  0  0  0
  126.6250  128.9600   60.2740 C   0  0  0  0  0  0  0  0  0  0  0  0
  126.0080  129.3800   61.5760 C   0  0  0  0  0  0  0  0  0  0  0  0
  124.8560  130.1830   61.6130 C   0  0  0  0  0  0  0  0  0  0  0  0
  124.2860  130.5700   62.8220 C   0  0  0  0  0  0  0  0  0  0  0  0
  124.8480  130.1690   64.0320 C   0  0  0  0  0  0  0  0  0  0  0  0
  124.2140  130.5980   65.1820 O   0  0  0  0  0  0  0  0  0  0  0  0
  124.2590  129.7780   66.3450 C   0  0  0  0  0  0  0  0  0  0  0  0
  126.0000  129.3710   64.0120 C   0  0  0  0  0  0  0  0  0  0  0  0
  126.5680  128.9870   62.8010 C   0  0  0  0  0  0  0  0  0  0  0  0
  127.5780  129.7350   59.6000 C   0  0  0  0  0  0  0  0  0  0  0  0
  128.1210  129.3020   58.3840 C   0  0  0  0  0  0  0  0  0  0  0  0
  129.1080  130.1950   57.7060 C   0  0  0  0  0  0  0  0  0  0  0  0
  128.6830  131.1970   56.8270 C   0  0  0  0  0  0  0  0  0  0  0  0
  129.6090  132.0350   56.2100 C   0  0  0  0  0  0  0  0  0  0  0  0
  130.9730  131.8950   56.4650 C   0  0  0  0  0  0  0  0  0  0  0  0
  131.8150  132.7710   55.8100 O   0  0  0  0  0  0  0  0  0  0  0  0
  133.2130  132.5020   55.7840 C   0  0  0  0  0  0  0  0  0  0  0  0
  131.4020  130.8960   57.3530 C   0  0  0  0  0  0  0  0  0  0  0  0
  130.4750  130.0580   57.9680 C   0  0  0  0  0  0  0  0  0  0  0  0
  127.7050  128.0510   57.8670 C   0  0  0  0  0  0  0  0  0  0  0  0
  128.2490  127.5380   56.6060 C   0  0  0  0  0  0  0  0  0  0  0  0
  128.6800  127.1330   55.6110 N   0  0  0  0  0  0  0  0  0  0  0  0
  129.7040  123.9640   61.4100 C   0  0  0  0  0  0  0  0  0  0  0  0
  130.9340  123.7650   62.0320 C   0  0  0  0  0  0  0  0  0  0  0  0
  131.6495  126.4518   67.1040 H   0  0  0  0  0  0  0  0  0  0  0  0
  132.3637  127.2020   65.6364 H   0  0  0  0  0  0  0  0  0  0  0  0
  130.6416  126.6910   65.6364 H   0  0  0  0  0  0  0  0  0  0  0  0
  132.4634  124.4723   66.3307 H   0  0  0  0  0  0  0  0  0  0  0  0
  131.1838  124.5528   65.0738 H   0  0  0  0  0  0  0  0  0  0  0  0
  131.5559  126.9643   63.0434 H   0  0  0  0  0  0  0  0  0  0  0  0
  129.3586  127.3185   61.9376 H   0  0  0  0  0  0  0  0  0  0  0  0
  127.5670  126.2680   60.5610 H   0  0  0  0  0  0  0  0  0  0  0  0
  125.1561  123.9314   59.3714 H   0  0  0  0  0  0  0  0  0  0  0  0
  125.2332  125.4829   60.3067 H   0  0  0  0  0  0  0  0  0  0  0  0
  124.3962  130.5118   60.6693 H   0  0  0  0  0  0  0  0  0  0  0  0
  123.3832  131.1984   62.8223 H   0  0  0  0  0  0  0  0  0  0  0  0
  124.2242  130.4127   67.2427 H   0  0  0  0  0  0  0  0  0  0  0  0
  123.3970  129.0947   66.3454 H   0  0  0  0  0  0  0  0  0  0  0  0
  125.1906  129.1931   66.3454 H   0  0  0  0  0  0  0  0  0  0  0  0
  126.4575  129.0466   64.9583 H   0  0  0  0  0  0  0  0  0  0  0  0
  127.4739  128.3630   62.8042 H   0  0  0  0  0  0  0  0  0  0  0  0
  127.9031  130.6936   60.0305 H   0  0  0  0  0  0  0  0  0  0  0  0
  127.6098  131.3240   56.6216 H   0  0  0  0  0  0  0  0  0  0  0  0
  129.2614  132.8140   55.5155 H   0  0  0  0  0  0  0  0  0  0  0  0
  133.5916  132.4292   56.8142 H   0  0  0  0  0  0  0  0  0  0  0  0
  133.3940  131.5526   55.2588 H   0  0  0  0  0  0  0  0  0  0  0  0
  133.7334  133.3165   55.2588 H   0  0  0  0  0  0  0  0  0  0  0  0
  132.4747  130.7745   57.5640 H   0  0  0  0  0  0  0  0  0  0  0  0
  130.8211  129.2815   58.6660 H   0  0  0  0  0  0  0  0  0  0  0  0
  129.1802  123.1126   60.9508 H   0  0  0  0  0  0  0  0  0  0  0  0
  131.3754  122.7578   62.0580 H   0  0  0  0  0  0  0  0  0  0  0  0
  1  2  1  0
  2  3  1  0
  3  4  1  0
  4  5  2  0
  4  6  1  0
  6  7  2  0
  7  8  1  0
  8  9  2  0
  9 10  1  0
 10 11  1  0
 11 12  2  0
 11 13  1  0
 13 14  1  0
 14 15  1  0
 15 16  2  0
 16 17  1  0
 17 18  1  0
 18 19  2  0
 19 20  1  0
 20 21  2  0
 21 22  1  0
 22 23  1  0
 21 24  1  0
 24 25  2  0
 17 26  2  0
 26 27  1  0
 27 28  1  0
 28 29  2  0
 29 30  1  0
 30 31  2  0
 31 32  1  0
 32 33  1  0
 31 34  1  0
 34 35  2  0
 27 36  2  0
 36 37  1  0
 37 38  3  0
  9 39  1  0
 39 40  2  0
 40  6  1  0
 36 15  1  0
 25 18  1  0
 35 28  1  0
  1 41  1  0
  1 42  1  0
  1 43  1  0
  2 44  1  0
  2 45  1  0
  7 46  1  0
  8 47  1  0
 10 48  1  0
 13 49  1  0
 13 50  1  0
 19 51  1  0
 20 52  1  0
 23 53  1  0
 23 54  1  0
 23 55  1  0
 24 56  1  0
 25 57  1  0
 26 58  1  0
 29 59  1  0
 30 60  1  0
 33 61  1  0
 33 62  1  0
 33 63  1  0
 34 64  1  0
 35 65  1  0
 39 66  1  0
 40 67  1  0
M  END
>  <Binding energies>  (1) 
[-7.89]

>  <Ligand effiencies>  (1) 
[-0.1924390243902439]

>  <Interactions>  (1) 
["V-B:ASP:366:CG:8185, H-B:ALA:541:N:9863, V-A:PRO:540:N:4882, H-A:TYR:539:N:4868, V-A:TYR:531:CE2:4791, V-A:TYR:539:C:4865, V-A:LEU:363:CD1:3187, V-A:ILE:538:CB:4860, V-A:ILE:538:CG2:4861, V-A:GLU:543:CD:4906, V-A:PRO:540:CB:4883, V-B:ARG:545:CZ:9898, V-B:GLU:543:CD:9880, H-B:TYR:531:OH:9767, V-A:ARG:545:CZ:4924, V-A:PRO:540:CD:4885, V-A:ARG:545:CD:4921, H-A:TYR:484:OH:4346, H-A:ARG:545:NE:4922, H-A:GLY:454:N:4048, H-B:GLY:454:N:9022, H-B:TYR:484:OH:9320, H-A:ARG:545:NH2:4926, V-B:HIS:456:CE1:9042, V-A:HIS:456:CE1:4068, V-A:PRO:540:CG:4884, V-A:ARG:545:CG:4920, V-A:TYR:484:CZ:4345, V-B:ARG:545:CG:9894, V-B:ARG:545:CD:9895, V-B:TYR:484:CZ:9319, V-A:ILE:538:CD1:4863"]

$$$$
1a_Grossjean_2025
     RDKit          3D

 45 46  0  0  0  0  0  0  0  0999 V2000
  124.2330  123.1300   56.2680 C   0  0  0  0  0  0  0  0  0  0  0  0
  125.3600  123.8120   55.4870 C   0  0  0  0  0  0  0  0  0  0  0  0
  126.4970  122.9590   55.4530 O   0  0  0  0  0  0  0  0  0  0  0  0
  127.6430  123.2910   56.1020 C   0  0  0  0  0  0  0  0  0  0  0  0
  128.1930  122.5570   56.9280 O   0  0  0  0  0  0  0  0  0  0  0  0
  128.1650  124.6480   55.7260 C   0  0  0  0  0  0  0  0  0  0  0  0
  127.8060  125.7580   56.5010 C   0  0  0  0  0  0  0  0  0  0  0  0
  128.2700  127.0290   56.1750 C   0  0  0  0  0  0  0  0  0  0  0  0
  129.1000  127.2180   55.0700 C   0  0  0  0  0  0  0  0  0  0  0  0
  129.5080  128.5450   54.8320 N   0  0  0  0  0  0  0  0  0  0  0  0
  128.7720  129.6690   54.7030 C   0  0  0  0  0  0  0  0  0  0  0  0
  127.5450  129.7330   54.7760 O   0  0  0  0  0  0  0  0  0  0  0  0
  129.5700  130.9490   54.4440 C   0  0  0  0  0  0  0  0  0  0  0  0
  129.3530  132.1720   55.7720 S   0  0  0  0  0  0  0  0  0  0  0  0
  130.4640  131.7330   57.0900 C   0  0  0  0  0  0  0  0  0  0  0  0
  131.7240  131.4510   56.6720 N   0  0  0  0  0  0  0  0  0  0  0  0
  132.6510  131.0990   57.5940 C   0  0  0  0  0  0  0  0  0  0  0  0
  134.0340  130.7860   57.0520 C   0  0  0  0  0  0  0  0  0  0  0  0
  132.3680  131.0250   58.9560 C   0  0  0  0  0  0  0  0  0  0  0  0
  131.0770  131.3340   59.3990 C   0  0  0  0  0  0  0  0  0  0  0  0
  130.7930  131.2610   60.8980 C   0  0  0  0  0  0  0  0  0  0  0  0
  130.0930  131.7070   58.4550 C   0  0  0  0  0  0  0  0  0  0  0  0
  128.7480  132.0830   58.9000 C   0  0  0  0  0  0  0  0  0  0  0  0
  127.6870  132.3780   59.2550 N   0  0  0  0  0  0  0  0  0  0  0  0
  129.4720  126.1110   54.2920 C   0  0  0  0  0  0  0  0  0  0  0  0
  129.0070  124.8400   54.6190 C   0  0  0  0  0  0  0  0  0  0  0  0
  124.4157  123.2405   57.3471 H   0  0  0  0  0  0  0  0  0  0  0  0
  123.2719  123.5982   56.0090 H   0  0  0  0  0  0  0  0  0  0  0  0
  124.2019  122.0614   56.0090 H   0  0  0  0  0  0  0  0  0  0  0  0
  125.0233  124.0152   54.4597 H   0  0  0  0  0  0  0  0  0  0  0  0
  125.6266  124.7587   55.9797 H   0  0  0  0  0  0  0  0  0  0  0  0
  127.1516  125.6241   57.3750 H   0  0  0  0  0  0  0  0  0  0  0  0
  127.9799  127.8911   56.7935 H   0  0  0  0  0  0  0  0  0  0  0  0
  130.5090  128.6630   54.7830 H   0  0  0  0  0  0  0  0  0  0  0  0
  130.6371  130.6925   54.3691 H   0  0  0  0  0  0  0  0  0  0  0  0
  129.1998  131.3952   53.5092 H   0  0  0  0  0  0  0  0  0  0  0  0
  134.7292  130.6287   57.8898 H   0  0  0  0  0  0  0  0  0  0  0  0
  133.9892  129.8753   56.4367 H   0  0  0  0  0  0  0  0  0  0  0  0
  134.3857  131.6273   56.4367 H   0  0  0  0  0  0  0  0  0  0  0  0
  133.1478  130.7281   59.6727 H   0  0  0  0  0  0  0  0  0  0  0  0
  131.7106  131.4969   61.4569 H   0  0  0  0  0  0  0  0  0  0  0  0
  130.0084  131.9867   61.1583 H   0  0  0  0  0  0  0  0  0  0  0  0
  130.4555  130.2469   61.1583 H   0  0  0  0  0  0  0  0  0  0  0  0
  130.1319  126.2476   53.4226 H   0  0  0  0  0  0  0  0  0  0  0  0
  129.3024  123.9774   54.0037 H   0  0  0  0  0  0  0  0  0  0  0  0
  1  2  1  0
  2  3  1  0
  3  4  1  0
  4  5  2  0
  4  6  1  0
  6  7  2  0
  7  8  1  0
  8  9  2  0
  9 10  1  0
 10 11  1  0
 11 12  2  0
 11 13  1  0
 13 14  1  0
 14 15  1  0
 15 16  2  0
 16 17  1  0
 17 18  1  0
 17 19  2  0
 19 20  1  0
 20 21  1  0
 20 22  2  0
 22 23  1  0
 23 24  3  0
  9 25  1  0
 25 26  2  0
 26  6  1  0
 22 15  1  0
  1 27  1  0
  1 28  1  0
  1 29  1  0
  2 30  1  0
  2 31  1  0
  7 32  1  0
  8 33  1  0
 10 34  1  0
 13 35  1  0
 13 36  1  0
 18 37  1  0
 18 38  1  0
 18 39  1  0
 19 40  1  0
 21 41  1  0
 21 42  1  0
 21 43  1  0
 25 44  1  0
 26 45  1  0
M  END
>  <Binding energies>  (1) 
[-8.4]

>  <Ligand effiencies>  (1) 
[-0.3111111111111111]

>  <Interactions>  (1) 
["V-B:PRO:540:N:9856, V-B:PRO:540:CB:9857, V-B:TYR:539:CE1:9847, V-B:TYR:539:CD1:9845, V-A:ASP:366:CG:3211, V-A:PRO:540:N:4882, H-A:TYR:539:N:4868, H-A:MET:535:SD:4832, V-A:TYR:531:CE2:4791, V-A:LEU:363:CA:3183, H-A:TYR:531:OH:4793, V-A:ASP:366:CB:3210, V-A:TYR:539:C:4865, V-A:LEU:363:CD1:3187, V-A:PRO:540:CA:4881, V-A:TYR:531:CZ:4792, V-A:PRO:540:CB:4883, V-B:TYR:531:CE2:9765, V-B:LEU:363:CD1:8161, V-A:MET:535:CE:4833, V-B:TYR:531:CZ:9766, H-B:TYR:539:N:9842, V-B:ILE:538:CG2:9835, V-B:PRO:540:CD:9859, V-B:ILE:538:CB:9834, V-B:PRO:540:CG:9858, V-A:LEU:363:CB:3185, V-A:MET:535:CG:4831, V-A:TYR:539:CE2:4874, V-A:TYR:539:CD2:4872"]

$$$$
1aa_Ghoteimi_2023
     RDKit          3D

 67 70  0  0  0  0  0  0  0  0999 V2000
  129.0110  128.8800   72.3110 C   0  0  0  0  0  0  0  0  0  0  0  0
  128.1800  127.5950   72.3790 C   0  0  0  0  0  0  0  0  0  0  0  0
  128.8600  126.5550   71.6890 O   0  0  0  0  0  0  0  0  0  0  0  0
  129.7870  126.8340   70.7370 C   0  0  0  0  0  0  0  0  0  0  0  0
  131.0050  126.7690   70.9330 O   0  0  0  0  0  0  0  0  0  0  0  0
  129.1850  127.2310   69.4200 C   0  0  0  0  0  0  0  0  0  0  0  0
  127.7970  127.2520   69.2140 C   0  0  0  0  0  0  0  0  0  0  0  0
  127.2660  127.6250   67.9820 C   0  0  0  0  0  0  0  0  0  0  0  0
  128.1200  127.9880   66.9290 C   0  0  0  0  0  0  0  0  0  0  0  0
  127.6990  128.3810   65.6450 N   0  0  0  0  0  0  0  0  0  0  0  0
  126.7980  129.3160   65.2650 C   0  0  0  0  0  0  0  0  0  0  0  0
  126.1580  130.0310   66.0360 O   0  0  0  0  0  0  0  0  0  0  0  0
  126.5630  129.4950   63.7570 C   0  0  0  0  0  0  0  0  0  0  0  0
  126.8430  128.2760   63.0570 O   0  0  0  0  0  0  0  0  0  0  0  0
  127.9430  128.1870   62.2150 C   0  0  0  0  0  0  0  0  0  0  0  0
  128.8510  127.2000   62.4500 N   0  0  0  0  0  0  0  0  0  0  0  0
  129.9490  127.0880   61.6570 C   0  0  0  0  0  0  0  0  0  0  0  0
  130.9000  125.9720   61.9810 C   0  0  0  0  0  0  0  0  0  0  0  0
  131.3930  125.7990   63.2830 C   0  0  0  0  0  0  0  0  0  0  0  0
  132.2770  124.7660   63.5850 C   0  0  0  0  0  0  0  0  0  0  0  0
  132.6940  123.8760   62.5980 C   0  0  0  0  0  0  0  0  0  0  0  0
  133.5720  122.8830   62.9900 O   0  0  0  0  0  0  0  0  0  0  0  0
  134.0520  121.9590   62.0190 C   0  0  0  0  0  0  0  0  0  0  0  0
  132.2060  124.0330   61.2940 C   0  0  0  0  0  0  0  0  0  0  0  0
  131.3220  125.0660   60.9940 C   0  0  0  0  0  0  0  0  0  0  0  0
  130.1470  127.9680   60.5860 C   0  0  0  0  0  0  0  0  0  0  0  0
  129.2220  128.9850   60.3150 C   0  0  0  0  0  0  0  0  0  0  0  0
  129.4850  129.8840   59.1520 C   0  0  0  0  0  0  0  0  0  0  0  0
  129.7040  131.2500   59.3540 C   0  0  0  0  0  0  0  0  0  0  0  0
  129.9590  132.0930   58.2760 C   0  0  0  0  0  0  0  0  0  0  0  0
  130.0080  131.5880   56.9770 C   0  0  0  0  0  0  0  0  0  0  0  0
  130.2670  132.4970   55.9700 O   0  0  0  0  0  0  0  0  0  0  0  0
  130.0870  132.1030   54.6140 C   0  0  0  0  0  0  0  0  0  0  0  0
  129.7970  130.2160   56.7700 C   0  0  0  0  0  0  0  0  0  0  0  0
  129.5410  129.3750   57.8500 C   0  0  0  0  0  0  0  0  0  0  0  0
  128.0940  129.1020   61.1600 C   0  0  0  0  0  0  0  0  0  0  0  0
  127.0980  130.1600   60.9830 C   0  0  0  0  0  0  0  0  0  0  0  0
  126.3100  130.9960   60.8440 N   0  0  0  0  0  0  0  0  0  0  0  0
  129.5010  127.9670   67.1300 C   0  0  0  0  0  0  0  0  0  0  0  0
  130.0290  127.5930   68.3620 C   0  0  0  0  0  0  0  0  0  0  0  0
  129.2349  129.2262   73.3308 H   0  0  0  0  0  0  0  0  0  0  0  0
  129.9516  128.6805   71.7767 H   0  0  0  0  0  0  0  0  0  0  0  0
  128.4432  129.6560   71.7767 H   0  0  0  0  0  0  0  0  0  0  0  0
  128.0375  127.3055   73.4306 H   0  0  0  0  0  0  0  0  0  0  0  0
  127.1997  127.7666   71.9104 H   0  0  0  0  0  0  0  0  0  0  0  0
  127.1210  126.9707   70.0349 H   0  0  0  0  0  0  0  0  0  0  0  0
  126.1761  127.6352   67.8339 H   0  0  0  0  0  0  0  0  0  0  0  0
  128.1540  127.8810   64.8940 H   0  0  0  0  0  0  0  0  0  0  0  0
  125.5141  129.7783   63.5852 H   0  0  0  0  0  0  0  0  0  0  0  0
  127.2345  130.2820   63.3833 H   0  0  0  0  0  0  0  0  0  0  0  0
  131.0763  126.4902   64.0780 H   0  0  0  0  0  0  0  0  0  0  0  0
  132.6497  124.6518   64.6136 H   0  0  0  0  0  0  0  0  0  0  0  0
  134.5017  121.0934   62.5274 H   0  0  0  0  0  0  0  0  0  0  0  0
  133.2156  121.6208   61.3897 H   0  0  0  0  0  0  0  0  0  0  0  0
  134.8096  122.4489   61.3897 H   0  0  0  0  0  0  0  0  0  0  0  0
  132.5228  123.3368   60.5035 H   0  0  0  0  0  0  0  0  0  0  0  0
  130.9473  125.1746   59.9655 H   0  0  0  0  0  0  0  0  0  0  0  0
  131.0383  127.8598   59.9505 H   0  0  0  0  0  0  0  0  0  0  0  0
  129.6745  131.6621   60.3735 H   0  0  0  0  0  0  0  0  0  0  0  0
  130.1233  133.1666   58.4503 H   0  0  0  0  0  0  0  0  0  0  0  0
  129.6301  131.1029   54.5803 H   0  0  0  0  0  0  0  0  0  0  0  0
  129.4290  132.8240   54.1069 H   0  0  0  0  0  0  0  0  0  0  0  0
  131.0628  132.0776   54.1069 H   0  0  0  0  0  0  0  0  0  0  0  0
  129.8340  129.8035   55.7509 H   0  0  0  0  0  0  0  0  0  0  0  0
  129.3813  128.3004   57.6778 H   0  0  0  0  0  0  0  0  0  0  0  0
  130.1768  128.2481   66.3088 H   0  0  0  0  0  0  0  0  0  0  0  0
  131.1194  127.5815   68.5065 H   0  0  0  0  0  0  0  0  0  0  0  0
  1  2  1  0
  2  3  1  0
  3  4  1  0
  4  5  2  0
  4  6  1  0
  6  7  2  0
  7  8  1  0
  8  9  2  0
  9 10  1  0
 10 11  1  0
 11 12  2  0
 11 13  1  0
 13 14  1  0
 14 15  1  0
 15 16  2  0
 16 17  1  0
 17 18  1  0
 18 19  2  0
 19 20  1  0
 20 21  2  0
 21 22  1  0
 22 23  1  0
 21 24  1  0
 24 25  2  0
 17 26  2  0
 26 27  1  0
 27 28  1  0
 28 29  2  0
 29 30  1  0
 30 31  2  0
 31 32  1  0
 32 33  1  0
 31 34  1  0
 34 35  2  0
 27 36  2  0
 36 37  1  0
 37 38  3  0
  9 39  1  0
 39 40  2  0
 40  6  1  0
 36 15  1  0
 25 18  1  0
 35 28  1  0
  1 41  1  0
  1 42  1  0
  1 43  1  0
  2 44  1  0
  2 45  1  0
  7 46  1  0
  8 47  1  0
 10 48  1  0
 13 49  1  0
 13 50  1  0
 19 51  1  0
 20 52  1  0
 23 53  1  0
 23 54  1  0
 23 55  1  0
 24 56  1  0
 25 57  1  0
 26 58  1  0
 29 59  1  0
 30 60  1  0
 33 61  1  0
 33 62  1  0
 33 63  1  0
 34 64  1  0
 35 65  1  0
 39 66  1  0
 40 67  1  0
M  END
>  <Binding energies>  (1) 
[-7.84]

>  <Ligand effiencies>  (1) 
[-0.19121951219512195]

>  <Interactions>  (1) 
["H-B:GLU:543:OE1:9881, H-B:ARG:545:NH2:9900, V-A:LEU:475:CD2:4257, V-A:PRO:540:N:4882, H-A:TYR:539:N:4868, V-A:ILE:538:CA:4858, V-A:TYR:539:C:4865, V-A:ILE:538:CB:4860, V-A:PRO:540:CA:4881, V-A:ILE:538:CG2:4861, V-A:GLU:543:CD:4906, V-B:GLU:543:CD:9880, H-B:GLU:543:OE2:9882, V-A:ARG:545:CZ:4924, H-A:GLU:543:OE2:4908, H-A:GLU:543:OE1:4907, V-A:GLY:454:CA:4047, H-A:TYR:484:OH:4346, H-A:GLY:454:N:4048, V-A:ILE:538:C:4856, H-B:TYR:484:OH:9320, V-A:ILE:369:CD1:3237, V-B:HIS:456:CE1:9042, V-A:HIS:456:CD2:4066, V-B:GLY:544:C:9884, V-B:HIS:456:CD2:9040, V-A:LYS:547:CE:4948, V-A:HIS:456:CE1:4068, V-B:LYS:547:CE:9922, V-B:GLU:543:CG:9879, V-B:GLU:543:C:9874, V-A:GLU:543:CG:4905, V-B:ARG:545:CG:9894, V-A:GLY:544:CA:4912, V-A:GLU:543:C:4900, V-A:GLU:543:CB:4904, H-A:HIS:456:ND1:4065"]

$$$$
1b_Ghoteimi_2023
     RDKit          3D

 54 57  0  0  0  0  0  0  0  0999 V2000
  129.1420  132.4650   54.3280 C   0  0  0  0  0  0  0  0  0  0  0  0
  129.9890  132.3100   55.4600 O   0  0  0  0  0  0  0  0  0  0  0  0
  130.0990  131.0670   56.0540 C   0  0  0  0  0  0  0  0  0  0  0  0
  129.2750  130.0600   55.5530 C   0  0  0  0  0  0  0  0  0  0  0  0
  129.3160  128.7770   56.0890 C   0  0  0  0  0  0  0  0  0  0  0  0
  130.1870  128.4590   57.1420 C   0  0  0  0  0  0  0  0  0  0  0  0
  130.2260  127.0720   57.7200 C   0  0  0  0  0  0  0  0  0  0  0  0
  130.8370  126.7740   58.9430 C   0  0  0  0  0  0  0  0  0  0  0  0
  130.8430  125.4640   59.4400 C   0  0  0  0  0  0  0  0  0  0  0  0
  131.5170  125.2190   60.7490 C   0  0  0  0  0  0  0  0  0  0  0  0
  130.9610  125.7110   61.9330 C   0  0  0  0  0  0  0  0  0  0  0  0
  131.5900  125.4930   63.1550 C   0  0  0  0  0  0  0  0  0  0  0  0
  132.7890  124.7820   63.2180 C   0  0  0  0  0  0  0  0  0  0  0  0
  133.3420  124.6150   64.4730 O   0  0  0  0  0  0  0  0  0  0  0  0
  132.8200  125.3620   65.5670 C   0  0  0  0  0  0  0  0  0  0  0  0
  133.3560  124.2930   62.0320 C   0  0  0  0  0  0  0  0  0  0  0  0
  132.7240  124.5140   60.8110 C   0  0  0  0  0  0  0  0  0  0  0  0
  130.2050  124.4520   58.6800 C   0  0  0  0  0  0  0  0  0  0  0  0
  130.1000  123.0860   59.2010 C   0  0  0  0  0  0  0  0  0  0  0  0
  130.0180  122.0070   59.6130 N   0  0  0  0  0  0  0  0  0  0  0  0
  129.6260  124.8170   57.4440 C   0  0  0  0  0  0  0  0  0  0  0  0
  128.7930  123.6790   56.3560 S   0  0  0  0  0  0  0  0  0  0  0  0
  127.0280  124.1370   56.3100 C   0  0  0  0  0  0  0  0  0  0  0  0
  126.4030  124.4550   57.6760 C   0  0  0  0  0  0  0  0  0  0  0  0
  125.6740  125.4380   57.8220 O   0  0  0  0  0  0  0  0  0  0  0  0
  126.7250  123.5840   58.6590 N   0  0  0  0  0  0  0  0  0  0  0  0
  126.3080  123.6200   59.9850 C   0  0  0  0  0  0  0  0  0  0  0  0
  125.0100  123.9580   60.3650 C   0  0  0  0  0  0  0  0  0  0  0  0
  125.0080  123.8760   61.7390 C   0  0  0  0  0  0  0  0  0  0  0  0
  126.2390  123.5030   62.1630 O   0  0  0  0  0  0  0  0  0  0  0  0
  127.0540  123.3440   61.0420 N   0  0  0  0  0  0  0  0  0  0  0  0
  129.6230  126.0950   56.9940 N   0  0  0  0  0  0  0  0  0  0  0  0
  131.0110  129.4800   57.6400 C   0  0  0  0  0  0  0  0  0  0  0  0
  130.9720  130.7650   57.1080 C   0  0  0  0  0  0  0  0  0  0  0  0
  128.1117  132.6535   54.6640 H   0  0  0  0  0  0  0  0  0  0  0  0
  129.4913  133.3141   53.7222 H   0  0  0  0  0  0  0  0  0  0  0  0
  129.1679  131.5472   53.7222 H   0  0  0  0  0  0  0  0  0  0  0  0
  128.5854  130.2824   54.7254 H   0  0  0  0  0  0  0  0  0  0  0  0
  128.6545  127.9988   55.6805 H   0  0  0  0  0  0  0  0  0  0  0  0
  131.3180  127.5771   59.5207 H   0  0  0  0  0  0  0  0  0  0  0  0
  130.0176  126.2757   61.8987 H   0  0  0  0  0  0  0  0  0  0  0  0
  131.1385  125.8843   64.0786 H   0  0  0  0  0  0  0  0  0  0  0  0
  133.1420  124.9012   66.5125 H   0  0  0  0  0  0  0  0  0  0  0  0
  133.1936  126.3954   65.5168 H   0  0  0  0  0  0  0  0  0  0  0  0
  131.7212  125.3665   65.5168 H   0  0  0  0  0  0  0  0  0  0  0  0
  134.3024  123.7334   62.0665 H   0  0  0  0  0  0  0  0  0  0  0  0
  133.1784  124.1303   59.8856 H   0  0  0  0  0  0  0  0  0  0  0  0
  126.9231  125.0266   55.6716 H   0  0  0  0  0  0  0  0  0  0  0  0
  126.4925  123.2567   55.9250 H   0  0  0  0  0  0  0  0  0  0  0  0
  127.3240  122.8100   58.4130 H   0  0  0  0  0  0  0  0  0  0  0  0
  124.1700  124.2309   59.7093 H   0  0  0  0  0  0  0  0  0  0  0  0
  124.1445  124.0807   62.3889 H   0  0  0  0  0  0  0  0  0  0  0  0
  131.7015  129.2600   58.4675 H   0  0  0  0  0  0  0  0  0  0  0  0
  131.6290  131.5471   57.5163 H   0  0  0  0  0  0  0  0  0  0  0  0
  1  2  1  0
  2  3  1  0
  3  4  2  0
  4  5  1  0
  5  6  2  0
  6  7  1  0
  7  8  2  0
  8  9  1  0
  9 10  1  0
 10 11  2  0
 11 12  1  0
 12 13  2  0
 13 14  1  0
 14 15  1  0
 13 16  1  0
 16 17  2  0
  9 18  2  0
 18 19  1  0
 19 20  3  0
 18 21  1  0
 21 22  1  0
 22 23  1  0
 23 24  1  0
 24 25  2  0
 24 26  1  0
 26 27  1  0
 27 28  1  0
 28 29  2  0
 29 30  1  0
 30 31  1  0
 21 32  2  0
  6 33  1  0
 33 34  2  0
 34  3  1  0
 32  7  1  0
 17 10  1  0
 31 27  2  0
  1 35  1  0
  1 36  1  0
  1 37  1  0
  4 38  1  0
  5 39  1  0
  8 40  1  0
 11 41  1  0
 12 42  1  0
 15 43  1  0
 15 44  1  0
 15 45  1  0
 16 46  1  0
 17 47  1  0
 23 48  1  0
 23 49  1  0
 26 50  1  0
 28 51  1  0
 29 52  1  0
 33 53  1  0
 34 54  1  0
M  END
>  <Binding energies>  (1) 
[-8.35]

>  <Ligand effiencies>  (1) 
[-0.23857142857142857]

>  <Interactions>  (1) 
["V-B:PRO:540:N:9856, V-B:PRO:540:CB:9857, V-B:PRO:540:CA:9855, V-B:PRO:540:C:9853, H-B:ALA:541:N:9863, V-B:TYR:539:CE2:9848, V-B:TYR:539:CD2:9846, V-A:TYR:539:CE1:4873, V-A:ASP:366:CG:3211, H-A:TYR:539:N:4868, V-A:ILE:538:CA:4858, V-A:ILE:538:CB:4860, V-B:ARG:545:CZ:9898, V-B:ASN:362:CB:8148, H-B:TYR:531:OH:9767, V-B:TYR:539:C:9839, V-A:ARG:545:CZ:4924, V-A:ARG:545:CD:4921, H-A:TYR:484:OH:4346, H-A:ARG:545:NE:4922, H-A:GLY:454:N:4048, V-A:ILE:538:C:4856, V-A:TYR:539:CD1:4871, V-A:HIS:456:CE1:4068, H-B:TYR:539:O:9840, V-A:ARG:545:CG:4920, V-A:VAL:537:C:4848"]

$$$$
1b_Grossjean_2025
     RDKit          3D

 42 43  0  0  0  0  0  0  0  0999 V2000
  128.8220  132.3380   57.9160 C   0  0  0  0  0  0  0  0  0  0  0  0
  129.1380  132.8550   56.6300 O   0  0  0  0  0  0  0  0  0  0  0  0
  129.8020  132.1000   55.7190 C   0  0  0  0  0  0  0  0  0  0  0  0
  130.8020  132.4920   55.1090 O   0  0  0  0  0  0  0  0  0  0  0  0
  129.2040  130.7340   55.5300 C   0  0  0  0  0  0  0  0  0  0  0  0
  127.9390  130.5510   54.9510 C   0  0  0  0  0  0  0  0  0  0  0  0
  127.4140  129.2730   54.7920 C   0  0  0  0  0  0  0  0  0  0  0  0
  128.1370  128.1530   55.2050 C   0  0  0  0  0  0  0  0  0  0  0  0
  127.5070  126.9110   54.9970 N   0  0  0  0  0  0  0  0  0  0  0  0
  128.0330  125.7160   54.6520 C   0  0  0  0  0  0  0  0  0  0  0  0
  129.2270  125.4890   54.4550 O   0  0  0  0  0  0  0  0  0  0  0  0
  127.0270  124.5710   54.5180 C   0  0  0  0  0  0  0  0  0  0  0  0
  127.6250  123.0380   55.2910 S   0  0  0  0  0  0  0  0  0  0  0  0
  127.5660  123.2750   57.0540 C   0  0  0  0  0  0  0  0  0  0  0  0
  128.7560  123.0720   57.6730 N   0  0  0  0  0  0  0  0  0  0  0  0
  128.8250  123.2270   59.0160 C   0  0  0  0  0  0  0  0  0  0  0  0
  130.1910  123.0000   59.6370 C   0  0  0  0  0  0  0  0  0  0  0  0
  127.7200  123.5750   59.7900 C   0  0  0  0  0  0  0  0  0  0  0  0
  126.4840  123.7640   59.1640 C   0  0  0  0  0  0  0  0  0  0  0  0
  125.2840  124.1290   60.0360 C   0  0  0  0  0  0  0  0  0  0  0  0
  126.3880  123.6080   57.7630 C   0  0  0  0  0  0  0  0  0  0  0  0
  125.0950  123.7570   57.0910 C   0  0  0  0  0  0  0  0  0  0  0  0
  124.0720  123.8760   56.5630 N   0  0  0  0  0  0  0  0  0  0  0  0
  129.4020  128.3280   55.7850 C   0  0  0  0  0  0  0  0  0  0  0  0
  129.9270  129.6070   55.9430 C   0  0  0  0  0  0  0  0  0  0  0  0
  129.2298  133.0051   58.6897 H   0  0  0  0  0  0  0  0  0  0  0  0
  127.7295  132.2728   58.0267 H   0  0  0  0  0  0  0  0  0  0  0  0
  129.2622  131.3360   58.0267 H   0  0  0  0  0  0  0  0  0  0  0  0
  127.3583  131.4248   54.6204 H   0  0  0  0  0  0  0  0  0  0  0  0
  126.4209  129.1439   54.3370 H   0  0  0  0  0  0  0  0  0  0  0  0
  126.5050  126.9360   55.1150 H   0  0  0  0  0  0  0  0  0  0  0  0
  126.0853  124.8682   55.0026 H   0  0  0  0  0  0  0  0  0  0  0  0
  126.8804  124.3738   53.4458 H   0  0  0  0  0  0  0  0  0  0  0  0
  130.1024  123.0147   60.7333 H   0  0  0  0  0  0  0  0  0  0  0  0
  130.5831  122.0244   59.3139 H   0  0  0  0  0  0  0  0  0  0  0  0
  130.8776  123.7964   59.3139 H   0  0  0  0  0  0  0  0  0  0  0  0
  127.8185  123.6994   60.8785 H   0  0  0  0  0  0  0  0  0  0  0  0
  125.5623  124.0443   61.0968 H   0  0  0  0  0  0  0  0  0  0  0  0
  124.9741  125.1620   59.8195 H   0  0  0  0  0  0  0  0  0  0  0  0
  124.4514  123.4435   59.8195 H   0  0  0  0  0  0  0  0  0  0  0  0
  129.9802  127.4526   56.1156 H   0  0  0  0  0  0  0  0  0  0  0  0
  130.9207  129.7347   56.3972 H   0  0  0  0  0  0  0  0  0  0  0  0
  1  2  1  0
  2  3  1  0
  3  4  2  0
  3  5  1  0
  5  6  2  0
  6  7  1  0
  7  8  2  0
  8  9  1  0
  9 10  1  0
 10 11  2  0
 10 12  1  0
 12 13  1  0
 13 14  1  0
 14 15  2  0
 15 16  1  0
 16 17  1  0
 16 18  2  0
 18 19  1  0
 19 20  1  0
 19 21  2  0
 21 22  1  0
 22 23  3  0
  8 24  1  0
 24 25  2  0
 25  5  1  0
 21 14  1  0
  1 26  1  0
  1 27  1  0
  1 28  1  0
  6 29  1  0
  7 30  1  0
  9 31  1  0
 12 32  1  0
 12 33  1  0
 17 34  1  0
 17 35  1  0
 17 36  1  0
 18 37  1  0
 20 38  1  0
 20 39  1  0
 20 40  1  0
 24 41  1  0
 25 42  1  0
M  END
>  <Binding energies>  (1) 
[-7.9]

>  <Ligand effiencies>  (1) 
[-0.3038461538461539]

>  <Interactions>  (1) 
["V-B:PRO:540:N:9856, V-B:PRO:540:CB:9857, V-B:PRO:540:CA:9855, V-B:TYR:539:CE2:9848, V-B:TYR:539:CD2:9846, V-A:TYR:539:CE1:4873, V-A:PRO:540:N:4882, H-A:TYR:539:N:4868, V-A:ILE:538:CA:4858, V-A:TYR:539:CZ:4875, V-A:TYR:539:C:4865, H-B:TYR:539:N:9842, H-B:MET:535:SD:9806, H-B:TYR:531:OH:9767, V-B:TYR:539:C:9839, V-B:PRO:540:CD:9859, V-A:TYR:539:CE2:4874, V-A:TYR:539:CD1:4871, V-A:TYR:539:CD2:4872, V-A:TYR:539:CG:4870, V-B:MET:535:CG:9805"]

$$$$
1c_Ghoteimi_2023
     RDKit          3D

 54 57  0  0  0  0  0  0  0  0999 V2000
  129.1420  132.4300   54.4750 C   0  0  0  0  0  0  0  0  0  0  0  0
  130.2370  132.1450   55.3390 O   0  0  0  0  0  0  0  0  0  0  0  0
  130.3030  130.9130   55.9620 C   0  0  0  0  0  0  0  0  0  0  0  0
  129.7220  129.8410   55.2900 C   0  0  0  0  0  0  0  0  0  0  0  0
  129.7400  128.5640   55.8440 C   0  0  0  0  0  0  0  0  0  0  0  0
  130.3390  128.3220   57.0900 C   0  0  0  0  0  0  0  0  0  0  0  0
  130.3560  126.9470   57.6940 C   0  0  0  0  0  0  0  0  0  0  0  0
  131.0050  126.6590   58.9000 C   0  0  0  0  0  0  0  0  0  0  0  0
  130.9700  125.3670   59.4380 C   0  0  0  0  0  0  0  0  0  0  0  0
  131.6270  125.1470   60.7600 C   0  0  0  0  0  0  0  0  0  0  0  0
  131.0310  125.6100   61.9370 C   0  0  0  0  0  0  0  0  0  0  0  0
  131.6550  125.4230   63.1660 C   0  0  0  0  0  0  0  0  0  0  0  0
  132.8860  124.7740   63.2430 C   0  0  0  0  0  0  0  0  0  0  0  0
  133.4320  124.6320   64.5060 O   0  0  0  0  0  0  0  0  0  0  0  0
  132.8640  125.3560   65.5920 C   0  0  0  0  0  0  0  0  0  0  0  0
  133.4910  124.3120   62.0640 C   0  0  0  0  0  0  0  0  0  0  0  0
  132.8650  124.5010   60.8350 C   0  0  0  0  0  0  0  0  0  0  0  0
  130.2900  124.3560   58.7190 C   0  0  0  0  0  0  0  0  0  0  0  0
  130.2460  122.9750   59.2120 C   0  0  0  0  0  0  0  0  0  0  0  0
  130.2120  121.8860   59.6030 N   0  0  0  0  0  0  0  0  0  0  0  0
  129.6430  124.7190   57.5200 C   0  0  0  0  0  0  0  0  0  0  0  0
  128.6120  123.5950   56.6040 S   0  0  0  0  0  0  0  0  0  0  0  0
  127.0000  124.4360   56.4780 C   0  0  0  0  0  0  0  0  0  0  0  0
  126.0940  124.1320   57.6760 C   0  0  0  0  0  0  0  0  0  0  0  0
  124.9810  123.6410   57.4870 O   0  0  0  0  0  0  0  0  0  0  0  0
  126.6310  124.4000   58.8870 N   0  0  0  0  0  0  0  0  0  0  0  0
  126.0910  124.0790   60.1220 C   0  0  0  0  0  0  0  0  0  0  0  0
  126.7250  123.9240   61.2650 N   0  0  0  0  0  0  0  0  0  0  0  0
  125.8880  123.6600   62.2490 C   0  0  0  0  0  0  0  0  0  0  0  0
  124.5400  123.5980   61.9110 C   0  0  0  0  0  0  0  0  0  0  0  0
  124.3690  123.9010   60.2080 S   0  0  0  0  0  0  0  0  0  0  0  0
  129.6700  125.9820   57.0290 N   0  0  0  0  0  0  0  0  0  0  0  0
  130.9260  129.4080   57.7550 C   0  0  0  0  0  0  0  0  0  0  0  0
  130.9100  130.6860   57.2050 C   0  0  0  0  0  0  0  0  0  0  0  0
  128.2509  132.6619   55.0767 H   0  0  0  0  0  0  0  0  0  0  0  0
  129.3908  133.2933   53.8403 H   0  0  0  0  0  0  0  0  0  0  0  0
  128.9383  131.5549   53.8403 H   0  0  0  0  0  0  0  0  0  0  0  0
  129.2445  130.0045   54.3126 H   0  0  0  0  0  0  0  0  0  0  0  0
  129.2768  127.7303   55.2958 H   0  0  0  0  0  0  0  0  0  0  0  0
  131.5478  127.4554   59.4302 H   0  0  0  0  0  0  0  0  0  0  0  0
  130.0608  126.1263   61.8907 H   0  0  0  0  0  0  0  0  0  0  0  0
  131.1732  125.7902   64.0842 H   0  0  0  0  0  0  0  0  0  0  0  0
  133.2061  124.9200   66.5422 H   0  0  0  0  0  0  0  0  0  0  0  0
  133.1801  126.4081   65.5365 H   0  0  0  0  0  0  0  0  0  0  0  0
  131.7669  125.2994   65.5365 H   0  0  0  0  0  0  0  0  0  0  0  0
  134.4629  123.7989   62.1111 H   0  0  0  0  0  0  0  0  0  0  0  0
  133.3481  124.1392   59.9154 H   0  0  0  0  0  0  0  0  0  0  0  0
  127.1696  125.5217   56.4285 H   0  0  0  0  0  0  0  0  0  0  0  0
  126.4968  124.0680   55.5717 H   0  0  0  0  0  0  0  0  0  0  0  0
  127.5530  124.8110   58.9050 H   0  0  0  0  0  0  0  0  0  0  0  0
  126.2362  123.4978   63.2797 H   0  0  0  0  0  0  0  0  0  0  0  0
  123.7154  123.3907   62.6089 H   0  0  0  0  0  0  0  0  0  0  0  0
  131.4084  129.2465   58.7303 H   0  0  0  0  0  0  0  0  0  0  0  0
  131.3756  131.5217   57.7479 H   0  0  0  0  0  0  0  0  0  0  0  0
  1  2  1  0
  2  3  1  0
  3  4  2  0
  4  5  1  0
  5  6  2  0
  6  7  1  0
  7  8  2  0
  8  9  1  0
  9 10  1  0
 10 11  2  0
 11 12  1  0
 12 13  2  0
 13 14  1  0
 14 15  1  0
 13 16  1  0
 16 17  2  0
  9 18  2  0
 18 19  1  0
 19 20  3  0
 18 21  1  0
 21 22  1  0
 22 23  1  0
 23 24  1  0
 24 25  2  0
 24 26  1  0
 26 27  1  0
 27 28  2  0
 28 29  1  0
 29 30  2  0
 30 31  1  0
 21 32  2  0
  6 33  1  0
 33 34  2  0
 34  3  1  0
 32  7  1  0
 17 10  1  0
 31 27  1  0
  1 35  1  0
  1 36  1  0
  1 37  1  0
  4 38  1  0
  5 39  1  0
  8 40  1  0
 11 41  1  0
 12 42  1  0
 15 43  1  0
 15 44  1  0
 15 45  1  0
 16 46  1  0
 17 47  1  0
 23 48  1  0
 23 49  1  0
 26 50  1  0
 29 51  1  0
 30 52  1  0
 33 53  1  0
 34 54  1  0
M  END
>  <Binding energies>  (1) 
[-8.0]

>  <Ligand effiencies>  (1) 
[-0.22857142857142856]

>  <Interactions>  (1) 
["V-B:ALA:541:CB:9864, V-B:PRO:540:CB:9857, V-B:PRO:540:CA:9855, V-B:PRO:540:C:9853, V-B:ALA:541:CA:9862, H-B:ALA:541:N:9863, V-B:TYR:539:CE2:9848, V-B:TYR:539:CD2:9846, V-A:TYR:539:CE1:4873, V-A:ASP:366:CG:3211, H-A:TYR:539:N:4868, V-A:ILE:538:CA:4858, V-B:ALA:541:C:9860, V-B:ARG:545:CZ:9898, V-B:ASN:362:CB:8148, V-B:GLU:543:CD:9880, V-A:ARG:545:CZ:4924, V-A:ARG:545:CD:4921, H-A:TYR:484:OH:4346, H-A:ARG:545:NE:4922, H-A:GLY:454:N:4048, V-A:ILE:538:C:4856, V-A:TYR:539:CD1:4871, V-A:HIS:456:CE1:4068, V-A:ARG:545:CG:4920, V-B:ASN:362:CG:8149"]

$$$$
1c_Grossjean_2025
     RDKit          3D

 40 41  0  0  0  0  0  0  0  0999 V2000
  134.4330  125.0000   66.3370 C   0  0  0  0  0  0  0  0  0  0  0  0
  134.3190  125.4070   64.9770 O   0  0  0  0  0  0  0  0  0  0  0  0
  133.2680  124.9300   64.2170 C   0  0  0  0  0  0  0  0  0  0  0  0
  133.5760  124.5100   62.9240 C   0  0  0  0  0  0  0  0  0  0  0  0
  132.5860  124.0120   62.0820 C   0  0  0  0  0  0  0  0  0  0  0  0
  131.2610  123.9220   62.5340 C   0  0  0  0  0  0  0  0  0  0  0  0
  130.1830  123.4450   61.7640 N   0  0  0  0  0  0  0  0  0  0  0  0
  130.0430  122.2660   61.1210 C   0  0  0  0  0  0  0  0  0  0  0  0
  130.8710  121.3550   61.1130 O   0  0  0  0  0  0  0  0  0  0  0  0
  128.7300  122.0870   60.3580 C   0  0  0  0  0  0  0  0  0  0  0  0
  128.5010  123.3720   59.0930 S   0  0  0  0  0  0  0  0  0  0  0  0
  126.7550  123.5680   58.8010 C   0  0  0  0  0  0  0  0  0  0  0  0
  126.0420  123.8110   59.9310 N   0  0  0  0  0  0  0  0  0  0  0  0
  124.7030  123.9780   59.8330 C   0  0  0  0  0  0  0  0  0  0  0  0
  123.9760  124.2560   61.1360 C   0  0  0  0  0  0  0  0  0  0  0  0
  124.0220  123.9000   58.6210 C   0  0  0  0  0  0  0  0  0  0  0  0
  124.7420  123.6260   57.4530 C   0  0  0  0  0  0  0  0  0  0  0  0
  123.9710  123.5280   56.1380 C   0  0  0  0  0  0  0  0  0  0  0  0
  126.1430  123.4460   57.5310 C   0  0  0  0  0  0  0  0  0  0  0  0
  126.9060  123.1040   56.3280 C   0  0  0  0  0  0  0  0  0  0  0  0
  127.5080  122.8340   55.3780 N   0  0  0  0  0  0  0  0  0  0  0  0
  130.9470  124.3520   63.8240 C   0  0  0  0  0  0  0  0  0  0  0  0
  131.9400  124.8500   64.6630 C   0  0  0  0  0  0  0  0  0  0  0  0
  134.1952  125.8489   66.9949 H   0  0  0  0  0  0  0  0  0  0  0  0
  133.7311  124.1761   66.5333 H   0  0  0  0  0  0  0  0  0  0  0  0
  135.4608  124.6606   66.5333 H   0  0  0  0  0  0  0  0  0  0  0  0
  134.6138  124.5729   62.5649 H   0  0  0  0  0  0  0  0  0  0  0  0
  132.8425  123.6890   61.0622 H   0  0  0  0  0  0  0  0  0  0  0  0
  129.3860  124.0640   61.7360 H   0  0  0  0  0  0  0  0  0  0  0  0
  128.7349  121.1022   59.8679 H   0  0  0  0  0  0  0  0  0  0  0  0
  127.9030  122.1669   61.0789 H   0  0  0  0  0  0  0  0  0  0  0  0
  124.6320  124.0052   61.9826 H   0  0  0  0  0  0  0  0  0  0  0  0
  123.7054  125.3211   61.1849 H   0  0  0  0  0  0  0  0  0  0  0  0
  123.0638  123.6433   61.1849 H   0  0  0  0  0  0  0  0  0  0  0  0
  122.9332  124.0517   58.5823 H   0  0  0  0  0  0  0  0  0  0  0  0
  122.9002  123.3919   56.3500 H   0  0  0  0  0  0  0  0  0  0  0  0
  124.1155  124.4517   55.5585 H   0  0  0  0  0  0  0  0  0  0  0  0
  124.3420  122.6698   55.5585 H   0  0  0  0  0  0  0  0  0  0  0  0
  129.9077  124.2971   64.1803 H   0  0  0  0  0  0  0  0  0  0  0  0
  131.6826  125.1821   65.6796 H   0  0  0  0  0  0  0  0  0  0  0  0
  1  2  1  0
  2  3  1  0
  3  4  2  0
  4  5  1  0
  5  6  2  0
  6  7  1  0
  7  8  1  0
  8  9  2  0
  8 10  1  0
 10 11  1  0
 11 12  1  0
 12 13  2  0
 13 14  1  0
 14 15  1  0
 14 16  2  0
 16 17  1  0
 17 18  1  0
 17 19  2  0
 19 20  1  0
 20 21  3  0
  6 22  1  0
 22 23  2  0
 23  3  1  0
 19 12  1  0
  1 24  1  0
  1 25  1  0
  1 26  1  0
  4 27  1  0
  5 28  1  0
  7 29  1  0
 10 30  1  0
 10 31  1  0
 15 32  1  0
 15 33  1  0
 15 34  1  0
 16 35  1  0
 18 36  1  0
 18 37  1  0
 18 38  1  0
 22 39  1  0
 23 40  1  0
M  END
>  <Binding energies>  (1) 
[-7.39]

>  <Ligand effiencies>  (1) 
[-0.30791666666666667]

>  <Interactions>  (1) 
["V-B:PRO:540:N:9856, V-B:LEU:363:CA:8157, H-B:GLU:543:OE1:9881, V-B:ALA:541:CB:9864, V-B:ASP:366:CG:8185, V-B:PRO:540:CB:9857, V-B:PRO:540:CA:9855, V-B:PRO:540:C:9853, H-B:ALA:541:N:9863, V-B:ARG:545:CZ:9898, V-B:TYR:531:CE2:9765, V-B:LEU:363:CD1:8161, V-B:TYR:531:CZ:9766, V-B:ASN:362:CB:8148, H-B:TYR:539:N:9842, V-B:GLU:543:CD:9880, V-B:TYR:539:C:9839, V-B:ILE:538:CG2:9835, V-B:PRO:540:CD:9859, V-B:ILE:538:CB:9834, V-A:ARG:545:CZ:4924, V-A:GLY:454:CA:4047, V-A:ARG:545:CD:4921, H-A:TYR:484:OH:4346, H-A:ARG:545:NE:4922, H-A:GLY:454:N:4048, H-A:ARG:545:NH1:4925, V-A:HIS:456:CE1:4068, V-A:ARG:545:CG:4920, V-A:GLY:453:CA:4042, V-A:GLY:453:C:4040, V-A:ARG:545:CB:4919, V-B:ASN:362:C:8144, V-B:ASN:362:CA:8146, V-A:ILE:455:C:4050"]

$$$$
1d_Ghoteimi_2023
     RDKit          3D

 50 52  0  0  0  0  0  0  0  0999 V2000
  123.8870  124.3500   57.4840 C   0  0  0  0  0  0  0  0  0  0  0  0
  124.4620  123.1450   57.0050 O   0  0  0  0  0  0  0  0  0  0  0  0
  125.7340  123.1240   56.5550 C   0  0  0  0  0  0  0  0  0  0  0  0
  126.1040  122.7780   55.4320 O   0  0  0  0  0  0  0  0  0  0  0  0
  126.7310  123.5870   57.6140 C   0  0  0  0  0  0  0  0  0  0  0  0
  128.3760  123.6170   56.8400 S   0  0  0  0  0  0  0  0  0  0  0  0
  129.3670  124.7650   57.7700 C   0  0  0  0  0  0  0  0  0  0  0  0
  129.4240  126.0040   57.2260 N   0  0  0  0  0  0  0  0  0  0  0  0
  130.1500  126.9780   57.8310 C   0  0  0  0  0  0  0  0  0  0  0  0
  130.1550  128.3240   57.1660 C   0  0  0  0  0  0  0  0  0  0  0  0
  130.8190  129.4190   57.7420 C   0  0  0  0  0  0  0  0  0  0  0  0
  130.8180  130.6670   57.1270 C   0  0  0  0  0  0  0  0  0  0  0  0
  130.1520  130.8620   55.9190 C   0  0  0  0  0  0  0  0  0  0  0  0
  130.2010  132.1340   55.3830 O   0  0  0  0  0  0  0  0  0  0  0  0
  129.2610  132.5000   54.3790 C   0  0  0  0  0  0  0  0  0  0  0  0
  129.4840  129.7790   55.3320 C   0  0  0  0  0  0  0  0  0  0  0  0
  129.4880  128.5310   55.9490 C   0  0  0  0  0  0  0  0  0  0  0  0
  130.8360  126.7190   59.0240 C   0  0  0  0  0  0  0  0  0  0  0  0
  130.8070  125.4430   59.6010 C   0  0  0  0  0  0  0  0  0  0  0  0
  131.5680  125.2340   60.8710 C   0  0  0  0  0  0  0  0  0  0  0  0
  131.0810  125.7490   62.0760 C   0  0  0  0  0  0  0  0  0  0  0  0
  131.7840  125.5570   63.2620 C   0  0  0  0  0  0  0  0  0  0  0  0
  132.9830  124.8450   63.2690 C   0  0  0  0  0  0  0  0  0  0  0  0
  133.6160  124.7110   64.4900 O   0  0  0  0  0  0  0  0  0  0  0  0
  133.0700  125.3640   65.6310 C   0  0  0  0  0  0  0  0  0  0  0  0
  133.4690  124.3150   62.0640 C   0  0  0  0  0  0  0  0  0  0  0  0
  132.7640  124.5070   60.8790 C   0  0  0  0  0  0  0  0  0  0  0  0
  130.0690  124.4240   58.9490 C   0  0  0  0  0  0  0  0  0  0  0  0
  130.0900  123.0470   59.4520 C   0  0  0  0  0  0  0  0  0  0  0  0
  130.1060  121.9610   59.8490 N   0  0  0  0  0  0  0  0  0  0  0  0
  123.8892  124.3454   58.5840 H   0  0  0  0  0  0  0  0  0  0  0  0
  124.4735  125.2063   57.1197 H   0  0  0  0  0  0  0  0  0  0  0  0
  122.8524  124.4327   57.1197 H   0  0  0  0  0  0  0  0  0  0  0  0
  126.4636  124.5940   57.9669 H   0  0  0  0  0  0  0  0  0  0  0  0
  126.7219  122.9067   58.4784 H   0  0  0  0  0  0  0  0  0  0  0  0
  131.3495  129.2877   58.6966 H   0  0  0  0  0  0  0  0  0  0  0  0
  131.3480  131.5075   57.5989 H   0  0  0  0  0  0  0  0  0  0  0  0
  128.3371  132.8597   54.8554 H   0  0  0  0  0  0  0  0  0  0  0  0
  129.6856  133.2985   53.7528 H   0  0  0  0  0  0  0  0  0  0  0  0
  129.0338  131.6246   53.7528 H   0  0  0  0  0  0  0  0  0  0  0  0
  128.9534  129.9157   54.3782 H   0  0  0  0  0  0  0  0  0  0  0  0
  128.9586  127.6920   55.4738 H   0  0  0  0  0  0  0  0  0  0  0  0
  131.4029  127.5252   59.5126 H   0  0  0  0  0  0  0  0  0  0  0  0
  130.1350  126.3103   62.0870 H   0  0  0  0  0  0  0  0  0  0  0  0
  131.3902  125.9706   64.2021 H   0  0  0  0  0  0  0  0  0  0  0  0
  133.4626  124.8945   66.5450 H   0  0  0  0  0  0  0  0  0  0  0  0
  133.3518  126.4272   65.6148 H   0  0  0  0  0  0  0  0  0  0  0  0
  131.9737  125.2749   65.6148 H   0  0  0  0  0  0  0  0  0  0  0  0
  134.4103  123.7459   62.0557 H   0  0  0  0  0  0  0  0  0  0  0  0
  133.1505  124.0834   59.9403 H   0  0  0  0  0  0  0  0  0  0  0  0
  1  2  1  0
  2  3  1  0
  3  4  2  0
  3  5  1  0
  5  6  1  0
  6  7  1  0
  7  8  2  0
  8  9  1  0
  9 10  1  0
 10 11  2  0
 11 12  1  0
 12 13  2  0
 13 14  1  0
 14 15  1  0
 13 16  1  0
 16 17  2  0
  9 18  2  0
 18 19  1  0
 19 20  1  0
 20 21  2  0
 21 22  1  0
 22 23  2  0
 23 24  1  0
 24 25  1  0
 23 26  1  0
 26 27  2  0
 19 28  2  0
 28 29  1  0
 29 30  3  0
 28  7  1  0
 17 10  1  0
 27 20  1  0
  1 31  1  0
  1 32  1  0
  1 33  1  0
  5 34  1  0
  5 35  1  0
 11 36  1  0
 12 37  1  0
 15 38  1  0
 15 39  1  0
 15 40  1  0
 16 41  1  0
 17 42  1  0
 18 43  1  0
 21 44  1  0
 22 45  1  0
 25 46  1  0
 25 47  1  0
 25 48  1  0
 26 49  1  0
 27 50  1  0
M  END
>  <Binding energies>  (1) 
[-7.55]

>  <Ligand effiencies>  (1) 
[-0.25166666666666665]

>  <Interactions>  (1) 
["V-B:PRO:540:N:9856, V-B:LEU:363:CA:8157, V-B:PRO:540:CB:9857, V-B:PRO:540:CA:9855, V-B:TYR:539:CE2:9848, V-B:TYR:539:CD2:9846, V-A:TYR:539:CE1:4873, V-A:ASP:366:CG:3211, H-A:TYR:539:N:4868, V-A:ILE:538:CA:4858, V-A:ILE:538:CB:4860, V-B:TYR:531:CE2:9765, V-B:TYR:531:CZ:9766, H-B:TYR:539:N:9842, V-B:TYR:539:C:9839, V-B:PRO:540:CD:9859, V-A:ARG:545:CZ:4924, V-A:ARG:545:CD:4921, H-A:TYR:484:OH:4346, H-A:ARG:545:NE:4922, H-A:GLY:454:N:4048, V-A:ILE:538:C:4856, V-A:TYR:539:CD1:4871, V-A:HIS:456:CE1:4068, V-A:ARG:545:CG:4920, V-A:VAL:537:C:4848"]

$$$$
1d_Grossjean_2025
     RDKit          3D

 36 37  0  0  0  0  0  0  0  0999 V2000
  128.9460  132.5720   74.0240 C   0  0  0  0  0  0  0  0  0  0  0  0
  127.8930  131.4880   74.1380 C   0  0  0  0  0  0  0  0  0  0  0  0
  126.7750  131.6390   74.9560 C   0  0  0  0  0  0  0  0  0  0  0  0
  125.8300  130.6090   75.0150 C   0  0  0  0  0  0  0  0  0  0  0  0
  124.6050  130.8050   75.9060 C   0  0  0  0  0  0  0  0  0  0  0  0
  126.0370  129.4370   74.2510 C   0  0  0  0  0  0  0  0  0  0  0  0
  125.0380  128.3670   74.2590 C   0  0  0  0  0  0  0  0  0  0  0  0
  124.2460  127.5220   74.2680 N   0  0  0  0  0  0  0  0  0  0  0  0
  127.2120  129.3590   73.4670 C   0  0  0  0  0  0  0  0  0  0  0  0
  127.6310  127.9630   72.4480 S   0  0  0  0  0  0  0  0  0  0  0  0
  129.4360  127.9740   72.2280 C   0  0  0  0  0  0  0  0  0  0  0  0
  130.0920  126.7070   72.7800 C   0  0  0  0  0  0  0  0  0  0  0  0
  129.4700  125.6450   72.7450 O   0  0  0  0  0  0  0  0  0  0  0  0
  131.3470  126.8640   73.2520 N   0  0  0  0  0  0  0  0  0  0  0  0
  132.2160  125.9240   73.8360 C   0  0  0  0  0  0  0  0  0  0  0  0
  131.6380  124.7010   74.1870 C   0  0  0  0  0  0  0  0  0  0  0  0
  132.4090  123.6980   74.7660 C   0  0  0  0  0  0  0  0  0  0  0  0
  133.7670  123.9150   74.9910 C   0  0  0  0  0  0  0  0  0  0  0  0
  134.3580  125.1250   74.6380 C   0  0  0  0  0  0  0  0  0  0  0  0
  133.5880  126.1310   74.0600 C   0  0  0  0  0  0  0  0  0  0  0  0
  128.1120  130.3740   73.4010 N   0  0  0  0  0  0  0  0  0  0  0  0
  129.2551  132.8902   75.0306 H   0  0  0  0  0  0  0  0  0  0  0  0
  129.8178  132.1805   73.4793 H   0  0  0  0  0  0  0  0  0  0  0  0
  128.5294  133.4321   73.4793 H   0  0  0  0  0  0  0  0  0  0  0  0
  126.6373  132.5561   75.5476 H   0  0  0  0  0  0  0  0  0  0  0  0
  124.9083  130.7565   76.9622 H   0  0  0  0  0  0  0  0  0  0  0  0
  124.1541  131.7867   75.6987 H   0  0  0  0  0  0  0  0  0  0  0  0
  123.8703  130.0130   75.6987 H   0  0  0  0  0  0  0  0  0  0  0  0
  129.6617  128.0510   71.1542 H   0  0  0  0  0  0  0  0  0  0  0  0
  129.8392  128.8333   72.7839 H   0  0  0  0  0  0  0  0  0  0  0  0
  131.7410  127.7900   73.1680 H   0  0  0  0  0  0  0  0  0  0  0  0
  130.5668  124.5303   74.0044 H   0  0  0  0  0  0  0  0  0  0  0  0
  131.9489  122.7385   75.0448 H   0  0  0  0  0  0  0  0  0  0  0  0
  134.3770  123.1237   75.4513 H   0  0  0  0  0  0  0  0  0  0  0  0
  135.4316  125.2862   74.8154 H   0  0  0  0  0  0  0  0  0  0  0  0
  134.0533  127.0873   73.7788 H   0  0  0  0  0  0  0  0  0  0  0  0
  1  2  1  0
  2  3  2  0
  3  4  1  0
  4  5  1  0
  4  6  2  0
  6  7  1  0
  7  8  3  0
  6  9  1  0
  9 10  1  0
 10 11  1  0
 11 12  1  0
 12 13  2  0
 12 14  1  0
 14 15  1  0
 15 16  2  0
 16 17  1  0
 17 18  2  0
 18 19  1  0
 19 20  2  0
  9 21  2  0
 21  2  1  0
 20 15  1  0
  1 22  1  0
  1 23  1  0
  1 24  1  0
  3 25  1  0
  5 26  1  0
  5 27  1  0
  5 28  1  0
 11 29  1  0
 11 30  1  0
 14 31  1  0
 16 32  1  0
 17 33  1  0
 18 34  1  0
 19 35  1  0
 20 36  1  0
M  END
>  <Binding energies>  (1) 
[-8.48]

>  <Ligand effiencies>  (1) 
[-0.3854545454545455]

>  <Interactions>  (1) 
["V-A:LYS:471:CE:4218, V-B:VAL:458:CG2:9059, V-A:HIS:456:CB:4063, V-A:HIS:456:CD2:4066, V-B:LYS:471:CD:9191, H-A:GLY:544:O:4911, V-A:VAL:458:CG2:4085, V-A:HIS:456:CG:4064, V-A:HIS:456:C:4059, V-A:VAL:457:C:4071, V-B:LYS:471:CE:9192, V-B:HIS:456:C:9033, V-B:HIS:456:CD2:9040, V-A:LYS:547:CE:4948, V-B:LYS:471:CG:9190, H-A:LYS:547:NZ:4949, V-B:HIS:456:CG:9038, V-B:HIS:456:CB:9037, V-A:HIS:456:CA:4061, H-B:LYS:547:NZ:9923, V-A:VAL:457:CA:4073, V-B:ASP:473:CG:9212, V-A:GLY:544:C:4910, V-A:GLY:544:CA:4912"]

$$$$
1e_Grossjean_2025
     RDKit          3D

 38 39  0  0  0  0  0  0  0  0999 V2000
  126.0250  131.7540   75.5670 C   0  0  0  0  0  0  0  0  0  0  0  0
  125.6220  130.3540   75.1450 C   0  0  0  0  0  0  0  0  0  0  0  0
  124.3320  129.8650   75.3710 C   0  0  0  0  0  0  0  0  0  0  0  0
  124.0340  128.5660   74.9580 C   0  0  0  0  0  0  0  0  0  0  0  0
  125.0200  127.7940   74.3390 C   0  0  0  0  0  0  0  0  0  0  0  0
  126.2900  128.3470   74.1390 C   0  0  0  0  0  0  0  0  0  0  0  0
  127.2440  127.5190   73.5210 N   0  0  0  0  0  0  0  0  0  0  0  0
  128.3870  127.8750   72.8950 C   0  0  0  0  0  0  0  0  0  0  0  0
  128.7830  129.0330   72.7520 O   0  0  0  0  0  0  0  0  0  0  0  0
  129.2090  126.7260   72.3070 C   0  0  0  0  0  0  0  0  0  0  0  0
  130.9710  126.8630   72.7330 S   0  0  0  0  0  0  0  0  0  0  0  0
  131.4920  125.3430   73.5030 C   0  0  0  0  0  0  0  0  0  0  0  0
  130.5820  124.3420   73.3900 N   0  0  0  0  0  0  0  0  0  0  0  0
  130.8650  123.1380   73.9400 C   0  0  0  0  0  0  0  0  0  0  0  0
  129.8060  122.0670   73.7660 C   0  0  0  0  0  0  0  0  0  0  0  0
  132.0500  122.8870   74.6290 C   0  0  0  0  0  0  0  0  0  0  0  0
  132.9840  123.9180   74.7730 C   0  0  0  0  0  0  0  0  0  0  0  0
  134.2670  123.6210   75.5480 C   0  0  0  0  0  0  0  0  0  0  0  0
  132.7080  125.1850   74.2100 C   0  0  0  0  0  0  0  0  0  0  0  0
  133.6490  126.2910   74.4020 C   0  0  0  0  0  0  0  0  0  0  0  0
  134.3940  127.1640   74.5550 N   0  0  0  0  0  0  0  0  0  0  0  0
  126.5900  129.6170   74.5440 N   0  0  0  0  0  0  0  0  0  0  0  0
  126.0426  131.8152   76.6652 H   0  0  0  0  0  0  0  0  0  0  0  0
  127.0254  131.9826   75.1709 H   0  0  0  0  0  0  0  0  0  0  0  0
  125.2992  132.4795   75.1709 H   0  0  0  0  0  0  0  0  0  0  0  0
  123.5708  130.4889   75.8622 H   0  0  0  0  0  0  0  0  0  0  0  0
  123.0277  128.1519   75.1190 H   0  0  0  0  0  0  0  0  0  0  0  0
  124.8014  126.7663   74.0135 H   0  0  0  0  0  0  0  0  0  0  0  0
  127.0050  126.5380   73.5060 H   0  0  0  0  0  0  0  0  0  0  0  0
  128.8214  125.7745   72.6999 H   0  0  0  0  0  0  0  0  0  0  0  0
  129.1195  126.7696   71.2115 H   0  0  0  0  0  0  0  0  0  0  0  0
  129.4662  121.7234   74.7542 H   0  0  0  0  0  0  0  0  0  0  0  0
  128.9531  122.4818   73.2088 H   0  0  0  0  0  0  0  0  0  0  0  0
  130.2304  121.2188   73.2088 H   0  0  0  0  0  0  0  0  0  0  0  0
  132.2480  121.8918   75.0537 H   0  0  0  0  0  0  0  0  0  0  0  0
  134.0624  123.6684   76.6278 H   0  0  0  0  0  0  0  0  0  0  0  0
  134.6285  122.6154   75.2871 H   0  0  0  0  0  0  0  0  0  0  0  0
  135.0336  124.3654   75.2871 H   0  0  0  0  0  0  0  0  0  0  0  0
  1  2  1  0
  2  3  2  0
  3  4  1  0
  4  5  2  0
  5  6  1  0
  6  7  1  0
  7  8  1  0
  8  9  2  0
  8 10  1  0
 10 11  1  0
 11 12  1  0
 12 13  2  0
 13 14  1  0
 14 15  1  0
 14 16  2  0
 16 17  1  0
 17 18  1  0
 17 19  2  0
 19 20  1  0
 20 21  3  0
  6 22  2  0
 22  2  1  0
 19 12  1  0
  1 23  1  0
  1 24  1  0
  1 25  1  0
  3 26  1  0
  4 27  1  0
  5 28  1  0
  7 29  1  0
 10 30  1  0
 10 31  1  0
 15 32  1  0
 15 33  1  0
 15 34  1  0
 16 35  1  0
 18 36  1  0
 18 37  1  0
 18 38  1  0
M  END
>  <Binding energies>  (1) 
[-7.89]

>  <Ligand effiencies>  (1) 
[-0.34304347826086956]

>  <Interactions>  (1) 
["V-A:LYS:471:CE:4218, H-B:GLY:544:O:9885, V-B:HIS:456:CA:9035, V-B:VAL:458:CG2:9059, V-B:VAL:457:C:9045, V-A:HIS:456:CB:4063, V-A:HIS:456:CD2:4066, V-B:LYS:471:CD:9191, V-B:GLY:544:C:9884, V-A:VAL:458:CG2:4085, V-A:HIS:456:CG:4064, V-A:HIS:456:C:4059, V-B:LYS:471:CE:9192, V-A:LYS:471:CG:4216, V-B:HIS:456:C:9033, V-B:LYS:471:CG:9190, V-B:VAL:457:CA:9047, H-A:LYS:547:NZ:4949, V-A:ASP:473:CG:4238, V-A:LYS:471:CD:4217, V-B:HIS:456:CB:9037, H-B:LYS:547:NZ:9923, V-B:ASP:473:CG:9212, V-B:LYS:547:CE:9922, V-B:LYS:547:CG:9920, V-B:LYS:547:CD:9921, V-A:LYS:547:CD:4947"]

$$$$
1f_Grossjean_2025
     RDKit          3D

 35 36  0  0  0  0  0  0  0  0999 V2000
  129.0500  132.5280   73.8510 C   0  0  0  0  0  0  0  0  0  0  0  0
  127.9770  131.4710   74.0380 C   0  0  0  0  0  0  0  0  0  0  0  0
  126.8580  131.7000   74.8340 C   0  0  0  0  0  0  0  0  0  0  0  0
  125.9080  130.6840   74.9790 C   0  0  0  0  0  0  0  0  0  0  0  0
  124.6980  130.9520   75.8720 C   0  0  0  0  0  0  0  0  0  0  0  0
  126.1020  129.4550   74.3080 C   0  0  0  0  0  0  0  0  0  0  0  0
  125.1470  128.3590   74.4920 C   0  0  0  0  0  0  0  0  0  0  0  0
  124.3910  127.4950   74.6380 N   0  0  0  0  0  0  0  0  0  0  0  0
  127.2540  129.3200   73.4970 C   0  0  0  0  0  0  0  0  0  0  0  0
  127.6650  127.8490   72.5790 S   0  0  0  0  0  0  0  0  0  0  0  0
  129.4720  127.8160   72.3240 C   0  0  0  0  0  0  0  0  0  0  0  0
  130.1750  126.5520   72.8410 C   0  0  0  0  0  0  0  0  0  0  0  0
  129.6310  125.4510   72.7450 O   0  0  0  0  0  0  0  0  0  0  0  0
  131.3810  126.7710   73.4070 N   0  0  0  0  0  0  0  0  0  0  0  0
  132.2890  125.8550   73.9710 C   0  0  0  0  0  0  0  0  0  0  0  0
  131.9660  124.5770   74.4620 C   0  0  0  0  0  0  0  0  0  0  0  0
  132.9720  123.7660   74.9940 C   0  0  0  0  0  0  0  0  0  0  0  0
  134.2790  124.2520   75.0190 C   0  0  0  0  0  0  0  0  0  0  0  0
  134.6180  125.4780   74.5470 N   0  0  0  0  0  0  0  0  0  0  0  0
  133.6290  126.2540   74.0330 C   0  0  0  0  0  0  0  0  0  0  0  0
  128.1810  130.3030   73.3840 N   0  0  0  0  0  0  0  0  0  0  0  0
  129.4002  132.8730   74.8350 H   0  0  0  0  0  0  0  0  0  0  0  0
  129.8940  132.0987   73.2912 H   0  0  0  0  0  0  0  0  0  0  0  0
  128.6334  133.3784   73.2912 H   0  0  0  0  0  0  0  0  0  0  0  0
  126.7230  132.6664   75.3417 H   0  0  0  0  0  0  0  0  0  0  0  0
  124.9995  130.8852   76.9278 H   0  0  0  0  0  0  0  0  0  0  0  0
  124.3058  131.9588   75.6656 H   0  0  0  0  0  0  0  0  0  0  0  0
  123.9174  130.2050   75.6656 H   0  0  0  0  0  0  0  0  0  0  0  0
  129.6663  127.8977   71.2444 H   0  0  0  0  0  0  0  0  0  0  0  0
  129.8809  128.6559   72.9048 H   0  0  0  0  0  0  0  0  0  0  0  0
  131.6810  127.7350   73.4530 H   0  0  0  0  0  0  0  0  0  0  0  0
  130.9269  124.2178   74.4274 H   0  0  0  0  0  0  0  0  0  0  0  0
  132.7378  122.7649   75.3850 H   0  0  0  0  0  0  0  0  0  0  0  0
  135.0696  123.6134   75.4398 H   0  0  0  0  0  0  0  0  0  0  0  0
  133.8952  127.2483   73.6451 H   0  0  0  0  0  0  0  0  0  0  0  0
  1  2  1  0
  2  3  2  0
  3  4  1  0
  4  5  1  0
  4  6  2  0
  6  7  1  0
  7  8  3  0
  6  9  1  0
  9 10  1  0
 10 11  1  0
 11 12  1  0
 12 13  2  0
 12 14  1  0
 14 15  1  0
 15 16  2  0
 16 17  1  0
 17 18  2  0
 18 19  1  0
 19 20  2  0
  9 21  2  0
 21  2  1  0
 20 15  1  0
  1 22  1  0
  1 23  1  0
  1 24  1  0
  3 25  1  0
  5 26  1  0
  5 27  1  0
  5 28  1  0
 11 29  1  0
 11 30  1  0
 14 31  1  0
 16 32  1  0
 17 33  1  0
 18 34  1  0
 20 35  1  0
M  END
>  <Binding energies>  (1) 
[-8.1]

>  <Ligand effiencies>  (1) 
[-0.36818181818181817]

>  <Interactions>  (1) 
["V-A:LYS:471:CE:4218, V-B:VAL:458:CG2:9059, V-A:HIS:456:CB:4063, V-B:LYS:471:CD:9191, H-A:GLY:544:O:4911, V-A:VAL:458:CG2:4085, V-A:HIS:456:CG:4064, H-A:VAL:458:N:4082, V-A:HIS:456:C:4059, V-A:VAL:457:C:4071, V-B:LYS:471:CE:9192, V-B:HIS:456:C:9033, V-B:HIS:456:CD2:9040, V-A:LYS:547:CE:4948, V-B:LYS:471:CG:9190, H-A:LYS:547:NZ:4949, V-B:HIS:456:CG:9038, V-B:HIS:456:CB:9037, V-A:HIS:456:CA:4061, H-B:LYS:547:NZ:9923, V-B:ASP:473:CG:9212, V-A:GLY:544:C:4910, V-B:LYS:547:CE:9922, H-A:VAL:457:N:4074"]

$$$$
1g_Grossjean_2025
     RDKit          3D

 39 40  0  0  0  0  0  0  0  0999 V2000
  128.7610  132.7990   59.9870 C   0  0  0  0  0  0  0  0  0  0  0  0
  128.1160  131.9920   58.8750 C   0  0  0  0  0  0  0  0  0  0  0  0
  127.0630  131.1150   59.1260 C   0  0  0  0  0  0  0  0  0  0  0  0
  126.5190  130.3850   58.0640 C   0  0  0  0  0  0  0  0  0  0  0  0
  125.3740  129.4190   58.3660 C   0  0  0  0  0  0  0  0  0  0  0  0
  127.0430  130.5610   56.7640 C   0  0  0  0  0  0  0  0  0  0  0  0
  126.5240  129.7690   55.6460 C   0  0  0  0  0  0  0  0  0  0  0  0
  126.1130  129.1410   54.7650 N   0  0  0  0  0  0  0  0  0  0  0  0
  128.0960  131.4910   56.5970 C   0  0  0  0  0  0  0  0  0  0  0  0
  128.8660  131.8420   55.0320 S   0  0  0  0  0  0  0  0  0  0  0  0
  130.5280  131.1070   55.0710 C   0  0  0  0  0  0  0  0  0  0  0  0
  131.4000  131.7200   56.1680 C   0  0  0  0  0  0  0  0  0  0  0  0
  131.1920  132.8730   56.5490 O   0  0  0  0  0  0  0  0  0  0  0  0
  132.3750  130.9370   56.6600 N   0  0  0  0  0  0  0  0  0  0  0  0
  133.2850  131.2970   57.7480 C   0  0  0  0  0  0  0  0  0  0  0  0
  132.6950  131.1200   59.1440 C   0  0  0  0  0  0  0  0  0  0  0  0
  131.3710  130.6930   59.2930 C   0  0  0  0  0  0  0  0  0  0  0  0
  130.8330  130.5310   60.5670 C   0  0  0  0  0  0  0  0  0  0  0  0
  131.6210  130.7910   61.6870 C   0  0  0  0  0  0  0  0  0  0  0  0
  132.9410  131.2120   61.5450 C   0  0  0  0  0  0  0  0  0  0  0  0
  133.4800  131.3760   60.2710 C   0  0  0  0  0  0  0  0  0  0  0  0
  128.6330  132.1780   57.6380 N   0  0  0  0  0  0  0  0  0  0  0  0
  128.4424  132.4004   60.9615 H   0  0  0  0  0  0  0  0  0  0  0  0
  129.8556  132.7300   59.9027 H   0  0  0  0  0  0  0  0  0  0  0  0
  128.4524  133.8515   59.9027 H   0  0  0  0  0  0  0  0  0  0  0  0
  126.6650  130.9983   60.1448 H   0  0  0  0  0  0  0  0  0  0  0  0
  125.2559  129.3194   59.4551 H   0  0  0  0  0  0  0  0  0  0  0  0
  124.4418  129.8076   57.9301 H   0  0  0  0  0  0  0  0  0  0  0  0
  125.6001  128.4347   57.9301 H   0  0  0  0  0  0  0  0  0  0  0  0
  130.4342  130.0264   55.2542 H   0  0  0  0  0  0  0  0  0  0  0  0
  131.0103  131.3060   54.1026 H   0  0  0  0  0  0  0  0  0  0  0  0
  132.4610  129.9950   56.3040 H   0  0  0  0  0  0  0  0  0  0  0  0
  134.1820  130.6650   57.6703 H   0  0  0  0  0  0  0  0  0  0  0  0
  133.5059  132.3684   57.6327 H   0  0  0  0  0  0  0  0  0  0  0  0
  130.7559  130.4856   58.4049 H   0  0  0  0  0  0  0  0  0  0  0  0
  129.7913  130.1995   60.6890 H   0  0  0  0  0  0  0  0  0  0  0  0
  131.1959  130.6624   62.6934 H   0  0  0  0  0  0  0  0  0  0  0  0
  133.5552  131.4141   62.4349 H   0  0  0  0  0  0  0  0  0  0  0  0
  134.5224  131.7067   60.1525 H   0  0  0  0  0  0  0  0  0  0  0  0
  1  2  1  0
  2  3  2  0
  3  4  1  0
  4  5  1  0
  4  6  2  0
  6  7  1  0
  7  8  3  0
  6  9  1  0
  9 10  1  0
 10 11  1  0
 11 12  1  0
 12 13  2  0
 12 14  1  0
 14 15  1  0
 15 16  1  0
 16 17  2  0
 17 18  1  0
 18 19  2  0
 19 20  1  0
 20 21  2  0
  9 22  2  0
 22  2  1  0
 21 16  1  0
  1 23  1  0
  1 24  1  0
  1 25  1  0
  3 26  1  0
  5 27  1  0
  5 28  1  0
  5 29  1  0
 11 30  1  0
 11 31  1  0
 14 32  1  0
 15 33  1  0
 15 34  1  0
 17 35  1  0
 18 36  1  0
 19 37  1  0
 20 38  1  0
 21 39  1  0
M  END
>  <Binding energies>  (1) 
[-8.04]

>  <Ligand effiencies>  (1) 
[-0.3495652173913043]

>  <Interactions>  (1) 
["V-B:ASP:366:CG:8185, V-A:TYR:539:CE1:4873, V-A:PRO:540:N:4882, H-A:TYR:539:N:4868, V-A:TYR:539:CZ:4875, V-A:TYR:531:CE2:4791, V-A:LEU:363:CA:3183, H-A:TYR:531:OH:4793, V-A:TYR:539:C:4865, V-A:PRO:540:CA:4881, V-A:TYR:531:CZ:4792, V-A:GLU:543:CD:4906, V-A:PRO:540:CB:4883, H-B:TYR:531:OH:9767, V-A:ARG:545:CZ:4924, H-A:ASP:366:OD2:3213, V-A:ASN:362:CB:3174, V-A:TYR:539:CE2:4874, V-B:ASP:366:CB:8184, V-A:TYR:539:CD1:4871, V-A:ASN:362:C:3170, V-A:TYR:539:CD2:4872"]

$$$$
1h_Grossjean_2025
     RDKit          3D

 51 52  0  0  0  0  0  0  0  0999 V2000
  127.0450  130.2620   55.6880 C   0  0  0  0  0  0  0  0  0  0  0  0
  127.7700  131.2380   56.4290 O   0  0  0  0  0  0  0  0  0  0  0  0
  128.9250  130.8650   57.0920 C   0  0  0  0  0  0  0  0  0  0  0  0
  128.9750  129.8720   58.0830 C   0  0  0  0  0  0  0  0  0  0  0  0
  130.1760  129.5580   58.7200 C   0  0  0  0  0  0  0  0  0  0  0  0
  130.2200  128.4610   59.7790 C   0  0  0  0  0  0  0  0  0  0  0  0
  130.7260  127.1790   59.2870 N   0  0  0  0  0  0  0  0  0  0  0  0
  129.9930  126.0610   59.1350 C   0  0  0  0  0  0  0  0  0  0  0  0
  128.7880  125.9970   59.3730 O   0  0  0  0  0  0  0  0  0  0  0  0
  130.7390  124.8200   58.6440 C   0  0  0  0  0  0  0  0  0  0  0  0
  129.7480  123.3080   58.8420 S   0  0  0  0  0  0  0  0  0  0  0  0
  128.3340  123.4260   57.7590 C   0  0  0  0  0  0  0  0  0  0  0  0
  128.6080  123.4210   56.4280 N   0  0  0  0  0  0  0  0  0  0  0  0
  127.5820  123.5040   55.5500 C   0  0  0  0  0  0  0  0  0  0  0  0
  127.9670  123.4870   54.0830 C   0  0  0  0  0  0  0  0  0  0  0  0
  126.2520  123.5960   55.9550 C   0  0  0  0  0  0  0  0  0  0  0  0
  125.9560  123.6050   57.3220 C   0  0  0  0  0  0  0  0  0  0  0  0
  124.4920  123.7060   57.7430 C   0  0  0  0  0  0  0  0  0  0  0  0
  127.0130  123.5200   58.2560 C   0  0  0  0  0  0  0  0  0  0  0  0
  126.7340  123.5290   59.6950 C   0  0  0  0  0  0  0  0  0  0  0  0
  126.5120  123.5370   60.8310 N   0  0  0  0  0  0  0  0  0  0  0  0
  131.3480  130.2140   58.3430 C   0  0  0  0  0  0  0  0  0  0  0  0
  131.3290  131.2070   57.3510 C   0  0  0  0  0  0  0  0  0  0  0  0
  132.4500  131.8980   56.9290 O   0  0  0  0  0  0  0  0  0  0  0  0
  133.7240  131.2630   56.9790 C   0  0  0  0  0  0  0  0  0  0  0  0
  130.1090  131.5320   56.7410 C   0  0  0  0  0  0  0  0  0  0  0  0
  130.0760  132.4970   55.7640 O   0  0  0  0  0  0  0  0  0  0  0  0
  129.9360  131.9840   54.4470 C   0  0  0  0  0  0  0  0  0  0  0  0
  126.5365  129.5774   56.3828 H   0  0  0  0  0  0  0  0  0  0  0  0
  126.2982  130.7629   55.0544 H   0  0  0  0  0  0  0  0  0  0  0  0
  127.7402  129.6917   55.0544 H   0  0  0  0  0  0  0  0  0  0  0  0
  128.0561  129.3349   58.3607 H   0  0  0  0  0  0  0  0  0  0  0  0
  130.8708  128.7980   60.5993 H   0  0  0  0  0  0  0  0  0  0  0  0
  129.1830  128.2904   60.1039 H   0  0  0  0  0  0  0  0  0  0  0  0
  131.7140  127.1400   59.0810 H   0  0  0  0  0  0  0  0  0  0  0  0
  130.9811  124.9492   57.5788 H   0  0  0  0  0  0  0  0  0  0  0  0
  131.6515  124.7103   59.2484 H   0  0  0  0  0  0  0  0  0  0  0  0
  129.0622  123.4386   53.9919 H   0  0  0  0  0  0  0  0  0  0  0  0
  127.5194  122.6077   53.5966 H   0  0  0  0  0  0  0  0  0  0  0  0
  127.5986  124.4023   53.5966 H   0  0  0  0  0  0  0  0  0  0  0  0
  125.4456  123.6607   55.2097 H   0  0  0  0  0  0  0  0  0  0  0  0
  124.4257  123.7106   58.8410 H   0  0  0  0  0  0  0  0  0  0  0  0
  124.0595  124.6361   57.3457 H   0  0  0  0  0  0  0  0  0  0  0  0
  123.9359  122.8441   57.3457 H   0  0  0  0  0  0  0  0  0  0  0  0
  132.2988  129.9499   58.8291 H   0  0  0  0  0  0  0  0  0  0  0  0
  134.0194  131.1158   58.0283 H   0  0  0  0  0  0  0  0  0  0  0  0
  133.6676  130.2876   56.4736 H   0  0  0  0  0  0  0  0  0  0  0  0
  134.4689  131.8952   56.4736 H   0  0  0  0  0  0  0  0  0  0  0  0
  129.6467  130.9238   54.4953 H   0  0  0  0  0  0  0  0  0  0  0  0
  129.1600  132.5519   53.9129 H   0  0  0  0  0  0  0  0  0  0  0  0
  130.8929  132.0790   53.9129 H   0  0  0  0  0  0  0  0  0  0  0  0
  1  2  1  0
  2  3  1  0
  3  4  2  0
  4  5  1  0
  5  6  1  0
  6  7  1  0
  7  8  1  0
  8  9  2  0
  8 10  1  0
 10 11  1  0
 11 12  1  0
 12 13  2  0
 13 14  1  0
 14 15  1  0
 14 16  2  0
 16 17  1  0
 17 18  1  0
 17 19  2  0
 19 20  1  0
 20 21  3  0
  5 22  2  0
 22 23  1  0
 23 24  1  0
 24 25  1  0
 23 26  2  0
 26 27  1  0
 27 28  1  0
 26  3  1  0
 19 12  1  0
  1 29  1  0
  1 30  1  0
  1 31  1  0
  4 32  1  0
  6 33  1  0
  6 34  1  0
  7 35  1  0
 10 36  1  0
 10 37  1  0
 15 38  1  0
 15 39  1  0
 15 40  1  0
 16 41  1  0
 18 42  1  0
 18 43  1  0
 18 44  1  0
 22 45  1  0
 25 46  1  0
 25 47  1  0
 25 48  1  0
 28 49  1  0
 28 50  1  0
 28 51  1  0
M  END
>  <Binding energies>  (1) 
[-7.0]

>  <Ligand effiencies>  (1) 
[-0.2413793103448276]

>  <Interactions>  (1) 
["V-B:PRO:540:N:9856, V-B:ILE:538:CA:9832, V-B:PRO:540:CB:9857, V-B:PRO:540:CA:9855, V-B:PRO:540:C:9853, H-B:ALA:541:N:9863, V-B:TYR:539:CE2:9848, V-B:TYR:539:CE1:9847, V-B:TYR:539:CD1:9845, V-B:TYR:539:CD2:9846, V-A:TYR:539:CE1:4873, V-A:ASP:366:CG:3211, H-A:TYR:539:N:4868, V-A:ILE:538:CA:4858, V-A:TYR:539:CZ:4875, V-A:TYR:531:CE2:4791, V-A:LEU:363:CA:3183, V-A:LEU:363:CD1:3187, V-A:ILE:538:CB:4860, V-A:PRO:540:CA:4881, V-A:ILE:538:CG2:4861, V-A:TYR:531:CZ:4792, V-A:PRO:540:CB:4883, V-B:TYR:539:C:9839, V-B:PRO:540:CD:9859, V-A:LEU:363:CB:3185, H-A:ASP:366:OD2:3213, V-A:ILE:538:C:4856, H-A:TYR:539:OH:4876, H-A:ASP:366:OD1:3212"]

$$$$
1i_Grossjean_2025
     RDKit          3D

 32 33  0  0  0  0  0  0  0  0999 V2000
  129.4790  122.3230   73.1290 C   0  0  0  0  0  0  0  0  0  0  0  0
  130.5100  123.3690   73.5090 C   0  0  0  0  0  0  0  0  0  0  0  0
  131.6580  123.0350   74.2240 C   0  0  0  0  0  0  0  0  0  0  0  0
  132.5800  124.0400   74.5380 C   0  0  0  0  0  0  0  0  0  0  0  0
  133.8390  123.6470   75.3080 C   0  0  0  0  0  0  0  0  0  0  0  0
  132.3210  125.3690   74.1280 C   0  0  0  0  0  0  0  0  0  0  0  0
  133.2960  126.4270   74.4010 C   0  0  0  0  0  0  0  0  0  0  0  0
  134.0690  127.2610   74.6170 N   0  0  0  0  0  0  0  0  0  0  0  0
  131.1170  125.6190   73.4270 C   0  0  0  0  0  0  0  0  0  0  0  0
  130.6320  127.2270   72.8380 S   0  0  0  0  0  0  0  0  0  0  0  0
  128.8720  127.1420   72.3930 C   0  0  0  0  0  0  0  0  0  0  0  0
  128.0570  128.2570   73.0510 C   0  0  0  0  0  0  0  0  0  0  0  0
  128.5040  129.4040   73.0640 O   0  0  0  0  0  0  0  0  0  0  0  0
  126.8720  127.8780   73.5790 N   0  0  0  0  0  0  0  0  0  0  0  0
  125.9480  128.6810   74.2320 C   0  0  0  0  0  0  0  0  0  0  0  0
  126.3040  129.8180   74.9550 C   0  0  0  0  0  0  0  0  0  0  0  0
  125.1180  130.3210   75.4380 C   0  0  0  0  0  0  0  0  0  0  0  0
  124.1000  129.5270   75.0290 O   0  0  0  0  0  0  0  0  0  0  0  0
  124.6390  128.4900   74.2660 N   0  0  0  0  0  0  0  0  0  0  0  0
  130.2400  124.6340   73.1100 N   0  0  0  0  0  0  0  0  0  0  0  0
  129.0475  121.8852   74.0412 H   0  0  0  0  0  0  0  0  0  0  0  0
  128.6813  122.7932   72.5351 H   0  0  0  0  0  0  0  0  0  0  0  0
  129.9606  121.5322   72.5351 H   0  0  0  0  0  0  0  0  0  0  0  0
  131.8373  121.9959   74.5374 H   0  0  0  0  0  0  0  0  0  0  0  0
  133.6421  123.7085   76.3885 H   0  0  0  0  0  0  0  0  0  0  0  0
  134.1232  122.6174   75.0451 H   0  0  0  0  0  0  0  0  0  0  0  0
  134.6585  124.3321   75.0451 H   0  0  0  0  0  0  0  0  0  0  0  0
  128.7777  127.2312   71.3007 H   0  0  0  0  0  0  0  0  0  0  0  0
  128.4786  126.1790   72.7505 H   0  0  0  0  0  0  0  0  0  0  0  0
  126.6350  126.8980   73.5280 H   0  0  0  0  0  0  0  0  0  0  0  0
  127.3145  130.2252   75.1067 H   0  0  0  0  0  0  0  0  0  0  0  0
  125.0133  131.2239   76.0575 H   0  0  0  0  0  0  0  0  0  0  0  0
  1  2  1  0
  2  3  2  0
  3  4  1  0
  4  5  1  0
  4  6  2  0
  6  7  1  0
  7  8  3  0
  6  9  1  0
  9 10  1  0
 10 11  1  0
 11 12  1  0
 12 13  2  0
 12 14  1  0
 14 15  1  0
 15 16  1  0
 16 17  2  0
 17 18  1  0
 18 19  1  0
  9 20  2  0
 20  2  1  0
 19 15  2  0
  1 21  1  0
  1 22  1  0
  1 23  1  0
  3 24  1  0
  5 25  1  0
  5 26  1  0
  5 27  1  0
 11 28  1  0
 11 29  1  0
 14 30  1  0
 16 31  1  0
 17 32  1  0
M  END
>  <Binding energies>  (1) 
[-7.67]

>  <Ligand effiencies>  (1) 
[-0.36523809523809525]

>  <Interactions>  (1) 
["V-A:LYS:471:CE:4218, H-B:GLY:544:O:9885, V-B:VAL:458:CG2:9059, V-A:HIS:456:CB:4063, V-A:HIS:456:CD2:4066, V-B:GLY:544:C:9884, V-A:VAL:458:CG2:4085, V-A:HIS:456:CG:4064, V-A:HIS:456:C:4059, V-A:LYS:471:CG:4216, V-B:HIS:456:C:9033, V-B:HIS:456:CD2:9040, H-A:LYS:547:NZ:4949, V-A:ASP:473:CG:4238, V-A:LYS:471:CD:4217, V-B:HIS:456:CG:9038, V-B:HIS:456:CB:9037, H-B:LYS:547:NZ:9923, V-B:LYS:547:CE:9922, V-A:LYS:547:CG:4946, V-B:LYS:547:CD:9921, V-A:LYS:547:CD:4947, H-B:VAL:457:N:9048"]

$$$$
1j_Grossjean_2025
     RDKit          3D

 32 33  0  0  0  0  0  0  0  0999 V2000
  129.0010  132.6040   74.0670 C   0  0  0  0  0  0  0  0  0  0  0  0
  127.9410  131.5230   74.1770 C   0  0  0  0  0  0  0  0  0  0  0  0
  126.8210  131.6800   74.9910 C   0  0  0  0  0  0  0  0  0  0  0  0
  125.8700  130.6560   75.0430 C   0  0  0  0  0  0  0  0  0  0  0  0
  124.6410  130.8590   75.9280 C   0  0  0  0  0  0  0  0  0  0  0  0
  126.0730  129.4860   74.2770 C   0  0  0  0  0  0  0  0  0  0  0  0
  125.0640  128.4230   74.2760 C   0  0  0  0  0  0  0  0  0  0  0  0
  124.2650  127.5860   74.2760 N   0  0  0  0  0  0  0  0  0  0  0  0
  127.2520  129.4010   73.5000 C   0  0  0  0  0  0  0  0  0  0  0  0
  127.6690  128.0030   72.4810 S   0  0  0  0  0  0  0  0  0  0  0  0
  129.4760  127.9740   72.2940 C   0  0  0  0  0  0  0  0  0  0  0  0
  130.0920  126.6950   72.8650 C   0  0  0  0  0  0  0  0  0  0  0  0
  129.4740  125.6330   72.7720 O   0  0  0  0  0  0  0  0  0  0  0  0
  131.3040  126.8400   73.4430 N   0  0  0  0  0  0  0  0  0  0  0  0
  132.0640  125.8410   74.0360 C   0  0  0  0  0  0  0  0  0  0  0  0
  131.6550  124.6700   74.4760 N   0  0  0  0  0  0  0  0  0  0  0  0
  132.6500  123.9690   74.9820 C   0  0  0  0  0  0  0  0  0  0  0  0
  133.9040  124.5730   74.9570 C   0  0  0  0  0  0  0  0  0  0  0  0
  133.7600  126.1440   74.2280 S   0  0  0  0  0  0  0  0  0  0  0  0
  128.1580  130.4090   73.4390 N   0  0  0  0  0  0  0  0  0  0  0  0
  129.3097  132.9188   75.0748 H   0  0  0  0  0  0  0  0  0  0  0  0
  129.8720  132.2095   73.5232 H   0  0  0  0  0  0  0  0  0  0  0  0
  128.5895  133.4671   73.5232 H   0  0  0  0  0  0  0  0  0  0  0  0
  126.6868  132.5965   75.5843 H   0  0  0  0  0  0  0  0  0  0  0  0
  124.9387  130.8098   76.9858 H   0  0  0  0  0  0  0  0  0  0  0  0
  124.1961  131.8428   75.7176 H   0  0  0  0  0  0  0  0  0  0  0  0
  123.9034  130.0705   75.7176 H   0  0  0  0  0  0  0  0  0  0  0  0
  129.7232  128.0401   71.2242 H   0  0  0  0  0  0  0  0  0  0  0  0
  129.8886  128.8276   72.8518 H   0  0  0  0  0  0  0  0  0  0  0  0
  131.6970  127.7690   73.4790 H   0  0  0  0  0  0  0  0  0  0  0  0
  132.4980  122.9632   75.4005 H   0  0  0  0  0  0  0  0  0  0  0  0
  134.8353  124.1279   75.3372 H   0  0  0  0  0  0  0  0  0  0  0  0
  1  2  1  0
  2  3  2  0
  3  4  1  0
  4  5  1  0
  4  6  2  0
  6  7  1  0
  7  8  3  0
  6  9  1  0
  9 10  1  0
 10 11  1  0
 11 12  1  0
 12 13  2  0
 12 14  1  0
 14 15  1  0
 15 16  2  0
 16 17  1  0
 17 18  2  0
 18 19  1  0
  9 20  2  0
 20  2  1  0
 19 15  1  0
  1 21  1  0
  1 22  1  0
  1 23  1  0
  3 24  1  0
  5 25  1  0
  5 26  1  0
  5 27  1  0
 11 28  1  0
 11 29  1  0
 14 30  1  0
 17 31  1  0
 18 32  1  0
M  END
>  <Binding energies>  (1) 
[-8.11]

>  <Ligand effiencies>  (1) 
[-0.38619047619047614]

>  <Interactions>  (1) 
["V-A:LYS:471:CE:4218, V-B:HIS:456:CA:9035, V-B:VAL:458:CG2:9059, V-A:HIS:456:CB:4063, V-B:LYS:471:CD:9191, H-A:GLY:544:O:4911, V-A:VAL:458:CG2:4085, V-A:HIS:456:C:4059, V-A:VAL:457:C:4071, V-B:LYS:471:CE:9192, V-B:HIS:456:C:9033, V-B:HIS:456:CD2:9040, V-A:LYS:547:CE:4948, V-B:LYS:471:CG:9190, H-A:LYS:547:NZ:4949, V-B:HIS:456:CG:9038, V-B:HIS:456:CB:9037, V-A:HIS:456:CA:4061, H-B:LYS:547:NZ:9923, V-B:ASP:473:CG:9212, V-A:GLY:544:C:4910, V-B:LYS:547:CE:9922, V-A:GLY:544:CA:4912, V-A:LYS:547:CD:4947"]

$$$$
1k_Grossjean_2025
     RDKit          3D

 50 50  0  0  0  0  0  0  0  0999 V2000
  128.4850  123.1320   57.1580 C   0  0  0  0  0  0  0  0  0  0  0  0
  127.9900  122.5110   55.9820 O   0  0  0  0  0  0  0  0  0  0  0  0
  127.6530  123.4330   54.9540 C   0  0  0  0  0  0  0  0  0  0  0  0
  126.1310  123.6290   54.9210 C   0  0  0  0  0  0  0  0  0  0  0  0
  125.5210  122.7500   55.8570 O   0  0  0  0  0  0  0  0  0  0  0  0
  124.2560  123.2020   56.3240 C   0  0  0  0  0  0  0  0  0  0  0  0
  124.4630  124.2910   57.3840 C   0  0  0  0  0  0  0  0  0  0  0  0
  125.8470  124.3950   57.6930 O   0  0  0  0  0  0  0  0  0  0  0  0
  126.1580  125.4700   58.5690 C   0  0  0  0  0  0  0  0  0  0  0  0
  126.3340  126.7650   57.7540 C   0  0  0  0  0  0  0  0  0  0  0  0
  126.5860  127.9530   58.5720 N   0  0  0  0  0  0  0  0  0  0  0  0
  127.4560  128.9320   58.2690 C   0  0  0  0  0  0  0  0  0  0  0  0
  128.1410  128.9300   57.2440 O   0  0  0  0  0  0  0  0  0  0  0  0
  127.5530  130.0730   59.2940 C   0  0  0  0  0  0  0  0  0  0  0  0
  127.8730  131.7330   58.6010 S   0  0  0  0  0  0  0  0  0  0  0  0
  129.3330  131.6690   57.5730 C   0  0  0  0  0  0  0  0  0  0  0  0
  129.1190  131.7370   56.2330 N   0  0  0  0  0  0  0  0  0  0  0  0
  130.1810  131.6840   55.3980 C   0  0  0  0  0  0  0  0  0  0  0  0
  129.8600  131.7560   53.9180 C   0  0  0  0  0  0  0  0  0  0  0  0
  131.4920  131.5710   55.8550 C   0  0  0  0  0  0  0  0  0  0  0  0
  131.7270  131.5070   57.2330 C   0  0  0  0  0  0  0  0  0  0  0  0
  133.1710  131.3830   57.7130 C   0  0  0  0  0  0  0  0  0  0  0  0
  130.6310  131.5570   58.1230 C   0  0  0  0  0  0  0  0  0  0  0  0
  130.8480  131.4890   59.5710 C   0  0  0  0  0  0  0  0  0  0  0  0
  131.0200  131.4340   60.7140 N   0  0  0  0  0  0  0  0  0  0  0  0
  128.0772  122.6204   58.0423 H   0  0  0  0  0  0  0  0  0  0  0  0
  129.5831  123.0687   57.1717 H   0  0  0  0  0  0  0  0  0  0  0  0
  128.1784  124.1883   57.1717 H   0  0  0  0  0  0  0  0  0  0  0  0
  128.1427  124.3979   55.1519 H   0  0  0  0  0  0  0  0  0  0  0  0
  127.9933  123.0411   53.9841 H   0  0  0  0  0  0  0  0  0  0  0  0
  125.8893  124.6695   55.1834 H   0  0  0  0  0  0  0  0  0  0  0  0
  125.7542  123.4092   53.9112 H   0  0  0  0  0  0  0  0  0  0  0  0
  123.6800  123.6141   55.4823 H   0  0  0  0  0  0  0  0  0  0  0  0
  123.7053  122.3588   56.7665 H   0  0  0  0  0  0  0  0  0  0  0  0
  124.1007  125.2543   56.9956 H   0  0  0  0  0  0  0  0  0  0  0  0
  123.9031  124.0283   58.2936 H   0  0  0  0  0  0  0  0  0  0  0  0
  125.3401  125.6010   59.2928 H   0  0  0  0  0  0  0  0  0  0  0  0
  127.0917  125.2460   59.1058 H   0  0  0  0  0  0  0  0  0  0  0  0
  127.1840  126.6299   57.0689 H   0  0  0  0  0  0  0  0  0  0  0  0
  125.3863  126.9388   57.2233 H   0  0  0  0  0  0  0  0  0  0  0  0
  126.0600  128.0230   59.4310 H   0  0  0  0  0  0  0  0  0  0  0  0
  126.6020  130.1142   59.8453 H   0  0  0  0  0  0  0  0  0  0  0  0
  128.4232  129.8376   59.9243 H   0  0  0  0  0  0  0  0  0  0  0  0
  128.7945  131.9950   53.7851 H   0  0  0  0  0  0  0  0  0  0  0  0
  130.4729  132.5390   53.4476 H   0  0  0  0  0  0  0  0  0  0  0  0
  130.0797  130.7863   53.4476 H   0  0  0  0  0  0  0  0  0  0  0  0
  132.3299  131.5327   55.1434 H   0  0  0  0  0  0  0  0  0  0  0  0
  133.1929  131.3811   58.8128 H   0  0  0  0  0  0  0  0  0  0  0  0
  133.6034  130.4444   57.3360 H   0  0  0  0  0  0  0  0  0  0  0  0
  133.7571  132.2341   57.3360 H   0  0  0  0  0  0  0  0  0  0  0  0
  1  2  1  0
  2  3  1  0
  3  4  1  0
  4  5  1  0
  5  6  1  0
  6  7  1  0
  7  8  1  0
  8  9  1  0
  9 10  1  0
 10 11  1  0
 11 12  1  0
 12 13  2  0
 12 14  1  0
 14 15  1  0
 15 16  1  0
 16 17  2  0
 17 18  1  0
 18 19  1  0
 18 20  2  0
 20 21  1  0
 21 22  1  0
 21 23  2  0
 23 24  1  0
 24 25  3  0
 23 16  1  0
  1 26  1  0
  1 27  1  0
  1 28  1  0
  3 29  1  0
  3 30  1  0
  4 31  1  0
  4 32  1  0
  6 33  1  0
  6 34  1  0
  7 35  1  0
  7 36  1  0
  9 37  1  0
  9 38  1  0
 10 39  1  0
 10 40  1  0
 11 41  1  0
 14 42  1  0
 14 43  1  0
 19 44  1  0
 19 45  1  0
 19 46  1  0
 20 47  1  0
 22 48  1  0
 22 49  1  0
 22 50  1  0
M  END
>  <Binding energies>  (1) 
[-6.38]

>  <Ligand effiencies>  (1) 
[-0.24538461538461537]

>  <Interactions>  (1) 
["V-B:PRO:540:N:9856, V-B:TYR:539:CZ:9849, V-B:ILE:538:CA:9832, V-B:ASP:366:CG:8185, V-B:PRO:540:CB:9857, V-B:TYR:539:CE2:9848, V-B:TYR:539:CE1:9847, V-B:TYR:539:CD1:9845, V-B:TYR:539:CD2:9846, V-A:PRO:540:N:4882, V-A:ILE:538:CA:4858, V-A:LEU:363:CA:3183, V-A:TYR:539:C:4865, V-A:ILE:538:CB:4860, V-A:PRO:540:CA:4881, V-A:ILE:538:CG2:4861, V-A:PRO:540:CB:4883, V-B:TYR:531:CE2:9765, V-B:LEU:363:CD1:8161, V-B:TYR:531:CZ:9766, H-B:TYR:539:N:9842, H-B:TYR:531:OH:9767, V-B:TYR:539:C:9839, V-B:ILE:538:CG2:9835, H-B:ASP:366:OD2:8187, V-B:PRO:540:CD:9859, V-B:ILE:538:CB:9834, V-B:PRO:540:CG:9858, H-A:ALA:541:N:4889, V-A:MET:535:CG:4831, V-A:MET:535:CB:4830, V-B:TYR:539:CG:9844, H-B:ASP:366:OD1:8186"]

$$$$
1l_Grossjean_2025
     RDKit          3D

 30 30  0  0  0  0  0  0  0  0999 V2000
  133.6300  126.4790   74.1530 C   0  0  0  0  0  0  0  0  0  0  0  0
  132.3620  125.8860   73.9080 O   0  0  0  0  0  0  0  0  0  0  0  0
  131.4330  126.8710   73.5760 N   0  0  0  0  0  0  0  0  0  0  0  0
  130.2720  126.5050   72.9980 C   0  0  0  0  0  0  0  0  0  0  0  0
  129.8720  125.3390   72.9450 O   0  0  0  0  0  0  0  0  0  0  0  0
  129.4470  127.6580   72.4080 C   0  0  0  0  0  0  0  0  0  0  0  0
  127.6700  127.6250   72.8210 S   0  0  0  0  0  0  0  0  0  0  0  0
  127.2550  129.1700   73.6120 C   0  0  0  0  0  0  0  0  0  0  0  0
  128.1270  130.1910   73.4060 N   0  0  0  0  0  0  0  0  0  0  0  0
  127.8730  131.3920   73.9780 C   0  0  0  0  0  0  0  0  0  0  0  0
  128.8920  132.4820   73.7010 C   0  0  0  0  0  0  0  0  0  0  0  0
  126.7520  131.6260   74.7700 C   0  0  0  0  0  0  0  0  0  0  0  0
  125.8460  130.5830   74.9880 C   0  0  0  0  0  0  0  0  0  0  0  0
  124.6220  130.8620   75.8600 C   0  0  0  0  0  0  0  0  0  0  0  0
  126.0910  129.3220   74.4020 C   0  0  0  0  0  0  0  0  0  0  0  0
  125.1580  128.2100   74.6140 C   0  0  0  0  0  0  0  0  0  0  0  0
  124.4220  127.3350   74.7830 N   0  0  0  0  0  0  0  0  0  0  0  0
  133.7952  126.5563   75.2378 H   0  0  0  0  0  0  0  0  0  0  0  0
  134.4186  125.8563   73.7054 H   0  0  0  0  0  0  0  0  0  0  0  0
  133.6577  127.4834   73.7054 H   0  0  0  0  0  0  0  0  0  0  0  0
  131.8640  127.7750   73.4480 H   0  0  0  0  0  0  0  0  0  0  0  0
  129.8666  128.6038   72.7814 H   0  0  0  0  0  0  0  0  0  0  0  0
  129.5105  127.5534   71.3148 H   0  0  0  0  0  0  0  0  0  0  0  0
  129.2675  132.8836   74.6537 H   0  0  0  0  0  0  0  0  0  0  0  0
  129.7297  132.0629   73.1242 H   0  0  0  0  0  0  0  0  0  0  0  0
  128.4175  133.2896   73.1242 H   0  0  0  0  0  0  0  0  0  0  0  0
  126.5815  132.6163   75.2175 H   0  0  0  0  0  0  0  0  0  0  0  0
  124.9052  130.7974   76.9209 H   0  0  0  0  0  0  0  0  0  0  0  0
  124.2396  131.8704   75.6433 H   0  0  0  0  0  0  0  0  0  0  0  0
  123.8404  130.1190   75.6433 H   0  0  0  0  0  0  0  0  0  0  0  0
  1  2  1  0
  2  3  1  0
  3  4  1  0
  4  5  2  0
  4  6  1  0
  6  7  1  0
  7  8  1  0
  8  9  2  0
  9 10  1  0
 10 11  1  0
 10 12  2  0
 12 13  1  0
 13 14  1  0
 13 15  2  0
 15 16  1  0
 16 17  3  0
 15  8  1  0
  1 18  1  0
  1 19  1  0
  1 20  1  0
  3 21  1  0
  6 22  1  0
  6 23  1  0
 11 24  1  0
 11 25  1  0
 11 26  1  0
 12 27  1  0
 14 28  1  0
 14 29  1  0
 14 30  1  0
M  END
>  <Binding energies>  (1) 
[-6.82]

>  <Ligand effiencies>  (1) 
[-0.3788888888888889]

>  <Interactions>  (1) 
["V-B:VAL:458:CG2:9059, V-A:HIS:456:CB:4063, V-B:LYS:471:CD:9191, H-A:GLY:544:O:4911, V-A:VAL:458:CG2:4085, V-B:LYS:471:CE:9192, V-B:HIS:456:C:9033, V-B:HIS:456:CD2:9040, V-A:LYS:547:CE:4948, V-B:LYS:471:CG:9190, H-A:LYS:547:NZ:4949, V-B:HIS:456:CG:9038, V-B:HIS:456:CB:9037, H-B:LYS:547:NZ:9923, V-B:ASP:473:CG:9212, V-A:GLY:544:C:4910, V-B:LYS:547:CE:9922, V-A:LYS:547:CG:4946, V-B:LYS:547:CG:9920, V-B:LYS:547:CD:9921, V-A:LYS:547:CD:4947"]

$$$$
1m_Grossjean_2025
     RDKit          3D

 35 35  0  0  0  0  0  0  0  0999 V2000
  130.6780  125.7430   64.8780 C   0  0  0  0  0  0  0  0  0  0  0  0
  131.1580  125.2020   63.6550 O   0  0  0  0  0  0  0  0  0  0  0  0
  132.0240  124.1680   63.6550 C   0  0  0  0  0  0  0  0  0  0  0  0
  133.2480  124.2570   63.7980 O   0  0  0  0  0  0  0  0  0  0  0  0
  131.2970  122.8210   63.4630 C   0  0  0  0  0  0  0  0  0  0  0  0
  130.2240  122.8910   62.4600 N   0  0  0  0  0  0  0  0  0  0  0  0
  130.1150  122.1070   61.3710 C   0  0  0  0  0  0  0  0  0  0  0  0
  130.9380  121.2350   61.0860 O   0  0  0  0  0  0  0  0  0  0  0  0
  128.8910  122.3730   60.4850 C   0  0  0  0  0  0  0  0  0  0  0  0
  129.2310  123.3670   58.9920 S   0  0  0  0  0  0  0  0  0  0  0  0
  127.7230  123.4870   58.0540 C   0  0  0  0  0  0  0  0  0  0  0  0
  127.9130  123.4430   56.7110 N   0  0  0  0  0  0  0  0  0  0  0  0
  126.8350  123.5190   55.8970 C   0  0  0  0  0  0  0  0  0  0  0  0
  127.1250  123.4440   54.4100 C   0  0  0  0  0  0  0  0  0  0  0  0
  125.5360  123.6540   56.3810 C   0  0  0  0  0  0  0  0  0  0  0  0
  125.3290  123.7270   57.7630 C   0  0  0  0  0  0  0  0  0  0  0  0
  123.8980  123.8910   58.2700 C   0  0  0  0  0  0  0  0  0  0  0  0
  126.4410  123.6500   58.6330 C   0  0  0  0  0  0  0  0  0  0  0  0
  126.2520  123.7750   60.0810 C   0  0  0  0  0  0  0  0  0  0  0  0
  126.1030  123.8730   61.2230 N   0  0  0  0  0  0  0  0  0  0  0  0
  131.1466  125.2149   65.7215 H   0  0  0  0  0  0  0  0  0  0  0  0
  130.9297  126.8126   64.9297 H   0  0  0  0  0  0  0  0  0  0  0  0
  129.5861  125.6204   64.9297 H   0  0  0  0  0  0  0  0  0  0  0  0
  132.0312  122.0681   63.1404 H   0  0  0  0  0  0  0  0  0  0  0  0
  130.8347  122.5539   64.4247 H   0  0  0  0  0  0  0  0  0  0  0  0
  129.5230  123.6020   62.6100 H   0  0  0  0  0  0  0  0  0  0  0  0
  128.4824  121.4031   60.1651 H   0  0  0  0  0  0  0  0  0  0  0  0
  128.1878  122.9592   61.0948 H   0  0  0  0  0  0  0  0  0  0  0  0
  128.1794  123.1713   54.2554 H   0  0  0  0  0  0  0  0  0  0  0  0
  126.4781  122.6836   53.9482 H   0  0  0  0  0  0  0  0  0  0  0  0
  126.9278  124.4227   53.9482 H   0  0  0  0  0  0  0  0  0  0  0  0
  124.6845  123.7026   55.6864 H   0  0  0  0  0  0  0  0  0  0  0  0
  123.8965  123.8912   59.3700 H   0  0  0  0  0  0  0  0  0  0  0  0
  123.4856  124.8423   57.9026 H   0  0  0  0  0  0  0  0  0  0  0  0
  123.2811  123.0577   57.9026 H   0  0  0  0  0  0  0  0  0  0  0  0
  1  2  1  0
  2  3  1  0
  3  4  2  0
  3  5  1  0
  5  6  1  0
  6  7  1  0
  7  8  2  0
  7  9  1  0
  9 10  1  0
 10 11  1  0
 11 12  2  0
 12 13  1  0
 13 14  1  0
 13 15  2  0
 15 16  1  0
 16 17  1  0
 16 18  2  0
 18 19  1  0
 19 20  3  0
 18 11  1  0
  1 21  1  0
  1 22  1  0
  1 23  1  0
  5 24  1  0
  5 25  1  0
  6 26  1  0
  9 27  1  0
  9 28  1  0
 14 29  1  0
 14 30  1  0
 14 31  1  0
 15 32  1  0
 17 33  1  0
 17 34  1  0
 17 35  1  0
M  END
>  <Binding energies>  (1) 
[-6.66]

>  <Ligand effiencies>  (1) 
[-0.31714285714285717]

>  <Interactions>  (1) 
["V-B:PRO:540:N:9856, V-B:LEU:363:CA:8157, H-B:GLU:543:OE1:9881, V-B:ILE:538:CA:9832, V-B:ALA:541:CB:9864, V-B:PRO:540:CB:9857, V-B:PRO:540:CA:9855, V-B:PRO:540:C:9853, H-B:ALA:541:N:9863, V-A:LEU:475:CD2:4257, V-B:GLU:543:CD:9880, V-B:TYR:539:C:9839, V-B:ILE:538:CG2:9835, V-B:PRO:540:CD:9859, V-B:ILE:538:CB:9834, H-A:TYR:484:OH:4346, H-A:GLY:454:N:4048, V-A:TYR:484:CZ:4345"]

$$$$
1n_Grossjean_2025
     RDKit          3D

 48 49  0  0  0  0  0  0  0  0999 V2000
  124.0340  123.5470   57.0150 C   0  0  0  0  0  0  0  0  0  0  0  0
  124.9570  123.3490   55.8070 C   0  0  0  0  0  0  0  0  0  0  0  0
  126.1250  122.6490   56.2150 O   0  0  0  0  0  0  0  0  0  0  0  0
  127.1230  123.2800   56.8860 C   0  0  0  0  0  0  0  0  0  0  0  0
  127.7980  122.7400   57.7670 O   0  0  0  0  0  0  0  0  0  0  0  0
  127.3330  124.6990   56.4400 C   0  0  0  0  0  0  0  0  0  0  0  0
  126.9440  125.7910   57.2300 C   0  0  0  0  0  0  0  0  0  0  0  0
  127.1500  127.0930   56.7860 C   0  0  0  0  0  0  0  0  0  0  0  0
  127.7390  127.3330   55.5430 C   0  0  0  0  0  0  0  0  0  0  0  0
  127.8950  128.6870   55.1910 N   0  0  0  0  0  0  0  0  0  0  0  0
  126.9600  129.6130   54.8850 C   0  0  0  0  0  0  0  0  0  0  0  0
  125.7440  129.4220   54.8700 O   0  0  0  0  0  0  0  0  0  0  0  0
  127.4970  131.0080   54.5390 C   0  0  0  0  0  0  0  0  0  0  0  0
  128.9360  130.9810   53.9800 C   0  0  0  0  0  0  0  0  0  0  0  0
  130.0740  132.1600   54.7680 S   0  0  0  0  0  0  0  0  0  0  0  0
  130.0600  131.8340   56.5180 C   0  0  0  0  0  0  0  0  0  0  0  0
  128.8160  131.8320   57.0600 N   0  0  0  0  0  0  0  0  0  0  0  0
  128.6840  131.5780   58.3830 C   0  0  0  0  0  0  0  0  0  0  0  0
  127.2640  131.5810   58.9160 C   0  0  0  0  0  0  0  0  0  0  0  0
  129.7730  131.3260   59.2140 C   0  0  0  0  0  0  0  0  0  0  0  0
  131.0620  131.3470   58.6680 C   0  0  0  0  0  0  0  0  0  0  0  0
  132.2420  131.0810   59.6000 C   0  0  0  0  0  0  0  0  0  0  0  0
  131.2250  131.6140   57.2900 C   0  0  0  0  0  0  0  0  0  0  0  0
  132.5670  131.6920   56.7090 C   0  0  0  0  0  0  0  0  0  0  0  0
  133.6280  131.7540   56.2520 N   0  0  0  0  0  0  0  0  0  0  0  0
  128.1390  126.2460   54.7520 C   0  0  0  0  0  0  0  0  0  0  0  0
  127.9360  124.9440   55.2000 C   0  0  0  0  0  0  0  0  0  0  0  0
  124.6122  123.4230   57.9425 H   0  0  0  0  0  0  0  0  0  0  0  0
  123.6021  124.5582   56.9846 H   0  0  0  0  0  0  0  0  0  0  0  0
  123.2254  122.8019   56.9846 H   0  0  0  0  0  0  0  0  0  0  0  0
  124.4316  122.7676   55.0351 H   0  0  0  0  0  0  0  0  0  0  0  0
  125.2407  124.3294   55.3967 H   0  0  0  0  0  0  0  0  0  0  0  0
  126.4724  125.6163   58.2083 H   0  0  0  0  0  0  0  0  0  0  0  0
  126.8466  127.9400   57.4189 H   0  0  0  0  0  0  0  0  0  0  0  0
  128.8510  129.0110   55.2100 H   0  0  0  0  0  0  0  0  0  0  0  0
  126.8366  131.4602   53.7844 H   0  0  0  0  0  0  0  0  0  0  0  0
  127.5178  131.5921   55.4709 H   0  0  0  0  0  0  0  0  0  0  0  0
  129.3400  129.9676   54.1203 H   0  0  0  0  0  0  0  0  0  0  0  0
  128.8659  131.2738   52.9220 H   0  0  0  0  0  0  0  0  0  0  0  0
  127.2852  131.5810   60.0158 H   0  0  0  0  0  0  0  0  0  0  0  0
  126.7404  132.4803   58.5594 H   0  0  0  0  0  0  0  0  0  0  0  0
  126.7366  130.6840   58.5594 H   0  0  0  0  0  0  0  0  0  0  0  0
  129.6226  131.1138   60.2828 H   0  0  0  0  0  0  0  0  0  0  0  0
  131.9079  131.1563   60.6453 H   0  0  0  0  0  0  0  0  0  0  0  0
  132.6366  130.0714   59.4130 H   0  0  0  0  0  0  0  0  0  0  0  0
  133.0316  131.8237   59.4130 H   0  0  0  0  0  0  0  0  0  0  0  0
  128.6140  126.4229   53.7757 H   0  0  0  0  0  0  0  0  0  0  0  0
  128.2529  124.0977   54.5729 H   0  0  0  0  0  0  0  0  0  0  0  0
  1  2  1  0
  2  3  1  0
  3  4  1  0
  4  5  2  0
  4  6  1  0
  6  7  2  0
  7  8  1  0
  8  9  2  0
  9 10  1  0
 10 11  1  0
 11 12  2  0
 11 13  1  0
 13 14  1  0
 14 15  1  0
 15 16  1  0
 16 17  2  0
 17 18  1  0
 18 19  1  0
 18 20  2  0
 20 21  1  0
 21 22  1  0
 21 23  2  0
 23 24  1  0
 24 25  3  0
  9 26  1  0
 26 27  2  0
 27  6  1  0
 23 16  1  0
  1 28  1  0
  1 29  1  0
  1 30  1  0
  2 31  1  0
  2 32  1  0
  7 33  1  0
  8 34  1  0
 10 35  1  0
 13 36  1  0
 13 37  1  0
 14 38  1  0
 14 39  1  0
 19 40  1  0
 19 41  1  0
 19 42  1  0
 20 43  1  0
 22 44  1  0
 22 45  1  0
 22 46  1  0
 26 47  1  0
 27 48  1  0
M  END
>  <Binding energies>  (1) 
[-8.63]

>  <Ligand effiencies>  (1) 
[-0.3082142857142857]

>  <Interactions>  (1) 
["V-B:PRO:540:N:9856, V-B:ILE:538:CA:9832, V-B:PRO:540:CB:9857, V-B:PRO:540:CA:9855, V-A:TYR:539:CE1:4873, V-A:PRO:540:N:4882, H-A:TYR:539:N:4868, H-A:MET:535:SD:4832, V-A:TYR:539:CZ:4875, V-A:TYR:531:CE2:4791, H-A:TYR:531:OH:4793, V-A:TYR:539:C:4865, V-A:PRO:540:CA:4881, V-A:PRO:540:CB:4883, V-B:TYR:531:CE2:9765, V-B:LEU:363:CD1:8161, H-B:TYR:539:N:9842, H-B:TYR:531:OH:9767, V-B:TYR:539:C:9839, V-B:ILE:538:CG2:9835, V-B:PRO:540:CD:9859, V-B:ILE:538:CB:9834, V-B:PRO:540:CG:9858, V-A:MET:535:CG:4831, V-A:PRO:540:CD:4885, V-A:TYR:539:CE2:4874, H-A:TYR:539:OH:4876, V-A:TYR:539:CD2:4872"]

$$$$
1o_Grossjean_2025
     RDKit          3D

 45 46  0  0  0  0  0  0  0  0999 V2000
  132.0830  132.0080   55.8600 C   0  0  0  0  0  0  0  0  0  0  0  0
  130.9990  132.8300   56.2680 O   0  0  0  0  0  0  0  0  0  0  0  0
  129.8210  132.2850   56.6680 C   0  0  0  0  0  0  0  0  0  0  0  0
  129.0160  132.8680   57.4010 O   0  0  0  0  0  0  0  0  0  0  0  0
  129.5910  130.9040   56.1260 C   0  0  0  0  0  0  0  0  0  0  0  0
  130.0950  129.7620   56.7660 C   0  0  0  0  0  0  0  0  0  0  0  0
  129.8610  128.4940   56.2380 C   0  0  0  0  0  0  0  0  0  0  0  0
  129.1270  128.3420   55.0610 C   0  0  0  0  0  0  0  0  0  0  0  0
  128.9430  127.0160   54.6220 N   0  0  0  0  0  0  0  0  0  0  0  0
  129.8300  125.9990   54.5450 C   0  0  0  0  0  0  0  0  0  0  0  0
  131.0050  126.0530   54.9080 O   0  0  0  0  0  0  0  0  0  0  0  0
  129.2770  124.6820   53.9810 C   0  0  0  0  0  0  0  0  0  0  0  0
  127.7370  124.6090   53.9970 C   0  0  0  0  0  0  0  0  0  0  0  0
  127.0770  123.1280   54.8170 S   0  0  0  0  0  0  0  0  0  0  0  0
  127.1300  123.3880   56.5790 C   0  0  0  0  0  0  0  0  0  0  0  0
  128.3850  123.3500   57.0940 N   0  0  0  0  0  0  0  0  0  0  0  0
  128.5500  123.5440   58.4230 C   0  0  0  0  0  0  0  0  0  0  0  0
  129.9830  123.5010   58.9220 C   0  0  0  0  0  0  0  0  0  0  0  0
  127.4820  123.7680   59.2880 C   0  0  0  0  0  0  0  0  0  0  0  0
  126.1820  123.7840   58.7730 C   0  0  0  0  0  0  0  0  0  0  0  0
  125.0260  124.0180   59.7440 C   0  0  0  0  0  0  0  0  0  0  0  0
  125.9840  123.5800   57.3880 C   0  0  0  0  0  0  0  0  0  0  0  0
  124.6260  123.5340   56.8400 C   0  0  0  0  0  0  0  0  0  0  0  0
  123.5530  123.4990   56.4100 N   0  0  0  0  0  0  0  0  0  0  0  0
  128.6150  129.4790   54.4190 C   0  0  0  0  0  0  0  0  0  0  0  0
  128.8490  130.7450   54.9480 C   0  0  0  0  0  0  0  0  0  0  0  0
  132.6002  131.6158   56.7480 H   0  0  0  0  0  0  0  0  0  0  0  0
  131.7015  131.1701   55.2580 H   0  0  0  0  0  0  0  0  0  0  0  0
  132.7868  132.6014   55.2580 H   0  0  0  0  0  0  0  0  0  0  0  0
  130.6794  129.8684   57.6918 H   0  0  0  0  0  0  0  0  0  0  0  0
  130.2577  127.6064   56.7526 H   0  0  0  0  0  0  0  0  0  0  0  0
  127.9960  126.8000   54.3470 H   0  0  0  0  0  0  0  0  0  0  0  0
  129.6205  124.5762   52.9414 H   0  0  0  0  0  0  0  0  0  0  0  0
  129.6477  123.8712   54.6254 H   0  0  0  0  0  0  0  0  0  0  0  0
  127.3539  125.4957   54.5233 H   0  0  0  0  0  0  0  0  0  0  0  0
  127.4091  124.5652   52.9479 H   0  0  0  0  0  0  0  0  0  0  0  0
  129.9884  123.5008   60.0220 H   0  0  0  0  0  0  0  0  0  0  0  0
  130.4726  122.5878   58.5528 H   0  0  0  0  0  0  0  0  0  0  0  0
  130.5265  124.3832   58.5528 H   0  0  0  0  0  0  0  0  0  0  0  0
  127.6585  123.9301   60.3616 H   0  0  0  0  0  0  0  0  0  0  0  0
  125.3946  123.9434   60.7777 H   0  0  0  0  0  0  0  0  0  0  0  0
  124.6037  125.0198   59.5767 H   0  0  0  0  0  0  0  0  0  0  0  0
  124.2473  123.2593   59.5767 H   0  0  0  0  0  0  0  0  0  0  0  0
  128.0273  129.3700   53.4956 H   0  0  0  0  0  0  0  0  0  0  0  0
  128.4467  131.6312   54.4353 H   0  0  0  0  0  0  0  0  0  0  0  0
  1  2  1  0
  2  3  1  0
  3  4  2  0
  3  5  1  0
  5  6  2  0
  6  7  1  0
  7  8  2  0
  8  9  1  0
  9 10  1  0
 10 11  2  0
 10 12  1  0
 12 13  1  0
 13 14  1  0
 14 15  1  0
 15 16  2  0
 16 17  1  0
 17 18  1  0
 17 19  2  0
 19 20  1  0
 20 21  1  0
 20 22  2  0
 22 23  1  0
 23 24  3  0
  8 25  1  0
 25 26  2  0
 26  5  1  0
 22 15  1  0
  1 27  1  0
  1 28  1  0
  1 29  1  0
  6 30  1  0
  7 31  1  0
  9 32  1  0
 12 33  1  0
 12 34  1  0
 13 35  1  0
 13 36  1  0
 18 37  1  0
 18 38  1  0
 18 39  1  0
 19 40  1  0
 21 41  1  0
 21 42  1  0
 21 43  1  0
 25 44  1  0
 26 45  1  0
M  END
>  <Binding energies>  (1) 
[-8.53]

>  <Ligand effiencies>  (1) 
[-0.3159259259259259]

>  <Interactions>  (1) 
["V-B:PRO:540:N:9856, V-B:PRO:540:CB:9857, V-B:PRO:540:CA:9855, V-B:TYR:539:CE2:9848, V-B:TYR:539:CE1:9847, V-B:TYR:539:CD2:9846, V-A:PRO:540:N:4882, H-A:TYR:539:N:4868, H-A:MET:535:SD:4832, V-A:TYR:531:CE2:4791, H-A:TYR:531:OH:4793, V-A:TYR:539:C:4865, V-A:ILE:538:CB:4860, V-A:ILE:538:CG2:4861, V-B:TYR:531:CE2:9765, H-B:TYR:539:N:9842, H-B:MET:535:SD:9806, H-B:TYR:531:OH:9767, V-B:TYR:539:C:9839, V-B:PRO:540:CD:9859, V-A:PRO:540:CD:4885, V-A:TYR:539:CA:4867, H-B:TYR:539:OH:9850, V-B:MET:535:CG:9805, V-B:MET:535:CB:9804"]

$$$$
1p_Grossjean_2025
     RDKit          3D

 35 36  0  0  0  0  0  0  0  0999 V2000
  125.3820  124.0380   62.2540 C   0  0  0  0  0  0  0  0  0  0  0  0
  125.6210  123.8830   60.7640 C   0  0  0  0  0  0  0  0  0  0  0  0
  124.6210  124.1630   59.8340 C   0  0  0  0  0  0  0  0  0  0  0  0
  124.8920  123.9900   58.4720 C   0  0  0  0  0  0  0  0  0  0  0  0
  123.7770  124.2880   57.4710 C   0  0  0  0  0  0  0  0  0  0  0  0
  126.1730  123.5460   58.0740 C   0  0  0  0  0  0  0  0  0  0  0  0
  126.4670  123.3120   56.6590 C   0  0  0  0  0  0  0  0  0  0  0  0
  126.6980  123.1280   55.5400 N   0  0  0  0  0  0  0  0  0  0  0  0
  127.1340  123.3090   59.0860 C   0  0  0  0  0  0  0  0  0  0  0  0
  128.7930  122.7590   58.7580 S   0  0  0  0  0  0  0  0  0  0  0  0
  129.8270  123.3590   60.1260 C   0  0  0  0  0  0  0  0  0  0  0  0
  130.2700  122.2530   61.1020 C   0  0  0  0  0  0  0  0  0  0  0  0
  131.3980  122.6870   62.0510 C   0  0  0  0  0  0  0  0  0  0  0  0
  132.4680  122.0770   62.0410 O   0  0  0  0  0  0  0  0  0  0  0  0
  131.1210  123.7500   62.8390 N   0  0  0  0  0  0  0  0  0  0  0  0
  131.9570  124.3410   63.7770 C   0  0  0  0  0  0  0  0  0  0  0  0
  131.4840  125.0480   64.8830 C   0  0  0  0  0  0  0  0  0  0  0  0
  132.6120  125.4650   65.5520 C   0  0  0  0  0  0  0  0  0  0  0  0
  133.7070  125.0350   64.8830 O   0  0  0  0  0  0  0  0  0  0  0  0
  133.2800  124.3250   63.7600 N   0  0  0  0  0  0  0  0  0  0  0  0
  126.8550  123.4590   60.4050 N   0  0  0  0  0  0  0  0  0  0  0  0
  126.1789  123.5212   62.8089 H   0  0  0  0  0  0  0  0  0  0  0  0
  125.3856  125.1061   62.5168 H   0  0  0  0  0  0  0  0  0  0  0  0
  124.4082  123.5991   62.5168 H   0  0  0  0  0  0  0  0  0  0  0  0
  123.6331  124.5149   60.1660 H   0  0  0  0  0  0  0  0  0  0  0  0
  122.8529  124.5350   58.0142 H   0  0  0  0  0  0  0  0  0  0  0  0
  124.0695  125.1395   56.8390 H   0  0  0  0  0  0  0  0  0  0  0  0
  123.6057  123.4041   56.8390 H   0  0  0  0  0  0  0  0  0  0  0  0
  130.7270  123.8272   59.7009 H   0  0  0  0  0  0  0  0  0  0  0  0
  129.2154  124.0687   60.7024 H   0  0  0  0  0  0  0  0  0  0  0  0
  129.4014  121.9548   61.7074 H   0  0  0  0  0  0  0  0  0  0  0  0
  130.6604  121.4233   60.4943 H   0  0  0  0  0  0  0  0  0  0  0  0
  130.2040  124.1640   62.7530 H   0  0  0  0  0  0  0  0  0  0  0  0
  130.4356  125.2323   65.1604 H   0  0  0  0  0  0  0  0  0  0  0  0
  132.6220  126.0534   66.4814 H   0  0  0  0  0  0  0  0  0  0  0  0
  1  2  1  0
  2  3  2  0
  3  4  1  0
  4  5  1  0
  4  6  2  0
  6  7  1  0
  7  8  3  0
  6  9  1  0
  9 10  1  0
 10 11  1  0
 11 12  1  0
 12 13  1  0
 13 14  2  0
 13 15  1  0
 15 16  1  0
 16 17  1  0
 17 18  2  0
 18 19  1  0
 19 20  1  0
  9 21  2  0
 21  2  1  0
 20 16  2  0
  1 22  1  0
  1 23  1  0
  1 24  1  0
  3 25  1  0
  5 26  1  0
  5 27  1  0
  5 28  1  0
 11 29  1  0
 11 30  1  0
 12 31  1  0
 12 32  1  0
 15 33  1  0
 17 34  1  0
 18 35  1  0
M  END
>  <Binding energies>  (1) 
[-8.25]

>  <Ligand effiencies>  (1) 
[-0.375]

>  <Interactions>  (1) 
["V-B:PRO:540:N:9856, V-B:LEU:363:CA:8157, H-B:GLU:543:OE1:9881, V-B:ALA:541:CB:9864, V-B:ASP:366:CG:8185, V-B:PRO:540:CB:9857, V-B:PRO:540:CA:9855, V-B:PRO:540:C:9853, H-B:ALA:541:N:9863, V-A:LEU:475:CD2:4257, V-B:ALA:541:C:9860, V-B:ARG:545:CZ:9898, V-B:TYR:531:CE2:9765, V-B:TYR:531:CZ:9766, V-B:ASN:362:CB:8148, H-B:TYR:539:N:9842, V-B:GLU:543:CD:9880, V-B:TYR:539:C:9839, V-A:ARG:545:CZ:4924, V-A:ARG:545:CD:4921, H-A:TYR:484:OH:4346, H-A:ARG:545:NE:4922, H-A:GLY:454:N:4048, V-A:HIS:456:CE1:4068, V-A:ARG:545:CG:4920"]

$$$$
1q_Grossjean_2025
     RDKit          3D

 38 38  0  0  0  0  0  0  0  0999 V2000
  131.0100  125.0050   64.4580 C   0  0  0  0  0  0  0  0  0  0  0  0
  131.4750  124.1730   63.4050 O   0  0  0  0  0  0  0  0  0  0  0  0
  132.8000  124.0840   63.1330 C   0  0  0  0  0  0  0  0  0  0  0  0
  133.6850  124.7710   63.6470 O   0  0  0  0  0  0  0  0  0  0  0  0
  133.1520  123.0350   62.0570 C   0  0  0  0  0  0  0  0  0  0  0  0
  131.9780  122.2900   61.5760 N   0  0  0  0  0  0  0  0  0  0  0  0
  132.0010  121.2410   60.7310 C   0  0  0  0  0  0  0  0  0  0  0  0
  133.0410  120.7780   60.2600 O   0  0  0  0  0  0  0  0  0  0  0  0
  130.6370  120.6240   60.3890 C   0  0  0  0  0  0  0  0  0  0  0  0
  129.4710  121.6320   60.3730 C   0  0  0  0  0  0  0  0  0  0  0  0
  129.7510  123.0510   59.2720 S   0  0  0  0  0  0  0  0  0  0  0  0
  128.3180  123.2520   58.2320 C   0  0  0  0  0  0  0  0  0  0  0  0
  128.5920  123.1300   56.9080 N   0  0  0  0  0  0  0  0  0  0  0  0
  127.5830  123.2660   56.0170 C   0  0  0  0  0  0  0  0  0  0  0  0
  127.9700  123.1330   54.5560 C   0  0  0  0  0  0  0  0  0  0  0  0
  126.2680  123.5160   56.4040 C   0  0  0  0  0  0  0  0  0  0  0  0
  125.9690  123.6180   57.7660 C   0  0  0  0  0  0  0  0  0  0  0  0
  124.5160  123.8750   58.1650 C   0  0  0  0  0  0  0  0  0  0  0  0
  127.0060  123.4780   58.7150 C   0  0  0  0  0  0  0  0  0  0  0  0
  126.7020  123.5250   60.1470 C   0  0  0  0  0  0  0  0  0  0  0  0
  126.4570  123.5630   61.2780 N   0  0  0  0  0  0  0  0  0  0  0  0
  131.2651  124.5486   65.4258 H   0  0  0  0  0  0  0  0  0  0  0  0
  131.4864  125.9936   64.3819 H   0  0  0  0  0  0  0  0  0  0  0  0
  129.9184  125.1172   64.3819 H   0  0  0  0  0  0  0  0  0  0  0  0
  133.6144  123.5507   61.2024 H   0  0  0  0  0  0  0  0  0  0  0  0
  133.8375  122.3082   62.5172 H   0  0  0  0  0  0  0  0  0  0  0  0
  131.0810  122.6240   61.8970 H   0  0  0  0  0  0  0  0  0  0  0  0
  130.7075  120.1629   59.3928 H   0  0  0  0  0  0  0  0  0  0  0  0
  130.4129  119.8956   61.1823 H   0  0  0  0  0  0  0  0  0  0  0  0
  128.5627  121.1079   60.0407 H   0  0  0  0  0  0  0  0  0  0  0  0
  129.3745  122.0299   61.3940 H   0  0  0  0  0  0  0  0  0  0  0  0
  129.0080  122.7763   54.4826 H   0  0  0  0  0  0  0  0  0  0  0  0
  127.2994  122.4138   54.0631 H   0  0  0  0  0  0  0  0  0  0  0  0
  127.8832  124.1125   54.0631 H   0  0  0  0  0  0  0  0  0  0  0  0
  125.4765  123.6314   55.6489 H   0  0  0  0  0  0  0  0  0  0  0  0
  124.4340  123.8895   59.2618 H   0  0  0  0  0  0  0  0  0  0  0  0
  124.1906  124.8446   57.7601 H   0  0  0  0  0  0  0  0  0  0  0  0
  123.8777  123.0758   57.7601 H   0  0  0  0  0  0  0  0  0  0  0  0
  1  2  1  0
  2  3  1  0
  3  4  2  0
  3  5  1  0
  5  6  1  0
  6  7  1  0
  7  8  2  0
  7  9  1  0
  9 10  1  0
 10 11  1  0
 11 12  1  0
 12 13  2  0
 13 14  1  0
 14 15  1  0
 14 16  2  0
 16 17  1  0
 17 18  1  0
 17 19  2  0
 19 20  1  0
 20 21  3  0
 19 12  1  0
  1 22  1  0
  1 23  1  0
  1 24  1  0
  5 25  1  0
  5 26  1  0
  6 27  1  0
  9 28  1  0
  9 29  1  0
 10 30  1  0
 10 31  1  0
 15 32  1  0
 15 33  1  0
 15 34  1  0
 16 35  1  0
 18 36  1  0
 18 37  1  0
 18 38  1  0
M  END
>  <Binding energies>  (1) 
[-6.45]

>  <Ligand effiencies>  (1) 
[-0.2931818181818182]

>  <Interactions>  (1) 
["V-B:PRO:540:N:9856, V-A:TRP:381:CH2:3370, V-B:ILE:538:CA:9832, V-B:ALA:541:CB:9864, V-B:PRO:540:CB:9857, V-B:PRO:540:CA:9855, V-B:PRO:540:C:9853, H-B:ALA:541:N:9863, V-B:TYR:539:CE2:9848, V-A:LEU:475:CD2:4257, V-B:TYR:539:CE1:9847, V-B:TYR:539:CD1:9845, V-B:TYR:539:CD2:9846, V-B:GLU:543:CD:9880, V-B:TYR:539:C:9839, V-A:GLY:454:CA:4047, H-A:TYR:484:OH:4346, H-A:ARG:545:NE:4922, H-A:GLY:454:N:4048, H-A:ARG:545:NH1:4925, V-B:ILE:538:C:9830"]

$$$$
2a_Ghoteimi_2023
     RDKit          3D

 85 90  0  0  0  0  0  0  0  0999 V2000
  127.6420  123.3890   54.5580 C   0  0  0  0  0  0  0  0  0  0  0  0
  126.3120  123.4240   55.3150 C   0  0  0  0  0  0  0  0  0  0  0  0
  126.4800  122.8240   56.5930 O   0  0  0  0  0  0  0  0  0  0  0  0
  126.5730  123.5800   57.7170 C   0  0  0  0  0  0  0  0  0  0  0  0
  125.6780  124.3380   58.1020 O   0  0  0  0  0  0  0  0  0  0  0  0
  127.8710  123.3960   58.4500 C   0  0  0  0  0  0  0  0  0  0  0  0
  129.1060  123.7090   57.8630 C   0  0  0  0  0  0  0  0  0  0  0  0
  130.2900  123.5280   58.5700 C   0  0  0  0  0  0  0  0  0  0  0  0
  130.2680  123.0360   59.8770 C   0  0  0  0  0  0  0  0  0  0  0  0
  131.5240  122.8880   60.4960 N   0  0  0  0  0  0  0  0  0  0  0  0
  132.7010  123.4890   60.2190 C   0  0  0  0  0  0  0  0  0  0  0  0
  132.8930  124.2790   59.2930 O   0  0  0  0  0  0  0  0  0  0  0  0
  133.8670  123.0930   61.1340 C   0  0  0  0  0  0  0  0  0  0  0  0
  134.4290  124.4150   62.2550 S   0  0  0  0  0  0  0  0  0  0  0  0
  132.9510  125.2230   62.8220 C   0  0  0  0  0  0  0  0  0  0  0  0
  132.1160  125.6000   61.8260 N   0  0  0  0  0  0  0  0  0  0  0  0
  130.9570  126.2360   62.1330 C   0  0  0  0  0  0  0  0  0  0  0  0
  130.0890  126.6310   60.9810 C   0  0  0  0  0  0  0  0  0  0  0  0
  130.6390  126.9520   59.7350 C   0  0  0  0  0  0  0  0  0  0  0  0
  129.8270  127.3310   58.6700 C   0  0  0  0  0  0  0  0  0  0  0  0
  128.4330  127.3950   58.8080 C   0  0  0  0  0  0  0  0  0  0  0  0
  127.6320  127.8060   57.7370 N   0  0  0  0  0  0  0  0  0  0  0  0
  128.0800  127.6560   56.3380 C   0  0  0  0  0  0  0  0  0  0  0  0
  126.9480  127.8170   55.3010 C   0  0  0  0  0  0  0  0  0  0  0  0
  126.2870  129.0580   55.4920 O   0  0  0  0  0  0  0  0  0  0  0  0
  125.7060  129.1410   56.7830 C   0  0  0  0  0  0  0  0  0  0  0  0
  126.7980  129.0200   57.8660 C   0  0  0  0  0  0  0  0  0  0  0  0
  127.8870  127.0830   60.0630 C   0  0  0  0  0  0  0  0  0  0  0  0
  128.6990  126.7030   61.1270 C   0  0  0  0  0  0  0  0  0  0  0  0
  130.6040  126.4960   63.4590 C   0  0  0  0  0  0  0  0  0  0  0  0
  131.4530  126.1150   64.5080 C   0  0  0  0  0  0  0  0  0  0  0  0
  131.0180  126.4300   65.9020 C   0  0  0  0  0  0  0  0  0  0  0  0
  129.8570  125.8520   66.4230 C   0  0  0  0  0  0  0  0  0  0  0  0
  129.4320  126.1540   67.7130 C   0  0  0  0  0  0  0  0  0  0  0  0
  130.1570  127.0410   68.5230 C   0  0  0  0  0  0  0  0  0  0  0  0
  129.7380  127.3720   69.8150 N   0  0  0  0  0  0  0  0  0  0  0  0
  130.4880  126.8500   70.9750 C   0  0  0  0  0  0  0  0  0  0  0  0
  130.1700  127.5910   72.2910 C   0  0  0  0  0  0  0  0  0  0  0  0
  128.7730  127.5630   72.5390 O   0  0  0  0  0  0  0  0  0  0  0  0
  128.0410  128.1880   71.4970 C   0  0  0  0  0  0  0  0  0  0  0  0
  128.3060  127.4660   70.1590 C   0  0  0  0  0  0  0  0  0  0  0  0
  131.3150  127.6250   67.9890 C   0  0  0  0  0  0  0  0  0  0  0  0
  131.7390  127.3250   66.6980 C   0  0  0  0  0  0  0  0  0  0  0  0
  132.6630  125.4520   64.1860 C   0  0  0  0  0  0  0  0  0  0  0  0
  133.5650  124.9800   65.2410 C   0  0  0  0  0  0  0  0  0  0  0  0
  134.2760  124.6090   66.0760 N   0  0  0  0  0  0  0  0  0  0  0  0
  129.0370  122.7130   60.4670 C   0  0  0  0  0  0  0  0  0  0  0  0
  127.8520  122.8960   59.7590 C   0  0  0  0  0  0  0  0  0  0  0  0
  128.4733  123.3671   55.2781 H   0  0  0  0  0  0  0  0  0  0  0  0
  127.6806  122.4895   53.9260 H   0  0  0  0  0  0  0  0  0  0  0  0
  127.7279  124.2852   53.9260 H   0  0  0  0  0  0  0  0  0  0  0  0
  125.9879  124.4678   55.4394 H   0  0  0  0  0  0  0  0  0  0  0  0
  125.5508  122.8699   54.7462 H   0  0  0  0  0  0  0  0  0  0  0  0
  129.1383  124.1006   56.8356 H   0  0  0  0  0  0  0  0  0  0  0  0
  131.2516  123.7743   58.0959 H   0  0  0  0  0  0  0  0  0  0  0  0
  131.5370  122.2100   61.2430 H   0  0  0  0  0  0  0  0  0  0  0  0
  133.5483  122.2361   61.7456 H   0  0  0  0  0  0  0  0  0  0  0  0
  134.7163  122.8586   60.4755 H   0  0  0  0  0  0  0  0  0  0  0  0
  131.7290  126.9041   59.5952 H   0  0  0  0  0  0  0  0  0  0  0  0
  130.2867  127.5847   57.7034 H   0  0  0  0  0  0  0  0  0  0  0  0
  128.8467  128.4183   56.1357 H   0  0  0  0  0  0  0  0  0  0  0  0
  128.4671  126.6317   56.2335 H   0  0  0  0  0  0  0  0  0  0  0  0
  127.3749  127.7840   54.2878 H   0  0  0  0  0  0  0  0  0  0  0  0
  126.2235  126.9990   55.4278 H   0  0  0  0  0  0  0  0  0  0  0  0
  125.1938  130.1086   56.8897 H   0  0  0  0  0  0  0  0  0  0  0  0
  124.9849  128.3195   56.9062 H   0  0  0  0  0  0  0  0  0  0  0  0
  127.4537  129.9005   57.7977 H   0  0  0  0  0  0  0  0  0  0  0  0
  126.2828  128.9541   58.8356 H   0  0  0  0  0  0  0  0  0  0  0  0
  126.7981  127.1399   60.2078 H   0  0  0  0  0  0  0  0  0  0  0  0
  128.2420  126.4557   62.0965 H   0  0  0  0  0  0  0  0  0  0  0  0
  129.6536  127.0030   63.6820 H   0  0  0  0  0  0  0  0  0  0  0  0
  129.2736  125.1516   65.8073 H   0  0  0  0  0  0  0  0  0  0  0  0
  128.5141  125.6905   68.1036 H   0  0  0  0  0  0  0  0  0  0  0  0
  130.2368  125.7868   71.1035 H   0  0  0  0  0  0  0  0  0  0  0  0
  131.5574  127.0009   70.7663 H   0  0  0  0  0  0  0  0  0  0  0  0
  130.6973  127.0998   73.1221 H   0  0  0  0  0  0  0  0  0  0  0  0
  130.5004  128.6367   72.2052 H   0  0  0  0  0  0  0  0  0  0  0  0
  126.9666  128.1428   71.7287 H   0  0  0  0  0  0  0  0  0  0  0  0
  128.3602  129.2371   71.4105 H   0  0  0  0  0  0  0  0  0  0  0  0
  127.8963  126.4473   70.2258 H   0  0  0  0  0  0  0  0  0  0  0  0
  127.8216  128.0593   69.3694 H   0  0  0  0  0  0  0  0  0  0  0  0
  131.8968  128.3308   68.5999 H   0  0  0  0  0  0  0  0  0  0  0  0
  132.6498  127.7964   66.3002 H   0  0  0  0  0  0  0  0  0  0  0  0
  129.0077  122.3141   61.4917 H   0  0  0  0  0  0  0  0  0  0  0  0
  126.8910  122.6455   60.2321 H   0  0  0  0  0  0  0  0  0  0  0  0
  1  2  1  0
  2  3  1  0
  3  4  1  0
  4  5  2  0
  4  6  1  0
  6  7  2  0
  7  8  1  0
  8  9  2  0
  9 10  1  0
 10 11  1  0
 11 12  2  0
 11 13  1  0
 13 14  1  0
 14 15  1  0
 15 16  2  0
 16 17  1  0
 17 18  1  0
 18 19  2  0
 19 20  1  0
 20 21  2  0
 21 22  1  0
 22 23  1  0
 23 24  1  0
 24 25  1  0
 25 26  1  0
 26 27  1  0
 21 28  1  0
 28 29  2  0
 17 30  2  0
 30 31  1  0
 31 32  1  0
 32 33  2  0
 33 34  1  0
 34 35  2  0
 35 36  1  0
 36 37  1  0
 37 38  1  0
 38 39  1  0
 39 40  1  0
 40 41  1  0
 35 42  1  0
 42 43  2  0
 31 44  2  0
 44 45  1  0
 45 46  3  0
  9 47  1  0
 47 48  2  0
 48  6  1  0
 44 15  1  0
 29 18  1  0
 43 32  1  0
 27 22  1  0
 41 36  1  0
  1 49  1  0
  1 50  1  0
  1 51  1  0
  2 52  1  0
  2 53  1  0
  7 54  1  0
  8 55  1  0
 10 56  1  0
 13 57  1  0
 13 58  1  0
 19 59  1  0
 20 60  1  0
 23 61  1  0
 23 62  1  0
 24 63  1  0
 24 64  1  0
 26 65  1  0
 26 66  1  0
 27 67  1  0
 27 68  1  0
 28 69  1  0
 29 70  1  0
 30 71  1  0
 33 72  1  0
 34 73  1  0
 37 74  1  0
 37 75  1  0
 38 76  1  0
 38 77  1  0
 40 78  1  0
 40 79  1  0
 41 80  1  0
 41 81  1  0
 42 82  1  0
 43 83  1  0
 47 84  1  0
 48 85  1  0
M  END
>  <Binding energies>  (1) 
[-8.46]

>  <Ligand effiencies>  (1) 
[-0.1726530612244898]

>  <Interactions>  (1) 
["V-B:PRO:540:N:9856, V-B:TYR:539:CZ:9849, V-B:ILE:538:CA:9832, V-B:ALA:541:CB:9864, V-B:PRO:540:CA:9855, V-B:PRO:540:C:9853, V-B:TYR:539:CE2:9848, V-B:TYR:539:CE1:9847, V-B:TYR:539:CD1:9845, V-B:TYR:539:CD2:9846, V-A:ASP:366:CG:3211, V-A:GLU:543:CD:4906, V-B:TYR:531:CZ:9766, H-B:TYR:539:N:9842, V-B:GLU:543:CD:9880, H-B:TYR:531:OH:9767, V-B:TYR:539:C:9839, V-B:ILE:538:CG2:9835, V-B:ILE:538:CB:9834, V-A:ARG:545:CZ:4924, V-A:GLY:454:CA:4047, V-A:ARG:545:CD:4921, H-A:TYR:484:OH:4346, H-A:GLY:454:N:4048, V-B:TYR:531:CE1:9764, H-A:ARG:545:NH2:4926, V-A:ILE:369:CD1:3237, V-B:HIS:456:CE1:9042, V-A:HIS:456:CD2:4066, V-B:GLY:544:C:9884, V-A:HIS:456:CG:4064, V-B:HIS:456:CD2:9040, V-A:LYS:547:CE:4948, V-B:HIS:456:CG:9038, V-A:HIS:456:CE1:4068, V-A:GLY:544:C:4910, V-B:GLU:543:CG:9879, V-B:GLU:543:C:9874, V-A:ARG:545:CG:4920, V-A:GLU:543:CG:4905, V-B:GLU:543:CB:9878, V-A:GLY:544:CA:4912, V-A:GLU:543:C:4900, V-A:ARG:545:CA:4917, H-A:HIS:456:ND1:4065, H-A:ILE:455:N:4053"]

$$$$
2a_Grossjean_2025
     RDKit          3D

 45 46  0  0  0  0  0  0  0  0999 V2000
  123.8770  123.2030   56.6060 C   0  0  0  0  0  0  0  0  0  0  0  0
  124.9640  123.5960   55.6010 C   0  0  0  0  0  0  0  0  0  0  0  0
  126.0680  122.7070   55.7320 O   0  0  0  0  0  0  0  0  0  0  0  0
  127.2510  123.1320   56.2450 C   0  0  0  0  0  0  0  0  0  0  0  0
  127.9910  122.4200   56.9310 O   0  0  0  0  0  0  0  0  0  0  0  0
  127.5820  124.5490   55.8730 C   0  0  0  0  0  0  0  0  0  0  0  0
  127.1500  125.6380   56.6450 C   0  0  0  0  0  0  0  0  0  0  0  0
  127.4720  126.9400   56.2720 C   0  0  0  0  0  0  0  0  0  0  0  0
  128.2230  127.1820   55.1210 C   0  0  0  0  0  0  0  0  0  0  0  0
  128.4770  128.5350   54.8340 N   0  0  0  0  0  0  0  0  0  0  0  0
  127.6310  129.5870   54.7930 C   0  0  0  0  0  0  0  0  0  0  0  0
  126.4160  129.5360   54.9860 O   0  0  0  0  0  0  0  0  0  0  0  0
  128.2750  130.9400   54.4710 C   0  0  0  0  0  0  0  0  0  0  0  0
  128.3820  132.0500   55.9150 S   0  0  0  0  0  0  0  0  0  0  0  0
  129.9790  131.8650   56.7010 C   0  0  0  0  0  0  0  0  0  0  0  0
  131.0550  132.1260   55.9160 N   0  0  0  0  0  0  0  0  0  0  0  0
  132.2940  131.9940   56.4420 C   0  0  0  0  0  0  0  0  0  0  0  0
  133.4470  132.2760   55.4960 C   0  0  0  0  0  0  0  0  0  0  0  0
  132.5130  131.6090   57.7610 C   0  0  0  0  0  0  0  0  0  0  0  0
  131.4150  131.3430   58.5930 C   0  0  0  0  0  0  0  0  0  0  0  0
  131.6740  130.9190   60.0510 C   0  0  0  0  0  0  0  0  0  0  0  0
  132.9750  131.0050   60.3290 F   0  0  0  0  0  0  0  0  0  0  0  0
  131.0000  131.7140   60.8840 F   0  0  0  0  0  0  0  0  0  0  0  0
  131.2930  129.6630   60.2990 F   0  0  0  0  0  0  0  0  0  0  0  0
  130.1100  131.4740   58.0540 C   0  0  0  0  0  0  0  0  0  0  0  0
  128.9270  131.2050   58.8780 C   0  0  0  0  0  0  0  0  0  0  0  0
  127.9930  130.9930   59.5280 N   0  0  0  0  0  0  0  0  0  0  0  0
  128.6650  126.0980   54.3490 C   0  0  0  0  0  0  0  0  0  0  0  0
  128.3460  124.7960   54.7250 C   0  0  0  0  0  0  0  0  0  0  0  0
  124.2567  123.3403   57.6292 H   0  0  0  0  0  0  0  0  0  0  0  0
  122.9914  123.8379   56.4553 H   0  0  0  0  0  0  0  0  0  0  0  0
  123.6022  122.1486   56.4553 H   0  0  0  0  0  0  0  0  0  0  0  0
  124.5605  123.5331   54.5796 H   0  0  0  0  0  0  0  0  0  0  0  0
  125.2945  124.6263   55.7990 H   0  0  0  0  0  0  0  0  0  0  0  0
  126.5525  125.4617   57.5516 H   0  0  0  0  0  0  0  0  0  0  0  0
  127.1318  127.7845   56.8893 H   0  0  0  0  0  0  0  0  0  0  0  0
  129.4510  128.7470   54.6790 H   0  0  0  0  0  0  0  0  0  0  0  0
  129.2920  130.7612   54.0919 H   0  0  0  0  0  0  0  0  0  0  0  0
  127.6360  131.4359   53.7255 H   0  0  0  0  0  0  0  0  0  0  0  0
  134.3534  132.4977   56.0785 H   0  0  0  0  0  0  0  0  0  0  0  0
  133.6250  131.3949   54.8620 H   0  0  0  0  0  0  0  0  0  0  0  0
  133.1982  133.1398   54.8620 H   0  0  0  0  0  0  0  0  0  0  0  0
  133.5382  131.5140   58.1482 H   0  0  0  0  0  0  0  0  0  0  0  0
  129.2650  126.2767   53.4445 H   0  0  0  0  0  0  0  0  0  0  0  0
  128.6978  123.9518   54.1138 H   0  0  0  0  0  0  0  0  0  0  0  0
  1  2  1  0
  2  3  1  0
  3  4  1  0
  4  5  2  0
  4  6  1  0
  6  7  2  0
  7  8  1  0
  8  9  2  0
  9 10  1  0
 10 11  1  0
 11 12  2  0
 11 13  1  0
 13 14  1  0
 14 15  1  0
 15 16  2  0
 16 17  1  0
 17 18  1  0
 17 19  2  0
 19 20  1  0
 20 21  1  0
 21 22  1  0
 21 23  1  0
 21 24  1  0
 20 25  2  0
 25 26  1  0
 26 27  3  0
  9 28  1  0
 28 29  2  0
 29  6  1  0
 25 15  1  0
  1 30  1  0
  1 31  1  0
  1 32  1  0
  2 33  1  0
  2 34  1  0
  7 35  1  0
  8 36  1  0
 10 37  1  0
 13 38  1  0
 13 39  1  0
 18 40  1  0
 18 41  1  0
 18 42  1  0
 19 43  1  0
 28 44  1  0
 29 45  1  0
M  END
>  <Binding energies>  (1) 
[-8.23]

>  <Ligand effiencies>  (1) 
[-0.2743333333333334]

>  <Interactions>  (1) 
["V-B:PRO:540:N:9856, V-B:PRO:540:CB:9857, V-A:TYR:539:CE1:4873, V-A:ASP:366:CG:3211, V-A:PRO:540:N:4882, H-A:TYR:539:N:4868, H-A:MET:535:SD:4832, V-A:TYR:531:CE2:4791, H-A:TYR:531:OH:4793, V-A:TYR:539:C:4865, V-A:LEU:363:CD1:3187, V-A:ILE:538:CB:4860, V-A:PRO:540:CA:4881, V-A:ILE:538:CG2:4861, V-A:TYR:531:CZ:4792, V-A:PRO:540:CB:4883, V-B:TYR:531:CE2:9765, V-B:LEU:363:CD1:8161, V-B:TYR:531:CZ:9766, H-B:TYR:539:N:9842, H-B:TYR:531:OH:9767, V-B:TYR:539:C:9839, V-B:ILE:538:CG2:9835, V-B:PRO:540:CD:9859, V-B:ILE:538:CB:9834, V-B:PRO:540:CG:9858, V-A:PRO:540:CD:4885, V-A:ASN:362:CB:3174, H-A:TYR:539:OH:4876, V-A:PRO:540:C:4879, V-A:ILE:538:CD1:4863"]

$$$$
2aa_Ghoteimi_2023
     RDKit          3D

 85 90  0  0  0  0  0  0  0  0999 V2000
  125.6060  123.1570   55.4980 C   0  0  0  0  0  0  0  0  0  0  0  0
  124.2710  123.1460   56.2490 C   0  0  0  0  0  0  0  0  0  0  0  0
  124.4820  123.5670   57.5910 O   0  0  0  0  0  0  0  0  0  0  0  0
  125.3950  124.5280   57.8900 C   0  0  0  0  0  0  0  0  0  0  0  0
  125.3820  125.6580   57.3910 O   0  0  0  0  0  0  0  0  0  0  0  0
  126.4130  124.0840   58.9010 C   0  0  0  0  0  0  0  0  0  0  0  0
  127.6590  123.5660   58.5190 C   0  0  0  0  0  0  0  0  0  0  0  0
  128.5840  123.1670   59.4800 C   0  0  0  0  0  0  0  0  0  0  0  0
  128.2800  123.2690   60.8390 C   0  0  0  0  0  0  0  0  0  0  0  0
  129.2880  122.8400   61.7240 N   0  0  0  0  0  0  0  0  0  0  0  0
  130.0080  121.6970   61.7270 C   0  0  0  0  0  0  0  0  0  0  0  0
  129.9150  120.7990   60.8880 O   0  0  0  0  0  0  0  0  0  0  0  0
  131.0180  121.5820   62.8760 C   0  0  0  0  0  0  0  0  0  0  0  0
  132.0000  122.6170   62.7600 O   0  0  0  0  0  0  0  0  0  0  0  0
  131.6320  123.9470   62.9100 C   0  0  0  0  0  0  0  0  0  0  0  0
  131.3540  124.3970   64.1650 N   0  0  0  0  0  0  0  0  0  0  0  0
  130.9950  125.6930   64.3470 C   0  0  0  0  0  0  0  0  0  0  0  0
  130.7000  126.1140   65.7520 C   0  0  0  0  0  0  0  0  0  0  0  0
  131.6150  126.8880   66.4730 C   0  0  0  0  0  0  0  0  0  0  0  0
  131.3430  127.2890   67.7790 C   0  0  0  0  0  0  0  0  0  0  0  0
  130.1370  126.9410   68.4080 C   0  0  0  0  0  0  0  0  0  0  0  0
  129.8530  127.3250   69.7230 N   0  0  0  0  0  0  0  0  0  0  0  0
  128.5070  127.7900   70.1160 C   0  0  0  0  0  0  0  0  0  0  0  0
  128.4680  128.4970   71.4870 C   0  0  0  0  0  0  0  0  0  0  0  0
  129.0240  127.6560   72.4840 O   0  0  0  0  0  0  0  0  0  0  0  0
  130.3780  127.3370   72.1980 C   0  0  0  0  0  0  0  0  0  0  0  0
  130.4730  126.5950   70.8480 C   0  0  0  0  0  0  0  0  0  0  0  0
  129.2320  126.1480   67.6880 C   0  0  0  0  0  0  0  0  0  0  0  0
  129.5070  125.7450   66.3840 C   0  0  0  0  0  0  0  0  0  0  0  0
  130.8890  126.5720   63.2650 C   0  0  0  0  0  0  0  0  0  0  0  0
  131.1590  126.1320   61.9640 C   0  0  0  0  0  0  0  0  0  0  0  0
  131.0040  127.1110   60.8450 C   0  0  0  0  0  0  0  0  0  0  0  0
  130.7850  128.4640   61.1170 C   0  0  0  0  0  0  0  0  0  0  0  0
  130.6200  129.3780   60.0800 C   0  0  0  0  0  0  0  0  0  0  0  0
  130.6550  128.9630   58.7400 C   0  0  0  0  0  0  0  0  0  0  0  0
  130.4950  129.8630   57.6830 N   0  0  0  0  0  0  0  0  0  0  0  0
  131.6240  130.6710   57.1840 C   0  0  0  0  0  0  0  0  0  0  0  0
  131.3530  131.3270   55.8130 C   0  0  0  0  0  0  0  0  0  0  0  0
  130.1640  132.1010   55.8730 O   0  0  0  0  0  0  0  0  0  0  0  0
  129.0390  131.3050   56.2100 C   0  0  0  0  0  0  0  0  0  0  0  0
  129.2480  130.6500   57.5900 C   0  0  0  0  0  0  0  0  0  0  0  0
  130.8820  127.6050   58.4770 C   0  0  0  0  0  0  0  0  0  0  0  0
  131.0470  126.6910   59.5130 C   0  0  0  0  0  0  0  0  0  0  0  0
  131.5550  124.7860   61.7840 C   0  0  0  0  0  0  0  0  0  0  0  0
  131.9040  124.2520   60.4660 C   0  0  0  0  0  0  0  0  0  0  0  0
  132.1810  123.8310   59.4240 N   0  0  0  0  0  0  0  0  0  0  0  0
  127.0390  123.7920   61.2290 C   0  0  0  0  0  0  0  0  0  0  0  0
  126.1170  124.1940   60.2660 C   0  0  0  0  0  0  0  0  0  0  0  0
  126.4340  123.1638   56.2221 H   0  0  0  0  0  0  0  0  0  0  0  0
  125.6787  122.2594   54.8663 H   0  0  0  0  0  0  0  0  0  0  0  0
  125.6639  124.0557   54.8663 H   0  0  0  0  0  0  0  0  0  0  0  0
  123.5664  123.8315   55.7555 H   0  0  0  0  0  0  0  0  0  0  0  0
  123.8542  122.1280   56.2438 H   0  0  0  0  0  0  0  0  0  0  0  0
  127.9075  123.4742   57.4514 H   0  0  0  0  0  0  0  0  0  0  0  0
  129.5604  122.7689   59.1667 H   0  0  0  0  0  0  0  0  0  0  0  0
  129.5240  123.5150   62.4370 H   0  0  0  0  0  0  0  0  0  0  0  0
  130.4920  121.6830   63.8368 H   0  0  0  0  0  0  0  0  0  0  0  0
  131.5144  120.6016   62.8281 H   0  0  0  0  0  0  0  0  0  0  0  0
  132.5636  127.1845   66.0017 H   0  0  0  0  0  0  0  0  0  0  0  0
  132.0854  127.8882   68.3266 H   0  0  0  0  0  0  0  0  0  0  0  0
  128.1468  128.4947   69.3520 H   0  0  0  0  0  0  0  0  0  0  0  0
  127.8707  126.8965   70.1981 H   0  0  0  0  0  0  0  0  0  0  0  0
  129.0487  129.4296   71.4322 H   0  0  0  0  0  0  0  0  0  0  0  0
  127.4231  128.7219   71.7469 H   0  0  0  0  0  0  0  0  0  0  0  0
  130.9673  128.2644   72.1460 H   0  0  0  0  0  0  0  0  0  0  0  0
  130.7716  126.6883   72.9944 H   0  0  0  0  0  0  0  0  0  0  0  0
  131.5358  126.4347   70.6141 H   0  0  0  0  0  0  0  0  0  0  0  0
  129.9205  125.6506   70.9612 H   0  0  0  0  0  0  0  0  0  0  0  0
  128.2885  125.8390   68.1616 H   0  0  0  0  0  0  0  0  0  0  0  0
  128.7756  125.1273   65.8423 H   0  0  0  0  0  0  0  0  0  0  0  0
  130.5913  127.6168   63.4374 H   0  0  0  0  0  0  0  0  0  0  0  0
  130.7426  128.8101   62.1603 H   0  0  0  0  0  0  0  0  0  0  0  0
  130.4599  130.4407   60.3144 H   0  0  0  0  0  0  0  0  0  0  0  0
  131.8333  131.4658   57.9151 H   0  0  0  0  0  0  0  0  0  0  0  0
  132.4772  129.9891   57.0535 H   0  0  0  0  0  0  0  0  0  0  0  0
  132.1987  131.9781   55.5469 H   0  0  0  0  0  0  0  0  0  0  0  0
  131.2348  130.5407   55.0529 H   0  0  0  0  0  0  0  0  0  0  0  0
  128.1406  131.9390   56.2405 H   0  0  0  0  0  0  0  0  0  0  0  0
  128.9154  130.5171   55.4524 H   0  0  0  0  0  0  0  0  0  0  0  0
  129.2787  131.4433   58.3515 H   0  0  0  0  0  0  0  0  0  0  0  0
  128.4117  129.9534   57.7489 H   0  0  0  0  0  0  0  0  0  0  0  0
  130.9305  127.2563   57.4349 H   0  0  0  0  0  0  0  0  0  0  0  0
  131.2127  125.6285   59.2814 H   0  0  0  0  0  0  0  0  0  0  0  0
  126.7933  123.8849   62.2972 H   0  0  0  0  0  0  0  0  0  0  0  0
  125.1453  124.6025   60.5805 H   0  0  0  0  0  0  0  0  0  0  0  0
  1  2  1  0
  2  3  1  0
  3  4  1  0
  4  5  2  0
  4  6  1  0
  6  7  2  0
  7  8  1  0
  8  9  2  0
  9 10  1  0
 10 11  1  0
 11 12  2  0
 11 13  1  0
 13 14  1  0
 14 15  1  0
 15 16  2  0
 16 17  1  0
 17 18  1  0
 18 19  2  0
 19 20  1  0
 20 21  2  0
 21 22  1  0
 22 23  1  0
 23 24  1  0
 24 25  1  0
 25 26  1  0
 26 27  1  0
 21 28  1  0
 28 29  2  0
 17 30  2  0
 30 31  1  0
 31 32  1  0
 32 33  2  0
 33 34  1  0
 34 35  2  0
 35 36  1  0
 36 37  1  0
 37 38  1  0
 38 39  1  0
 39 40  1  0
 40 41  1  0
 35 42  1  0
 42 43  2  0
 31 44  2  0
 44 45  1  0
 45 46  3  0
  9 47  1  0
 47 48  2  0
 48  6  1  0
 44 15  1  0
 29 18  1  0
 43 32  1  0
 27 22  1  0
 41 36  1  0
  1 49  1  0
  1 50  1  0
  1 51  1  0
  2 52  1  0
  2 53  1  0
  7 54  1  0
  8 55  1  0
 10 56  1  0
 13 57  1  0
 13 58  1  0
 19 59  1  0
 20 60  1  0
 23 61  1  0
 23 62  1  0
 24 63  1  0
 24 64  1  0
 26 65  1  0
 26 66  1  0
 27 67  1  0
 27 68  1  0
 28 69  1  0
 29 70  1  0
 30 71  1  0
 33 72  1  0
 34 73  1  0
 37 74  1  0
 37 75  1  0
 38 76  1  0
 38 77  1  0
 40 78  1  0
 40 79  1  0
 41 80  1  0
 41 81  1  0
 42 82  1  0
 43 83  1  0
 47 84  1  0
 48 85  1  0
M  END
>  <Binding energies>  (1) 
[-7.1]

>  <Ligand effiencies>  (1) 
[-0.14489795918367346]

>  <Interactions>  (1) 
["V-B:PRO:540:N:9856, H-B:GLU:543:OE1:9881, V-B:ILE:538:CA:9832, V-B:ALA:541:CB:9864, V-B:PRO:540:CB:9857, V-B:PRO:540:CA:9855, V-A:LEU:475:CD2:4257, V-A:ASP:366:CG:3211, H-A:TYR:539:N:4868, V-A:TYR:531:CZ:4792, V-A:GLU:543:CD:4906, V-B:TYR:531:CE2:9765, V-B:LEU:363:CD1:8161, V-B:GLU:543:CD:9880, H-B:TYR:531:OH:9767, V-B:TYR:539:C:9839, V-B:ILE:538:CG2:9835, V-B:PRO:540:CD:9859, V-B:ILE:538:CB:9834, V-B:PRO:540:CG:9858, V-A:ARG:545:CZ:4924, V-A:ARG:545:CD:4921, H-A:TYR:484:OH:4346, V-B:HIS:456:CE1:9042, V-A:HIS:456:CD2:4066, V-A:HIS:456:CG:4064, V-B:HIS:456:CD2:9040, V-A:LYS:547:CE:4948, H-A:LYS:547:NZ:4949, V-B:HIS:456:CG:9038, V-A:HIS:456:CE1:4068, V-A:GLY:544:C:4910, V-B:GLU:543:CG:9879, V-B:GLU:543:C:9874, V-A:ARG:545:CG:4920, V-A:GLU:543:CG:4905, V-B:GLU:543:CB:9878, V-A:GLY:544:CA:4912, V-B:GLU:543:CA:9876"]

$$$$
2b_Ghoteimi_2023
     RDKit          3D

 72 77  0  0  0  0  0  0  0  0999 V2000
  134.2590  124.6540   66.1010 N   0  0  0  0  0  0  0  0  0  0  0  0
  133.5410  124.9830   65.2560 C   0  0  0  0  0  0  0  0  0  0  0  0
  132.6270  125.4040   64.1890 C   0  0  0  0  0  0  0  0  0  0  0  0
  131.4250  126.0880   64.4990 C   0  0  0  0  0  0  0  0  0  0  0  0
  130.9990  126.4300   65.8880 C   0  0  0  0  0  0  0  0  0  0  0  0
  129.8340  125.8780   66.4240 C   0  0  0  0  0  0  0  0  0  0  0  0
  129.4320  126.1950   67.7190 C   0  0  0  0  0  0  0  0  0  0  0  0
  130.1750  127.0870   68.5070 C   0  0  0  0  0  0  0  0  0  0  0  0
  129.7990  127.4100   69.8120 N   0  0  0  0  0  0  0  0  0  0  0  0
  128.3630  127.4860   70.1490 C   0  0  0  0  0  0  0  0  0  0  0  0
  128.0860  128.2080   71.4840 C   0  0  0  0  0  0  0  0  0  0  0  0
  128.8250  127.6000   72.5320 O   0  0  0  0  0  0  0  0  0  0  0  0
  130.2220  127.6510   72.2860 C   0  0  0  0  0  0  0  0  0  0  0  0
  130.5520  126.9060   70.9770 C   0  0  0  0  0  0  0  0  0  0  0  0
  131.3410  127.6390   67.9590 C   0  0  0  0  0  0  0  0  0  0  0  0
  131.7460  127.3200   66.6660 C   0  0  0  0  0  0  0  0  0  0  0  0
  130.5860  126.4740   63.4460 C   0  0  0  0  0  0  0  0  0  0  0  0
  130.9500  126.2150   62.1210 C   0  0  0  0  0  0  0  0  0  0  0  0
  130.1040  126.6330   60.9600 C   0  0  0  0  0  0  0  0  0  0  0  0
  128.9480  125.9200   60.6260 C   0  0  0  0  0  0  0  0  0  0  0  0
  128.1480  126.3120   59.5560 C   0  0  0  0  0  0  0  0  0  0  0  0
  128.4820  127.4270   58.7710 C   0  0  0  0  0  0  0  0  0  0  0  0
  127.6720  127.8520   57.7120 N   0  0  0  0  0  0  0  0  0  0  0  0
  126.7800  129.0170   57.8880 C   0  0  0  0  0  0  0  0  0  0  0  0
  125.6860  129.1270   56.8050 C   0  0  0  0  0  0  0  0  0  0  0  0
  126.2770  129.1290   55.5150 O   0  0  0  0  0  0  0  0  0  0  0  0
  127.0030  127.9350   55.2740 C   0  0  0  0  0  0  0  0  0  0  0  0
  128.1360  127.7860   56.3120 C   0  0  0  0  0  0  0  0  0  0  0  0
  129.6380  128.1430   59.1130 C   0  0  0  0  0  0  0  0  0  0  0  0
  130.4360  127.7510   60.1850 C   0  0  0  0  0  0  0  0  0  0  0  0
  132.1020  125.5610   61.8260 N   0  0  0  0  0  0  0  0  0  0  0  0
  132.9130  125.1480   62.8290 C   0  0  0  0  0  0  0  0  0  0  0  0
  134.3740  124.3050   62.2630 S   0  0  0  0  0  0  0  0  0  0  0  0
  133.8420  122.7530   61.4780 C   0  0  0  0  0  0  0  0  0  0  0  0
  133.3800  122.9670   60.0360 C   0  0  0  0  0  0  0  0  0  0  0  0
  133.1200  121.9880   59.3330 O   0  0  0  0  0  0  0  0  0  0  0  0
  133.2970  124.2550   59.6370 N   0  0  0  0  0  0  0  0  0  0  0  0
  132.8980  124.7270   58.3940 C   0  0  0  0  0  0  0  0  0  0  0  0
  131.6870  125.3850   58.1840 C   0  0  0  0  0  0  0  0  0  0  0  0
  131.6710  125.6850   56.8420 C   0  0  0  0  0  0  0  0  0  0  0  0
  132.8130  125.2330   56.2740 O   0  0  0  0  0  0  0  0  0  0  0  0
  133.5850  124.6280   57.2690 N   0  0  0  0  0  0  0  0  0  0  0  0
  129.2289  125.1872   65.8185 H   0  0  0  0  0  0  0  0  0  0  0  0
  128.5189  125.7396   68.1300 H   0  0  0  0  0  0  0  0  0  0  0  0
  127.8440  128.0281   69.3448 H   0  0  0  0  0  0  0  0  0  0  0  0
  127.9987  126.4536   70.2557 H   0  0  0  0  0  0  0  0  0  0  0  0
  128.3829  129.2634   71.3948 H   0  0  0  0  0  0  0  0  0  0  0  0
  127.0126  128.1382   71.7141 H   0  0  0  0  0  0  0  0  0  0  0  0
  130.5387  128.7007   72.1980 H   0  0  0  0  0  0  0  0  0  0  0  0
  130.7543  127.1706   73.1202 H   0  0  0  0  0  0  0  0  0  0  0  0
  131.6270  127.0184   70.7729 H   0  0  0  0  0  0  0  0  0  0  0  0
  130.2647  125.8538   71.1199 H   0  0  0  0  0  0  0  0  0  0  0  0
  131.9451  128.3348   68.5598 H   0  0  0  0  0  0  0  0  0  0  0  0
  132.6603  127.7713   66.2532 H   0  0  0  0  0  0  0  0  0  0  0  0
  129.6356  126.9837   63.6625 H   0  0  0  0  0  0  0  0  0  0  0  0
  128.6667  125.0363   61.2175 H   0  0  0  0  0  0  0  0  0  0  0  0
  127.2390  125.7385   59.3218 H   0  0  0  0  0  0  0  0  0  0  0  0
  126.2905  128.9350   58.8697 H   0  0  0  0  0  0  0  0  0  0  0  0
  127.4061  129.9178   57.8066 H   0  0  0  0  0  0  0  0  0  0  0  0
  125.0016  128.2701   56.8905 H   0  0  0  0  0  0  0  0  0  0  0  0
  125.1299  130.0652   56.9483 H   0  0  0  0  0  0  0  0  0  0  0  0
  126.3231  127.0737   55.3510 H   0  0  0  0  0  0  0  0  0  0  0  0
  127.4408  127.9765   54.2657 H   0  0  0  0  0  0  0  0  0  0  0  0
  128.6257  126.8138   56.1541 H   0  0  0  0  0  0  0  0  0  0  0  0
  128.8228  128.6319   56.1612 H   0  0  0  0  0  0  0  0  0  0  0  0
  129.9193  129.0290   58.5249 H   0  0  0  0  0  0  0  0  0  0  0  0
  131.3407  128.3283   60.4265 H   0  0  0  0  0  0  0  0  0  0  0  0
  134.6859  122.0474   61.4791 H   0  0  0  0  0  0  0  0  0  0  0  0
  132.9906  122.3576   62.0515 H   0  0  0  0  0  0  0  0  0  0  0  0
  133.5240  124.9650   60.3170 H   0  0  0  0  0  0  0  0  0  0  0  0
  130.9121  125.6145   58.9302 H   0  0  0  0  0  0  0  0  0  0  0  0
  130.8598  126.2085   56.3148 H   0  0  0  0  0  0  0  0  0  0  0  0
  1  2  3  0
  2  3  1  0
  3  4  2  0
  4  5  1  0
  5  6  2  0
  6  7  1  0
  7  8  2  0
  8  9  1  0
  9 10  1  0
 10 11  1  0
 11 12  1  0
 12 13  1  0
 13 14  1  0
  8 15  1  0
 15 16  2  0
  4 17  1  0
 17 18  2  0
 18 19  1  0
 19 20  2  0
 20 21  1  0
 21 22  2  0
 22 23  1  0
 23 24  1  0
 24 25  1  0
 25 26  1  0
 26 27  1  0
 27 28  1  0
 22 29  1  0
 29 30  2  0
 18 31  1  0
 31 32  2  0
 32 33  1  0
 33 34  1  0
 34 35  1  0
 35 36  2  0
 35 37  1  0
 37 38  1  0
 38 39  1  0
 39 40  2  0
 40 41  1  0
 41 42  1  0
 32  3  1  0
 42 38  2  0
 16  5  1  0
 30 19  1  0
 14  9  1  0
 28 23  1  0
  6 43  1  0
  7 44  1  0
 10 45  1  0
 10 46  1  0
 11 47  1  0
 11 48  1  0
 13 49  1  0
 13 50  1  0
 14 51  1  0
 14 52  1  0
 15 53  1  0
 16 54  1  0
 17 55  1  0
 20 56  1  0
 21 57  1  0
 24 58  1  0
 24 59  1  0
 25 60  1  0
 25 61  1  0
 27 62  1  0
 27 63  1  0
 28 64  1  0
 28 65  1  0
 29 66  1  0
 30 67  1  0
 34 68  1  0
 34 69  1  0
 37 70  1  0
 39 71  1  0
 40 72  1  0
M  END
>  <Binding energies>  (1) 
[-7.89]

>  <Ligand effiencies>  (1) 
[-0.18348837209302324]

>  <Interactions>  (1) 
["V-B:TYR:539:CE2:9848, V-A:ASP:366:CG:3211, H-A:TYR:531:OH:4793, V-A:ASP:366:CB:3210, V-A:GLU:543:CD:4906, V-B:TYR:531:CZ:9766, V-B:GLU:543:CD:9880, H-B:TYR:531:OH:9767, V-A:ARG:545:CZ:4924, H-A:ASP:366:OD2:3213, V-A:GLY:454:CA:4047, V-A:ARG:545:CD:4921, H-A:TYR:484:OH:4346, H-A:GLY:454:N:4048, V-B:TYR:531:CE1:9764, V-B:ASP:366:CB:8184, H-B:TYR:539:OH:9850, H-A:ARG:545:NH2:4926, H-A:ASP:366:OD1:3212, V-A:ILE:369:CG2:3235, V-A:ILE:369:CD1:3237, V-A:ASP:366:CA:3208, V-B:HIS:456:CE1:9042, V-A:HIS:456:CD2:4066, V-B:GLY:544:C:9884, V-A:HIS:456:CG:4064, V-B:HIS:456:CD2:9040, V-A:LYS:547:CE:4948, V-B:HIS:456:CG:9038, V-A:HIS:456:CE1:4068, V-A:GLY:544:C:4910, V-B:GLU:543:CG:9879, V-B:GLU:543:C:9874, V-A:ARG:545:CG:4920, V-A:GLU:543:CG:4905, V-A:TYR:484:CZ:4345, V-B:GLU:543:CB:9878, V-A:GLY:544:CA:4912, V-A:GLU:543:C:4900, V-A:ARG:545:CA:4917, H-A:HIS:456:ND1:4065, H-A:ILE:455:N:4053"]

$$$$
2b_Grossjean_2025
     RDKit          3D

 42 43  0  0  0  0  0  0  0  0999 V2000
  124.7790  123.6830   55.8730 C   0  0  0  0  0  0  0  0  0  0  0  0
  125.7900  122.7570   56.2450 O   0  0  0  0  0  0  0  0  0  0  0  0
  127.0750  123.1580   56.4240 C   0  0  0  0  0  0  0  0  0  0  0  0
  128.0130  122.3750   56.6030 O   0  0  0  0  0  0  0  0  0  0  0  0
  127.2410  124.6500   56.3850 C   0  0  0  0  0  0  0  0  0  0  0  0
  126.9420  125.4580   57.4910 C   0  0  0  0  0  0  0  0  0  0  0  0
  127.1060  126.8390   57.4210 C   0  0  0  0  0  0  0  0  0  0  0  0
  127.5750  127.4380   56.2530 C   0  0  0  0  0  0  0  0  0  0  0  0
  127.6970  128.8410   56.2890 N   0  0  0  0  0  0  0  0  0  0  0  0
  127.3040  129.7160   57.2400 C   0  0  0  0  0  0  0  0  0  0  0  0
  126.7180  129.4200   58.2820 O   0  0  0  0  0  0  0  0  0  0  0  0
  127.6210  131.1850   56.9440 C   0  0  0  0  0  0  0  0  0  0  0  0
  128.2610  132.0860   58.3940 S   0  0  0  0  0  0  0  0  0  0  0  0
  129.9980  131.7260   58.6180 C   0  0  0  0  0  0  0  0  0  0  0  0
  130.3750  131.4010   59.8810 N   0  0  0  0  0  0  0  0  0  0  0  0
  131.6750  131.1220   60.1240 C   0  0  0  0  0  0  0  0  0  0  0  0
  132.0150  130.7800   61.5620 C   0  0  0  0  0  0  0  0  0  0  0  0
  132.6470  131.1460   59.1280 C   0  0  0  0  0  0  0  0  0  0  0  0
  132.2800  131.4720   57.8140 C   0  0  0  0  0  0  0  0  0  0  0  0
  133.3670  131.4890   56.7220 C   0  0  0  0  0  0  0  0  0  0  0  0
  132.8360  131.1560   55.5450 F   0  0  0  0  0  0  0  0  0  0  0  0
  133.9010  132.7080   56.6260 F   0  0  0  0  0  0  0  0  0  0  0  0
  134.3620  130.6340   56.9700 F   0  0  0  0  0  0  0  0  0  0  0  0
  130.9200  131.7740   57.5450 C   0  0  0  0  0  0  0  0  0  0  0  0
  130.4810  132.1270   56.1920 C   0  0  0  0  0  0  0  0  0  0  0  0
  130.1350  132.4060   55.1230 N   0  0  0  0  0  0  0  0  0  0  0  0
  127.8680  126.6380   55.1390 C   0  0  0  0  0  0  0  0  0  0  0  0
  127.7030  125.2570   55.2100 C   0  0  0  0  0  0  0  0  0  0  0  0
  124.3178  124.1054   56.7779 H   0  0  0  0  0  0  0  0  0  0  0  0
  125.2248  124.4926   55.2765 H   0  0  0  0  0  0  0  0  0  0  0  0
  124.0115  123.1680   55.2765 H   0  0  0  0  0  0  0  0  0  0  0  0
  126.5753  124.9979   58.4204 H   0  0  0  0  0  0  0  0  0  0  0  0
  126.8635  127.4622   58.2944 H   0  0  0  0  0  0  0  0  0  0  0  0
  128.0970  129.2430   55.4540 H   0  0  0  0  0  0  0  0  0  0  0  0
  128.3762  131.2259   56.1453 H   0  0  0  0  0  0  0  0  0  0  0  0
  126.6795  131.6698   56.6465 H   0  0  0  0  0  0  0  0  0  0  0  0
  131.4040  131.3946   62.2394 H   0  0  0  0  0  0  0  0  0  0  0  0
  131.8069  129.7154   61.7448 H   0  0  0  0  0  0  0  0  0  0  0  0
  133.0808  130.9819   61.7448 H   0  0  0  0  0  0  0  0  0  0  0  0
  133.6942  130.9113   59.3693 H   0  0  0  0  0  0  0  0  0  0  0  0
  128.2283  127.1015   54.2088 H   0  0  0  0  0  0  0  0  0  0  0  0
  127.9382  124.6356   54.3333 H   0  0  0  0  0  0  0  0  0  0  0  0
  1  2  1  0
  2  3  1  0
  3  4  2  0
  3  5  1  0
  5  6  2  0
  6  7  1  0
  7  8  2  0
  8  9  1  0
  9 10  1  0
 10 11  2  0
 10 12  1  0
 12 13  1  0
 13 14  1  0
 14 15  2  0
 15 16  1  0
 16 17  1  0
 16 18  2  0
 18 19  1  0
 19 20  1  0
 20 21  1  0
 20 22  1  0
 20 23  1  0
 19 24  2  0
 24 25  1  0
 25 26  3  0
  8 27  1  0
 27 28  2  0
 28  5  1  0
 24 14  1  0
  1 29  1  0
  1 30  1  0
  1 31  1  0
  6 32  1  0
  7 33  1  0
  9 34  1  0
 12 35  1  0
 12 36  1  0
 17 37  1  0
 17 38  1  0
 17 39  1  0
 18 40  1  0
 27 41  1  0
 28 42  1  0
M  END
>  <Binding energies>  (1) 
[-7.39]

>  <Ligand effiencies>  (1) 
[-0.25482758620689655]

>  <Interactions>  (1) 
["V-B:PRO:540:N:9856, V-A:TYR:539:CE1:4873, V-A:ASP:366:CG:3211, V-A:PRO:540:N:4882, H-A:TYR:539:N:4868, V-A:TYR:539:CZ:4875, V-A:TYR:531:CE2:4791, V-A:LEU:363:CA:3183, V-A:ASP:366:CB:3210, V-A:TYR:539:C:4865, V-A:LEU:363:CD1:3187, V-A:PRO:540:CA:4881, V-A:ILE:538:CG2:4861, V-A:TYR:531:CZ:4792, V-A:GLU:543:CD:4906, V-A:PRO:540:CB:4883, V-B:TYR:531:CE2:9765, V-B:TYR:531:CZ:9766, H-B:TYR:539:N:9842, V-B:TYR:539:C:9839, V-B:ILE:538:CG2:9835, V-B:ILE:538:CB:9834, V-A:ARG:545:CZ:4924, V-A:LEU:363:CB:3185, V-A:PRO:540:CD:4885, V-A:TYR:539:CE2:4874, V-A:TYR:539:CD2:4872, V-A:LEU:363:C:3181, V-A:PRO:540:CG:4884, V-A:LEU:363:CG:3186"]

$$$$
2c_Ghoteimi_2023
     RDKit          3D

 72 77  0  0  0  0  0  0  0  0999 V2000
  134.6530  125.3960   65.8790 N   0  0  0  0  0  0  0  0  0  0  0  0
  133.7930  125.3090   65.1100 C   0  0  0  0  0  0  0  0  0  0  0  0
  132.7000  125.2030   64.1390 C   0  0  0  0  0  0  0  0  0  0  0  0
  131.3790  125.5720   64.4960 C   0  0  0  0  0  0  0  0  0  0  0  0
  130.9940  126.0820   65.8470 C   0  0  0  0  0  0  0  0  0  0  0  0
  129.8780  125.5610   66.5030 C   0  0  0  0  0  0  0  0  0  0  0  0
  129.5150  126.0280   67.7630 C   0  0  0  0  0  0  0  0  0  0  0  0
  130.2520  127.0400   68.3980 C   0  0  0  0  0  0  0  0  0  0  0  0
  129.9180  127.5090   69.6700 N   0  0  0  0  0  0  0  0  0  0  0  0
  128.5100  127.8350   69.9740 C   0  0  0  0  0  0  0  0  0  0  0  0
  128.3440  128.6910   71.2480 C   0  0  0  0  0  0  0  0  0  0  0  0
  128.9640  128.0470   72.3510 O   0  0  0  0  0  0  0  0  0  0  0  0
  130.3530  127.8550   72.1320 C   0  0  0  0  0  0  0  0  0  0  0  0
  130.5730  126.9780   70.8810 C   0  0  0  0  0  0  0  0  0  0  0  0
  131.3690  127.5600   67.7290 C   0  0  0  0  0  0  0  0  0  0  0  0
  131.7320  127.0920   66.4700 C   0  0  0  0  0  0  0  0  0  0  0  0
  130.3700  125.4550   63.5320 C   0  0  0  0  0  0  0  0  0  0  0  0
  130.6720  125.0090   62.2420 C   0  0  0  0  0  0  0  0  0  0  0  0
  129.6350  124.8830   61.1720 C   0  0  0  0  0  0  0  0  0  0  0  0
  128.6020  123.9460   61.2850 C   0  0  0  0  0  0  0  0  0  0  0  0
  127.6300  123.8280   60.2950 C   0  0  0  0  0  0  0  0  0  0  0  0
  127.6610  124.6360   59.1470 C   0  0  0  0  0  0  0  0  0  0  0  0
  126.6790  124.5470   58.1560 N   0  0  0  0  0  0  0  0  0  0  0  0
  126.9980  123.9180   56.8580 C   0  0  0  0  0  0  0  0  0  0  0  0
  125.9710  124.2300   55.7490 C   0  0  0  0  0  0  0  0  0  0  0  0
  124.6680  123.8690   56.1780 O   0  0  0  0  0  0  0  0  0  0  0  0
  124.2840  124.5900   57.3380 C   0  0  0  0  0  0  0  0  0  0  0  0
  125.2630  124.2940   58.4940 C   0  0  0  0  0  0  0  0  0  0  0  0
  128.6910  125.5820   59.0450 C   0  0  0  0  0  0  0  0  0  0  0  0
  129.6620  125.7000   60.0360 C   0  0  0  0  0  0  0  0  0  0  0  0
  131.9380  124.6580   61.9010 N   0  0  0  0  0  0  0  0  0  0  0  0
  132.9250  124.7320   62.8260 C   0  0  0  0  0  0  0  0  0  0  0  0
  134.5150  124.2240   62.2120 S   0  0  0  0  0  0  0  0  0  0  0  0
  134.3910  124.1120   60.4010 C   0  0  0  0  0  0  0  0  0  0  0  0
  133.3750  123.0580   59.9600 C   0  0  0  0  0  0  0  0  0  0  0  0
  133.2470  122.8070   58.7600 O   0  0  0  0  0  0  0  0  0  0  0  0
  132.6750  122.4710   60.9540 N   0  0  0  0  0  0  0  0  0  0  0  0
  131.7140  121.4800   60.8190 C   0  0  0  0  0  0  0  0  0  0  0  0
  130.4130  121.5900   60.9800 N   0  0  0  0  0  0  0  0  0  0  0  0
  129.8000  120.4430   60.7650 C   0  0  0  0  0  0  0  0  0  0  0  0
  130.6110  119.3660   60.4210 C   0  0  0  0  0  0  0  0  0  0  0  0
  132.2660  119.8960   60.3790 S   0  0  0  0  0  0  0  0  0  0  0  0
  129.2798  124.7743   66.0201 H   0  0  0  0  0  0  0  0  0  0  0  0
  128.6379  125.5978   68.2685 H   0  0  0  0  0  0  0  0  0  0  0  0
  128.0882  128.3898   69.1229 H   0  0  0  0  0  0  0  0  0  0  0  0
  127.9854  126.8842   70.1491 H   0  0  0  0  0  0  0  0  0  0  0  0
  128.8122  129.6737   71.0899 H   0  0  0  0  0  0  0  0  0  0  0  0
  127.2721  128.8177   71.4602 H   0  0  0  0  0  0  0  0  0  0  0  0
  130.8367  128.8315   71.9822 H   0  0  0  0  0  0  0  0  0  0  0  0
  130.7909  127.3526   73.0072 H   0  0  0  0  0  0  0  0  0  0  0  0
  131.6541  126.9077   70.6903 H   0  0  0  0  0  0  0  0  0  0  0  0
  130.1227  125.9963   71.0896 H   0  0  0  0  0  0  0  0  0  0  0  0
  131.9674  128.3498   68.2066 H   0  0  0  0  0  0  0  0  0  0  0  0
  132.6076  127.5208   65.9606 H   0  0  0  0  0  0  0  0  0  0  0  0
  129.3333  125.7157   63.7915 H   0  0  0  0  0  0  0  0  0  0  0  0
  128.5571  123.2929   62.1690 H   0  0  0  0  0  0  0  0  0  0  0  0
  126.8239  123.0891   60.4143 H   0  0  0  0  0  0  0  0  0  0  0  0
  127.9839  124.2790   56.5300 H   0  0  0  0  0  0  0  0  0  0  0  0
  126.9810  122.8294   57.0152 H   0  0  0  0  0  0  0  0  0  0  0  0
  125.9948  125.3063   55.5230 H   0  0  0  0  0  0  0  0  0  0  0  0
  126.2268  123.6534   54.8478 H   0  0  0  0  0  0  0  0  0  0  0  0
  124.2964  125.6676   57.1175 H   0  0  0  0  0  0  0  0  0  0  0  0
  123.2711  124.2808   57.6355 H   0  0  0  0  0  0  0  0  0  0  0  0
  124.9917  124.9299   59.3496 H   0  0  0  0  0  0  0  0  0  0  0  0
  125.1748  123.2215   58.7218 H   0  0  0  0  0  0  0  0  0  0  0  0
  128.7327  126.2426   58.1665 H   0  0  0  0  0  0  0  0  0  0  0  0
  130.4622  126.4465   59.9244 H   0  0  0  0  0  0  0  0  0  0  0  0
  134.0819  125.0906   60.0051 H   0  0  0  0  0  0  0  0  0  0  0  0
  135.3765  123.8178   60.0107 H   0  0  0  0  0  0  0  0  0  0  0  0
  132.8790  122.7570   61.9010 H   0  0  0  0  0  0  0  0  0  0  0  0
  128.7081  120.3429   60.8527 H   0  0  0  0  0  0  0  0  0  0  0  0
  130.2615  118.3446   60.2098 H   0  0  0  0  0  0  0  0  0  0  0  0
  1  2  3  0
  2  3  1  0
  3  4  2  0
  4  5  1  0
  5  6  2  0
  6  7  1  0
  7  8  2  0
  8  9  1  0
  9 10  1  0
 10 11  1  0
 11 12  1  0
 12 13  1  0
 13 14  1  0
  8 15  1  0
 15 16  2  0
  4 17  1  0
 17 18  2  0
 18 19  1  0
 19 20  2  0
 20 21  1  0
 21 22  2  0
 22 23  1  0
 23 24  1  0
 24 25  1  0
 25 26  1  0
 26 27  1  0
 27 28  1  0
 22 29  1  0
 29 30  2  0
 18 31  1  0
 31 32  2  0
 32 33  1  0
 33 34  1  0
 34 35  1  0
 35 36  2  0
 35 37  1  0
 37 38  1  0
 38 39  2  0
 39 40  1  0
 40 41  2  0
 41 42  1  0
 32  3  1  0
 42 38  1  0
 16  5  1  0
 30 19  1  0
 14  9  1  0
 28 23  1  0
  6 43  1  0
  7 44  1  0
 10 45  1  0
 10 46  1  0
 11 47  1  0
 11 48  1  0
 13 49  1  0
 13 50  1  0
 14 51  1  0
 14 52  1  0
 15 53  1  0
 16 54  1  0
 17 55  1  0
 20 56  1  0
 21 57  1  0
 24 58  1  0
 24 59  1  0
 25 60  1  0
 25 61  1  0
 27 62  1  0
 27 63  1  0
 28 64  1  0
 28 65  1  0
 29 66  1  0
 30 67  1  0
 34 68  1  0
 34 69  1  0
 37 70  1  0
 40 71  1  0
 41 72  1  0
M  END
>  <Binding energies>  (1) 
[-6.94]

>  <Ligand effiencies>  (1) 
[-0.16139534883720932]

>  <Interactions>  (1) 
["V-A:TRP:381:CZ2:3368, V-A:TRP:381:CH2:3370, V-B:ALA:541:CB:9864, V-A:PRO:482:CG:4325, V-B:PRO:540:CB:9857, V-B:PRO:540:CA:9855, V-B:TYR:539:CE2:9848, V-A:LEU:475:CD2:4257, V-A:PRO:482:CB:4324, V-B:TYR:539:CD2:9846, V-A:ASP:366:CG:3211, V-A:GLU:543:CD:4906, V-B:TYR:531:CE2:9765, V-B:TYR:531:CZ:9766, V-B:GLU:543:CD:9880, H-B:TYR:531:OH:9767, V-A:ARG:545:CZ:4924, V-A:ARG:545:CD:4921, H-A:TYR:484:OH:4346, H-A:ARG:545:NE:4922, H-A:GLY:454:N:4048, H-B:TYR:539:OH:9850, V-A:ILE:369:CG2:3235, V-A:ILE:369:CD1:3237, V-A:ASP:366:CA:3208, V-B:HIS:456:CE1:9042, V-A:HIS:456:CD2:4066, V-A:HIS:456:CG:4064, V-B:HIS:456:CD2:9040, V-A:LYS:547:CE:4948, H-A:LYS:547:NZ:4949, V-B:HIS:456:CG:9038, V-A:HIS:456:CE1:4068, V-A:GLY:544:C:4910, V-B:GLU:543:CG:9879, V-B:GLU:543:C:9874, V-A:ARG:545:CG:4920, V-A:GLY:453:CA:4042, V-A:GLU:543:CG:4905, V-B:GLU:543:CB:9878, V-A:GLY:544:CA:4912, V-A:GLU:543:C:4900, V-B:GLU:543:CA:9876, V-A:TRP:381:CZ3:3369"]

$$$$
2c_Grossjean_2025
     RDKit          3D

 40 41  0  0  0  0  0  0  0  0999 V2000
  125.3440  122.7560   56.3530 C   0  0  0  0  0  0  0  0  0  0  0  0
  126.7410  122.9260   56.1310 O   0  0  0  0  0  0  0  0  0  0  0  0
  127.2180  124.1690   55.7640 C   0  0  0  0  0  0  0  0  0  0  0  0
  126.8500  125.2420   56.5750 C   0  0  0  0  0  0  0  0  0  0  0  0
  127.2810  126.5340   56.2850 C   0  0  0  0  0  0  0  0  0  0  0  0
  128.0850  126.7670   55.1590 C   0  0  0  0  0  0  0  0  0  0  0  0
  128.5830  128.0320   54.7960 N   0  0  0  0  0  0  0  0  0  0  0  0
  127.9510  129.2240   54.8180 C   0  0  0  0  0  0  0  0  0  0  0  0
  126.7670  129.3850   55.1240 O   0  0  0  0  0  0  0  0  0  0  0  0
  128.8110  130.4210   54.3840 C   0  0  0  0  0  0  0  0  0  0  0  0
  128.7790  131.8600   55.5090 S   0  0  0  0  0  0  0  0  0  0  0  0
  130.0390  131.6620   56.7630 C   0  0  0  0  0  0  0  0  0  0  0  0
  131.3210  131.6600   56.3140 N   0  0  0  0  0  0  0  0  0  0  0  0
  132.3240  131.5050   57.2040 C   0  0  0  0  0  0  0  0  0  0  0  0
  133.7250  131.4970   56.6230 C   0  0  0  0  0  0  0  0  0  0  0  0
  132.1000  131.3560   58.5710 C   0  0  0  0  0  0  0  0  0  0  0  0
  130.7850  131.3620   59.0590 C   0  0  0  0  0  0  0  0  0  0  0  0
  130.5530  131.1980   60.5730 C   0  0  0  0  0  0  0  0  0  0  0  0
  129.9620  130.0280   60.8200 F   0  0  0  0  0  0  0  0  0  0  0  0
  131.7170  131.2400   61.2220 F   0  0  0  0  0  0  0  0  0  0  0  0
  129.7750  132.1560   61.0820 F   0  0  0  0  0  0  0  0  0  0  0  0
  129.7210  131.5190   58.1340 C   0  0  0  0  0  0  0  0  0  0  0  0
  128.3260  131.5300   58.5880 C   0  0  0  0  0  0  0  0  0  0  0  0
  127.2260  131.5400   58.9460 N   0  0  0  0  0  0  0  0  0  0  0  0
  128.4690  125.6940   54.3530 C   0  0  0  0  0  0  0  0  0  0  0  0
  128.0370  124.4040   54.6480 C   0  0  0  0  0  0  0  0  0  0  0  0
  125.1449  122.7318   57.4346 H   0  0  0  0  0  0  0  0  0  0  0  0
  124.7958  123.5941   55.8979 H   0  0  0  0  0  0  0  0  0  0  0  0
  125.0127  121.8109   55.8979 H   0  0  0  0  0  0  0  0  0  0  0  0
  126.2121  125.0659   57.4537 H   0  0  0  0  0  0  0  0  0  0  0  0
  126.9915  127.3707   56.9378 H   0  0  0  0  0  0  0  0  0  0  0  0
  129.5170  128.0230   54.4130 H   0  0  0  0  0  0  0  0  0  0  0  0
  129.8529  130.0779   54.3019 H   0  0  0  0  0  0  0  0  0  0  0  0
  128.3838  130.7712   53.4328 H   0  0  0  0  0  0  0  0  0  0  0  0
  134.4610  131.4928   57.4405 H   0  0  0  0  0  0  0  0  0  0  0  0
  133.8599  130.5981   56.0036 H   0  0  0  0  0  0  0  0  0  0  0  0
  133.8702  132.3943   56.0036 H   0  0  0  0  0  0  0  0  0  0  0  0
  132.9474  131.2347   59.2618 H   0  0  0  0  0  0  0  0  0  0  0  0
  129.1160  125.8686   53.4807 H   0  0  0  0  0  0  0  0  0  0  0  0
  128.3386  123.5649   54.0039 H   0  0  0  0  0  0  0  0  0  0  0  0
  1  2  1  0
  2  3  1  0
  3  4  2  0
  4  5  1  0
  5  6  2  0
  6  7  1  0
  7  8  1  0
  8  9  2  0
  8 10  1  0
 10 11  1  0
 11 12  1  0
 12 13  2  0
 13 14  1  0
 14 15  1  0
 14 16  2  0
 16 17  1  0
 17 18  1  0
 18 19  1  0
 18 20  1  0
 18 21  1  0
 17 22  2  0
 22 23  1  0
 23 24  3  0
  6 25  1  0
 25 26  2  0
 26  3  1  0
 22 12  1  0
  1 27  1  0
  1 28  1  0
  1 29  1  0
  4 30  1  0
  5 31  1  0
  7 32  1  0
 10 33  1  0
 10 34  1  0
 15 35  1  0
 15 36  1  0
 15 37  1  0
 16 38  1  0
 25 39  1  0
 26 40  1  0
M  END
>  <Binding energies>  (1) 
[-6.88]

>  <Ligand effiencies>  (1) 
[-0.2548148148148148]

>  <Interactions>  (1) 
["V-B:PRO:540:N:9856, V-B:ILE:538:CA:9832, V-B:PRO:540:CB:9857, V-B:PRO:540:CA:9855, V-A:PRO:540:N:4882, H-A:MET:535:SD:4832, V-A:TYR:531:CE2:4791, V-A:LEU:363:CA:3183, H-A:TYR:531:OH:4793, V-A:TYR:539:C:4865, V-A:LEU:363:CD1:3187, V-A:PRO:540:CA:4881, V-A:TYR:531:CZ:4792, V-A:PRO:540:CB:4883, H-B:TYR:539:N:9842, H-B:TYR:531:OH:9767, V-B:TYR:539:C:9839, V-B:PRO:540:CD:9859, V-B:ILE:538:CB:9834, V-A:LEU:363:CB:3185, V-A:PRO:540:CD:4885, V-A:TYR:539:CE2:4874, V-A:ALA:541:CB:4890, V-A:PRO:540:C:4879, V-A:TYR:539:CD2:4872, V-A:ALA:541:CA:4888"]

$$$$
2d_Ghoteimi_2023
     RDKit          3D

 68 72  0  0  0  0  0  0  0  0999 V2000
  131.5280  120.9350   60.4240 C   0  0  0  0  0  0  0  0  0  0  0  0
  132.2990  122.0840   60.7420 O   0  0  0  0  0  0  0  0  0  0  0  0
  133.6470  122.0250   60.7510 C   0  0  0  0  0  0  0  0  0  0  0  0
  134.3180  121.0040   60.9270 O   0  0  0  0  0  0  0  0  0  0  0  0
  134.2670  123.4080   60.5020 C   0  0  0  0  0  0  0  0  0  0  0  0
  134.5230  124.3090   62.0690 S   0  0  0  0  0  0  0  0  0  0  0  0
  132.9300  124.7790   62.7110 C   0  0  0  0  0  0  0  0  0  0  0  0
  131.9280  124.6430   61.8090 N   0  0  0  0  0  0  0  0  0  0  0  0
  130.6590  124.9720   62.1600 C   0  0  0  0  0  0  0  0  0  0  0  0
  129.6100  124.8130   61.1060 C   0  0  0  0  0  0  0  0  0  0  0  0
  128.3550  125.4120   61.2550 C   0  0  0  0  0  0  0  0  0  0  0  0
  127.3730  125.2680   60.2780 C   0  0  0  0  0  0  0  0  0  0  0  0
  127.6160  124.5270   59.1110 C   0  0  0  0  0  0  0  0  0  0  0  0
  126.6350  124.3570   58.1270 N   0  0  0  0  0  0  0  0  0  0  0  0
  126.8880  123.5550   56.9150 C   0  0  0  0  0  0  0  0  0  0  0  0
  125.8530  123.7850   55.7940 C   0  0  0  0  0  0  0  0  0  0  0  0
  124.5440  123.5530   56.2890 O   0  0  0  0  0  0  0  0  0  0  0  0
  124.2280  124.4290   57.3580 C   0  0  0  0  0  0  0  0  0  0  0  0
  125.2180  124.2230   58.5240 C   0  0  0  0  0  0  0  0  0  0  0  0
  128.8710  123.9180   58.9730 C   0  0  0  0  0  0  0  0  0  0  0  0
  129.8510  124.0600   59.9500 C   0  0  0  0  0  0  0  0  0  0  0  0
  130.3660  125.4460   63.4410 C   0  0  0  0  0  0  0  0  0  0  0  0
  131.3760  125.5640   64.4030 C   0  0  0  0  0  0  0  0  0  0  0  0
  130.9850  126.0510   65.7600 C   0  0  0  0  0  0  0  0  0  0  0  0
  131.7180  127.0630   66.3810 C   0  0  0  0  0  0  0  0  0  0  0  0
  131.3540  127.5330   67.6400 C   0  0  0  0  0  0  0  0  0  0  0  0
  130.2450  126.9990   68.3160 C   0  0  0  0  0  0  0  0  0  0  0  0
  129.8540  127.4630   69.5750 N   0  0  0  0  0  0  0  0  0  0  0  0
  130.6250  127.1360   70.7890 C   0  0  0  0  0  0  0  0  0  0  0  0
  130.2610  128.0150   72.0050 C   0  0  0  0  0  0  0  0  0  0  0  0
  128.8650  127.9430   72.2550 O   0  0  0  0  0  0  0  0  0  0  0  0
  128.1090  128.3940   71.1430 C   0  0  0  0  0  0  0  0  0  0  0  0
  128.4170  127.5220   69.9060 C   0  0  0  0  0  0  0  0  0  0  0  0
  129.5040  125.9950   67.6760 C   0  0  0  0  0  0  0  0  0  0  0  0
  129.8680  125.5270   66.4170 C   0  0  0  0  0  0  0  0  0  0  0  0
  132.7010  125.2170   64.0360 C   0  0  0  0  0  0  0  0  0  0  0  0
  133.7900  125.3050   65.0130 C   0  0  0  0  0  0  0  0  0  0  0  0
  134.6470  125.3760   65.7880 N   0  0  0  0  0  0  0  0  0  0  0  0
  131.1995  120.4454   61.3526 H   0  0  0  0  0  0  0  0  0  0  0  0
  130.6478  121.2352   59.8365 H   0  0  0  0  0  0  0  0  0  0  0  0
  132.1394  120.2343   59.8365 H   0  0  0  0  0  0  0  0  0  0  0  0
  135.2368  123.2810   59.9986 H   0  0  0  0  0  0  0  0  0  0  0  0
  133.5772  123.9908   59.8739 H   0  0  0  0  0  0  0  0  0  0  0  0
  128.1406  126.0050   62.1563 H   0  0  0  0  0  0  0  0  0  0  0  0
  126.3913  125.7425   60.4232 H   0  0  0  0  0  0  0  0  0  0  0  0
  127.8839  123.8155   56.5274 H   0  0  0  0  0  0  0  0  0  0  0  0
  126.8162  122.4971   57.2078 H   0  0  0  0  0  0  0  0  0  0  0  0
  125.9286  124.8221   55.4353 H   0  0  0  0  0  0  0  0  0  0  0  0
  126.0554  123.0891   54.9665 H   0  0  0  0  0  0  0  0  0  0  0  0
  124.2915  125.4694   57.0065 H   0  0  0  0  0  0  0  0  0  0  0  0
  123.2082  124.2139   57.7098 H   0  0  0  0  0  0  0  0  0  0  0  0
  125.0019  124.9719   59.3002 H   0  0  0  0  0  0  0  0  0  0  0  0
  125.0803  123.1936   58.8863 H   0  0  0  0  0  0  0  0  0  0  0  0
  129.0846  123.3174   58.0766 H   0  0  0  0  0  0  0  0  0  0  0  0
  130.8284  123.5743   59.8128 H   0  0  0  0  0  0  0  0  0  0  0  0
  129.3339  125.7286   63.6956 H   0  0  0  0  0  0  0  0  0  0  0  0
  132.5921  127.4937   65.8708 H   0  0  0  0  0  0  0  0  0  0  0  0
  131.9431  128.3334   68.1115 H   0  0  0  0  0  0  0  0  0  0  0  0
  130.4343  126.0845   71.0499 H   0  0  0  0  0  0  0  0  0  0  0  0
  131.6844  127.3234   70.5598 H   0  0  0  0  0  0  0  0  0  0  0  0
  130.8085  127.6579   72.8897 H   0  0  0  0  0  0  0  0  0  0  0  0
  130.5367  129.0584   71.7921 H   0  0  0  0  0  0  0  0  0  0  0  0
  127.0369  128.3251   71.3794 H   0  0  0  0  0  0  0  0  0  0  0  0
  128.3766  129.4383   70.9242 H   0  0  0  0  0  0  0  0  0  0  0  0
  128.0620  126.4996   70.1027 H   0  0  0  0  0  0  0  0  0  0  0  0
  127.9043  127.9817   69.0482 H   0  0  0  0  0  0  0  0  0  0  0  0
  128.6213  125.5708   68.1770 H   0  0  0  0  0  0  0  0  0  0  0  0
  129.2718  124.7382   65.9349 H   0  0  0  0  0  0  0  0  0  0  0  0
  1  2  1  0
  2  3  1  0
  3  4  2  0
  3  5  1  0
  5  6  1  0
  6  7  1  0
  7  8  2  0
  8  9  1  0
  9 10  1  0
 10 11  2  0
 11 12  1  0
 12 13  2  0
 13 14  1  0
 14 15  1  0
 15 16  1  0
 16 17  1  0
 17 18  1  0
 18 19  1  0
 13 20  1  0
 20 21  2  0
  9 22  2  0
 22 23  1  0
 23 24  1  0
 24 25  2  0
 25 26  1  0
 26 27  2  0
 27 28  1  0
 28 29  1  0
 29 30  1  0
 30 31  1  0
 31 32  1  0
 32 33  1  0
 27 34  1  0
 34 35  2  0
 23 36  2  0
 36 37  1  0
 37 38  3  0
 36  7  1  0
 21 10  1  0
 35 24  1  0
 19 14  1  0
 33 28  1  0
  1 39  1  0
  1 40  1  0
  1 41  1  0
  5 42  1  0
  5 43  1  0
 11 44  1  0
 12 45  1  0
 15 46  1  0
 15 47  1  0
 16 48  1  0
 16 49  1  0
 18 50  1  0
 18 51  1  0
 19 52  1  0
 19 53  1  0
 20 54  1  0
 21 55  1  0
 22 56  1  0
 25 57  1  0
 26 58  1  0
 29 59  1  0
 29 60  1  0
 30 61  1  0
 30 62  1  0
 32 63  1  0
 32 64  1  0
 33 65  1  0
 33 66  1  0
 34 67  1  0
 35 68  1  0
M  END
>  <Binding energies>  (1) 
[-6.63]

>  <Ligand effiencies>  (1) 
[-0.1744736842105263]

>  <Interactions>  (1) 
["V-B:PRO:540:N:9856, V-A:TRP:381:CH2:3370, V-B:PRO:540:CB:9857, V-B:PRO:540:CA:9855, V-B:TYR:539:CE2:9848, V-A:LEU:475:CD2:4257, V-B:TYR:539:CD2:9846, V-A:GLU:543:CD:4906, V-B:TYR:531:CE2:9765, V-B:TYR:531:CZ:9766, V-B:GLU:543:CD:9880, H-B:TYR:531:OH:9767, V-B:TYR:539:C:9839, V-B:ILE:538:CB:9834, V-A:ARG:545:CZ:4924, V-A:ARG:545:CD:4921, H-A:TYR:484:OH:4346, H-A:ARG:545:NE:4922, H-A:GLY:454:N:4048, V-A:ILE:369:CG2:3235, V-A:ILE:369:CD1:3237, V-B:HIS:456:CE1:9042, V-A:HIS:456:CD2:4066, V-A:HIS:456:CG:4064, V-B:HIS:456:CD2:9040, V-A:LYS:547:CE:4948, V-B:HIS:456:CG:9038, V-A:HIS:456:CE1:4068, V-A:GLY:544:C:4910, V-B:GLU:543:CG:9879, V-B:GLU:543:C:9874, V-A:ARG:545:CG:4920, V-A:GLY:453:CA:4042, V-A:GLY:453:C:4040, V-A:GLU:543:CG:4905, V-B:GLU:543:CB:9878, V-A:GLY:544:CA:4912, V-A:GLU:543:C:4900, V-B:GLU:543:CA:9876, V-A:ILE:369:CG1:3236"]

$$$$
2d_Grossjean_2025
     RDKit          3D

 36 37  0  0  0  0  0  0  0  0999 V2000
  128.2310  122.7590   59.6410 C   0  0  0  0  0  0  0  0  0  0  0  0
  129.6380  123.0600   60.1220 C   0  0  0  0  0  0  0  0  0  0  0  0
  129.9820  122.9750   61.4690 C   0  0  0  0  0  0  0  0  0  0  0  0
  131.2980  123.2580   61.8640 C   0  0  0  0  0  0  0  0  0  0  0  0
  131.6620  123.1480   63.3580 C   0  0  0  0  0  0  0  0  0  0  0  0
  131.9280  124.3580   63.8520 F   0  0  0  0  0  0  0  0  0  0  0  0
  130.6450  122.6170   64.0390 F   0  0  0  0  0  0  0  0  0  0  0  0
  132.7330  122.3820   63.5740 F   0  0  0  0  0  0  0  0  0  0  0  0
  132.2380  123.6310   60.8710 C   0  0  0  0  0  0  0  0  0  0  0  0
  133.6360  123.8910   61.2250 C   0  0  0  0  0  0  0  0  0  0  0  0
  134.7400  124.0950   61.5060 N   0  0  0  0  0  0  0  0  0  0  0  0
  131.7930  123.7150   59.5300 C   0  0  0  0  0  0  0  0  0  0  0  0
  132.8310  124.1980   58.1640 S   0  0  0  0  0  0  0  0  0  0  0  0
  132.1960  125.7590   57.4680 C   0  0  0  0  0  0  0  0  0  0  0  0
  131.1870  125.5430   56.3360 C   0  0  0  0  0  0  0  0  0  0  0  0
  131.3570  126.1250   55.2640 O   0  0  0  0  0  0  0  0  0  0  0  0
  130.1490  124.7300   56.6260 N   0  0  0  0  0  0  0  0  0  0  0  0
  129.0740  124.3360   55.8070 C   0  0  0  0  0  0  0  0  0  0  0  0
  127.9250  123.9010   56.4720 C   0  0  0  0  0  0  0  0  0  0  0  0
  126.8100  123.4850   55.7490 C   0  0  0  0  0  0  0  0  0  0  0  0
  126.8490  123.4950   54.3570 C   0  0  0  0  0  0  0  0  0  0  0  0
  127.9930  123.9140   53.6830 C   0  0  0  0  0  0  0  0  0  0  0  0
  129.1080  124.3320   54.4020 C   0  0  0  0  0  0  0  0  0  0  0  0
  130.5220  123.4180   59.1640 N   0  0  0  0  0  0  0  0  0  0  0  0
  127.5694  122.6175   60.5083 H   0  0  0  0  0  0  0  0  0  0  0  0
  127.8638  123.5989   59.0330 H   0  0  0  0  0  0  0  0  0  0  0  0
  128.2396  121.8424   59.0330 H   0  0  0  0  0  0  0  0  0  0  0  0
  129.2280  122.6883   62.2169 H   0  0  0  0  0  0  0  0  0  0  0  0
  131.7047  126.3269   58.2718 H   0  0  0  0  0  0  0  0  0  0  0  0
  133.0532  126.3035   57.0452 H   0  0  0  0  0  0  0  0  0  0  0  0
  130.0950  124.3950   57.5770 H   0  0  0  0  0  0  0  0  0  0  0  0
  127.9010  123.8870   57.5716 H   0  0  0  0  0  0  0  0  0  0  0  0
  125.9034  123.1503   56.2745 H   0  0  0  0  0  0  0  0  0  0  0  0
  125.9680  123.1689   53.7847 H   0  0  0  0  0  0  0  0  0  0  0  0
  128.0151  123.9145   52.5832 H   0  0  0  0  0  0  0  0  0  0  0  0
  130.0147  124.6588   53.8719 H   0  0  0  0  0  0  0  0  0  0  0  0
  1  2  1  0
  2  3  2  0
  3  4  1  0
  4  5  1  0
  5  6  1  0
  5  7  1  0
  5  8  1  0
  4  9  2  0
  9 10  1  0
 10 11  3  0
  9 12  1  0
 12 13  1  0
 13 14  1  0
 14 15  1  0
 15 16  2  0
 15 17  1  0
 17 18  1  0
 18 19  2  0
 19 20  1  0
 20 21  2  0
 21 22  1  0
 22 23  2  0
 12 24  2  0
 24  2  1  0
 23 18  1  0
  1 25  1  0
  1 26  1  0
  1 27  1  0
  3 28  1  0
 14 29  1  0
 14 30  1  0
 17 31  1  0
 19 32  1  0
 20 33  1  0
 21 34  1  0
 22 35  1  0
 23 36  1  0
M  END
>  <Binding energies>  (1) 
[-6.36]

>  <Ligand effiencies>  (1) 
[-0.2544]

>  <Interactions>  (1) 
["V-B:PRO:540:N:9856, V-B:TYR:539:CZ:9849, V-B:ILE:538:CA:9832, V-B:ALA:541:CB:9864, V-B:PRO:540:CA:9855, V-B:TYR:539:CE2:9848, V-A:LEU:475:CD2:4257, V-B:TYR:539:CE1:9847, V-A:ASP:366:CG:3211, H-A:TYR:531:OH:4793, V-A:ASP:366:CB:3210, V-B:TYR:539:C:9839, V-B:ILE:538:CG2:9835, V-B:ILE:538:CB:9834, V-A:GLY:454:CA:4047, H-A:GLY:454:N:4048, H-B:TYR:539:OH:9850, V-A:ILE:369:CD1:3237, V-B:MET:535:CG:9805, V-B:MET:535:CB:9804, V-A:TYR:484:CZ:4345, V-B:GLU:543:CB:9878, V-A:TYR:484:CE1:4343"]

$$$$
2e_Grossjean_2025
     RDKit          3D

 38 39  0  0  0  0  0  0  0  0999 V2000
  132.8720  124.6580   63.8000 C   0  0  0  0  0  0  0  0  0  0  0  0
  132.9680  123.8650   62.5110 C   0  0  0  0  0  0  0  0  0  0  0  0
  133.2370  122.4940   62.5140 C   0  0  0  0  0  0  0  0  0  0  0  0
  133.3000  121.8270   61.2890 C   0  0  0  0  0  0  0  0  0  0  0  0
  133.0950  122.5390   60.1040 C   0  0  0  0  0  0  0  0  0  0  0  0
  132.8390  123.9130   60.1730 C   0  0  0  0  0  0  0  0  0  0  0  0
  132.5980  124.5710   58.9550 N   0  0  0  0  0  0  0  0  0  0  0  0
  133.2260  124.3920   57.7720 C   0  0  0  0  0  0  0  0  0  0  0  0
  134.0910  123.5420   57.5530 O   0  0  0  0  0  0  0  0  0  0  0  0
  132.8370  125.3670   56.6570 C   0  0  0  0  0  0  0  0  0  0  0  0
  131.3250  126.2990   57.0590 S   0  0  0  0  0  0  0  0  0  0  0  0
  130.0250  125.0870   57.1310 C   0  0  0  0  0  0  0  0  0  0  0  0
  129.9030  124.4580   58.3260 N   0  0  0  0  0  0  0  0  0  0  0  0
  128.9680  123.4890   58.4530 C   0  0  0  0  0  0  0  0  0  0  0  0
  128.8850  122.8290   59.8160 C   0  0  0  0  0  0  0  0  0  0  0  0
  128.1320  123.1080   57.4060 C   0  0  0  0  0  0  0  0  0  0  0  0
  128.2520  123.7420   56.1600 C   0  0  0  0  0  0  0  0  0  0  0  0
  127.3350  123.2950   55.0060 C   0  0  0  0  0  0  0  0  0  0  0  0
  127.9620  122.3980   54.2440 F   0  0  0  0  0  0  0  0  0  0  0  0
  126.2230  122.7450   55.4950 F   0  0  0  0  0  0  0  0  0  0  0  0
  126.9690  124.3070   54.2170 F   0  0  0  0  0  0  0  0  0  0  0  0
  129.2230  124.7630   56.0120 C   0  0  0  0  0  0  0  0  0  0  0  0
  129.4180  125.4430   54.7280 C   0  0  0  0  0  0  0  0  0  0  0  0
  129.5720  125.9790   53.7130 N   0  0  0  0  0  0  0  0  0  0  0  0
  132.7680  124.5700   61.3680 N   0  0  0  0  0  0  0  0  0  0  0  0
  132.9547  123.9746   64.6580 H   0  0  0  0  0  0  0  0  0  0  0  0
  133.6874  125.3953   63.8385 H   0  0  0  0  0  0  0  0  0  0  0  0
  131.9042  125.1794   63.8385 H   0  0  0  0  0  0  0  0  0  0  0  0
  133.3953  121.9531   63.4587 H   0  0  0  0  0  0  0  0  0  0  0  0
  133.5097  120.7477   61.2568 H   0  0  0  0  0  0  0  0  0  0  0  0
  133.1343  122.0268   59.1313 H   0  0  0  0  0  0  0  0  0  0  0  0
  131.8330  125.2300   58.9710 H   0  0  0  0  0  0  0  0  0  0  0  0
  133.6620  126.0783   56.5039 H   0  0  0  0  0  0  0  0  0  0  0  0
  132.6417  124.7806   55.7470 H   0  0  0  0  0  0  0  0  0  0  0  0
  128.9812  123.5942   60.6004 H   0  0  0  0  0  0  0  0  0  0  0  0
  127.9157  122.3191   59.9181 H   0  0  0  0  0  0  0  0  0  0  0  0
  129.6979  122.0950   59.9181 H   0  0  0  0  0  0  0  0  0  0  0  0
  127.3833  122.3160   57.5549 H   0  0  0  0  0  0  0  0  0  0  0  0
  1  2  1  0
  2  3  2  0
  3  4  1  0
  4  5  2  0
  5  6  1  0
  6  7  1  0
  7  8  1  0
  8  9  2  0
  8 10  1  0
 10 11  1  0
 11 12  1  0
 12 13  2  0
 13 14  1  0
 14 15  1  0
 14 16  2  0
 16 17  1  0
 17 18  1  0
 18 19  1  0
 18 20  1  0
 18 21  1  0
 17 22  2  0
 22 23  1  0
 23 24  3  0
  6 25  2  0
 25  2  1  0
 22 12  1  0
  1 26  1  0
  1 27  1  0
  1 28  1  0
  3 29  1  0
  4 30  1  0
  5 31  1  0
  7 32  1  0
 10 33  1  0
 10 34  1  0
 15 35  1  0
 15 36  1  0
 15 37  1  0
 16 38  1  0
M  END
>  <Binding energies>  (1) 
[-6.53]

>  <Ligand effiencies>  (1) 
[-0.25115384615384617]

>  <Interactions>  (1) 
["V-B:PRO:540:N:9856, V-B:TYR:539:CZ:9849, V-B:ILE:538:CA:9832, V-B:TYR:539:CE2:9848, V-A:LEU:475:CD2:4257, V-B:TYR:539:CE1:9847, V-B:TYR:539:CD1:9845, V-B:TYR:539:CD2:9846, V-A:ASP:366:CG:3211, H-A:TYR:531:OH:4793, V-A:ASP:366:CB:3210, V-B:TYR:539:C:9839, V-B:ILE:538:CG2:9835, V-B:PRO:540:CD:9859, V-B:ILE:538:CB:9834, V-A:ARG:545:CZ:4924, V-A:GLY:454:CA:4047, V-B:TYR:539:CG:9844, H-B:TYR:539:OH:9850, H-A:ASP:366:OD1:3212, V-A:ILE:369:CG2:3235, V-A:ILE:369:CD1:3237, V-A:TYR:531:CE1:4790, V-A:ASP:366:CA:3208, V-B:TYR:539:CA:9841, V-B:ILE:538:C:9830, V-B:MET:535:CG:9805, V-B:MET:535:CB:9804, V-A:ASP:366:C:3206, V-B:VAL:537:C:9822"]

$$$$
2f_Grossjean_2025
     RDKit          3D

 35 36  0  0  0  0  0  0  0  0999 V2000
  129.2050  132.4340   73.4630 C   0  0  0  0  0  0  0  0  0  0  0  0
  128.1720  131.3600   73.7470 C   0  0  0  0  0  0  0  0  0  0  0  0
  127.0970  131.5890   74.6010 C   0  0  0  0  0  0  0  0  0  0  0  0
  126.1720  130.5610   74.8380 C   0  0  0  0  0  0  0  0  0  0  0  0
  124.9960  130.8300   75.7960 C   0  0  0  0  0  0  0  0  0  0  0  0
  125.3010  130.4120   77.0260 F   0  0  0  0  0  0  0  0  0  0  0  0
  124.7330  132.1370   75.8370 F   0  0  0  0  0  0  0  0  0  0  0  0
  123.8750  130.2060   75.4280 F   0  0  0  0  0  0  0  0  0  0  0  0
  126.3620  129.3140   74.1880 C   0  0  0  0  0  0  0  0  0  0  0  0
  125.4570  128.1920   74.4470 C   0  0  0  0  0  0  0  0  0  0  0  0
  124.7400  127.3060   74.6520 N   0  0  0  0  0  0  0  0  0  0  0  0
  127.4690  129.1810   73.3160 C   0  0  0  0  0  0  0  0  0  0  0  0
  127.8540  127.6950   72.4110 S   0  0  0  0  0  0  0  0  0  0  0  0
  129.6640  127.6230   72.1860 C   0  0  0  0  0  0  0  0  0  0  0  0
  130.3470  126.3920   72.7990 C   0  0  0  0  0  0  0  0  0  0  0  0
  129.8210  125.2800   72.7260 O   0  0  0  0  0  0  0  0  0  0  0  0
  131.5210  126.6510   73.4140 N   0  0  0  0  0  0  0  0  0  0  0  0
  132.4050  125.7680   74.0630 C   0  0  0  0  0  0  0  0  0  0  0  0
  132.0380  124.5730   74.7100 C   0  0  0  0  0  0  0  0  0  0  0  0
  133.0180  123.7840   75.3130 C   0  0  0  0  0  0  0  0  0  0  0  0
  134.3470  124.2070   75.2520 C   0  0  0  0  0  0  0  0  0  0  0  0
  134.7280  125.3500   74.6280 N   0  0  0  0  0  0  0  0  0  0  0  0
  133.7630  126.1060   74.0460 C   0  0  0  0  0  0  0  0  0  0  0  0
  128.3650  130.1780   73.1170 N   0  0  0  0  0  0  0  0  0  0  0  0
  129.5893  132.8335   74.4131 H   0  0  0  0  0  0  0  0  0  0  0  0
  130.0347  132.0010   72.8850 H   0  0  0  0  0  0  0  0  0  0  0  0
  128.7401  133.2462   72.8850 H   0  0  0  0  0  0  0  0  0  0  0  0
  126.9736  132.5684   75.0864 H   0  0  0  0  0  0  0  0  0  0  0  0
  129.8738  127.6270   71.1062 H   0  0  0  0  0  0  0  0  0  0  0  0
  130.0739  128.4963   72.7145 H   0  0  0  0  0  0  0  0  0  0  0  0
  131.8030  127.6200   73.4480 H   0  0  0  0  0  0  0  0  0  0  0  0
  130.9831  124.2626   74.7401 H   0  0  0  0  0  0  0  0  0  0  0  0
  132.7492  122.8486   75.8256 H   0  0  0  0  0  0  0  0  0  0  0  0
  135.1190  123.5866   75.7307 H   0  0  0  0  0  0  0  0  0  0  0  0
  134.0636  127.0323   73.5345 H   0  0  0  0  0  0  0  0  0  0  0  0
  1  2  1  0
  2  3  2  0
  3  4  1  0
  4  5  1  0
  5  6  1  0
  5  7  1  0
  5  8  1  0
  4  9  2  0
  9 10  1  0
 10 11  3  0
  9 12  1  0
 12 13  1  0
 13 14  1  0
 14 15  1  0
 15 16  2  0
 15 17  1  0
 17 18  1  0
 18 19  2  0
 19 20  1  0
 20 21  2  0
 21 22  1  0
 22 23  2  0
 12 24  2  0
 24  2  1  0
 23 18  1  0
  1 25  1  0
  1 26  1  0
  1 27  1  0
  3 28  1  0
 14 29  1  0
 14 30  1  0
 17 31  1  0
 19 32  1  0
 20 33  1  0
 21 34  1  0
 23 35  1  0
M  END
>  <Binding energies>  (1) 
[-7.53]

>  <Ligand effiencies>  (1) 
[-0.3012]

>  <Interactions>  (1) 
["V-A:LYS:471:CE:4218, V-B:HIS:456:CA:9035, V-B:VAL:458:CG2:9059, V-B:VAL:457:C:9045, V-A:HIS:456:CB:4063, V-A:HIS:456:CD2:4066, V-B:LYS:471:CD:9191, H-A:GLY:544:O:4911, V-A:VAL:458:CG2:4085, V-A:HIS:456:CG:4064, H-A:VAL:458:N:4082, V-A:HIS:456:C:4059, V-A:VAL:457:C:4071, V-B:LYS:471:CE:9192, V-A:LYS:471:CG:4216, V-B:HIS:456:C:9033, V-B:HIS:456:CD2:9040, V-A:LYS:547:CE:4948, V-B:LYS:471:CB:9189, V-B:LYS:471:CG:9190, V-B:VAL:457:CA:9047, H-A:LYS:547:NZ:4949, V-A:LYS:471:CD:4217, V-B:HIS:456:CG:9038, V-B:HIS:456:CB:9037, V-A:HIS:456:CA:4061, H-B:LYS:547:NZ:9923, V-B:ASP:473:CG:9212, V-A:GLY:544:C:4910, V-B:LYS:547:CE:9922, H-A:VAL:457:N:4074, V-B:LYS:547:CD:9921, V-B:ASP:473:CB:9211"]

$$$$
2g_Grossjean_2025
     RDKit          3D

 39 40  0  0  0  0  0  0  0  0999 V2000
  129.6240  131.7180   60.7500 C   0  0  0  0  0  0  0  0  0  0  0  0
  130.2420  131.6080   59.3700 C   0  0  0  0  0  0  0  0  0  0  0  0
  131.6040  131.3750   59.1970 C   0  0  0  0  0  0  0  0  0  0  0  0
  132.1300  131.2890   57.8980 C   0  0  0  0  0  0  0  0  0  0  0  0
  133.6410  131.0390   57.7260 C   0  0  0  0  0  0  0  0  0  0  0  0
  133.8500  129.8790   57.1020 F   0  0  0  0  0  0  0  0  0  0  0  0
  134.1820  132.0220   57.0050 F   0  0  0  0  0  0  0  0  0  0  0  0
  134.2920  130.9880   58.8910 F   0  0  0  0  0  0  0  0  0  0  0  0
  131.2470  131.4340   56.7980 C   0  0  0  0  0  0  0  0  0  0  0  0
  131.7530  131.4090   55.4230 C   0  0  0  0  0  0  0  0  0  0  0  0
  132.1530  131.3900   54.3370 N   0  0  0  0  0  0  0  0  0  0  0  0
  129.8720  131.6380   57.0700 C   0  0  0  0  0  0  0  0  0  0  0  0
  128.6260  131.8160   55.8120 S   0  0  0  0  0  0  0  0  0  0  0  0
  127.9070  130.1640   55.5160 C   0  0  0  0  0  0  0  0  0  0  0  0
  126.6510  129.8540   56.3420 C   0  0  0  0  0  0  0  0  0  0  0  0
  125.7300  129.1770   55.8810 O   0  0  0  0  0  0  0  0  0  0  0  0
  126.6330  130.3740   57.5830 N   0  0  0  0  0  0  0  0  0  0  0  0
  125.5530  130.2090   58.5580 C   0  0  0  0  0  0  0  0  0  0  0  0
  125.3590  131.4010   59.4890 C   0  0  0  0  0  0  0  0  0  0  0  0
  124.0740  131.7540   59.9090 C   0  0  0  0  0  0  0  0  0  0  0  0
  123.8970  132.8190   60.7900 C   0  0  0  0  0  0  0  0  0  0  0  0
  125.0070  133.5200   61.2540 C   0  0  0  0  0  0  0  0  0  0  0  0
  126.2920  133.1650   60.8490 C   0  0  0  0  0  0  0  0  0  0  0  0
  126.4690  132.1010   59.9700 C   0  0  0  0  0  0  0  0  0  0  0  0
  129.3860  131.7420   58.3320 N   0  0  0  0  0  0  0  0  0  0  0  0
  130.4039  131.5792   61.5132 H   0  0  0  0  0  0  0  0  0  0  0  0
  129.1672  132.7116   60.8691 H   0  0  0  0  0  0  0  0  0  0  0  0
  128.8524  130.9431   60.8691 H   0  0  0  0  0  0  0  0  0  0  0  0
  132.2622  131.2593   60.0707 H   0  0  0  0  0  0  0  0  0  0  0  0
  127.6431  130.0910   54.4506 H   0  0  0  0  0  0  0  0  0  0  0  0
  128.6696  129.4335   55.8239 H   0  0  0  0  0  0  0  0  0  0  0  0
  127.4380  130.8970   57.8970 H   0  0  0  0  0  0  0  0  0  0  0  0
  124.6146  130.0455   58.0079 H   0  0  0  0  0  0  0  0  0  0  0  0
  125.8309  129.3554   59.1937 H   0  0  0  0  0  0  0  0  0  0  0  0
  123.2021  131.1912   59.5442 H   0  0  0  0  0  0  0  0  0  0  0  0
  122.8862  133.1043   61.1170 H   0  0  0  0  0  0  0  0  0  0  0  0
  124.8680  134.3626   61.9473 H   0  0  0  0  0  0  0  0  0  0  0  0
  127.1629  133.7235   61.2226 H   0  0  0  0  0  0  0  0  0  0  0  0
  127.4819  131.8110   59.6539 H   0  0  0  0  0  0  0  0  0  0  0  0
  1  2  1  0
  2  3  2  0
  3  4  1  0
  4  5  1  0
  5  6  1  0
  5  7  1  0
  5  8  1  0
  4  9  2  0
  9 10  1  0
 10 11  3  0
  9 12  1  0
 12 13  1  0
 13 14  1  0
 14 15  1  0
 15 16  2  0
 15 17  1  0
 17 18  1  0
 18 19  1  0
 19 20  2  0
 20 21  1  0
 21 22  2  0
 22 23  1  0
 23 24  2  0
 12 25  2  0
 25  2  1  0
 24 19  1  0
  1 26  1  0
  1 27  1  0
  1 28  1  0
  3 29  1  0
 14 30  1  0
 14 31  1  0
 17 32  1  0
 18 33  1  0
 18 34  1  0
 20 35  1  0
 21 36  1  0
 22 37  1  0
 23 38  1  0
 24 39  1  0
M  END
>  <Binding energies>  (1) 
[-6.66]

>  <Ligand effiencies>  (1) 
[-0.2561538461538462]

>  <Interactions>  (1) 
["V-B:ASP:366:CG:8185, V-A:ASP:366:CG:3211, V-A:PRO:540:N:4882, V-A:TYR:539:CZ:4875, V-A:TYR:531:CE2:4791, V-A:LEU:363:CA:3183, H-A:TYR:531:OH:4793, V-A:ASP:366:CB:3210, V-A:TYR:539:C:4865, V-A:LEU:363:CD1:3187, V-A:ILE:538:CB:4860, V-A:PRO:540:CA:4881, V-A:ILE:538:CG2:4861, V-A:TYR:531:CZ:4792, V-A:PRO:540:CB:4883, H-B:TYR:531:OH:9767, V-A:LEU:363:CB:3185, V-A:PRO:540:CD:4885, V-A:TYR:539:CE2:4874, H-A:TYR:539:OH:4876, V-A:ASN:362:C:3170, V-A:TYR:539:CD2:4872, V-A:PRO:540:CG:4884, V-B:ILE:369:CD1:8211, V-B:ILE:369:CG2:8209, V-B:LEU:475:CD2:9231, V-A:LEU:363:CG:3186"]

$$$$
2h_Grossjean_2025
     RDKit          3D

 51 52  0  0  0  0  0  0  0  0999 V2000
  123.8900  122.7440   55.9080 C   0  0  0  0  0  0  0  0  0  0  0  0
  125.2830  122.5650   56.1390 O   0  0  0  0  0  0  0  0  0  0  0  0
  126.0300  123.6180   56.6370 C   0  0  0  0  0  0  0  0  0  0  0  0
  125.5220  124.5950   57.5080 C   0  0  0  0  0  0  0  0  0  0  0  0
  126.3380  125.6220   57.9750 C   0  0  0  0  0  0  0  0  0  0  0  0
  127.6760  125.6980   57.5850 C   0  0  0  0  0  0  0  0  0  0  0  0
  128.5570  126.8220   58.1270 C   0  0  0  0  0  0  0  0  0  0  0  0
  127.9410  128.1460   58.0340 N   0  0  0  0  0  0  0  0  0  0  0  0
  128.3910  129.1530   57.2650 C   0  0  0  0  0  0  0  0  0  0  0  0
  129.4330  129.0890   56.6090 O   0  0  0  0  0  0  0  0  0  0  0  0
  127.5120  130.4110   57.2400 C   0  0  0  0  0  0  0  0  0  0  0  0
  128.1710  131.8300   58.1790 S   0  0  0  0  0  0  0  0  0  0  0  0
  129.9330  131.6020   58.2860 C   0  0  0  0  0  0  0  0  0  0  0  0
  130.3600  131.2190   59.5150 N   0  0  0  0  0  0  0  0  0  0  0  0
  131.6840  131.0350   59.7120 C   0  0  0  0  0  0  0  0  0  0  0  0
  132.0890  130.6140   61.1120 C   0  0  0  0  0  0  0  0  0  0  0  0
  132.6280  131.2180   58.7040 C   0  0  0  0  0  0  0  0  0  0  0  0
  132.2030  131.5950   57.4210 C   0  0  0  0  0  0  0  0  0  0  0  0
  133.2610  131.7850   56.3160 C   0  0  0  0  0  0  0  0  0  0  0  0
  134.3360  131.0440   56.5850 F   0  0  0  0  0  0  0  0  0  0  0  0
  132.8180  131.4240   55.1100 F   0  0  0  0  0  0  0  0  0  0  0  0
  133.6240  133.0660   56.2440 F   0  0  0  0  0  0  0  0  0  0  0  0
  130.8160  131.7850   57.1950 C   0  0  0  0  0  0  0  0  0  0  0  0
  130.3160  132.1210   55.8590 C   0  0  0  0  0  0  0  0  0  0  0  0
  129.9230  132.3830   54.8030 N   0  0  0  0  0  0  0  0  0  0  0  0
  128.1910  124.7410   56.6960 C   0  0  0  0  0  0  0  0  0  0  0  0
  129.5070  124.8100   56.3050 O   0  0  0  0  0  0  0  0  0  0  0  0
  129.7490  125.6910   55.2150 C   0  0  0  0  0  0  0  0  0  0  0  0
  127.3710  123.6940   56.2410 C   0  0  0  0  0  0  0  0  0  0  0  0
  127.8770  122.7450   55.3860 O   0  0  0  0  0  0  0  0  0  0  0  0
  127.9340  123.1580   54.0270 C   0  0  0  0  0  0  0  0  0  0  0  0
  123.3642  122.8116   56.8718 H   0  0  0  0  0  0  0  0  0  0  0  0
  123.7291  123.6702   55.3368 H   0  0  0  0  0  0  0  0  0  0  0  0
  123.5001  121.8886   55.3368 H   0  0  0  0  0  0  0  0  0  0  0  0
  124.4695  124.5487   57.8244 H   0  0  0  0  0  0  0  0  0  0  0  0
  125.9247  126.3797   58.6570 H   0  0  0  0  0  0  0  0  0  0  0  0
  128.7751  126.6135   59.1848 H   0  0  0  0  0  0  0  0  0  0  0  0
  129.4666  126.8454   57.5089 H   0  0  0  0  0  0  0  0  0  0  0  0
  127.0620  128.2630   58.5170 H   0  0  0  0  0  0  0  0  0  0  0  0
  127.3907  130.7219   56.1919 H   0  0  0  0  0  0  0  0  0  0  0  0
  126.5645  130.1341   57.7254 H   0  0  0  0  0  0  0  0  0  0  0  0
  131.5233  131.2020   61.8498 H   0  0  0  0  0  0  0  0  0  0  0  0
  131.8714  129.5447   61.2507 H   0  0  0  0  0  0  0  0  0  0  0  0
  133.1659  130.7900   61.2507 H   0  0  0  0  0  0  0  0  0  0  0  0
  133.6977  131.0682   58.9121 H   0  0  0  0  0  0  0  0  0  0  0  0
  130.0219  126.6845   55.6002 H   0  0  0  0  0  0  0  0  0  0  0  0
  130.5722  125.2970   54.6009 H   0  0  0  0  0  0  0  0  0  0  0  0
  128.8401  125.7728   54.6009 H   0  0  0  0  0  0  0  0  0  0  0  0
  128.0843  124.2467   53.9806 H   0  0  0  0  0  0  0  0  0  0  0  0
  128.7706  122.6507   53.5244 H   0  0  0  0  0  0  0  0  0  0  0  0
  126.9912  122.8962   53.5244 H   0  0  0  0  0  0  0  0  0  0  0  0
  1  2  1  0
  2  3  1  0
  3  4  2  0
  4  5  1  0
  5  6  2  0
  6  7  1  0
  7  8  1  0
  8  9  1  0
  9 10  2  0
  9 11  1  0
 11 12  1  0
 12 13  1  0
 13 14  2  0
 14 15  1  0
 15 16  1  0
 15 17  2  0
 17 18  1  0
 18 19  1  0
 19 20  1  0
 19 21  1  0
 19 22  1  0
 18 23  2  0
 23 24  1  0
 24 25  3  0
  6 26  1  0
 26 27  1  0
 27 28  1  0
 26 29  2  0
 29 30  1  0
 30 31  1  0
 29  3  1  0
 23 13  1  0
  1 32  1  0
  1 33  1  0
  1 34  1  0
  4 35  1  0
  5 36  1  0
  7 37  1  0
  7 38  1  0
  8 39  1  0
 11 40  1  0
 11 41  1  0
 16 42  1  0
 16 43  1  0
 16 44  1  0
 17 45  1  0
 28 46  1  0
 28 47  1  0
 28 48  1  0
 31 49  1  0
 31 50  1  0
 31 51  1  0
M  END
>  <Binding energies>  (1) 
[-6.9]

>  <Ligand effiencies>  (1) 
[-0.215625]

>  <Interactions>  (1) 
["V-B:PRO:540:N:9856, V-B:ILE:538:CA:9832, V-B:PRO:540:CB:9857, V-B:TYR:539:CE1:9847, V-B:TYR:539:CD1:9845, V-A:PRO:540:N:4882, H-A:TYR:539:N:4868, V-A:ILE:538:CA:4858, V-A:TYR:539:CZ:4875, V-A:TYR:531:CE2:4791, V-A:LEU:363:CA:3183, H-A:TYR:531:OH:4793, V-A:ASP:366:CB:3210, V-A:TYR:539:C:4865, V-A:LEU:363:CD1:3187, V-A:ILE:538:CB:4860, V-A:PRO:540:CA:4881, V-A:ILE:538:CG2:4861, V-A:TYR:531:CZ:4792, V-A:PRO:540:CB:4883, V-B:TYR:531:CE2:9765, V-B:LEU:363:CD1:8161, H-B:TYR:539:N:9842, V-B:ILE:538:CG2:9835, V-B:PRO:540:CD:9859, V-B:ILE:538:CB:9834, V-B:PRO:540:CG:9858, V-A:LEU:363:CB:3185, V-A:PRO:540:CD:4885, V-A:TYR:539:CE2:4874, V-A:LEU:363:C:3181, V-B:ILE:538:C:9830, V-A:PRO:540:CG:4884, V-A:TYR:531:CD2:4789, V-A:ILE:538:CD1:4863, V-A:LEU:363:CG:3186, V-B:ILE:538:CD1:9837"]

$$$$
2i_Grossjean_2025
     RDKit          3D

 32 33  0  0  0  0  0  0  0  0999 V2000
  124.6790  124.0970   61.5880 C   0  0  0  0  0  0  0  0  0  0  0  0
  125.4990  123.8690   60.3310 C   0  0  0  0  0  0  0  0  0  0  0  0
  124.9150  123.8790   59.0670 C   0  0  0  0  0  0  0  0  0  0  0  0
  125.7170  123.6660   57.9360 C   0  0  0  0  0  0  0  0  0  0  0  0
  125.0540  123.6790   56.5450 C   0  0  0  0  0  0  0  0  0  0  0  0
  125.6990  124.5250   55.7410 F   0  0  0  0  0  0  0  0  0  0  0  0
  125.0920  122.4580   56.0080 F   0  0  0  0  0  0  0  0  0  0  0  0
  123.7750  124.0590   56.5860 F   0  0  0  0  0  0  0  0  0  0  0  0
  127.1060  123.4460   58.1220 C   0  0  0  0  0  0  0  0  0  0  0  0
  127.9900  123.2200   56.9740 C   0  0  0  0  0  0  0  0  0  0  0  0
  128.6890  123.0410   56.0690 N   0  0  0  0  0  0  0  0  0  0  0  0
  127.6140  123.4510   59.4410 C   0  0  0  0  0  0  0  0  0  0  0  0
  129.3430  123.1780   59.7960 S   0  0  0  0  0  0  0  0  0  0  0  0
  129.4630  122.3360   61.4040 C   0  0  0  0  0  0  0  0  0  0  0  0
  130.7250  122.7330   62.1730 C   0  0  0  0  0  0  0  0  0  0  0  0
  131.7480  122.0600   62.0330 O   0  0  0  0  0  0  0  0  0  0  0  0
  130.6050  123.8040   62.9860 N   0  0  0  0  0  0  0  0  0  0  0  0
  131.5930  124.3440   63.7940 C   0  0  0  0  0  0  0  0  0  0  0  0
  131.4850  125.1510   64.9350 C   0  0  0  0  0  0  0  0  0  0  0  0
  132.7840  125.3830   65.3240 C   0  0  0  0  0  0  0  0  0  0  0  0
  133.6220  124.7460   64.4720 O   0  0  0  0  0  0  0  0  0  0  0  0
  132.8510  124.0870   63.5110 N   0  0  0  0  0  0  0  0  0  0  0  0
  126.8210  123.6600   60.5230 N   0  0  0  0  0  0  0  0  0  0  0  0
  125.3083  123.9220   62.4731 H   0  0  0  0  0  0  0  0  0  0  0  0
  124.3079  125.1324   61.6009 H   0  0  0  0  0  0  0  0  0  0  0  0
  123.8267  123.4018   61.6009 H   0  0  0  0  0  0  0  0  0  0  0  0
  123.8344  124.0524   58.9563 H   0  0  0  0  0  0  0  0  0  0  0  0
  128.5825  122.5998   62.0083 H   0  0  0  0  0  0  0  0  0  0  0  0
  129.5099  121.2534   61.2150 H   0  0  0  0  0  0  0  0  0  0  0  0
  129.7010  124.2490   63.0460 H   0  0  0  0  0  0  0  0  0  0  0  0
  130.5650  125.5177   65.4136 H   0  0  0  0  0  0  0  0  0  0  0  0
  133.0926  125.9889   66.1887 H   0  0  0  0  0  0  0  0  0  0  0  0
  1  2  1  0
  2  3  2  0
  3  4  1  0
  4  5  1  0
  5  6  1  0
  5  7  1  0
  5  8  1  0
  4  9  2  0
  9 10  1  0
 10 11  3  0
  9 12  1  0
 12 13  1  0
 13 14  1  0
 14 15  1  0
 15 16  2  0
 15 17  1  0
 17 18  1  0
 18 19  1  0
 19 20  2  0
 20 21  1  0
 21 22  1  0
 12 23  2  0
 23  2  1  0
 22 18  2  0
  1 24  1  0
  1 25  1  0
  1 26  1  0
  3 27  1  0
 14 28  1  0
 14 29  1  0
 17 30  1  0
 19 31  1  0
 20 32  1  0
M  END
>  <Binding energies>  (1) 
[-7.5]

>  <Ligand effiencies>  (1) 
[-0.3125]

>  <Interactions>  (1) 
["V-B:PRO:540:N:9856, H-B:GLU:543:OE1:9881, V-B:ILE:538:CA:9832, V-B:ALA:541:CB:9864, V-B:PRO:540:CB:9857, V-B:PRO:540:CA:9855, V-B:PRO:540:C:9853, H-B:ALA:541:N:9863, V-B:TYR:539:CD2:9846, V-B:ARG:545:CZ:9898, V-B:TYR:531:CE2:9765, V-B:LEU:363:CD1:8161, V-B:TYR:531:CZ:9766, V-B:ASN:362:CB:8148, H-B:TYR:539:N:9842, V-B:GLU:543:CD:9880, V-B:TYR:539:C:9839, V-B:ILE:538:CG2:9835, V-B:PRO:540:CD:9859, V-B:ILE:538:CB:9834, V-B:PRO:540:CG:9858, V-A:ARG:545:CZ:4924, V-A:ARG:545:CD:4921, H-A:TYR:484:OH:4346, H-A:ARG:545:NE:4922, H-A:GLY:454:N:4048, V-B:TYR:539:CG:9844, V-A:HIS:456:CE1:4068, V-B:ILE:538:C:9830, V-A:ARG:545:CG:4920"]

$$$$
2j_Grossjean_2025
     RDKit          3D

 32 33  0  0  0  0  0  0  0  0999 V2000
  129.0880  132.5080   73.5330 C   0  0  0  0  0  0  0  0  0  0  0  0
  128.0900  131.4040   73.8280 C   0  0  0  0  0  0  0  0  0  0  0  0
  127.0410  131.5890   74.7240 C   0  0  0  0  0  0  0  0  0  0  0  0
  126.1420  130.5390   74.9610 C   0  0  0  0  0  0  0  0  0  0  0  0
  124.9860  130.7610   75.9550 C   0  0  0  0  0  0  0  0  0  0  0  0
  123.8840  130.1500   75.5180 F   0  0  0  0  0  0  0  0  0  0  0  0
  125.3100  130.2660   77.1510 F   0  0  0  0  0  0  0  0  0  0  0  0
  124.6910  132.0520   76.1230 F   0  0  0  0  0  0  0  0  0  0  0  0
  126.3360  129.3140   74.2750 C   0  0  0  0  0  0  0  0  0  0  0  0
  125.4280  128.1820   74.4840 C   0  0  0  0  0  0  0  0  0  0  0  0
  124.7100  127.2900   74.6490 N   0  0  0  0  0  0  0  0  0  0  0  0
  127.4300  129.2130   73.3820 C   0  0  0  0  0  0  0  0  0  0  0  0
  127.7700  127.7190   72.4620 S   0  0  0  0  0  0  0  0  0  0  0  0
  129.5700  127.6120   72.1840 C   0  0  0  0  0  0  0  0  0  0  0  0
  130.2470  126.3810   72.8040 C   0  0  0  0  0  0  0  0  0  0  0  0
  129.7100  125.2730   72.7500 O   0  0  0  0  0  0  0  0  0  0  0  0
  131.4350  126.6280   73.4000 N   0  0  0  0  0  0  0  0  0  0  0  0
  132.2540  125.7030   74.0330 C   0  0  0  0  0  0  0  0  0  0  0  0
  131.9170  124.5310   74.5260 N   0  0  0  0  0  0  0  0  0  0  0  0
  132.9530  123.9110   75.0570 C   0  0  0  0  0  0  0  0  0  0  0  0
  134.1690  124.5860   75.0010 C   0  0  0  0  0  0  0  0  0  0  0  0
  133.9300  126.1140   74.2080 S   0  0  0  0  0  0  0  0  0  0  0  0
  128.2870  130.2420   73.1640 N   0  0  0  0  0  0  0  0  0  0  0  0
  129.4644  132.9244   74.4790 H   0  0  0  0  0  0  0  0  0  0  0  0
  129.9278  132.0977   72.9531 H   0  0  0  0  0  0  0  0  0  0  0  0
  128.5953  133.3023   72.9531 H   0  0  0  0  0  0  0  0  0  0  0  0
  126.9181  132.5514   75.2423 H   0  0  0  0  0  0  0  0  0  0  0  0
  129.7476  127.5895   71.0987 H   0  0  0  0  0  0  0  0  0  0  0  0
  130.0117  128.4895   72.6789 H   0  0  0  0  0  0  0  0  0  0  0  0
  131.7720  127.5800   73.3920 H   0  0  0  0  0  0  0  0  0  0  0  0
  132.8612  122.9165   75.5181 H   0  0  0  0  0  0  0  0  0  0  0  0
  135.1260  124.2129   75.3947 H   0  0  0  0  0  0  0  0  0  0  0  0
  1  2  1  0
  2  3  2  0
  3  4  1  0
  4  5  1  0
  5  6  1  0
  5  7  1  0
  5  8  1  0
  4  9  2  0
  9 10  1  0
 10 11  3  0
  9 12  1  0
 12 13  1  0
 13 14  1  0
 14 15  1  0
 15 16  2  0
 15 17  1  0
 17 18  1  0
 18 19  2  0
 19 20  1  0
 20 21  2  0
 21 22  1  0
 12 23  2  0
 23  2  1  0
 22 18  1  0
  1 24  1  0
  1 25  1  0
  1 26  1  0
  3 27  1  0
 14 28  1  0
 14 29  1  0
 17 30  1  0
 20 31  1  0
 21 32  1  0
M  END
>  <Binding energies>  (1) 
[-7.51]

>  <Ligand effiencies>  (1) 
[-0.3129166666666667]

>  <Interactions>  (1) 
["V-A:LYS:471:CE:4218, V-B:HIS:456:CA:9035, V-B:VAL:458:CG2:9059, V-B:VAL:457:C:9045, V-A:HIS:456:CB:4063, V-A:HIS:456:CD2:4066, V-B:LYS:471:CD:9191, H-A:GLY:544:O:4911, V-A:VAL:458:CG2:4085, V-A:HIS:456:CG:4064, V-A:HIS:456:C:4059, V-A:VAL:457:C:4071, V-B:LYS:471:CE:9192, V-B:HIS:456:C:9033, V-B:HIS:456:CD2:9040, V-A:LYS:547:CE:4948, V-B:LYS:471:CB:9189, V-B:LYS:471:CG:9190, V-B:VAL:457:CA:9047, H-A:LYS:547:NZ:4949, V-A:LYS:471:CD:4217, V-B:HIS:456:CG:9038, V-B:HIS:456:CB:9037, V-A:HIS:456:CA:4061, H-B:LYS:547:NZ:9923, V-B:ASP:473:CG:9212, V-A:GLY:544:C:4910, V-B:LYS:547:CE:9922, V-B:LYS:547:CG:9920, V-B:LYS:547:CD:9921, V-B:ASP:473:CB:9211"]

$$$$
2k_Grossjean_2025
     RDKit          3D

 50 50  0  0  0  0  0  0  0  0999 V2000
  124.1550  123.1210   56.0900 C   0  0  0  0  0  0  0  0  0  0  0  0
  125.4380  122.5380   56.2590 O   0  0  0  0  0  0  0  0  0  0  0  0
  126.2950  123.2920   57.1070 C   0  0  0  0  0  0  0  0  0  0  0  0
  127.7540  122.8790   56.8680 C   0  0  0  0  0  0  0  0  0  0  0  0
  127.9770  122.7560   55.4710 O   0  0  0  0  0  0  0  0  0  0  0  0
  127.6090  123.9050   54.7170 C   0  0  0  0  0  0  0  0  0  0  0  0
  128.8340  124.8200   54.5980 C   0  0  0  0  0  0  0  0  0  0  0  0
  128.4670  126.1030   55.0780 O   0  0  0  0  0  0  0  0  0  0  0  0
  129.4590  127.1090   54.9350 C   0  0  0  0  0  0  0  0  0  0  0  0
  128.7670  128.4790   54.8080 C   0  0  0  0  0  0  0  0  0  0  0  0
  128.4090  129.0610   56.1040 N   0  0  0  0  0  0  0  0  0  0  0  0
  127.1580  129.3330   56.5220 C   0  0  0  0  0  0  0  0  0  0  0  0
  126.1520  129.0890   55.8530 O   0  0  0  0  0  0  0  0  0  0  0  0
  127.0460  130.0000   57.9010 C   0  0  0  0  0  0  0  0  0  0  0  0
  127.7920  131.6620   58.0290 S   0  0  0  0  0  0  0  0  0  0  0  0
  129.5690  131.5070   58.1570 C   0  0  0  0  0  0  0  0  0  0  0  0
  130.0420  131.1490   59.3780 N   0  0  0  0  0  0  0  0  0  0  0  0
  131.3760  131.0180   59.5490 C   0  0  0  0  0  0  0  0  0  0  0  0
  131.8260  130.6280   60.9430 C   0  0  0  0  0  0  0  0  0  0  0  0
  132.2890  131.2230   58.5180 C   0  0  0  0  0  0  0  0  0  0  0  0
  131.8220  131.5850   57.2450 C   0  0  0  0  0  0  0  0  0  0  0  0
  132.8460  131.8020   56.1140 C   0  0  0  0  0  0  0  0  0  0  0  0
  133.0880  133.0930   55.8770 F   0  0  0  0  0  0  0  0  0  0  0  0
  134.0070  131.2290   56.4330 F   0  0  0  0  0  0  0  0  0  0  0  0
  132.3950  131.2640   54.9810 F   0  0  0  0  0  0  0  0  0  0  0  0
  130.4250  131.7340   57.0540 C   0  0  0  0  0  0  0  0  0  0  0  0
  129.8820  132.1150   55.7460 C   0  0  0  0  0  0  0  0  0  0  0  0
  129.4540  132.4140   54.7130 N   0  0  0  0  0  0  0  0  0  0  0  0
  123.7111  123.3227   57.0761 H   0  0  0  0  0  0  0  0  0  0  0  0
  124.2513  124.0638   55.5315 H   0  0  0  0  0  0  0  0  0  0  0  0
  123.5082  122.4284   55.5315 H   0  0  0  0  0  0  0  0  0  0  0  0
  126.1775  124.3632   56.8863 H   0  0  0  0  0  0  0  0  0  0  0  0
  126.0295  123.0996   58.1570 H   0  0  0  0  0  0  0  0  0  0  0  0
  128.4265  123.6443   57.2828 H   0  0  0  0  0  0  0  0  0  0  0  0
  127.9535  121.9167   57.3622 H   0  0  0  0  0  0  0  0  0  0  0  0
  127.2747  123.5998   53.7144 H   0  0  0  0  0  0  0  0  0  0  0  0
  126.7871  124.4377   55.2177 H   0  0  0  0  0  0  0  0  0  0  0  0
  129.6612  124.4177   55.2012 H   0  0  0  0  0  0  0  0  0  0  0  0
  129.1657  124.8826   53.5511 H   0  0  0  0  0  0  0  0  0  0  0  0
  130.1158  127.1077   55.8174 H   0  0  0  0  0  0  0  0  0  0  0  0
  130.0622  126.9119   54.0365 H   0  0  0  0  0  0  0  0  0  0  0  0
  129.4487  129.1695   54.2898 H   0  0  0  0  0  0  0  0  0  0  0  0
  127.8335  128.3257   54.2466 H   0  0  0  0  0  0  0  0  0  0  0  0
  129.1770  129.2780   56.7220 H   0  0  0  0  0  0  0  0  0  0  0  0
  125.9782  130.0870   58.1504 H   0  0  0  0  0  0  0  0  0  0  0  0
  127.6107  129.3597   58.5946 H   0  0  0  0  0  0  0  0  0  0  0  0
  131.2141  131.1583   61.6876 H   0  0  0  0  0  0  0  0  0  0  0  0
  131.7070  129.5426   61.0765 H   0  0  0  0  0  0  0  0  0  0  0  0
  132.8834  130.9001   61.0765 H   0  0  0  0  0  0  0  0  0  0  0  0
  133.3672  131.1023   58.6997 H   0  0  0  0  0  0  0  0  0  0  0  0
  1  2  1  0
  2  3  1  0
  3  4  1  0
  4  5  1  0
  5  6  1  0
  6  7  1  0
  7  8  1  0
  8  9  1  0
  9 10  1  0
 10 11  1  0
 11 12  1  0
 12 13  2  0
 12 14  1  0
 14 15  1  0
 15 16  1  0
 16 17  2  0
 17 18  1  0
 18 19  1  0
 18 20  2  0
 20 21  1  0
 21 22  1  0
 22 23  1  0
 22 24  1  0
 22 25  1  0
 21 26  2  0
 26 27  1  0
 27 28  3  0
 26 16  1  0
  1 29  1  0
  1 30  1  0
  1 31  1  0
  3 32  1  0
  3 33  1  0
  4 34  1  0
  4 35  1  0
  6 36  1  0
  6 37  1  0
  7 38  1  0
  7 39  1  0
  9 40  1  0
  9 41  1  0
 10 42  1  0
 10 43  1  0
 11 44  1  0
 14 45  1  0
 14 46  1  0
 19 47  1  0
 19 48  1  0
 19 49  1  0
 20 50  1  0
M  END
>  <Binding energies>  (1) 
[-6.49]

>  <Ligand effiencies>  (1) 
[-0.22379310344827588]

>  <Interactions>  (1) 
["V-B:PRO:540:N:9856, V-B:PRO:540:CB:9857, V-B:PRO:540:CA:9855, V-B:TYR:539:CD1:9845, V-B:TYR:539:CD2:9846, V-A:PRO:540:N:4882, H-A:TYR:539:N:4868, V-A:ILE:538:CA:4858, V-A:TYR:531:CE2:4791, V-A:LEU:363:CA:3183, V-A:TYR:539:C:4865, V-A:LEU:363:CD1:3187, V-A:ILE:538:CB:4860, V-A:PRO:540:CA:4881, V-A:ILE:538:CG2:4861, V-A:TYR:531:CZ:4792, V-A:PRO:540:CB:4883, V-B:TYR:531:CE2:9765, V-B:LEU:363:CD1:8161, H-B:TYR:539:N:9842, H-B:TYR:531:OH:9767, V-B:TYR:539:C:9839, V-B:ILE:538:CG2:9835, V-B:PRO:540:CD:9859, V-B:ILE:538:CB:9834, V-A:LEU:363:CB:3185, V-A:PRO:540:CD:4885, V-A:ILE:538:CG1:4862, V-B:TYR:539:CG:9844, V-B:TYR:539:CA:9841, V-A:PRO:540:CG:4884, V-A:ILE:538:CD1:4863"]

$$$$
3aa_Grossjean_2025
     RDKit          3D

 52 54  0  0  0  0  0  0  0  0999 V2000
  132.8670  132.1380   56.2850 C   0  0  0  0  0  0  0  0  0  0  0  0
  131.9540  131.6390   55.1610 C   0  0  0  0  0  0  0  0  0  0  0  0
  130.7440  132.3860   55.1650 O   0  0  0  0  0  0  0  0  0  0  0  0
  129.7590  132.1150   56.0580 C   0  0  0  0  0  0  0  0  0  0  0  0
  129.4140  132.8970   56.9500 O   0  0  0  0  0  0  0  0  0  0  0  0
  129.1380  130.7610   55.8650 C   0  0  0  0  0  0  0  0  0  0  0  0
  128.1410  130.5310   54.9050 C   0  0  0  0  0  0  0  0  0  0  0  0
  127.5890  129.2610   54.7490 C   0  0  0  0  0  0  0  0  0  0  0  0
  128.0260  128.1980   55.5410 C   0  0  0  0  0  0  0  0  0  0  0  0
  127.4060  126.9560   55.3000 N   0  0  0  0  0  0  0  0  0  0  0  0
  127.9340  125.7120   55.3190 C   0  0  0  0  0  0  0  0  0  0  0  0
  129.1150  125.4410   55.5410 O   0  0  0  0  0  0  0  0  0  0  0  0
  126.9550  124.5760   55.0240 C   0  0  0  0  0  0  0  0  0  0  0  0
  127.5590  122.9820   55.6570 S   0  0  0  0  0  0  0  0  0  0  0  0
  127.6830  123.1360   57.4250 C   0  0  0  0  0  0  0  0  0  0  0  0
  128.8950  122.7830   57.9180 N   0  0  0  0  0  0  0  0  0  0  0  0
  129.1240  122.8530   59.2550 C   0  0  0  0  0  0  0  0  0  0  0  0
  130.4940  122.4590   59.7200 C   0  0  0  0  0  0  0  0  0  0  0  0
  131.5700  123.3540   59.6100 C   0  0  0  0  0  0  0  0  0  0  0  0
  132.8450  122.9960   60.0410 C   0  0  0  0  0  0  0  0  0  0  0  0
  133.0600  121.7360   60.5890 C   0  0  0  0  0  0  0  0  0  0  0  0
  132.0100  120.8330   60.7110 C   0  0  0  0  0  0  0  0  0  0  0  0
  130.7360  121.1940   60.2810 C   0  0  0  0  0  0  0  0  0  0  0  0
  128.1280  123.2920   60.1330 C   0  0  0  0  0  0  0  0  0  0  0  0
  126.8590  123.6460   59.6480 C   0  0  0  0  0  0  0  0  0  0  0  0
  125.7860  124.1130   60.6480 C   0  0  0  0  0  0  0  0  0  0  0  0
  126.0270  123.7040   61.8960 F   0  0  0  0  0  0  0  0  0  0  0  0
  125.7260  125.4450   60.6700 F   0  0  0  0  0  0  0  0  0  0  0  0
  124.5930  123.6340   60.2910 F   0  0  0  0  0  0  0  0  0  0  0  0
  126.6200  123.5560   58.2550 C   0  0  0  0  0  0  0  0  0  0  0  0
  125.2980  123.8580   57.6990 C   0  0  0  0  0  0  0  0  0  0  0  0
  124.2530  124.0950   57.2600 N   0  0  0  0  0  0  0  0  0  0  0  0
  129.0130  128.4240   56.5120 C   0  0  0  0  0  0  0  0  0  0  0  0
  129.5610  129.6930   56.6680 C   0  0  0  0  0  0  0  0  0  0  0  0
  132.4177  131.8925   57.2586 H   0  0  0  0  0  0  0  0  0  0  0  0
  133.8502  131.6518   56.2018 H   0  0  0  0  0  0  0  0  0  0  0  0
  132.9887  133.2281   56.2018 H   0  0  0  0  0  0  0  0  0  0  0  0
  132.4607  131.7673   54.1931 H   0  0  0  0  0  0  0  0  0  0  0  0
  131.7275  130.5742   55.3186 H   0  0  0  0  0  0  0  0  0  0  0  0
  127.7924  131.3594   54.2707 H   0  0  0  0  0  0  0  0  0  0  0  0
  126.8037  129.0952   53.9968 H   0  0  0  0  0  0  0  0  0  0  0  0
  126.4360  127.0230   55.0280 H   0  0  0  0  0  0  0  0  0  0  0  0
  125.9899  124.8052   55.4995 H   0  0  0  0  0  0  0  0  0  0  0  0
  126.8480  124.4918   53.9325 H   0  0  0  0  0  0  0  0  0  0  0  0
  131.4038  124.3516   59.1775 H   0  0  0  0  0  0  0  0  0  0  0  0
  133.6790  123.7073   59.9483 H   0  0  0  0  0  0  0  0  0  0  0  0
  134.0672  121.4521   60.9281 H   0  0  0  0  0  0  0  0  0  0  0  0
  132.1850  119.8377   61.1454 H   0  0  0  0  0  0  0  0  0  0  0  0
  129.9068  120.4783   60.3820 H   0  0  0  0  0  0  0  0  0  0  0  0
  128.3402  123.3604   61.2102 H   0  0  0  0  0  0  0  0  0  0  0  0
  129.3542  127.5963   57.1511 H   0  0  0  0  0  0  0  0  0  0  0  0
  130.3357  129.8603   57.4308 H   0  0  0  0  0  0  0  0  0  0  0  0
  1  2  1  0
  2  3  1  0
  3  4  1  0
  4  5  2  0
  4  6  1  0
  6  7  2  0
  7  8  1  0
  8  9  2  0
  9 10  1  0
 10 11  1  0
 11 12  2  0
 11 13  1  0
 13 14  1  0
 14 15  1  0
 15 16  2  0
 16 17  1  0
 17 18  1  0
 18 19  2  0
 19 20  1  0
 20 21  2  0
 21 22  1  0
 22 23  2  0
 17 24  2  0
 24 25  1  0
 25 26  1  0
 26 27  1  0
 26 28  1  0
 26 29  1  0
 25 30  2  0
 30 31  1  0
 31 32  3  0
  9 33  1  0
 33 34  2  0
 34  6  1  0
 30 15  1  0
 23 18  1  0
  1 35  1  0
  1 36  1  0
  1 37  1  0
  2 38  1  0
  2 39  1  0
  7 40  1  0
  8 41  1  0
 10 42  1  0
 13 43  1  0
 13 44  1  0
 19 45  1  0
 20 46  1  0
 21 47  1  0
 22 48  1  0
 23 49  1  0
 24 50  1  0
 33 51  1  0
 34 52  1  0
M  END
>  <Binding energies>  (1) 
[-9.21]

>  <Ligand effiencies>  (1) 
[-0.2631428571428572]

>  <Interactions>  (1) 
["V-B:PRO:540:N:9856, V-A:TRP:381:CH2:3370, V-B:ASP:366:CG:8185, V-B:PRO:540:CB:9857, V-B:PRO:540:CA:9855, V-B:PRO:540:C:9853, V-B:ALA:541:CA:9862, V-B:TYR:539:CE2:9848, V-A:LEU:475:CD2:4257, V-B:TYR:539:CD2:9846, V-A:TYR:539:CE1:4873, V-A:PRO:540:N:4882, H-A:TYR:539:N:4868, V-A:ILE:538:CA:4858, V-A:TYR:531:CE2:4791, V-A:TYR:539:C:4865, V-A:LEU:363:CD1:3187, V-A:ILE:538:CB:4860, V-A:PRO:540:CA:4881, V-A:ILE:538:CG2:4861, V-A:TYR:531:CZ:4792, V-A:PRO:540:CB:4883, V-B:ALA:541:C:9860, H-B:TYR:539:N:9842, V-B:GLU:543:CD:9880, H-B:MET:535:SD:9806, H-B:TYR:531:OH:9767, V-B:TYR:539:C:9839, V-A:PRO:540:CD:4885, V-A:ILE:369:CG2:3235, V-A:ILE:369:CD1:3237, V-A:PRO:540:CG:4884"]

$$$$
3ab_Grossjean_2025
     RDKit          3D

 49 51  0  0  0  0  0  0  0  0999 V2000
  132.0970  131.8180   55.5640 C   0  0  0  0  0  0  0  0  0  0  0  0
  130.8090  132.2780   55.1780 O   0  0  0  0  0  0  0  0  0  0  0  0
  129.7190  132.0310   55.9490 C   0  0  0  0  0  0  0  0  0  0  0  0
  129.2220  132.8630   56.7130 O   0  0  0  0  0  0  0  0  0  0  0  0
  129.1750  130.6420   55.7780 C   0  0  0  0  0  0  0  0  0  0  0  0
  129.7600  129.5320   56.4080 C   0  0  0  0  0  0  0  0  0  0  0  0
  129.2330  128.2550   56.2330 C   0  0  0  0  0  0  0  0  0  0  0  0
  128.1060  128.0650   55.4180 C   0  0  0  0  0  0  0  0  0  0  0  0
  127.4880  126.8240   55.1750 N   0  0  0  0  0  0  0  0  0  0  0  0
  128.0360  125.6080   54.9670 C   0  0  0  0  0  0  0  0  0  0  0  0
  129.2420  125.3630   54.9390 O   0  0  0  0  0  0  0  0  0  0  0  0
  127.0400  124.4680   54.7490 C   0  0  0  0  0  0  0  0  0  0  0  0
  127.6240  122.9020   55.4650 S   0  0  0  0  0  0  0  0  0  0  0  0
  127.6900  123.1150   57.2320 C   0  0  0  0  0  0  0  0  0  0  0  0
  128.8850  122.7800   57.7730 N   0  0  0  0  0  0  0  0  0  0  0  0
  129.0780  122.8980   59.1120 C   0  0  0  0  0  0  0  0  0  0  0  0
  130.4310  122.5100   59.6320 C   0  0  0  0  0  0  0  0  0  0  0  0
  131.5250  123.3820   59.5080 C   0  0  0  0  0  0  0  0  0  0  0  0
  132.7830  123.0270   59.9890 C   0  0  0  0  0  0  0  0  0  0  0  0
  132.9640  121.7910   60.6020 C   0  0  0  0  0  0  0  0  0  0  0  0
  131.8980  120.9080   60.7340 C   0  0  0  0  0  0  0  0  0  0  0  0
  130.6430  121.2670   60.2510 C   0  0  0  0  0  0  0  0  0  0  0  0
  128.0470  123.3430   59.9480 C   0  0  0  0  0  0  0  0  0  0  0  0
  126.7940  123.6770   59.4130 C   0  0  0  0  0  0  0  0  0  0  0  0
  125.6840  124.1560   60.3680 C   0  0  0  0  0  0  0  0  0  0  0  0
  124.4580  123.9070   59.9030 F   0  0  0  0  0  0  0  0  0  0  0  0
  125.7950  123.5440   61.5480 F   0  0  0  0  0  0  0  0  0  0  0  0
  125.7830  125.4730   60.5550 F   0  0  0  0  0  0  0  0  0  0  0  0
  126.5990  123.5540   58.0150 C   0  0  0  0  0  0  0  0  0  0  0  0
  125.2930  123.8350   57.4130 C   0  0  0  0  0  0  0  0  0  0  0  0
  124.2610  124.0580   56.9400 N   0  0  0  0  0  0  0  0  0  0  0  0
  127.5190  129.1670   54.7950 C   0  0  0  0  0  0  0  0  0  0  0  0
  128.0480  130.4420   54.9710 C   0  0  0  0  0  0  0  0  0  0  0  0
  132.1640  131.7941   56.6617 H   0  0  0  0  0  0  0  0  0  0  0  0
  132.2599  130.8061   55.1645 H   0  0  0  0  0  0  0  0  0  0  0  0
  132.8640  132.4978   55.1645 H   0  0  0  0  0  0  0  0  0  0  0  0
  130.6444  129.6726   57.0469 H   0  0  0  0  0  0  0  0  0  0  0  0
  129.7003  127.3943   56.7339 H   0  0  0  0  0  0  0  0  0  0  0  0
  126.4810  126.8720   55.1170 H   0  0  0  0  0  0  0  0  0  0  0  0
  126.0833  124.7382   55.2199 H   0  0  0  0  0  0  0  0  0  0  0  0
  126.9246  124.3222   53.6648 H   0  0  0  0  0  0  0  0  0  0  0  0
  131.3862  124.3599   59.0238 H   0  0  0  0  0  0  0  0  0  0  0  0
  133.6301  123.7210   59.8847 H   0  0  0  0  0  0  0  0  0  0  0  0
  133.9565  121.5107   60.9845 H   0  0  0  0  0  0  0  0  0  0  0  0
  132.0458  119.9311   61.2175 H   0  0  0  0  0  0  0  0  0  0  0  0
  129.8025  120.5651   60.3558 H   0  0  0  0  0  0  0  0  0  0  0  0
  128.2205  123.4313   61.0306 H   0  0  0  0  0  0  0  0  0  0  0  0
  126.6317  129.0268   54.1602 H   0  0  0  0  0  0  0  0  0  0  0  0
  127.5764  131.3011   54.4714 H   0  0  0  0  0  0  0  0  0  0  0  0
  1  2  1  0
  2  3  1  0
  3  4  2  0
  3  5  1  0
  5  6  2  0
  6  7  1  0
  7  8  2  0
  8  9  1  0
  9 10  1  0
 10 11  2  0
 10 12  1  0
 12 13  1  0
 13 14  1  0
 14 15  2  0
 15 16  1  0
 16 17  1  0
 17 18  2  0
 18 19  1  0
 19 20  2  0
 20 21  1  0
 21 22  2  0
 16 23  2  0
 23 24  1  0
 24 25  1  0
 25 26  1  0
 25 27  1  0
 25 28  1  0
 24 29  2  0
 29 30  1  0
 30 31  3  0
  8 32  1  0
 32 33  2  0
 33  5  1  0
 29 14  1  0
 22 17  1  0
  1 34  1  0
  1 35  1  0
  1 36  1  0
  6 37  1  0
  7 38  1  0
  9 39  1  0
 12 40  1  0
 12 41  1  0
 18 42  1  0
 19 43  1  0
 20 44  1  0
 21 45  1  0
 22 46  1  0
 23 47  1  0
 32 48  1  0
 33 49  1  0
M  END
>  <Binding energies>  (1) 
[-9.01]

>  <Ligand effiencies>  (1) 
[-0.265]

>  <Interactions>  (1) 
["V-B:PRO:540:N:9856, V-A:TRP:381:CH2:3370, V-B:ASP:366:CG:8185, V-B:PRO:540:CB:9857, V-B:PRO:540:CA:9855, V-B:PRO:540:C:9853, V-B:ALA:541:CA:9862, V-B:TYR:539:CE2:9848, V-A:LEU:475:CD2:4257, V-B:TYR:539:CD2:9846, H-A:TYR:539:N:4868, V-A:TYR:531:CE2:4791, V-A:ILE:538:CB:4860, V-A:ILE:538:CG2:4861, V-A:TYR:531:CZ:4792, V-B:ALA:541:C:9860, H-B:TYR:539:N:9842, H-B:MET:535:SD:9806, H-B:TYR:531:OH:9767, V-B:TYR:539:C:9839, V-A:ILE:369:CG2:3235, V-B:MET:535:CG:9805"]

$$$$
3ac_Grossjean_2025
     RDKit          3D

 47 49  0  0  0  0  0  0  0  0999 V2000
  131.7260  132.1080   56.0160 C   0  0  0  0  0  0  0  0  0  0  0  0
  130.3340  132.2350   55.7430 O   0  0  0  0  0  0  0  0  0  0  0  0
  129.5860  131.0970   55.5060 C   0  0  0  0  0  0  0  0  0  0  0  0
  129.7480  130.0460   56.4080 C   0  0  0  0  0  0  0  0  0  0  0  0
  129.0340  128.8620   56.2520 C   0  0  0  0  0  0  0  0  0  0  0  0
  128.1510  128.7090   55.1820 C   0  0  0  0  0  0  0  0  0  0  0  0
  127.4590  127.4850   55.1200 N   0  0  0  0  0  0  0  0  0  0  0  0
  127.8680  126.2550   55.5000 C   0  0  0  0  0  0  0  0  0  0  0  0
  128.9500  125.9970   56.0280 O   0  0  0  0  0  0  0  0  0  0  0  0
  126.8760  125.1210   55.2400 C   0  0  0  0  0  0  0  0  0  0  0  0
  127.5360  123.5010   55.7410 S   0  0  0  0  0  0  0  0  0  0  0  0
  127.5760  123.4270   57.5220 C   0  0  0  0  0  0  0  0  0  0  0  0
  128.7500  122.9570   58.0100 N   0  0  0  0  0  0  0  0  0  0  0  0
  128.9310  122.8490   59.3510 C   0  0  0  0  0  0  0  0  0  0  0  0
  130.2550  122.3130   59.8080 C   0  0  0  0  0  0  0  0  0  0  0  0
  130.3650  121.0090   60.3170 C   0  0  0  0  0  0  0  0  0  0  0  0
  131.5920  120.5030   60.7370 C   0  0  0  0  0  0  0  0  0  0  0  0
  132.7300  121.2990   60.6560 C   0  0  0  0  0  0  0  0  0  0  0  0
  132.6480  122.5960   60.1610 C   0  0  0  0  0  0  0  0  0  0  0  0
  131.4190  123.0970   59.7420 C   0  0  0  0  0  0  0  0  0  0  0  0
  127.9120  123.2020   60.2420 C   0  0  0  0  0  0  0  0  0  0  0  0
  126.6800  123.6710   59.7630 C   0  0  0  0  0  0  0  0  0  0  0  0
  125.5830  124.0430   60.7800 C   0  0  0  0  0  0  0  0  0  0  0  0
  125.4360  125.3620   60.9230 F   0  0  0  0  0  0  0  0  0  0  0  0
  124.4060  123.5530   60.3890 F   0  0  0  0  0  0  0  0  0  0  0  0
  125.8850  123.5390   61.9770 F   0  0  0  0  0  0  0  0  0  0  0  0
  126.4930  123.7760   58.3620 C   0  0  0  0  0  0  0  0  0  0  0  0
  125.1990  124.1860   57.8130 C   0  0  0  0  0  0  0  0  0  0  0  0
  124.1760  124.5100   57.3800 N   0  0  0  0  0  0  0  0  0  0  0  0
  127.9760  129.7640   54.2740 C   0  0  0  0  0  0  0  0  0  0  0  0
  128.6920  130.9480   54.4340 C   0  0  0  0  0  0  0  0  0  0  0  0
  131.8864  132.0934   57.1041 H   0  0  0  0  0  0  0  0  0  0  0  0
  132.1018  131.1718   55.5774 H   0  0  0  0  0  0  0  0  0  0  0  0
  132.2650  132.9607   55.5774 H   0  0  0  0  0  0  0  0  0  0  0  0
  130.4467  130.1540   57.2507 H   0  0  0  0  0  0  0  0  0  0  0  0
  129.1660  128.0434   56.9748 H   0  0  0  0  0  0  0  0  0  0  0  0
  126.5090  127.5580   54.7880 H   0  0  0  0  0  0  0  0  0  0  0  0
  125.9549  125.3191   55.8078 H   0  0  0  0  0  0  0  0  0  0  0  0
  126.6800  125.0856   54.1582 H   0  0  0  0  0  0  0  0  0  0  0  0
  129.4672  120.3771   60.3850 H   0  0  0  0  0  0  0  0  0  0  0  0
  131.6614  119.4784   61.1311 H   0  0  0  0  0  0  0  0  0  0  0  0
  133.7007  120.9000   60.9855 H   0  0  0  0  0  0  0  0  0  0  0  0
  133.5500  123.2228   60.1009 H   0  0  0  0  0  0  0  0  0  0  0  0
  131.3580  124.1240   59.3527 H   0  0  0  0  0  0  0  0  0  0  0  0
  128.0781  123.1111   61.3256 H   0  0  0  0  0  0  0  0  0  0  0  0
  127.2728  129.6561   53.4350 H   0  0  0  0  0  0  0  0  0  0  0  0
  128.5562  131.7707   53.7165 H   0  0  0  0  0  0  0  0  0  0  0  0
  1  2  1  0
  2  3  1  0
  3  4  2  0
  4  5  1  0
  5  6  2  0
  6  7  1  0
  7  8  1  0
  8  9  2  0
  8 10  1  0
 10 11  1  0
 11 12  1  0
 12 13  2  0
 13 14  1  0
 14 15  1  0
 15 16  2  0
 16 17  1  0
 17 18  2  0
 18 19  1  0
 19 20  2  0
 14 21  2  0
 21 22  1  0
 22 23  1  0
 23 24  1  0
 23 25  1  0
 23 26  1  0
 22 27  2  0
 27 28  1  0
 28 29  3  0
  6 30  1  0
 30 31  2  0
 31  3  1  0
 27 12  1  0
 20 15  1  0
  1 32  1  0
  1 33  1  0
  1 34  1  0
  4 35  1  0
  5 36  1  0
  7 37  1  0
 10 38  1  0
 10 39  1  0
 16 40  1  0
 17 41  1  0
 18 42  1  0
 19 43  1  0
 20 44  1  0
 21 45  1  0
 30 46  1  0
 31 47  1  0
M  END
>  <Binding energies>  (1) 
[-8.01]

>  <Ligand effiencies>  (1) 
[-0.2503125]

>  <Interactions>  (1) 
["V-B:PRO:540:N:9856, V-A:TRP:381:CH2:3370, V-B:ALA:541:CB:9864, V-B:ASP:366:CG:8185, V-B:PRO:540:CB:9857, V-B:PRO:540:CA:9855, V-B:PRO:540:C:9853, V-B:ALA:541:CA:9862, V-B:TYR:539:CE2:9848, V-A:LEU:475:CD2:4257, V-B:TYR:539:CD2:9846, V-B:MET:535:CE:9807, V-A:TYR:539:CE1:4873, V-A:PRO:540:N:4882, H-A:TYR:539:N:4868, V-A:ILE:538:CA:4858, V-A:ILE:538:CB:4860, V-A:ILE:538:CG2:4861, V-B:ALA:541:C:9860, V-B:ARG:545:CZ:9898, V-B:TYR:531:CZ:9766, V-B:ASN:362:CB:8148, H-B:TYR:539:N:9842, V-B:GLU:543:CD:9880, H-B:MET:535:SD:9806, H-B:TYR:531:OH:9767, V-B:TYR:539:C:9839, V-A:PRO:540:CD:4885, V-A:ILE:369:CG2:3235"]

$$$$
3ad_Grossjean_2025
     RDKit          3D

 43 45  0  0  0  0  0  0  0  0999 V2000
  133.8770  127.3370   74.2780 N   0  0  0  0  0  0  0  0  0  0  0  0
  133.1180  126.4810   74.1020 C   0  0  0  0  0  0  0  0  0  0  0  0
  132.1590  125.3940   73.8810 C   0  0  0  0  0  0  0  0  0  0  0  0
  132.3660  124.1180   74.4580 C   0  0  0  0  0  0  0  0  0  0  0  0
  133.5640  123.8030   75.3740 C   0  0  0  0  0  0  0  0  0  0  0  0
  134.6970  124.3760   74.9620 F   0  0  0  0  0  0  0  0  0  0  0  0
  133.3180  124.2410   76.6110 F   0  0  0  0  0  0  0  0  0  0  0  0
  133.7760  122.4860   75.4160 F   0  0  0  0  0  0  0  0  0  0  0  0
  131.4430  123.0990   74.1780 C   0  0  0  0  0  0  0  0  0  0  0  0
  130.3470  123.3460   73.3440 C   0  0  0  0  0  0  0  0  0  0  0  0
  129.3400  122.2890   73.0000 C   0  0  0  0  0  0  0  0  0  0  0  0
  128.6060  121.6430   74.0070 C   0  0  0  0  0  0  0  0  0  0  0  0
  127.6690  120.6620   73.6940 C   0  0  0  0  0  0  0  0  0  0  0  0
  127.4510  120.3140   72.3640 C   0  0  0  0  0  0  0  0  0  0  0  0
  128.1630  120.9420   71.3480 C   0  0  0  0  0  0  0  0  0  0  0  0
  129.0990  121.9230   71.6650 C   0  0  0  0  0  0  0  0  0  0  0  0
  130.1570  124.5690   72.7890 N   0  0  0  0  0  0  0  0  0  0  0  0
  131.0230  125.5740   73.0610 C   0  0  0  0  0  0  0  0  0  0  0  0
  130.6110  127.1080   72.2590 S   0  0  0  0  0  0  0  0  0  0  0  0
  128.8000  127.1670   72.1040 C   0  0  0  0  0  0  0  0  0  0  0  0
  128.1980  128.3770   72.8220 C   0  0  0  0  0  0  0  0  0  0  0  0
  128.7750  129.4630   72.7510 O   0  0  0  0  0  0  0  0  0  0  0  0
  127.0500  128.1410   73.4920 N   0  0  0  0  0  0  0  0  0  0  0  0
  126.2430  129.0220   74.2340 C   0  0  0  0  0  0  0  0  0  0  0  0
  126.8520  130.2190   74.6240 C   0  0  0  0  0  0  0  0  0  0  0  0
  126.1430  131.1600   75.3660 C   0  0  0  0  0  0  0  0  0  0  0  0
  124.8230  130.9030   75.7240 C   0  0  0  0  0  0  0  0  0  0  0  0
  124.2060  129.7130   75.3490 C   0  0  0  0  0  0  0  0  0  0  0  0
  124.9110  128.7690   74.6070 C   0  0  0  0  0  0  0  0  0  0  0  0
  131.5819  122.0999   74.6168 H   0  0  0  0  0  0  0  0  0  0  0  0
  128.7736  121.9159   75.0593 H   0  0  0  0  0  0  0  0  0  0  0  0
  127.1030  120.1637   74.4948 H   0  0  0  0  0  0  0  0  0  0  0  0
  126.7118  119.5383   72.1154 H   0  0  0  0  0  0  0  0  0  0  0  0
  127.9875  120.6649   70.2980 H   0  0  0  0  0  0  0  0  0  0  0  0
  129.6583  122.4190   70.8580 H   0  0  0  0  0  0  0  0  0  0  0  0
  128.5372  127.2211   71.0372 H   0  0  0  0  0  0  0  0  0  0  0  0
  128.3911  126.2590   72.5712 H   0  0  0  0  0  0  0  0  0  0  0  0
  126.7300  127.1830   73.5000 H   0  0  0  0  0  0  0  0  0  0  0  0
  127.8967  130.4182   74.3431 H   0  0  0  0  0  0  0  0  0  0  0  0
  126.6240  132.1021   75.6678 H   0  0  0  0  0  0  0  0  0  0  0  0
  124.2621  131.6470   76.3086 H   0  0  0  0  0  0  0  0  0  0  0  0
  123.1627  129.5186   75.6385 H   0  0  0  0  0  0  0  0  0  0  0  0
  124.4265  127.8263   74.3129 H   0  0  0  0  0  0  0  0  0  0  0  0
  1  2  3  0
  2  3  1  0
  3  4  2  0
  4  5  1  0
  5  6  1  0
  5  7  1  0
  5  8  1  0
  4  9  1  0
  9 10  2  0
 10 11  1  0
 11 12  2  0
 12 13  1  0
 13 14  2  0
 14 15  1  0
 15 16  2  0
 10 17  1  0
 17 18  2  0
 18 19  1  0
 19 20  1  0
 20 21  1  0
 21 22  2  0
 21 23  1  0
 23 24  1  0
 24 25  2  0
 25 26  1  0
 26 27  2  0
 27 28  1  0
 28 29  2  0
 18  3  1  0
 29 24  1  0
 16 11  1  0
  9 30  1  0
 12 31  1  0
 13 32  1  0
 14 33  1  0
 15 34  1  0
 16 35  1  0
 20 36  1  0
 20 37  1  0
 23 38  1  0
 25 39  1  0
 26 40  1  0
 27 41  1  0
 28 42  1  0
 29 43  1  0
M  END
>  <Binding energies>  (1) 
[-9.43]

>  <Ligand effiencies>  (1) 
[-0.3143333333333333]

>  <Interactions>  (1) 
["V-A:LYS:471:CE:4218, H-B:GLY:544:O:9885, V-B:HIS:456:CA:9035, V-B:VAL:458:CG2:9059, V-B:VAL:457:C:9045, V-A:HIS:456:CB:4063, V-A:HIS:456:CD2:4066, V-B:LYS:471:CD:9191, V-B:GLY:544:C:9884, V-A:VAL:458:CG2:4085, V-A:HIS:456:CG:4064, V-A:HIS:456:C:4059, V-A:VAL:457:C:4071, V-B:LYS:471:CE:9192, V-A:LYS:471:CG:4216, V-B:HIS:456:C:9033, V-B:HIS:456:CD2:9040, V-A:LYS:547:CE:4948, V-B:LYS:471:CG:9190, V-B:VAL:457:CA:9047, H-A:LYS:547:NZ:4949, V-A:ASP:473:CG:4238, V-A:LYS:471:CD:4217, V-B:HIS:456:CG:9038, V-B:HIS:456:CB:9037, V-A:HIS:456:CA:4061, H-B:LYS:547:NZ:9923, V-A:LYS:471:CB:4215, V-A:VAL:457:CA:4073, V-B:ASP:473:CG:9212, V-B:LYS:547:CE:9922, V-B:GLY:544:CA:9886, V-B:GLU:543:C:9874, V-A:TYR:484:CG:4340, V-A:TYR:484:CB:4339, V-B:GLU:543:CA:9876, V-A:TYR:484:CD1:4341, V-A:LYS:547:CG:4946, V-A:ASP:473:CB:4237, V-A:LYS:547:CD:4947"]

$$$$
3af_Grossjean_2025
     RDKit          3D

 42 44  0  0  0  0  0  0  0  0999 V2000
  133.8170  127.3190   74.3070 N   0  0  0  0  0  0  0  0  0  0  0  0
  133.0600  126.4630   74.1250 C   0  0  0  0  0  0  0  0  0  0  0  0
  132.1010  125.3780   73.8960 C   0  0  0  0  0  0  0  0  0  0  0  0
  132.3130  124.0960   74.4590 C   0  0  0  0  0  0  0  0  0  0  0  0
  133.5130  123.7760   75.3710 C   0  0  0  0  0  0  0  0  0  0  0  0
  134.6460  124.3480   74.9580 F   0  0  0  0  0  0  0  0  0  0  0  0
  133.2720  124.2090   76.6090 F   0  0  0  0  0  0  0  0  0  0  0  0
  133.7230  122.4590   75.4060 F   0  0  0  0  0  0  0  0  0  0  0  0
  131.3960  123.0750   74.1660 C   0  0  0  0  0  0  0  0  0  0  0  0
  130.3000  123.3270   73.3340 C   0  0  0  0  0  0  0  0  0  0  0  0
  129.3010  122.2690   72.9740 C   0  0  0  0  0  0  0  0  0  0  0  0
  129.1020  121.8950   71.6350 C   0  0  0  0  0  0  0  0  0  0  0  0
  128.1780  120.9110   71.2940 C   0  0  0  0  0  0  0  0  0  0  0  0
  127.4370  120.2860   72.2910 C   0  0  0  0  0  0  0  0  0  0  0  0
  127.6160  120.6350   73.6260 C   0  0  0  0  0  0  0  0  0  0  0  0
  128.5430  121.6190   73.9620 C   0  0  0  0  0  0  0  0  0  0  0  0
  130.1030  124.5560   72.7940 N   0  0  0  0  0  0  0  0  0  0  0  0
  130.9620  125.5640   73.0800 C   0  0  0  0  0  0  0  0  0  0  0  0
  130.5310  127.1030   72.2940 S   0  0  0  0  0  0  0  0  0  0  0  0
  128.7200  127.1750   72.1510 C   0  0  0  0  0  0  0  0  0  0  0  0
  128.1410  128.3960   72.8650 C   0  0  0  0  0  0  0  0  0  0  0  0
  128.7410  129.4690   72.7980 O   0  0  0  0  0  0  0  0  0  0  0  0
  126.9870  128.1820   73.5340 N   0  0  0  0  0  0  0  0  0  0  0  0
  126.2090  129.0790   74.2920 C   0  0  0  0  0  0  0  0  0  0  0  0
  126.6490  130.3090   74.8140 C   0  0  0  0  0  0  0  0  0  0  0  0
  125.7660  131.1010   75.5520 C   0  0  0  0  0  0  0  0  0  0  0  0
  124.4630  130.6430   75.7510 C   0  0  0  0  0  0  0  0  0  0  0  0
  124.0150  129.4620   75.2580 N   0  0  0  0  0  0  0  0  0  0  0  0
  124.8840  128.7040   74.5420 C   0  0  0  0  0  0  0  0  0  0  0  0
  131.5397  122.0714   74.5927 H   0  0  0  0  0  0  0  0  0  0  0  0
  129.6855  122.3874   70.8431 H   0  0  0  0  0  0  0  0  0  0  0  0
  128.0347  120.6291   70.2404 H   0  0  0  0  0  0  0  0  0  0  0  0
  126.7045  119.5106   72.0225 H   0  0  0  0  0  0  0  0  0  0  0  0
  127.0289  120.1368   74.4115 H   0  0  0  0  0  0  0  0  0  0  0  0
  128.6838  121.8915   75.0184 H   0  0  0  0  0  0  0  0  0  0  0  0
  128.4488  127.2238   71.0861 H   0  0  0  0  0  0  0  0  0  0  0  0
  128.3041  126.2735   72.6247 H   0  0  0  0  0  0  0  0  0  0  0  0
  126.6140  127.2460   73.4880 H   0  0  0  0  0  0  0  0  0  0  0  0
  127.6822  130.6452   74.6421 H   0  0  0  0  0  0  0  0  0  0  0  0
  126.0913  132.0661   75.9678 H   0  0  0  0  0  0  0  0  0  0  0  0
  123.7691  131.2672   76.3331 H   0  0  0  0  0  0  0  0  0  0  0  0
  124.5283  127.7450   74.1372 H   0  0  0  0  0  0  0  0  0  0  0  0
  1  2  3  0
  2  3  1  0
  3  4  2  0
  4  5  1  0
  5  6  1  0
  5  7  1  0
  5  8  1  0
  4  9  1  0
  9 10  2  0
 10 11  1  0
 11 12  2  0
 12 13  1  0
 13 14  2  0
 14 15  1  0
 15 16  2  0
 10 17  1  0
 17 18  2  0
 18 19  1  0
 19 20  1  0
 20 21  1  0
 21 22  2  0
 21 23  1  0
 23 24  1  0
 24 25  2  0
 25 26  1  0
 26 27  2  0
 27 28  1  0
 28 29  2  0
 18  3  1  0
 29 24  1  0
 16 11  1  0
  9 30  1  0
 12 31  1  0
 13 32  1  0
 14 33  1  0
 15 34  1  0
 16 35  1  0
 20 36  1  0
 20 37  1  0
 23 38  1  0
 25 39  1  0
 26 40  1  0
 27 41  1  0
 29 42  1  0
M  END
>  <Binding energies>  (1) 
[-9.13]

>  <Ligand effiencies>  (1) 
[-0.30433333333333334]

>  <Interactions>  (1) 
["V-A:LYS:471:CE:4218, H-B:GLY:544:O:9885, V-B:HIS:456:CA:9035, V-B:VAL:458:CG2:9059, V-A:HIS:456:CB:4063, V-A:HIS:456:CD2:4066, V-B:LYS:471:CD:9191, V-B:GLY:544:C:9884, V-A:VAL:458:CG2:4085, V-A:HIS:456:CG:4064, V-A:HIS:456:C:4059, V-A:VAL:457:C:4071, V-B:LYS:471:CE:9192, V-A:LYS:471:CG:4216, V-B:HIS:456:C:9033, V-B:HIS:456:CD2:9040, V-A:LYS:547:CE:4948, V-B:LYS:471:CG:9190, H-A:LYS:547:NZ:4949, V-A:ASP:473:CG:4238, V-A:LYS:471:CD:4217, V-B:HIS:456:CG:9038, V-B:HIS:456:CB:9037, V-A:HIS:456:CA:4061, H-B:LYS:547:NZ:9923, V-A:VAL:457:CA:4073, H-B:VAL:458:N:9056, V-B:ASP:473:CG:9212, V-B:LYS:547:CE:9922, V-B:GLY:544:CA:9886, V-B:GLU:543:C:9874, V-A:TYR:484:CG:4340, V-A:TYR:484:CB:4339, V-B:GLU:543:CA:9876, V-A:TYR:484:CD1:4341, V-A:ASP:473:CB:4237, V-A:LYS:547:CD:4947, H-B:VAL:457:N:9048"]

$$$$
3ag_Grossjean_2025
     RDKit          3D

 46 48  0  0  0  0  0  0  0  0999 V2000
  126.7060  123.4980   61.5590 N   0  0  0  0  0  0  0  0  0  0  0  0
  126.8180  124.2620   60.6970 C   0  0  0  0  0  0  0  0  0  0  0  0
  126.9630  125.2310   59.6070 C   0  0  0  0  0  0  0  0  0  0  0  0
  128.0300  126.1620   59.6030 C   0  0  0  0  0  0  0  0  0  0  0  0
  129.1220  126.1810   60.6900 C   0  0  0  0  0  0  0  0  0  0  0  0
  130.1200  127.0200   60.4070 F   0  0  0  0  0  0  0  0  0  0  0  0
  128.5950  126.5600   61.8550 F   0  0  0  0  0  0  0  0  0  0  0  0
  129.6520  124.9650   60.8300 F   0  0  0  0  0  0  0  0  0  0  0  0
  128.0940  127.1050   58.5650 C   0  0  0  0  0  0  0  0  0  0  0  0
  127.1140  127.1250   57.5670 C   0  0  0  0  0  0  0  0  0  0  0  0
  127.1320  128.1100   56.4370 C   0  0  0  0  0  0  0  0  0  0  0  0
  128.1180  128.0400   55.4410 C   0  0  0  0  0  0  0  0  0  0  0  0
  128.1410  128.9510   54.3890 C   0  0  0  0  0  0  0  0  0  0  0  0
  127.1740  129.9500   54.3190 C   0  0  0  0  0  0  0  0  0  0  0  0
  126.1880  130.0430   55.2960 C   0  0  0  0  0  0  0  0  0  0  0  0
  126.1690  129.1300   56.3470 C   0  0  0  0  0  0  0  0  0  0  0  0
  126.1000  126.2220   57.5670 N   0  0  0  0  0  0  0  0  0  0  0  0
  126.0290  125.2900   58.5480 C   0  0  0  0  0  0  0  0  0  0  0  0
  124.6390  124.1920   58.3860 S   0  0  0  0  0  0  0  0  0  0  0  0
  124.4100  123.8650   56.6130 C   0  0  0  0  0  0  0  0  0  0  0  0
  125.7300  123.5500   55.9080 C   0  0  0  0  0  0  0  0  0  0  0  0
  126.1260  122.3850   55.8360 O   0  0  0  0  0  0  0  0  0  0  0  0
  126.3950  124.5970   55.3890 N   0  0  0  0  0  0  0  0  0  0  0  0
  127.6520  124.5200   54.6460 C   0  0  0  0  0  0  0  0  0  0  0  0
  128.8970  124.6600   55.5150 C   0  0  0  0  0  0  0  0  0  0  0  0
  129.9930  125.3890   55.0450 C   0  0  0  0  0  0  0  0  0  0  0  0
  131.1210  125.5440   55.8470 C   0  0  0  0  0  0  0  0  0  0  0  0
  131.1450  124.9780   57.1200 C   0  0  0  0  0  0  0  0  0  0  0  0
  130.0500  124.2630   57.6010 C   0  0  0  0  0  0  0  0  0  0  0  0
  128.9220  124.1080   56.7990 C   0  0  0  0  0  0  0  0  0  0  0  0
  128.9191  127.8319   58.5363 H   0  0  0  0  0  0  0  0  0  0  0  0
  128.8847  127.2529   55.4925 H   0  0  0  0  0  0  0  0  0  0  0  0
  128.9203  128.8819   53.6158 H   0  0  0  0  0  0  0  0  0  0  0  0
  127.1896  130.6694   53.4870 H   0  0  0  0  0  0  0  0  0  0  0  0
  125.4265  130.8347   55.2384 H   0  0  0  0  0  0  0  0  0  0  0  0
  125.3887  129.2081   57.1184 H   0  0  0  0  0  0  0  0  0  0  0  0
  123.7323  123.0065   56.4958 H   0  0  0  0  0  0  0  0  0  0  0  0
  123.9903  124.7723   56.1539 H   0  0  0  0  0  0  0  0  0  0  0  0
  125.9920  125.5180   55.4850 H   0  0  0  0  0  0  0  0  0  0  0  0
  127.6935  123.5458   54.1370 H   0  0  0  0  0  0  0  0  0  0  0  0
  127.6581  125.3663   53.9434 H   0  0  0  0  0  0  0  0  0  0  0  0
  129.9646  125.8401   54.0421 H   0  0  0  0  0  0  0  0  0  0  0  0
  131.9885  126.1104   55.4774 H   0  0  0  0  0  0  0  0  0  0  0  0
  132.0376  125.0968   57.7518 H   0  0  0  0  0  0  0  0  0  0  0  0
  130.0764  123.8233   58.6089 H   0  0  0  0  0  0  0  0  0  0  0  0
  128.0512  123.5515   57.1758 H   0  0  0  0  0  0  0  0  0  0  0  0
  1  2  3  0
  2  3  1  0
  3  4  2  0
  4  5  1  0
  5  6  1  0
  5  7  1  0
  5  8  1  0
  4  9  1  0
  9 10  2  0
 10 11  1  0
 11 12  2  0
 12 13  1  0
 13 14  2  0
 14 15  1  0
 15 16  2  0
 10 17  1  0
 17 18  2  0
 18 19  1  0
 19 20  1  0
 20 21  1  0
 21 22  2  0
 21 23  1  0
 23 24  1  0
 24 25  1  0
 25 26  2  0
 26 27  1  0
 27 28  2  0
 28 29  1  0
 29 30  2  0
 18  3  1  0
 30 25  1  0
 16 11  1  0
  9 31  1  0
 12 32  1  0
 13 33  1  0
 14 34  1  0
 15 35  1  0
 16 36  1  0
 20 37  1  0
 20 38  1  0
 23 39  1  0
 24 40  1  0
 24 41  1  0
 26 42  1  0
 27 43  1  0
 28 44  1  0
 29 45  1  0
 30 46  1  0
M  END
>  <Binding energies>  (1) 
[-7.13]

>  <Ligand effiencies>  (1) 
[-0.23]

>  <Interactions>  (1) 
["V-B:TYR:539:CZ:9849, V-B:PRO:540:CB:9857, H-B:ALA:541:N:9863, V-B:TYR:539:CE2:9848, V-B:TYR:539:CE1:9847, V-B:MET:535:CE:9807, V-A:TYR:539:CE1:4873, V-A:TYR:539:CZ:4875, V-B:TYR:531:CE2:9765, V-B:TYR:531:CZ:9766, H-B:TYR:539:N:9842, V-B:GLU:543:CD:9880, H-B:TYR:531:OH:9767, V-B:ILE:538:CG2:9835, V-B:ILE:538:CB:9834, V-B:TYR:531:CE1:9764"]

$$$$
3ai_Grossjean_2025
     RDKit          3D

 39 41  0  0  0  0  0  0  0  0999 V2000
  133.5850  127.2940   74.3710 N   0  0  0  0  0  0  0  0  0  0  0  0
  132.8710  126.4130   74.1390 C   0  0  0  0  0  0  0  0  0  0  0  0
  131.9660  125.2970   73.8470 C   0  0  0  0  0  0  0  0  0  0  0  0
  132.2720  123.9840   74.2810 C   0  0  0  0  0  0  0  0  0  0  0  0
  133.5260  123.6550   75.1130 C   0  0  0  0  0  0  0  0  0  0  0  0
  133.8890  122.3740   75.0170 F   0  0  0  0  0  0  0  0  0  0  0  0
  134.5550  124.3960   74.6980 F   0  0  0  0  0  0  0  0  0  0  0  0
  133.3020  123.9090   76.4020 F   0  0  0  0  0  0  0  0  0  0  0  0
  131.3980  122.9430   73.9350 C   0  0  0  0  0  0  0  0  0  0  0  0
  130.2530  123.2030   73.1750 C   0  0  0  0  0  0  0  0  0  0  0  0
  129.2910  122.1280   72.7670 C   0  0  0  0  0  0  0  0  0  0  0  0
  128.5840  121.3960   73.7330 C   0  0  0  0  0  0  0  0  0  0  0  0
  127.6860  120.3990   73.3620 C   0  0  0  0  0  0  0  0  0  0  0  0
  127.4810  120.1220   72.0140 C   0  0  0  0  0  0  0  0  0  0  0  0
  128.1680  120.8340   71.0370 C   0  0  0  0  0  0  0  0  0  0  0  0
  129.0650  121.8300   71.4120 C   0  0  0  0  0  0  0  0  0  0  0  0
  129.9680  124.4620   72.7530 N   0  0  0  0  0  0  0  0  0  0  0  0
  130.7840  125.4880   73.0960 C   0  0  0  0  0  0  0  0  0  0  0  0
  130.2390  127.0650   72.4740 S   0  0  0  0  0  0  0  0  0  0  0  0
  128.4150  127.0920   72.5380 C   0  0  0  0  0  0  0  0  0  0  0  0
  127.8080  128.3470   73.1820 C   0  0  0  0  0  0  0  0  0  0  0  0
  128.3950  129.4300   73.1300 O   0  0  0  0  0  0  0  0  0  0  0  0
  126.6150  128.1490   73.7880 N   0  0  0  0  0  0  0  0  0  0  0  0
  125.8370  129.0950   74.4420 C   0  0  0  0  0  0  0  0  0  0  0  0
  126.3320  130.3260   74.8700 C   0  0  0  0  0  0  0  0  0  0  0  0
  125.2630  130.9560   75.4640 C   0  0  0  0  0  0  0  0  0  0  0  0
  124.1790  130.1470   75.3970 O   0  0  0  0  0  0  0  0  0  0  0  0
  124.5550  128.9710   74.7470 N   0  0  0  0  0  0  0  0  0  0  0  0
  131.6144  121.9157   74.2634 H   0  0  0  0  0  0  0  0  0  0  0  0
  128.7417  121.6132   74.7997 H   0  0  0  0  0  0  0  0  0  0  0  0
  127.1408  119.8326   74.1314 H   0  0  0  0  0  0  0  0  0  0  0  0
  126.7712  119.3350   71.7194 H   0  0  0  0  0  0  0  0  0  0  0  0
  128.0033  120.6111   69.9725 H   0  0  0  0  0  0  0  0  0  0  0  0
  129.6052  122.3925   70.6363 H   0  0  0  0  0  0  0  0  0  0  0  0
  128.0361  127.0195   71.5079 H   0  0  0  0  0  0  0  0  0  0  0  0
  128.1165  126.2449   73.1731 H   0  0  0  0  0  0  0  0  0  0  0  0
  126.2340  127.2140   73.7660 H   0  0  0  0  0  0  0  0  0  0  0  0
  127.3564  130.7106   74.7571 H   0  0  0  0  0  0  0  0  0  0  0  0
  125.2852  131.9566   75.9203 H   0  0  0  0  0  0  0  0  0  0  0  0
  1  2  3  0
  2  3  1  0
  3  4  2  0
  4  5  1  0
  5  6  1  0
  5  7  1  0
  5  8  1  0
  4  9  1  0
  9 10  2  0
 10 11  1  0
 11 12  2  0
 12 13  1  0
 13 14  2  0
 14 15  1  0
 15 16  2  0
 10 17  1  0
 17 18  2  0
 18 19  1  0
 19 20  1  0
 20 21  1  0
 21 22  2  0
 21 23  1  0
 23 24  1  0
 24 25  1  0
 25 26  2  0
 26 27  1  0
 27 28  1  0
 18  3  1  0
 28 24  2  0
 16 11  1  0
  9 29  1  0
 12 30  1  0
 13 31  1  0
 14 32  1  0
 15 33  1  0
 16 34  1  0
 20 35  1  0
 20 36  1  0
 23 37  1  0
 25 38  1  0
 26 39  1  0
M  END
>  <Binding energies>  (1) 
[-8.61]

>  <Ligand effiencies>  (1) 
[-0.2968965517241379]

>  <Interactions>  (1) 
["V-A:LYS:471:CE:4218, H-B:GLY:544:O:9885, V-B:VAL:458:CG2:9059, V-A:HIS:456:CB:4063, V-A:HIS:456:CD2:4066, V-B:LYS:471:CD:9191, V-B:GLY:544:C:9884, V-A:VAL:458:CG2:4085, V-A:HIS:456:CG:4064, V-A:HIS:456:C:4059, V-A:VAL:457:C:4071, V-B:LYS:471:CE:9192, V-A:LYS:471:CG:4216, V-B:HIS:456:C:9033, V-B:HIS:456:CD2:9040, V-A:LYS:547:CE:4948, H-A:LYS:547:NZ:4949, V-A:ASP:473:CG:4238, V-A:LYS:471:CD:4217, V-B:HIS:456:CG:9038, V-B:HIS:456:CB:9037, V-A:HIS:456:CA:4061, H-B:LYS:547:NZ:9923, V-A:LYS:471:CB:4215, V-A:VAL:457:CA:4073, V-B:LYS:547:CE:9922, V-B:GLY:544:CA:9886, V-B:GLU:543:C:9874, V-A:TYR:484:CG:4340, V-A:TYR:484:CB:4339, V-B:GLU:543:CA:9876, V-A:TYR:484:CD1:4341, V-A:ASP:473:CB:4237, V-A:LYS:547:CD:4947, H-B:VAL:457:N:9048"]

$$$$
3aj_Grossjean_2025
     RDKit          3D

 39 41  0  0  0  0  0  0  0  0999 V2000
  133.8760  127.2990   74.2700 N   0  0  0  0  0  0  0  0  0  0  0  0
  133.1180  126.4440   74.0900 C   0  0  0  0  0  0  0  0  0  0  0  0
  132.1570  125.3600   73.8650 C   0  0  0  0  0  0  0  0  0  0  0  0
  132.3550  124.0850   74.4490 C   0  0  0  0  0  0  0  0  0  0  0  0
  133.5440  123.7710   75.3770 C   0  0  0  0  0  0  0  0  0  0  0  0
  134.6830  124.3360   74.9680 F   0  0  0  0  0  0  0  0  0  0  0  0
  133.2920  124.2170   76.6080 F   0  0  0  0  0  0  0  0  0  0  0  0
  133.7480  122.4540   75.4270 F   0  0  0  0  0  0  0  0  0  0  0  0
  131.4310  123.0670   74.1630 C   0  0  0  0  0  0  0  0  0  0  0  0
  130.3460  123.3140   73.3170 C   0  0  0  0  0  0  0  0  0  0  0  0
  129.3370  122.2610   72.9710 C   0  0  0  0  0  0  0  0  0  0  0  0
  129.1230  121.8850   71.6360 C   0  0  0  0  0  0  0  0  0  0  0  0
  128.1900  120.9040   71.3080 C   0  0  0  0  0  0  0  0  0  0  0  0
  127.4560  120.2860   72.3160 C   0  0  0  0  0  0  0  0  0  0  0  0
  127.6510  120.6400   73.6470 C   0  0  0  0  0  0  0  0  0  0  0  0
  128.5850  121.6190   73.9700 C   0  0  0  0  0  0  0  0  0  0  0  0
  130.1650  124.5360   72.7530 N   0  0  0  0  0  0  0  0  0  0  0  0
  131.0290  125.5410   73.0320 C   0  0  0  0  0  0  0  0  0  0  0  0
  130.6200  127.0730   72.2230 S   0  0  0  0  0  0  0  0  0  0  0  0
  128.8020  127.1790   72.1120 C   0  0  0  0  0  0  0  0  0  0  0  0
  128.1760  128.3850   72.8290 C   0  0  0  0  0  0  0  0  0  0  0  0
  128.6980  129.5000   72.7610 O   0  0  0  0  0  0  0  0  0  0  0  0
  127.0420  128.1090   73.5110 N   0  0  0  0  0  0  0  0  0  0  0  0
  126.2730  129.0090   74.2370 C   0  0  0  0  0  0  0  0  0  0  0  0
  126.6500  130.1540   74.7630 N   0  0  0  0  0  0  0  0  0  0  0  0
  125.6550  130.7550   75.3850 C   0  0  0  0  0  0  0  0  0  0  0  0
  124.4310  130.0900   75.3720 C   0  0  0  0  0  0  0  0  0  0  0  0
  124.6070  128.5990   74.4970 S   0  0  0  0  0  0  0  0  0  0  0  0
  131.5618  122.0693   74.6073 H   0  0  0  0  0  0  0  0  0  0  0  0
  129.7006  122.3722   70.8367 H   0  0  0  0  0  0  0  0  0  0  0  0
  128.0341  120.6191   70.2570 H   0  0  0  0  0  0  0  0  0  0  0  0
  126.7171  119.5128   72.0586 H   0  0  0  0  0  0  0  0  0  0  0  0
  127.0693  120.1481   74.4405 H   0  0  0  0  0  0  0  0  0  0  0  0
  128.7375  121.8951   75.0238 H   0  0  0  0  0  0  0  0  0  0  0  0
  128.5279  127.2348   71.0481 H   0  0  0  0  0  0  0  0  0  0  0  0
  128.4108  126.2840   72.6180 H   0  0  0  0  0  0  0  0  0  0  0  0
  126.7040  127.1580   73.4900 H   0  0  0  0  0  0  0  0  0  0  0  0
  125.7839  131.7260   75.8856 H   0  0  0  0  0  0  0  0  0  0  0  0
  123.5031  130.4505   75.8400 H   0  0  0  0  0  0  0  0  0  0  0  0
  1  2  3  0
  2  3  1  0
  3  4  2  0
  4  5  1  0
  5  6  1  0
  5  7  1  0
  5  8  1  0
  4  9  1  0
  9 10  2  0
 10 11  1  0
 11 12  2  0
 12 13  1  0
 13 14  2  0
 14 15  1  0
 15 16  2  0
 10 17  1  0
 17 18  2  0
 18 19  1  0
 19 20  1  0
 20 21  1  0
 21 22  2  0
 21 23  1  0
 23 24  1  0
 24 25  2  0
 25 26  1  0
 26 27  2  0
 27 28  1  0
 18  3  1  0
 28 24  1  0
 16 11  1  0
  9 29  1  0
 12 30  1  0
 13 31  1  0
 14 32  1  0
 15 33  1  0
 16 34  1  0
 20 35  1  0
 20 36  1  0
 23 37  1  0
 26 38  1  0
 27 39  1  0
M  END
>  <Binding energies>  (1) 
[-9.03]

>  <Ligand effiencies>  (1) 
[-0.3113793103448276]

>  <Interactions>  (1) 
["V-A:LYS:471:CE:4218, H-B:GLY:544:O:9885, V-B:HIS:456:CA:9035, V-B:VAL:458:CG2:9059, V-B:VAL:457:C:9045, V-A:HIS:456:CB:4063, V-A:HIS:456:CD2:4066, V-B:GLY:544:C:9884, V-A:VAL:458:CG2:4085, V-A:HIS:456:CG:4064, V-A:HIS:456:C:4059, V-A:VAL:457:C:4071, V-B:LYS:471:CE:9192, V-A:LYS:471:CG:4216, V-B:HIS:456:C:9033, V-B:HIS:456:CD2:9040, V-A:LYS:547:CE:4948, H-A:LYS:547:NZ:4949, V-A:ASP:473:CG:4238, V-A:LYS:471:CD:4217, V-B:HIS:456:CG:9038, V-B:HIS:456:CB:9037, V-A:HIS:456:CA:4061, H-B:LYS:547:NZ:9923, V-A:LYS:471:CB:4215, V-A:VAL:457:CA:4073, V-B:LYS:547:CE:9922, V-B:GLY:544:CA:9886, V-B:GLU:543:C:9874, V-A:TYR:484:CG:4340, V-A:TYR:484:CB:4339, V-B:GLU:543:CA:9876, V-A:TYR:484:CD1:4341, V-A:ASP:473:CB:4237, V-A:LYS:547:CD:4947"]

$$$$
3ak_Grossjean_2025
     RDKit          3D

 57 58  0  0  0  0  0  0  0  0999 V2000
  132.6890  131.3770   61.3050 C   0  0  0  0  0  0  0  0  0  0  0  0
  131.3290  131.7340   61.1150 O   0  0  0  0  0  0  0  0  0  0  0  0
  130.8250  131.3790   59.8350 C   0  0  0  0  0  0  0  0  0  0  0  0
  131.9650  130.7910   58.9950 C   0  0  0  0  0  0  0  0  0  0  0  0
  131.7080  131.0530   57.6190 O   0  0  0  0  0  0  0  0  0  0  0  0
  132.6640  131.8820   56.9620 C   0  0  0  0  0  0  0  0  0  0  0  0
  132.2630  132.2750   55.5290 C   0  0  0  0  0  0  0  0  0  0  0  0
  130.8610  132.5020   55.4820 O   0  0  0  0  0  0  0  0  0  0  0  0
  130.1670  131.6430   54.5870 C   0  0  0  0  0  0  0  0  0  0  0  0
  129.3410  130.6100   55.3750 C   0  0  0  0  0  0  0  0  0  0  0  0
  130.1530  129.5650   56.0010 N   0  0  0  0  0  0  0  0  0  0  0  0
  129.6880  128.4330   56.5620 C   0  0  0  0  0  0  0  0  0  0  0  0
  128.4900  128.1460   56.5900 O   0  0  0  0  0  0  0  0  0  0  0  0
  130.6900  127.4540   57.1960 C   0  0  0  0  0  0  0  0  0  0  0  0
  130.8030  125.7920   56.4350 S   0  0  0  0  0  0  0  0  0  0  0  0
  129.8540  124.6440   57.4220 C   0  0  0  0  0  0  0  0  0  0  0  0
  128.5320  124.5730   57.1280 N   0  0  0  0  0  0  0  0  0  0  0  0
  127.7270  123.7340   57.8270 C   0  0  0  0  0  0  0  0  0  0  0  0
  126.2790  123.7180   57.4360 C   0  0  0  0  0  0  0  0  0  0  0  0
  125.8750  123.1810   56.2040 C   0  0  0  0  0  0  0  0  0  0  0  0
  124.5320  123.1600   55.8360 C   0  0  0  0  0  0  0  0  0  0  0  0
  123.5720  123.6760   56.7000 C   0  0  0  0  0  0  0  0  0  0  0  0
  123.9450  124.2110   57.9280 C   0  0  0  0  0  0  0  0  0  0  0  0
  125.2890  124.2300   58.2930 C   0  0  0  0  0  0  0  0  0  0  0  0
  128.2450  122.9230   58.8430 C   0  0  0  0  0  0  0  0  0  0  0  0
  129.6080  122.9760   59.1660 C   0  0  0  0  0  0  0  0  0  0  0  0
  130.1420  122.0700   60.2920 C   0  0  0  0  0  0  0  0  0  0  0  0
  131.1700  121.3470   59.8490 F   0  0  0  0  0  0  0  0  0  0  0  0
  130.5480  122.8120   61.3230 F   0  0  0  0  0  0  0  0  0  0  0  0
  129.2220  121.2180   60.7520 F   0  0  0  0  0  0  0  0  0  0  0  0
  130.4410  123.8610   58.4390 C   0  0  0  0  0  0  0  0  0  0  0  0
  131.8750  123.9590   58.7330 C   0  0  0  0  0  0  0  0  0  0  0  0
  133.0060  124.0370   58.9660 N   0  0  0  0  0  0  0  0  0  0  0  0
  132.9061  131.3200   62.3819 H   0  0  0  0  0  0  0  0  0  0  0  0
  132.8796  130.3984   60.8402 H   0  0  0  0  0  0  0  0  0  0  0  0
  133.3357  132.1358   60.8402 H   0  0  0  0  0  0  0  0  0  0  0  0
  130.0262  130.6311   59.9476 H   0  0  0  0  0  0  0  0  0  0  0  0
  130.4172  132.2704   59.3359 H   0  0  0  0  0  0  0  0  0  0  0  0
  132.9175  131.2570   59.2878 H   0  0  0  0  0  0  0  0  0  0  0  0
  132.0286  129.7056   59.1617 H   0  0  0  0  0  0  0  0  0  0  0  0
  132.7893  132.8019   57.5520 H   0  0  0  0  0  0  0  0  0  0  0  0
  133.5949  131.3008   56.8868 H   0  0  0  0  0  0  0  0  0  0  0  0
  132.7943  133.1928   55.2368 H   0  0  0  0  0  0  0  0  0  0  0  0
  132.5297  131.4643   54.8350 H   0  0  0  0  0  0  0  0  0  0  0  0
  129.4935  132.2424   53.9568 H   0  0  0  0  0  0  0  0  0  0  0  0
  130.8979  131.1138   53.9579 H   0  0  0  0  0  0  0  0  0  0  0  0
  128.7852  131.1379   56.1639 H   0  0  0  0  0  0  0  0  0  0  0  0
  128.6745  130.1128   54.6549 H   0  0  0  0  0  0  0  0  0  0  0  0
  131.1510  129.7190   56.0000 H   0  0  0  0  0  0  0  0  0  0  0  0
  131.6873  127.9148   57.1416 H   0  0  0  0  0  0  0  0  0  0  0  0
  130.3211  127.2815   58.2178 H   0  0  0  0  0  0  0  0  0  0  0  0
  126.6308  122.7703   55.5184 H   0  0  0  0  0  0  0  0  0  0  0  0
  124.2317  122.7370   54.8660 H   0  0  0  0  0  0  0  0  0  0  0  0
  122.5110  123.6608   56.4100 H   0  0  0  0  0  0  0  0  0  0  0  0
  123.1820  124.6174   58.6082 H   0  0  0  0  0  0  0  0  0  0  0  0
  125.5802  124.6519   59.2663 H   0  0  0  0  0  0  0  0  0  0  0  0
  127.5790  122.2403   59.3911 H   0  0  0  0  0  0  0  0  0  0  0  0
  1  2  1  0
  2  3  1  0
  3  4  1  0
  4  5  1  0
  5  6  1  0
  6  7  1  0
  7  8  1  0
  8  9  1  0
  9 10  1  0
 10 11  1  0
 11 12  1  0
 12 13  2  0
 12 14  1  0
 14 15  1  0
 15 16  1  0
 16 17  2  0
 17 18  1  0
 18 19  1  0
 19 20  2  0
 20 21  1  0
 21 22  2  0
 22 23  1  0
 23 24  2  0
 18 25  2  0
 25 26  1  0
 26 27  1  0
 27 28  1  0
 27 29  1  0
 27 30  1  0
 26 31  2  0
 31 32  1  0
 32 33  3  0
 31 16  1  0
 24 19  1  0
  1 34  1  0
  1 35  1  0
  1 36  1  0
  3 37  1  0
  3 38  1  0
  4 39  1  0
  4 40  1  0
  6 41  1  0
  6 42  1  0
  7 43  1  0
  7 44  1  0
  9 45  1  0
  9 46  1  0
 10 47  1  0
 10 48  1  0
 11 49  1  0
 14 50  1  0
 14 51  1  0
 20 52  1  0
 21 53  1  0
 22 54  1  0
 23 55  1  0
 24 56  1  0
 25 57  1  0
M  END
>  <Binding energies>  (1) 
[-7.63]

>  <Ligand effiencies>  (1) 
[-0.22441176470588234]

>  <Interactions>  (1) 
["V-B:PRO:540:N:9856, V-B:LEU:363:CA:8157, V-B:TYR:539:CZ:9849, V-B:ALA:541:CB:9864, V-B:ASP:366:CG:8185, V-B:PRO:540:CB:9857, V-B:PRO:540:CA:9855, V-B:PRO:540:C:9853, V-B:ALA:541:CA:9862, V-B:TYR:539:CE2:9848, V-B:TYR:539:CD2:9846, V-A:PRO:540:N:4882, H-A:TYR:539:N:4868, V-A:ILE:538:CA:4858, V-A:TYR:531:CE2:4791, H-A:TYR:531:OH:4793, V-A:ILE:538:CB:4860, V-A:PRO:540:CA:4881, V-A:ILE:538:CG2:4861, V-A:PRO:540:CB:4883, V-B:TYR:531:CE2:9765, V-B:LEU:363:CD1:8161, V-B:TYR:531:CZ:9766, V-B:TYR:539:C:9839, V-B:ILE:538:CG2:9835, V-B:PRO:540:CD:9859, V-B:ILE:538:CB:9834, H-A:ALA:541:N:4889, V-A:PRO:540:CD:4885, V-A:ASN:362:CB:3174, H-B:TYR:539:OH:9850, V-A:PRO:540:C:4879, V-A:PRO:540:CG:4884"]

$$$$
3bc_Grossjean_2025
     RDKit          3D

 47 49  0  0  0  0  0  0  0  0999 V2000
  131.6460  132.1230   56.0320 C   0  0  0  0  0  0  0  0  0  0  0  0
  130.2380  132.2670   55.8760 O   0  0  0  0  0  0  0  0  0  0  0  0
  129.4620  131.1370   55.6950 C   0  0  0  0  0  0  0  0  0  0  0  0
  130.1390  129.9670   55.3520 C   0  0  0  0  0  0  0  0  0  0  0  0
  129.4430  128.7780   55.1490 C   0  0  0  0  0  0  0  0  0  0  0  0
  128.0530  128.7470   55.2790 C   0  0  0  0  0  0  0  0  0  0  0  0
  127.4380  127.4990   55.0670 N   0  0  0  0  0  0  0  0  0  0  0  0
  127.7650  126.2910   55.5740 C   0  0  0  0  0  0  0  0  0  0  0  0
  128.6800  126.0900   56.3750 O   0  0  0  0  0  0  0  0  0  0  0  0
  126.8670  125.1360   55.1080 C   0  0  0  0  0  0  0  0  0  0  0  0
  127.4300  123.4700   55.5980 S   0  0  0  0  0  0  0  0  0  0  0  0
  127.4590  123.4060   57.3750 C   0  0  0  0  0  0  0  0  0  0  0  0
  128.6600  123.0430   57.8890 N   0  0  0  0  0  0  0  0  0  0  0  0
  128.8220  122.9560   59.2350 C   0  0  0  0  0  0  0  0  0  0  0  0
  130.1750  122.5270   59.7210 C   0  0  0  0  0  0  0  0  0  0  0  0
  130.3530  121.2770   60.3330 C   0  0  0  0  0  0  0  0  0  0  0  0
  131.6060  120.8720   60.7860 C   0  0  0  0  0  0  0  0  0  0  0  0
  132.7000  121.7160   60.6340 C   0  0  0  0  0  0  0  0  0  0  0  0
  132.5510  122.9620   60.0340 C   0  0  0  0  0  0  0  0  0  0  0  0
  131.2960  123.3630   59.5830 C   0  0  0  0  0  0  0  0  0  0  0  0
  127.7650  123.2370   60.1060 C   0  0  0  0  0  0  0  0  0  0  0  0
  126.5250  123.6360   59.5930 C   0  0  0  0  0  0  0  0  0  0  0  0
  125.4030  123.9500   60.5820 C   0  0  0  0  0  0  0  0  0  0  0  0
  126.3560  123.7380   58.1950 C   0  0  0  0  0  0  0  0  0  0  0  0
  125.0840  124.2000   57.6380 C   0  0  0  0  0  0  0  0  0  0  0  0
  124.0770  124.5660   57.2000 N   0  0  0  0  0  0  0  0  0  0  0  0
  127.3660  129.9160   55.6370 C   0  0  0  0  0  0  0  0  0  0  0  0
  128.0670  131.1030   55.8390 C   0  0  0  0  0  0  0  0  0  0  0  0
  131.8955  132.0975   57.1030 H   0  0  0  0  0  0  0  0  0  0  0  0
  131.9737  131.1867   55.5567 H   0  0  0  0  0  0  0  0  0  0  0  0
  132.1565  132.9736   55.5567 H   0  0  0  0  0  0  0  0  0  0  0  0
  131.2332  129.9835   55.2407 H   0  0  0  0  0  0  0  0  0  0  0  0
  129.9898  127.8606   54.8855 H   0  0  0  0  0  0  0  0  0  0  0  0
  126.6030  127.5360   54.5000 H   0  0  0  0  0  0  0  0  0  0  0  0
  125.8631  125.2938   55.5290 H   0  0  0  0  0  0  0  0  0  0  0  0
  126.8893  125.1555   54.0084 H   0  0  0  0  0  0  0  0  0  0  0  0
  129.4896  120.6067   60.4568 H   0  0  0  0  0  0  0  0  0  0  0  0
  131.7295  119.8881   61.2622 H   0  0  0  0  0  0  0  0  0  0  0  0
  133.6903  121.3963   60.9906 H   0  0  0  0  0  0  0  0  0  0  0  0
  133.4195  123.6268   59.9164 H   0  0  0  0  0  0  0  0  0  0  0  0
  131.1803  124.3499   59.1112 H   0  0  0  0  0  0  0  0  0  0  0  0
  127.9075  123.1447   61.1928 H   0  0  0  0  0  0  0  0  0  0  0  0
  125.7801  123.8445   61.6099 H   0  0  0  0  0  0  0  0  0  0  0  0
  125.0527  124.9807   60.4240 H   0  0  0  0  0  0  0  0  0  0  0  0
  124.5686  123.2509   60.4240 H   0  0  0  0  0  0  0  0  0  0  0  0
  126.2729  129.8958   55.7584 H   0  0  0  0  0  0  0  0  0  0  0  0
  127.5233  132.0191   56.1131 H   0  0  0  0  0  0  0  0  0  0  0  0
  1  2  1  0
  2  3  1  0
  3  4  2  0
  4  5  1  0
  5  6  2  0
  6  7  1  0
  7  8  1  0
  8  9  2  0
  8 10  1  0
 10 11  1  0
 11 12  1  0
 12 13  2  0
 13 14  1  0
 14 15  1  0
 15 16  2  0
 16 17  1  0
 17 18  2  0
 18 19  1  0
 19 20  2  0
 14 21  2  0
 21 22  1  0
 22 23  1  0
 22 24  2  0
 24 25  1  0
 25 26  3  0
  6 27  1  0
 27 28  2  0
 28  3  1  0
 24 12  1  0
 20 15  1  0
  1 29  1  0
  1 30  1  0
  1 31  1  0
  4 32  1  0
  5 33  1  0
  7 34  1  0
 10 35  1  0
 10 36  1  0
 16 37  1  0
 17 38  1  0
 18 39  1  0
 19 40  1  0
 20 41  1  0
 21 42  1  0
 23 43  1  0
 23 44  1  0
 23 45  1  0
 27 46  1  0
 28 47  1  0
M  END
>  <Binding energies>  (1) 
[-8.14]

>  <Ligand effiencies>  (1) 
[-0.2806896551724138]

>  <Interactions>  (1) 
["V-B:PRO:540:N:9856, V-B:ALA:541:CB:9864, V-B:PRO:540:CB:9857, V-B:PRO:540:CA:9855, V-B:PRO:540:C:9853, V-B:TYR:539:CE2:9848, V-A:LEU:475:CD2:4257, V-B:TYR:539:CD2:9846, V-A:TYR:539:CE1:4873, V-A:PRO:540:N:4882, H-A:TYR:539:N:4868, V-A:ILE:538:CA:4858, V-A:TYR:539:CZ:4875, V-A:ILE:538:CB:4860, V-A:ILE:538:CG2:4861, V-A:TYR:531:CZ:4792, V-B:TYR:531:CZ:9766, H-B:TYR:539:N:9842, H-B:MET:535:SD:9806, H-B:TYR:531:OH:9767, V-B:TYR:539:C:9839, V-A:PRO:540:CD:4885, V-A:TYR:539:CE2:4874, V-B:MET:535:CG:9805"]

$$$$
3bd_Grossjean_2025
     RDKit          3D

 43 45  0  0  0  0  0  0  0  0999 V2000
  133.3570  123.3220   75.2380 C   0  0  0  0  0  0  0  0  0  0  0  0
  132.1860  123.7490   74.3550 C   0  0  0  0  0  0  0  0  0  0  0  0
  131.2320  122.7850   74.0090 C   0  0  0  0  0  0  0  0  0  0  0  0
  130.1460  123.1360   73.1980 C   0  0  0  0  0  0  0  0  0  0  0  0
  129.0870  122.1540   72.7940 C   0  0  0  0  0  0  0  0  0  0  0  0
  129.0000  121.6960   71.4700 C   0  0  0  0  0  0  0  0  0  0  0  0
  128.0180  120.7860   71.0870 C   0  0  0  0  0  0  0  0  0  0  0  0
  127.1050  120.3200   72.0280 C   0  0  0  0  0  0  0  0  0  0  0  0
  127.1670  120.7600   73.3460 C   0  0  0  0  0  0  0  0  0  0  0  0
  128.1500  121.6700   73.7240 C   0  0  0  0  0  0  0  0  0  0  0  0
  129.9950  124.4090   72.7510 N   0  0  0  0  0  0  0  0  0  0  0  0
  130.9110  125.3570   73.0750 C   0  0  0  0  0  0  0  0  0  0  0  0
  130.6050  126.9870   72.4150 S   0  0  0  0  0  0  0  0  0  0  0  0
  128.8200  127.1440   72.1060 C   0  0  0  0  0  0  0  0  0  0  0  0
  128.2160  128.3440   72.8370 C   0  0  0  0  0  0  0  0  0  0  0  0
  128.7970  129.4280   72.7890 O   0  0  0  0  0  0  0  0  0  0  0  0
  127.0670  128.1040   73.5050 N   0  0  0  0  0  0  0  0  0  0  0  0
  126.2670  128.9990   74.2410 C   0  0  0  0  0  0  0  0  0  0  0  0
  126.8760  130.1970   74.6220 C   0  0  0  0  0  0  0  0  0  0  0  0
  126.1670  131.1410   75.3600 C   0  0  0  0  0  0  0  0  0  0  0  0
  124.8490  130.8820   75.7260 C   0  0  0  0  0  0  0  0  0  0  0  0
  124.2350  129.6850   75.3650 C   0  0  0  0  0  0  0  0  0  0  0  0
  124.9420  128.7400   74.6260 C   0  0  0  0  0  0  0  0  0  0  0  0
  132.0340  125.0700   73.8810 C   0  0  0  0  0  0  0  0  0  0  0  0
  133.0150  126.1030   74.2270 C   0  0  0  0  0  0  0  0  0  0  0  0
  133.7890  126.9180   74.5010 N   0  0  0  0  0  0  0  0  0  0  0  0
  133.0749  123.4249   76.2962 H   0  0  0  0  0  0  0  0  0  0  0  0
  133.6120  122.2730   75.0268 H   0  0  0  0  0  0  0  0  0  0  0  0
  134.2274  123.9606   75.0268 H   0  0  0  0  0  0  0  0  0  0  0  0
  131.3354  121.7525   74.3740 H   0  0  0  0  0  0  0  0  0  0  0  0
  129.7194  122.0620   70.7227 H   0  0  0  0  0  0  0  0  0  0  0  0
  127.9643  120.4371   70.0452 H   0  0  0  0  0  0  0  0  0  0  0  0
  126.3298  119.5996   71.7278 H   0  0  0  0  0  0  0  0  0  0  0  0
  126.4423  120.3904   74.0864 H   0  0  0  0  0  0  0  0  0  0  0  0
  128.1946  122.0161   74.7672 H   0  0  0  0  0  0  0  0  0  0  0  0
  128.6560  127.2670   71.0253 H   0  0  0  0  0  0  0  0  0  0  0  0
  128.3286  126.2344   72.4817 H   0  0  0  0  0  0  0  0  0  0  0  0
  126.7560  127.1440   73.5320 H   0  0  0  0  0  0  0  0  0  0  0  0
  127.9200  130.3954   74.3378 H   0  0  0  0  0  0  0  0  0  0  0  0
  126.6460  132.0870   75.6525 H   0  0  0  0  0  0  0  0  0  0  0  0
  124.2874  131.6295   76.3056 H   0  0  0  0  0  0  0  0  0  0  0  0
  123.1948  129.4868   75.6628 H   0  0  0  0  0  0  0  0  0  0  0  0
  124.4625  127.7910   74.3440 H   0  0  0  0  0  0  0  0  0  0  0  0
  1  2  1  0
  2  3  2  0
  3  4  1  0
  4  5  1  0
  5  6  2  0
  6  7  1  0
  7  8  2  0
  8  9  1  0
  9 10  2  0
  4 11  2  0
 11 12  1  0
 12 13  1  0
 13 14  1  0
 14 15  1  0
 15 16  2  0
 15 17  1  0
 17 18  1  0
 18 19  2  0
 19 20  1  0
 20 21  2  0
 21 22  1  0
 22 23  2  0
 12 24  2  0
 24 25  1  0
 25 26  3  0
 24  2  1  0
 10  5  1  0
 23 18  1  0
  1 27  1  0
  1 28  1  0
  1 29  1  0
  3 30  1  0
  6 31  1  0
  7 32  1  0
  8 33  1  0
  9 34  1  0
 10 35  1  0
 14 36  1  0
 14 37  1  0
 17 38  1  0
 19 39  1  0
 20 40  1  0
 21 41  1  0
 22 42  1  0
 23 43  1  0
M  END
>  <Binding energies>  (1) 
[-9.82]

>  <Ligand effiencies>  (1) 
[-0.3637037037037037]

>  <Interactions>  (1) 
["V-A:LYS:471:CE:4218, H-B:GLY:544:O:9885, V-B:HIS:456:CA:9035, V-B:VAL:458:CG2:9059, V-B:VAL:457:C:9045, V-A:HIS:456:CB:4063, V-A:HIS:456:CD2:4066, V-B:LYS:471:CD:9191, V-B:GLY:544:C:9884, V-A:VAL:458:CG2:4085, V-A:HIS:456:CG:4064, V-A:HIS:456:C:4059, V-B:LYS:471:CE:9192, V-A:LYS:471:CG:4216, V-B:HIS:456:C:9033, V-B:HIS:456:CD2:9040, V-A:LYS:547:CE:4948, V-B:LYS:471:CG:9190, V-B:VAL:457:CA:9047, H-A:LYS:547:NZ:4949, V-A:ASP:473:CG:4238, V-A:LYS:471:CD:4217, V-B:HIS:456:CG:9038, V-B:HIS:456:CB:9037, H-B:LYS:547:NZ:9923, V-B:ASP:473:CG:9212, V-B:LYS:547:CE:9922, V-B:GLY:544:CA:9886, V-B:GLU:543:C:9874, V-A:TYR:484:CG:4340, V-A:TYR:484:CB:4339, V-B:GLU:543:CA:9876, V-A:TYR:484:CD1:4341"]

$$$$
3be_Grossjean_2025
     RDKit          3D

 45 47  0  0  0  0  0  0  0  0999 V2000
  126.4090  131.7440   75.3550 C   0  0  0  0  0  0  0  0  0  0  0  0
  126.1890  130.2880   74.9940 C   0  0  0  0  0  0  0  0  0  0  0  0
  125.0000  129.6280   75.3090 C   0  0  0  0  0  0  0  0  0  0  0  0
  124.8690  128.2860   74.9490 C   0  0  0  0  0  0  0  0  0  0  0  0
  125.9190  127.6440   74.2880 C   0  0  0  0  0  0  0  0  0  0  0  0
  127.0830  128.3650   73.9990 C   0  0  0  0  0  0  0  0  0  0  0  0
  128.1080  127.6600   73.3420 N   0  0  0  0  0  0  0  0  0  0  0  0
  128.2580  127.4230   72.0200 C   0  0  0  0  0  0  0  0  0  0  0  0
  127.4760  127.8040   71.1470 O   0  0  0  0  0  0  0  0  0  0  0  0
  129.5150  126.6180   71.6510 C   0  0  0  0  0  0  0  0  0  0  0  0
  130.9590  126.8940   72.7320 S   0  0  0  0  0  0  0  0  0  0  0  0
  131.4390  125.3270   73.4240 C   0  0  0  0  0  0  0  0  0  0  0  0
  130.5790  124.3190   73.1360 N   0  0  0  0  0  0  0  0  0  0  0  0
  130.8250  123.0650   73.5980 C   0  0  0  0  0  0  0  0  0  0  0  0
  129.8170  122.0110   73.2460 C   0  0  0  0  0  0  0  0  0  0  0  0
  129.4680  121.0140   74.1720 C   0  0  0  0  0  0  0  0  0  0  0  0
  128.5360  120.0320   73.8510 C   0  0  0  0  0  0  0  0  0  0  0  0
  127.9380  120.0320   72.5950 C   0  0  0  0  0  0  0  0  0  0  0  0
  128.2670  121.0060   71.6590 C   0  0  0  0  0  0  0  0  0  0  0  0
  129.2010  121.9870   71.9840 C   0  0  0  0  0  0  0  0  0  0  0  0
  131.9570  122.7960   74.3750 C   0  0  0  0  0  0  0  0  0  0  0  0
  132.8670  123.8190   74.6610 C   0  0  0  0  0  0  0  0  0  0  0  0
  134.0980  123.4750   75.4980 C   0  0  0  0  0  0  0  0  0  0  0  0
  132.6210  125.1200   74.1710 C   0  0  0  0  0  0  0  0  0  0  0  0
  133.5880  126.1930   74.4120 C   0  0  0  0  0  0  0  0  0  0  0  0
  134.3540  127.0390   74.6040 N   0  0  0  0  0  0  0  0  0  0  0  0
  127.2180  129.6780   74.3520 N   0  0  0  0  0  0  0  0  0  0  0  0
  126.4253  131.8520   76.4496 H   0  0  0  0  0  0  0  0  0  0  0  0
  127.3687  132.0840   74.9387 H   0  0  0  0  0  0  0  0  0  0  0  0
  125.5926  132.3524   74.9387 H   0  0  0  0  0  0  0  0  0  0  0  0
  124.1853  130.1534   75.8288 H   0  0  0  0  0  0  0  0  0  0  0  0
  123.9450  127.7374   75.1842 H   0  0  0  0  0  0  0  0  0  0  0  0
  125.8320  126.5863   73.9987 H   0  0  0  0  0  0  0  0  0  0  0  0
  128.8030  127.2600   73.9550 H   0  0  0  0  0  0  0  0  0  0  0  0
  129.2587  125.5490   71.6917 H   0  0  0  0  0  0  0  0  0  0  0  0
  129.8136  126.9602   70.6492 H   0  0  0  0  0  0  0  0  0  0  0  0
  129.9388  121.0096   75.1662 H   0  0  0  0  0  0  0  0  0  0  0  0
  128.2730  119.2586   74.5876 H   0  0  0  0  0  0  0  0  0  0  0  0
  127.2003  119.2566   72.3408 H   0  0  0  0  0  0  0  0  0  0  0  0
  127.7921  121.0019   70.6668 H   0  0  0  0  0  0  0  0  0  0  0  0
  129.4602  122.7551   71.2405 H   0  0  0  0  0  0  0  0  0  0  0  0
  132.1312  121.7807   74.7607 H   0  0  0  0  0  0  0  0  0  0  0  0
  133.8462  123.5454   76.5665 H   0  0  0  0  0  0  0  0  0  0  0  0
  134.4253  122.4510   75.2651 H   0  0  0  0  0  0  0  0  0  0  0  0
  134.9088  124.1810   75.2651 H   0  0  0  0  0  0  0  0  0  0  0  0
  1  2  1  0
  2  3  2  0
  3  4  1  0
  4  5  2  0
  5  6  1  0
  6  7  1  0
  7  8  1  0
  8  9  2  0
  8 10  1  0
 10 11  1  0
 11 12  1  0
 12 13  2  0
 13 14  1  0
 14 15  1  0
 15 16  2  0
 16 17  1  0
 17 18  2  0
 18 19  1  0
 19 20  2  0
 14 21  2  0
 21 22  1  0
 22 23  1  0
 22 24  2  0
 24 25  1  0
 25 26  3  0
  6 27  2  0
 27  2  1  0
 24 12  1  0
 20 15  1  0
  1 28  1  0
  1 29  1  0
  1 30  1  0
  3 31  1  0
  4 32  1  0
  5 33  1  0
  7 34  1  0
 10 35  1  0
 10 36  1  0
 16 37  1  0
 17 38  1  0
 18 39  1  0
 19 40  1  0
 20 41  1  0
 21 42  1  0
 23 43  1  0
 23 44  1  0
 23 45  1  0
M  END
>  <Binding energies>  (1) 
[-8.91]

>  <Ligand effiencies>  (1) 
[-0.3182142857142857]

>  <Interactions>  (1) 
["V-A:LYS:471:CE:4218, V-B:VAL:458:CG2:9059, V-B:VAL:457:C:9045, V-A:HIS:456:CB:4063, V-A:HIS:456:CD2:4066, V-B:LYS:471:CD:9191, V-B:GLY:544:C:9884, V-A:VAL:458:CG2:4085, V-A:HIS:456:CG:4064, V-A:HIS:456:C:4059, V-B:LYS:471:CE:9192, V-A:LYS:471:CG:4216, V-B:HIS:456:C:9033, H-A:LYS:547:NZ:4949, V-A:ASP:473:CG:4238, V-A:LYS:471:CD:4217, V-B:HIS:456:CB:9037, H-B:LYS:547:NZ:9923, V-B:ASP:473:CG:9212, V-B:LYS:547:CE:9922, V-B:GLY:544:CA:9886, V-B:GLU:543:C:9874, V-A:TYR:484:CG:4340, V-A:TYR:484:CB:4339, V-B:LYS:547:CG:9920, V-B:LYS:547:CD:9921, H-B:HIS:456:ND1:9039"]

$$$$
3bf_Grossjean_2025
     RDKit          3D

 42 44  0  0  0  0  0  0  0  0999 V2000
  126.9550  132.2780   60.1180 C   0  0  0  0  0  0  0  0  0  0  0  0
  127.5560  131.7050   58.8360 C   0  0  0  0  0  0  0  0  0  0  0  0
  128.9270  131.8710   58.6190 C   0  0  0  0  0  0  0  0  0  0  0  0
  129.5210  131.3480   57.4650 C   0  0  0  0  0  0  0  0  0  0  0  0
  130.9890  131.4720   57.1840 C   0  0  0  0  0  0  0  0  0  0  0  0
  131.4430  132.0660   55.9960 C   0  0  0  0  0  0  0  0  0  0  0  0
  132.8040  132.1840   55.7280 C   0  0  0  0  0  0  0  0  0  0  0  0
  133.7320  131.7080   56.6490 C   0  0  0  0  0  0  0  0  0  0  0  0
  133.3080  131.1150   57.8330 C   0  0  0  0  0  0  0  0  0  0  0  0
  131.9460  130.9970   58.0960 C   0  0  0  0  0  0  0  0  0  0  0  0
  128.7810  130.6760   56.5430 N   0  0  0  0  0  0  0  0  0  0  0  0
  127.4460  130.5290   56.7270 C   0  0  0  0  0  0  0  0  0  0  0  0
  126.6410  129.6310   55.4180 S   0  0  0  0  0  0  0  0  0  0  0  0
  127.9290  128.8060   54.4220 C   0  0  0  0  0  0  0  0  0  0  0  0
  128.4260  127.4650   54.9810 C   0  0  0  0  0  0  0  0  0  0  0  0
  129.6280  127.2700   55.1730 O   0  0  0  0  0  0  0  0  0  0  0  0
  127.4500  126.5730   55.2550 N   0  0  0  0  0  0  0  0  0  0  0  0
  127.5660  125.2640   55.7600 C   0  0  0  0  0  0  0  0  0  0  0  0
  128.5110  125.0510   56.7690 C   0  0  0  0  0  0  0  0  0  0  0  0
  128.6640  123.7770   57.3210 C   0  0  0  0  0  0  0  0  0  0  0  0
  127.8560  122.7440   56.8460 C   0  0  0  0  0  0  0  0  0  0  0  0
  126.9240  122.9240   55.8770 N   0  0  0  0  0  0  0  0  0  0  0  0
  126.7860  124.1680   55.3500 C   0  0  0  0  0  0  0  0  0  0  0  0
  126.7840  131.0140   57.8770 C   0  0  0  0  0  0  0  0  0  0  0  0
  125.3550  130.7850   58.1080 C   0  0  0  0  0  0  0  0  0  0  0  0
  124.2260  130.6070   58.2920 N   0  0  0  0  0  0  0  0  0  0  0  0
  127.4407  131.8149   60.9896 H   0  0  0  0  0  0  0  0  0  0  0  0
  127.1155  133.3659   60.1438 H   0  0  0  0  0  0  0  0  0  0  0  0
  125.8760  132.0658   60.1438 H   0  0  0  0  0  0  0  0  0  0  0  0
  129.5388  132.4127   59.3554 H   0  0  0  0  0  0  0  0  0  0  0  0
  130.7123  132.4440   55.2657 H   0  0  0  0  0  0  0  0  0  0  0  0
  133.1443  132.6515   54.7922 H   0  0  0  0  0  0  0  0  0  0  0  0
  134.8077  131.8014   56.4391 H   0  0  0  0  0  0  0  0  0  0  0  0
  134.0453  130.7408   58.5585 H   0  0  0  0  0  0  0  0  0  0  0  0
  131.6142  130.5246   59.0323 H   0  0  0  0  0  0  0  0  0  0  0  0
  127.5192  128.6254   53.4173 H   0  0  0  0  0  0  0  0  0  0  0  0
  128.7980  129.4804   54.4262 H   0  0  0  0  0  0  0  0  0  0  0  0
  126.5000  126.8910   55.1280 H   0  0  0  0  0  0  0  0  0  0  0  0
  129.1324  125.8850   57.1271 H   0  0  0  0  0  0  0  0  0  0  0  0
  129.4051  123.5925   58.1126 H   0  0  0  0  0  0  0  0  0  0  0  0
  127.9800  121.7392   57.2761 H   0  0  0  0  0  0  0  0  0  0  0  0
  126.0298  124.3255   54.5669 H   0  0  0  0  0  0  0  0  0  0  0  0
  1  2  1  0
  2  3  2  0
  3  4  1  0
  4  5  1  0
  5  6  2  0
  6  7  1  0
  7  8  2  0
  8  9  1  0
  9 10  2  0
  4 11  2  0
 11 12  1  0
 12 13  1  0
 13 14  1  0
 14 15  1  0
 15 16  2  0
 15 17  1  0
 17 18  1  0
 18 19  2  0
 19 20  1  0
 20 21  2  0
 21 22  1  0
 22 23  2  0
 12 24  2  0
 24 25  1  0
 25 26  3  0
 24  2  1  0
 10  5  1  0
 23 18  1  0
  1 27  1  0
  1 28  1  0
  1 29  1  0
  3 30  1  0
  6 31  1  0
  7 32  1  0
  8 33  1  0
  9 34  1  0
 10 35  1  0
 14 36  1  0
 14 37  1  0
 17 38  1  0
 19 39  1  0
 20 40  1  0
 21 41  1  0
 23 42  1  0
M  END
>  <Binding energies>  (1) 
[-8.4]

>  <Ligand effiencies>  (1) 
[-0.3111111111111111]

>  <Interactions>  (1) 
["V-B:PRO:540:N:9856, V-B:TYR:539:CE2:9848, V-B:TYR:539:CD1:9845, V-B:TYR:539:CD2:9846, V-B:MET:535:CE:9807, V-A:PRO:540:N:4882, V-A:ILE:538:CA:4858, V-A:TYR:539:CZ:4875, V-A:TYR:531:CE2:4791, V-A:LEU:363:CA:3183, H-A:TYR:531:OH:4793, V-A:TYR:539:C:4865, V-A:LEU:363:CD1:3187, V-A:ILE:538:CB:4860, V-A:PRO:540:CA:4881, V-A:ILE:538:CG2:4861, V-A:PRO:540:CB:4883, H-B:TYR:539:N:9842, H-B:MET:535:SD:9806, H-B:TYR:531:OH:9767, V-B:TYR:539:C:9839, V-A:LEU:363:CB:3185, V-A:PRO:540:CD:4885, V-A:TYR:539:CE2:4874, V-B:TYR:539:CG:9844, H-A:TYR:539:OH:4876, V-A:TYR:539:CD2:4872, V-B:TYR:539:CA:9841, V-A:PRO:540:CG:4884"]

$$$$
3bg_Grossjean_2025
     RDKit          3D

 46 48  0  0  0  0  0  0  0  0999 V2000
  131.7790  121.3240   60.1200 C   0  0  0  0  0  0  0  0  0  0  0  0
  130.9800  122.5600   59.7140 C   0  0  0  0  0  0  0  0  0  0  0  0
  129.6370  122.6340   60.0960 C   0  0  0  0  0  0  0  0  0  0  0  0
  128.8690  123.7540   59.7520 C   0  0  0  0  0  0  0  0  0  0  0  0
  127.4240  123.9020   60.1410 C   0  0  0  0  0  0  0  0  0  0  0  0
  126.4280  124.0950   59.1690 C   0  0  0  0  0  0  0  0  0  0  0  0
  125.0870  124.2140   59.5240 C   0  0  0  0  0  0  0  0  0  0  0  0
  124.7190  124.1440   60.8640 C   0  0  0  0  0  0  0  0  0  0  0  0
  125.6840  123.9650   61.8480 C   0  0  0  0  0  0  0  0  0  0  0  0
  127.0230  123.8490   61.4880 C   0  0  0  0  0  0  0  0  0  0  0  0
  129.4240  124.7850   59.0600 N   0  0  0  0  0  0  0  0  0  0  0  0
  130.7270  124.7310   58.6840 C   0  0  0  0  0  0  0  0  0  0  0  0
  131.3410  126.1640   57.8120 S   0  0  0  0  0  0  0  0  0  0  0  0
  132.0240  125.6110   56.2150 C   0  0  0  0  0  0  0  0  0  0  0  0
  130.9940  125.7190   55.0860 C   0  0  0  0  0  0  0  0  0  0  0  0
  130.8410  126.7890   54.4960 O   0  0  0  0  0  0  0  0  0  0  0  0
  130.2820  124.6110   54.8180 N   0  0  0  0  0  0  0  0  0  0  0  0
  129.1320  124.5380   53.9170 C   0  0  0  0  0  0  0  0  0  0  0  0
  127.8810  124.0450   54.6340 C   0  0  0  0  0  0  0  0  0  0  0  0
  127.9960  123.3250   55.8280 C   0  0  0  0  0  0  0  0  0  0  0  0
  126.8550  122.8660   56.4780 C   0  0  0  0  0  0  0  0  0  0  0  0
  125.5980  123.1380   55.9400 C   0  0  0  0  0  0  0  0  0  0  0  0
  125.4740  123.8720   54.7620 C   0  0  0  0  0  0  0  0  0  0  0  0
  126.6170  124.3300   54.1120 C   0  0  0  0  0  0  0  0  0  0  0  0
  131.5490  123.6250   58.9840 C   0  0  0  0  0  0  0  0  0  0  0  0
  132.9550  123.5800   58.5760 C   0  0  0  0  0  0  0  0  0  0  0  0
  134.0660  123.5430   58.2550 N   0  0  0  0  0  0  0  0  0  0  0  0
  131.8212  121.2588   61.2173 H   0  0  0  0  0  0  0  0  0  0  0  0
  131.2915  120.4238   59.7176 H   0  0  0  0  0  0  0  0  0  0  0  0
  132.8000  121.3989   59.7176 H   0  0  0  0  0  0  0  0  0  0  0  0
  129.1827  121.8113   60.6677 H   0  0  0  0  0  0  0  0  0  0  0  0
  126.7129  124.1531   58.1081 H   0  0  0  0  0  0  0  0  0  0  0  0
  124.3215  124.3628   58.7482 H   0  0  0  0  0  0  0  0  0  0  0  0
  123.6593  124.2307   61.1459 H   0  0  0  0  0  0  0  0  0  0  0  0
  125.3904  123.9152   62.9069 H   0  0  0  0  0  0  0  0  0  0  0  0
  127.7826  123.7132   62.2720 H   0  0  0  0  0  0  0  0  0  0  0  0
  132.8936  126.2363   55.9643 H   0  0  0  0  0  0  0  0  0  0  0  0
  132.3117  124.5540   56.3145 H   0  0  0  0  0  0  0  0  0  0  0  0
  130.4730  123.7800   55.3580 H   0  0  0  0  0  0  0  0  0  0  0  0
  128.9362  125.5401   53.5079 H   0  0  0  0  0  0  0  0  0  0  0  0
  129.3706  123.8232   53.1157 H   0  0  0  0  0  0  0  0  0  0  0  0
  128.9899  123.1216   56.2533 H   0  0  0  0  0  0  0  0  0  0  0  0
  126.9441  122.2914   57.4117 H   0  0  0  0  0  0  0  0  0  0  0  0
  124.6957  122.7698   56.4501 H   0  0  0  0  0  0  0  0  0  0  0  0
  124.4782  124.0885   54.3477 H   0  0  0  0  0  0  0  0  0  0  0  0
  126.5245  124.9170   53.1863 H   0  0  0  0  0  0  0  0  0  0  0  0
  1  2  1  0
  2  3  2  0
  3  4  1  0
  4  5  1  0
  5  6  2  0
  6  7  1  0
  7  8  2  0
  8  9  1  0
  9 10  2  0
  4 11  2  0
 11 12  1  0
 12 13  1  0
 13 14  1  0
 14 15  1  0
 15 16  2  0
 15 17  1  0
 17 18  1  0
 18 19  1  0
 19 20  2  0
 20 21  1  0
 21 22  2  0
 22 23  1  0
 23 24  2  0
 12 25  2  0
 25 26  1  0
 26 27  3  0
 25  2  1  0
 10  5  1  0
 24 19  1  0
  1 28  1  0
  1 29  1  0
  1 30  1  0
  3 31  1  0
  6 32  1  0
  7 33  1  0
  8 34  1  0
  9 35  1  0
 10 36  1  0
 14 37  1  0
 14 38  1  0
 17 39  1  0
 18 40  1  0
 18 41  1  0
 20 42  1  0
 21 43  1  0
 22 44  1  0
 23 45  1  0
 24 46  1  0
M  END
>  <Binding energies>  (1) 
[-8.45]

>  <Ligand effiencies>  (1) 
[-0.30178571428571427]

>  <Interactions>  (1) 
["V-B:PRO:540:N:9856, V-B:TYR:539:CZ:9849, V-B:ILE:538:CA:9832, V-B:PRO:540:CB:9857, V-B:PRO:540:CA:9855, V-B:TYR:539:CE2:9848, V-A:LEU:475:CD2:4257, V-B:TYR:539:CE1:9847, V-B:TYR:539:CD1:9845, V-B:TYR:539:CD2:9846, H-A:TYR:531:OH:4793, V-A:ASP:366:CB:3210, V-A:TYR:531:CZ:4792, V-B:TYR:531:CE2:9765, V-B:TYR:531:CZ:9766, V-B:ASN:362:CB:8148, V-B:GLU:543:CD:9880, V-B:TYR:539:C:9839, V-B:ILE:538:CG2:9835, V-B:PRO:540:CD:9859, V-B:ILE:538:CB:9834, V-B:TYR:539:CG:9844, H-B:TYR:539:OH:9850, V-A:ILE:369:CG2:3235, V-A:TYR:531:CE1:4790, V-B:TYR:539:CA:9841, V-B:MET:535:CG:9805, V-B:MET:535:CB:9804"]

$$$$
3bk_Grossjean_2025
     RDKit          3D

 57 58  0  0  0  0  0  0  0  0999 V2000
  131.6470  132.0640   56.6830 C   0  0  0  0  0  0  0  0  0  0  0  0
  130.6370  132.4960   55.7840 O   0  0  0  0  0  0  0  0  0  0  0  0
  130.5400  131.6940   54.6150 C   0  0  0  0  0  0  0  0  0  0  0  0
  129.1450  131.0570   54.5400 C   0  0  0  0  0  0  0  0  0  0  0  0
  128.2840  131.7000   55.4690 O   0  0  0  0  0  0  0  0  0  0  0  0
  127.5190  130.8010   56.2610 C   0  0  0  0  0  0  0  0  0  0  0  0
  126.5120  130.0680   55.3660 C   0  0  0  0  0  0  0  0  0  0  0  0
  126.1020  128.8650   56.0040 O   0  0  0  0  0  0  0  0  0  0  0  0
  126.3050  128.8620   57.4110 C   0  0  0  0  0  0  0  0  0  0  0  0
  126.7780  127.4710   57.8560 C   0  0  0  0  0  0  0  0  0  0  0  0
  126.5120  126.4430   56.8480 N   0  0  0  0  0  0  0  0  0  0  0  0
  127.4310  125.8800   56.0460 C   0  0  0  0  0  0  0  0  0  0  0  0
  128.6310  126.1570   56.0810 O   0  0  0  0  0  0  0  0  0  0  0  0
  126.9240  124.8200   55.0650 C   0  0  0  0  0  0  0  0  0  0  0  0
  127.0870  123.1360   55.7390 S   0  0  0  0  0  0  0  0  0  0  0  0
  127.2790  123.2340   57.5110 C   0  0  0  0  0  0  0  0  0  0  0  0
  128.4620  122.7880   58.0050 N   0  0  0  0  0  0  0  0  0  0  0  0
  128.6960  122.8220   59.3430 C   0  0  0  0  0  0  0  0  0  0  0  0
  130.0350  122.3300   59.8030 C   0  0  0  0  0  0  0  0  0  0  0  0
  130.1750  121.0540   60.3720 C   0  0  0  0  0  0  0  0  0  0  0  0
  131.4160  120.5940   60.8060 C   0  0  0  0  0  0  0  0  0  0  0  0
  132.5370  121.4060   60.6740 C   0  0  0  0  0  0  0  0  0  0  0  0
  132.4270  122.6720   60.1090 C   0  0  0  0  0  0  0  0  0  0  0  0
  131.1850  123.1280   59.6760 C   0  0  0  0  0  0  0  0  0  0  0  0
  127.7320  123.3200   60.2280 C   0  0  0  0  0  0  0  0  0  0  0  0
  126.5060  123.7830   59.7360 C   0  0  0  0  0  0  0  0  0  0  0  0
  125.4820  124.3170   60.7350 C   0  0  0  0  0  0  0  0  0  0  0  0
  126.2620  123.7440   58.3470 C   0  0  0  0  0  0  0  0  0  0  0  0
  124.9890  124.2250   57.8020 C   0  0  0  0  0  0  0  0  0  0  0  0
  123.9830  124.6040   57.3730 N   0  0  0  0  0  0  0  0  0  0  0  0
  131.3040  132.2107   57.7178 H   0  0  0  0  0  0  0  0  0  0  0  0
  131.8566  130.9975   56.5139 H   0  0  0  0  0  0  0  0  0  0  0  0
  132.5630  132.6490   56.5139 H   0  0  0  0  0  0  0  0  0  0  0  0
  130.7040  132.3213   53.7264 H   0  0  0  0  0  0  0  0  0  0  0  0
  131.3015  130.9011   54.6525 H   0  0  0  0  0  0  0  0  0  0  0  0
  128.7418  131.1744   53.5233 H   0  0  0  0  0  0  0  0  0  0  0  0
  129.2155  129.9865   54.7832 H   0  0  0  0  0  0  0  0  0  0  0  0
  128.1886  130.0693   56.7367 H   0  0  0  0  0  0  0  0  0  0  0  0
  126.9805  131.3620   57.0390 H   0  0  0  0  0  0  0  0  0  0  0  0
  125.6356  130.7108   55.1966 H   0  0  0  0  0  0  0  0  0  0  0  0
  126.9830  129.8302   54.4008 H   0  0  0  0  0  0  0  0  0  0  0  0
  127.0677  129.6100   57.6732 H   0  0  0  0  0  0  0  0  0  0  0  0
  125.3607  129.1083   57.9186 H   0  0  0  0  0  0  0  0  0  0  0  0
  127.8611  127.5095   58.0443 H   0  0  0  0  0  0  0  0  0  0  0  0
  126.2206  127.2018   58.7653 H   0  0  0  0  0  0  0  0  0  0  0  0
  125.5590  126.1140   56.7940 H   0  0  0  0  0  0  0  0  0  0  0  0
  125.8634  125.0149   54.8480 H   0  0  0  0  0  0  0  0  0  0  0  0
  127.5340  124.8818   54.1517 H   0  0  0  0  0  0  0  0  0  0  0  0
  129.2910  120.4077   60.4766 H   0  0  0  0  0  0  0  0  0  0  0  0
  131.5089  119.5925   61.2513 H   0  0  0  0  0  0  0  0  0  0  0  0
  133.5171  121.0447   61.0187 H   0  0  0  0  0  0  0  0  0  0  0  0
  133.3170  123.3099   60.0048 H   0  0  0  0  0  0  0  0  0  0  0  0
  131.1023  124.1289   59.2273 H   0  0  0  0  0  0  0  0  0  0  0  0
  127.9378  123.3474   61.3082 H   0  0  0  0  0  0  0  0  0  0  0  0
  125.8377  124.1315   61.7592 H   0  0  0  0  0  0  0  0  0  0  0  0
  125.3506  125.3985   60.5827 H   0  0  0  0  0  0  0  0  0  0  0  0
  124.5200  123.8057   60.5827 H   0  0  0  0  0  0  0  0  0  0  0  0
  1  2  1  0
  2  3  1  0
  3  4  1  0
  4  5  1  0
  5  6  1  0
  6  7  1  0
  7  8  1  0
  8  9  1  0
  9 10  1  0
 10 11  1  0
 11 12  1  0
 12 13  2  0
 12 14  1  0
 14 15  1  0
 15 16  1  0
 16 17  2  0
 17 18  1  0
 18 19  1  0
 19 20  2  0
 20 21  1  0
 21 22  2  0
 22 23  1  0
 23 24  2  0
 18 25  2  0
 25 26  1  0
 26 27  1  0
 26 28  2  0
 28 29  1  0
 29 30  3  0
 28 16  1  0
 24 19  1  0
  1 31  1  0
  1 32  1  0
  1 33  1  0
  3 34  1  0
  3 35  1  0
  4 36  1  0
  4 37  1  0
  6 38  1  0
  6 39  1  0
  7 40  1  0
  7 41  1  0
  9 42  1  0
  9 43  1  0
 10 44  1  0
 10 45  1  0
 11 46  1  0
 14 47  1  0
 14 48  1  0
 20 49  1  0
 21 50  1  0
 22 51  1  0
 23 52  1  0
 24 53  1  0
 25 54  1  0
 27 55  1  0
 27 56  1  0
 27 57  1  0
M  END
>  <Binding energies>  (1) 
[-7.84]

>  <Ligand effiencies>  (1) 
[-0.2529032258064516]

>  <Interactions>  (1) 
["V-B:PRO:540:N:9856, V-A:TRP:381:CH2:3370, V-B:ALA:541:CB:9864, V-B:PRO:540:CB:9857, V-B:PRO:540:CA:9855, V-B:TYR:539:CE2:9848, V-A:LEU:475:CD2:4257, V-B:TYR:539:CD2:9846, V-A:TYR:539:CE1:4873, V-A:PRO:540:N:4882, H-A:TYR:539:N:4868, V-A:ILE:538:CA:4858, V-A:TYR:539:CZ:4875, V-A:TYR:539:C:4865, V-A:ILE:538:CB:4860, V-A:PRO:540:CA:4881, V-A:ILE:538:CG2:4861, V-A:PRO:540:CB:4883, V-B:TYR:531:CZ:9766, H-B:TYR:539:N:9842, H-B:TYR:531:OH:9767, V-B:TYR:539:C:9839, H-B:ASP:366:OD2:8187, V-A:PRO:540:CD:4885, V-A:TYR:539:CE2:4874"]

$$$$
3ca_Grossjean_2025
     RDKit          3D

 52 54  0  0  0  0  0  0  0  0999 V2000
  123.5770  123.5380   57.0290 C   0  0  0  0  0  0  0  0  0  0  0  0
  124.5710  123.4450   55.8680 C   0  0  0  0  0  0  0  0  0  0  0  0
  125.6570  122.6060   56.2410 O   0  0  0  0  0  0  0  0  0  0  0  0
  126.8620  123.1280   56.5820 C   0  0  0  0  0  0  0  0  0  0  0  0
  127.9330  122.7400   56.1040 O   0  0  0  0  0  0  0  0  0  0  0  0
  126.7650  124.2330   57.5950 C   0  0  0  0  0  0  0  0  0  0  0  0
  126.7610  125.5640   57.1590 C   0  0  0  0  0  0  0  0  0  0  0  0
  126.6720  126.6090   58.0740 C   0  0  0  0  0  0  0  0  0  0  0  0
  126.5940  126.3470   59.4420 C   0  0  0  0  0  0  0  0  0  0  0  0
  126.5060  127.4760   60.2790 N   0  0  0  0  0  0  0  0  0  0  0  0
  127.4910  128.2290   60.8150 C   0  0  0  0  0  0  0  0  0  0  0  0
  128.6960  128.0580   60.6380 O   0  0  0  0  0  0  0  0  0  0  0  0
  127.0190  129.3940   61.6920 C   0  0  0  0  0  0  0  0  0  0  0  0
  126.7440  130.9330   60.7540 S   0  0  0  0  0  0  0  0  0  0  0  0
  127.5290  130.8160   59.1520 C   0  0  0  0  0  0  0  0  0  0  0  0
  126.7300  130.4050   58.1350 N   0  0  0  0  0  0  0  0  0  0  0  0
  127.2510  130.3130   56.8920 C   0  0  0  0  0  0  0  0  0  0  0  0
  126.2910  129.8650   55.8070 C   0  0  0  0  0  0  0  0  0  0  0  0
  128.5830  130.6090   56.6140 C   0  0  0  0  0  0  0  0  0  0  0  0
  129.4330  131.0180   57.6500 C   0  0  0  0  0  0  0  0  0  0  0  0
  130.8570  131.3120   57.3070 C   0  0  0  0  0  0  0  0  0  0  0  0
  131.1610  132.1510   56.2280 C   0  0  0  0  0  0  0  0  0  0  0  0
  132.4860  132.4230   55.8950 C   0  0  0  0  0  0  0  0  0  0  0  0
  133.5140  131.8510   56.6400 C   0  0  0  0  0  0  0  0  0  0  0  0
  133.2290  131.0090   57.7110 C   0  0  0  0  0  0  0  0  0  0  0  0
  131.9030  130.7390   58.0410 C   0  0  0  0  0  0  0  0  0  0  0  0
  128.8940  131.1350   58.9570 C   0  0  0  0  0  0  0  0  0  0  0  0
  129.7220  131.6080   60.0710 C   0  0  0  0  0  0  0  0  0  0  0  0
  130.3760  131.9810   60.9500 N   0  0  0  0  0  0  0  0  0  0  0  0
  126.5890  125.0160   59.8880 C   0  0  0  0  0  0  0  0  0  0  0  0
  126.6760  123.9720   58.9710 C   0  0  0  0  0  0  0  0  0  0  0  0
  124.1219  123.4870   57.9832 H   0  0  0  0  0  0  0  0  0  0  0  0
  123.0312  124.4911   56.9689 H   0  0  0  0  0  0  0  0  0  0  0  0
  122.8638  122.7027   56.9689 H   0  0  0  0  0  0  0  0  0  0  0  0
  124.0669  123.0223   54.9864 H   0  0  0  0  0  0  0  0  0  0  0  0
  124.9491  124.4495   55.6271 H   0  0  0  0  0  0  0  0  0  0  0  0
  126.8288  125.7855   56.0837 H   0  0  0  0  0  0  0  0  0  0  0  0
  126.6631  127.6490   57.7159 H   0  0  0  0  0  0  0  0  0  0  0  0
  125.5630  127.7860   60.4580 H   0  0  0  0  0  0  0  0  0  0  0  0
  126.0744  129.1064   62.1767 H   0  0  0  0  0  0  0  0  0  0  0  0
  127.8146  129.5952   62.4245 H   0  0  0  0  0  0  0  0  0  0  0  0
  125.3865  129.4429   56.2692 H   0  0  0  0  0  0  0  0  0  0  0  0
  126.0153  130.7275   55.1824 H   0  0  0  0  0  0  0  0  0  0  0  0
  126.7749  129.0997   55.1824 H   0  0  0  0  0  0  0  0  0  0  0  0
  128.9658  130.5222   55.5864 H   0  0  0  0  0  0  0  0  0  0  0  0
  130.3472  132.5988   55.6387 H   0  0  0  0  0  0  0  0  0  0  0  0
  132.7188  133.0857   55.0485 H   0  0  0  0  0  0  0  0  0  0  0  0
  134.5608  132.0665   56.3797 H   0  0  0  0  0  0  0  0  0  0  0  0
  134.0465  130.5592   58.2936 H   0  0  0  0  0  0  0  0  0  0  0  0
  131.6757  130.0706   58.8846 H   0  0  0  0  0  0  0  0  0  0  0  0
  126.5162  124.7975   60.9636 H   0  0  0  0  0  0  0  0  0  0  0  0
  126.6750  122.9318   59.3288 H   0  0  0  0  0  0  0  0  0  0  0  0
  1  2  1  0
  2  3  1  0
  3  4  1  0
  4  5  2  0
  4  6  1  0
  6  7  2  0
  7  8  1  0
  8  9  2  0
  9 10  1  0
 10 11  1  0
 11 12  2  0
 11 13  1  0
 13 14  1  0
 14 15  1  0
 15 16  2  0
 16 17  1  0
 17 18  1  0
 17 19  2  0
 19 20  1  0
 20 21  1  0
 21 22  2  0
 22 23  1  0
 23 24  2  0
 24 25  1  0
 25 26  2  0
 20 27  2  0
 27 28  1  0
 28 29  3  0
  9 30  1  0
 30 31  2  0
 31  6  1  0
 27 15  1  0
 26 21  1  0
  1 32  1  0
  1 33  1  0
  1 34  1  0
  2 35  1  0
  2 36  1  0
  7 37  1  0
  8 38  1  0
 10 39  1  0
 13 40  1  0
 13 41  1  0
 18 42  1  0
 18 43  1  0
 18 44  1  0
 19 45  1  0
 22 46  1  0
 23 47  1  0
 24 48  1  0
 25 49  1  0
 26 50  1  0
 30 51  1  0
 31 52  1  0
M  END
>  <Binding energies>  (1) 
[-9.13]

>  <Ligand effiencies>  (1) 
[-0.2853125]

>  <Interactions>  (1) 
["V-B:PRO:540:N:9856, V-B:LEU:363:CA:8157, V-B:ASP:366:CG:8185, V-B:PRO:540:CB:9857, V-B:PRO:540:CA:9855, V-A:PRO:540:N:4882, V-A:ILE:538:CA:4858, V-A:TYR:539:CZ:4875, V-A:TYR:531:CE2:4791, V-A:LEU:363:CA:3183, V-A:TYR:539:C:4865, V-A:LEU:363:CD1:3187, V-A:ILE:538:CB:4860, V-A:PRO:540:CA:4881, V-A:ILE:538:CG2:4861, V-A:PRO:540:CB:4883, V-B:TYR:531:CE2:9765, V-B:LEU:363:CD1:8161, V-B:TYR:531:CZ:9766, H-B:TYR:539:N:9842, V-B:TYR:539:C:9839, V-B:ILE:538:CG2:9835, H-B:ASP:366:OD2:8187, V-B:PRO:540:CD:9859, V-B:ILE:538:CB:9834, V-B:PRO:540:CG:9858, H-A:ALA:541:N:4889, V-A:PRO:540:CD:4885, V-A:TYR:539:CE2:4874, V-A:PRO:540:CG:4884, H-B:ASP:366:OD1:8186, V-B:LEU:363:CB:8159"]

$$$$
3cb_Grossjean_2025
     RDKit          3D

 49 51  0  0  0  0  0  0  0  0999 V2000
  125.3850  123.3440   55.8680 C   0  0  0  0  0  0  0  0  0  0  0  0
  126.7170  122.8520   55.9080 O   0  0  0  0  0  0  0  0  0  0  0  0
  127.7000  123.5420   56.5410 C   0  0  0  0  0  0  0  0  0  0  0  0
  128.4610  123.0360   57.3700 O   0  0  0  0  0  0  0  0  0  0  0  0
  127.7670  124.9870   56.1340 C   0  0  0  0  0  0  0  0  0  0  0  0
  128.3850  125.3950   54.9420 C   0  0  0  0  0  0  0  0  0  0  0  0
  128.4270  126.7420   54.5930 C   0  0  0  0  0  0  0  0  0  0  0  0
  127.8610  127.7080   55.4250 C   0  0  0  0  0  0  0  0  0  0  0  0
  127.9590  129.0390   54.9730 N   0  0  0  0  0  0  0  0  0  0  0  0
  127.1210  129.7540   54.1910 C   0  0  0  0  0  0  0  0  0  0  0  0
  126.0570  129.3360   53.7300 O   0  0  0  0  0  0  0  0  0  0  0  0
  127.5840  131.1920   53.9100 C   0  0  0  0  0  0  0  0  0  0  0  0
  129.2210  131.6210   54.5940 S   0  0  0  0  0  0  0  0  0  0  0  0
  129.1650  131.3460   56.3530 C   0  0  0  0  0  0  0  0  0  0  0  0
  127.9220  131.0690   56.8160 N   0  0  0  0  0  0  0  0  0  0  0  0
  127.7580  130.8410   58.1380 C   0  0  0  0  0  0  0  0  0  0  0  0
  126.3430  130.5240   58.5830 C   0  0  0  0  0  0  0  0  0  0  0  0
  128.8150  130.8860   59.0430 C   0  0  0  0  0  0  0  0  0  0  0  0
  130.1060  131.1880   58.5890 C   0  0  0  0  0  0  0  0  0  0  0  0
  131.2060  131.2300   59.6010 C   0  0  0  0  0  0  0  0  0  0  0  0
  130.9050  131.3460   60.9640 C   0  0  0  0  0  0  0  0  0  0  0  0
  131.9220  131.3750   61.9150 C   0  0  0  0  0  0  0  0  0  0  0  0
  133.2500  131.2850   61.5050 C   0  0  0  0  0  0  0  0  0  0  0  0
  133.5670  131.1620   60.1550 C   0  0  0  0  0  0  0  0  0  0  0  0
  132.5470  131.1310   59.2070 C   0  0  0  0  0  0  0  0  0  0  0  0
  130.2920  131.4420   57.2060 C   0  0  0  0  0  0  0  0  0  0  0  0
  131.6020  131.8530   56.6910 C   0  0  0  0  0  0  0  0  0  0  0  0
  132.6350  132.1770   56.2840 N   0  0  0  0  0  0  0  0  0  0  0  0
  127.2380  127.3070   56.6170 C   0  0  0  0  0  0  0  0  0  0  0  0
  127.1950  125.9600   56.9650 C   0  0  0  0  0  0  0  0  0  0  0  0
  125.0138  123.4811   56.8944 H   0  0  0  0  0  0  0  0  0  0  0  0
  125.3661  124.3084   55.3393 H   0  0  0  0  0  0  0  0  0  0  0  0
  124.7437  122.6234   55.3393 H   0  0  0  0  0  0  0  0  0  0  0  0
  128.8397  124.6448   54.2784 H   0  0  0  0  0  0  0  0  0  0  0  0
  128.9106  127.0471   53.6533 H   0  0  0  0  0  0  0  0  0  0  0  0
  128.7730  129.5300   55.3150 H   0  0  0  0  0  0  0  0  0  0  0  0
  127.6223  131.3315   52.8196 H   0  0  0  0  0  0  0  0  0  0  0  0
  126.8591  131.8521   54.4088 H   0  0  0  0  0  0  0  0  0  0  0  0
  126.2978  130.5139   59.6820 H   0  0  0  0  0  0  0  0  0  0  0  0
  125.6562  131.2905   58.1948 H   0  0  0  0  0  0  0  0  0  0  0  0
  126.0488  129.5377   58.1948 H   0  0  0  0  0  0  0  0  0  0  0  0
  128.6376  130.6854   60.1099 H   0  0  0  0  0  0  0  0  0  0  0  0
  129.8555  131.4148   61.2863 H   0  0  0  0  0  0  0  0  0  0  0  0
  131.6779  131.4684   62.9835 H   0  0  0  0  0  0  0  0  0  0  0  0
  134.0551  131.3113   62.2541 H   0  0  0  0  0  0  0  0  0  0  0  0
  134.6180  131.0896   59.8385 H   0  0  0  0  0  0  0  0  0  0  0  0
  132.7962  131.0280   58.1406 H   0  0  0  0  0  0  0  0  0  0  0  0
  126.7825  128.0592   57.2779 H   0  0  0  0  0  0  0  0  0  0  0  0
  126.7067  125.6557   57.9026 H   0  0  0  0  0  0  0  0  0  0  0  0
  1  2  1  0
  2  3  1  0
  3  4  2  0
  3  5  1  0
  5  6  2  0
  6  7  1  0
  7  8  2  0
  8  9  1  0
  9 10  1  0
 10 11  2  0
 10 12  1  0
 12 13  1  0
 13 14  1  0
 14 15  2  0
 15 16  1  0
 16 17  1  0
 16 18  2  0
 18 19  1  0
 19 20  1  0
 20 21  2  0
 21 22  1  0
 22 23  2  0
 23 24  1  0
 24 25  2  0
 19 26  2  0
 26 27  1  0
 27 28  3  0
  8 29  1  0
 29 30  2  0
 30  5  1  0
 26 14  1  0
 25 20  1  0
  1 31  1  0
  1 32  1  0
  1 33  1  0
  6 34  1  0
  7 35  1  0
  9 36  1  0
 12 37  1  0
 12 38  1  0
 17 39  1  0
 17 40  1  0
 17 41  1  0
 18 42  1  0
 21 43  1  0
 22 44  1  0
 23 45  1  0
 24 46  1  0
 25 47  1  0
 29 48  1  0
 30 49  1  0
M  END
>  <Binding energies>  (1) 
[-8.52]

>  <Ligand effiencies>  (1) 
[-0.27483870967741936]

>  <Interactions>  (1) 
["V-B:ILE:538:CA:9832, V-B:MET:535:CE:9807, V-A:TYR:539:CE1:4873, V-A:ASP:366:CG:3211, V-A:PRO:540:N:4882, V-A:TYR:539:CZ:4875, V-A:PRO:540:CA:4881, V-A:GLU:543:CD:4906, V-A:PRO:540:CB:4883, H-B:TYR:539:N:9842, H-B:TYR:531:OH:9767, V-B:ILE:538:CG2:9835, V-B:PRO:540:CD:9859, V-B:ILE:538:CB:9834, V-A:ARG:545:CZ:4924, V-A:PRO:540:CD:4885, V-A:ASN:362:CB:3174, V-A:ALA:541:C:4886, V-A:TYR:539:CE2:4874, V-A:ASN:362:C:3170, V-A:PRO:540:C:4879, V-A:ALA:541:CA:4888, H-B:ASN:370:ND2:8220, V-A:ASN:362:CG:3175"]

$$$$
3ce_Grossjean_2025
     RDKit          3D

 45 47  0  0  0  0  0  0  0  0999 V2000
  130.3170  121.2220   60.8300 C   0  0  0  0  0  0  0  0  0  0  0  0
  129.2480  122.1900   60.3610 C   0  0  0  0  0  0  0  0  0  0  0  0
  128.3890  122.8240   61.2630 C   0  0  0  0  0  0  0  0  0  0  0  0
  127.4360  123.7090   60.7610 C   0  0  0  0  0  0  0  0  0  0  0  0
  127.3630  123.9380   59.3850 C   0  0  0  0  0  0  0  0  0  0  0  0
  128.2470  123.2630   58.5360 C   0  0  0  0  0  0  0  0  0  0  0  0
  128.1410  123.5470   57.1640 N   0  0  0  0  0  0  0  0  0  0  0  0
  127.1910  123.1330   56.2960 C   0  0  0  0  0  0  0  0  0  0  0  0
  126.2310  122.4180   56.5870 O   0  0  0  0  0  0  0  0  0  0  0  0
  127.3540  123.6160   54.8560 C   0  0  0  0  0  0  0  0  0  0  0  0
  126.9130  125.3700   54.6740 S   0  0  0  0  0  0  0  0  0  0  0  0
  128.2330  126.2820   55.4390 C   0  0  0  0  0  0  0  0  0  0  0  0
  129.2830  125.5150   55.8230 N   0  0  0  0  0  0  0  0  0  0  0  0
  130.3470  126.1180   56.4010 C   0  0  0  0  0  0  0  0  0  0  0  0
  131.4920  125.2030   56.7930 C   0  0  0  0  0  0  0  0  0  0  0  0
  130.3990  127.4900   56.6280 C   0  0  0  0  0  0  0  0  0  0  0  0
  129.3130  128.2970   56.2630 C   0  0  0  0  0  0  0  0  0  0  0  0
  129.4050  129.7590   56.5500 C   0  0  0  0  0  0  0  0  0  0  0  0
  128.8790  130.2760   57.7410 C   0  0  0  0  0  0  0  0  0  0  0  0
  128.9560  131.6400   58.0130 C   0  0  0  0  0  0  0  0  0  0  0  0
  129.5530  132.4950   57.0910 C   0  0  0  0  0  0  0  0  0  0  0  0
  130.0720  131.9980   55.8980 C   0  0  0  0  0  0  0  0  0  0  0  0
  129.9950  130.6350   55.6290 C   0  0  0  0  0  0  0  0  0  0  0  0
  128.1950  127.6820   55.6450 C   0  0  0  0  0  0  0  0  0  0  0  0
  127.0350  128.4760   55.2270 C   0  0  0  0  0  0  0  0  0  0  0  0
  126.1210  129.1040   54.8980 N   0  0  0  0  0  0  0  0  0  0  0  0
  129.1880  122.4000   59.0210 N   0  0  0  0  0  0  0  0  0  0  0  0
  130.3377  121.2032   61.9296 H   0  0  0  0  0  0  0  0  0  0  0  0
  130.0915  120.2146   60.4503 H   0  0  0  0  0  0  0  0  0  0  0  0
  131.2972  121.5461   60.4503 H   0  0  0  0  0  0  0  0  0  0  0  0
  128.4631  122.6293   62.3431 H   0  0  0  0  0  0  0  0  0  0  0  0
  126.7453  124.2242   61.4448 H   0  0  0  0  0  0  0  0  0  0  0  0
  126.6212  124.6390   58.9747 H   0  0  0  0  0  0  0  0  0  0  0  0
  128.8140  124.2140   56.8150 H   0  0  0  0  0  0  0  0  0  0  0  0
  128.4023  123.4797   54.5519 H   0  0  0  0  0  0  0  0  0  0  0  0
  126.6764  123.0269   54.2206 H   0  0  0  0  0  0  0  0  0  0  0  0
  131.5594  125.1491   57.8896 H   0  0  0  0  0  0  0  0  0  0  0  0
  131.3127  124.1966   56.3868 H   0  0  0  0  0  0  0  0  0  0  0  0
  132.4341  125.5999   56.3868 H   0  0  0  0  0  0  0  0  0  0  0  0
  131.2893  127.9394   57.0922 H   0  0  0  0  0  0  0  0  0  0  0  0
  128.4020  129.6004   58.4662 H   0  0  0  0  0  0  0  0  0  0  0  0
  128.5467  132.0398   58.9525 H   0  0  0  0  0  0  0  0  0  0  0  0
  129.6154  133.5719   57.3064 H   0  0  0  0  0  0  0  0  0  0  0  0
  130.5403  132.6793   55.1723 H   0  0  0  0  0  0  0  0  0  0  0  0
  130.4008  130.2417   54.6852 H   0  0  0  0  0  0  0  0  0  0  0  0
  1  2  1  0
  2  3  2  0
  3  4  1  0
  4  5  2  0
  5  6  1  0
  6  7  1  0
  7  8  1  0
  8  9  2  0
  8 10  1  0
 10 11  1  0
 11 12  1  0
 12 13  2  0
 13 14  1  0
 14 15  1  0
 14 16  2  0
 16 17  1  0
 17 18  1  0
 18 19  2  0
 19 20  1  0
 20 21  2  0
 21 22  1  0
 22 23  2  0
 17 24  2  0
 24 25  1  0
 25 26  3  0
  6 27  2  0
 27  2  1  0
 24 12  1  0
 23 18  1  0
  1 28  1  0
  1 29  1  0
  1 30  1  0
  3 31  1  0
  4 32  1  0
  5 33  1  0
  7 34  1  0
 10 35  1  0
 10 36  1  0
 15 37  1  0
 15 38  1  0
 15 39  1  0
 16 40  1  0
 19 41  1  0
 20 42  1  0
 21 43  1  0
 22 44  1  0
 23 45  1  0
M  END
>  <Binding energies>  (1) 
[-7.78]

>  <Ligand effiencies>  (1) 
[-0.27785714285714286]

>  <Interactions>  (1) 
["V-B:PRO:540:N:9856, V-B:TYR:539:CZ:9849, V-B:ILE:538:CA:9832, V-B:ALA:541:CB:9864, V-B:PRO:540:CA:9855, V-B:ALA:541:CA:9862, V-B:TYR:539:CE2:9848, V-B:TYR:539:CD2:9846, V-A:PRO:540:N:4882, V-A:ILE:538:CA:4858, V-A:TYR:539:C:4865, V-A:PRO:540:CA:4881, H-B:TYR:539:N:9842, H-B:TYR:531:OH:9767, V-B:TYR:539:C:9839, V-A:TYR:539:CA:4867, V-A:TYR:539:CD1:4871, V-A:TYR:539:CD2:4872, V-A:TYR:539:CG:4870"]

$$$$
3ch_Grossjean_2025
     RDKit          3D

 55 57  0  0  0  0  0  0  0  0999 V2000
  126.9730  129.2780   54.9450 C   0  0  0  0  0  0  0  0  0  0  0  0
  127.6160  130.4520   55.4300 O   0  0  0  0  0  0  0  0  0  0  0  0
  128.8460  130.3480   56.0540 C   0  0  0  0  0  0  0  0  0  0  0  0
  129.2460  129.2440   56.8230 C   0  0  0  0  0  0  0  0  0  0  0  0
  130.5150  129.2030   57.4190 C   0  0  0  0  0  0  0  0  0  0  0  0
  131.0060  128.1410   58.2010 N   0  0  0  0  0  0  0  0  0  0  0  0
  130.3360  127.1400   58.8130 C   0  0  0  0  0  0  0  0  0  0  0  0
  129.1170  126.9700   58.7790 O   0  0  0  0  0  0  0  0  0  0  0  0
  131.2030  126.1310   59.5670 C   0  0  0  0  0  0  0  0  0  0  0  0
  131.2430  124.5110   58.7450 S   0  0  0  0  0  0  0  0  0  0  0  0
  129.9940  124.5680   57.4790 C   0  0  0  0  0  0  0  0  0  0  0  0
  130.4530  124.9810   56.2720 N   0  0  0  0  0  0  0  0  0  0  0  0
  129.5800  125.0670   55.2430 C   0  0  0  0  0  0  0  0  0  0  0  0
  130.1580  125.5410   53.9240 C   0  0  0  0  0  0  0  0  0  0  0  0
  128.2310  124.7490   55.3750 C   0  0  0  0  0  0  0  0  0  0  0  0
  127.7380  124.3120   56.6140 C   0  0  0  0  0  0  0  0  0  0  0  0
  126.2810  123.9920   56.7110 C   0  0  0  0  0  0  0  0  0  0  0  0
  125.5080  124.5410   57.7400 C   0  0  0  0  0  0  0  0  0  0  0  0
  124.1520  124.2410   57.8430 C   0  0  0  0  0  0  0  0  0  0  0  0
  123.5640  123.3840   56.9150 C   0  0  0  0  0  0  0  0  0  0  0  0
  124.3210  122.8240   55.8900 C   0  0  0  0  0  0  0  0  0  0  0  0
  125.6770  123.1260   55.7920 C   0  0  0  0  0  0  0  0  0  0  0  0
  128.6460  124.1990   57.6970 C   0  0  0  0  0  0  0  0  0  0  0  0
  128.2070  123.6590   58.9880 C   0  0  0  0  0  0  0  0  0  0  0  0
  127.8600  123.2340   60.0070 N   0  0  0  0  0  0  0  0  0  0  0  0
  131.3770  130.2890   57.2540 C   0  0  0  0  0  0  0  0  0  0  0  0
  131.0000  131.4050   56.4910 C   0  0  0  0  0  0  0  0  0  0  0  0
  131.8100  132.5090   56.2830 O   0  0  0  0  0  0  0  0  0  0  0  0
  133.1760  132.3180   55.9330 C   0  0  0  0  0  0  0  0  0  0  0  0
  129.7310  131.4230   55.8990 C   0  0  0  0  0  0  0  0  0  0  0  0
  129.3560  132.5020   55.1340 O   0  0  0  0  0  0  0  0  0  0  0  0
  129.1430  132.1960   53.7630 C   0  0  0  0  0  0  0  0  0  0  0  0
  126.6377  128.6658   55.7952 H   0  0  0  0  0  0  0  0  0  0  0  0
  126.1045  129.5620   54.3326 H   0  0  0  0  0  0  0  0  0  0  0  0
  127.6800  128.6991   54.3326 H   0  0  0  0  0  0  0  0  0  0  0  0
  128.5548  128.3994   56.9601 H   0  0  0  0  0  0  0  0  0  0  0  0
  132.0120  128.1120   58.2750 H   0  0  0  0  0  0  0  0  0  0  0  0
  132.2292  126.5222   59.6290 H   0  0  0  0  0  0  0  0  0  0  0  0
  130.7666  125.9916   60.5671 H   0  0  0  0  0  0  0  0  0  0  0  0
  130.9955  126.2278   54.1163 H   0  0  0  0  0  0  0  0  0  0  0  0
  130.5185  124.6751   53.3493 H   0  0  0  0  0  0  0  0  0  0  0  0
  129.3794  126.0641   53.3493 H   0  0  0  0  0  0  0  0  0  0  0  0
  127.5548  124.8399   54.5121 H   0  0  0  0  0  0  0  0  0  0  0  0
  125.9750  125.2148   58.4733 H   0  0  0  0  0  0  0  0  0  0  0  0
  123.5486  124.6781   58.6523 H   0  0  0  0  0  0  0  0  0  0  0  0
  122.4925  123.1480   56.9931 H   0  0  0  0  0  0  0  0  0  0  0  0
  123.8510  122.1469   55.1616 H   0  0  0  0  0  0  0  0  0  0  0  0
  126.2783  122.6804   54.9858 H   0  0  0  0  0  0  0  0  0  0  0  0
  132.3684  130.2695   57.7301 H   0  0  0  0  0  0  0  0  0  0  0  0
  133.7806  132.2335   56.8480 H   0  0  0  0  0  0  0  0  0  0  0  0
  133.2773  131.3970   55.3402 H   0  0  0  0  0  0  0  0  0  0  0  0
  133.5260  133.1759   55.3402 H   0  0  0  0  0  0  0  0  0  0  0  0
  128.5163  131.2957   53.6813 H   0  0  0  0  0  0  0  0  0  0  0  0
  128.6367  133.0408   53.2731 H   0  0  0  0  0  0  0  0  0  0  0  0
  130.1110  132.0146   53.2731 H   0  0  0  0  0  0  0  0  0  0  0  0
  1  2  1  0
  2  3  1  0
  3  4  2  0
  4  5  1  0
  5  6  1  0
  6  7  1  0
  7  8  2  0
  7  9  1  0
  9 10  1  0
 10 11  1  0
 11 12  2  0
 12 13  1  0
 13 14  1  0
 13 15  2  0
 15 16  1  0
 16 17  1  0
 17 18  2  0
 18 19  1  0
 19 20  2  0
 20 21  1  0
 21 22  2  0
 16 23  2  0
 23 24  1  0
 24 25  3  0
  5 26  2  0
 26 27  1  0
 27 28  1  0
 28 29  1  0
 27 30  2  0
 30 31  1  0
 31 32  1  0
 30  3  1  0
 23 11  1  0
 22 17  1  0
  1 33  1  0
  1 34  1  0
  1 35  1  0
  4 36  1  0
  6 37  1  0
  9 38  1  0
  9 39  1  0
 14 40  1  0
 14 41  1  0
 14 42  1  0
 15 43  1  0
 18 44  1  0
 19 45  1  0
 20 46  1  0
 21 47  1  0
 22 48  1  0
 26 49  1  0
 29 50  1  0
 29 51  1  0
 29 52  1  0
 32 53  1  0
 32 54  1  0
 32 55  1  0
M  END
>  <Binding energies>  (1) 
[-8.29]

>  <Ligand effiencies>  (1) 
[-0.25121212121212116]

>  <Interactions>  (1) 
["V-B:PRO:540:N:9856, V-B:LEU:363:CA:8157, V-B:TYR:539:CZ:9849, V-B:ILE:538:CA:9832, V-B:PRO:540:CB:9857, H-B:ALA:541:N:9863, V-B:TYR:539:CE2:9848, V-B:TYR:539:CE1:9847, V-A:TYR:539:CE1:4873, V-A:ASP:366:CG:3211, V-A:PRO:540:N:4882, H-A:TYR:539:N:4868, V-A:ILE:538:CA:4858, V-A:TYR:531:CE2:4791, H-A:TYR:531:OH:4793, V-A:LEU:363:CD1:3187, V-A:ILE:538:CB:4860, V-A:ILE:538:CG2:4861, V-A:PRO:540:CB:4883, V-B:TYR:531:CE2:9765, V-B:LEU:363:CD1:8161, V-A:MET:535:CE:4833, V-B:ILE:538:CG2:9835, V-B:PRO:540:CD:9859, V-B:ILE:538:CB:9834, V-B:PRO:540:CG:9858, H-A:ASP:366:OD2:3213, V-A:PRO:540:CD:4885, H-B:TYR:539:OH:9850, V-A:TYR:539:CD1:4871, H-A:ASP:366:OD1:3212, V-A:PRO:540:CG:4884, V-A:VAL:537:C:4848, V-B:LEU:363:CB:8159"]

$$$$
3ci_Grossjean_2025
     RDKit          3D

 39 41  0  0  0  0  0  0  0  0999 V2000
  129.4960  121.7850   60.7550 C   0  0  0  0  0  0  0  0  0  0  0  0
  129.7600  122.6430   59.5330 C   0  0  0  0  0  0  0  0  0  0  0  0
  128.8210  122.7720   58.5130 C   0  0  0  0  0  0  0  0  0  0  0  0
  129.1050  123.5900   57.4110 C   0  0  0  0  0  0  0  0  0  0  0  0
  128.0620  123.7110   56.3480 C   0  0  0  0  0  0  0  0  0  0  0  0
  126.7310  123.9970   56.6790 C   0  0  0  0  0  0  0  0  0  0  0  0
  125.7610  124.1000   55.6860 C   0  0  0  0  0  0  0  0  0  0  0  0
  126.1170  123.9100   54.3540 C   0  0  0  0  0  0  0  0  0  0  0  0
  127.4340  123.6170   54.0080 C   0  0  0  0  0  0  0  0  0  0  0  0
  128.4010  123.5150   55.0040 C   0  0  0  0  0  0  0  0  0  0  0  0
  130.3570  124.2550   57.3690 C   0  0  0  0  0  0  0  0  0  0  0  0
  130.7260  125.0900   56.2210 C   0  0  0  0  0  0  0  0  0  0  0  0
  131.0160  125.7490   55.3140 N   0  0  0  0  0  0  0  0  0  0  0  0
  131.2520  124.0730   58.4510 C   0  0  0  0  0  0  0  0  0  0  0  0
  132.8460  124.8790   58.5130 S   0  0  0  0  0  0  0  0  0  0  0  0
  134.0250  123.8280   59.4230 C   0  0  0  0  0  0  0  0  0  0  0  0
  133.6550  123.6370   60.8980 C   0  0  0  0  0  0  0  0  0  0  0  0
  133.5610  122.4950   61.3520 O   0  0  0  0  0  0  0  0  0  0  0  0
  133.4410  124.7710   61.6010 N   0  0  0  0  0  0  0  0  0  0  0  0
  133.1250  124.8780   62.9490 C   0  0  0  0  0  0  0  0  0  0  0  0
  131.8140  124.8730   63.4240 C   0  0  0  0  0  0  0  0  0  0  0  0
  131.9280  125.0000   64.7900 C   0  0  0  0  0  0  0  0  0  0  0  0
  133.2400  125.0760   65.1190 O   0  0  0  0  0  0  0  0  0  0  0  0
  133.9880  124.9980   63.9430 N   0  0  0  0  0  0  0  0  0  0  0  0
  130.9540  123.2740   59.5080 N   0  0  0  0  0  0  0  0  0  0  0  0
  129.6780  122.3764   61.6645 H   0  0  0  0  0  0  0  0  0  0  0  0
  128.4508  121.4422   60.7435 H   0  0  0  0  0  0  0  0  0  0  0  0
  130.1677  120.9140   60.7435 H   0  0  0  0  0  0  0  0  0  0  0  0
  127.8626  122.2354   58.5717 H   0  0  0  0  0  0  0  0  0  0  0  0
  126.4501  124.1414   57.7327 H   0  0  0  0  0  0  0  0  0  0  0  0
  124.7189  124.3303   55.9525 H   0  0  0  0  0  0  0  0  0  0  0  0
  125.3519  123.9919   53.5679 H   0  0  0  0  0  0  0  0  0  0  0  0
  127.7084  123.4670   52.9534 H   0  0  0  0  0  0  0  0  0  0  0  0
  129.4404  123.2784   54.7327 H   0  0  0  0  0  0  0  0  0  0  0  0
  134.0564  122.8400   58.9403 H   0  0  0  0  0  0  0  0  0  0  0  0
  135.0010  124.3346   59.3953 H   0  0  0  0  0  0  0  0  0  0  0  0
  133.5450  125.6450   61.1100 H   0  0  0  0  0  0  0  0  0  0  0  0
  130.8891  124.7864   62.8349 H   0  0  0  0  0  0  0  0  0  0  0  0
  131.0887  125.0343   65.5002 H   0  0  0  0  0  0  0  0  0  0  0  0
  1  2  1  0
  2  3  2  0
  3  4  1  0
  4  5  1  0
  5  6  2  0
  6  7  1  0
  7  8  2  0
  8  9  1  0
  9 10  2  0
  4 11  2  0
 11 12  1  0
 12 13  3  0
 11 14  1  0
 14 15  1  0
 15 16  1  0
 16 17  1  0
 17 18  2  0
 17 19  1  0
 19 20  1  0
 20 21  1  0
 21 22  2  0
 22 23  1  0
 23 24  1  0
 14 25  2  0
 25  2  1  0
 10  5  1  0
 24 20  2  0
  1 26  1  0
  1 27  1  0
  1 28  1  0
  3 29  1  0
  6 30  1  0
  7 31  1  0
  8 32  1  0
  9 33  1  0
 10 34  1  0
 16 35  1  0
 16 36  1  0
 19 37  1  0
 21 38  1  0
 22 39  1  0
M  END
>  <Binding energies>  (1) 
[-8.86]

>  <Ligand effiencies>  (1) 
[-0.34076923076923077]

>  <Interactions>  (1) 
["V-B:TYR:539:CZ:9849, V-B:ILE:538:CA:9832, V-B:ALA:541:CB:9864, V-B:TYR:539:CE2:9848, V-B:TYR:539:CE1:9847, V-B:TYR:539:CD1:9845, V-B:TYR:539:CD2:9846, V-A:ASP:366:CG:3211, H-A:TYR:531:OH:4793, V-A:ASP:366:CB:3210, V-B:TYR:531:CE2:9765, V-B:TYR:531:CZ:9766, V-B:TYR:539:C:9839, V-B:ILE:538:CG2:9835, V-B:ILE:538:CB:9834, V-A:ARG:545:CZ:4924, H-A:ASP:366:OD2:3213, H-A:TYR:484:OH:4346, H-A:ARG:545:NE:4922, H-A:GLY:454:N:4048, V-B:TYR:539:CG:9844, H-B:TYR:539:OH:9850, H-A:ARG:545:NH2:4926, H-A:ASP:366:OD1:3212, V-A:ILE:369:CB:3234, V-A:ILE:369:CG2:3235, V-A:ILE:369:CD1:3237, H-A:ARG:545:NH1:4925, V-A:ASP:366:CA:3208, V-B:MET:535:CG:9805, V-B:MET:535:CB:9804"]

$$$$
3cj_Grossjean_2025
     RDKit          3D

 39 41  0  0  0  0  0  0  0  0999 V2000
  129.4520  121.8350   60.7940 C   0  0  0  0  0  0  0  0  0  0  0  0
  129.7310  122.6750   59.5630 C   0  0  0  0  0  0  0  0  0  0  0  0
  128.8090  122.7720   58.5230 C   0  0  0  0  0  0  0  0  0  0  0  0
  129.0980  123.5780   57.4130 C   0  0  0  0  0  0  0  0  0  0  0  0
  128.0550  123.7040   56.3540 C   0  0  0  0  0  0  0  0  0  0  0  0
  128.3970  123.5910   55.0020 C   0  0  0  0  0  0  0  0  0  0  0  0
  127.4240  123.7220   54.0140 C   0  0  0  0  0  0  0  0  0  0  0  0
  126.1050  123.9730   54.3760 C   0  0  0  0  0  0  0  0  0  0  0  0
  125.7500  124.0970   55.7170 C   0  0  0  0  0  0  0  0  0  0  0  0
  126.7240  123.9650   56.7030 C   0  0  0  0  0  0  0  0  0  0  0  0
  130.3470  124.2460   57.3730 C   0  0  0  0  0  0  0  0  0  0  0  0
  130.7200  125.0810   56.2270 C   0  0  0  0  0  0  0  0  0  0  0  0
  131.0130  125.7410   55.3220 N   0  0  0  0  0  0  0  0  0  0  0  0
  131.2200  124.0940   58.4740 C   0  0  0  0  0  0  0  0  0  0  0  0
  132.7570  124.9820   58.6120 S   0  0  0  0  0  0  0  0  0  0  0  0
  133.8920  123.8230   59.4390 C   0  0  0  0  0  0  0  0  0  0  0  0
  133.5700  123.6750   60.9300 C   0  0  0  0  0  0  0  0  0  0  0  0
  133.6930  122.5740   61.4710 O   0  0  0  0  0  0  0  0  0  0  0  0
  133.2010  124.8120   61.5580 N   0  0  0  0  0  0  0  0  0  0  0  0
  132.9890  124.9750   62.9170 C   0  0  0  0  0  0  0  0  0  0  0  0
  133.8870  125.0040   63.8780 N   0  0  0  0  0  0  0  0  0  0  0  0
  133.3290  125.2080   65.0550 C   0  0  0  0  0  0  0  0  0  0  0  0
  131.9440  125.3470   65.0650 C   0  0  0  0  0  0  0  0  0  0  0  0
  131.3490  125.2010   63.4380 S   0  0  0  0  0  0  0  0  0  0  0  0
  130.9120  123.3310   59.5530 N   0  0  0  0  0  0  0  0  0  0  0  0
  129.6499  122.4310   61.6971 H   0  0  0  0  0  0  0  0  0  0  0  0
  128.3995  121.5154   60.7890 H   0  0  0  0  0  0  0  0  0  0  0  0
  130.1042  120.9492   60.7890 H   0  0  0  0  0  0  0  0  0  0  0  0
  127.8593  122.2191   58.5726 H   0  0  0  0  0  0  0  0  0  0  0  0
  129.4417  123.3973   54.7173 H   0  0  0  0  0  0  0  0  0  0  0  0
  127.6975  123.6274   52.9528 H   0  0  0  0  0  0  0  0  0  0  0  0
  125.3355  124.0745   53.5966 H   0  0  0  0  0  0  0  0  0  0  0  0
  124.7051  124.2983   55.9958 H   0  0  0  0  0  0  0  0  0  0  0  0
  126.4465  124.0663   57.7626 H   0  0  0  0  0  0  0  0  0  0  0  0
  133.8076  122.8377   58.9573 H   0  0  0  0  0  0  0  0  0  0  0  0
  134.9130  124.2221   59.3484 H   0  0  0  0  0  0  0  0  0  0  0  0
  133.1560  125.6550   61.0030 H   0  0  0  0  0  0  0  0  0  0  0  0
  133.9249  125.2652   65.9779 H   0  0  0  0  0  0  0  0  0  0  0  0
  131.3258  125.5211   65.9581 H   0  0  0  0  0  0  0  0  0  0  0  0
  1  2  1  0
  2  3  2  0
  3  4  1  0
  4  5  1  0
  5  6  2  0
  6  7  1  0
  7  8  2  0
  8  9  1  0
  9 10  2  0
  4 11  2  0
 11 12  1  0
 12 13  3  0
 11 14  1  0
 14 15  1  0
 15 16  1  0
 16 17  1  0
 17 18  2  0
 17 19  1  0
 19 20  1  0
 20 21  2  0
 21 22  1  0
 22 23  2  0
 23 24  1  0
 14 25  2  0
 25  2  1  0
 10  5  1  0
 24 20  1  0
  1 26  1  0
  1 27  1  0
  1 28  1  0
  3 29  1  0
  6 30  1  0
  7 31  1  0
  8 32  1  0
  9 33  1  0
 10 34  1  0
 16 35  1  0
 16 36  1  0
 19 37  1  0
 22 38  1  0
 23 39  1  0
M  END
>  <Binding energies>  (1) 
[-8.46]

>  <Ligand effiencies>  (1) 
[-0.32538461538461544]

>  <Interactions>  (1) 
["V-B:TYR:539:CZ:9849, V-B:ILE:538:CA:9832, V-B:ALA:541:CB:9864, V-B:TYR:539:CE2:9848, V-B:TYR:539:CE1:9847, V-B:TYR:539:CD1:9845, V-B:TYR:539:CD2:9846, V-A:ASP:366:CG:3211, H-A:TYR:531:OH:4793, V-B:TYR:531:CE2:9765, V-B:TYR:531:CZ:9766, V-B:TYR:539:C:9839, V-B:ILE:538:CG2:9835, V-B:ILE:538:CB:9834, V-A:ARG:545:CZ:4924, H-A:ASP:366:OD2:3213, V-A:ARG:545:CD:4921, H-A:TYR:484:OH:4346, H-A:ARG:545:NE:4922, H-A:GLY:454:N:4048, V-B:TYR:539:CG:9844, H-B:TYR:539:OH:9850, H-A:ARG:545:NH2:4926, H-A:ASP:366:OD1:3212, V-A:ILE:369:CB:3234, V-A:ILE:369:CG2:3235, V-A:ILE:369:CD1:3237, H-A:ARG:545:NH1:4925, V-A:ASP:366:CA:3208, V-A:HIS:456:CE1:4068, V-B:MET:535:CG:9805, V-B:MET:535:CB:9804, V-A:ARG:545:CG:4920"]

$$$$
3ck_Grossjean_2025
     RDKit          3D

 57 58  0  0  0  0  0  0  0  0999 V2000
  125.7790  124.2100   61.4770 C   0  0  0  0  0  0  0  0  0  0  0  0
  126.4720  123.2060   60.7530 O   0  0  0  0  0  0  0  0  0  0  0  0
  127.8800  123.2470   60.9350 C   0  0  0  0  0  0  0  0  0  0  0  0
  128.5790  122.8280   59.6350 C   0  0  0  0  0  0  0  0  0  0  0  0
  127.6020  122.6240   58.6210 O   0  0  0  0  0  0  0  0  0  0  0  0
  127.0420  123.8270   58.1100 C   0  0  0  0  0  0  0  0  0  0  0  0
  125.7700  123.4910   57.3210 C   0  0  0  0  0  0  0  0  0  0  0  0
  126.1470  122.8040   56.1370 O   0  0  0  0  0  0  0  0  0  0  0  0
  125.9010  123.5130   54.9330 C   0  0  0  0  0  0  0  0  0  0  0  0
  126.7580  124.7930   54.9050 C   0  0  0  0  0  0  0  0  0  0  0  0
  128.1980  124.5370   54.8050 N   0  0  0  0  0  0  0  0  0  0  0  0
  129.1360  125.4480   54.4900 C   0  0  0  0  0  0  0  0  0  0  0  0
  128.8800  126.6340   54.2710 O   0  0  0  0  0  0  0  0  0  0  0  0
  130.5770  124.9180   54.4240 C   0  0  0  0  0  0  0  0  0  0  0  0
  131.7630  125.7290   55.5510 S   0  0  0  0  0  0  0  0  0  0  0  0
  131.1320  125.6480   57.2210 C   0  0  0  0  0  0  0  0  0  0  0  0
  129.9720  126.3160   57.4410 N   0  0  0  0  0  0  0  0  0  0  0  0
  129.4390  126.3010   58.6830 C   0  0  0  0  0  0  0  0  0  0  0  0
  128.1430  127.0710   58.8540 C   0  0  0  0  0  0  0  0  0  0  0  0
  130.0340  125.6290   59.7470 C   0  0  0  0  0  0  0  0  0  0  0  0
  131.2360  124.9380   59.5450 C   0  0  0  0  0  0  0  0  0  0  0  0
  131.8500  124.2500   60.7200 C   0  0  0  0  0  0  0  0  0  0  0  0
  133.1380  124.5990   61.1440 C   0  0  0  0  0  0  0  0  0  0  0  0
  133.7210  123.9550   62.2340 C   0  0  0  0  0  0  0  0  0  0  0  0
  133.0190  122.9540   62.8990 C   0  0  0  0  0  0  0  0  0  0  0  0
  131.7400  122.5900   62.4840 C   0  0  0  0  0  0  0  0  0  0  0  0
  131.1600  123.2360   61.3950 C   0  0  0  0  0  0  0  0  0  0  0  0
  131.8000  124.9340   58.2430 C   0  0  0  0  0  0  0  0  0  0  0  0
  133.0350  124.1930   57.9620 C   0  0  0  0  0  0  0  0  0  0  0  0
  134.0090  123.6080   57.7410 N   0  0  0  0  0  0  0  0  0  0  0  0
  125.9006  124.0339   62.5560 H   0  0  0  0  0  0  0  0  0  0  0  0
  126.1887  125.1975   61.2182 H   0  0  0  0  0  0  0  0  0  0  0  0
  124.7104  124.1771   61.2182 H   0  0  0  0  0  0  0  0  0  0  0  0
  128.1851  124.2697   61.2016 H   0  0  0  0  0  0  0  0  0  0  0  0
  128.1645  122.5559   61.7421 H   0  0  0  0  0  0  0  0  0  0  0  0
  129.2753  123.6194   59.3206 H   0  0  0  0  0  0  0  0  0  0  0  0
  129.1382  121.8955   59.8011 H   0  0  0  0  0  0  0  0  0  0  0  0
  126.7920  124.5003   58.9432 H   0  0  0  0  0  0  0  0  0  0  0  0
  127.7683  124.3235   57.4497 H   0  0  0  0  0  0  0  0  0  0  0  0
  125.1135  122.8512   57.9290 H   0  0  0  0  0  0  0  0  0  0  0  0
  125.2274  124.4135   57.0669 H   0  0  0  0  0  0  0  0  0  0  0  0
  126.1627  122.8780   54.0738 H   0  0  0  0  0  0  0  0  0  0  0  0
  124.8363  123.7840   54.8787 H   0  0  0  0  0  0  0  0  0  0  0  0
  126.4518  125.3969   54.0381 H   0  0  0  0  0  0  0  0  0  0  0  0
  126.5899  125.3129   55.8597 H   0  0  0  0  0  0  0  0  0  0  0  0
  128.4930  123.5890   54.9870 H   0  0  0  0  0  0  0  0  0  0  0  0
  130.5556  123.8457   54.6685 H   0  0  0  0  0  0  0  0  0  0  0  0
  130.9322  125.1325   53.4053 H   0  0  0  0  0  0  0  0  0  0  0  0
  127.9303  127.1974   59.9258 H   0  0  0  0  0  0  0  0  0  0  0  0
  128.2383  128.0591   58.3801 H   0  0  0  0  0  0  0  0  0  0  0  0
  127.3208  126.5148   58.3801 H   0  0  0  0  0  0  0  0  0  0  0  0
  129.5630  125.6404   60.7410 H   0  0  0  0  0  0  0  0  0  0  0  0
  133.6933  125.3865   60.6135 H   0  0  0  0  0  0  0  0  0  0  0  0
  134.7309  124.2365   62.5670 H   0  0  0  0  0  0  0  0  0  0  0  0
  133.4781  122.4458   63.7598 H   0  0  0  0  0  0  0  0  0  0  0  0
  131.1914  121.7970   63.0133 H   0  0  0  0  0  0  0  0  0  0  0  0
  130.1519  122.9473   61.0627 H   0  0  0  0  0  0  0  0  0  0  0  0
  1  2  1  0
  2  3  1  0
  3  4  1  0
  4  5  1  0
  5  6  1  0
  6  7  1  0
  7  8  1  0
  8  9  1  0
  9 10  1  0
 10 11  1  0
 11 12  1  0
 12 13  2  0
 12 14  1  0
 14 15  1  0
 15 16  1  0
 16 17  2  0
 17 18  1  0
 18 19  1  0
 18 20  2  0
 20 21  1  0
 21 22  1  0
 22 23  2  0
 23 24  1  0
 24 25  2  0
 25 26  1  0
 26 27  2  0
 21 28  2  0
 28 29  1  0
 29 30  3  0
 28 16  1  0
 27 22  1  0
  1 31  1  0
  1 32  1  0
  1 33  1  0
  3 34  1  0
  3 35  1  0
  4 36  1  0
  4 37  1  0
  6 38  1  0
  6 39  1  0
  7 40  1  0
  7 41  1  0
  9 42  1  0
  9 43  1  0
 10 44  1  0
 10 45  1  0
 11 46  1  0
 14 47  1  0
 14 48  1  0
 19 49  1  0
 19 50  1  0
 19 51  1  0
 20 52  1  0
 23 53  1  0
 24 54  1  0
 25 55  1  0
 26 56  1  0
 27 57  1  0
M  END
>  <Binding energies>  (1) 
[-6.36]

>  <Ligand effiencies>  (1) 
[-0.20516129032258065]

>  <Interactions>  (1) 
["V-B:PRO:540:N:9856, V-B:TYR:539:CZ:9849, V-B:ILE:538:CA:9832, V-B:ALA:541:CB:9864, V-B:PRO:540:CB:9857, V-B:PRO:540:CA:9855, H-B:ALA:541:N:9863, V-B:TYR:539:CE2:9848, V-A:LEU:475:CD2:4257, V-B:TYR:539:CE1:9847, V-A:ASP:366:CG:3211, H-A:TYR:531:OH:4793, V-A:ASP:366:CB:3210, V-B:TYR:531:CZ:9766, H-B:TYR:539:N:9842, V-B:GLU:543:CD:9880, V-B:TYR:539:C:9839, V-B:ILE:538:CG2:9835, V-B:PRO:540:CD:9859, V-B:ILE:538:CB:9834, V-A:GLY:454:CA:4047, H-B:TYR:539:OH:9850, V-A:ASP:366:CA:3208, V-B:MET:535:CG:9805, V-A:GLY:453:CA:4042, V-A:GLY:453:C:4040"]

$$$$
4aa_Grossjean_2025
     RDKit          3D

 45 47  0  0  0  0  0  0  0  0999 V2000
  130.6130  126.4700   72.3000 C   0  0  0  0  0  0  0  0  0  0  0  0
  129.6310  127.5690   72.7170 C   0  0  0  0  0  0  0  0  0  0  0  0
  129.3420  128.3940   71.5960 O   0  0  0  0  0  0  0  0  0  0  0  0
  128.4360  128.0120   70.6580 C   0  0  0  0  0  0  0  0  0  0  0  0
  127.2170  127.9860   70.8600 O   0  0  0  0  0  0  0  0  0  0  0  0
  129.0640  127.6190   69.3530 C   0  0  0  0  0  0  0  0  0  0  0  0
  128.2410  127.2350   68.2860 C   0  0  0  0  0  0  0  0  0  0  0  0
  128.7930  126.8610   67.0640 C   0  0  0  0  0  0  0  0  0  0  0  0
  130.1760  126.8710   66.8800 C   0  0  0  0  0  0  0  0  0  0  0  0
  130.6270  126.4660   65.6090 N   0  0  0  0  0  0  0  0  0  0  0  0
  131.7610  125.8170   65.2500 C   0  0  0  0  0  0  0  0  0  0  0  0
  132.6530  125.4970   66.0350 O   0  0  0  0  0  0  0  0  0  0  0  0
  131.8880  125.5260   63.8210 C   0  0  0  0  0  0  0  0  0  0  0  0
  133.2860  124.6330   63.2150 S   0  0  0  0  0  0  0  0  0  0  0  0
  132.7130  124.7620   61.5680 C   0  0  0  0  0  0  0  0  0  0  0  0
  133.3880  124.2390   60.5430 N   0  0  0  0  0  0  0  0  0  0  0  0
  132.8360  124.4130   59.3170 C   0  0  0  0  0  0  0  0  0  0  0  0
  133.6230  123.8140   58.1640 C   0  0  0  0  0  0  0  0  0  0  0  0
  131.6380  125.0870   59.0940 C   0  0  0  0  0  0  0  0  0  0  0  0
  130.9320  125.6330   60.1720 C   0  0  0  0  0  0  0  0  0  0  0  0
  129.6280  126.3600   59.8790 C   0  0  0  0  0  0  0  0  0  0  0  0
  131.4800  125.4750   61.4730 C   0  0  0  0  0  0  0  0  0  0  0  0
  131.0350  125.9030   62.7720 C   0  0  0  0  0  0  0  0  0  0  0  0
  129.8740  126.6130   62.9490 N   0  0  0  0  0  0  0  0  0  0  0  0
  131.0090  127.2490   67.9430 C   0  0  0  0  0  0  0  0  0  0  0  0
  130.4550  127.6200   69.1660 C   0  0  0  0  0  0  0  0  0  0  0  0
  131.0362  125.9964   73.1981 H   0  0  0  0  0  0  0  0  0  0  0  0
  130.0843  125.7137   71.7012 H   0  0  0  0  0  0  0  0  0  0  0  0
  131.4238  126.9106   71.7012 H   0  0  0  0  0  0  0  0  0  0  0  0
  128.7012  127.1103   73.0845 H   0  0  0  0  0  0  0  0  0  0  0  0
  130.0789  128.1782   73.5159 H   0  0  0  0  0  0  0  0  0  0  0  0
  127.1486  127.2290   68.4151 H   0  0  0  0  0  0  0  0  0  0  0  0
  128.1343  126.5555   66.2377 H   0  0  0  0  0  0  0  0  0  0  0  0
  130.0060  126.7160   64.8520 H   0  0  0  0  0  0  0  0  0  0  0  0
  134.4393  123.1927   58.5609 H   0  0  0  0  0  0  0  0  0  0  0  0
  132.9558  123.1931   57.5481 H   0  0  0  0  0  0  0  0  0  0  0  0
  134.0437  124.6225   57.5481 H   0  0  0  0  0  0  0  0  0  0  0  0
  131.2468  125.1902   58.0711 H   0  0  0  0  0  0  0  0  0  0  0  0
  129.1393  126.6325   60.8261 H   0  0  0  0  0  0  0  0  0  0  0  0
  129.8383  127.2710   59.2995 H   0  0  0  0  0  0  0  0  0  0  0  0
  128.9636  125.7021   59.2995 H   0  0  0  0  0  0  0  0  0  0  0  0
  129.8740  127.6180   63.0540 H   0  0  0  0  0  0  0  0  0  0  0  0
  128.9750  126.1520   62.9840 H   0  0  0  0  0  0  0  0  0  0  0  0
  132.1010  127.2525   67.8108 H   0  0  0  0  0  0  0  0  0  0  0  0
  131.1150  127.9170   69.9944 H   0  0  0  0  0  0  0  0  0  0  0  0
  1  2  1  0
  2  3  1  0
  3  4  1  0
  4  5  2  0
  4  6  1  0
  6  7  2  0
  7  8  1  0
  8  9  2  0
  9 10  1  0
 10 11  1  0
 11 12  2  0
 11 13  1  0
 13 14  1  0
 14 15  1  0
 15 16  2  0
 16 17  1  0
 17 18  1  0
 17 19  2  0
 19 20  1  0
 20 21  1  0
 20 22  2  0
 22 23  1  0
 23 24  1  0
  9 25  1  0
 25 26  2  0
 26  6  1  0
 23 13  2  0
 22 15  1  0
  1 27  1  0
  1 28  1  0
  1 29  1  0
  2 30  1  0
  2 31  1  0
  7 32  1  0
  8 33  1  0
 10 34  1  0
 18 35  1  0
 18 36  1  0
 18 37  1  0
 19 38  1  0
 21 39  1  0
 21 40  1  0
 21 41  1  0
 24 42  1  0
 24 43  1  0
 25 44  1  0
 26 45  1  0
M  END
>  <Binding energies>  (1) 
[-7.2]

>  <Ligand effiencies>  (1) 
[-0.2482758620689655]

>  <Interactions>  (1) 
["H-B:GLU:543:OE1:9881, V-B:TYR:539:CZ:9849, V-B:TYR:539:CE2:9848, V-A:ASP:366:CG:3211, V-A:ASP:366:CB:3210, V-A:GLU:543:CD:4906, V-B:GLU:543:CD:9880, H-B:GLU:543:OE2:9882, V-A:ARG:545:CZ:4924, H-A:GLU:543:OE2:4908, H-A:GLU:543:OE1:4907, V-A:ARG:545:CD:4921, H-A:TYR:484:OH:4346, H-A:ARG:545:NE:4922, V-A:ILE:369:CB:3234, V-A:ILE:369:CG2:3235, V-A:ASP:366:CA:3208, V-B:HIS:456:CE1:9042, V-A:HIS:456:CD2:4066, V-A:HIS:456:CG:4064, V-B:HIS:456:CD2:9040, V-A:LYS:547:CE:4948, V-A:HIS:456:CE1:4068, V-A:GLY:544:C:4910, V-B:GLU:543:CG:9879, V-B:GLU:543:C:9874, V-A:ARG:545:CG:4920, V-A:GLU:543:CG:4905, V-B:GLU:543:CB:9878, V-A:GLU:543:C:4900, H-A:HIS:456:ND1:4065, H-B:HIS:456:ND1:9039"]

$$$$
4ab_Grossjean_2025
     RDKit          3D

 42 44  0  0  0  0  0  0  0  0999 V2000
  130.1360  127.2460   72.5450 C   0  0  0  0  0  0  0  0  0  0  0  0
  129.4860  128.3400   71.9150 O   0  0  0  0  0  0  0  0  0  0  0  0
  128.4400  128.1410   71.0730 C   0  0  0  0  0  0  0  0  0  0  0  0
  127.2610  128.3110   71.4010 O   0  0  0  0  0  0  0  0  0  0  0  0
  128.8580  127.6860   69.7050 C   0  0  0  0  0  0  0  0  0  0  0  0
  130.2230  127.6240   69.3930 C   0  0  0  0  0  0  0  0  0  0  0  0
  130.6430  127.2080   68.1320 C   0  0  0  0  0  0  0  0  0  0  0  0
  129.7110  126.8380   67.1630 C   0  0  0  0  0  0  0  0  0  0  0  0
  130.2450  126.4420   65.9220 N   0  0  0  0  0  0  0  0  0  0  0  0
  131.5130  126.0990   65.5870 C   0  0  0  0  0  0  0  0  0  0  0  0
  132.4660  126.1230   66.3660 O   0  0  0  0  0  0  0  0  0  0  0  0
  131.7040  125.7060   64.1900 C   0  0  0  0  0  0  0  0  0  0  0  0
  133.1640  124.8430   63.6990 S   0  0  0  0  0  0  0  0  0  0  0  0
  132.6440  124.8140   62.0300 C   0  0  0  0  0  0  0  0  0  0  0  0
  133.3790  124.2510   61.0700 N   0  0  0  0  0  0  0  0  0  0  0  0
  132.8620  124.2990   59.8180 C   0  0  0  0  0  0  0  0  0  0  0  0
  133.7170  123.6570   58.7410 C   0  0  0  0  0  0  0  0  0  0  0  0
  131.6380  124.8870   59.5070 C   0  0  0  0  0  0  0  0  0  0  0  0
  130.8690  125.4780   60.5160 C   0  0  0  0  0  0  0  0  0  0  0  0
  129.5410  126.1090   60.1260 C   0  0  0  0  0  0  0  0  0  0  0  0
  131.3800  125.4510   61.8420 C   0  0  0  0  0  0  0  0  0  0  0  0
  130.8700  125.9560   63.0880 C   0  0  0  0  0  0  0  0  0  0  0  0
  129.6710  126.6170   63.1740 N   0  0  0  0  0  0  0  0  0  0  0  0
  128.3420  126.9030   67.4640 C   0  0  0  0  0  0  0  0  0  0  0  0
  127.9240  127.3220   68.7240 C   0  0  0  0  0  0  0  0  0  0  0  0
  130.0688  127.3591   73.6371 H   0  0  0  0  0  0  0  0  0  0  0  0
  129.6492  126.3069   72.2430 H   0  0  0  0  0  0  0  0  0  0  0  0
  131.1935  127.2245   72.2430 H   0  0  0  0  0  0  0  0  0  0  0  0
  130.9689  127.9063   70.1506 H   0  0  0  0  0  0  0  0  0  0  0  0
  131.7174  127.1710   67.8988 H   0  0  0  0  0  0  0  0  0  0  0  0
  129.5730  126.4260   65.1700 H   0  0  0  0  0  0  0  0  0  0  0  0
  134.5121  123.0600   59.2115 H   0  0  0  0  0  0  0  0  0  0  0  0
  133.0900  123.0046   58.1155 H   0  0  0  0  0  0  0  0  0  0  0  0
  134.1686  124.4411   58.1155 H   0  0  0  0  0  0  0  0  0  0  0  0
  131.2759  124.8868   58.4683 H   0  0  0  0  0  0  0  0  0  0  0  0
  128.9807  126.3752   61.0344 H   0  0  0  0  0  0  0  0  0  0  0  0
  129.7264  127.0153   59.5308 H   0  0  0  0  0  0  0  0  0  0  0  0
  128.9555  125.3928   59.5308 H   0  0  0  0  0  0  0  0  0  0  0  0
  128.7890  126.1410   63.0550 H   0  0  0  0  0  0  0  0  0  0  0  0
  129.6320  127.6120   63.3550 H   0  0  0  0  0  0  0  0  0  0  0  0
  127.5983  126.6226   66.7035 H   0  0  0  0  0  0  0  0  0  0  0  0
  126.8491  127.3681   68.9528 H   0  0  0  0  0  0  0  0  0  0  0  0
  1  2  1  0
  2  3  1  0
  3  4  2  0
  3  5  1  0
  5  6  2  0
  6  7  1  0
  7  8  2  0
  8  9  1  0
  9 10  1  0
 10 11  2  0
 10 12  1  0
 12 13  1  0
 13 14  1  0
 14 15  2  0
 15 16  1  0
 16 17  1  0
 16 18  2  0
 18 19  1  0
 19 20  1  0
 19 21  2  0
 21 22  1  0
 22 23  1  0
  8 24  1  0
 24 25  2  0
 25  5  1  0
 22 12  2  0
 21 14  1  0
  1 26  1  0
  1 27  1  0
  1 28  1  0
  6 29  1  0
  7 30  1  0
  9 31  1  0
 17 32  1  0
 17 33  1  0
 17 34  1  0
 18 35  1  0
 20 36  1  0
 20 37  1  0
 20 38  1  0
 23 39  1  0
 23 40  1  0
 24 41  1  0
 25 42  1  0
M  END
>  <Binding energies>  (1) 
[-6.96]

>  <Ligand effiencies>  (1) 
[-0.24857142857142858]

>  <Interactions>  (1) 
["H-B:GLU:543:OE1:9881, V-B:TYR:539:CE2:9848, V-A:ASP:366:CG:3211, V-A:GLU:543:CD:4906, V-B:GLU:543:CD:9880, H-B:GLU:543:OE2:9882, V-A:ARG:545:CZ:4924, H-A:GLU:543:OE2:4908, H-A:GLU:543:OE1:4907, V-A:ARG:545:CD:4921, H-A:TYR:484:OH:4346, H-A:ARG:545:NE:4922, V-A:ILE:369:CB:3234, V-A:ILE:369:CG2:3235, V-A:ILE:369:CD1:3237, V-A:ASP:366:CA:3208, V-B:HIS:456:CE1:9042, V-B:HIS:456:CD2:9040, V-A:LYS:547:CE:4948, V-A:HIS:456:CE1:4068, V-A:GLY:544:C:4910, V-B:GLU:543:CG:9879, V-B:GLU:543:C:9874, V-A:ARG:545:CG:4920, V-A:GLU:543:CG:4905, V-B:GLU:543:CB:9878, V-A:GLU:543:C:4900, H-A:HIS:456:ND1:4065, H-B:HIS:456:ND1:9039"]

$$$$
4ac_Grossjean_2025
     RDKit          3D

 40 42  0  0  0  0  0  0  0  0999 V2000
  134.0500  124.9910   66.1990 C   0  0  0  0  0  0  0  0  0  0  0  0
  134.3560  125.2650   64.8350 O   0  0  0  0  0  0  0  0  0  0  0  0
  133.4050  125.0080   63.8670 C   0  0  0  0  0  0  0  0  0  0  0  0
  132.0830  125.2990   64.2000 C   0  0  0  0  0  0  0  0  0  0  0  0
  131.0560  125.0740   63.2870 C   0  0  0  0  0  0  0  0  0  0  0  0
  131.3410  124.5610   62.0210 C   0  0  0  0  0  0  0  0  0  0  0  0
  130.2390  124.3540   61.1710 N   0  0  0  0  0  0  0  0  0  0  0  0
  130.1150  123.5100   60.1190 C   0  0  0  0  0  0  0  0  0  0  0  0
  131.0200  122.7810   59.7100 O   0  0  0  0  0  0  0  0  0  0  0  0
  128.8050  123.5140   59.4620 C   0  0  0  0  0  0  0  0  0  0  0  0
  128.6730  123.1800   57.7350 S   0  0  0  0  0  0  0  0  0  0  0  0
  126.9350  123.3760   57.7810 C   0  0  0  0  0  0  0  0  0  0  0  0
  126.1790  123.2360   56.6920 N   0  0  0  0  0  0  0  0  0  0  0  0
  124.8470  123.4150   56.8650 C   0  0  0  0  0  0  0  0  0  0  0  0
  124.0050  123.2510   55.6130 C   0  0  0  0  0  0  0  0  0  0  0  0
  124.2600  123.7290   58.0890 C   0  0  0  0  0  0  0  0  0  0  0  0
  125.0560  123.8750   59.2300 C   0  0  0  0  0  0  0  0  0  0  0  0
  124.3680  124.2180   60.5430 C   0  0  0  0  0  0  0  0  0  0  0  0
  126.4580  123.6930   59.0880 C   0  0  0  0  0  0  0  0  0  0  0  0
  127.5450  123.7640   60.0280 C   0  0  0  0  0  0  0  0  0  0  0  0
  127.3470  124.0530   61.3540 N   0  0  0  0  0  0  0  0  0  0  0  0
  132.6670  124.2530   61.6830 C   0  0  0  0  0  0  0  0  0  0  0  0
  133.6920  124.4800   62.5980 C   0  0  0  0  0  0  0  0  0  0  0  0
  134.7110  125.5829   66.8491 H   0  0  0  0  0  0  0  0  0  0  0  0
  133.0022  125.2584   66.4006 H   0  0  0  0  0  0  0  0  0  0  0  0
  134.2005  123.9201   66.4006 H   0  0  0  0  0  0  0  0  0  0  0  0
  131.8490  125.7101   65.1931 H   0  0  0  0  0  0  0  0  0  0  0  0
  130.0162  125.3015   63.5648 H   0  0  0  0  0  0  0  0  0  0  0  0
  129.4440  124.9480   61.3630 H   0  0  0  0  0  0  0  0  0  0  0  0
  122.9618  123.0478   55.8967 H   0  0  0  0  0  0  0  0  0  0  0  0
  124.0497  124.1747   55.0174 H   0  0  0  0  0  0  0  0  0  0  0  0
  124.3932  122.4116   55.0174 H   0  0  0  0  0  0  0  0  0  0  0  0
  123.1703  123.8621   58.1581 H   0  0  0  0  0  0  0  0  0  0  0  0
  125.0032  123.9013   61.3834 H   0  0  0  0  0  0  0  0  0  0  0  0
  124.2024  125.3041   60.5974 H   0  0  0  0  0  0  0  0  0  0  0  0
  123.4010  123.6965   60.5974 H   0  0  0  0  0  0  0  0  0  0  0  0
  126.5120  124.5150   61.6810 H   0  0  0  0  0  0  0  0  0  0  0  0
  128.0360  123.8070   62.0520 H   0  0  0  0  0  0  0  0  0  0  0  0
  132.8977  123.8314   60.6935 H   0  0  0  0  0  0  0  0  0  0  0  0
  134.7313  124.2446   62.3253 H   0  0  0  0  0  0  0  0  0  0  0  0
  1  2  1  0
  2  3  1  0
  3  4  2  0
  4  5  1  0
  5  6  2  0
  6  7  1  0
  7  8  1  0
  8  9  2  0
  8 10  1  0
 10 11  1  0
 11 12  1  0
 12 13  2  0
 13 14  1  0
 14 15  1  0
 14 16  2  0
 16 17  1  0
 17 18  1  0
 17 19  2  0
 19 20  1  0
 20 21  1  0
  6 22  1  0
 22 23  2  0
 23  3  1  0
 20 10  2  0
 19 12  1  0
  1 24  1  0
  1 25  1  0
  1 26  1  0
  4 27  1  0
  5 28  1  0
  7 29  1  0
 15 30  1  0
 15 31  1  0
 15 32  1  0
 16 33  1  0
 18 34  1  0
 18 35  1  0
 18 36  1  0
 21 37  1  0
 21 38  1  0
 22 39  1  0
 23 40  1  0
M  END
>  <Binding energies>  (1) 
[-7.03]

>  <Ligand effiencies>  (1) 
[-0.2703846153846154]

>  <Interactions>  (1) 
["V-B:PRO:540:N:9856, H-B:GLU:543:OE1:9881, V-B:TYR:539:CZ:9849, V-B:ASP:366:CG:8185, V-B:PRO:540:CB:9857, V-B:PRO:540:CA:9855, V-B:TYR:539:CE2:9848, V-B:TYR:539:CD2:9846, V-B:TYR:531:CE2:9765, V-B:LEU:363:CD1:8161, V-B:TYR:531:CZ:9766, V-B:ASN:362:CB:8148, H-B:TYR:539:N:9842, V-B:GLU:543:CD:9880, V-B:TYR:539:C:9839, V-B:ILE:538:CG2:9835, V-B:PRO:540:CD:9859, V-B:ILE:538:CB:9834, H-B:GLU:543:OE2:9882, V-B:PRO:540:CG:9858, V-A:ARG:545:CZ:4924, V-A:GLY:454:CA:4047, V-A:ARG:545:CD:4921, H-A:TYR:484:OH:4346, H-A:ARG:545:NE:4922, H-A:GLY:454:N:4048, V-B:TYR:539:CG:9844, H-A:ARG:545:NH1:4925, V-A:HIS:456:CE1:4068, V-A:ARG:545:CG:4920, V-A:GLY:453:CA:4042, V-A:GLY:453:C:4040, V-A:TYR:484:CZ:4345, V-B:ASN:362:C:8144"]

$$$$
4ad_Grossjean_2025
     RDKit          3D

 36 38  0  0  0  0  0  0  0  0999 V2000
  125.9910  116.7990   70.7680 C   0  0  0  0  0  0  0  0  0  0  0  0
  126.7950  117.7120   71.6740 C   0  0  0  0  0  0  0  0  0  0  0  0
  127.0890  117.3450   72.9860 C   0  0  0  0  0  0  0  0  0  0  0  0
  127.8310  118.2050   73.8040 C   0  0  0  0  0  0  0  0  0  0  0  0
  128.1250  117.7610   75.2290 C   0  0  0  0  0  0  0  0  0  0  0  0
  128.2600  119.4410   73.2500 C   0  0  0  0  0  0  0  0  0  0  0  0
  129.0210  120.5350   73.7920 C   0  0  0  0  0  0  0  0  0  0  0  0
  129.4980  120.5270   75.0790 N   0  0  0  0  0  0  0  0  0  0  0  0
  129.2240  121.5920   72.8900 C   0  0  0  0  0  0  0  0  0  0  0  0
  129.9310  122.8540   73.1100 C   0  0  0  0  0  0  0  0  0  0  0  0
  129.4340  123.9240   72.7500 O   0  0  0  0  0  0  0  0  0  0  0  0
  131.1310  122.7470   73.7320 N   0  0  0  0  0  0  0  0  0  0  0  0
  132.0680  123.7500   74.0490 C   0  0  0  0  0  0  0  0  0  0  0  0
  131.7220  125.0510   73.6710 C   0  0  0  0  0  0  0  0  0  0  0  0
  132.5780  126.1130   73.9500 C   0  0  0  0  0  0  0  0  0  0  0  0
  133.7770  125.8770   74.6150 C   0  0  0  0  0  0  0  0  0  0  0  0
  134.1270  124.5880   75.0090 C   0  0  0  0  0  0  0  0  0  0  0  0
  133.2740  123.5230   74.7310 C   0  0  0  0  0  0  0  0  0  0  0  0
  128.4730  121.2490   71.3300 S   0  0  0  0  0  0  0  0  0  0  0  0
  127.8930  119.7000   71.8950 C   0  0  0  0  0  0  0  0  0  0  0  0
  127.1870  118.8810   71.1130 N   0  0  0  0  0  0  0  0  0  0  0  0
  125.3873  116.1134   71.3808 H   0  0  0  0  0  0  0  0  0  0  0  0
  125.3273  117.4043   70.1331 H   0  0  0  0  0  0  0  0  0  0  0  0
  126.6754  116.2172   70.1331 H   0  0  0  0  0  0  0  0  0  0  0  0
  126.7379  116.3794   73.3787 H   0  0  0  0  0  0  0  0  0  0  0  0
  127.6595  118.4640   75.9355 H   0  0  0  0  0  0  0  0  0  0  0  0
  127.7152  116.7531   75.3910 H   0  0  0  0  0  0  0  0  0  0  0  0
  129.2129  117.7448   75.3910 H   0  0  0  0  0  0  0  0  0  0  0  0
  130.4860  120.5000   75.2830 H   0  0  0  0  0  0  0  0  0  0  0  0
  128.8700  120.5540   75.8710 H   0  0  0  0  0  0  0  0  0  0  0  0
  131.3960  121.8200   74.0300 H   0  0  0  0  0  0  0  0  0  0  0  0
  130.7703  125.2360   73.1514 H   0  0  0  0  0  0  0  0  0  0  0  0
  132.3073  127.1348   73.6458 H   0  0  0  0  0  0  0  0  0  0  0  0
  134.4546  126.7161   74.8315 H   0  0  0  0  0  0  0  0  0  0  0  0
  135.0749  124.4115   75.5385 H   0  0  0  0  0  0  0  0  0  0  0  0
  133.5450  122.5044   75.0456 H   0  0  0  0  0  0  0  0  0  0  0  0
  1  2  1  0
  2  3  2  0
  3  4  1  0
  4  5  1  0
  4  6  2  0
  6  7  1  0
  7  8  1  0
  7  9  2  0
  9 10  1  0
 10 11  2  0
 10 12  1  0
 12 13  1  0
 13 14  2  0
 14 15  1  0
 15 16  2  0
 16 17  1  0
 17 18  2  0
  9 19  1  0
 19 20  1  0
 20 21  2  0
 21  2  1  0
 20  6  1  0
 18 13  1  0
  1 22  1  0
  1 23  1  0
  1 24  1  0
  3 25  1  0
  5 26  1  0
  5 27  1  0
  5 28  1  0
  8 29  1  0
  8 30  1  0
 12 31  1  0
 14 32  1  0
 15 33  1  0
 16 34  1  0
 17 35  1  0
 18 36  1  0
M  END
>  <Binding energies>  (1) 
[-7.18]

>  <Ligand effiencies>  (1) 
[-0.29916666666666664]

>  <Interactions>  (1) 
["V-A:LYS:471:CE:4218, V-A:HIS:456:CB:4063, V-A:HIS:456:CD2:4066, V-A:VAL:458:CG2:4085, V-A:HIS:456:CG:4064, V-A:HIS:456:C:4059, V-A:VAL:457:C:4071, V-A:ASP:473:CG:4238, V-A:HIS:456:CA:4061, H-B:LYS:547:NZ:9923, V-B:LYS:547:CE:9922, V-B:GLY:544:CA:9886, V-B:GLU:543:C:9874, V-A:TYR:484:CG:4340, V-A:TYR:484:CB:4339, V-B:VAL:542:CG1:9871, V-B:GLU:543:CA:9876, V-A:TYR:484:CD1:4341, H-A:ASP:473:OD2:4240, H-A:TYR:484:N:4338, V-A:SER:483:CB:4331"]

$$$$
4ae_Grossjean_2025
     RDKit          3D

 38 40  0  0  0  0  0  0  0  0999 V2000
  131.9210  126.8860   74.2470 C   0  0  0  0  0  0  0  0  0  0  0  0
  132.3030  125.4290   74.4210 C   0  0  0  0  0  0  0  0  0  0  0  0
  133.5400  125.0560   74.9520 C   0  0  0  0  0  0  0  0  0  0  0  0
  133.8260  123.6960   75.0760 C   0  0  0  0  0  0  0  0  0  0  0  0
  132.8810  122.7520   74.6680 C   0  0  0  0  0  0  0  0  0  0  0  0
  131.6580  123.1940   74.1520 C   0  0  0  0  0  0  0  0  0  0  0  0
  130.7550  122.1980   73.7400 N   0  0  0  0  0  0  0  0  0  0  0  0
  129.6130  122.3330   73.0220 C   0  0  0  0  0  0  0  0  0  0  0  0
  129.1820  123.4140   72.6150 O   0  0  0  0  0  0  0  0  0  0  0  0
  128.8910  121.0880   72.7510 C   0  0  0  0  0  0  0  0  0  0  0  0
  128.0290  120.8710   71.2270 S   0  0  0  0  0  0  0  0  0  0  0  0
  127.4740  119.2850   71.7110 C   0  0  0  0  0  0  0  0  0  0  0  0
  126.7040  118.5370   70.9220 N   0  0  0  0  0  0  0  0  0  0  0  0
  126.3380  117.3300   71.4170 C   0  0  0  0  0  0  0  0  0  0  0  0
  125.4550  116.4970   70.5060 C   0  0  0  0  0  0  0  0  0  0  0  0
  126.7240  116.8580   72.6710 C   0  0  0  0  0  0  0  0  0  0  0  0
  127.5340  117.6460   73.4960 C   0  0  0  0  0  0  0  0  0  0  0  0
  127.9260  117.0890   74.8570 C   0  0  0  0  0  0  0  0  0  0  0  0
  127.9360  118.9200   73.0110 C   0  0  0  0  0  0  0  0  0  0  0  0
  128.7440  119.9650   73.5820 C   0  0  0  0  0  0  0  0  0  0  0  0
  129.3100  119.8570   74.8270 N   0  0  0  0  0  0  0  0  0  0  0  0
  131.3740  124.5240   74.0220 N   0  0  0  0  0  0  0  0  0  0  0  0
  131.7984  127.3535   75.2352 H   0  0  0  0  0  0  0  0  0  0  0  0
  132.7125  127.4086   73.6898 H   0  0  0  0  0  0  0  0  0  0  0  0
  130.9749  126.9530   73.6898 H   0  0  0  0  0  0  0  0  0  0  0  0
  134.2710  125.8161   75.2648 H   0  0  0  0  0  0  0  0  0  0  0  0
  134.7901  123.3692   75.4927 H   0  0  0  0  0  0  0  0  0  0  0  0
  133.0953  121.6763   74.7512 H   0  0  0  0  0  0  0  0  0  0  0  0
  130.9710  121.2690   74.0720 H   0  0  0  0  0  0  0  0  0  0  0  0
  124.7889  115.8686   71.1154 H   0  0  0  0  0  0  0  0  0  0  0  0
  124.8518  117.1627   69.8712 H   0  0  0  0  0  0  0  0  0  0  0  0
  126.0844  115.8560   69.8712 H   0  0  0  0  0  0  0  0  0  0  0  0
  126.3917  115.8662   73.0116 H   0  0  0  0  0  0  0  0  0  0  0  0
  127.4867  117.7132   75.6490 H   0  0  0  0  0  0  0  0  0  0  0  0
  127.5528  116.0587   74.9528 H   0  0  0  0  0  0  0  0  0  0  0  0
  129.0218  117.0925   74.9528 H   0  0  0  0  0  0  0  0  0  0  0  0
  128.7710  119.5810   75.6360 H   0  0  0  0  0  0  0  0  0  0  0  0
  130.2910  120.0500   74.9750 H   0  0  0  0  0  0  0  0  0  0  0  0
  1  2  1  0
  2  3  2  0
  3  4  1  0
  4  5  2  0
  5  6  1  0
  6  7  1  0
  7  8  1  0
  8  9  2  0
  8 10  1  0
 10 11  1  0
 11 12  1  0
 12 13  2  0
 13 14  1  0
 14 15  1  0
 14 16  2  0
 16 17  1  0
 17 18  1  0
 17 19  2  0
 19 20  1  0
 20 21  1  0
  6 22  2  0
 22  2  1  0
 20 10  2  0
 19 12  1  0
  1 23  1  0
  1 24  1  0
  1 25  1  0
  3 26  1  0
  4 27  1  0
  5 28  1  0
  7 29  1  0
 15 30  1  0
 15 31  1  0
 15 32  1  0
 16 33  1  0
 18 34  1  0
 18 35  1  0
 18 36  1  0
 21 37  1  0
 21 38  1  0
M  END
>  <Binding energies>  (1) 
[-7.17]

>  <Ligand effiencies>  (1) 
[-0.2868]

>  <Interactions>  (1) 
["V-A:LYS:471:CE:4218, V-A:HIS:456:CB:4063, V-A:HIS:456:CD2:4066, V-A:VAL:458:CG2:4085, V-A:HIS:456:CG:4064, V-A:HIS:456:C:4059, V-A:LYS:471:CG:4216, V-A:LYS:547:CE:4948, V-A:ASP:473:CG:4238, V-A:LYS:471:CD:4217, H-B:LYS:547:NZ:9923, V-B:LYS:547:CE:9922, V-B:GLY:544:CA:9886, V-B:GLU:543:C:9874, V-A:TYR:484:CB:4339, V-B:VAL:542:CG1:9871, V-B:GLU:543:CA:9876, V-A:TYR:484:CD1:4341, V-A:LYS:547:CG:4946, H-A:ASP:473:OD2:4240, V-A:ASP:473:CB:4237, V-A:LYS:547:CD:4947, H-A:TYR:484:N:4338, V-A:SER:483:CB:4331"]

$$$$
4af_Grossjean_2025
     RDKit          3D

 35 37  0  0  0  0  0  0  0  0999 V2000
  131.6290  131.8180   55.2720 C   0  0  0  0  0  0  0  0  0  0  0  0
  131.3140  131.7300   56.7550 C   0  0  0  0  0  0  0  0  0  0  0  0
  132.3110  131.4390   57.6830 C   0  0  0  0  0  0  0  0  0  0  0  0
  131.9970  131.3600   59.0460 C   0  0  0  0  0  0  0  0  0  0  0  0
  133.1180  131.0380   60.0210 C   0  0  0  0  0  0  0  0  0  0  0  0
  130.6470  131.5840   59.4290 C   0  0  0  0  0  0  0  0  0  0  0  0
  129.9880  131.5790   60.7080 C   0  0  0  0  0  0  0  0  0  0  0  0
  130.6620  131.3260   61.8770 N   0  0  0  0  0  0  0  0  0  0  0  0
  128.6130  131.8530   60.6430 C   0  0  0  0  0  0  0  0  0  0  0  0
  127.6400  131.8980   61.7360 C   0  0  0  0  0  0  0  0  0  0  0  0
  127.1550  132.9700   62.1010 O   0  0  0  0  0  0  0  0  0  0  0  0
  127.3210  130.6970   62.2770 N   0  0  0  0  0  0  0  0  0  0  0  0
  126.4690  130.4000   63.3570 C   0  0  0  0  0  0  0  0  0  0  0  0
  126.8680  129.8270   64.5790 C   0  0  0  0  0  0  0  0  0  0  0  0
  125.9150  129.5660   65.5640 C   0  0  0  0  0  0  0  0  0  0  0  0
  124.5800  129.8810   65.3040 C   0  0  0  0  0  0  0  0  0  0  0  0
  124.1680  130.4260   64.1320 N   0  0  0  0  0  0  0  0  0  0  0  0
  125.1060  130.6730   63.1840 C   0  0  0  0  0  0  0  0  0  0  0  0
  128.0960  132.1250   58.9770 S   0  0  0  0  0  0  0  0  0  0  0  0
  129.7220  131.8740   58.3820 C   0  0  0  0  0  0  0  0  0  0  0  0
  130.0170  131.9500   57.0830 N   0  0  0  0  0  0  0  0  0  0  0  0
  132.6805  132.1117   55.1373 H   0  0  0  0  0  0  0  0  0  0  0  0
  131.4590  130.8380   54.8023 H   0  0  0  0  0  0  0  0  0  0  0  0
  130.9757  132.5680   54.8023 H   0  0  0  0  0  0  0  0  0  0  0  0
  133.3445  131.2713   57.3458 H   0  0  0  0  0  0  0  0  0  0  0  0
  132.7491  131.1440   61.0519 H   0  0  0  0  0  0  0  0  0  0  0  0
  133.4601  130.0053   59.8583 H   0  0  0  0  0  0  0  0  0  0  0  0
  133.9560  131.7318   59.8583 H   0  0  0  0  0  0  0  0  0  0  0  0
  130.2500  130.7850   62.6240 H   0  0  0  0  0  0  0  0  0  0  0  0
  131.5990  131.6730   62.0270 H   0  0  0  0  0  0  0  0  0  0  0  0
  127.7470  129.8880   61.8480 H   0  0  0  0  0  0  0  0  0  0  0  0
  127.9265  129.5860   64.7567 H   0  0  0  0  0  0  0  0  0  0  0  0
  126.2095  129.1211   66.5259 H   0  0  0  0  0  0  0  0  0  0  0  0
  123.8300  129.6786   66.0829 H   0  0  0  0  0  0  0  0  0  0  0  0
  124.7793  131.1107   62.2292 H   0  0  0  0  0  0  0  0  0  0  0  0
  1  2  1  0
  2  3  2  0
  3  4  1  0
  4  5  1  0
  4  6  2  0
  6  7  1  0
  7  8  1  0
  7  9  2  0
  9 10  1  0
 10 11  2  0
 10 12  1  0
 12 13  1  0
 13 14  2  0
 14 15  1  0
 15 16  2  0
 16 17  1  0
 17 18  2  0
  9 19  1  0
 19 20  1  0
 20 21  2  0
 21  2  1  0
 20  6  1  0
 18 13  1  0
  1 22  1  0
  1 23  1  0
  1 24  1  0
  3 25  1  0
  5 26  1  0
  5 27  1  0
  5 28  1  0
  8 29  1  0
  8 30  1  0
 12 31  1  0
 14 32  1  0
 15 33  1  0
 16 34  1  0
 18 35  1  0
M  END
>  <Binding energies>  (1) 
[-7.12]

>  <Ligand effiencies>  (1) 
[-0.2966666666666667]

>  <Interactions>  (1) 
["V-A:ASP:366:CG:3211, V-A:PRO:540:N:4882, V-A:ILE:538:CA:4858, V-A:TYR:531:CE2:4791, V-A:TYR:539:C:4865, V-A:ILE:538:CB:4860, V-A:PRO:540:CA:4881, V-A:ILE:538:CG2:4861, V-A:GLU:543:CD:4906, V-A:PRO:540:CB:4883, V-B:ARG:545:CZ:9898, H-A:GLU:543:OE2:4908, H-A:GLU:543:OE1:4907, V-A:PRO:540:CD:4885, V-A:ASN:362:CB:3174, V-A:TYR:539:CE2:4874, H-B:GLY:454:N:9022, V-A:ALA:541:CB:4890, H-B:TYR:484:OH:9320, V-A:TYR:539:CD2:4872, V-B:HIS:456:CE1:9042, V-A:ALA:541:CA:4888, V-B:ARG:545:CG:9894, V-B:ARG:545:CD:9895, H-A:ALA:541:O:4887"]

$$$$
4ag_Grossjean_2025
     RDKit          3D

 39 41  0  0  0  0  0  0  0  0999 V2000
  130.2040  120.2700   60.3730 C   0  0  0  0  0  0  0  0  0  0  0  0
  131.0010  121.3960   61.0040 C   0  0  0  0  0  0  0  0  0  0  0  0
  132.0890  121.9630   60.3420 C   0  0  0  0  0  0  0  0  0  0  0  0
  132.8100  123.0020   60.9420 C   0  0  0  0  0  0  0  0  0  0  0  0
  133.9880  123.5880   60.1790 C   0  0  0  0  0  0  0  0  0  0  0  0
  132.3940  123.4420   62.2270 C   0  0  0  0  0  0  0  0  0  0  0  0
  132.8930  124.4600   63.1110 C   0  0  0  0  0  0  0  0  0  0  0  0
  133.9740  125.2430   62.7920 N   0  0  0  0  0  0  0  0  0  0  0  0
  132.1790  124.5700   64.3130 C   0  0  0  0  0  0  0  0  0  0  0  0
  132.4040  125.4960   65.4220 C   0  0  0  0  0  0  0  0  0  0  0  0
  133.5020  125.5790   65.9770 O   0  0  0  0  0  0  0  0  0  0  0  0
  131.3400  126.2320   65.8070 N   0  0  0  0  0  0  0  0  0  0  0  0
  131.3440  127.2350   66.8710 C   0  0  0  0  0  0  0  0  0  0  0  0
  130.0800  127.2380   67.7230 C   0  0  0  0  0  0  0  0  0  0  0  0
  130.1810  127.2490   69.1180 C   0  0  0  0  0  0  0  0  0  0  0  0
  129.0290  127.2770   69.8990 C   0  0  0  0  0  0  0  0  0  0  0  0
  127.7790  127.3040   69.2830 C   0  0  0  0  0  0  0  0  0  0  0  0
  127.6710  127.3090   67.8950 C   0  0  0  0  0  0  0  0  0  0  0  0
  128.8230  127.2820   67.1130 C   0  0  0  0  0  0  0  0  0  0  0  0
  130.8500  123.4110   64.3760 S   0  0  0  0  0  0  0  0  0  0  0  0
  131.2650  122.7810   62.7980 C   0  0  0  0  0  0  0  0  0  0  0  0
  130.5750  121.7910   62.2280 N   0  0  0  0  0  0  0  0  0  0  0  0
  129.7621  119.6457   61.1636 H   0  0  0  0  0  0  0  0  0  0  0  0
  129.4029  120.6928   59.7489 H   0  0  0  0  0  0  0  0  0  0  0  0
  130.8691  119.6550   59.7489 H   0  0  0  0  0  0  0  0  0  0  0  0
  132.3810  121.5938   59.3478 H   0  0  0  0  0  0  0  0  0  0  0  0
  134.7378  123.9610   60.8922 H   0  0  0  0  0  0  0  0  0  0  0  0
  134.4391  122.8093   59.5465 H   0  0  0  0  0  0  0  0  0  0  0  0
  133.6391  124.4176   59.5465 H   0  0  0  0  0  0  0  0  0  0  0  0
  134.1900  125.4910   61.8370 H   0  0  0  0  0  0  0  0  0  0  0  0
  134.5910  125.6030   63.5080 H   0  0  0  0  0  0  0  0  0  0  0  0
  130.4880  126.1550   65.2710 H   0  0  0  0  0  0  0  0  0  0  0  0
  132.2040  127.0390   67.5282 H   0  0  0  0  0  0  0  0  0  0  0  0
  131.4012  128.2186   66.3818 H   0  0  0  0  0  0  0  0  0  0  0  0
  131.1707  127.2355   69.5979 H   0  0  0  0  0  0  0  0  0  0  0  0
  129.1048  127.2778   70.9964 H   0  0  0  0  0  0  0  0  0  0  0  0
  126.8684  127.3215   69.8999 H   0  0  0  0  0  0  0  0  0  0  0  0
  126.6801  127.3342   67.4181 H   0  0  0  0  0  0  0  0  0  0  0  0
  128.7439  127.2953   66.0159 H   0  0  0  0  0  0  0  0  0  0  0  0
  1  2  1  0
  2  3  2  0
  3  4  1  0
  4  5  1  0
  4  6  2  0
  6  7  1  0
  7  8  1  0
  7  9  2  0
  9 10  1  0
 10 11  2  0
 10 12  1  0
 12 13  1  0
 13 14  1  0
 14 15  2  0
 15 16  1  0
 16 17  2  0
 17 18  1  0
 18 19  2  0
  9 20  1  0
 20 21  1  0
 21 22  2  0
 22  2  1  0
 21  6  1  0
 19 14  1  0
  1 23  1  0
  1 24  1  0
  1 25  1  0
  3 26  1  0
  5 27  1  0
  5 28  1  0
  5 29  1  0
  8 30  1  0
  8 31  1  0
 12 32  1  0
 13 33  1  0
 13 34  1  0
 15 35  1  0
 16 36  1  0
 17 37  1  0
 18 38  1  0
 19 39  1  0
M  END
>  <Binding energies>  (1) 
[-7.0]

>  <Ligand effiencies>  (1) 
[-0.28]

>  <Interactions>  (1) 
["H-B:GLU:543:OE1:9881, V-A:TRP:381:CH2:3370, V-B:ALA:541:CB:9864, V-B:TYR:539:CE2:9848, V-A:LEU:475:CD2:4257, V-B:TYR:539:CD2:9846, V-A:GLU:543:CD:4906, V-B:GLU:543:CD:9880, H-B:GLU:543:OE2:9882, V-A:ARG:545:CZ:4924, H-A:GLU:543:OE2:4908, V-A:ARG:545:CD:4921, H-A:TYR:484:OH:4346, H-A:ARG:545:NE:4922, H-A:ASP:366:OD1:3212, V-A:ILE:369:CG2:3235, V-A:ILE:369:CD1:3237, V-B:HIS:456:CE1:9042, V-B:GLY:544:C:9884, V-A:HIS:456:CE1:4068, V-B:GLU:543:CG:9879, V-B:GLU:543:C:9874, V-A:ARG:545:CG:4920, V-A:GLY:453:CA:4042, V-A:GLY:453:C:4040, V-A:GLU:543:CG:4905, V-A:TYR:484:CZ:4345, V-B:ARG:545:CG:9894, V-B:GLU:543:CB:9878, V-A:GLU:543:C:4900, V-A:TYR:484:CE1:4343, H-A:HIS:456:ND1:4065"]

$$$$
4ah_Grossjean_2025
     RDKit          3D

 51 53  0  0  0  0  0  0  0  0999 V2000
  133.2340  132.3740   55.8710 C   0  0  0  0  0  0  0  0  0  0  0  0
  131.8700  132.7730   55.9430 O   0  0  0  0  0  0  0  0  0  0  0  0
  131.0390  132.1840   56.8810 C   0  0  0  0  0  0  0  0  0  0  0  0
  131.4730  131.7260   58.1350 C   0  0  0  0  0  0  0  0  0  0  0  0
  130.5780  131.1400   59.0300 C   0  0  0  0  0  0  0  0  0  0  0  0
  131.0590  130.6910   60.4060 C   0  0  0  0  0  0  0  0  0  0  0  0
  131.2820  129.2480   60.5060 N   0  0  0  0  0  0  0  0  0  0  0  0
  130.3130  128.3100   60.5700 C   0  0  0  0  0  0  0  0  0  0  0  0
  129.1140  128.5930   60.5880 O   0  0  0  0  0  0  0  0  0  0  0  0
  130.7690  126.9240   60.6600 C   0  0  0  0  0  0  0  0  0  0  0  0
  131.4330  126.1150   59.2380 S   0  0  0  0  0  0  0  0  0  0  0  0
  131.6570  124.6290   60.1340 C   0  0  0  0  0  0  0  0  0  0  0  0
  132.1740  123.5360   59.5720 N   0  0  0  0  0  0  0  0  0  0  0  0
  132.2960  122.4530   60.3760 C   0  0  0  0  0  0  0  0  0  0  0  0
  132.8840  121.2200   59.7150 C   0  0  0  0  0  0  0  0  0  0  0  0
  131.9190  122.4370   61.7160 C   0  0  0  0  0  0  0  0  0  0  0  0
  131.3740  123.5840   62.3050 C   0  0  0  0  0  0  0  0  0  0  0  0
  130.9760  123.5170   63.7720 C   0  0  0  0  0  0  0  0  0  0  0  0
  131.2280  124.7410   61.4920 C   0  0  0  0  0  0  0  0  0  0  0  0
  130.7150  126.0570   61.7610 C   0  0  0  0  0  0  0  0  0  0  0  0
  130.2290  126.4180   62.9920 N   0  0  0  0  0  0  0  0  0  0  0  0
  129.2300  131.0340   58.6860 C   0  0  0  0  0  0  0  0  0  0  0  0
  128.7690  131.4780   57.4380 C   0  0  0  0  0  0  0  0  0  0  0  0
  127.4510  131.3900   57.0250 O   0  0  0  0  0  0  0  0  0  0  0  0
  126.6600  130.2840   57.4490 C   0  0  0  0  0  0  0  0  0  0  0  0
  129.6850  132.0460   56.5410 C   0  0  0  0  0  0  0  0  0  0  0  0
  129.2440  132.5020   55.3220 O   0  0  0  0  0  0  0  0  0  0  0  0
  129.4460  131.5860   54.2540 C   0  0  0  0  0  0  0  0  0  0  0  0
  133.6358  132.2565   56.8882 H   0  0  0  0  0  0  0  0  0  0  0  0
  133.3081  131.4165   55.3346 H   0  0  0  0  0  0  0  0  0  0  0  0
  133.8124  133.1406   55.3346 H   0  0  0  0  0  0  0  0  0  0  0  0
  132.5316  131.8305   58.4151 H   0  0  0  0  0  0  0  0  0  0  0  0
  132.0054  131.2055   60.6287 H   0  0  0  0  0  0  0  0  0  0  0  0
  130.2657  130.9456   61.1242 H   0  0  0  0  0  0  0  0  0  0  0  0
  132.2380  128.9400   60.4120 H   0  0  0  0  0  0  0  0  0  0  0  0
  133.2205  120.5144   60.4888 H   0  0  0  0  0  0  0  0  0  0  0  0
  132.1182  120.7393   59.0885 H   0  0  0  0  0  0  0  0  0  0  0  0
  133.7395  121.5126   59.0885 H   0  0  0  0  0  0  0  0  0  0  0  0
  132.0495  121.5221   62.3126 H   0  0  0  0  0  0  0  0  0  0  0  0
  131.8662  123.6668   64.4006 H   0  0  0  0  0  0  0  0  0  0  0  0
  130.2380  124.3035   63.9880 H   0  0  0  0  0  0  0  0  0  0  0  0
  130.5362  122.5322   63.9880 H   0  0  0  0  0  0  0  0  0  0  0  0
  130.6010  127.2040   63.5030 H   0  0  0  0  0  0  0  0  0  0  0  0
  129.4800  125.9000   63.4310 H   0  0  0  0  0  0  0  0  0  0  0  0
  128.5196  130.5965   59.4029 H   0  0  0  0  0  0  0  0  0  0  0  0
  126.6360  130.2504   58.5482 H   0  0  0  0  0  0  0  0  0  0  0  0
  125.6360  130.3962   57.0631 H   0  0  0  0  0  0  0  0  0  0  0  0
  127.0971  129.3512   57.0631 H   0  0  0  0  0  0  0  0  0  0  0  0
  129.6659  130.5888   54.6629 H   0  0  0  0  0  0  0  0  0  0  0  0
  128.5371  131.5368   53.6363 H   0  0  0  0  0  0  0  0  0  0  0  0
  130.2913  131.9236   53.6363 H   0  0  0  0  0  0  0  0  0  0  0  0
  1  2  1  0
  2  3  1  0
  3  4  2  0
  4  5  1  0
  5  6  1  0
  6  7  1  0
  7  8  1  0
  8  9  2  0
  8 10  1  0
 10 11  1  0
 11 12  1  0
 12 13  2  0
 13 14  1  0
 14 15  1  0
 14 16  2  0
 16 17  1  0
 17 18  1  0
 17 19  2  0
 19 20  1  0
 20 21  1  0
  5 22  2  0
 22 23  1  0
 23 24  1  0
 24 25  1  0
 23 26  2  0
 26 27  1  0
 27 28  1  0
 26  3  1  0
 20 10  2  0
 19 12  1  0
  1 29  1  0
  1 30  1  0
  1 31  1  0
  4 32  1  0
  6 33  1  0
  6 34  1  0
  7 35  1  0
 15 36  1  0
 15 37  1  0
 15 38  1  0
 16 39  1  0
 18 40  1  0
 18 41  1  0
 18 42  1  0
 21 43  1  0
 21 44  1  0
 22 45  1  0
 25 46  1  0
 25 47  1  0
 25 48  1  0
 28 49  1  0
 28 50  1  0
 28 51  1  0
M  END
>  <Binding energies>  (1) 
[-7.22]

>  <Ligand effiencies>  (1) 
[-0.2329032258064516]

>  <Interactions>  (1) 
["H-B:GLU:543:OE1:9881, V-A:TRP:381:CH2:3370, V-B:TYR:539:CE2:9848, V-A:LEU:475:CD2:4257, V-B:TYR:539:CD2:9846, V-A:ASP:366:CG:3211, V-A:PRO:540:N:4882, H-A:TYR:539:N:4868, V-A:ILE:538:CA:4858, V-A:TYR:539:CZ:4875, V-A:TYR:531:CE2:4791, V-A:TYR:539:C:4865, V-A:LEU:363:CD1:3187, V-A:ILE:538:CB:4860, V-A:PRO:540:CA:4881, V-A:ILE:538:CG2:4861, V-A:GLU:543:CD:4906, V-A:PRO:540:CB:4883, V-B:GLU:543:CD:9880, H-B:GLU:543:OE2:9882, H-A:GLU:543:OE2:4908, H-A:GLU:543:OE1:4907, H-A:ASP:366:OD2:3213, V-A:PRO:540:CD:4885, V-A:TYR:539:CE2:4874, H-A:TYR:539:OH:4876, H-A:ASP:366:OD1:3212, V-A:ILE:369:CG2:3235, V-A:PRO:540:CG:4884"]

$$$$
4ai_Grossjean_2025
     RDKit          3D

 32 34  0  0  0  0  0  0  0  0999 V2000
  124.7910  123.4610   55.7550 C   0  0  0  0  0  0  0  0  0  0  0  0
  125.4840  123.5790   57.1000 C   0  0  0  0  0  0  0  0  0  0  0  0
  124.7560  123.8310   58.2620 C   0  0  0  0  0  0  0  0  0  0  0  0
  125.4150  123.9290   59.4920 C   0  0  0  0  0  0  0  0  0  0  0  0
  124.5770  124.2030   60.7320 C   0  0  0  0  0  0  0  0  0  0  0  0
  126.8270  123.7640   59.5040 C   0  0  0  0  0  0  0  0  0  0  0  0
  127.7980  123.8000   60.5640 C   0  0  0  0  0  0  0  0  0  0  0  0
  127.4480  124.0340   61.8700 N   0  0  0  0  0  0  0  0  0  0  0  0
  129.1160  123.5690   60.1390 C   0  0  0  0  0  0  0  0  0  0  0  0
  130.3410  123.5450   60.9400 C   0  0  0  0  0  0  0  0  0  0  0  0
  131.3190  122.8900   60.5750 O   0  0  0  0  0  0  0  0  0  0  0  0
  130.3100  124.2950   62.0710 N   0  0  0  0  0  0  0  0  0  0  0  0
  131.3270  124.4600   63.0020 C   0  0  0  0  0  0  0  0  0  0  0  0
  131.1210  125.0120   64.2660 C   0  0  0  0  0  0  0  0  0  0  0  0
  132.3580  125.0030   64.8680 C   0  0  0  0  0  0  0  0  0  0  0  0
  133.2630  124.4730   64.0110 O   0  0  0  0  0  0  0  0  0  0  0  0
  132.5980  124.1310   62.8330 N   0  0  0  0  0  0  0  0  0  0  0  0
  129.1870  123.3240   58.3920 S   0  0  0  0  0  0  0  0  0  0  0  0
  127.4540  123.5100   58.2470 C   0  0  0  0  0  0  0  0  0  0  0  0
  126.8290  123.4170   57.0720 N   0  0  0  0  0  0  0  0  0  0  0  0
  123.7175  123.2782   55.9104 H   0  0  0  0  0  0  0  0  0  0  0  0
  124.9258  124.3950   55.1898 H   0  0  0  0  0  0  0  0  0  0  0  0
  125.2274  122.6242   55.1898 H   0  0  0  0  0  0  0  0  0  0  0  0
  123.6639  123.9527   58.2116 H   0  0  0  0  0  0  0  0  0  0  0  0
  125.1784  124.0064   61.6318 H   0  0  0  0  0  0  0  0  0  0  0  0
  124.2525  125.2540   60.7303 H   0  0  0  0  0  0  0  0  0  0  0  0
  123.6942  123.5467   60.7303 H   0  0  0  0  0  0  0  0  0  0  0  0
  127.3810  124.9700   62.2440 H   0  0  0  0  0  0  0  0  0  0  0  0
  127.2510  123.2730   62.5050 H   0  0  0  0  0  0  0  0  0  0  0  0
  129.4590  124.8010   62.2630 H   0  0  0  0  0  0  0  0  0  0  0  0
  130.1737  125.3761   64.6902 H   0  0  0  0  0  0  0  0  0  0  0  0
  132.5769  125.3677   65.8824 H   0  0  0  0  0  0  0  0  0  0  0  0
  1  2  1  0
  2  3  2  0
  3  4  1  0
  4  5  1  0
  4  6  2  0
  6  7  1  0
  7  8  1  0
  7  9  2  0
  9 10  1  0
 10 11  2  0
 10 12  1  0
 12 13  1  0
 13 14  1  0
 14 15  2  0
 15 16  1  0
 16 17  1  0
  9 18  1  0
 18 19  1  0
 19 20  2  0
 20  2  1  0
 19  6  1  0
 17 13  2  0
  1 21  1  0
  1 22  1  0
  1 23  1  0
  3 24  1  0
  5 25  1  0
  5 26  1  0
  5 27  1  0
  8 28  1  0
  8 29  1  0
 12 30  1  0
 14 31  1  0
 15 32  1  0
M  END
>  <Binding energies>  (1) 
[-6.9]

>  <Ligand effiencies>  (1) 
[-0.3]

>  <Interactions>  (1) 
["V-B:PRO:540:N:9856, H-B:GLU:543:OE1:9881, V-B:ALA:541:CB:9864, V-B:ASP:366:CG:8185, V-B:PRO:540:CB:9857, V-B:PRO:540:CA:9855, V-B:TYR:539:CE2:9848, V-B:TYR:539:CD2:9846, V-B:TYR:531:CE2:9765, V-B:TYR:531:CZ:9766, V-B:ASN:362:CB:8148, V-B:GLU:543:CD:9880, V-B:TYR:539:C:9839, V-B:ILE:538:CG2:9835, V-B:PRO:540:CD:9859, V-B:ILE:538:CB:9834, H-B:GLU:543:OE2:9882, V-A:ARG:545:CZ:4924, H-A:TYR:484:OH:4346, H-A:GLY:454:N:4048, V-A:HIS:456:CE1:4068, H-B:ALA:541:O:9861"]

$$$$
4aj_Grossjean_2025
     RDKit          3D

 32 34  0  0  0  0  0  0  0  0999 V2000
  126.1020  116.5760   70.8750 C   0  0  0  0  0  0  0  0  0  0  0  0
  126.8760  117.5320   71.7650 C   0  0  0  0  0  0  0  0  0  0  0  0
  127.2120  117.1830   73.0710 C   0  0  0  0  0  0  0  0  0  0  0  0
  127.9210  118.0820   73.8750 C   0  0  0  0  0  0  0  0  0  0  0  0
  128.2630  117.6540   75.2940 C   0  0  0  0  0  0  0  0  0  0  0  0
  128.2770  119.3370   73.3130 C   0  0  0  0  0  0  0  0  0  0  0  0
  128.9870  120.4700   73.8430 C   0  0  0  0  0  0  0  0  0  0  0  0
  129.4750  120.4950   75.1240 N   0  0  0  0  0  0  0  0  0  0  0  0
  129.1330  121.5270   72.9320 C   0  0  0  0  0  0  0  0  0  0  0  0
  129.7850  122.8230   73.1360 C   0  0  0  0  0  0  0  0  0  0  0  0
  129.2760  123.8590   72.7040 O   0  0  0  0  0  0  0  0  0  0  0  0
  130.9500  122.7850   73.8290 N   0  0  0  0  0  0  0  0  0  0  0  0
  131.7540  123.8650   74.1670 C   0  0  0  0  0  0  0  0  0  0  0  0
  131.5010  125.1450   73.9970 N   0  0  0  0  0  0  0  0  0  0  0  0
  132.4890  125.8980   74.4400 C   0  0  0  0  0  0  0  0  0  0  0  0
  133.5790  125.2240   74.9850 C   0  0  0  0  0  0  0  0  0  0  0  0
  133.2810  123.5130   74.9090 S   0  0  0  0  0  0  0  0  0  0  0  0
  128.3730  121.1460   71.3860 S   0  0  0  0  0  0  0  0  0  0  0  0
  127.8760  119.5720   71.9630 C   0  0  0  0  0  0  0  0  0  0  0  0
  127.2000  118.7180   71.1940 N   0  0  0  0  0  0  0  0  0  0  0  0
  125.5325  115.8726   71.5003 H   0  0  0  0  0  0  0  0  0  0  0  0
  125.4083  117.1465   70.2400 H   0  0  0  0  0  0  0  0  0  0  0  0
  126.8044  116.0162   70.2400 H   0  0  0  0  0  0  0  0  0  0  0  0
  126.9199  116.2005   73.4702 H   0  0  0  0  0  0  0  0  0  0  0  0
  127.7415  118.3067   76.0096 H   0  0  0  0  0  0  0  0  0  0  0  0
  127.9458  116.6122   75.4493 H   0  0  0  0  0  0  0  0  0  0  0  0
  129.3491  117.7336   75.4493 H   0  0  0  0  0  0  0  0  0  0  0  0
  128.8640  120.5290   75.9270 H   0  0  0  0  0  0  0  0  0  0  0  0
  130.4680  120.4820   75.3090 H   0  0  0  0  0  0  0  0  0  0  0  0
  131.2740  121.8810   74.1420 H   0  0  0  0  0  0  0  0  0  0  0  0
  132.4541  126.9959   74.3823 H   0  0  0  0  0  0  0  0  0  0  0  0
  134.4823  125.6976   75.3969 H   0  0  0  0  0  0  0  0  0  0  0  0
  1  2  1  0
  2  3  2  0
  3  4  1  0
  4  5  1  0
  4  6  2  0
  6  7  1  0
  7  8  1  0
  7  9  2  0
  9 10  1  0
 10 11  2  0
 10 12  1  0
 12 13  1  0
 13 14  2  0
 14 15  1  0
 15 16  2  0
 16 17  1  0
  9 18  1  0
 18 19  1  0
 19 20  2  0
 20  2  1  0
 19  6  1  0
 17 13  1  0
  1 21  1  0
  1 22  1  0
  1 23  1  0
  3 24  1  0
  5 25  1  0
  5 26  1  0
  5 27  1  0
  8 28  1  0
  8 29  1  0
 12 30  1  0
 15 31  1  0
 16 32  1  0
M  END
>  <Binding energies>  (1) 
[-6.75]

>  <Ligand effiencies>  (1) 
[-0.29347826086956524]

>  <Interactions>  (1) 
["V-A:LYS:471:CE:4218, V-A:HIS:456:CB:4063, V-A:HIS:456:CD2:4066, V-A:VAL:458:CG2:4085, V-A:HIS:456:CG:4064, V-A:HIS:456:C:4059, V-A:ASP:473:CG:4238, V-A:LYS:471:CD:4217, H-B:LYS:547:NZ:9923, V-B:LYS:547:CE:9922, V-B:GLY:544:CA:9886, V-B:GLU:543:C:9874, V-A:TYR:484:CG:4340, V-A:TYR:484:CB:4339, V-B:VAL:542:CG1:9871, V-B:GLU:543:CA:9876, V-A:TYR:484:CD1:4341, H-A:ASP:473:OD2:4240, H-A:TYR:484:N:4338, V-A:SER:483:CB:4331"]

$$$$
4ak_Grossjean_2025
     RDKit          3D

 50 51  0  0  0  0  0  0  0  0999 V2000
  132.5320  125.6630   56.2550 C   0  0  0  0  0  0  0  0  0  0  0  0
  131.6080  125.9950   55.2310 O   0  0  0  0  0  0  0  0  0  0  0  0
  130.3590  125.3260   55.3560 C   0  0  0  0  0  0  0  0  0  0  0  0
  130.0000  124.6590   54.0220 C   0  0  0  0  0  0  0  0  0  0  0  0
  128.6060  124.8000   53.7850 O   0  0  0  0  0  0  0  0  0  0  0  0
  127.8610  123.6120   54.0190 C   0  0  0  0  0  0  0  0  0  0  0  0
  126.4840  123.9800   54.5840 C   0  0  0  0  0  0  0  0  0  0  0  0
  126.0680  122.9760   55.4990 O   0  0  0  0  0  0  0  0  0  0  0  0
  124.8250  123.2520   56.1300 C   0  0  0  0  0  0  0  0  0  0  0  0
  125.0510  123.4400   57.6410 C   0  0  0  0  0  0  0  0  0  0  0  0
  126.4630  123.4810   58.0220 N   0  0  0  0  0  0  0  0  0  0  0  0
  126.9290  123.5230   59.2860 C   0  0  0  0  0  0  0  0  0  0  0  0
  126.1820  123.5100   60.2660 O   0  0  0  0  0  0  0  0  0  0  0  0
  128.3820  123.5770   59.4340 C   0  0  0  0  0  0  0  0  0  0  0  0
  129.4190  123.6730   58.0110 S   0  0  0  0  0  0  0  0  0  0  0  0
  130.8580  123.7080   59.0050 C   0  0  0  0  0  0  0  0  0  0  0  0
  132.0800  123.7770   58.4750 N   0  0  0  0  0  0  0  0  0  0  0  0
  133.1100  123.7950   59.3560 C   0  0  0  0  0  0  0  0  0  0  0  0
  134.4920  123.8760   58.7340 C   0  0  0  0  0  0  0  0  0  0  0  0
  132.9480  123.7480   60.7390 C   0  0  0  0  0  0  0  0  0  0  0  0
  131.6640  123.6750   61.2920 C   0  0  0  0  0  0  0  0  0  0  0  0
  131.5390  123.6210   62.8070 C   0  0  0  0  0  0  0  0  0  0  0  0
  130.5590  123.6530   60.4000 C   0  0  0  0  0  0  0  0  0  0  0  0
  129.1390  123.5850   60.6170 C   0  0  0  0  0  0  0  0  0  0  0  0
  128.5910  123.5300   61.8730 N   0  0  0  0  0  0  0  0  0  0  0  0
  132.0663  125.8303   57.2374 H   0  0  0  0  0  0  0  0  0  0  0  0
  132.8194  124.6054   56.1608 H   0  0  0  0  0  0  0  0  0  0  0  0
  133.4268  126.2959   56.1608 H   0  0  0  0  0  0  0  0  0  0  0  0
  130.4308  124.5594   56.1416 H   0  0  0  0  0  0  0  0  0  0  0  0
  129.5787  126.0536   55.6237 H   0  0  0  0  0  0  0  0  0  0  0  0
  130.5614  125.1406   53.2079 H   0  0  0  0  0  0  0  0  0  0  0  0
  130.2600  123.5910   54.0630 H   0  0  0  0  0  0  0  0  0  0  0  0
  127.7357  123.0646   53.0731 H   0  0  0  0  0  0  0  0  0  0  0  0
  128.3971  122.9770   54.7396 H   0  0  0  0  0  0  0  0  0  0  0  0
  126.5467  124.9475   55.1037 H   0  0  0  0  0  0  0  0  0  0  0  0
  125.7564  124.0538   53.7623 H   0  0  0  0  0  0  0  0  0  0  0  0
  124.3939  124.1709   55.7060 H   0  0  0  0  0  0  0  0  0  0  0  0
  124.1332  122.4133   55.9629 H   0  0  0  0  0  0  0  0  0  0  0  0
  124.5805  124.3858   57.9479 H   0  0  0  0  0  0  0  0  0  0  0  0
  124.6065  122.5687   58.1442 H   0  0  0  0  0  0  0  0  0  0  0  0
  127.1300  123.4870   57.2620 H   0  0  0  0  0  0  0  0  0  0  0  0
  135.2502  123.9204   59.5297 H   0  0  0  0  0  0  0  0  0  0  0  0
  134.6663  122.9865   58.1107 H   0  0  0  0  0  0  0  0  0  0  0  0
  134.5612  124.7797   58.1107 H   0  0  0  0  0  0  0  0  0  0  0  0
  133.8295  123.7683   61.3967 H   0  0  0  0  0  0  0  0  0  0  0  0
  132.4571  124.0176   63.2650 H   0  0  0  0  0  0  0  0  0  0  0  0
  130.6786  124.2277   63.1258 H   0  0  0  0  0  0  0  0  0  0  0  0
  131.3909  122.5787   63.1258 H   0  0  0  0  0  0  0  0  0  0  0  0
  129.1640  123.4940   62.7040 H   0  0  0  0  0  0  0  0  0  0  0  0
  127.5900  123.5260   62.0090 H   0  0  0  0  0  0  0  0  0  0  0  0
  1  2  1  0
  2  3  1  0
  3  4  1  0
  4  5  1  0
  5  6  1  0
  6  7  1  0
  7  8  1  0
  8  9  1  0
  9 10  1  0
 10 11  1  0
 11 12  1  0
 12 13  2  0
 12 14  1  0
 14 15  1  0
 15 16  1  0
 16 17  2  0
 17 18  1  0
 18 19  1  0
 18 20  2  0
 20 21  1  0
 21 22  1  0
 21 23  2  0
 23 24  1  0
 24 25  1  0
 24 14  2  0
 23 16  1  0
  1 26  1  0
  1 27  1  0
  1 28  1  0
  3 29  1  0
  3 30  1  0
  4 31  1  0
  4 32  1  0
  6 33  1  0
  6 34  1  0
  7 35  1  0
  7 36  1  0
  9 37  1  0
  9 38  1  0
 10 39  1  0
 10 40  1  0
 11 41  1  0
 19 42  1  0
 19 43  1  0
 19 44  1  0
 20 45  1  0
 22 46  1  0
 22 47  1  0
 22 48  1  0
 25 49  1  0
 25 50  1  0
M  END
>  <Binding energies>  (1) 
[-6.06]

>  <Ligand effiencies>  (1) 
[-0.21642857142857141]

>  <Interactions>  (1) 
["V-B:PRO:540:N:9856, H-B:GLU:543:OE1:9881, V-B:TYR:539:CZ:9849, V-B:ILE:538:CA:9832, V-B:ALA:541:CB:9864, V-B:PRO:540:CB:9857, V-B:PRO:540:CA:9855, H-B:ALA:541:N:9863, V-B:TYR:539:CE2:9848, V-B:TYR:539:CE1:9847, V-B:TYR:539:CD1:9845, V-B:TYR:539:CD2:9846, V-A:ASP:366:CG:3211, H-A:TYR:531:OH:4793, V-A:ASP:366:CB:3210, V-A:TYR:531:CZ:4792, V-B:TYR:531:CE2:9765, H-B:TYR:539:N:9842, V-B:GLU:543:CD:9880, V-B:TYR:539:C:9839, V-B:ILE:538:CG2:9835, V-B:PRO:540:CD:9859, V-B:ILE:538:CB:9834, V-B:PRO:540:CG:9858, H-B:TYR:539:OH:9850, V-A:ILE:369:CB:3234, V-A:ILE:369:CG2:3235, V-A:ILE:369:CD1:3237, V-A:TYR:531:CE1:4790, V-A:ASP:366:CA:3208, V-B:MET:535:CG:9805, V-A:ASP:366:C:3206, V-A:ILE:369:CG1:3236"]

$$$$
4al_Grossjean_2025
     RDKit          3D

 28 29  0  0  0  0  0  0  0  0999 V2000
  129.7100  128.8040   61.5030 C   0  0  0  0  0  0  0  0  0  0  0  0
  130.9200  129.5300   61.6500 O   0  0  0  0  0  0  0  0  0  0  0  0
  130.9730  130.8600   61.3760 C   0  0  0  0  0  0  0  0  0  0  0  0
  131.0950  131.7370   62.2350 O   0  0  0  0  0  0  0  0  0  0  0  0
  130.8700  131.1540   59.9300 C   0  0  0  0  0  0  0  0  0  0  0  0
  129.2860  131.4130   59.1950 S   0  0  0  0  0  0  0  0  0  0  0  0
  130.0130  131.6730   57.6250 C   0  0  0  0  0  0  0  0  0  0  0  0
  129.2790  131.9400   56.5450 N   0  0  0  0  0  0  0  0  0  0  0  0
  129.9640  132.1210   55.3880 C   0  0  0  0  0  0  0  0  0  0  0  0
  129.1100  132.4230   54.1710 C   0  0  0  0  0  0  0  0  0  0  0  0
  131.3520  132.0410   55.2900 C   0  0  0  0  0  0  0  0  0  0  0  0
  132.1190  131.7610   56.4260 C   0  0  0  0  0  0  0  0  0  0  0  0
  133.6290  131.6850   56.2690 C   0  0  0  0  0  0  0  0  0  0  0  0
  131.4350  131.5660   57.6560 C   0  0  0  0  0  0  0  0  0  0  0  0
  131.8950  131.2690   58.9840 C   0  0  0  0  0  0  0  0  0  0  0  0
  133.2230  131.1140   59.2880 N   0  0  0  0  0  0  0  0  0  0  0  0
  129.3051  128.5611   62.4965 H   0  0  0  0  0  0  0  0  0  0  0  0
  128.9813  129.4142   60.9493 H   0  0  0  0  0  0  0  0  0  0  0  0
  129.9054  127.8739   60.9493 H   0  0  0  0  0  0  0  0  0  0  0  0
  128.1193  132.7734   54.4961 H   0  0  0  0  0  0  0  0  0  0  0  0
  129.5952  133.2041   53.5673 H   0  0  0  0  0  0  0  0  0  0  0  0
  128.9963  131.5105   53.5673 H   0  0  0  0  0  0  0  0  0  0  0  0
  131.8446  132.1981   54.3191 H   0  0  0  0  0  0  0  0  0  0  0  0
  134.1002  131.6613   57.2627 H   0  0  0  0  0  0  0  0  0  0  0  0
  133.8946  130.7723   55.7154 H   0  0  0  0  0  0  0  0  0  0  0  0
  133.9849  132.5664   55.7154 H   0  0  0  0  0  0  0  0  0  0  0  0
  133.7210  131.7770   59.8650 H   0  0  0  0  0  0  0  0  0  0  0  0
  133.7530  130.3250   58.9420 H   0  0  0  0  0  0  0  0  0  0  0  0
  1  2  1  0
  2  3  1  0
  3  4  2  0
  3  5  1  0
  5  6  1  0
  6  7  1  0
  7  8  2  0
  8  9  1  0
  9 10  1  0
  9 11  2  0
 11 12  1  0
 12 13  1  0
 12 14  2  0
 14 15  1  0
 15 16  1  0
 15  5  2  0
 14  7  1  0
  1 17  1  0
  1 18  1  0
  1 19  1  0
 10 20  1  0
 10 21  1  0
 10 22  1  0
 11 23  1  0
 13 24  1  0
 13 25  1  0
 13 26  1  0
 16 27  1  0
 16 28  1  0
M  END
>  <Binding energies>  (1) 
[-5.86]

>  <Ligand effiencies>  (1) 
[-0.3255555555555556]

>  <Interactions>  (1) 
["V-A:TYR:539:CE1:4873, V-A:ASP:366:CG:3211, V-A:PRO:540:N:4882, V-A:ILE:538:CA:4858, V-A:TYR:531:CE2:4791, V-A:LEU:363:CA:3183, V-A:TYR:539:C:4865, V-A:LEU:363:CD1:3187, V-A:ILE:538:CB:4860, V-A:PRO:540:CA:4881, V-A:ILE:538:CG2:4861, V-A:TYR:531:CZ:4792, V-A:GLU:543:CD:4906, V-A:PRO:540:CB:4883, H-A:ALA:541:N:4889, H-A:ASP:366:OD2:3213, V-A:PRO:540:CD:4885, V-A:ILE:538:C:4856, H-A:ARG:545:NH2:4926, V-A:TYR:539:CD1:4871, H-A:ASN:362:O:3171, V-A:VAL:537:C:4848"]

$$$$
4ba_Grossjean_2025
     RDKit          3D

 44 46  0  0  0  0  0  0  0  0999 V2000
  130.1080  127.2720   72.5830 C   0  0  0  0  0  0  0  0  0  0  0  0
  129.3780  128.4290   71.8750 C   0  0  0  0  0  0  0  0  0  0  0  0
  128.4300  128.0040   70.7350 C   0  0  0  0  0  0  0  0  0  0  0  0
  127.2120  128.0040   70.9260 O   0  0  0  0  0  0  0  0  0  0  0  0
  129.0480  127.6100   69.4250 C   0  0  0  0  0  0  0  0  0  0  0  0
  128.2220  127.2120   68.3660 C   0  0  0  0  0  0  0  0  0  0  0  0
  128.7680  126.8400   67.1420 C   0  0  0  0  0  0  0  0  0  0  0  0
  130.1500  126.8620   66.9470 C   0  0  0  0  0  0  0  0  0  0  0  0
  130.5950  126.4590   65.6730 N   0  0  0  0  0  0  0  0  0  0  0  0
  131.7220  125.7970   65.3130 C   0  0  0  0  0  0  0  0  0  0  0  0
  132.6090  125.4620   66.0990 O   0  0  0  0  0  0  0  0  0  0  0  0
  131.8480  125.5110   63.8820 C   0  0  0  0  0  0  0  0  0  0  0  0
  133.2440  124.6240   63.2750 S   0  0  0  0  0  0  0  0  0  0  0  0
  132.6750  124.7640   61.6280 C   0  0  0  0  0  0  0  0  0  0  0  0
  133.3620  124.2460   60.6110 N   0  0  0  0  0  0  0  0  0  0  0  0
  132.8230  124.4180   59.3820 C   0  0  0  0  0  0  0  0  0  0  0  0
  133.6260  123.8290   58.2360 C   0  0  0  0  0  0  0  0  0  0  0  0
  131.6230  125.0840   59.1500 C   0  0  0  0  0  0  0  0  0  0  0  0
  130.8940  125.6310   60.2180 C   0  0  0  0  0  0  0  0  0  0  0  0
  129.5780  126.3540   59.9130 C   0  0  0  0  0  0  0  0  0  0  0  0
  129.5610  127.6150   60.3480 F   0  0  0  0  0  0  0  0  0  0  0  0
  129.3720  126.3830   58.5960 F   0  0  0  0  0  0  0  0  0  0  0  0
  128.5660  125.7150   60.5020 F   0  0  0  0  0  0  0  0  0  0  0  0
  131.4390  125.4720   61.5270 C   0  0  0  0  0  0  0  0  0  0  0  0
  130.9960  125.8960   62.8330 C   0  0  0  0  0  0  0  0  0  0  0  0
  129.8400  126.6100   63.0270 N   0  0  0  0  0  0  0  0  0  0  0  0
  130.9850  127.2540   68.0040 C   0  0  0  0  0  0  0  0  0  0  0  0
  130.4370  127.6250   69.2290 C   0  0  0  0  0  0  0  0  0  0  0  0
  130.0274  127.3997   73.6726 H   0  0  0  0  0  0  0  0  0  0  0  0
  129.6494  126.3158   72.2910 H   0  0  0  0  0  0  0  0  0  0  0  0
  131.1685  127.2743   72.2910 H   0  0  0  0  0  0  0  0  0  0  0  0
  128.7851  128.9693   72.6277 H   0  0  0  0  0  0  0  0  0  0  0  0
  130.1607  129.0456   71.4089 H   0  0  0  0  0  0  0  0  0  0  0  0
  127.1308  127.1935   68.5037 H   0  0  0  0  0  0  0  0  0  0  0  0
  128.1058  126.5262   66.3216 H   0  0  0  0  0  0  0  0  0  0  0  0
  129.9770  126.7210   64.9200 H   0  0  0  0  0  0  0  0  0  0  0  0
  134.4511  123.2238   58.6395 H   0  0  0  0  0  0  0  0  0  0  0  0
  132.9731  123.1940   57.6191 H   0  0  0  0  0  0  0  0  0  0  0  0
  134.0355  124.6425   57.6191 H   0  0  0  0  0  0  0  0  0  0  0  0
  131.2430  125.1825   58.1224 H   0  0  0  0  0  0  0  0  0  0  0  0
  128.9350  126.1630   63.0640 H   0  0  0  0  0  0  0  0  0  0  0  0
  129.8550  127.6150   63.1320 H   0  0  0  0  0  0  0  0  0  0  0  0
  132.0760  127.2683   67.8645 H   0  0  0  0  0  0  0  0  0  0  0  0
  131.0997  127.9329   70.0512 H   0  0  0  0  0  0  0  0  0  0  0  0
  1  2  1  0
  2  3  1  0
  3  4  2  0
  3  5  1  0
  5  6  2  0
  6  7  1  0
  7  8  2  0
  8  9  1  0
  9 10  1  0
 10 11  2  0
 10 12  1  0
 12 13  1  0
 13 14  1  0
 14 15  2  0
 15 16  1  0
 16 17  1  0
 16 18  2  0
 18 19  1  0
 19 20  1  0
 20 21  1  0
 20 22  1  0
 20 23  1  0
 19 24  2  0
 24 25  1  0
 25 26  1  0
  8 27  1  0
 27 28  2  0
 28  5  1  0
 25 12  2  0
 24 14  1  0
  1 29  1  0
  1 30  1  0
  1 31  1  0
  2 32  1  0
  2 33  1  0
  6 34  1  0
  7 35  1  0
  9 36  1  0
 17 37  1  0
 17 38  1  0
 17 39  1  0
 18 40  1  0
 26 41  1  0
 26 42  1  0
 27 43  1  0
 28 44  1  0
M  END
>  <Binding energies>  (1) 
[-7.16]

>  <Ligand effiencies>  (1) 
[-0.2309677419354839]

>  <Interactions>  (1) 
["H-B:GLU:543:OE1:9881, V-B:TYR:539:CZ:9849, V-B:TYR:539:CE2:9848, V-A:ASP:366:CG:3211, V-A:ASP:366:CB:3210, V-A:GLU:543:CD:4906, V-B:GLU:543:CD:9880, H-B:GLU:543:OE2:9882, V-A:ARG:545:CZ:4924, H-A:GLU:543:OE2:4908, H-A:GLU:543:OE1:4907, V-A:ARG:545:CD:4921, H-A:TYR:484:OH:4346, H-A:ARG:545:NE:4922, V-A:ILE:369:CB:3234, V-A:ILE:369:CG2:3235, V-A:ASP:366:CA:3208, V-B:HIS:456:CE1:9042, V-B:HIS:456:CD2:9040, V-A:LYS:547:CE:4948, V-A:HIS:456:CE1:4068, V-A:GLY:544:C:4910, V-B:GLU:543:CG:9879, V-B:GLU:543:C:9874, V-A:ARG:545:CG:4920, V-A:GLU:543:CG:4905, V-B:GLU:543:CB:9878, V-A:GLY:544:CA:4912, V-A:GLU:543:C:4900, H-A:HIS:456:ND1:4065, H-B:HIS:456:ND1:9039"]

$$$$
4bb_Grossjean_2025
     RDKit          3D

 41 43  0  0  0  0  0  0  0  0999 V2000
  129.0120  128.6030   72.1800 C   0  0  0  0  0  0  0  0  0  0  0  0
  128.0840  128.0910   71.0760 C   0  0  0  0  0  0  0  0  0  0  0  0
  126.8760  128.0370   71.3120 O   0  0  0  0  0  0  0  0  0  0  0  0
  128.6940  127.6730   69.7710 C   0  0  0  0  0  0  0  0  0  0  0  0
  127.8600  127.3280   68.7010 C   0  0  0  0  0  0  0  0  0  0  0  0
  128.4000  126.9360   67.4800 C   0  0  0  0  0  0  0  0  0  0  0  0
  129.7840  126.8890   67.3020 C   0  0  0  0  0  0  0  0  0  0  0  0
  130.2240  126.4760   66.0290 N   0  0  0  0  0  0  0  0  0  0  0  0
  130.5950  125.2490   65.5910 C   0  0  0  0  0  0  0  0  0  0  0  0
  130.6320  124.2430   66.3000 O   0  0  0  0  0  0  0  0  0  0  0  0
  130.9940  125.1830   64.1820 C   0  0  0  0  0  0  0  0  0  0  0  0
  132.2750  124.0850   63.6740 S   0  0  0  0  0  0  0  0  0  0  0  0
  132.1490  124.6300   62.0170 C   0  0  0  0  0  0  0  0  0  0  0  0
  132.9240  124.1260   61.0590 N   0  0  0  0  0  0  0  0  0  0  0  0
  132.7350  124.6270   59.8170 C   0  0  0  0  0  0  0  0  0  0  0  0
  133.6270  124.0380   58.7390 C   0  0  0  0  0  0  0  0  0  0  0  0
  131.7980  125.6110   59.5130 C   0  0  0  0  0  0  0  0  0  0  0  0
  130.9780  126.1460   60.5190 C   0  0  0  0  0  0  0  0  0  0  0  0
  129.9620  127.2270   60.1370 C   0  0  0  0  0  0  0  0  0  0  0  0
  130.1480  128.3740   60.7950 F   0  0  0  0  0  0  0  0  0  0  0  0
  130.0560  127.4940   58.8340 F   0  0  0  0  0  0  0  0  0  0  0  0
  128.7280  126.8050   60.4120 F   0  0  0  0  0  0  0  0  0  0  0  0
  131.1520  125.6390   61.8420 C   0  0  0  0  0  0  0  0  0  0  0  0
  130.5130  125.9370   63.0990 C   0  0  0  0  0  0  0  0  0  0  0  0
  129.5160  126.8710   63.2200 N   0  0  0  0  0  0  0  0  0  0  0  0
  130.6270  127.2260   68.3730 C   0  0  0  0  0  0  0  0  0  0  0  0
  130.0840  127.6160   69.5940 C   0  0  0  0  0  0  0  0  0  0  0  0
  128.5793  128.3643   73.1627 H   0  0  0  0  0  0  0  0  0  0  0  0
  129.9957  128.1200   72.0854 H   0  0  0  0  0  0  0  0  0  0  0  0
  129.1280  129.6928   72.0854 H   0  0  0  0  0  0  0  0  0  0  0  0
  126.7679  127.3671   68.8266 H   0  0  0  0  0  0  0  0  0  0  0  0
  127.7324  126.6615   66.6499 H   0  0  0  0  0  0  0  0  0  0  0  0
  130.2880  127.2240   65.3530 H   0  0  0  0  0  0  0  0  0  0  0  0
  134.4570  123.4900   59.2089 H   0  0  0  0  0  0  0  0  0  0  0  0
  133.0403  123.3491   58.1135 H   0  0  0  0  0  0  0  0  0  0  0  0
  134.0301  124.8481   58.1135 H   0  0  0  0  0  0  0  0  0  0  0  0
  131.6997  125.9713   58.4784 H   0  0  0  0  0  0  0  0  0  0  0  0
  128.5480  126.6090   63.3420 H   0  0  0  0  0  0  0  0  0  0  0  0
  129.7170  127.8620   63.1900 H   0  0  0  0  0  0  0  0  0  0  0  0
  131.7189  127.1818   68.2470 H   0  0  0  0  0  0  0  0  0  0  0  0
  130.7510  127.8818   70.4273 H   0  0  0  0  0  0  0  0  0  0  0  0
  1  2  1  0
  2  3  2  0
  2  4  1  0
  4  5  2  0
  5  6  1  0
  6  7  2  0
  7  8  1  0
  8  9  1  0
  9 10  2  0
  9 11  1  0
 11 12  1  0
 12 13  1  0
 13 14  2  0
 14 15  1  0
 15 16  1  0
 15 17  2  0
 17 18  1  0
 18 19  1  0
 19 20  1  0
 19 21  1  0
 19 22  1  0
 18 23  2  0
 23 24  1  0
 24 25  1  0
  7 26  1  0
 26 27  2  0
 27  4  1  0
 24 11  2  0
 23 13  1  0
  1 28  1  0
  1 29  1  0
  1 30  1  0
  5 31  1  0
  6 32  1  0
  8 33  1  0
 16 34  1  0
 16 35  1  0
 16 36  1  0
 17 37  1  0
 25 38  1  0
 25 39  1  0
 26 40  1  0
 27 41  1  0
M  END
>  <Binding energies>  (1) 
[-6.89]

>  <Ligand effiencies>  (1) 
[-0.22966666666666666]

>  <Interactions>  (1) 
["H-B:GLU:543:OE1:9881, V-B:TYR:539:CE2:9848, V-A:ASP:366:CG:3211, V-A:ASP:366:CB:3210, V-A:GLU:543:CD:4906, V-B:GLU:543:CD:9880, H-B:GLU:543:OE2:9882, H-A:GLU:543:OE2:4908, H-A:GLU:543:OE1:4907, H-A:TYR:484:OH:4346, V-A:ILE:369:CG2:3235, V-A:ASP:366:CA:3208, V-B:HIS:456:CE1:9042, V-B:GLY:544:C:9884, V-B:HIS:456:CD2:9040, V-A:LYS:547:CE:4948, V-B:HIS:456:CG:9038, V-A:HIS:456:CE1:4068, V-A:GLY:544:C:4910, V-B:GLU:543:CG:9879, V-B:GLU:543:C:9874, V-A:ARG:545:CG:4920, V-A:GLU:543:CG:4905, V-B:GLU:543:CB:9878, V-A:GLY:544:CA:4912, V-A:GLU:543:C:4900, H-B:HIS:456:ND1:9039, H-B:ARG:545:N:9892"]

$$$$
4bc_Grossjean_2025
     RDKit          3D

 40 42  0  0  0  0  0  0  0  0999 V2000
  128.7240  128.6770   71.9110 C   0  0  0  0  0  0  0  0  0  0  0  0
  127.9900  128.0380   70.8710 O   0  0  0  0  0  0  0  0  0  0  0  0
  128.6450  127.6720   69.7110 C   0  0  0  0  0  0  0  0  0  0  0  0
  127.8420  127.3360   68.6220 C   0  0  0  0  0  0  0  0  0  0  0  0
  128.4120  126.9540   67.4110 C   0  0  0  0  0  0  0  0  0  0  0  0
  129.8000  126.9120   67.2700 C   0  0  0  0  0  0  0  0  0  0  0  0
  130.2850  126.5000   66.0150 N   0  0  0  0  0  0  0  0  0  0  0  0
  130.6500  125.2620   65.6010 C   0  0  0  0  0  0  0  0  0  0  0  0
  130.6390  124.2650   66.3240 O   0  0  0  0  0  0  0  0  0  0  0  0
  131.0800  125.1670   64.2020 C   0  0  0  0  0  0  0  0  0  0  0  0
  132.3590  124.0460   63.7420 S   0  0  0  0  0  0  0  0  0  0  0  0
  132.2480  124.5360   62.0680 C   0  0  0  0  0  0  0  0  0  0  0  0
  133.0300  123.9980   61.1320 N   0  0  0  0  0  0  0  0  0  0  0  0
  132.8540  124.4580   59.8730 C   0  0  0  0  0  0  0  0  0  0  0  0
  133.7500  123.8280   58.8230 C   0  0  0  0  0  0  0  0  0  0  0  0
  131.9240  125.4370   59.5290 C   0  0  0  0  0  0  0  0  0  0  0  0
  131.0980  126.0080   60.5100 C   0  0  0  0  0  0  0  0  0  0  0  0
  130.0910  127.0830   60.0830 C   0  0  0  0  0  0  0  0  0  0  0  0
  130.2800  128.2490   60.7040 F   0  0  0  0  0  0  0  0  0  0  0  0
  130.1980  127.3040   58.7740 F   0  0  0  0  0  0  0  0  0  0  0  0
  128.8530  126.6780   60.3630 F   0  0  0  0  0  0  0  0  0  0  0  0
  131.2570  125.5420   61.8490 C   0  0  0  0  0  0  0  0  0  0  0  0
  130.6040  125.8800   63.0910 C   0  0  0  0  0  0  0  0  0  0  0  0
  129.6050  126.8170   63.1700 N   0  0  0  0  0  0  0  0  0  0  0  0
  130.6160  127.2360   68.3650 C   0  0  0  0  0  0  0  0  0  0  0  0
  130.0420  127.6160   69.5740 C   0  0  0  0  0  0  0  0  0  0  0  0
  128.3418  128.3443   72.8873 H   0  0  0  0  0  0  0  0  0  0  0  0
  129.7883  128.4127   71.8244 H   0  0  0  0  0  0  0  0  0  0  0  0
  128.6088  129.7675   71.8244 H   0  0  0  0  0  0  0  0  0  0  0  0
  126.7471  127.3732   68.7208 H   0  0  0  0  0  0  0  0  0  0  0  0
  127.7664  126.6843   66.5622 H   0  0  0  0  0  0  0  0  0  0  0  0
  130.4020  127.2480   65.3460 H   0  0  0  0  0  0  0  0  0  0  0  0
  134.5536  123.2630   59.3179 H   0  0  0  0  0  0  0  0  0  0  0  0
  133.1564  123.1474   58.1949 H   0  0  0  0  0  0  0  0  0  0  0  0
  134.1896  124.6169   58.1949 H   0  0  0  0  0  0  0  0  0  0  0  0
  131.8366  125.7644   58.4825 H   0  0  0  0  0  0  0  0  0  0  0  0
  128.6330  126.5580   63.2450 H   0  0  0  0  0  0  0  0  0  0  0  0
  129.8130  127.8060   63.1590 H   0  0  0  0  0  0  0  0  0  0  0  0
  131.7107  127.1894   68.2672 H   0  0  0  0  0  0  0  0  0  0  0  0
  130.6859  127.8741   70.4277 H   0  0  0  0  0  0  0  0  0  0  0  0
  1  2  1  0
  2  3  1  0
  3  4  2  0
  4  5  1  0
  5  6  2  0
  6  7  1  0
  7  8  1  0
  8  9  2  0
  8 10  1  0
 10 11  1  0
 11 12  1  0
 12 13  2  0
 13 14  1  0
 14 15  1  0
 14 16  2  0
 16 17  1  0
 17 18  1  0
 18 19  1  0
 18 20  1  0
 18 21  1  0
 17 22  2  0
 22 23  1  0
 23 24  1  0
  6 25  1  0
 25 26  2  0
 26  3  1  0
 23 10  2  0
 22 12  1  0
  1 27  1  0
  1 28  1  0
  1 29  1  0
  4 30  1  0
  5 31  1  0
  7 32  1  0
 15 33  1  0
 15 34  1  0
 15 35  1  0
 16 36  1  0
 24 37  1  0
 24 38  1  0
 25 39  1  0
 26 40  1  0
M  END
>  <Binding energies>  (1) 
[-6.24]

>  <Ligand effiencies>  (1) 
[-0.21517241379310345]

>  <Interactions>  (1) 
["H-B:GLU:543:OE1:9881, V-B:TYR:539:CE2:9848, V-A:ASP:366:CG:3211, V-A:ASP:366:CB:3210, V-A:GLU:543:CD:4906, V-B:GLU:543:CD:9880, H-B:GLU:543:OE2:9882, H-A:GLU:543:OE2:4908, H-A:GLU:543:OE1:4907, H-A:TYR:484:OH:4346, V-A:ILE:369:CB:3234, V-A:ILE:369:CG2:3235, V-A:ILE:369:CD1:3237, V-A:ASP:366:CA:3208, V-B:HIS:456:CE1:9042, V-B:HIS:456:CD2:9040, V-A:HIS:456:CE1:4068, V-A:GLY:544:C:4910, V-B:GLU:543:CG:9879, V-B:GLU:543:C:9874, V-A:ARG:545:CG:4920, V-A:GLU:543:CG:4905, V-B:GLU:543:CB:9878, V-A:GLU:543:C:4900"]

$$$$
4bd_Grossjean_2025
     RDKit          3D

 36 38  0  0  0  0  0  0  0  0999 V2000
  125.9630  116.8350   70.7340 C   0  0  0  0  0  0  0  0  0  0  0  0
  126.7700  117.7370   71.6510 C   0  0  0  0  0  0  0  0  0  0  0  0
  127.0630  117.3560   72.9580 C   0  0  0  0  0  0  0  0  0  0  0  0
  127.8080  118.2010   73.7950 C   0  0  0  0  0  0  0  0  0  0  0  0
  128.1020  117.7410   75.2270 C   0  0  0  0  0  0  0  0  0  0  0  0
  127.5290  116.5730   75.5270 F   0  0  0  0  0  0  0  0  0  0  0  0
  129.4150  117.5970   75.3950 F   0  0  0  0  0  0  0  0  0  0  0  0
  127.6430  118.6440   76.0930 F   0  0  0  0  0  0  0  0  0  0  0  0
  128.2430  119.4440   73.2470 C   0  0  0  0  0  0  0  0  0  0  0  0
  129.0090  120.5410   73.7870 C   0  0  0  0  0  0  0  0  0  0  0  0
  129.4950  120.5430   75.0680 N   0  0  0  0  0  0  0  0  0  0  0  0
  129.2090  121.6010   72.8860 C   0  0  0  0  0  0  0  0  0  0  0  0
  129.9180  122.8650   73.1050 C   0  0  0  0  0  0  0  0  0  0  0  0
  129.4220  123.9340   72.7460 O   0  0  0  0  0  0  0  0  0  0  0  0
  131.1180  122.7580   73.7280 N   0  0  0  0  0  0  0  0  0  0  0  0
  132.0540  123.7590   74.0450 C   0  0  0  0  0  0  0  0  0  0  0  0
  131.7140  125.0590   73.6610 C   0  0  0  0  0  0  0  0  0  0  0  0
  132.5700  126.1210   73.9390 C   0  0  0  0  0  0  0  0  0  0  0  0
  133.7660  125.8850   74.6110 C   0  0  0  0  0  0  0  0  0  0  0  0
  134.1110  124.5970   75.0120 C   0  0  0  0  0  0  0  0  0  0  0  0
  133.2570  123.5320   74.7350 C   0  0  0  0  0  0  0  0  0  0  0  0
  128.4550  121.2650   71.3290 S   0  0  0  0  0  0  0  0  0  0  0  0
  127.8760  119.7140   71.8920 C   0  0  0  0  0  0  0  0  0  0  0  0
  127.1680  118.9080   71.1020 N   0  0  0  0  0  0  0  0  0  0  0  0
  125.3505  116.1504   71.3392 H   0  0  0  0  0  0  0  0  0  0  0  0
  125.3076  117.4494   70.0993 H   0  0  0  0  0  0  0  0  0  0  0  0
  126.6463  116.2517   70.0993 H   0  0  0  0  0  0  0  0  0  0  0  0
  126.7081  116.3862   73.3369 H   0  0  0  0  0  0  0  0  0  0  0  0
  128.8840  120.5220   75.8730 H   0  0  0  0  0  0  0  0  0  0  0  0
  130.4890  120.5590   75.2540 H   0  0  0  0  0  0  0  0  0  0  0  0
  131.3820  121.8300   74.0270 H   0  0  0  0  0  0  0  0  0  0  0  0
  130.7650  125.2440   73.1364 H   0  0  0  0  0  0  0  0  0  0  0  0
  132.3025  127.1420   73.6291 H   0  0  0  0  0  0  0  0  0  0  0  0
  134.4445  126.7234   74.8271 H   0  0  0  0  0  0  0  0  0  0  0  0
  135.0561  124.4208   75.5465 H   0  0  0  0  0  0  0  0  0  0  0  0
  133.5240  122.5143   75.0560 H   0  0  0  0  0  0  0  0  0  0  0  0
  1  2  1  0
  2  3  2  0
  3  4  1  0
  4  5  1  0
  5  6  1  0
  5  7  1  0
  5  8  1  0
  4  9  2  0
  9 10  1  0
 10 11  1  0
 10 12  2  0
 12 13  1  0
 13 14  2  0
 13 15  1  0
 15 16  1  0
 16 17  2  0
 17 18  1  0
 18 19  2  0
 19 20  1  0
 20 21  2  0
 12 22  1  0
 22 23  1  0
 23 24  2  0
 24  2  1  0
 23  9  1  0
 21 16  1  0
  1 25  1  0
  1 26  1  0
  1 27  1  0
  3 28  1  0
 11 29  1  0
 11 30  1  0
 15 31  1  0
 17 32  1  0
 18 33  1  0
 19 34  1  0
 20 35  1  0
 21 36  1  0
M  END
>  <Binding energies>  (1) 
[-6.84]

>  <Ligand effiencies>  (1) 
[-0.25333333333333335]

>  <Interactions>  (1) 
["V-A:LYS:471:CE:4218, V-A:HIS:456:CB:4063, V-A:HIS:456:CD2:4066, V-A:VAL:458:CG2:4085, V-A:HIS:456:CG:4064, V-A:HIS:456:C:4059, V-A:VAL:457:C:4071, V-A:ASP:473:CG:4238, V-A:HIS:456:CA:4061, H-B:LYS:547:NZ:9923, V-B:LYS:547:CE:9922, V-B:GLY:544:CA:9886, V-B:GLU:543:C:9874, V-A:TYR:484:CG:4340, V-A:TYR:484:CB:4339, V-B:VAL:542:CG1:9871, V-B:GLU:543:CA:9876, V-A:TYR:484:CD1:4341, H-A:ASP:473:OD2:4240, H-A:TYR:484:N:4338, V-A:SER:483:CB:4331"]

$$$$
4be_Grossjean_2025
     RDKit          3D

 38 40  0  0  0  0  0  0  0  0999 V2000
  135.1750  123.8130   75.7530 C   0  0  0  0  0  0  0  0  0  0  0  0
  133.9410  124.2110   74.9660 C   0  0  0  0  0  0  0  0  0  0  0  0
  133.6990  125.5400   74.6100 C   0  0  0  0  0  0  0  0  0  0  0  0
  132.5410  125.8330   73.8880 C   0  0  0  0  0  0  0  0  0  0  0  0
  131.6640  124.8030   73.5430 C   0  0  0  0  0  0  0  0  0  0  0  0
  131.9710  123.4920   73.9250 C   0  0  0  0  0  0  0  0  0  0  0  0
  131.0440  122.5020   73.5530 N   0  0  0  0  0  0  0  0  0  0  0  0
  129.8030  122.6520   73.0250 C   0  0  0  0  0  0  0  0  0  0  0  0
  129.2900  123.7450   72.7790 O   0  0  0  0  0  0  0  0  0  0  0  0
  129.0720  121.4070   72.7740 C   0  0  0  0  0  0  0  0  0  0  0  0
  128.2670  121.1490   71.2270 S   0  0  0  0  0  0  0  0  0  0  0  0
  127.6720  119.5890   71.7440 C   0  0  0  0  0  0  0  0  0  0  0  0
  126.9300  118.8280   70.9420 N   0  0  0  0  0  0  0  0  0  0  0  0
  126.5300  117.6410   71.4530 C   0  0  0  0  0  0  0  0  0  0  0  0
  125.6820  116.7900   70.5250 C   0  0  0  0  0  0  0  0  0  0  0  0
  126.8530  117.2010   72.7340 C   0  0  0  0  0  0  0  0  0  0  0  0
  127.6360  117.9980   73.5830 C   0  0  0  0  0  0  0  0  0  0  0  0
  127.9700  117.4700   74.9830 C   0  0  0  0  0  0  0  0  0  0  0  0
  129.2180  117.0070   75.0820 F   0  0  0  0  0  0  0  0  0  0  0  0
  127.8360  118.4480   75.8780 F   0  0  0  0  0  0  0  0  0  0  0  0
  127.1460  116.4700   75.2960 F   0  0  0  0  0  0  0  0  0  0  0  0
  128.0710  119.2590   73.0770 C   0  0  0  0  0  0  0  0  0  0  0  0
  128.8620  120.3240   73.6420 C   0  0  0  0  0  0  0  0  0  0  0  0
  129.3680  120.2750   74.9160 N   0  0  0  0  0  0  0  0  0  0  0  0
  133.0990  123.1980   74.6360 N   0  0  0  0  0  0  0  0  0  0  0  0
  134.9612  123.8820   76.8298 H   0  0  0  0  0  0  0  0  0  0  0  0
  135.4537  122.7794   75.5000 H   0  0  0  0  0  0  0  0  0  0  0  0
  136.0051  124.4890   75.5000 H   0  0  0  0  0  0  0  0  0  0  0  0
  134.4038  126.3361   74.8918 H   0  0  0  0  0  0  0  0  0  0  0  0
  132.3207  126.8694   73.5925 H   0  0  0  0  0  0  0  0  0  0  0  0
  130.7446  125.0188   72.9789 H   0  0  0  0  0  0  0  0  0  0  0  0
  131.3380  121.5560   73.7470 H   0  0  0  0  0  0  0  0  0  0  0  0
  125.0297  116.1354   71.1216 H   0  0  0  0  0  0  0  0  0  0  0  0
  125.0647  117.4430   69.8905 H   0  0  0  0  0  0  0  0  0  0  0  0
  126.3371  116.1750   69.8905 H   0  0  0  0  0  0  0  0  0  0  0  0
  126.4920  116.2222   73.0827 H   0  0  0  0  0  0  0  0  0  0  0  0
  128.7700  120.2470   75.7290 H   0  0  0  0  0  0  0  0  0  0  0  0
  130.3650  120.2720   75.0850 H   0  0  0  0  0  0  0  0  0  0  0  0
  1  2  1  0
  2  3  2  0
  3  4  1  0
  4  5  2  0
  5  6  1  0
  6  7  1  0
  7  8  1  0
  8  9  2  0
  8 10  1  0
 10 11  1  0
 11 12  1  0
 12 13  2  0
 13 14  1  0
 14 15  1  0
 14 16  2  0
 16 17  1  0
 17 18  1  0
 18 19  1  0
 18 20  1  0
 18 21  1  0
 17 22  2  0
 22 23  1  0
 23 24  1  0
  6 25  2  0
 25  2  1  0
 23 10  2  0
 22 12  1  0
  1 26  1  0
  1 27  1  0
  1 28  1  0
  3 29  1  0
  4 30  1  0
  5 31  1  0
  7 32  1  0
 15 33  1  0
 15 34  1  0
 15 35  1  0
 16 36  1  0
 24 37  1  0
 24 38  1  0
M  END
>  <Binding energies>  (1) 
[-6.57]

>  <Ligand effiencies>  (1) 
[-0.23464285714285715]

>  <Interactions>  (1) 
["V-A:HIS:456:CB:4063, V-A:HIS:456:CD2:4066, V-A:VAL:458:CG2:4085, V-A:HIS:456:CG:4064, V-A:HIS:456:C:4059, V-A:VAL:457:C:4071, V-A:LYS:471:CG:4216, V-A:ASP:473:CG:4238, V-A:LYS:471:CD:4217, V-A:HIS:456:CA:4061, H-B:LYS:547:NZ:9923, V-A:LYS:471:CB:4215, V-A:VAL:457:CA:4073, V-A:LYS:471:C:4211, V-B:LYS:547:CE:9922, V-B:GLY:544:CA:9886, V-B:GLU:543:C:9874, V-A:TYR:484:CG:4340, V-A:TYR:484:CB:4339, V-B:VAL:542:CG1:9871, V-B:GLU:543:CA:9876, V-A:TYR:484:CD1:4341, H-A:ASP:473:OD2:4240, H-A:TYR:484:N:4338, V-A:SER:483:CB:4331, V-A:VAL:458:CB:4083"]

$$$$
4bf_Grossjean_2025
     RDKit          3D

 35 37  0  0  0  0  0  0  0  0999 V2000
  132.0850  131.8210   55.4300 C   0  0  0  0  0  0  0  0  0  0  0  0
  131.5670  131.6820   56.8510 C   0  0  0  0  0  0  0  0  0  0  0  0
  132.4430  131.5100   57.9190 C   0  0  0  0  0  0  0  0  0  0  0  0
  131.9510  131.3790   59.2270 C   0  0  0  0  0  0  0  0  0  0  0  0
  132.9520  131.1880   60.3710 C   0  0  0  0  0  0  0  0  0  0  0  0
  132.6840  130.1200   61.1270 F   0  0  0  0  0  0  0  0  0  0  0  0
  134.1790  131.0290   59.8760 F   0  0  0  0  0  0  0  0  0  0  0  0
  132.9350  132.2560   61.1690 F   0  0  0  0  0  0  0  0  0  0  0  0
  130.5350  131.4320   59.4000 C   0  0  0  0  0  0  0  0  0  0  0  0
  129.6840  131.3360   60.5600 C   0  0  0  0  0  0  0  0  0  0  0  0
  130.1800  131.1630   61.8280 N   0  0  0  0  0  0  0  0  0  0  0  0
  128.3130  131.4400   60.2780 C   0  0  0  0  0  0  0  0  0  0  0  0
  127.1790  131.3550   61.2040 C   0  0  0  0  0  0  0  0  0  0  0  0
  126.1380  131.9740   60.9800 O   0  0  0  0  0  0  0  0  0  0  0  0
  127.3690  130.5530   62.2800 N   0  0  0  0  0  0  0  0  0  0  0  0
  126.5120  130.2950   63.3670 C   0  0  0  0  0  0  0  0  0  0  0  0
  126.8740  129.6240   64.5480 C   0  0  0  0  0  0  0  0  0  0  0  0
  125.9190  129.4190   65.5470 C   0  0  0  0  0  0  0  0  0  0  0  0
  124.6220  129.8880   65.3380 C   0  0  0  0  0  0  0  0  0  0  0  0
  124.2460  130.5320   64.2050 N   0  0  0  0  0  0  0  0  0  0  0  0
  125.1850  130.7230   63.2430 C   0  0  0  0  0  0  0  0  0  0  0  0
  128.0330  131.6570   58.5510 S   0  0  0  0  0  0  0  0  0  0  0  0
  129.7490  131.6140   58.2200 C   0  0  0  0  0  0  0  0  0  0  0  0
  130.2210  131.7380   56.9810 N   0  0  0  0  0  0  0  0  0  0  0  0
  133.1472  132.1060   55.4532 H   0  0  0  0  0  0  0  0  0  0  0  0
  131.9743  130.8614   54.9038 H   0  0  0  0  0  0  0  0  0  0  0  0
  131.5087  132.5963   54.9038 H   0  0  0  0  0  0  0  0  0  0  0  0
  133.5273  131.4765   57.7368 H   0  0  0  0  0  0  0  0  0  0  0  0
  130.8050  131.8320   62.2530 H   0  0  0  0  0  0  0  0  0  0  0  0
  129.9320  130.3550   62.3830 H   0  0  0  0  0  0  0  0  0  0  0  0
  128.2470  130.0560   62.3150 H   0  0  0  0  0  0  0  0  0  0  0  0
  127.9037  129.2622   64.6849 H   0  0  0  0  0  0  0  0  0  0  0  0
  126.1844  128.8985   66.4790 H   0  0  0  0  0  0  0  0  0  0  0  0
  123.8715  129.7286   66.1263 H   0  0  0  0  0  0  0  0  0  0  0  0
  124.8877  131.2405   62.3190 H   0  0  0  0  0  0  0  0  0  0  0  0
  1  2  1  0
  2  3  2  0
  3  4  1  0
  4  5  1  0
  5  6  1  0
  5  7  1  0
  5  8  1  0
  4  9  2  0
  9 10  1  0
 10 11  1  0
 10 12  2  0
 12 13  1  0
 13 14  2  0
 13 15  1  0
 15 16  1  0
 16 17  2  0
 17 18  1  0
 18 19  2  0
 19 20  1  0
 20 21  2  0
 12 22  1  0
 22 23  1  0
 23 24  2  0
 24  2  1  0
 23  9  1  0
 21 16  1  0
  1 25  1  0
  1 26  1  0
  1 27  1  0
  3 28  1  0
 11 29  1  0
 11 30  1  0
 15 31  1  0
 17 32  1  0
 18 33  1  0
 19 34  1  0
 21 35  1  0
M  END
>  <Binding energies>  (1) 
[-6.69]

>  <Ligand effiencies>  (1) 
[-0.2477777777777778]

>  <Interactions>  (1) 
["V-A:ASP:366:CG:3211, V-A:PRO:540:N:4882, V-A:ILE:538:CA:4858, V-A:TYR:531:CE2:4791, V-A:LEU:363:CA:3183, V-A:TYR:539:C:4865, V-A:ILE:538:CB:4860, V-A:PRO:540:CA:4881, V-A:ILE:538:CG2:4861, V-A:TYR:531:CZ:4792, V-A:GLU:543:CD:4906, V-A:PRO:540:CB:4883, V-B:ARG:545:CZ:9898, V-A:ARG:545:CZ:4924, H-A:GLU:543:OE2:4908, H-A:GLU:543:OE1:4907, V-A:PRO:540:CD:4885, V-A:ASN:362:CB:3174, V-A:ALA:541:C:4886, V-A:TYR:539:CE2:4874, H-B:GLY:454:N:9022, V-A:ALA:541:CB:4890, H-B:TYR:484:OH:9320, V-A:ASN:362:C:3170, V-A:PRO:540:C:4879, V-A:TYR:539:CD2:4872, V-B:HIS:456:CE1:9042, V-A:ALA:541:CA:4888, V-B:ARG:545:CG:9894, V-B:ARG:545:CD:9895, H-A:ALA:541:O:4887, V-A:ASN:362:CA:3172"]

$$$$
4bg_Grossjean_2025
     RDKit          3D

 39 41  0  0  0  0  0  0  0  0999 V2000
  132.7890  131.9570   55.6460 C   0  0  0  0  0  0  0  0  0  0  0  0
  131.9930  131.8120   56.9310 C   0  0  0  0  0  0  0  0  0  0  0  0
  132.6210  131.4870   58.1300 C   0  0  0  0  0  0  0  0  0  0  0  0
  131.8720  131.3500   59.3100 C   0  0  0  0  0  0  0  0  0  0  0  0
  132.6060  130.9910   60.6060 C   0  0  0  0  0  0  0  0  0  0  0  0
  132.5310  131.9500   61.5320 F   0  0  0  0  0  0  0  0  0  0  0  0
  132.0780  129.8860   61.1320 F   0  0  0  0  0  0  0  0  0  0  0  0
  133.8980  130.7830   60.3510 F   0  0  0  0  0  0  0  0  0  0  0  0
  130.4640  131.5600   59.2170 C   0  0  0  0  0  0  0  0  0  0  0  0
  129.3970  131.5020   60.1850 C   0  0  0  0  0  0  0  0  0  0  0  0
  129.6060  131.1860   61.5040 N   0  0  0  0  0  0  0  0  0  0  0  0
  128.1310  131.8060   59.6600 C   0  0  0  0  0  0  0  0  0  0  0  0
  126.8380  131.8130   60.3440 C   0  0  0  0  0  0  0  0  0  0  0  0
  126.1600  132.8380   60.4270 O   0  0  0  0  0  0  0  0  0  0  0  0
  126.4240  130.6270   60.8360 N   0  0  0  0  0  0  0  0  0  0  0  0
  125.1780  130.4000   61.5670 C   0  0  0  0  0  0  0  0  0  0  0  0
  125.3850  130.0730   63.0400 C   0  0  0  0  0  0  0  0  0  0  0  0
  126.6580  129.7370   63.5120 C   0  0  0  0  0  0  0  0  0  0  0  0
  126.8520  129.4760   64.8650 C   0  0  0  0  0  0  0  0  0  0  0  0
  125.7770  129.5640   65.7470 C   0  0  0  0  0  0  0  0  0  0  0  0
  124.5090  129.9150   65.2870 C   0  0  0  0  0  0  0  0  0  0  0  0
  124.3140  130.1750   63.9330 C   0  0  0  0  0  0  0  0  0  0  0  0
  128.2160  132.1370   57.9320 S   0  0  0  0  0  0  0  0  0  0  0  0
  129.9470  131.8960   57.9270 C   0  0  0  0  0  0  0  0  0  0  0  0
  130.6630  132.0210   56.8100 N   0  0  0  0  0  0  0  0  0  0  0  0
  133.8446  132.1493   55.8883 H   0  0  0  0  0  0  0  0  0  0  0  0
  132.7105  131.0298   55.0594 H   0  0  0  0  0  0  0  0  0  0  0  0
  132.3885  132.7970   55.0594 H   0  0  0  0  0  0  0  0  0  0  0  0
  133.7104  131.3366   58.1534 H   0  0  0  0  0  0  0  0  0  0  0  0
  129.1370  131.6750   62.2510 H   0  0  0  0  0  0  0  0  0  0  0  0
  130.2490  130.4540   61.7730 H   0  0  0  0  0  0  0  0  0  0  0  0
  127.0650  129.8480   60.8030 H   0  0  0  0  0  0  0  0  0  0  0  0
  124.5628  131.3091   61.4959 H   0  0  0  0  0  0  0  0  0  0  0  0
  124.6901  129.5271   61.1087 H   0  0  0  0  0  0  0  0  0  0  0  0
  127.5059  129.6791   62.8136 H   0  0  0  0  0  0  0  0  0  0  0  0
  127.8502  129.2013   65.2368 H   0  0  0  0  0  0  0  0  0  0  0  0
  125.9304  129.3546   66.8159 H   0  0  0  0  0  0  0  0  0  0  0  0
  123.6662  129.9863   65.9903 H   0  0  0  0  0  0  0  0  0  0  0  0
  123.3172  130.4607   63.5659 H   0  0  0  0  0  0  0  0  0  0  0  0
  1  2  1  0
  2  3  2  0
  3  4  1  0
  4  5  1  0
  5  6  1  0
  5  7  1  0
  5  8  1  0
  4  9  2  0
  9 10  1  0
 10 11  1  0
 10 12  2  0
 12 13  1  0
 13 14  2  0
 13 15  1  0
 15 16  1  0
 16 17  1  0
 17 18  2  0
 18 19  1  0
 19 20  2  0
 20 21  1  0
 21 22  2  0
 12 23  1  0
 23 24  1  0
 24 25  2  0
 25  2  1  0
 24  9  1  0
 22 17  1  0
  1 26  1  0
  1 27  1  0
  1 28  1  0
  3 29  1  0
 11 30  1  0
 11 31  1  0
 15 32  1  0
 16 33  1  0
 16 34  1  0
 18 35  1  0
 19 36  1  0
 20 37  1  0
 21 38  1  0
 22 39  1  0
M  END
>  <Binding energies>  (1) 
[-6.56]

>  <Ligand effiencies>  (1) 
[-0.23428571428571426]

>  <Interactions>  (1) 
["V-A:ASP:366:CG:3211, V-A:PRO:540:N:4882, H-A:TYR:539:N:4868, V-A:TYR:539:CZ:4875, V-A:TYR:531:CE2:4791, V-A:TYR:539:C:4865, V-A:LEU:363:CD1:3187, V-A:ILE:538:CB:4860, V-A:PRO:540:CA:4881, V-A:ILE:538:CG2:4861, V-A:TYR:531:CZ:4792, V-A:GLU:543:CD:4906, V-A:PRO:540:CB:4883, V-B:ARG:545:CZ:9898, V-A:ARG:545:CZ:4924, H-A:GLU:543:OE2:4908, H-A:GLU:543:OE1:4907, V-A:PRO:540:CD:4885, V-A:ASN:362:CB:3174, V-A:ALA:541:C:4886, V-A:TYR:539:CE2:4874, V-A:ALA:541:CB:4890, V-A:ASN:362:C:3170, V-A:PRO:540:C:4879, V-A:TYR:539:CD2:4872, V-A:TYR:539:CG:4870, V-B:HIS:456:CE1:9042, V-A:ALA:541:CA:4888, V-B:ARG:545:CG:9894, V-B:ARG:545:CD:9895, V-B:GLY:453:CA:9016, V-A:ASN:362:CA:3172"]

$$$$
4bh_Grossjean_2025
     RDKit          3D

 51 53  0  0  0  0  0  0  0  0999 V2000
  126.9830  130.5170   56.5980 C   0  0  0  0  0  0  0  0  0  0  0  0
  127.6450  131.7510   56.8490 O   0  0  0  0  0  0  0  0  0  0  0  0
  128.9520  131.7420   57.3010 C   0  0  0  0  0  0  0  0  0  0  0  0
  129.3300  131.3640   58.5990 C   0  0  0  0  0  0  0  0  0  0  0  0
  130.6700  131.3800   58.9880 C   0  0  0  0  0  0  0  0  0  0  0  0
  131.0660  130.9230   60.3870 C   0  0  0  0  0  0  0  0  0  0  0  0
  131.3160  129.4850   60.4820 N   0  0  0  0  0  0  0  0  0  0  0  0
  130.4280  128.5150   60.1800 C   0  0  0  0  0  0  0  0  0  0  0  0
  129.2750  128.7610   59.8210 O   0  0  0  0  0  0  0  0  0  0  0  0
  130.8980  127.1390   60.3450 C   0  0  0  0  0  0  0  0  0  0  0  0
  131.3540  126.1880   58.9350 S   0  0  0  0  0  0  0  0  0  0  0  0
  131.7070  124.7970   59.9340 C   0  0  0  0  0  0  0  0  0  0  0  0
  132.1420  123.6540   59.4060 N   0  0  0  0  0  0  0  0  0  0  0  0
  132.3830  122.6500   60.2800 C   0  0  0  0  0  0  0  0  0  0  0  0
  132.8750  121.3560   59.6560 C   0  0  0  0  0  0  0  0  0  0  0  0
  132.2050  122.7600   61.6560 C   0  0  0  0  0  0  0  0  0  0  0  0
  131.7460  123.9620   62.2190 C   0  0  0  0  0  0  0  0  0  0  0  0
  131.5670  124.0380   63.7390 C   0  0  0  0  0  0  0  0  0  0  0  0
  130.6350  124.9160   64.1130 F   0  0  0  0  0  0  0  0  0  0  0  0
  131.2040  122.8450   64.2100 F   0  0  0  0  0  0  0  0  0  0  0  0
  132.7150  124.4050   64.3090 F   0  0  0  0  0  0  0  0  0  0  0  0
  131.4790  125.0410   61.3240 C   0  0  0  0  0  0  0  0  0  0  0  0
  131.0030  126.3870   61.5260 C   0  0  0  0  0  0  0  0  0  0  0  0
  130.6890  126.8870   62.7630 N   0  0  0  0  0  0  0  0  0  0  0  0
  131.6490  131.7500   58.0640 C   0  0  0  0  0  0  0  0  0  0  0  0
  131.3000  132.1400   56.7620 C   0  0  0  0  0  0  0  0  0  0  0  0
  132.2150  132.5320   55.8010 O   0  0  0  0  0  0  0  0  0  0  0  0
  133.5850  132.1770   55.9570 C   0  0  0  0  0  0  0  0  0  0  0  0
  129.9460  132.1370   56.3950 C   0  0  0  0  0  0  0  0  0  0  0  0
  129.5910  132.4990   55.1160 O   0  0  0  0  0  0  0  0  0  0  0  0
  129.7500  131.4620   54.1580 C   0  0  0  0  0  0  0  0  0  0  0  0
  126.7259  130.0377   57.5541 H   0  0  0  0  0  0  0  0  0  0  0  0
  126.0642  130.7042   56.0229 H   0  0  0  0  0  0  0  0  0  0  0  0
  127.6471  129.8550   56.0229 H   0  0  0  0  0  0  0  0  0  0  0  0
  128.5596  131.0510   59.3191 H   0  0  0  0  0  0  0  0  0  0  0  0
  131.9823  131.4559   60.6810 H   0  0  0  0  0  0  0  0  0  0  0  0
  130.2201  131.1491   61.0528 H   0  0  0  0  0  0  0  0  0  0  0  0
  132.2670  129.2130   60.6880 H   0  0  0  0  0  0  0  0  0  0  0  0
  133.1453  120.6452   60.4508 H   0  0  0  0  0  0  0  0  0  0  0  0
  132.0786  120.9235   59.0326 H   0  0  0  0  0  0  0  0  0  0  0  0
  133.7576  121.5619   59.0326 H   0  0  0  0  0  0  0  0  0  0  0  0
  132.4251  121.9005   62.3063 H   0  0  0  0  0  0  0  0  0  0  0  0
  129.8300  127.3930   62.9330 H   0  0  0  0  0  0  0  0  0  0  0  0
  131.3120  126.7730   63.5500 H   0  0  0  0  0  0  0  0  0  0  0  0
  132.7082  131.7356   58.3606 H   0  0  0  0  0  0  0  0  0  0  0  0
  133.8278  132.1141   57.0280 H   0  0  0  0  0  0  0  0  0  0  0  0
  133.7675  131.2019   55.4817 H   0  0  0  0  0  0  0  0  0  0  0  0
  134.2181  132.9408   55.4817 H   0  0  0  0  0  0  0  0  0  0  0  0
  129.8970  130.5031   54.6766 H   0  0  0  0  0  0  0  0  0  0  0  0
  128.8503  131.4039   53.5278 H   0  0  0  0  0  0  0  0  0  0  0  0
  130.6258  131.6761   53.5278 H   0  0  0  0  0  0  0  0  0  0  0  0
  1  2  1  0
  2  3  1  0
  3  4  2  0
  4  5  1  0
  5  6  1  0
  6  7  1  0
  7  8  1  0
  8  9  2  0
  8 10  1  0
 10 11  1  0
 11 12  1  0
 12 13  2  0
 13 14  1  0
 14 15  1  0
 14 16  2  0
 16 17  1  0
 17 18  1  0
 18 19  1  0
 18 20  1  0
 18 21  1  0
 17 22  2  0
 22 23  1  0
 23 24  1  0
  5 25  2  0
 25 26  1  0
 26 27  1  0
 27 28  1  0
 26 29  2  0
 29 30  1  0
 30 31  1  0
 29  3  1  0
 23 10  2  0
 22 12  1  0
  1 32  1  0
  1 33  1  0
  1 34  1  0
  4 35  1  0
  6 36  1  0
  6 37  1  0
  7 38  1  0
 15 39  1  0
 15 40  1  0
 15 41  1  0
 16 42  1  0
 24 43  1  0
 24 44  1  0
 25 45  1  0
 28 46  1  0
 28 47  1  0
 28 48  1  0
 31 49  1  0
 31 50  1  0
 31 51  1  0
M  END
>  <Binding energies>  (1) 
[-6.3]

>  <Ligand effiencies>  (1) 
[-0.18529411764705883]

>  <Interactions>  (1) 
["H-B:GLU:543:OE1:9881, V-B:TYR:539:CE2:9848, V-B:TYR:539:CD2:9846, V-A:TYR:539:CE1:4873, V-A:ASP:366:CG:3211, V-A:PRO:540:N:4882, H-A:TYR:539:N:4868, V-A:ILE:538:CA:4858, V-A:TYR:539:CZ:4875, V-A:TYR:531:CE2:4791, V-A:TYR:539:C:4865, V-A:LEU:363:CD1:3187, V-A:ILE:538:CB:4860, V-A:PRO:540:CA:4881, V-A:ILE:538:CG2:4861, V-A:GLU:543:CD:4906, V-A:PRO:540:CB:4883, V-B:GLU:543:CD:9880, H-B:GLU:543:OE2:9882, V-A:ARG:545:CZ:4924, H-A:GLU:543:OE2:4908, H-A:GLU:543:OE1:4907, H-A:ASP:366:OD2:3213, V-A:MET:535:CG:4831, V-A:PRO:540:CD:4885, V-A:MET:535:CB:4830, V-A:TYR:539:CE2:4874, H-A:TYR:539:OH:4876, H-A:ASP:366:OD1:3212, V-A:ILE:369:CG2:3235, V-A:TYR:539:CD2:4872, V-A:PRO:540:CG:4884, V-A:TYR:484:CZ:4345, V-A:TYR:484:CE1:4343"]

$$$$
4bi_Grossjean_2025
     RDKit          3D

 32 34  0  0  0  0  0  0  0  0999 V2000
  131.6670  132.0470   55.5020 C   0  0  0  0  0  0  0  0  0  0  0  0
  131.1480  131.8320   56.9130 C   0  0  0  0  0  0  0  0  0  0  0  0
  132.0200  131.5720   57.9660 C   0  0  0  0  0  0  0  0  0  0  0  0
  131.5260  131.3800   59.2670 C   0  0  0  0  0  0  0  0  0  0  0  0
  132.5250  131.1040   60.3960 C   0  0  0  0  0  0  0  0  0  0  0  0
  133.7830  130.9920   59.9640 F   0  0  0  0  0  0  0  0  0  0  0  0
  132.4950  132.1020   61.2800 F   0  0  0  0  0  0  0  0  0  0  0  0
  132.2100  129.9630   61.0090 F   0  0  0  0  0  0  0  0  0  0  0  0
  130.1130  131.4600   59.4470 C   0  0  0  0  0  0  0  0  0  0  0  0
  129.2610  131.3190   60.6020 C   0  0  0  0  0  0  0  0  0  0  0  0
  129.7490  131.0450   61.8540 N   0  0  0  0  0  0  0  0  0  0  0  0
  127.8940  131.4940   60.3320 C   0  0  0  0  0  0  0  0  0  0  0  0
  126.7610  131.4070   61.2590 C   0  0  0  0  0  0  0  0  0  0  0  0
  125.6650  131.8850   60.9590 O   0  0  0  0  0  0  0  0  0  0  0  0
  127.0110  130.7610   62.4250 N   0  0  0  0  0  0  0  0  0  0  0  0
  126.1250  130.5260   63.4680 C   0  0  0  0  0  0  0  0  0  0  0  0
  126.4970  129.9010   64.6570 C   0  0  0  0  0  0  0  0  0  0  0  0
  125.3490  129.8590   65.4150 C   0  0  0  0  0  0  0  0  0  0  0  0
  124.3370  130.4290   64.7170 O   0  0  0  0  0  0  0  0  0  0  0  0
  124.8420  130.8480   63.4840 N   0  0  0  0  0  0  0  0  0  0  0  0
  127.6180  131.8160   58.6220 S   0  0  0  0  0  0  0  0  0  0  0  0
  129.3310  131.7340   58.2830 C   0  0  0  0  0  0  0  0  0  0  0  0
  129.8050  131.9170   57.0510 N   0  0  0  0  0  0  0  0  0  0  0  0
  132.6825  132.4677   55.5450 H   0  0  0  0  0  0  0  0  0  0  0  0
  131.6910  131.0848   54.9695 H   0  0  0  0  0  0  0  0  0  0  0  0
  131.0035  132.7443   54.9695 H   0  0  0  0  0  0  0  0  0  0  0  0
  133.1025  131.5165   57.7785 H   0  0  0  0  0  0  0  0  0  0  0  0
  130.2010  131.7520   62.4180 H   0  0  0  0  0  0  0  0  0  0  0  0
  129.6790  130.1200   62.2550 H   0  0  0  0  0  0  0  0  0  0  0  0
  127.9440  130.3980   62.5580 H   0  0  0  0  0  0  0  0  0  0  0  0
  127.4931  129.5229   64.9305 H   0  0  0  0  0  0  0  0  0  0  0  0
  125.2663  129.4314   66.4251 H   0  0  0  0  0  0  0  0  0  0  0  0
  1  2  1  0
  2  3  2  0
  3  4  1  0
  4  5  1  0
  5  6  1  0
  5  7  1  0
  5  8  1  0
  4  9  2  0
  9 10  1  0
 10 11  1  0
 10 12  2  0
 12 13  1  0
 13 14  2  0
 13 15  1  0
 15 16  1  0
 16 17  1  0
 17 18  2  0
 18 19  1  0
 19 20  1  0
 12 21  1  0
 21 22  1  0
 22 23  2  0
 23  2  1  0
 22  9  1  0
 20 16  2  0
  1 24  1  0
  1 25  1  0
  1 26  1  0
  3 27  1  0
 11 28  1  0
 11 29  1  0
 15 30  1  0
 17 31  1  0
 18 32  1  0
M  END
>  <Binding energies>  (1) 
[-6.57]

>  <Ligand effiencies>  (1) 
[-0.2526923076923077]

>  <Interactions>  (1) 
["V-A:ASP:366:CG:3211, V-A:PRO:540:N:4882, V-A:ILE:538:CA:4858, V-A:TYR:539:CZ:4875, V-A:LEU:363:CA:3183, V-A:TYR:539:C:4865, V-A:ILE:538:CB:4860, V-A:PRO:540:CA:4881, V-A:ILE:538:CG2:4861, V-A:GLU:543:CD:4906, V-A:PRO:540:CB:4883, V-B:ARG:545:CZ:9898, V-A:ARG:545:CZ:4924, H-A:GLU:543:OE2:4908, H-A:GLU:543:OE1:4907, V-A:PRO:540:CD:4885, V-A:ASN:362:CB:3174, V-A:ALA:541:C:4886, V-A:TYR:539:CE2:4874, H-B:GLY:454:N:9022, V-A:ALA:541:CB:4890, H-B:TYR:484:OH:9320, V-A:ASN:362:C:3170, V-A:PRO:540:C:4879, V-A:TYR:539:CD2:4872, V-B:HIS:456:CE1:9042, V-A:ALA:541:CA:4888, V-B:ARG:545:CD:9895, H-A:ALA:541:O:4887"]

$$$$
4bj_Grossjean_2025
     RDKit          3D

 32 34  0  0  0  0  0  0  0  0999 V2000
  126.1510  116.5800   70.8790 C   0  0  0  0  0  0  0  0  0  0  0  0
  126.9190  117.5310   71.7790 C   0  0  0  0  0  0  0  0  0  0  0  0
  127.2470  117.1760   73.0850 C   0  0  0  0  0  0  0  0  0  0  0  0
  127.9520  118.0680   73.9080 C   0  0  0  0  0  0  0  0  0  0  0  0
  128.2880  117.6340   75.3400 C   0  0  0  0  0  0  0  0  0  0  0  0
  127.8100  118.4690   76.2640 F   0  0  0  0  0  0  0  0  0  0  0  0
  127.7670  116.4310   75.5800 F   0  0  0  0  0  0  0  0  0  0  0  0
  129.6110  117.5800   75.4940 F   0  0  0  0  0  0  0  0  0  0  0  0
  128.3090  119.3300   73.3470 C   0  0  0  0  0  0  0  0  0  0  0  0
  129.0120  120.4750   73.8740 C   0  0  0  0  0  0  0  0  0  0  0  0
  129.4960  120.5220   75.1560 N   0  0  0  0  0  0  0  0  0  0  0  0
  129.1600  121.5280   72.9570 C   0  0  0  0  0  0  0  0  0  0  0  0
  129.8040  122.8280   73.1570 C   0  0  0  0  0  0  0  0  0  0  0  0
  129.2850  123.8630   72.7310 O   0  0  0  0  0  0  0  0  0  0  0  0
  130.9740  122.7990   73.8410 N   0  0  0  0  0  0  0  0  0  0  0  0
  131.7740  123.8850   74.1730 C   0  0  0  0  0  0  0  0  0  0  0  0
  131.5250  125.1620   73.9770 N   0  0  0  0  0  0  0  0  0  0  0  0
  132.5050  125.9210   74.4230 C   0  0  0  0  0  0  0  0  0  0  0  0
  133.5850  125.2580   74.9980 C   0  0  0  0  0  0  0  0  0  0  0  0
  133.2910  123.5450   74.9420 S   0  0  0  0  0  0  0  0  0  0  0  0
  128.4080  121.1400   71.4110 S   0  0  0  0  0  0  0  0  0  0  0  0
  127.9160  119.5680   71.9940 C   0  0  0  0  0  0  0  0  0  0  0  0
  127.2440  118.7180   71.2170 N   0  0  0  0  0  0  0  0  0  0  0  0
  125.5792  115.8719   71.4968 H   0  0  0  0  0  0  0  0  0  0  0  0
  125.4599  117.1538   70.2440 H   0  0  0  0  0  0  0  0  0  0  0  0
  126.8574  116.0252   70.2440 H   0  0  0  0  0  0  0  0  0  0  0  0
  126.9517  116.1904   73.4740 H   0  0  0  0  0  0  0  0  0  0  0  0
  130.4850  120.4720   75.3570 H   0  0  0  0  0  0  0  0  0  0  0  0
  128.8750  120.6030   75.9490 H   0  0  0  0  0  0  0  0  0  0  0  0
  131.3070  121.8990   74.1540 H   0  0  0  0  0  0  0  0  0  0  0  0
  132.4715  127.0177   74.3452 H   0  0  0  0  0  0  0  0  0  0  0  0
  134.4797  125.7395   75.4196 H   0  0  0  0  0  0  0  0  0  0  0  0
  1  2  1  0
  2  3  2  0
  3  4  1  0
  4  5  1  0
  5  6  1  0
  5  7  1  0
  5  8  1  0
  4  9  2  0
  9 10  1  0
 10 11  1  0
 10 12  2  0
 12 13  1  0
 13 14  2  0
 13 15  1  0
 15 16  1  0
 16 17  2  0
 17 18  1  0
 18 19  2  0
 19 20  1  0
 12 21  1  0
 21 22  1  0
 22 23  2  0
 23  2  1  0
 22  9  1  0
 20 16  1  0
  1 24  1  0
  1 25  1  0
  1 26  1  0
  3 27  1  0
 11 28  1  0
 11 29  1  0
 15 30  1  0
 18 31  1  0
 19 32  1  0
M  END
>  <Binding energies>  (1) 
[-6.43]

>  <Ligand effiencies>  (1) 
[-0.24730769230769228]

>  <Interactions>  (1) 
["V-A:LYS:471:CE:4218, V-A:HIS:456:CB:4063, V-A:HIS:456:CD2:4066, V-A:VAL:458:CG2:4085, V-A:HIS:456:CG:4064, V-A:HIS:456:C:4059, V-A:ASP:473:CG:4238, V-A:LYS:471:CD:4217, H-B:LYS:547:NZ:9923, V-B:LYS:547:CE:9922, V-B:GLY:544:CA:9886, V-B:GLU:543:C:9874, V-A:TYR:484:CG:4340, V-A:TYR:484:CB:4339, V-B:VAL:542:CG1:9871, V-B:GLU:543:CA:9876, V-A:TYR:484:CD1:4341, H-A:ASP:473:OD2:4240, H-A:TYR:484:N:4338, V-A:SER:483:CB:4331"]

$$$$
4bk_Grossjean_2025
     RDKit          3D

 50 51  0  0  0  0  0  0  0  0999 V2000
  132.0770  125.4320   74.0160 C   0  0  0  0  0  0  0  0  0  0  0  0
  130.7560  125.3370   73.5070 O   0  0  0  0  0  0  0  0  0  0  0  0
  130.5210  126.1730   72.3810 C   0  0  0  0  0  0  0  0  0  0  0  0
  129.0160  126.4280   72.2370 C   0  0  0  0  0  0  0  0  0  0  0  0
  128.8070  127.6040   71.4670 O   0  0  0  0  0  0  0  0  0  0  0  0
  129.4150  127.5640   70.1820 C   0  0  0  0  0  0  0  0  0  0  0  0
  128.3640  127.8840   69.1110 C   0  0  0  0  0  0  0  0  0  0  0  0
  128.4840  126.9560   68.0430 O   0  0  0  0  0  0  0  0  0  0  0  0
  129.2060  127.4570   66.9240 C   0  0  0  0  0  0  0  0  0  0  0  0
  130.6360  126.8890   66.9440 C   0  0  0  0  0  0  0  0  0  0  0  0
  131.0290  126.2430   65.6910 N   0  0  0  0  0  0  0  0  0  0  0  0
  131.0030  124.9140   65.4580 C   0  0  0  0  0  0  0  0  0  0  0  0
  130.6140  124.1030   66.3010 O   0  0  0  0  0  0  0  0  0  0  0  0
  131.4560  124.4830   64.1350 C   0  0  0  0  0  0  0  0  0  0  0  0
  132.7230  125.3780   63.3000 S   0  0  0  0  0  0  0  0  0  0  0  0
  132.6720  124.2740   61.9470 C   0  0  0  0  0  0  0  0  0  0  0  0
  133.4680  124.4320   60.8900 N   0  0  0  0  0  0  0  0  0  0  0  0
  133.3390  123.5130   59.9050 C   0  0  0  0  0  0  0  0  0  0  0  0
  134.2570  123.7110   58.7130 C   0  0  0  0  0  0  0  0  0  0  0  0
  132.4400  122.4510   59.9520 C   0  0  0  0  0  0  0  0  0  0  0  0
  131.5970  122.2800   61.0610 C   0  0  0  0  0  0  0  0  0  0  0  0
  130.6210  121.0980   61.0640 C   0  0  0  0  0  0  0  0  0  0  0  0
  130.6000  120.4420   62.2260 F   0  0  0  0  0  0  0  0  0  0  0  0
  129.3840  121.5340   60.8290 F   0  0  0  0  0  0  0  0  0  0  0  0
  130.9670  120.2250   60.1190 F   0  0  0  0  0  0  0  0  0  0  0  0
  131.7090  123.2310   62.1180 C   0  0  0  0  0  0  0  0  0  0  0  0
  131.0330  123.3770   63.3830 C   0  0  0  0  0  0  0  0  0  0  0  0
  130.0600  122.5090   63.8090 N   0  0  0  0  0  0  0  0  0  0  0  0
  132.0473  125.4299   75.1156 H   0  0  0  0  0  0  0  0  0  0  0  0
  132.6683  124.5741   73.6635 H   0  0  0  0  0  0  0  0  0  0  0  0
  132.5395  126.3657   73.6635 H   0  0  0  0  0  0  0  0  0  0  0  0
  131.0432  127.1310   72.5206 H   0  0  0  0  0  0  0  0  0  0  0  0
  130.8969  125.6785   71.4732 H   0  0  0  0  0  0  0  0  0  0  0  0
  128.5454  125.5710   71.7329 H   0  0  0  0  0  0  0  0  0  0  0  0
  128.5688  126.5576   73.2336 H   0  0  0  0  0  0  0  0  0  0  0  0
  130.2244  128.3074   70.1356 H   0  0  0  0  0  0  0  0  0  0  0  0
  129.8291  126.5609   70.0024 H   0  0  0  0  0  0  0  0  0  0  0  0
  127.3581  127.8108   69.5500 H   0  0  0  0  0  0  0  0  0  0  0  0
  128.5233  128.9043   68.7320 H   0  0  0  0  0  0  0  0  0  0  0  0
  128.7023  127.1511   65.9952 H   0  0  0  0  0  0  0  0  0  0  0  0
  129.2456  128.5552   66.9734 H   0  0  0  0  0  0  0  0  0  0  0  0
  131.3350  127.7146   67.1434 H   0  0  0  0  0  0  0  0  0  0  0  0
  130.6648  126.1170   67.7270 H   0  0  0  0  0  0  0  0  0  0  0  0
  131.3580  126.8540   64.9590 H   0  0  0  0  0  0  0  0  0  0  0  0
  135.2751  123.9306   59.0668 H   0  0  0  0  0  0  0  0  0  0  0  0
  134.2700  122.7950   58.1041 H   0  0  0  0  0  0  0  0  0  0  0  0
  133.8913  124.5509   58.1041 H   0  0  0  0  0  0  0  0  0  0  0  0
  132.3900  121.7406   59.1137 H   0  0  0  0  0  0  0  0  0  0  0  0
  130.2190  121.5120   63.8640 H   0  0  0  0  0  0  0  0  0  0  0  0
  129.1470  122.8400   64.0890 H   0  0  0  0  0  0  0  0  0  0  0  0
  1  2  1  0
  2  3  1  0
  3  4  1  0
  4  5  1  0
  5  6  1  0
  6  7  1  0
  7  8  1  0
  8  9  1  0
  9 10  1  0
 10 11  1  0
 11 12  1  0
 12 13  2  0
 12 14  1  0
 14 15  1  0
 15 16  1  0
 16 17  2  0
 17 18  1  0
 18 19  1  0
 18 20  2  0
 20 21  1  0
 21 22  1  0
 22 23  1  0
 22 24  1  0
 22 25  1  0
 21 26  2  0
 26 27  1  0
 27 28  1  0
 27 14  2  0
 26 16  1  0
  1 29  1  0
  1 30  1  0
  1 31  1  0
  3 32  1  0
  3 33  1  0
  4 34  1  0
  4 35  1  0
  6 36  1  0
  6 37  1  0
  7 38  1  0
  7 39  1  0
  9 40  1  0
  9 41  1  0
 10 42  1  0
 10 43  1  0
 11 44  1  0
 19 45  1  0
 19 46  1  0
 19 47  1  0
 20 48  1  0
 28 49  1  0
 28 50  1  0
M  END
>  <Binding energies>  (1) 
[-5.91]

>  <Ligand effiencies>  (1) 
[-0.19064516129032258]

>  <Interactions>  (1) 
["V-A:TRP:381:CZ2:3368, H-B:GLU:543:OE1:9881, V-A:TRP:381:CH2:3370, V-B:ALA:541:CB:9864, V-B:ALA:541:CA:9862, V-B:TYR:539:CE2:9848, V-A:LEU:475:CD2:4257, V-B:TYR:539:CD2:9846, V-A:ASP:366:CG:3211, V-A:ASP:366:CB:3210, V-A:GLU:543:CD:4906, V-B:GLU:543:CD:9880, V-A:ARG:545:CZ:4924, H-A:GLU:543:OE2:4908, H-A:TYR:484:OH:4346, V-A:ILE:369:CB:3234, V-A:ILE:369:CG2:3235, V-A:ILE:369:CD1:3237, V-A:ASP:366:CA:3208, V-B:HIS:456:CE1:9042, V-A:HIS:456:CB:4063, V-A:HIS:456:CD2:4066, V-B:GLY:544:C:9884, V-A:HIS:456:CG:4064, H-B:LYS:547:NZ:9923, V-A:HIS:456:CE1:4068, V-B:LYS:547:CE:9922, V-B:GLY:544:CA:9886, V-B:GLU:543:CG:9879, V-A:ARG:545:CG:4920, V-A:GLU:543:CG:4905, V-A:TYR:484:CZ:4345, V-B:GLU:543:CB:9878, V-A:TYR:484:CE1:4343, V-A:ILE:369:CG1:3236, V-A:LEU:475:CG:4255, V-A:LEU:475:CD1:4256"]

$$$$
4ca_Grossjean_2025
     RDKit          3D

 52 55  0  0  0  0  0  0  0  0999 V2000
  129.4120  125.6970   72.2360 C   0  0  0  0  0  0  0  0  0  0  0  0
  130.4630  126.8120   72.2470 C   0  0  0  0  0  0  0  0  0  0  0  0
  129.8670  128.0280   71.8160 O   0  0  0  0  0  0  0  0  0  0  0  0
  128.7420  128.0270   71.0530 C   0  0  0  0  0  0  0  0  0  0  0  0
  127.6260  128.3310   71.4880 O   0  0  0  0  0  0  0  0  0  0  0  0
  128.9920  127.6240   69.6300 C   0  0  0  0  0  0  0  0  0  0  0  0
  130.3090  127.5800   69.1520 C   0  0  0  0  0  0  0  0  0  0  0  0
  130.5720  127.2060   67.8370 C   0  0  0  0  0  0  0  0  0  0  0  0
  129.5290  126.8750   66.9730 C   0  0  0  0  0  0  0  0  0  0  0  0
  129.9090  126.5020   65.6690 N   0  0  0  0  0  0  0  0  0  0  0  0
  130.9250  125.7070   65.2490 C   0  0  0  0  0  0  0  0  0  0  0  0
  131.6940  125.1120   66.0050 O   0  0  0  0  0  0  0  0  0  0  0  0
  131.0540  125.5720   63.7970 C   0  0  0  0  0  0  0  0  0  0  0  0
  130.0280  126.5220   62.7240 S   0  0  0  0  0  0  0  0  0  0  0  0
  130.8040  125.8460   61.3110 C   0  0  0  0  0  0  0  0  0  0  0  0
  130.4400  126.2040   60.0820 N   0  0  0  0  0  0  0  0  0  0  0  0
  131.1100  125.6370   59.0460 C   0  0  0  0  0  0  0  0  0  0  0  0
  130.6830  126.0690   57.6730 C   0  0  0  0  0  0  0  0  0  0  0  0
  129.9440  127.2480   57.4870 C   0  0  0  0  0  0  0  0  0  0  0  0
  129.5400  127.6510   56.2160 C   0  0  0  0  0  0  0  0  0  0  0  0
  129.8710  126.8770   55.1090 C   0  0  0  0  0  0  0  0  0  0  0  0
  130.6010  125.7030   55.2650 C   0  0  0  0  0  0  0  0  0  0  0  0
  131.0020  125.3030   56.5370 C   0  0  0  0  0  0  0  0  0  0  0  0
  132.1250  124.6960   59.2480 C   0  0  0  0  0  0  0  0  0  0  0  0
  132.5130  124.3080   60.5400 C   0  0  0  0  0  0  0  0  0  0  0  0
  133.6350  123.2740   60.6900 C   0  0  0  0  0  0  0  0  0  0  0  0
  133.2460  122.1680   61.3260 F   0  0  0  0  0  0  0  0  0  0  0  0
  134.0750  122.9080   59.4860 F   0  0  0  0  0  0  0  0  0  0  0  0
  134.6430  123.8000   61.3860 F   0  0  0  0  0  0  0  0  0  0  0  0
  131.8290  124.9100   61.6350 C   0  0  0  0  0  0  0  0  0  0  0  0
  131.9510  124.7750   63.0660 C   0  0  0  0  0  0  0  0  0  0  0  0
  132.8640  123.9380   63.6550 N   0  0  0  0  0  0  0  0  0  0  0  0
  128.2080  126.9100   67.4430 C   0  0  0  0  0  0  0  0  0  0  0  0
  127.9460  127.2820   68.7590 C   0  0  0  0  0  0  0  0  0  0  0  0
  129.1554  125.4248   73.2704 H   0  0  0  0  0  0  0  0  0  0  0  0
  128.5095  126.0489   71.7148 H   0  0  0  0  0  0  0  0  0  0  0  0
  129.8166  124.8168   71.7148 H   0  0  0  0  0  0  0  0  0  0  0  0
  130.8546  126.9369   73.2673 H   0  0  0  0  0  0  0  0  0  0  0  0
  131.2870  126.5464   71.5684 H   0  0  0  0  0  0  0  0  0  0  0  0
  131.1414  127.8431   69.8213 H   0  0  0  0  0  0  0  0  0  0  0  0
  131.6108  127.1714   67.4769 H   0  0  0  0  0  0  0  0  0  0  0  0
  129.3200  126.8820   64.9430 H   0  0  0  0  0  0  0  0  0  0  0  0
  129.6795  127.8639   58.3592 H   0  0  0  0  0  0  0  0  0  0  0  0
  128.9614  128.5778   56.0886 H   0  0  0  0  0  0  0  0  0  0  0  0
  129.5539  127.1947   54.1047 H   0  0  0  0  0  0  0  0  0  0  0  0
  130.8604  125.0932   54.3870 H   0  0  0  0  0  0  0  0  0  0  0  0
  131.5775  124.3731   56.6555 H   0  0  0  0  0  0  0  0  0  0  0  0
  132.6291  124.2513   58.3773 H   0  0  0  0  0  0  0  0  0  0  0  0
  133.5840  123.4710   63.1210 H   0  0  0  0  0  0  0  0  0  0  0  0
  132.8510  123.7610   64.6510 H   0  0  0  0  0  0  0  0  0  0  0  0
  127.3784  126.6434   66.7716 H   0  0  0  0  0  0  0  0  0  0  0  0
  126.9073  127.3081   69.1201 H   0  0  0  0  0  0  0  0  0  0  0  0
  1  2  1  0
  2  3  1  0
  3  4  1  0
  4  5  2  0
  4  6  1  0
  6  7  2  0
  7  8  1  0
  8  9  2  0
  9 10  1  0
 10 11  1  0
 11 12  2  0
 11 13  1  0
 13 14  1  0
 14 15  1  0
 15 16  2  0
 16 17  1  0
 17 18  1  0
 18 19  2  0
 19 20  1  0
 20 21  2  0
 21 22  1  0
 22 23  2  0
 17 24  2  0
 24 25  1  0
 25 26  1  0
 26 27  1  0
 26 28  1  0
 26 29  1  0
 25 30  2  0
 30 31  1  0
 31 32  1  0
  9 33  1  0
 33 34  2  0
 34  6  1  0
 31 13  2  0
 30 15  1  0
 23 18  1  0
  1 35  1  0
  1 36  1  0
  1 37  1  0
  2 38  1  0
  2 39  1  0
  7 40  1  0
  8 41  1  0
 10 42  1  0
 19 43  1  0
 20 44  1  0
 21 45  1  0
 22 46  1  0
 23 47  1  0
 24 48  1  0
 32 49  1  0
 32 50  1  0
 33 51  1  0
 34 52  1  0
M  END
>  <Binding energies>  (1) 
[-6.96]

>  <Ligand effiencies>  (1) 
[-0.1881081081081081]

>  <Interactions>  (1) 
["H-B:GLU:543:OE1:9881, V-B:TYR:539:CZ:9849, V-B:TYR:539:CE2:9848, V-A:LEU:475:CD2:4257, V-A:ASP:366:CG:3211, V-A:GLU:543:CD:4906, V-B:GLU:543:CD:9880, H-B:GLU:543:OE2:9882, H-A:GLU:543:OE2:4908, V-A:GLY:454:CA:4047, H-A:TYR:484:OH:4346, V-A:ILE:369:CB:3234, V-A:ILE:369:CG2:3235, V-A:ILE:369:CD1:3237, V-B:HIS:456:CE1:9042, V-A:HIS:456:CD2:4066, V-B:HIS:456:CD2:9040, V-A:HIS:456:CE1:4068, V-A:GLY:544:C:4910, V-B:LYS:547:CE:9922, V-B:GLY:544:CA:9886, V-B:GLU:543:CG:9879, V-B:GLU:543:C:9874, V-A:ARG:545:CG:4920, V-A:GLY:453:CA:4042, V-A:GLY:453:C:4040, V-A:GLU:543:CG:4905, V-B:GLU:543:CB:9878, V-A:GLU:543:C:4900, V-A:ILE:369:CG1:3236, H-B:HIS:456:ND1:9039"]

$$$$
4cb_Grossjean_2025
     RDKit          3D

 49 52  0  0  0  0  0  0  0  0999 V2000
  130.3710  126.6410   72.2980 C   0  0  0  0  0  0  0  0  0  0  0  0
  129.9000  127.9050   71.8530 O   0  0  0  0  0  0  0  0  0  0  0  0
  128.7910  128.0040   71.0770 C   0  0  0  0  0  0  0  0  0  0  0  0
  127.6930  128.3770   71.5010 O   0  0  0  0  0  0  0  0  0  0  0  0
  129.0320  127.6140   69.6460 C   0  0  0  0  0  0  0  0  0  0  0  0
  130.3460  127.5520   69.1660 C   0  0  0  0  0  0  0  0  0  0  0  0
  130.6020  127.1860   67.8480 C   0  0  0  0  0  0  0  0  0  0  0  0
  129.5520  126.8820   66.9810 C   0  0  0  0  0  0  0  0  0  0  0  0
  129.9260  126.5100   65.6750 N   0  0  0  0  0  0  0  0  0  0  0  0
  130.9060  125.6760   65.2520 C   0  0  0  0  0  0  0  0  0  0  0  0
  131.6410  125.0340   66.0040 O   0  0  0  0  0  0  0  0  0  0  0  0
  131.0400  125.5550   63.7980 C   0  0  0  0  0  0  0  0  0  0  0  0
  130.0070  126.5020   62.7300 S   0  0  0  0  0  0  0  0  0  0  0  0
  130.7920  125.8470   61.3130 C   0  0  0  0  0  0  0  0  0  0  0  0
  130.4270  126.2100   60.0860 N   0  0  0  0  0  0  0  0  0  0  0  0
  131.1030  125.6550   59.0460 C   0  0  0  0  0  0  0  0  0  0  0  0
  130.6730  126.0880   57.6750 C   0  0  0  0  0  0  0  0  0  0  0  0
  131.0080  125.3260   56.5440 C   0  0  0  0  0  0  0  0  0  0  0  0
  130.6150  125.7240   55.2680 C   0  0  0  0  0  0  0  0  0  0  0  0
  129.8790  126.8930   55.1060 C   0  0  0  0  0  0  0  0  0  0  0  0
  129.5360  127.6680   56.2090 C   0  0  0  0  0  0  0  0  0  0  0  0
  129.9330  127.2670   57.4820 C   0  0  0  0  0  0  0  0  0  0  0  0
  132.1270  124.7220   59.2450 C   0  0  0  0  0  0  0  0  0  0  0  0
  132.5170  124.3300   60.5340 C   0  0  0  0  0  0  0  0  0  0  0  0
  133.6490  123.3050   60.6800 C   0  0  0  0  0  0  0  0  0  0  0  0
  133.2670  122.1910   61.3080 F   0  0  0  0  0  0  0  0  0  0  0  0
  134.0930  122.9510   59.4740 F   0  0  0  0  0  0  0  0  0  0  0  0
  134.6510  123.8350   61.3810 F   0  0  0  0  0  0  0  0  0  0  0  0
  131.8260  124.9190   61.6320 C   0  0  0  0  0  0  0  0  0  0  0  0
  131.9490  124.7750   63.0630 C   0  0  0  0  0  0  0  0  0  0  0  0
  132.8730  123.9470   63.6470 N   0  0  0  0  0  0  0  0  0  0  0  0
  128.2330  126.9380   67.4540 C   0  0  0  0  0  0  0  0  0  0  0  0
  127.9780  127.3030   68.7730 C   0  0  0  0  0  0  0  0  0  0  0  0
  130.3791  126.6192   73.3978 H   0  0  0  0  0  0  0  0  0  0  0  0
  129.7077  125.8489   71.9204 H   0  0  0  0  0  0  0  0  0  0  0  0
  131.3909  126.4761   71.9204 H   0  0  0  0  0  0  0  0  0  0  0  0
  131.1834  127.7948   69.8367 H   0  0  0  0  0  0  0  0  0  0  0  0
  131.6399  127.1360   67.4871 H   0  0  0  0  0  0  0  0  0  0  0  0
  129.3630  126.9310   64.9500 H   0  0  0  0  0  0  0  0  0  0  0  0
  131.5897  124.4006   56.6674 H   0  0  0  0  0  0  0  0  0  0  0  0
  130.8857  125.1161   54.3921 H   0  0  0  0  0  0  0  0  0  0  0  0
  129.5661  127.2067   54.0992 H   0  0  0  0  0  0  0  0  0  0  0  0
  128.9545  128.5923   56.0764 H   0  0  0  0  0  0  0  0  0  0  0  0
  129.6627  127.8838   58.3517 H   0  0  0  0  0  0  0  0  0  0  0  0
  132.6365  124.2871   58.3725 H   0  0  0  0  0  0  0  0  0  0  0  0
  133.6050  123.5020   63.1120 H   0  0  0  0  0  0  0  0  0  0  0  0
  132.8560  123.7570   64.6400 H   0  0  0  0  0  0  0  0  0  0  0  0
  127.3979  126.6929   66.7812 H   0  0  0  0  0  0  0  0  0  0  0  0
  126.9401  127.3481   69.1346 H   0  0  0  0  0  0  0  0  0  0  0  0
  1  2  1  0
  2  3  1  0
  3  4  2  0
  3  5  1  0
  5  6  2  0
  6  7  1  0
  7  8  2  0
  8  9  1  0
  9 10  1  0
 10 11  2  0
 10 12  1  0
 12 13  1  0
 13 14  1  0
 14 15  2  0
 15 16  1  0
 16 17  1  0
 17 18  2  0
 18 19  1  0
 19 20  2  0
 20 21  1  0
 21 22  2  0
 16 23  2  0
 23 24  1  0
 24 25  1  0
 25 26  1  0
 25 27  1  0
 25 28  1  0
 24 29  2  0
 29 30  1  0
 30 31  1  0
  8 32  1  0
 32 33  2  0
 33  5  1  0
 30 12  2  0
 29 14  1  0
 22 17  1  0
  1 34  1  0
  1 35  1  0
  1 36  1  0
  6 37  1  0
  7 38  1  0
  9 39  1  0
 18 40  1  0
 19 41  1  0
 20 42  1  0
 21 43  1  0
 22 44  1  0
 23 45  1  0
 31 46  1  0
 31 47  1  0
 32 48  1  0
 33 49  1  0
M  END
>  <Binding energies>  (1) 
[-6.8]

>  <Ligand effiencies>  (1) 
[-0.18888888888888888]

>  <Interactions>  (1) 
["H-B:GLU:543:OE1:9881, V-B:TYR:539:CZ:9849, V-B:TYR:539:CE2:9848, V-A:LEU:475:CD2:4257, V-A:ASP:366:CG:3211, V-A:GLU:543:CD:4906, V-B:GLU:543:CD:9880, H-B:GLU:543:OE2:9882, H-A:GLU:543:OE2:4908, V-A:GLY:454:CA:4047, H-A:TYR:484:OH:4346, V-A:ILE:369:CB:3234, V-A:ILE:369:CG2:3235, V-A:ILE:369:CD1:3237, V-A:TYR:531:CE1:4790, V-B:HIS:456:CE1:9042, V-A:HIS:456:CD2:4066, V-B:HIS:456:CD2:9040, V-A:HIS:456:CE1:4068, V-A:GLY:544:C:4910, V-B:GLU:543:CG:9879, V-B:GLU:543:C:9874, V-A:ARG:545:CG:4920, V-A:GLY:453:CA:4042, V-A:GLY:453:C:4040, V-A:GLU:543:CG:4905, V-B:GLU:543:CB:9878, V-A:GLU:543:C:4900, V-A:ILE:369:CG1:3236, H-B:HIS:456:ND1:9039"]

$$$$
4cc_Grossjean_2025
     RDKit          3D

 47 50  0  0  0  0  0  0  0  0999 V2000
  127.6870  128.0000   71.5200 C   0  0  0  0  0  0  0  0  0  0  0  0
  128.9860  128.0100   70.9370 O   0  0  0  0  0  0  0  0  0  0  0  0
  129.1360  127.6320   69.6170 C   0  0  0  0  0  0  0  0  0  0  0  0
  130.4430  127.5530   69.1360 C   0  0  0  0  0  0  0  0  0  0  0  0
  130.6930  127.1780   67.8190 C   0  0  0  0  0  0  0  0  0  0  0  0
  129.6330  126.8860   66.9580 C   0  0  0  0  0  0  0  0  0  0  0  0
  129.9840  126.5010   65.6500 N   0  0  0  0  0  0  0  0  0  0  0  0
  130.9510  125.6460   65.2390 C   0  0  0  0  0  0  0  0  0  0  0  0
  131.6830  125.0150   66.0030 O   0  0  0  0  0  0  0  0  0  0  0  0
  131.0870  125.5020   63.7860 C   0  0  0  0  0  0  0  0  0  0  0  0
  130.0830  126.4620   62.7010 S   0  0  0  0  0  0  0  0  0  0  0  0
  130.8330  125.7390   61.2970 C   0  0  0  0  0  0  0  0  0  0  0  0
  130.4720  126.0830   60.0630 N   0  0  0  0  0  0  0  0  0  0  0  0
  131.1180  125.4740   59.0340 C   0  0  0  0  0  0  0  0  0  0  0  0
  130.6890  125.8800   57.6540 C   0  0  0  0  0  0  0  0  0  0  0  0
  131.3370  125.3640   56.5200 C   0  0  0  0  0  0  0  0  0  0  0  0
  130.9450  125.7380   55.2370 C   0  0  0  0  0  0  0  0  0  0  0  0
  129.8970  126.6360   55.0690 C   0  0  0  0  0  0  0  0  0  0  0  0
  129.2400  127.1640   56.1760 C   0  0  0  0  0  0  0  0  0  0  0  0
  129.6360  126.7890   57.4570 C   0  0  0  0  0  0  0  0  0  0  0  0
  132.1100  124.5130   59.2500 C   0  0  0  0  0  0  0  0  0  0  0  0
  132.4970  124.1410   60.5480 C   0  0  0  0  0  0  0  0  0  0  0  0
  133.5950  123.0840   60.7120 C   0  0  0  0  0  0  0  0  0  0  0  0
  134.1400  122.7100   59.5510 F   0  0  0  0  0  0  0  0  0  0  0  0
  134.5750  123.5660   61.4750 F   0  0  0  0  0  0  0  0  0  0  0  0
  133.0880  121.9920   61.2840 F   0  0  0  0  0  0  0  0  0  0  0  0
  131.8320  124.7790   61.6340 C   0  0  0  0  0  0  0  0  0  0  0  0
  131.9520  124.6620   63.0670 C   0  0  0  0  0  0  0  0  0  0  0  0
  132.8390  123.8050   63.6680 N   0  0  0  0  0  0  0  0  0  0  0  0
  128.3160  126.9510   67.4370 C   0  0  0  0  0  0  0  0  0  0  0  0
  128.0710  127.3250   68.7550 C   0  0  0  0  0  0  0  0  0  0  0  0
  127.7771  128.0007   72.6163 H   0  0  0  0  0  0  0  0  0  0  0  0
  127.1333  128.8939   71.1970 H   0  0  0  0  0  0  0  0  0  0  0  0
  127.1471  127.0977   71.1970 H   0  0  0  0  0  0  0  0  0  0  0  0
  131.2844  127.7894   69.8040 H   0  0  0  0  0  0  0  0  0  0  0  0
  131.7290  127.1114   67.4552 H   0  0  0  0  0  0  0  0  0  0  0  0
  129.4070  126.9040   64.9270 H   0  0  0  0  0  0  0  0  0  0  0  0
  132.1670  124.6534   56.6471 H   0  0  0  0  0  0  0  0  0  0  0  0
  131.4630  125.3242   54.3593 H   0  0  0  0  0  0  0  0  0  0  0  0
  129.5857  126.9305   54.0559 H   0  0  0  0  0  0  0  0  0  0  0  0
  128.4114  127.8745   56.0397 H   0  0  0  0  0  0  0  0  0  0  0  0
  129.1158  127.2114   58.3293 H   0  0  0  0  0  0  0  0  0  0  0  0
  132.5975  124.0384   58.3857 H   0  0  0  0  0  0  0  0  0  0  0  0
  133.5360  123.3000   63.1390 H   0  0  0  0  0  0  0  0  0  0  0  0
  132.8220  123.6480   64.6660 H   0  0  0  0  0  0  0  0  0  0  0  0
  127.4761  126.7061   66.7702 H   0  0  0  0  0  0  0  0  0  0  0  0
  127.0362  127.3805   69.1238 H   0  0  0  0  0  0  0  0  0  0  0  0
  1  2  1  0
  2  3  1  0
  3  4  2  0
  4  5  1  0
  5  6  2  0
  6  7  1  0
  7  8  1  0
  8  9  2  0
  8 10  1  0
 10 11  1  0
 11 12  1  0
 12 13  2  0
 13 14  1  0
 14 15  1  0
 15 16  2  0
 16 17  1  0
 17 18  2  0
 18 19  1  0
 19 20  2  0
 14 21  2  0
 21 22  1  0
 22 23  1  0
 23 24  1  0
 23 25  1  0
 23 26  1  0
 22 27  2  0
 27 28  1  0
 28 29  1  0
  6 30  1  0
 30 31  2  0
 31  3  1  0
 28 10  2  0
 27 12  1  0
 20 15  1  0
  1 32  1  0
  1 33  1  0
  1 34  1  0
  4 35  1  0
  5 36  1  0
  7 37  1  0
 16 38  1  0
 17 39  1  0
 18 40  1  0
 19 41  1  0
 20 42  1  0
 21 43  1  0
 29 44  1  0
 29 45  1  0
 30 46  1  0
 31 47  1  0
M  END
>  <Binding energies>  (1) 
[-6.22]

>  <Ligand effiencies>  (1) 
[-0.18294117647058822]

>  <Interactions>  (1) 
["H-B:GLU:543:OE1:9881, V-B:TYR:539:CZ:9849, V-B:TYR:539:CE2:9848, V-A:LEU:475:CD2:4257, V-A:ASP:366:CG:3211, V-A:GLU:543:CD:4906, V-B:GLU:543:CD:9880, H-B:GLU:543:OE2:9882, H-A:GLU:543:OE2:4908, V-A:GLY:454:CA:4047, H-A:TYR:484:OH:4346, V-A:ILE:369:CB:3234, V-A:ILE:369:CG2:3235, V-A:ILE:369:CD1:3237, V-A:TYR:531:CE1:4790, V-B:HIS:456:CE1:9042, V-B:GLY:544:C:9884, V-B:HIS:456:CD2:9040, V-B:HIS:456:CG:9038, V-A:HIS:456:CE1:4068, V-A:GLY:544:C:4910, V-B:GLU:543:CG:9879, V-B:GLU:543:C:9874, V-A:ARG:545:CG:4920, V-A:GLY:453:CA:4042, V-A:GLY:453:C:4040, V-A:GLU:543:CG:4905, V-B:GLU:543:CB:9878, V-A:GLU:543:C:4900, V-A:ILE:369:CG1:3236"]

$$$$
4cd_Grossjean_2025
     RDKit          3D

 43 46  0  0  0  0  0  0  0  0999 V2000
  132.7390  123.5840   63.7490 N   0  0  0  0  0  0  0  0  0  0  0  0
  131.9350  124.4820   63.0930 C   0  0  0  0  0  0  0  0  0  0  0  0
  131.1890  125.4720   63.7530 C   0  0  0  0  0  0  0  0  0  0  0  0
  131.0940  125.7370   65.1920 C   0  0  0  0  0  0  0  0  0  0  0  0
  131.9340  125.2850   65.9710 O   0  0  0  0  0  0  0  0  0  0  0  0
  130.0420  126.5030   65.5730 N   0  0  0  0  0  0  0  0  0  0  0  0
  129.6390  126.8930   66.8640 C   0  0  0  0  0  0  0  0  0  0  0  0
  130.6670  127.1800   67.7660 C   0  0  0  0  0  0  0  0  0  0  0  0
  130.3700  127.5880   69.0630 C   0  0  0  0  0  0  0  0  0  0  0  0
  129.0410  127.7170   69.4580 C   0  0  0  0  0  0  0  0  0  0  0  0
  128.0070  127.4480   68.5660 C   0  0  0  0  0  0  0  0  0  0  0  0
  128.3010  127.0390   67.2670 C   0  0  0  0  0  0  0  0  0  0  0  0
  130.2800  126.4540   62.6060 S   0  0  0  0  0  0  0  0  0  0  0  0
  130.8960  125.5300   61.2580 C   0  0  0  0  0  0  0  0  0  0  0  0
  130.5420  125.8080   60.0050 N   0  0  0  0  0  0  0  0  0  0  0  0
  131.0620  125.0250   59.0240 C   0  0  0  0  0  0  0  0  0  0  0  0
  130.6420  125.3610   57.6230 C   0  0  0  0  0  0  0  0  0  0  0  0
  131.5890  125.4420   56.5890 C   0  0  0  0  0  0  0  0  0  0  0  0
  131.2070  125.7520   55.2860 C   0  0  0  0  0  0  0  0  0  0  0  0
  129.8660  125.9860   54.9990 C   0  0  0  0  0  0  0  0  0  0  0  0
  128.9080  125.9090   56.0030 C   0  0  0  0  0  0  0  0  0  0  0  0
  129.2940  125.5970   57.3030 C   0  0  0  0  0  0  0  0  0  0  0  0
  131.9480  123.9810   59.3030 C   0  0  0  0  0  0  0  0  0  0  0  0
  132.3320  123.6820   60.6210 C   0  0  0  0  0  0  0  0  0  0  0  0
  133.3050  122.5200   60.8560 C   0  0  0  0  0  0  0  0  0  0  0  0
  132.7750  121.5310   61.5800 F   0  0  0  0  0  0  0  0  0  0  0  0
  133.6810  122.0030   59.6870 F   0  0  0  0  0  0  0  0  0  0  0  0
  134.3800  122.9590   61.5110 F   0  0  0  0  0  0  0  0  0  0  0  0
  131.7830  124.4880   61.6590 C   0  0  0  0  0  0  0  0  0  0  0  0
  132.8340  123.5890   64.7550 H   0  0  0  0  0  0  0  0  0  0  0  0
  133.2630  122.8830   63.2460 H   0  0  0  0  0  0  0  0  0  0  0  0
  129.4630  126.8640   64.8300 H   0  0  0  0  0  0  0  0  0  0  0  0
  131.7160  127.0830   67.4494 H   0  0  0  0  0  0  0  0  0  0  0  0
  131.1813  127.8075   69.7727 H   0  0  0  0  0  0  0  0  0  0  0  0
  128.8061  128.0345   70.4847 H   0  0  0  0  0  0  0  0  0  0  0  0
  126.9603  127.5580   68.8858 H   0  0  0  0  0  0  0  0  0  0  0  0
  127.4865  126.8306   66.5577 H   0  0  0  0  0  0  0  0  0  0  0  0
  132.6502  125.2575   56.8120 H   0  0  0  0  0  0  0  0  0  0  0  0
  131.9617  125.8115   54.4880 H   0  0  0  0  0  0  0  0  0  0  0  0
  129.5620  126.2335   53.9712 H   0  0  0  0  0  0  0  0  0  0  0  0
  127.8488  126.0940   55.7709 H   0  0  0  0  0  0  0  0  0  0  0  0
  128.5314  125.5340   58.0933 H   0  0  0  0  0  0  0  0  0  0  0  0
  132.3528  123.3814   58.4743 H   0  0  0  0  0  0  0  0  0  0  0  0
  1  2  1  0
  2  3  2  0
  3  4  1  0
  4  5  2  0
  4  6  1  0
  6  7  1  0
  7  8  2  0
  8  9  1  0
  9 10  2  0
 10 11  1  0
 11 12  2  0
  3 13  1  0
 13 14  1  0
 14 15  2  0
 15 16  1  0
 16 17  1  0
 17 18  2  0
 18 19  1  0
 19 20  2  0
 20 21  1  0
 21 22  2  0
 16 23  2  0
 23 24  1  0
 24 25  1  0
 25 26  1  0
 25 27  1  0
 25 28  1  0
 24 29  2  0
 29  2  1  0
 12  7  1  0
 29 14  1  0
 22 17  1  0
  1 30  1  0
  1 31  1  0
  6 32  1  0
  8 33  1  0
  9 34  1  0
 10 35  1  0
 11 36  1  0
 12 37  1  0
 18 38  1  0
 19 39  1  0
 20 40  1  0
 21 41  1  0
 22 42  1  0
 23 43  1  0
M  END
>  <Binding energies>  (1) 
[-6.27]

>  <Ligand effiencies>  (1) 
[-0.1959375]

>  <Interactions>  (1) 
["H-B:GLU:543:OE1:9881, V-B:TYR:539:CZ:9849, V-B:TYR:539:CE2:9848, V-A:LEU:475:CD2:4257, V-A:TYR:531:CZ:4792, V-A:GLU:543:CD:4906, V-B:GLU:543:CD:9880, H-B:GLU:543:OE2:9882, H-A:GLU:543:OE2:4908, V-A:GLY:454:CA:4047, H-A:TYR:484:OH:4346, V-A:ILE:369:CB:3234, V-A:ILE:369:CG2:3235, V-A:ILE:369:CD1:3237, V-A:TYR:531:CE1:4790, V-B:HIS:456:CE1:9042, V-A:HIS:456:CE1:4068, V-A:GLY:544:C:4910, V-B:GLU:543:CG:9879, V-B:GLU:543:C:9874, V-A:ARG:545:CG:4920, V-A:GLY:453:C:4040, V-A:GLU:543:CG:4905, V-A:TYR:484:CZ:4345, V-B:GLU:543:CB:9878, V-A:GLU:543:C:4900"]

$$$$
4ce_Grossjean_2025
     RDKit          3D

 45 48  0  0  0  0  0  0  0  0999 V2000
  130.9300  127.2170   70.3440 C   0  0  0  0  0  0  0  0  0  0  0  0
  129.9020  127.2360   69.2280 C   0  0  0  0  0  0  0  0  0  0  0  0
  128.5800  127.6260   69.4580 C   0  0  0  0  0  0  0  0  0  0  0  0
  127.6920  127.6270   68.3820 C   0  0  0  0  0  0  0  0  0  0  0  0
  128.1400  127.2450   67.1170 C   0  0  0  0  0  0  0  0  0  0  0  0
  129.4760  126.8600   66.9570 C   0  0  0  0  0  0  0  0  0  0  0  0
  129.8740  126.5080   65.6540 N   0  0  0  0  0  0  0  0  0  0  0  0
  130.8750  125.6790   65.2670 C   0  0  0  0  0  0  0  0  0  0  0  0
  131.6030  125.0720   66.0530 O   0  0  0  0  0  0  0  0  0  0  0  0
  131.0490  125.5350   63.8200 C   0  0  0  0  0  0  0  0  0  0  0  0
  129.9910  126.4030   62.7090 S   0  0  0  0  0  0  0  0  0  0  0  0
  130.8430  125.7600   61.3260 C   0  0  0  0  0  0  0  0  0  0  0  0
  130.4890  126.0800   60.0830 N   0  0  0  0  0  0  0  0  0  0  0  0
  131.2200  125.5420   59.0710 C   0  0  0  0  0  0  0  0  0  0  0  0
  130.7990  125.9260   57.6840 C   0  0  0  0  0  0  0  0  0  0  0  0
  130.9400  125.0240   56.6170 C   0  0  0  0  0  0  0  0  0  0  0  0
  130.5580  125.3760   55.3250 C   0  0  0  0  0  0  0  0  0  0  0  0
  130.0250  126.6370   55.0820 C   0  0  0  0  0  0  0  0  0  0  0  0
  129.8750  127.5500   56.1210 C   0  0  0  0  0  0  0  0  0  0  0  0
  130.2610  127.1950   57.4110 C   0  0  0  0  0  0  0  0  0  0  0  0
  132.2880  124.6720   59.3120 C   0  0  0  0  0  0  0  0  0  0  0  0
  132.6670  124.3250   60.6190 C   0  0  0  0  0  0  0  0  0  0  0  0
  133.8480  123.3670   60.8100 C   0  0  0  0  0  0  0  0  0  0  0  0
  133.5040  122.2240   61.4060 F   0  0  0  0  0  0  0  0  0  0  0  0
  134.3730  123.0570   59.6240 F   0  0  0  0  0  0  0  0  0  0  0  0
  134.7800  123.9470   61.5660 F   0  0  0  0  0  0  0  0  0  0  0  0
  131.9170  124.8950   61.6870 C   0  0  0  0  0  0  0  0  0  0  0  0
  132.0090  124.7830   63.1230 C   0  0  0  0  0  0  0  0  0  0  0  0
  132.9550  124.0110   63.7470 N   0  0  0  0  0  0  0  0  0  0  0  0
  130.3530  126.8600   68.0030 N   0  0  0  0  0  0  0  0  0  0  0  0
  130.4158  127.2265   71.3164 H   0  0  0  0  0  0  0  0  0  0  0  0
  131.5431  126.3074   70.2623 H   0  0  0  0  0  0  0  0  0  0  0  0
  131.5763  128.1034   70.2623 H   0  0  0  0  0  0  0  0  0  0  0  0
  128.2476  127.9250   70.4630 H   0  0  0  0  0  0  0  0  0  0  0  0
  126.6442  127.9273   68.5301 H   0  0  0  0  0  0  0  0  0  0  0  0
  127.4530  127.2464   66.2579 H   0  0  0  0  0  0  0  0  0  0  0  0
  129.3060  126.9030   64.9190 H   0  0  0  0  0  0  0  0  0  0  0  0
  131.3586  124.0242   56.8046 H   0  0  0  0  0  0  0  0  0  0  0  0
  130.6775  124.6589   54.4995 H   0  0  0  0  0  0  0  0  0  0  0  0
  129.7201  126.9144   54.0622 H   0  0  0  0  0  0  0  0  0  0  0  0
  129.4537  128.5470   55.9245 H   0  0  0  0  0  0  0  0  0  0  0  0
  130.1428  127.9200   58.2298 H   0  0  0  0  0  0  0  0  0  0  0  0
  132.8425  124.2509   58.4605 H   0  0  0  0  0  0  0  0  0  0  0  0
  132.9230  123.8250   64.7400 H   0  0  0  0  0  0  0  0  0  0  0  0
  133.7220  123.6010   63.2320 H   0  0  0  0  0  0  0  0  0  0  0  0
  1  2  1  0
  2  3  2  0
  3  4  1  0
  4  5  2  0
  5  6  1  0
  6  7  1  0
  7  8  1  0
  8  9  2  0
  8 10  1  0
 10 11  1  0
 11 12  1  0
 12 13  2  0
 13 14  1  0
 14 15  1  0
 15 16  2  0
 16 17  1  0
 17 18  2  0
 18 19  1  0
 19 20  2  0
 14 21  2  0
 21 22  1  0
 22 23  1  0
 23 24  1  0
 23 25  1  0
 23 26  1  0
 22 27  2  0
 27 28  1  0
 28 29  1  0
  6 30  2  0
 30  2  1  0
 28 10  2  0
 27 12  1  0
 20 15  1  0
  1 31  1  0
  1 32  1  0
  1 33  1  0
  3 34  1  0
  4 35  1  0
  5 36  1  0
  7 37  1  0
 16 38  1  0
 17 39  1  0
 18 40  1  0
 19 41  1  0
 20 42  1  0
 21 43  1  0
 29 44  1  0
 29 45  1  0
M  END
>  <Binding energies>  (1) 
[-6.35]

>  <Ligand effiencies>  (1) 
[-0.19242424242424241]

>  <Interactions>  (1) 
["H-B:GLU:543:OE1:9881, V-B:TYR:539:CZ:9849, V-B:TYR:539:CE2:9848, V-A:LEU:475:CD2:4257, V-A:ASP:366:CG:3211, V-A:GLU:543:CD:4906, V-B:GLU:543:CD:9880, H-B:GLU:543:OE2:9882, H-A:GLU:543:OE2:4908, V-A:GLY:454:CA:4047, H-A:TYR:484:OH:4346, V-A:ILE:369:CB:3234, V-A:ILE:369:CG2:3235, V-A:ILE:369:CD1:3237, V-B:HIS:456:CE1:9042, V-A:HIS:456:CD2:4066, V-A:HIS:456:CG:4064, V-A:HIS:456:CE1:4068, V-A:GLY:544:C:4910, V-B:GLU:543:CG:9879, V-A:GLY:453:CA:4042, V-A:GLY:453:C:4040, V-A:GLU:543:CG:4905, V-B:GLU:543:CB:9878, V-A:GLY:544:CA:4912, V-A:ILE:369:CG1:3236, V-A:ARG:545:CA:4917"]

$$$$
4cf_Grossjean_2025
     RDKit          3D

 42 45  0  0  0  0  0  0  0  0999 V2000
  131.6410  122.5710   63.4180 N   0  0  0  0  0  0  0  0  0  0  0  0
  130.9640  123.5380   62.7200 C   0  0  0  0  0  0  0  0  0  0  0  0
  130.7860  124.8470   63.1960 C   0  0  0  0  0  0  0  0  0  0  0  0
  131.2190  125.4230   64.4730 C   0  0  0  0  0  0  0  0  0  0  0  0
  132.4040  125.3840   64.8070 O   0  0  0  0  0  0  0  0  0  0  0  0
  130.2390  125.9900   65.2160 N   0  0  0  0  0  0  0  0  0  0  0  0
  130.3070  126.5770   66.4940 C   0  0  0  0  0  0  0  0  0  0  0  0
  131.4240  127.2500   67.0250 C   0  0  0  0  0  0  0  0  0  0  0  0
  131.3630  127.7760   68.3180 C   0  0  0  0  0  0  0  0  0  0  0  0
  130.1860  127.6150   69.0500 C   0  0  0  0  0  0  0  0  0  0  0  0
  129.0980  126.9660   68.5640 N   0  0  0  0  0  0  0  0  0  0  0  0
  129.1730  126.4590   67.3070 C   0  0  0  0  0  0  0  0  0  0  0  0
  129.8770  125.8250   62.0450 S   0  0  0  0  0  0  0  0  0  0  0  0
  129.7370  124.4760   60.9420 C   0  0  0  0  0  0  0  0  0  0  0  0
  129.0910  124.5890   59.7830 N   0  0  0  0  0  0  0  0  0  0  0  0
  129.0210  123.4800   59.0010 C   0  0  0  0  0  0  0  0  0  0  0  0
  128.2810  123.6370   57.7040 C   0  0  0  0  0  0  0  0  0  0  0  0
  128.9700  123.9110   56.5130 C   0  0  0  0  0  0  0  0  0  0  0  0
  128.2910  124.0560   55.3060 C   0  0  0  0  0  0  0  0  0  0  0  0
  126.9070  123.9260   55.2740 C   0  0  0  0  0  0  0  0  0  0  0  0
  126.1980  123.6520   56.4390 C   0  0  0  0  0  0  0  0  0  0  0  0
  126.8820  123.5070   57.6430 C   0  0  0  0  0  0  0  0  0  0  0  0
  129.6190  122.2730   59.3730 C   0  0  0  0  0  0  0  0  0  0  0  0
  130.3060  122.1440   60.5900 C   0  0  0  0  0  0  0  0  0  0  0  0
  130.9330  120.7890   60.9390 C   0  0  0  0  0  0  0  0  0  0  0  0
  130.5380  120.3180   62.1230 F   0  0  0  0  0  0  0  0  0  0  0  0
  130.5970  119.8860   60.0180 F   0  0  0  0  0  0  0  0  0  0  0  0
  132.2610  120.9040   60.9790 F   0  0  0  0  0  0  0  0  0  0  0  0
  130.3710  123.2950   61.4280 C   0  0  0  0  0  0  0  0  0  0  0  0
  132.1030  122.7690   64.2940 H   0  0  0  0  0  0  0  0  0  0  0  0
  131.7000  121.6210   63.0770 H   0  0  0  0  0  0  0  0  0  0  0  0
  129.3180  126.0020   64.8030 H   0  0  0  0  0  0  0  0  0  0  0  0
  132.3394  127.3610   66.4253 H   0  0  0  0  0  0  0  0  0  0  0  0
  132.2248  128.3059   68.7499 H   0  0  0  0  0  0  0  0  0  0  0  0
  130.1380  128.0329   70.0664 H   0  0  0  0  0  0  0  0  0  0  0  0
  128.2972  125.9277   66.9061 H   0  0  0  0  0  0  0  0  0  0  0  0
  130.0651  124.0130   56.5330 H   0  0  0  0  0  0  0  0  0  0  0  0
  128.8470  124.2724   54.3819 H   0  0  0  0  0  0  0  0  0  0  0  0
  126.3693  124.0406   54.3212 H   0  0  0  0  0  0  0  0  0  0  0  0
  125.1031  123.5505   56.4092 H   0  0  0  0  0  0  0  0  0  0  0  0
  126.3187  123.2871   58.5619 H   0  0  0  0  0  0  0  0  0  0  0  0
  129.5499  121.4068   58.6985 H   0  0  0  0  0  0  0  0  0  0  0  0
  1  2  1  0
  2  3  2  0
  3  4  1  0
  4  5  2  0
  4  6  1  0
  6  7  1  0
  7  8  2  0
  8  9  1  0
  9 10  2  0
 10 11  1  0
 11 12  2  0
  3 13  1  0
 13 14  1  0
 14 15  2  0
 15 16  1  0
 16 17  1  0
 17 18  2  0
 18 19  1  0
 19 20  2  0
 20 21  1  0
 21 22  2  0
 16 23  2  0
 23 24  1  0
 24 25  1  0
 25 26  1  0
 25 27  1  0
 25 28  1  0
 24 29  2  0
 29  2  1  0
 12  7  1  0
 29 14  1  0
 22 17  1  0
  1 30  1  0
  1 31  1  0
  6 32  1  0
  8 33  1  0
  9 34  1  0
 10 35  1  0
 12 36  1  0
 18 37  1  0
 19 38  1  0
 20 39  1  0
 21 40  1  0
 22 41  1  0
 23 42  1  0
M  END
>  <Binding energies>  (1) 
[-6.44]

>  <Ligand effiencies>  (1) 
[-0.20125]

>  <Interactions>  (1) 
["V-B:PRO:540:N:9856, V-A:TRP:381:CZ2:3368, H-B:GLU:543:OE1:9881, V-B:TYR:539:CZ:9849, V-A:TRP:381:CH2:3370, V-B:ALA:541:CB:9864, V-B:PRO:540:CA:9855, V-B:TYR:539:CE2:9848, V-A:LEU:475:CD2:4257, V-B:TYR:539:CE1:9847, V-A:PRO:482:CB:4324, V-B:TYR:539:CD2:9846, V-A:GLU:543:CD:4906, V-B:GLU:543:CD:9880, V-B:TYR:539:C:9839, H-B:GLU:543:OE2:9882, H-A:GLU:543:OE2:4908, V-A:ARG:545:CD:4921, H-A:TYR:484:OH:4346, H-A:ARG:545:NE:4922, V-B:TYR:539:CG:9844, V-A:HIS:456:CE1:4068, V-A:GLY:544:C:4910, V-B:GLU:543:CG:9879, V-B:GLU:543:C:9874, V-A:ARG:545:CG:4920, V-A:GLU:543:CG:4905, V-A:TYR:484:CZ:4345, V-B:GLU:543:CB:9878, V-A:GLU:543:C:4900, V-A:ARG:545:CA:4917, V-A:ARG:545:CB:4919, V-A:LEU:475:CG:4255, V-A:LEU:475:CD1:4256, V-A:TRP:381:CZ3:3369"]

$$$$
4cg_Grossjean_2025
     RDKit          3D

 46 49  0  0  0  0  0  0  0  0999 V2000
  131.9850  122.4620   63.3690 N   0  0  0  0  0  0  0  0  0  0  0  0
  131.2040  123.4210   62.7780 C   0  0  0  0  0  0  0  0  0  0  0  0
  131.0600  124.7180   63.2920 C   0  0  0  0  0  0  0  0  0  0  0  0
  131.7040  125.3120   64.4620 C   0  0  0  0  0  0  0  0  0  0  0  0
  132.8810  125.0700   64.7400 O   0  0  0  0  0  0  0  0  0  0  0  0
  130.9240  126.1000   65.2310 N   0  0  0  0  0  0  0  0  0  0  0  0
  131.3600  126.8120   66.4310 C   0  0  0  0  0  0  0  0  0  0  0  0
  130.2320  127.0800   67.4210 C   0  0  0  0  0  0  0  0  0  0  0  0
  130.5260  127.2610   68.7750 C   0  0  0  0  0  0  0  0  0  0  0  0
  129.5010  127.5380   69.6780 C   0  0  0  0  0  0  0  0  0  0  0  0
  128.1900  127.6410   69.2220 C   0  0  0  0  0  0  0  0  0  0  0  0
  127.8930  127.4770   67.8700 C   0  0  0  0  0  0  0  0  0  0  0  0
  128.9160  127.2030   66.9670 C   0  0  0  0  0  0  0  0  0  0  0  0
  130.0040  125.6980   62.2770 S   0  0  0  0  0  0  0  0  0  0  0  0
  129.7440  124.3580   61.1840 C   0  0  0  0  0  0  0  0  0  0  0  0
  128.9620  124.4770   60.1150 N   0  0  0  0  0  0  0  0  0  0  0  0
  128.8230  123.3840   59.3200 C   0  0  0  0  0  0  0  0  0  0  0  0
  127.9330  123.5500   58.1220 C   0  0  0  0  0  0  0  0  0  0  0  0
  126.5830  123.9100   58.2700 C   0  0  0  0  0  0  0  0  0  0  0  0
  125.7540  124.0650   57.1630 C   0  0  0  0  0  0  0  0  0  0  0  0
  126.2630  123.8580   55.8850 C   0  0  0  0  0  0  0  0  0  0  0  0
  127.5950  123.4980   55.7090 C   0  0  0  0  0  0  0  0  0  0  0  0
  128.4200  123.3450   56.8190 C   0  0  0  0  0  0  0  0  0  0  0  0
  129.4560  122.1710   59.6160 C   0  0  0  0  0  0  0  0  0  0  0  0
  130.2820  122.0340   60.7420 C   0  0  0  0  0  0  0  0  0  0  0  0
  130.9440  120.6770   61.0070 C   0  0  0  0  0  0  0  0  0  0  0  0
  130.6110  119.7480   60.1090 F   0  0  0  0  0  0  0  0  0  0  0  0
  132.2710  120.8090   60.9730 F   0  0  0  0  0  0  0  0  0  0  0  0
  130.5780  120.2230   62.2050 F   0  0  0  0  0  0  0  0  0  0  0  0
  130.4470  123.1800   61.5740 C   0  0  0  0  0  0  0  0  0  0  0  0
  132.5320  122.6520   64.1970 H   0  0  0  0  0  0  0  0  0  0  0  0
  132.0330  121.5220   62.9990 H   0  0  0  0  0  0  0  0  0  0  0  0
  129.9940  126.3130   64.9030 H   0  0  0  0  0  0  0  0  0  0  0  0
  132.1292  126.2079   66.9344 H   0  0  0  0  0  0  0  0  0  0  0  0
  131.7451  127.7898   66.1059 H   0  0  0  0  0  0  0  0  0  0  0  0
  131.5651  127.1850   69.1278 H   0  0  0  0  0  0  0  0  0  0  0  0
  129.7271  127.6745   70.7458 H   0  0  0  0  0  0  0  0  0  0  0  0
  127.3803  127.8539   69.9355 H   0  0  0  0  0  0  0  0  0  0  0  0
  126.8544  127.5638   67.5182 H   0  0  0  0  0  0  0  0  0  0  0  0
  128.6890  127.0834   65.8973 H   0  0  0  0  0  0  0  0  0  0  0  0
  126.1743  124.0721   59.2783 H   0  0  0  0  0  0  0  0  0  0  0  0
  124.7002  124.3501   57.2980 H   0  0  0  0  0  0  0  0  0  0  0  0
  125.6087  123.9796   55.0091 H   0  0  0  0  0  0  0  0  0  0  0  0
  127.9943  123.3350   54.6971 H   0  0  0  0  0  0  0  0  0  0  0  0
  129.4722  123.0585   56.6745 H   0  0  0  0  0  0  0  0  0  0  0  0
  129.3027  121.3074   58.9522 H   0  0  0  0  0  0  0  0  0  0  0  0
  1  2  1  0
  2  3  2  0
  3  4  1  0
  4  5  2  0
  4  6  1  0
  6  7  1  0
  7  8  1  0
  8  9  2  0
  9 10  1  0
 10 11  2  0
 11 12  1  0
 12 13  2  0
  3 14  1  0
 14 15  1  0
 15 16  2  0
 16 17  1  0
 17 18  1  0
 18 19  2  0
 19 20  1  0
 20 21  2  0
 21 22  1  0
 22 23  2  0
 17 24  2  0
 24 25  1  0
 25 26  1  0
 26 27  1  0
 26 28  1  0
 26 29  1  0
 25 30  2  0
 30  2  1  0
 13  8  1  0
 30 15  1  0
 23 18  1  0
  1 31  1  0
  1 32  1  0
  6 33  1  0
  7 34  1  0
  7 35  1  0
  9 36  1  0
 10 37  1  0
 11 38  1  0
 12 39  1  0
 13 40  1  0
 19 41  1  0
 20 42  1  0
 21 43  1  0
 22 44  1  0
 23 45  1  0
 24 46  1  0
M  END
>  <Binding energies>  (1) 
[-8.11]

>  <Ligand effiencies>  (1) 
[-0.24575757575757573]

>  <Interactions>  (1) 
["V-B:PRO:540:N:9856, V-A:TRP:381:CZ2:3368, H-B:GLU:543:OE1:9881, V-B:TYR:539:CZ:9849, V-A:TRP:381:CH2:3370, V-B:ALA:541:CB:9864, V-B:PRO:540:CA:9855, V-B:TYR:539:CE2:9848, V-A:LEU:475:CD2:4257, V-B:TYR:539:CE1:9847, V-A:PRO:482:CB:4324, V-B:TYR:539:CD1:9845, V-B:TYR:539:CD2:9846, V-A:GLU:543:CD:4906, V-B:GLU:543:CD:9880, V-B:TYR:539:C:9839, H-B:GLU:543:OE2:9882, V-A:ARG:545:CZ:4924, H-A:GLU:543:OE2:4908, V-A:GLY:454:CA:4047, V-A:ARG:545:CD:4921, H-A:TYR:484:OH:4346, H-A:ARG:545:NE:4922, V-B:TYR:539:CG:9844, V-B:HIS:456:CE1:9042, V-A:HIS:456:CE1:4068, V-B:GLU:543:CG:9879, V-A:ARG:545:CG:4920, V-A:GLU:543:CG:4905, V-A:TYR:484:CZ:4345, V-B:GLU:543:CB:9878, V-A:GLU:543:C:4900, V-A:LEU:475:CG:4255, V-A:LEU:475:CD1:4256, V-A:TRP:381:CZ3:3369"]

$$$$
4ch_Grossjean_2025
     RDKit          3D

 58 61  0  0  0  0  0  0  0  0999 V2000
  126.5010  128.3800   66.5630 C   0  0  0  0  0  0  0  0  0  0  0  0
  126.9320  127.4660   67.5660 O   0  0  0  0  0  0  0  0  0  0  0  0
  128.2770  127.3890   67.8800 C   0  0  0  0  0  0  0  0  0  0  0  0
  129.2770  127.0280   66.9620 C   0  0  0  0  0  0  0  0  0  0  0  0
  130.6170  126.9730   67.3490 C   0  0  0  0  0  0  0  0  0  0  0  0
  131.6850  126.5510   66.3470 C   0  0  0  0  0  0  0  0  0  0  0  0
  131.1590  125.8960   65.1480 N   0  0  0  0  0  0  0  0  0  0  0  0
  131.9000  125.3000   64.1910 C   0  0  0  0  0  0  0  0  0  0  0  0
  133.1290  125.2280   64.2530 O   0  0  0  0  0  0  0  0  0  0  0  0
  131.1550  124.7070   63.0800 C   0  0  0  0  0  0  0  0  0  0  0  0
  130.0370  125.6910   62.1410 S   0  0  0  0  0  0  0  0  0  0  0  0
  129.6460  124.3380   61.1070 C   0  0  0  0  0  0  0  0  0  0  0  0
  128.7710  124.4540   60.1120 N   0  0  0  0  0  0  0  0  0  0  0  0
  128.5350  123.3490   59.3580 C   0  0  0  0  0  0  0  0  0  0  0  0
  127.5370  123.5120   58.2470 C   0  0  0  0  0  0  0  0  0  0  0  0
  127.9090  123.3020   56.9090 C   0  0  0  0  0  0  0  0  0  0  0  0
  126.9890  123.4520   55.8750 C   0  0  0  0  0  0  0  0  0  0  0  0
  125.6790  123.8170   56.1640 C   0  0  0  0  0  0  0  0  0  0  0  0
  125.2850  124.0360   57.4800 C   0  0  0  0  0  0  0  0  0  0  0  0
  126.2080  123.8860   58.5110 C   0  0  0  0  0  0  0  0  0  0  0  0
  129.1670  122.1290   59.6170 C   0  0  0  0  0  0  0  0  0  0  0  0
  130.0920  121.9940   60.6650 C   0  0  0  0  0  0  0  0  0  0  0  0
  130.7490  120.6290   60.8950 C   0  0  0  0  0  0  0  0  0  0  0  0
  130.5330  120.1420   62.1190 F   0  0  0  0  0  0  0  0  0  0  0  0
  130.2670  119.7440   60.0240 F   0  0  0  0  0  0  0  0  0  0  0  0
  132.0680  120.7300   60.7340 F   0  0  0  0  0  0  0  0  0  0  0  0
  130.3560  123.1500   61.4540 C   0  0  0  0  0  0  0  0  0  0  0  0
  131.2220  123.3960   62.5820 C   0  0  0  0  0  0  0  0  0  0  0  0
  132.0310  122.4290   63.1230 N   0  0  0  0  0  0  0  0  0  0  0  0
  130.9650  127.2640   68.6690 C   0  0  0  0  0  0  0  0  0  0  0  0
  129.9860  127.6270   69.6070 C   0  0  0  0  0  0  0  0  0  0  0  0
  130.2590  127.9300   70.9290 O   0  0  0  0  0  0  0  0  0  0  0  0
  130.6230  126.8850   71.8250 C   0  0  0  0  0  0  0  0  0  0  0  0
  128.6460  127.6920   69.1980 C   0  0  0  0  0  0  0  0  0  0  0  0
  127.6760  128.0310   70.1100 O   0  0  0  0  0  0  0  0  0  0  0  0
  127.6800  127.2290   71.2840 C   0  0  0  0  0  0  0  0  0  0  0  0
  126.0784  129.2762   67.0408 H   0  0  0  0  0  0  0  0  0  0  0  0
  127.3582  128.6681   65.9367 H   0  0  0  0  0  0  0  0  0  0  0  0
  125.7335  127.9019   65.9367 H   0  0  0  0  0  0  0  0  0  0  0  0
  129.0007  126.7856   65.9252 H   0  0  0  0  0  0  0  0  0  0  0  0
  132.2387  127.4487   66.0347 H   0  0  0  0  0  0  0  0  0  0  0  0
  132.3217  125.8127   66.8564 H   0  0  0  0  0  0  0  0  0  0  0  0
  130.1620  125.9650   65.0060 H   0  0  0  0  0  0  0  0  0  0  0  0
  128.9444  123.0142   56.6742 H   0  0  0  0  0  0  0  0  0  0  0  0
  127.2975  123.2823   54.8329 H   0  0  0  0  0  0  0  0  0  0  0  0
  124.9505  123.9332   55.3480 H   0  0  0  0  0  0  0  0  0  0  0  0
  124.2482  124.3265   57.7050 H   0  0  0  0  0  0  0  0  0  0  0  0
  125.8921  124.0631   59.5497 H   0  0  0  0  0  0  0  0  0  0  0  0
  128.9350  121.2574   58.9873 H   0  0  0  0  0  0  0  0  0  0  0  0
  132.5030  121.7440   62.5490 H   0  0  0  0  0  0  0  0  0  0  0  0
  132.1850  122.3710   64.1200 H   0  0  0  0  0  0  0  0  0  0  0  0
  132.0193  127.2082   68.9779 H   0  0  0  0  0  0  0  0  0  0  0  0
  130.5021  127.2322   72.8617 H   0  0  0  0  0  0  0  0  0  0  0  0
  129.9759  126.0123   71.6527 H   0  0  0  0  0  0  0  0  0  0  0  0
  131.6722  126.6032   71.6527 H   0  0  0  0  0  0  0  0  0  0  0  0
  127.6768  127.8785   72.1718 H   0  0  0  0  0  0  0  0  0  0  0  0
  126.7850  126.5895   71.2943 H   0  0  0  0  0  0  0  0  0  0  0  0
  128.5813  126.5985   71.2943 H   0  0  0  0  0  0  0  0  0  0  0  0
  1  2  1  0
  2  3  1  0
  3  4  2  0
  4  5  1  0
  5  6  1  0
  6  7  1  0
  7  8  1  0
  8  9  2  0
  8 10  1  0
 10 11  1  0
 11 12  1  0
 12 13  2  0
 13 14  1  0
 14 15  1  0
 15 16  2  0
 16 17  1  0
 17 18  2  0
 18 19  1  0
 19 20  2  0
 14 21  2  0
 21 22  1  0
 22 23  1  0
 23 24  1  0
 23 25  1  0
 23 26  1  0
 22 27  2  0
 27 28  1  0
 28 29  1  0
  5 30  2  0
 30 31  1  0
 31 32  1  0
 32 33  1  0
 31 34  2  0
 34 35  1  0
 35 36  1  0
 34  3  1  0
 28 10  2  0
 27 12  1  0
 20 15  1  0
  1 37  1  0
  1 38  1  0
  1 39  1  0
  4 40  1  0
  6 41  1  0
  6 42  1  0
  7 43  1  0
 16 44  1  0
 17 45  1  0
 18 46  1  0
 19 47  1  0
 20 48  1  0
 21 49  1  0
 29 50  1  0
 29 51  1  0
 30 52  1  0
 33 53  1  0
 33 54  1  0
 33 55  1  0
 36 56  1  0
 36 57  1  0
 36 58  1  0
M  END
>  <Binding energies>  (1) 
[-7.08]

>  <Ligand effiencies>  (1) 
[-0.18153846153846154]

>  <Interactions>  (1) 
["V-B:PRO:540:N:9856, V-A:TRP:381:CZ2:3368, H-B:GLU:543:OE1:9881, V-A:TRP:381:CH2:3370, V-B:ALA:541:CB:9864, V-B:PRO:540:CB:9857, V-B:PRO:540:CA:9855, V-B:TYR:539:CE2:9848, V-A:LEU:475:CD2:4257, V-A:PRO:482:CB:4324, V-B:TYR:539:CD2:9846, V-A:GLU:543:CD:4906, V-B:GLU:543:CD:9880, V-B:TYR:539:C:9839, H-B:GLU:543:OE2:9882, V-A:ARG:545:CZ:4924, H-A:GLU:543:OE2:4908, V-A:GLY:454:CA:4047, V-A:ARG:545:CD:4921, H-A:TYR:484:OH:4346, H-A:ARG:545:NE:4922, H-A:GLY:454:N:4048, V-B:TYR:539:CG:9844, H-A:ARG:545:NH2:4926, V-B:HIS:456:CE1:9042, V-A:HIS:456:CD2:4066, V-B:GLY:544:C:9884, V-A:HIS:456:CG:4064, V-A:HIS:456:CE1:4068, V-A:GLY:544:C:4910, V-B:GLY:544:CA:9886, V-B:GLU:543:CG:9879, V-A:ARG:545:CG:4920, V-A:GLU:543:CG:4905, V-B:ARG:545:CG:9894, V-B:GLU:543:CB:9878, V-A:GLU:543:C:4900, V-B:ARG:545:CD:9895, V-A:LEU:475:CG:4255, V-A:LEU:475:CD1:4256, V-A:TRP:381:CZ3:3369, H-B:HIS:456:ND1:9039"]

$$$$
4ci_Grossjean_2025
     RDKit          3D

 39 42  0  0  0  0  0  0  0  0999 V2000
  131.5810  122.2920   63.3490 N   0  0  0  0  0  0  0  0  0  0  0  0
  130.9210  123.2730   62.6570 C   0  0  0  0  0  0  0  0  0  0  0  0
  130.7830  124.5890   63.1300 C   0  0  0  0  0  0  0  0  0  0  0  0
  131.2890  125.1680   64.3770 C   0  0  0  0  0  0  0  0  0  0  0  0
  132.4630  125.0020   64.7160 O   0  0  0  0  0  0  0  0  0  0  0  0
  130.3840  125.8680   65.1060 N   0  0  0  0  0  0  0  0  0  0  0  0
  130.5920  126.5140   66.3180 C   0  0  0  0  0  0  0  0  0  0  0  0
  129.6070  126.6310   67.2980 C   0  0  0  0  0  0  0  0  0  0  0  0
  130.2030  127.3270   68.3240 C   0  0  0  0  0  0  0  0  0  0  0  0
  131.4820  127.6140   67.9800 O   0  0  0  0  0  0  0  0  0  0  0  0
  131.7160  127.0940   66.7060 N   0  0  0  0  0  0  0  0  0  0  0  0
  129.8890  125.5860   61.9860 S   0  0  0  0  0  0  0  0  0  0  0  0
  129.6980  124.2380   60.8890 C   0  0  0  0  0  0  0  0  0  0  0  0
  129.0500  124.3670   59.7350 N   0  0  0  0  0  0  0  0  0  0  0  0
  128.9560  123.2640   58.9470 C   0  0  0  0  0  0  0  0  0  0  0  0
  128.2140  123.4400   57.6530 C   0  0  0  0  0  0  0  0  0  0  0  0
  128.8980  123.7560   56.4670 C   0  0  0  0  0  0  0  0  0  0  0  0
  128.2160  123.9190   55.2640 C   0  0  0  0  0  0  0  0  0  0  0  0
  126.8330  123.7690   55.2300 C   0  0  0  0  0  0  0  0  0  0  0  0
  126.1300  123.4620   56.3890 C   0  0  0  0  0  0  0  0  0  0  0  0
  126.8160  123.3010   57.5900 C   0  0  0  0  0  0  0  0  0  0  0  0
  129.4990  122.0340   59.3320 C   0  0  0  0  0  0  0  0  0  0  0  0
  130.1860  121.8870   60.5480 C   0  0  0  0  0  0  0  0  0  0  0  0
  130.7560  120.5100   60.9060 C   0  0  0  0  0  0  0  0  0  0  0  0
  130.4540  119.5680   60.0100 F   0  0  0  0  0  0  0  0  0  0  0  0
  132.0850  120.5790   60.9780 F   0  0  0  0  0  0  0  0  0  0  0  0
  130.2720  120.1130   62.0830 F   0  0  0  0  0  0  0  0  0  0  0  0
  130.3010  123.0400   61.3750 C   0  0  0  0  0  0  0  0  0  0  0  0
  132.1320  122.4950   64.1720 H   0  0  0  0  0  0  0  0  0  0  0  0
  131.5330  121.3230   63.0620 H   0  0  0  0  0  0  0  0  0  0  0  0
  129.4480  125.9320   64.7360 H   0  0  0  0  0  0  0  0  0  0  0  0
  128.5761  126.2492   67.2591 H   0  0  0  0  0  0  0  0  0  0  0  0
  129.7191  127.6059   69.2716 H   0  0  0  0  0  0  0  0  0  0  0  0
  129.9911  123.8767   56.4893 H   0  0  0  0  0  0  0  0  0  0  0  0
  128.7679  124.1652   54.3449 H   0  0  0  0  0  0  0  0  0  0  0  0
  126.2928  123.8942   54.2800 H   0  0  0  0  0  0  0  0  0  0  0  0
  125.0365  123.3467   56.3577 H   0  0  0  0  0  0  0  0  0  0  0  0
  126.2548  123.0610   58.5051 H   0  0  0  0  0  0  0  0  0  0  0  0
  129.3856  121.1638   58.6687 H   0  0  0  0  0  0  0  0  0  0  0  0
  1  2  1  0
  2  3  2  0
  3  4  1  0
  4  5  2  0
  4  6  1  0
  6  7  1  0
  7  8  1  0
  8  9  2  0
  9 10  1  0
 10 11  1  0
  3 12  1  0
 12 13  1  0
 13 14  2  0
 14 15  1  0
 15 16  1  0
 16 17  2  0
 17 18  1  0
 18 19  2  0
 19 20  1  0
 20 21  2  0
 15 22  2  0
 22 23  1  0
 23 24  1  0
 24 25  1  0
 24 26  1  0
 24 27  1  0
 23 28  2  0
 28  2  1  0
 11  7  2  0
 28 13  1  0
 21 16  1  0
  1 29  1  0
  1 30  1  0
  6 31  1  0
  8 32  1  0
  9 33  1  0
 17 34  1  0
 18 35  1  0
 19 36  1  0
 20 37  1  0
 21 38  1  0
 22 39  1  0
M  END
>  <Binding energies>  (1) 
[-6.99]

>  <Ligand effiencies>  (1) 
[-0.22548387096774195]

>  <Interactions>  (1) 
["V-B:PRO:540:N:9856, V-A:TRP:381:CZ2:3368, H-B:GLU:543:OE1:9881, V-B:TYR:539:CZ:9849, V-A:TRP:381:CH2:3370, V-B:ILE:538:CA:9832, V-B:ALA:541:CB:9864, V-B:PRO:540:CA:9855, V-B:ALA:541:CA:9862, V-B:TYR:539:CE2:9848, V-A:LEU:475:CD2:4257, V-B:TYR:539:CE1:9847, V-A:PRO:482:CB:4324, V-B:TYR:539:CD1:9845, V-B:TYR:539:CD2:9846, V-A:GLU:543:CD:4906, V-B:GLU:543:CD:9880, V-B:TYR:539:C:9839, H-B:GLU:543:OE2:9882, H-A:GLU:543:OE2:4908, H-A:TYR:484:OH:4346, H-A:ARG:545:NE:4922, V-B:TYR:539:CG:9844, V-A:HIS:456:CE1:4068, V-B:GLU:543:CG:9879, V-A:GLU:543:CG:4905, V-A:TYR:484:CZ:4345, V-B:GLU:543:CB:9878, V-A:LEU:475:CG:4255, V-A:LEU:475:CD1:4256, V-A:TRP:381:CZ3:3369, H-A:ARG:545:N:4918"]

$$$$
4cj_Grossjean_2025
     RDKit          3D

 39 42  0  0  0  0  0  0  0  0999 V2000
  131.4610  122.3170   63.4230 N   0  0  0  0  0  0  0  0  0  0  0  0
  130.8810  123.3290   62.7020 C   0  0  0  0  0  0  0  0  0  0  0  0
  130.7700  124.6460   63.1780 C   0  0  0  0  0  0  0  0  0  0  0  0
  131.2240  125.1960   64.4570 C   0  0  0  0  0  0  0  0  0  0  0  0
  132.3740  124.9960   64.8570 O   0  0  0  0  0  0  0  0  0  0  0  0
  130.3000  125.9120   65.1450 N   0  0  0  0  0  0  0  0  0  0  0  0
  130.4730  126.5350   66.3740 C   0  0  0  0  0  0  0  0  0  0  0  0
  131.5390  127.1700   66.8130 N   0  0  0  0  0  0  0  0  0  0  0  0
  131.3530  127.6440   68.0290 C   0  0  0  0  0  0  0  0  0  0  0  0
  130.1090  127.3960   68.6030 C   0  0  0  0  0  0  0  0  0  0  0  0
  129.1380  126.4920   67.4800 S   0  0  0  0  0  0  0  0  0  0  0  0
  129.9850  125.6870   61.9930 S   0  0  0  0  0  0  0  0  0  0  0  0
  129.8100  124.3560   60.8740 C   0  0  0  0  0  0  0  0  0  0  0  0
  129.2430  124.5220   59.6820 N   0  0  0  0  0  0  0  0  0  0  0  0
  129.1580  123.4320   58.8760 C   0  0  0  0  0  0  0  0  0  0  0  0
  128.5240  123.6560   57.5340 C   0  0  0  0  0  0  0  0  0  0  0  0
  127.2000  123.2570   57.2880 C   0  0  0  0  0  0  0  0  0  0  0  0
  126.6080  123.4570   56.0440 C   0  0  0  0  0  0  0  0  0  0  0  0
  127.3360  124.0590   55.0220 C   0  0  0  0  0  0  0  0  0  0  0  0
  128.6490  124.4610   55.2370 C   0  0  0  0  0  0  0  0  0  0  0  0
  129.2360  124.2600   56.4840 C   0  0  0  0  0  0  0  0  0  0  0  0
  129.6200  122.1760   59.2820 C   0  0  0  0  0  0  0  0  0  0  0  0
  130.2190  121.9890   60.5380 C   0  0  0  0  0  0  0  0  0  0  0  0
  130.7070  120.5860   60.9180 C   0  0  0  0  0  0  0  0  0  0  0  0
  130.2680  120.1840   62.1120 F   0  0  0  0  0  0  0  0  0  0  0  0
  130.2800  119.7020   60.0170 F   0  0  0  0  0  0  0  0  0  0  0  0
  132.0400  120.5670   60.9550 F   0  0  0  0  0  0  0  0  0  0  0  0
  130.3310  123.1310   61.3830 C   0  0  0  0  0  0  0  0  0  0  0  0
  131.3360  121.3440   63.1760 H   0  0  0  0  0  0  0  0  0  0  0  0
  132.0420  122.5110   64.2270 H   0  0  0  0  0  0  0  0  0  0  0  0
  129.3820  125.9990   64.7340 H   0  0  0  0  0  0  0  0  0  0  0  0
  132.1366  128.2040   68.5603 H   0  0  0  0  0  0  0  0  0  0  0  0
  129.7919  127.7199   69.6053 H   0  0  0  0  0  0  0  0  0  0  0  0
  126.6212  122.7785   58.0917 H   0  0  0  0  0  0  0  0  0  0  0  0
  125.5691  123.1405   55.8695 H   0  0  0  0  0  0  0  0  0  0  0  0
  126.8696  124.2176   54.0385 H   0  0  0  0  0  0  0  0  0  0  0  0
  129.2216  124.9355   54.4265 H   0  0  0  0  0  0  0  0  0  0  0  0
  130.2754  124.5798   56.6497 H   0  0  0  0  0  0  0  0  0  0  0  0
  129.5119  121.3170   58.6034 H   0  0  0  0  0  0  0  0  0  0  0  0
  1  2  1  0
  2  3  2  0
  3  4  1  0
  4  5  2  0
  4  6  1  0
  6  7  1  0
  7  8  2  0
  8  9  1  0
  9 10  2  0
 10 11  1  0
  3 12  1  0
 12 13  1  0
 13 14  2  0
 14 15  1  0
 15 16  1  0
 16 17  2  0
 17 18  1  0
 18 19  2  0
 19 20  1  0
 20 21  2  0
 15 22  2  0
 22 23  1  0
 23 24  1  0
 24 25  1  0
 24 26  1  0
 24 27  1  0
 23 28  2  0
 28  2  1  0
 11  7  1  0
 28 13  1  0
 21 16  1  0
  1 29  1  0
  1 30  1  0
  6 31  1  0
  9 32  1  0
 10 33  1  0
 17 34  1  0
 18 35  1  0
 19 36  1  0
 20 37  1  0
 21 38  1  0
 22 39  1  0
M  END
>  <Binding energies>  (1) 
[-6.58]

>  <Ligand effiencies>  (1) 
[-0.21225806451612902]

>  <Interactions>  (1) 
["V-B:PRO:540:N:9856, V-A:TRP:381:CZ2:3368, H-B:GLU:543:OE1:9881, V-B:TYR:539:CZ:9849, V-A:TRP:381:CH2:3370, V-B:ALA:541:CB:9864, V-B:PRO:540:CA:9855, V-B:ALA:541:CA:9862, V-B:TYR:539:CE2:9848, V-A:LEU:475:CD2:4257, V-B:TYR:539:CE1:9847, V-A:PRO:482:CB:4324, V-B:TYR:539:CD2:9846, V-A:GLU:543:CD:4906, V-B:GLU:543:CD:9880, V-B:TYR:539:C:9839, H-B:GLU:543:OE2:9882, H-A:GLU:543:OE2:4908, H-A:TYR:484:OH:4346, H-A:ARG:545:NE:4922, V-B:TYR:539:CG:9844, V-A:HIS:456:CE1:4068, V-A:GLY:544:C:4910, V-B:GLU:543:CG:9879, V-B:GLU:543:C:9874, V-A:ARG:545:CG:4920, V-A:GLU:543:CG:4905, V-A:TYR:484:CZ:4345, V-B:GLU:543:CB:9878, V-A:GLU:543:C:4900, V-A:ARG:545:CA:4917, V-A:LEU:475:CG:4255, V-A:LEU:475:CD1:4256, V-A:TRP:381:CZ3:3369"]

$$$$
4ck_Grossjean_2025
     RDKit          3D

 57 59  0  0  0  0  0  0  0  0999 V2000
  126.7560  129.8040   74.2410 C   0  0  0  0  0  0  0  0  0  0  0  0
  127.8630  129.1680   73.6210 O   0  0  0  0  0  0  0  0  0  0  0  0
  127.5010  128.3660   72.5050 C   0  0  0  0  0  0  0  0  0  0  0  0
  128.5780  127.2960   72.2870 C   0  0  0  0  0  0  0  0  0  0  0  0
  129.6080  127.8350   71.4710 O   0  0  0  0  0  0  0  0  0  0  0  0
  129.8270  127.1010   70.2730 C   0  0  0  0  0  0  0  0  0  0  0  0
  128.8800  127.6220   69.1840 C   0  0  0  0  0  0  0  0  0  0  0  0
  129.5830  127.6660   67.9500 O   0  0  0  0  0  0  0  0  0  0  0  0
  129.7970  126.3880   67.3640 C   0  0  0  0  0  0  0  0  0  0  0  0
  130.9360  126.4750   66.3380 C   0  0  0  0  0  0  0  0  0  0  0  0
  130.6010  125.7990   65.0840 N   0  0  0  0  0  0  0  0  0  0  0  0
  131.4470  125.0640   64.3320 C   0  0  0  0  0  0  0  0  0  0  0  0
  132.6190  124.8610   64.6550 O   0  0  0  0  0  0  0  0  0  0  0  0
  130.8860  124.5040   63.1020 C   0  0  0  0  0  0  0  0  0  0  0  0
  130.0170  125.5420   61.9740 S   0  0  0  0  0  0  0  0  0  0  0  0
  129.7730  124.2090   60.8700 C   0  0  0  0  0  0  0  0  0  0  0  0
  129.1210  124.3690   59.7220 N   0  0  0  0  0  0  0  0  0  0  0  0
  128.9790  123.2750   58.9280 C   0  0  0  0  0  0  0  0  0  0  0  0
  128.2550  123.4930   57.6310 C   0  0  0  0  0  0  0  0  0  0  0  0
  126.8600  123.3540   57.5540 C   0  0  0  0  0  0  0  0  0  0  0  0
  126.1820  123.5520   56.3540 C   0  0  0  0  0  0  0  0  0  0  0  0
  126.8930  123.8950   55.2090 C   0  0  0  0  0  0  0  0  0  0  0  0
  128.2750  124.0450   55.2580 C   0  0  0  0  0  0  0  0  0  0  0  0
  128.9490  123.8460   56.4610 C   0  0  0  0  0  0  0  0  0  0  0  0
  129.5010  122.0280   59.2890 C   0  0  0  0  0  0  0  0  0  0  0  0
  130.1900  121.8480   60.4990 C   0  0  0  0  0  0  0  0  0  0  0  0
  130.7320  120.4530   60.8340 C   0  0  0  0  0  0  0  0  0  0  0  0
  130.3440  119.5180   59.9650 F   0  0  0  0  0  0  0  0  0  0  0  0
  132.0640  120.4750   60.8290 F   0  0  0  0  0  0  0  0  0  0  0  0
  130.3020  120.0810   62.0390 F   0  0  0  0  0  0  0  0  0  0  0  0
  130.3420  122.9880   61.3390 C   0  0  0  0  0  0  0  0  0  0  0  0
  130.9800  123.1900   62.6180 C   0  0  0  0  0  0  0  0  0  0  0  0
  131.6160  122.1840   63.2980 N   0  0  0  0  0  0  0  0  0  0  0  0
  126.8628  129.7426   75.3341 H   0  0  0  0  0  0  0  0  0  0  0  0
  126.7210  130.8599   73.9347 H   0  0  0  0  0  0  0  0  0  0  0  0
  125.8262  129.3024   73.9347 H   0  0  0  0  0  0  0  0  0  0  0  0
  126.5330  127.8806   72.6985 H   0  0  0  0  0  0  0  0  0  0  0  0
  127.4166  128.9959   71.6072 H   0  0  0  0  0  0  0  0  0  0  0  0
  128.9975  126.9921   73.2574 H   0  0  0  0  0  0  0  0  0  0  0  0
  128.1348  126.4182   71.7940 H   0  0  0  0  0  0  0  0  0  0  0  0
  130.8696  127.2306   69.9471 H   0  0  0  0  0  0  0  0  0  0  0  0
  129.6333  126.0331   70.4523 H   0  0  0  0  0  0  0  0  0  0  0  0
  128.0149  126.9487   69.0931 H   0  0  0  0  0  0  0  0  0  0  0  0
  128.5241  128.6288   69.4480 H   0  0  0  0  0  0  0  0  0  0  0  0
  130.0660  125.6659   68.1490 H   0  0  0  0  0  0  0  0  0  0  0  0
  128.8763  126.0588   66.8601 H   0  0  0  0  0  0  0  0  0  0  0  0
  131.1418  127.5345   66.1257 H   0  0  0  0  0  0  0  0  0  0  0  0
  131.8169  125.9752   66.7671 H   0  0  0  0  0  0  0  0  0  0  0  0
  129.6330  125.8470   64.8010 H   0  0  0  0  0  0  0  0  0  0  0  0
  126.2930  123.0841   58.4571 H   0  0  0  0  0  0  0  0  0  0  0  0
  125.0888  123.4376   56.3118 H   0  0  0  0  0  0  0  0  0  0  0  0
  126.3595  124.0485   54.2594 H   0  0  0  0  0  0  0  0  0  0  0  0
  128.8333  124.3195   54.3509 H   0  0  0  0  0  0  0  0  0  0  0  0
  130.0418  123.9671   56.4956 H   0  0  0  0  0  0  0  0  0  0  0  0
  129.3689  121.1717   58.6113 H   0  0  0  0  0  0  0  0  0  0  0  0
  131.6130  121.2290   62.9690 H   0  0  0  0  0  0  0  0  0  0  0  0
  132.1200  122.3660   64.1560 H   0  0  0  0  0  0  0  0  0  0  0  0
  1  2  1  0
  2  3  1  0
  3  4  1  0
  4  5  1  0
  5  6  1  0
  6  7  1  0
  7  8  1  0
  8  9  1  0
  9 10  1  0
 10 11  1  0
 11 12  1  0
 12 13  2  0
 12 14  1  0
 14 15  1  0
 15 16  1  0
 16 17  2  0
 17 18  1  0
 18 19  1  0
 19 20  2  0
 20 21  1  0
 21 22  2  0
 22 23  1  0
 23 24  2  0
 18 25  2  0
 25 26  1  0
 26 27  1  0
 27 28  1  0
 27 29  1  0
 27 30  1  0
 26 31  2  0
 31 32  1  0
 32 33  1  0
 32 14  2  0
 31 16  1  0
 24 19  1  0
  1 34  1  0
  1 35  1  0
  1 36  1  0
  3 37  1  0
  3 38  1  0
  4 39  1  0
  4 40  1  0
  6 41  1  0
  6 42  1  0
  7 43  1  0
  7 44  1  0
  9 45  1  0
  9 46  1  0
 10 47  1  0
 10 48  1  0
 11 49  1  0
 20 50  1  0
 21 51  1  0
 22 52  1  0
 23 53  1  0
 24 54  1  0
 25 55  1  0
 33 56  1  0
 33 57  1  0
M  END
>  <Binding energies>  (1) 
[-6.98]

>  <Ligand effiencies>  (1) 
[-0.1938888888888889]

>  <Interactions>  (1) 
["V-B:PRO:540:N:9856, V-A:TRP:381:CZ2:3368, H-B:GLU:543:OE1:9881, V-B:TYR:539:CZ:9849, V-A:TRP:381:CH2:3370, V-B:ALA:541:CB:9864, V-B:PRO:540:CA:9855, V-B:ALA:541:CA:9862, V-B:TYR:539:CE2:9848, V-A:LEU:475:CD2:4257, V-B:TYR:539:CE1:9847, V-A:PRO:482:CB:4324, V-B:TYR:539:CD2:9846, V-A:GLU:543:CD:4906, V-B:GLU:543:CD:9880, V-B:TYR:539:C:9839, H-B:GLU:543:OE2:9882, H-A:GLU:543:OE2:4908, H-A:TYR:484:OH:4346, H-A:ARG:545:NE:4922, V-B:TYR:539:CG:9844, V-B:HIS:456:CE1:9042, V-A:HIS:456:CD2:4066, V-B:GLY:544:C:9884, V-B:HIS:456:CD2:9040, H-A:LYS:547:NZ:4949, V-B:HIS:456:CG:9038, V-B:HIS:456:CB:9037, V-A:HIS:456:CE1:4068, V-B:LYS:547:CE:9922, V-B:GLU:543:CG:9879, V-A:ARG:545:CG:4920, V-A:TYR:484:CZ:4345, V-B:GLU:543:CB:9878, V-A:LEU:475:CG:4255, V-A:LEU:475:CD1:4256, V-A:TRP:381:CZ3:3369, V-B:TYR:539:CB:9843"]

$$$$
4dd_Grossjean_2025
     RDKit          3D

 43 46  0  0  0  0  0  0  0  0999 V2000
  130.6210  120.7180   61.1390 C   0  0  0  0  0  0  0  0  0  0  0  0
  130.2860  122.1260   60.6730 C   0  0  0  0  0  0  0  0  0  0  0  0
  129.7930  122.2920   59.3730 C   0  0  0  0  0  0  0  0  0  0  0  0
  129.4650  123.5620   58.8840 C   0  0  0  0  0  0  0  0  0  0  0  0
  128.9400  123.7700   57.4940 C   0  0  0  0  0  0  0  0  0  0  0  0
  127.7320  123.1820   57.0860 C   0  0  0  0  0  0  0  0  0  0  0  0
  127.2370  123.3730   55.7990 C   0  0  0  0  0  0  0  0  0  0  0  0
  127.9480  124.1560   54.8960 C   0  0  0  0  0  0  0  0  0  0  0  0
  129.1470  124.7520   55.2730 C   0  0  0  0  0  0  0  0  0  0  0  0
  129.6370  124.5600   56.5630 C   0  0  0  0  0  0  0  0  0  0  0  0
  129.6210  124.6850   59.6380 N   0  0  0  0  0  0  0  0  0  0  0  0
  130.0840  124.5280   60.8770 C   0  0  0  0  0  0  0  0  0  0  0  0
  130.3160  125.8820   61.9600 S   0  0  0  0  0  0  0  0  0  0  0  0
  130.8940  124.8180   63.2440 C   0  0  0  0  0  0  0  0  0  0  0  0
  131.2770  125.3680   64.5460 C   0  0  0  0  0  0  0  0  0  0  0  0
  132.4340  125.2610   64.9560 O   0  0  0  0  0  0  0  0  0  0  0  0
  130.2850  125.9880   65.2290 N   0  0  0  0  0  0  0  0  0  0  0  0
  130.3050  126.5670   66.5110 C   0  0  0  0  0  0  0  0  0  0  0  0
  129.1240  126.4550   67.2510 C   0  0  0  0  0  0  0  0  0  0  0  0
  129.0490  126.9830   68.5370 C   0  0  0  0  0  0  0  0  0  0  0  0
  130.1580  127.6180   69.0880 C   0  0  0  0  0  0  0  0  0  0  0  0
  131.3440  127.7260   68.3670 C   0  0  0  0  0  0  0  0  0  0  0  0
  131.4230  127.1990   67.0810 C   0  0  0  0  0  0  0  0  0  0  0  0
  130.9030  123.4790   62.8240 C   0  0  0  0  0  0  0  0  0  0  0  0
  131.3100  122.4330   63.6150 N   0  0  0  0  0  0  0  0  0  0  0  0
  130.4410  123.2860   61.4750 C   0  0  0  0  0  0  0  0  0  0  0  0
  130.6282  120.6877   62.2386 H   0  0  0  0  0  0  0  0  0  0  0  0
  129.8648  120.0160   60.7578 H   0  0  0  0  0  0  0  0  0  0  0  0
  131.6123  120.4317   60.7578 H   0  0  0  0  0  0  0  0  0  0  0  0
  129.6615  121.4117   58.7266 H   0  0  0  0  0  0  0  0  0  0  0  0
  127.1670  122.5597   57.7956 H   0  0  0  0  0  0  0  0  0  0  0  0
  126.2875  122.9066   55.4976 H   0  0  0  0  0  0  0  0  0  0  0  0
  127.5599  124.3049   53.8776 H   0  0  0  0  0  0  0  0  0  0  0  0
  129.7055  125.3718   54.5562 H   0  0  0  0  0  0  0  0  0  0  0  0
  130.5847  125.0342   56.8579 H   0  0  0  0  0  0  0  0  0  0  0  0
  129.3980  126.0620   64.7530 H   0  0  0  0  0  0  0  0  0  0  0  0
  128.2506  125.9477   66.8153 H   0  0  0  0  0  0  0  0  0  0  0  0
  128.1170  126.8986   69.1152 H   0  0  0  0  0  0  0  0  0  0  0  0
  130.0969  128.0385   70.1026 H   0  0  0  0  0  0  0  0  0  0  0  0
  132.2164  128.2265   68.8124 H   0  0  0  0  0  0  0  0  0  0  0  0
  132.3606  127.2773   66.5111 H   0  0  0  0  0  0  0  0  0  0  0  0
  131.7270  122.5820   64.5230 H   0  0  0  0  0  0  0  0  0  0  0  0
  131.2020  121.4750   63.3140 H   0  0  0  0  0  0  0  0  0  0  0  0
  1  2  1  0
  2  3  2  0
  3  4  1  0
  4  5  1  0
  5  6  2  0
  6  7  1  0
  7  8  2  0
  8  9  1  0
  9 10  2  0
  4 11  2  0
 11 12  1  0
 12 13  1  0
 13 14  1  0
 14 15  1  0
 15 16  2  0
 15 17  1  0
 17 18  1  0
 18 19  2  0
 19 20  1  0
 20 21  2  0
 21 22  1  0
 22 23  2  0
 14 24  2  0
 24 25  1  0
 24 26  1  0
 26  2  1  0
 10  5  1  0
 26 12  2  0
 23 18  1  0
  1 27  1  0
  1 28  1  0
  1 29  1  0
  3 30  1  0
  6 31  1  0
  7 32  1  0
  8 33  1  0
  9 34  1  0
 10 35  1  0
 17 36  1  0
 19 37  1  0
 20 38  1  0
 21 39  1  0
 22 40  1  0
 23 41  1  0
 25 42  1  0
 25 43  1  0
M  END
>  <Binding energies>  (1) 
[-7.01]

>  <Ligand effiencies>  (1) 
[-0.24172413793103448]

>  <Interactions>  (1) 
["V-B:PRO:540:N:9856, H-B:GLU:543:OE1:9881, V-B:TYR:539:CZ:9849, V-B:ALA:541:CB:9864, V-B:TYR:539:CE2:9848, V-A:LEU:475:CD2:4257, V-B:TYR:539:CE1:9847, V-B:TYR:539:CD2:9846, V-A:GLU:543:CD:4906, V-B:GLU:543:CD:9880, V-B:TYR:539:C:9839, H-B:GLU:543:OE2:9882, H-A:GLU:543:OE2:4908, V-A:ARG:545:CD:4921, H-A:TYR:484:OH:4346, H-A:ARG:545:NE:4922, V-A:HIS:456:CE1:4068, V-A:GLY:544:C:4910, V-B:GLU:543:CG:9879, V-B:GLU:543:C:9874, V-A:ARG:545:CG:4920, V-A:GLU:543:CG:4905, V-A:TYR:484:CZ:4345, V-B:GLU:543:CB:9878, V-A:GLU:543:C:4900, V-A:TYR:484:CE1:4343, V-A:ARG:545:CA:4917, V-A:ARG:545:CB:4919"]

$$$$
4dg_Grossjean_2025
     RDKit          3D

 46 49  0  0  0  0  0  0  0  0999 V2000
  130.6480  120.5330   61.3830 C   0  0  0  0  0  0  0  0  0  0  0  0
  130.1410  121.9130   60.9940 C   0  0  0  0  0  0  0  0  0  0  0  0
  129.3990  122.0350   59.8130 C   0  0  0  0  0  0  0  0  0  0  0  0
  128.9040  123.2780   59.3990 C   0  0  0  0  0  0  0  0  0  0  0  0
  128.1030  123.4390   58.1370 C   0  0  0  0  0  0  0  0  0  0  0  0
  128.7110  123.3160   56.8770 C   0  0  0  0  0  0  0  0  0  0  0  0
  127.9740  123.4690   55.7050 C   0  0  0  0  0  0  0  0  0  0  0  0
  126.6140  123.7480   55.7760 C   0  0  0  0  0  0  0  0  0  0  0  0
  125.9870  123.8790   57.0110 C   0  0  0  0  0  0  0  0  0  0  0  0
  126.7270  123.7270   58.1800 C   0  0  0  0  0  0  0  0  0  0  0  0
  129.1040  124.4090   60.1280 N   0  0  0  0  0  0  0  0  0  0  0  0
  129.8110  124.2950   61.2520 C   0  0  0  0  0  0  0  0  0  0  0  0
  130.1470  125.6700   62.2780 S   0  0  0  0  0  0  0  0  0  0  0  0
  131.0410  124.6600   63.4130 C   0  0  0  0  0  0  0  0  0  0  0  0
  131.6780  125.2590   64.5840 C   0  0  0  0  0  0  0  0  0  0  0  0
  132.8340  124.9710   64.9040 O   0  0  0  0  0  0  0  0  0  0  0  0
  130.9120  126.1050   65.3040 N   0  0  0  0  0  0  0  0  0  0  0  0
  131.3450  126.8330   66.4960 C   0  0  0  0  0  0  0  0  0  0  0  0
  130.2080  127.1420   67.4630 C   0  0  0  0  0  0  0  0  0  0  0  0
  128.8960  127.2310   66.9870 C   0  0  0  0  0  0  0  0  0  0  0  0
  127.8510  127.4810   67.8720 C   0  0  0  0  0  0  0  0  0  0  0  0
  128.1190  127.6300   69.2310 C   0  0  0  0  0  0  0  0  0  0  0  0
  129.4210  127.5260   69.7150 C   0  0  0  0  0  0  0  0  0  0  0  0
  130.4660  127.2750   68.8300 C   0  0  0  0  0  0  0  0  0  0  0  0
  131.0780  123.3240   62.9860 C   0  0  0  0  0  0  0  0  0  0  0  0
  131.7190  122.3220   63.6700 N   0  0  0  0  0  0  0  0  0  0  0  0
  130.3700  123.0870   61.7570 C   0  0  0  0  0  0  0  0  0  0  0  0
  130.6788  120.4493   62.4794 H   0  0  0  0  0  0  0  0  0  0  0  0
  129.9729  119.7660   60.9755 H   0  0  0  0  0  0  0  0  0  0  0  0
  131.6590  120.3855   60.9755 H   0  0  0  0  0  0  0  0  0  0  0  0
  129.2020  121.1420   59.2017 H   0  0  0  0  0  0  0  0  0  0  0  0
  129.7868  123.0952   56.8146 H   0  0  0  0  0  0  0  0  0  0  0  0
  128.4665  123.3694   54.7265 H   0  0  0  0  0  0  0  0  0  0  0  0
  126.0306  123.8658   54.8509 H   0  0  0  0  0  0  0  0  0  0  0  0
  124.9111  124.1017   57.0634 H   0  0  0  0  0  0  0  0  0  0  0  0
  126.2272  123.8339   59.1540 H   0  0  0  0  0  0  0  0  0  0  0  0
  130.0050  126.3530   64.9380 H   0  0  0  0  0  0  0  0  0  0  0  0
  132.0951  126.2248   67.0227 H   0  0  0  0  0  0  0  0  0  0  0  0
  131.7541  127.7963   66.1574 H   0  0  0  0  0  0  0  0  0  0  0  0
  128.6900  127.1035   65.9140 H   0  0  0  0  0  0  0  0  0  0  0  0
  126.8188  127.5605   67.5002 H   0  0  0  0  0  0  0  0  0  0  0  0
  127.2935  127.8320   69.9294 H   0  0  0  0  0  0  0  0  0  0  0  0
  129.6224  127.6415   70.7902 H   0  0  0  0  0  0  0  0  0  0  0  0
  131.4952  127.1813   69.2069 H   0  0  0  0  0  0  0  0  0  0  0  0
  132.3460  122.5150   64.4370 H   0  0  0  0  0  0  0  0  0  0  0  0
  131.5770  121.3500   63.4300 H   0  0  0  0  0  0  0  0  0  0  0  0
  1  2  1  0
  2  3  2  0
  3  4  1  0
  4  5  1  0
  5  6  2  0
  6  7  1  0
  7  8  2  0
  8  9  1  0
  9 10  2  0
  4 11  2  0
 11 12  1  0
 12 13  1  0
 13 14  1  0
 14 15  1  0
 15 16  2  0
 15 17  1  0
 17 18  1  0
 18 19  1  0
 19 20  2  0
 20 21  1  0
 21 22  2  0
 22 23  1  0
 23 24  2  0
 14 25  2  0
 25 26  1  0
 25 27  1  0
 27  2  1  0
 10  5  1  0
 27 12  2  0
 24 19  1  0
  1 28  1  0
  1 29  1  0
  1 30  1  0
  3 31  1  0
  6 32  1  0
  7 33  1  0
  8 34  1  0
  9 35  1  0
 10 36  1  0
 17 37  1  0
 18 38  1  0
 18 39  1  0
 20 40  1  0
 21 41  1  0
 22 42  1  0
 23 43  1  0
 24 44  1  0
 26 45  1  0
 26 46  1  0
M  END
>  <Binding energies>  (1) 
[-8.53]

>  <Ligand effiencies>  (1) 
[-0.2843333333333333]

>  <Interactions>  (1) 
["V-B:PRO:540:N:9856, H-B:GLU:543:OE1:9881, V-B:TYR:539:CZ:9849, V-B:ALA:541:CB:9864, V-B:PRO:540:CA:9855, V-B:TYR:539:CE2:9848, V-A:LEU:475:CD2:4257, V-B:TYR:539:CE1:9847, V-B:TYR:539:CD1:9845, V-B:TYR:539:CD2:9846, V-A:GLU:543:CD:4906, V-B:GLU:543:CD:9880, V-B:TYR:539:C:9839, H-B:GLU:543:OE2:9882, H-A:GLU:543:OE2:4908, V-A:ARG:545:CD:4921, H-A:TYR:484:OH:4346, H-A:ARG:545:NE:4922, V-B:TYR:539:CG:9844, V-B:HIS:456:CE1:9042, V-A:HIS:456:CE1:4068, V-B:GLU:543:CG:9879, V-A:ARG:545:CG:4920, V-A:GLU:543:CG:4905, V-A:TYR:484:CZ:4345, V-B:GLU:543:CB:9878, V-A:GLU:543:C:4900, V-A:TYR:484:CE1:4343"]

$$$$
4dj_Grossjean_2025
     RDKit          3D

 39 42  0  0  0  0  0  0  0  0999 V2000
  130.6380  120.5240   61.2300 C   0  0  0  0  0  0  0  0  0  0  0  0
  130.2700  121.9250   60.7650 C   0  0  0  0  0  0  0  0  0  0  0  0
  129.7460  122.0760   59.4760 C   0  0  0  0  0  0  0  0  0  0  0  0
  129.3890  123.3390   58.9880 C   0  0  0  0  0  0  0  0  0  0  0  0
  128.8190  123.5310   57.6110 C   0  0  0  0  0  0  0  0  0  0  0  0
  127.5620  123.0040   57.2720 C   0  0  0  0  0  0  0  0  0  0  0  0
  127.0280  123.1780   55.9980 C   0  0  0  0  0  0  0  0  0  0  0  0
  127.7490  123.8810   55.0380 C   0  0  0  0  0  0  0  0  0  0  0  0
  128.9980  124.4100   55.3450 C   0  0  0  0  0  0  0  0  0  0  0  0
  129.5270  124.2350   56.6200 C   0  0  0  0  0  0  0  0  0  0  0  0
  129.5180  124.4640   59.7430 N   0  0  0  0  0  0  0  0  0  0  0  0
  130.0170  124.3210   60.9700 C   0  0  0  0  0  0  0  0  0  0  0  0
  130.2440  125.6840   62.0430 S   0  0  0  0  0  0  0  0  0  0  0  0
  130.8840  124.6380   63.3120 C   0  0  0  0  0  0  0  0  0  0  0  0
  131.3130  125.2040   64.5920 C   0  0  0  0  0  0  0  0  0  0  0  0
  132.4530  125.0010   65.0200 O   0  0  0  0  0  0  0  0  0  0  0  0
  130.3810  125.9370   65.2480 N   0  0  0  0  0  0  0  0  0  0  0  0
  130.5300  126.5760   66.4700 C   0  0  0  0  0  0  0  0  0  0  0  0
  131.5850  127.2190   66.9230 N   0  0  0  0  0  0  0  0  0  0  0  0
  131.3750  127.7060   68.1300 C   0  0  0  0  0  0  0  0  0  0  0  0
  130.1220  127.4610   68.6840 C   0  0  0  0  0  0  0  0  0  0  0  0
  129.1750  126.5410   67.5530 S   0  0  0  0  0  0  0  0  0  0  0  0
  130.9140  123.2980   62.8950 C   0  0  0  0  0  0  0  0  0  0  0  0
  131.3680  122.2650   63.6770 N   0  0  0  0  0  0  0  0  0  0  0  0
  130.4210  123.0900   61.5610 C   0  0  0  0  0  0  0  0  0  0  0  0
  130.6462  120.4929   62.3295 H   0  0  0  0  0  0  0  0  0  0  0  0
  129.8983  119.8049   60.8483 H   0  0  0  0  0  0  0  0  0  0  0  0
  131.6356  120.2612   60.8483 H   0  0  0  0  0  0  0  0  0  0  0  0
  129.6128  121.1903   58.8375 H   0  0  0  0  0  0  0  0  0  0  0  0
  126.9895  122.4441   58.0261 H   0  0  0  0  0  0  0  0  0  0  0  0
  126.0402  122.7614   55.7515 H   0  0  0  0  0  0  0  0  0  0  0  0
  127.3289  124.0191   54.0308 H   0  0  0  0  0  0  0  0  0  0  0  0
  129.5654  124.9645   54.5830 H   0  0  0  0  0  0  0  0  0  0  0  0
  130.5159  124.6544   56.8571 H   0  0  0  0  0  0  0  0  0  0  0  0
  129.4750  126.0320   64.8110 H   0  0  0  0  0  0  0  0  0  0  0  0
  132.1472  128.2744   68.6692 H   0  0  0  0  0  0  0  0  0  0  0  0
  129.7855  127.7952   69.6765 H   0  0  0  0  0  0  0  0  0  0  0  0
  131.9660  122.4220   64.4740 H   0  0  0  0  0  0  0  0  0  0  0  0
  131.1150  121.3070   63.4780 H   0  0  0  0  0  0  0  0  0  0  0  0
  1  2  1  0
  2  3  2  0
  3  4  1  0
  4  5  1  0
  5  6  2  0
  6  7  1  0
  7  8  2  0
  8  9  1  0
  9 10  2  0
  4 11  2  0
 11 12  1  0
 12 13  1  0
 13 14  1  0
 14 15  1  0
 15 16  2  0
 15 17  1  0
 17 18  1  0
 18 19  2  0
 19 20  1  0
 20 21  2  0
 21 22  1  0
 14 23  2  0
 23 24  1  0
 23 25  1  0
 25  2  1  0
 10  5  1  0
 25 12  2  0
 22 18  1  0
  1 26  1  0
  1 27  1  0
  1 28  1  0
  3 29  1  0
  6 30  1  0
  7 31  1  0
  8 32  1  0
  9 33  1  0
 10 34  1  0
 17 35  1  0
 20 36  1  0
 21 37  1  0
 24 38  1  0
 24 39  1  0
M  END
>  <Binding energies>  (1) 
[-6.96]

>  <Ligand effiencies>  (1) 
[-0.24857142857142858]

>  <Interactions>  (1) 
["V-B:PRO:540:N:9856, H-B:GLU:543:OE1:9881, V-B:TYR:539:CZ:9849, V-B:ILE:538:CA:9832, V-B:ALA:541:CB:9864, V-B:PRO:540:CA:9855, V-B:TYR:539:CE2:9848, V-A:LEU:475:CD2:4257, V-B:TYR:539:CE1:9847, V-B:TYR:539:CD2:9846, V-A:GLU:543:CD:4906, V-B:GLU:543:CD:9880, V-B:TYR:539:C:9839, H-B:GLU:543:OE2:9882, H-A:GLU:543:OE2:4908, H-A:TYR:484:OH:4346, H-A:ARG:545:NE:4922, V-B:TYR:539:CA:9841, V-A:HIS:456:CE1:4068, V-A:GLY:544:C:4910, V-B:GLU:543:CG:9879, V-B:GLU:543:C:9874, V-A:ARG:545:CG:4920, V-A:GLU:543:CG:4905, V-A:TYR:484:CZ:4345, V-B:GLU:543:CB:9878, V-A:GLU:543:C:4900, V-A:TYR:484:CE1:4343, V-A:ARG:545:CA:4917, V-A:ARG:545:CB:4919"]

$$$$
4ea_Grossjean_2025
     RDKit          3D

 52 55  0  0  0  0  0  0  0  0999 V2000
  133.7920  131.7640   56.7420 C   0  0  0  0  0  0  0  0  0  0  0  0
  132.8980  132.1430   55.5580 C   0  0  0  0  0  0  0  0  0  0  0  0
  131.6890  132.7130   56.0410 O   0  0  0  0  0  0  0  0  0  0  0  0
  130.4890  132.1260   55.7980 C   0  0  0  0  0  0  0  0  0  0  0  0
  129.5750  132.6790   55.1800 O   0  0  0  0  0  0  0  0  0  0  0  0
  130.3860  130.7360   56.3560 C   0  0  0  0  0  0  0  0  0  0  0  0
  131.0350  130.4330   57.5600 C   0  0  0  0  0  0  0  0  0  0  0  0
  130.9580  129.1540   58.1040 C   0  0  0  0  0  0  0  0  0  0  0  0
  130.2330  128.1520   57.4570 C   0  0  0  0  0  0  0  0  0  0  0  0
  130.2250  126.8990   58.0990 N   0  0  0  0  0  0  0  0  0  0  0  0
  129.3430  125.8730   58.0120 C   0  0  0  0  0  0  0  0  0  0  0  0
  128.3350  125.8820   57.3040 O   0  0  0  0  0  0  0  0  0  0  0  0
  129.6610  124.7050   58.8380 C   0  0  0  0  0  0  0  0  0  0  0  0
  129.1980  123.0850   58.3090 S   0  0  0  0  0  0  0  0  0  0  0  0
  129.8940  122.3650   59.7430 C   0  0  0  0  0  0  0  0  0  0  0  0
  129.8660  121.0490   59.9560 N   0  0  0  0  0  0  0  0  0  0  0  0
  130.4400  120.6190   61.1060 C   0  0  0  0  0  0  0  0  0  0  0  0
  130.3960  119.1180   61.3290 C   0  0  0  0  0  0  0  0  0  0  0  0
  131.0370  121.4650   62.0380 C   0  0  0  0  0  0  0  0  0  0  0  0
  131.0650  122.8450   61.8110 C   0  0  0  0  0  0  0  0  0  0  0  0
  131.7020  123.7320   62.8100 C   0  0  0  0  0  0  0  0  0  0  0  0
  133.0150  124.1750   62.6210 C   0  0  0  0  0  0  0  0  0  0  0  0
  133.6150  125.0110   63.5590 C   0  0  0  0  0  0  0  0  0  0  0  0
  132.9010  125.4000   64.6910 C   0  0  0  0  0  0  0  0  0  0  0  0
  131.5950  124.9610   64.8910 C   0  0  0  0  0  0  0  0  0  0  0  0
  130.9970  124.1250   63.9520 C   0  0  0  0  0  0  0  0  0  0  0  0
  130.4720  123.3370   60.6150 C   0  0  0  0  0  0  0  0  0  0  0  0
  130.3250  124.6640   60.0740 C   0  0  0  0  0  0  0  0  0  0  0  0
  130.7980  125.7750   60.7230 N   0  0  0  0  0  0  0  0  0  0  0  0
  129.5790  128.4470   56.2500 C   0  0  0  0  0  0  0  0  0  0  0  0
  129.6570  129.7260   55.7080 C   0  0  0  0  0  0  0  0  0  0  0  0
  133.2678  131.9862   57.6832 H   0  0  0  0  0  0  0  0  0  0  0  0
  134.0247  130.6898   56.6967 H   0  0  0  0  0  0  0  0  0  0  0  0
  134.7258  132.3437   56.6967 H   0  0  0  0  0  0  0  0  0  0  0  0
  133.4203  132.8741   54.9234 H   0  0  0  0  0  0  0  0  0  0  0  0
  132.6693  131.2431   54.9683 H   0  0  0  0  0  0  0  0  0  0  0  0
  131.6106  131.2128   58.0802 H   0  0  0  0  0  0  0  0  0  0  0  0
  131.4722  128.9314   59.0506 H   0  0  0  0  0  0  0  0  0  0  0  0
  131.0070  126.7520   58.7200 H   0  0  0  0  0  0  0  0  0  0  0  0
  130.3898  118.9077   62.4087 H   0  0  0  0  0  0  0  0  0  0  0  0
  129.4854  118.7056   60.8699 H   0  0  0  0  0  0  0  0  0  0  0  0
  131.2809  118.6530   60.8699 H   0  0  0  0  0  0  0  0  0  0  0  0
  131.4860  121.0482   62.9516 H   0  0  0  0  0  0  0  0  0  0  0  0
  133.5758  123.8618   61.7280 H   0  0  0  0  0  0  0  0  0  0  0  0
  134.6463  125.3623   63.4075 H   0  0  0  0  0  0  0  0  0  0  0  0
  133.3737  126.0600   65.4333 H   0  0  0  0  0  0  0  0  0  0  0  0
  131.0382  125.2732   65.7868 H   0  0  0  0  0  0  0  0  0  0  0  0
  129.9669  123.7725   64.1088 H   0  0  0  0  0  0  0  0  0  0  0  0
  130.2060  126.3340   61.3230 H   0  0  0  0  0  0  0  0  0  0  0  0
  131.7580  126.0740   60.6240 H   0  0  0  0  0  0  0  0  0  0  0  0
  129.0039  127.6654   55.7320 H   0  0  0  0  0  0  0  0  0  0  0  0
  129.1421  129.9483   54.7617 H   0  0  0  0  0  0  0  0  0  0  0  0
  1  2  1  0
  2  3  1  0
  3  4  1  0
  4  5  2  0
  4  6  1  0
  6  7  2  0
  7  8  1  0
  8  9  2  0
  9 10  1  0
 10 11  1  0
 11 12  2  0
 11 13  1  0
 13 14  1  0
 14 15  1  0
 15 16  2  0
 16 17  1  0
 17 18  1  0
 17 19  2  0
 19 20  1  0
 20 21  1  0
 21 22  2  0
 22 23  1  0
 23 24  2  0
 24 25  1  0
 25 26  2  0
 20 27  2  0
 27 28  1  0
 28 29  1  0
  9 30  1  0
 30 31  2  0
 31  6  1  0
 28 13  2  0
 27 15  1  0
 26 21  1  0
  1 32  1  0
  1 33  1  0
  1 34  1  0
  2 35  1  0
  2 36  1  0
  7 37  1  0
  8 38  1  0
 10 39  1  0
 18 40  1  0
 18 41  1  0
 18 42  1  0
 19 43  1  0
 22 44  1  0
 23 45  1  0
 24 46  1  0
 25 47  1  0
 26 48  1  0
 29 49  1  0
 29 50  1  0
 30 51  1  0
 31 52  1  0
M  END
>  <Binding energies>  (1) 
[-7.32]

>  <Ligand effiencies>  (1) 
[-0.21529411764705883]

>  <Interactions>  (1) 
["V-A:TRP:381:CZ2:3368, V-B:TYR:539:CZ:9849, V-A:TRP:381:CH2:3370, V-B:ALA:541:CB:9864, V-A:PRO:482:CG:4325, V-B:TYR:539:CE2:9848, V-A:LEU:475:CD2:4257, V-A:PRO:482:CB:4324, V-B:TYR:539:CD2:9846, H-A:TYR:539:N:4868, V-A:ILE:538:CA:4858, V-A:TYR:531:CE2:4791, V-A:LEU:363:CA:3183, V-A:LEU:363:CD1:3187, V-A:ILE:538:CB:4860, V-A:ILE:538:CG2:4861, V-A:TYR:531:CZ:4792, V-A:PRO:540:CB:4883, V-B:GLU:543:CD:9880, V-B:TYR:539:C:9839, V-A:ARG:545:CZ:4924, V-A:LEU:363:CB:3185, H-A:ASP:366:OD2:3213, V-A:PRO:540:CD:4885, V-A:ARG:545:CD:4921, V-B:TYR:539:CG:9844, H-A:ASP:366:OD1:3212, V-A:HIS:456:CE1:4068, V-A:PRO:540:CG:4884, V-A:ARG:545:CG:4920, V-A:GLY:453:CA:4042, V-A:GLY:453:C:4040, V-A:LEU:475:CG:4255, V-A:LEU:475:CD1:4256"]

$$$$
4eb_Grossjean_2025
     RDKit          3D

 49 52  0  0  0  0  0  0  0  0999 V2000
  129.7370  127.0580   72.6620 C   0  0  0  0  0  0  0  0  0  0  0  0
  129.1070  128.1990   72.0980 O   0  0  0  0  0  0  0  0  0  0  0  0
  128.1950  128.0710   71.0990 C   0  0  0  0  0  0  0  0  0  0  0  0
  126.9870  128.2730   71.2520 O   0  0  0  0  0  0  0  0  0  0  0  0
  128.8040  127.6600   69.7890 C   0  0  0  0  0  0  0  0  0  0  0  0
  127.9630  127.2930   68.7300 C   0  0  0  0  0  0  0  0  0  0  0  0
  128.4970  126.9070   67.5040 C   0  0  0  0  0  0  0  0  0  0  0  0
  129.8780  126.8800   67.3100 C   0  0  0  0  0  0  0  0  0  0  0  0
  130.3040  126.4730   66.0300 N   0  0  0  0  0  0  0  0  0  0  0  0
  130.6750  125.2520   65.5760 C   0  0  0  0  0  0  0  0  0  0  0  0
  130.6990  124.2320   66.2660 O   0  0  0  0  0  0  0  0  0  0  0  0
  131.0640  125.2020   64.1640 C   0  0  0  0  0  0  0  0  0  0  0  0
  132.3650  124.1340   63.6340 S   0  0  0  0  0  0  0  0  0  0  0  0
  132.1830  124.6550   61.9740 C   0  0  0  0  0  0  0  0  0  0  0  0
  132.9480  124.1710   60.9950 N   0  0  0  0  0  0  0  0  0  0  0  0
  132.7060  124.6570   59.7540 C   0  0  0  0  0  0  0  0  0  0  0  0
  133.5870  124.0920   58.6540 C   0  0  0  0  0  0  0  0  0  0  0  0
  131.7270  125.6070   59.4700 C   0  0  0  0  0  0  0  0  0  0  0  0
  130.9260  126.1130   60.5010 C   0  0  0  0  0  0  0  0  0  0  0  0
  129.8900  127.1220   60.1850 C   0  0  0  0  0  0  0  0  0  0  0  0
  130.2450  128.4640   60.0170 C   0  0  0  0  0  0  0  0  0  0  0  0
  129.2700  129.4140   59.7180 C   0  0  0  0  0  0  0  0  0  0  0  0
  127.9400  129.0210   59.5900 C   0  0  0  0  0  0  0  0  0  0  0  0
  127.5770  127.6860   59.7580 C   0  0  0  0  0  0  0  0  0  0  0  0
  128.5520  126.7380   60.0570 C   0  0  0  0  0  0  0  0  0  0  0  0
  131.1490  125.6280   61.8190 C   0  0  0  0  0  0  0  0  0  0  0  0
  130.5280  125.9200   63.0840 C   0  0  0  0  0  0  0  0  0  0  0  0
  129.5030  126.8250   63.2040 N   0  0  0  0  0  0  0  0  0  0  0  0
  130.7280  127.2450   68.3650 C   0  0  0  0  0  0  0  0  0  0  0  0
  130.1930  127.6310   69.5910 C   0  0  0  0  0  0  0  0  0  0  0  0
  129.7006  127.1240   73.7594 H   0  0  0  0  0  0  0  0  0  0  0  0
  129.2129  126.1490   72.3317 H   0  0  0  0  0  0  0  0  0  0  0  0
  130.7855  127.0173   72.3317 H   0  0  0  0  0  0  0  0  0  0  0  0
  126.8719  127.3101   68.8687 H   0  0  0  0  0  0  0  0  0  0  0  0
  127.8247  126.6210   66.6817 H   0  0  0  0  0  0  0  0  0  0  0  0
  130.3330  127.2200   65.3530 H   0  0  0  0  0  0  0  0  0  0  0  0
  134.4322  123.5500   59.1032 H   0  0  0  0  0  0  0  0  0  0  0  0
  132.9987  123.4023   58.0309 H   0  0  0  0  0  0  0  0  0  0  0  0
  133.9684  124.9144   58.0309 H   0  0  0  0  0  0  0  0  0  0  0  0
  131.5837  125.9588   58.4377 H   0  0  0  0  0  0  0  0  0  0  0  0
  131.2963  128.7707   60.1211 H   0  0  0  0  0  0  0  0  0  0  0  0
  129.5497  130.4693   59.5837 H   0  0  0  0  0  0  0  0  0  0  0  0
  127.1699  129.7703   59.3544 H   0  0  0  0  0  0  0  0  0  0  0  0
  126.5247  127.3825   59.6548 H   0  0  0  0  0  0  0  0  0  0  0  0
  128.2686  125.6839   60.1929 H   0  0  0  0  0  0  0  0  0  0  0  0
  129.6790  127.8130   63.3260 H   0  0  0  0  0  0  0  0  0  0  0  0
  128.5360  126.5330   63.1740 H   0  0  0  0  0  0  0  0  0  0  0  0
  131.8187  127.2261   68.2232 H   0  0  0  0  0  0  0  0  0  0  0  0
  130.8660  127.9162   70.4130 H   0  0  0  0  0  0  0  0  0  0  0  0
  1  2  1  0
  2  3  1  0
  3  4  2  0
  3  5  1  0
  5  6  2  0
  6  7  1  0
  7  8  2  0
  8  9  1  0
  9 10  1  0
 10 11  2  0
 10 12  1  0
 12 13  1  0
 13 14  1  0
 14 15  2  0
 15 16  1  0
 16 17  1  0
 16 18  2  0
 18 19  1  0
 19 20  1  0
 20 21  2  0
 21 22  1  0
 22 23  2  0
 23 24  1  0
 24 25  2  0
 19 26  2  0
 26 27  1  0
 27 28  1  0
  8 29  1  0
 29 30  2  0
 30  5  1  0
 27 12  2  0
 26 14  1  0
 25 20  1  0
  1 31  1  0
  1 32  1  0
  1 33  1  0
  6 34  1  0
  7 35  1  0
  9 36  1  0
 17 37  1  0
 17 38  1  0
 17 39  1  0
 18 40  1  0
 21 41  1  0
 22 42  1  0
 23 43  1  0
 24 44  1  0
 25 45  1  0
 28 46  1  0
 28 47  1  0
 29 48  1  0
 30 49  1  0
M  END
>  <Binding energies>  (1) 
[-7.09]

>  <Ligand effiencies>  (1) 
[-0.21484848484848484]

>  <Interactions>  (1) 
["H-B:GLU:543:OE1:9881, V-B:TYR:539:CE2:9848, V-A:ASP:366:CG:3211, V-A:ASP:366:CB:3210, V-A:GLU:543:CD:4906, V-B:GLU:543:CD:9880, H-B:GLU:543:OE2:9882, H-A:GLU:543:OE2:4908, H-A:GLU:543:OE1:4907, H-A:TYR:484:OH:4346, V-A:ILE:369:CG2:3235, V-A:ASP:366:CA:3208, V-B:HIS:456:CE1:9042, V-B:GLY:544:C:9884, V-B:HIS:456:CD2:9040, V-A:LYS:547:CE:4948, V-A:HIS:456:CE1:4068, V-A:GLY:544:C:4910, V-B:GLU:543:CG:9879, V-B:GLU:543:C:9874, V-A:ARG:545:CG:4920, V-A:GLU:543:CG:4905, V-B:GLU:543:CB:9878, V-A:GLU:543:C:4900, H-B:HIS:456:ND1:9039"]

$$$$
8a_Ghoteimi_2023
     RDKit          3D

 67 71  0  0  0  0  0  0  0  0999 V2000
  131.1330  126.4320   73.4260 C   0  0  0  0  0  0  0  0  0  0  0  0
  130.1990  125.8790   72.3460 C   0  0  0  0  0  0  0  0  0  0  0  0
  129.0040  126.6510   72.3140 O   0  0  0  0  0  0  0  0  0  0  0  0
  128.9240  127.7880   71.5740 C   0  0  0  0  0  0  0  0  0  0  0  0
  128.6890  128.8990   72.0590 O   0  0  0  0  0  0  0  0  0  0  0  0
  129.1440  127.5580   70.1070 C   0  0  0  0  0  0  0  0  0  0  0  0
  128.0370  127.3480   69.2750 C   0  0  0  0  0  0  0  0  0  0  0  0
  128.2070  127.1310   67.9100 C   0  0  0  0  0  0  0  0  0  0  0  0
  129.4850  127.1180   67.3490 C   0  0  0  0  0  0  0  0  0  0  0  0
  129.5360  126.8840   65.9600 N   0  0  0  0  0  0  0  0  0  0  0  0
  130.3900  126.1250   65.2300 C   0  0  0  0  0  0  0  0  0  0  0  0
  131.3230  125.4780   65.7050 O   0  0  0  0  0  0  0  0  0  0  0  0
  130.1310  126.1090   63.7870 C   0  0  0  0  0  0  0  0  0  0  0  0
  129.1520  127.3710   63.0420 S   0  0  0  0  0  0  0  0  0  0  0  0
  129.3250  126.6400   61.4630 C   0  0  0  0  0  0  0  0  0  0  0  0
  128.7420  127.1590   60.3830 N   0  0  0  0  0  0  0  0  0  0  0  0
  128.9360  126.5090   59.2050 C   0  0  0  0  0  0  0  0  0  0  0  0
  128.2550  127.0980   58.0110 C   0  0  0  0  0  0  0  0  0  0  0  0
  128.6190  126.7190   56.7110 C   0  0  0  0  0  0  0  0  0  0  0  0
  127.9900  127.2780   55.6030 C   0  0  0  0  0  0  0  0  0  0  0  0
  126.9820  128.2260   55.7640 C   0  0  0  0  0  0  0  0  0  0  0  0
  126.4150  128.7290   54.6080 O   0  0  0  0  0  0  0  0  0  0  0  0
  126.6810  130.0770   54.2350 C   0  0  0  0  0  0  0  0  0  0  0  0
  126.6060  128.6080   57.0600 C   0  0  0  0  0  0  0  0  0  0  0  0
  127.2390  128.0480   58.1670 C   0  0  0  0  0  0  0  0  0  0  0  0
  129.7140  125.3540   59.1100 C   0  0  0  0  0  0  0  0  0  0  0  0
  130.3420  124.8150   60.2380 C   0  0  0  0  0  0  0  0  0  0  0  0
  131.1850  123.6030   60.0750 C   0  0  0  0  0  0  0  0  0  0  0  0
  130.6430  122.3350   60.2960 C   0  0  0  0  0  0  0  0  0  0  0  0
  131.4230  121.1960   60.1240 C   0  0  0  0  0  0  0  0  0  0  0  0
  132.7560  121.3020   59.7230 C   0  0  0  0  0  0  0  0  0  0  0  0
  133.4530  120.1180   59.5780 O   0  0  0  0  0  0  0  0  0  0  0  0
  134.0590  119.5250   60.7200 C   0  0  0  0  0  0  0  0  0  0  0  0
  133.3000  122.5750   59.4930 C   0  0  0  0  0  0  0  0  0  0  0  0
  132.5160  123.7140   59.6640 C   0  0  0  0  0  0  0  0  0  0  0  0
  130.1350  125.4660   61.4860 C   0  0  0  0  0  0  0  0  0  0  0  0
  130.5670  125.1760   62.8310 C   0  0  0  0  0  0  0  0  0  0  0  0
  131.3220  124.0720   63.1410 N   0  0  0  0  0  0  0  0  0  0  0  0
  130.6000  127.3330   68.1740 C   0  0  0  0  0  0  0  0  0  0  0  0
  130.4270  127.5500   69.5390 C   0  0  0  0  0  0  0  0  0  0  0  0
  130.7272  126.1917   74.4198 H   0  0  0  0  0  0  0  0  0  0  0  0
  132.1290  125.9779   73.3170 H   0  0  0  0  0  0  0  0  0  0  0  0
  131.2138  127.5236   73.3170 H   0  0  0  0  0  0  0  0  0  0  0  0
  130.6974  125.9334   71.3669 H   0  0  0  0  0  0  0  0  0  0  0  0
  129.9535  124.8312   72.5739 H   0  0  0  0  0  0  0  0  0  0  0  0
  127.0240  127.3545   69.7038 H   0  0  0  0  0  0  0  0  0  0  0  0
  127.3277  126.9687   67.2693 H   0  0  0  0  0  0  0  0  0  0  0  0
  128.8110  127.3530   65.4380 H   0  0  0  0  0  0  0  0  0  0  0  0
  129.4117  125.9704   56.5654 H   0  0  0  0  0  0  0  0  0  0  0  0
  128.2912  126.9688   54.5912 H   0  0  0  0  0  0  0  0  0  0  0  0
  126.8021  130.6907   55.1398 H   0  0  0  0  0  0  0  0  0  0  0  0
  127.6044  130.1170   53.6385 H   0  0  0  0  0  0  0  0  0  0  0  0
  125.8421  130.4648   53.6385 H   0  0  0  0  0  0  0  0  0  0  0  0
  125.8086  129.3522   57.2026 H   0  0  0  0  0  0  0  0  0  0  0  0
  126.9361  128.3567   59.1784 H   0  0  0  0  0  0  0  0  0  0  0  0
  129.8351  124.8606   58.1344 H   0  0  0  0  0  0  0  0  0  0  0  0
  129.5928  122.2363   60.6080 H   0  0  0  0  0  0  0  0  0  0  0  0
  130.9856  120.2032   60.3056 H   0  0  0  0  0  0  0  0  0  0  0  0
  133.6201  119.9545   61.6326 H   0  0  0  0  0  0  0  0  0  0  0  0
  133.8846  118.4390   60.7053 H   0  0  0  0  0  0  0  0  0  0  0  0
  135.1410  119.7229   60.7053 H   0  0  0  0  0  0  0  0  0  0  0  0
  134.3489  122.6739   59.1767 H   0  0  0  0  0  0  0  0  0  0  0  0
  132.9478  124.7077   59.4741 H   0  0  0  0  0  0  0  0  0  0  0  0
  131.6500  123.9070   64.0820 H   0  0  0  0  0  0  0  0  0  0  0  0
  131.5710  123.3870   62.4430 H   0  0  0  0  0  0  0  0  0  0  0  0
  131.6117  127.3301   67.7421 H   0  0  0  0  0  0  0  0  0  0  0  0
  131.3061  127.7170   70.1788 H   0  0  0  0  0  0  0  0  0  0  0  0
  1  2  1  0
  2  3  1  0
  3  4  1  0
  4  5  2  0
  4  6  1  0
  6  7  2  0
  7  8  1  0
  8  9  2  0
  9 10  1  0
 10 11  1  0
 11 12  2  0
 11 13  1  0
 13 14  1  0
 14 15  1  0
 15 16  2  0
 16 17  1  0
 17 18  1  0
 18 19  2  0
 19 20  1  0
 20 21  2  0
 21 22  1  0
 22 23  1  0
 21 24  1  0
 24 25  2  0
 17 26  2  0
 26 27  1  0
 27 28  1  0
 28 29  2  0
 29 30  1  0
 30 31  2  0
 31 32  1  0
 32 33  1  0
 31 34  1  0
 34 35  2  0
 27 36  2  0
 36 37  1  0
 37 38  1  0
  9 39  1  0
 39 40  2  0
 40  6  1  0
 37 13  2  0
 36 15  1  0
 25 18  1  0
 35 28  1  0
  1 41  1  0
  1 42  1  0
  1 43  1  0
  2 44  1  0
  2 45  1  0
  7 46  1  0
  8 47  1  0
 10 48  1  0
 19 49  1  0
 20 50  1  0
 23 51  1  0
 23 52  1  0
 23 53  1  0
 24 54  1  0
 25 55  1  0
 26 56  1  0
 29 57  1  0
 30 58  1  0
 33 59  1  0
 33 60  1  0
 33 61  1  0
 34 62  1  0
 35 63  1  0
 38 64  1  0
 38 65  1  0
 39 66  1  0
 40 67  1  0
M  END
>  <Binding energies>  (1) 
[-5.65]

>  <Ligand effiencies>  (1) 
[-0.1313953488372093]

>  <Interactions>  (1) 
["V-A:TRP:381:CZ2:3368, H-B:GLU:543:OE1:9881, V-A:TRP:381:CH2:3370, V-B:TYR:539:CE2:9848, V-A:LEU:475:CD2:4257, V-B:TYR:539:CD2:9846, V-B:MET:535:CE:9807, V-A:TYR:539:CZ:4875, V-A:GLU:543:CD:4906, V-B:GLU:543:CD:9880, H-B:TYR:531:OH:9767, H-B:GLU:543:OE2:9882, H-A:GLU:543:OE2:4908, H-A:GLU:543:OE1:4907, H-A:TYR:484:OH:4346, V-A:ILE:369:CB:3234, V-A:ILE:369:CG2:3235, V-A:ILE:369:CD1:3237, V-B:HIS:456:CE1:9042, V-A:HIS:456:CD2:4066, V-B:GLY:544:C:9884, V-A:HIS:456:CG:4064, V-A:LYS:547:CE:4948, H-A:LYS:547:NZ:4949, H-B:LYS:547:NZ:9923, V-A:HIS:456:CE1:4068, V-A:GLY:544:C:4910, V-B:GLU:543:CG:9879, V-B:GLU:543:C:9874, V-A:ARG:545:CG:4920, V-A:GLU:543:CG:4905, V-B:GLU:543:CB:9878, V-A:GLY:544:CA:4912, V-A:GLU:543:C:4900, V-A:SER:385:C:3403, V-A:SER:385:CA:3405, V-A:SER:385:CB:3407"]

$$$$
8b_Ghoteimi_2023
     RDKit          3D

 54 58  0  0  0  0  0  0  0  0999 V2000
  133.6680  133.2460   55.5340 C   0  0  0  0  0  0  0  0  0  0  0  0
  132.2760  133.2650   55.8290 O   0  0  0  0  0  0  0  0  0  0  0  0
  131.7400  132.2640   56.6170 C   0  0  0  0  0  0  0  0  0  0  0  0
  130.3560  132.1090   56.5720 C   0  0  0  0  0  0  0  0  0  0  0  0
  129.7290  131.1280   57.3330 C   0  0  0  0  0  0  0  0  0  0  0  0
  130.4720  130.2730   58.1610 C   0  0  0  0  0  0  0  0  0  0  0  0
  129.8030  129.2180   58.9820 C   0  0  0  0  0  0  0  0  0  0  0  0
  128.8060  129.5300   59.9130 C   0  0  0  0  0  0  0  0  0  0  0  0
  128.1950  128.5240   60.6680 C   0  0  0  0  0  0  0  0  0  0  0  0
  127.1500  128.8890   61.6520 C   0  0  0  0  0  0  0  0  0  0  0  0
  127.4110  128.8000   63.0210 C   0  0  0  0  0  0  0  0  0  0  0  0
  126.4300  129.1530   63.9440 C   0  0  0  0  0  0  0  0  0  0  0  0
  125.1780  129.5970   63.5150 C   0  0  0  0  0  0  0  0  0  0  0  0
  124.2690  129.9270   64.5020 O   0  0  0  0  0  0  0  0  0  0  0  0
  124.6550  129.8140   65.8680 C   0  0  0  0  0  0  0  0  0  0  0  0
  124.9180  129.6820   62.1390 C   0  0  0  0  0  0  0  0  0  0  0  0
  125.8990  129.3290   61.2160 C   0  0  0  0  0  0  0  0  0  0  0  0
  128.6120  127.1820   60.4560 C   0  0  0  0  0  0  0  0  0  0  0  0
  128.2050  125.9300   61.0380 C   0  0  0  0  0  0  0  0  0  0  0  0
  127.2330  125.8510   62.0020 N   0  0  0  0  0  0  0  0  0  0  0  0
  128.8900  124.8170   60.5270 C   0  0  0  0  0  0  0  0  0  0  0  0
  128.7290  123.4050   60.8840 C   0  0  0  0  0  0  0  0  0  0  0  0
  127.7490  123.0270   61.5310 O   0  0  0  0  0  0  0  0  0  0  0  0
  129.7190  122.5810   60.4580 N   0  0  0  0  0  0  0  0  0  0  0  0
  129.8190  121.2100   60.6500 C   0  0  0  0  0  0  0  0  0  0  0  0
  131.0380  120.5440   60.7630 C   0  0  0  0  0  0  0  0  0  0  0  0
  130.7080  119.2190   60.9370 C   0  0  0  0  0  0  0  0  0  0  0  0
  129.3600  119.0940   60.9330 O   0  0  0  0  0  0  0  0  0  0  0  0
  128.8070  120.3630   60.7520 N   0  0  0  0  0  0  0  0  0  0  0  0
  130.0630  125.2980   59.3010 S   0  0  0  0  0  0  0  0  0  0  0  0
  129.6300  126.9830   59.4800 C   0  0  0  0  0  0  0  0  0  0  0  0
  130.2150  127.9410   58.7620 N   0  0  0  0  0  0  0  0  0  0  0  0
  131.8630  130.4320   58.1990 C   0  0  0  0  0  0  0  0  0  0  0  0
  132.4940  131.4140   57.4390 C   0  0  0  0  0  0  0  0  0  0  0  0
  134.2416  133.2382   56.4726 H   0  0  0  0  0  0  0  0  0  0  0  0
  133.9069  132.3445   54.9507 H   0  0  0  0  0  0  0  0  0  0  0  0
  133.9314  134.1406   54.9507 H   0  0  0  0  0  0  0  0  0  0  0  0
  129.7541  132.7681   55.9291 H   0  0  0  0  0  0  0  0  0  0  0  0
  128.6353  131.0210   57.2850 H   0  0  0  0  0  0  0  0  0  0  0  0
  128.4998  130.5773   60.0524 H   0  0  0  0  0  0  0  0  0  0  0  0
  128.3935  128.4503   63.3709 H   0  0  0  0  0  0  0  0  0  0  0  0
  126.6435  129.0814   65.0207 H   0  0  0  0  0  0  0  0  0  0  0  0
  123.7996  130.0644   66.5127 H   0  0  0  0  0  0  0  0  0  0  0  0
  124.9795  128.7832   66.0733 H   0  0  0  0  0  0  0  0  0  0  0  0
  125.4841  130.5071   66.0733 H   0  0  0  0  0  0  0  0  0  0  0  0
  123.9350  130.0290   61.7878 H   0  0  0  0  0  0  0  0  0  0  0  0
  125.6873  129.3971   60.1387 H   0  0  0  0  0  0  0  0  0  0  0  0
  126.8260  124.9640   62.2670 H   0  0  0  0  0  0  0  0  0  0  0  0
  126.8880  126.6720   62.4790 H   0  0  0  0  0  0  0  0  0  0  0  0
  130.4730  123.0030   59.9370 H   0  0  0  0  0  0  0  0  0  0  0  0
  132.0460  120.9824   60.7220 H   0  0  0  0  0  0  0  0  0  0  0  0
  131.4249  118.3938   61.0597 H   0  0  0  0  0  0  0  0  0  0  0  0
  132.4664  129.7713   58.8388 H   0  0  0  0  0  0  0  0  0  0  0  0
  133.5877  131.5232   57.4837 H   0  0  0  0  0  0  0  0  0  0  0  0
  1  2  1  0
  2  3  1  0
  3  4  2  0
  4  5  1  0
  5  6  2  0
  6  7  1  0
  7  8  2  0
  8  9  1  0
  9 10  1  0
 10 11  2  0
 11 12  1  0
 12 13  2  0
 13 14  1  0
 14 15  1  0
 13 16  1  0
 16 17  2  0
  9 18  2  0
 18 19  1  0
 19 20  1  0
 19 21  2  0
 21 22  1  0
 22 23  2  0
 22 24  1  0
 24 25  1  0
 25 26  1  0
 26 27  2  0
 27 28  1  0
 28 29  1  0
 21 30  1  0
 30 31  1  0
 31 32  2  0
  6 33  1  0
 33 34  2  0
 34  3  1  0
 32  7  1  0
 17 10  1  0
 31 18  1  0
 29 25  2  0
  1 35  1  0
  1 36  1  0
  1 37  1  0
  4 38  1  0
  5 39  1  0
  8 40  1  0
 11 41  1  0
 12 42  1  0
 15 43  1  0
 15 44  1  0
 15 45  1  0
 16 46  1  0
 17 47  1  0
 20 48  1  0
 20 49  1  0
 24 50  1  0
 26 51  1  0
 27 52  1  0
 33 53  1  0
 34 54  1  0
M  END
>  <Binding energies>  (1) 
[-5.22]

>  <Ligand effiencies>  (1) 
[-0.14108108108108108]

>  <Interactions>  (1) 
["V-A:TRP:381:CZ2:3368, H-B:GLU:543:OE1:9881, V-A:TRP:381:CH2:3370, V-B:ALA:541:CB:9864, V-A:PRO:482:CG:4325, V-B:ASP:366:CG:8185, H-B:ARG:545:NH2:9900, H-B:ALA:541:N:9863, V-A:LEU:475:CD2:4257, V-A:PRO:482:CB:4324, V-B:TYR:539:CD2:9846, V-A:PRO:540:N:4882, H-A:TYR:539:N:4868, V-A:ILE:538:CA:4858, V-A:TYR:539:C:4865, V-A:LEU:363:CD1:3187, V-A:ILE:538:CB:4860, V-A:PRO:540:CA:4881, V-A:ILE:538:CG2:4861, V-A:GLU:543:CD:4906, V-A:PRO:540:CB:4883, V-B:ARG:545:CZ:9898, V-B:GLU:543:CD:9880, H-B:GLU:543:OE2:9882, V-A:PRO:540:CD:4885, V-A:ILE:538:CG1:4862, H-B:GLY:454:N:9022, H-B:TYR:484:OH:9320, V-B:HIS:456:CE1:9042, V-A:PRO:540:CG:4884, V-B:ARG:545:CG:9894, H-B:ARG:545:NE:9896, V-B:ARG:545:CD:9895, V-B:TYR:484:CZ:9319, V-A:ILE:538:CD1:4863, V-A:LEU:363:CG:3186, H-B:ARG:545:NH1:9899"]

$$$$
8c_Ghoteimi_2023
     RDKit          3D

 54 58  0  0  0  0  0  0  0  0999 V2000
  123.5450  130.0370   67.1700 C   0  0  0  0  0  0  0  0  0  0  0  0
  123.7260  130.6070   65.8790 O   0  0  0  0  0  0  0  0  0  0  0  0
  124.7390  130.1310   65.0680 C   0  0  0  0  0  0  0  0  0  0  0  0
  124.5590  130.2770   63.6940 C   0  0  0  0  0  0  0  0  0  0  0  0
  125.5250  129.8230   62.8020 C   0  0  0  0  0  0  0  0  0  0  0  0
  126.7000  129.2110   63.2610 C   0  0  0  0  0  0  0  0  0  0  0  0
  127.7410  128.7180   62.3070 C   0  0  0  0  0  0  0  0  0  0  0  0
  128.2420  129.5240   61.2810 C   0  0  0  0  0  0  0  0  0  0  0  0
  129.2170  129.0400   60.4030 C   0  0  0  0  0  0  0  0  0  0  0  0
  129.7200  129.9170   59.3210 C   0  0  0  0  0  0  0  0  0  0  0  0
  128.9480  130.1370   58.1780 C   0  0  0  0  0  0  0  0  0  0  0  0
  129.4180  130.9690   57.1660 C   0  0  0  0  0  0  0  0  0  0  0  0
  130.6630  131.5900   57.2790 C   0  0  0  0  0  0  0  0  0  0  0  0
  131.0460  132.4000   56.2280 O   0  0  0  0  0  0  0  0  0  0  0  0
  132.4260  132.5030   55.8970 C   0  0  0  0  0  0  0  0  0  0  0  0
  131.4390  131.3650   58.4270 C   0  0  0  0  0  0  0  0  0  0  0  0
  130.9670  130.5320   59.4390 C   0  0  0  0  0  0  0  0  0  0  0  0
  129.6840  127.7120   60.5910 C   0  0  0  0  0  0  0  0  0  0  0  0
  130.6580  126.9120   59.8950 C   0  0  0  0  0  0  0  0  0  0  0  0
  131.3600  127.3840   58.8150 N   0  0  0  0  0  0  0  0  0  0  0  0
  130.8160  125.6210   60.4230 C   0  0  0  0  0  0  0  0  0  0  0  0
  131.7130  124.5540   59.9720 C   0  0  0  0  0  0  0  0  0  0  0  0
  132.3740  124.6820   58.9400 O   0  0  0  0  0  0  0  0  0  0  0  0
  131.7470  123.4520   60.7610 N   0  0  0  0  0  0  0  0  0  0  0  0
  132.5090  122.3080   60.5630 C   0  0  0  0  0  0  0  0  0  0  0  0
  132.3110  121.3480   59.6860 N   0  0  0  0  0  0  0  0  0  0  0  0
  133.2350  120.4120   59.7760 C   0  0  0  0  0  0  0  0  0  0  0  0
  134.2130  120.6040   60.7460 C   0  0  0  0  0  0  0  0  0  0  0  0
  133.8950  122.0950   61.5820 S   0  0  0  0  0  0  0  0  0  0  0  0
  129.7550  125.3650   61.8100 S   0  0  0  0  0  0  0  0  0  0  0  0
  129.1080  126.9840   61.6720 C   0  0  0  0  0  0  0  0  0  0  0  0
  128.1770  127.4440   62.5070 N   0  0  0  0  0  0  0  0  0  0  0  0
  126.8760  129.0700   64.6450 C   0  0  0  0  0  0  0  0  0  0  0  0
  125.9100  129.5210   65.5400 C   0  0  0  0  0  0  0  0  0  0  0  0
  123.7832  130.7870   67.9386 H   0  0  0  0  0  0  0  0  0  0  0  0
  122.4999  129.7135   67.2847 H   0  0  0  0  0  0  0  0  0  0  0  0
  124.2120  129.1698   67.2847 H   0  0  0  0  0  0  0  0  0  0  0  0
  123.6453  130.7553   63.3115 H   0  0  0  0  0  0  0  0  0  0  0  0
  125.3647  129.9459   61.7207 H   0  0  0  0  0  0  0  0  0  0  0  0
  127.8652  130.5507   61.1627 H   0  0  0  0  0  0  0  0  0  0  0  0
  127.9661  129.6515   58.0774 H   0  0  0  0  0  0  0  0  0  0  0  0
  128.8032  131.1386   56.2697 H   0  0  0  0  0  0  0  0  0  0  0  0
  133.0222  132.5475   56.8203 H   0  0  0  0  0  0  0  0  0  0  0  0
  132.7282  131.6249   55.3074 H   0  0  0  0  0  0  0  0  0  0  0  0
  132.5945  133.4162   55.3074 H   0  0  0  0  0  0  0  0  0  0  0  0
  132.4223  131.8477   58.5277 H   0  0  0  0  0  0  0  0  0  0  0  0
  131.5803  130.3582   60.3355 H   0  0  0  0  0  0  0  0  0  0  0  0
  131.8230  126.7560   58.1720 H   0  0  0  0  0  0  0  0  0  0  0  0
  131.4420  128.3730   58.6260 H   0  0  0  0  0  0  0  0  0  0  0  0
  131.1650  123.4540   61.5850 H   0  0  0  0  0  0  0  0  0  0  0  0
  133.2326  119.5286   59.1206 H   0  0  0  0  0  0  0  0  0  0  0  0
  135.0520  119.9228   60.9511 H   0  0  0  0  0  0  0  0  0  0  0  0
  127.7912  128.5959   65.0292 H   0  0  0  0  0  0  0  0  0  0  0  0
  126.0659  129.3984   66.6220 H   0  0  0  0  0  0  0  0  0  0  0  0
  1  2  1  0
  2  3  1  0
  3  4  2  0
  4  5  1  0
  5  6  2  0
  6  7  1  0
  7  8  2  0
  8  9  1  0
  9 10  1  0
 10 11  2  0
 11 12  1  0
 12 13  2  0
 13 14  1  0
 14 15  1  0
 13 16  1  0
 16 17  2  0
  9 18  2  0
 18 19  1  0
 19 20  1  0
 19 21  2  0
 21 22  1  0
 22 23  2  0
 22 24  1  0
 24 25  1  0
 25 26  2  0
 26 27  1  0
 27 28  2  0
 28 29  1  0
 21 30  1  0
 30 31  1  0
 31 32  2  0
  6 33  1  0
 33 34  2  0
 34  3  1  0
 32  7  1  0
 17 10  1  0
 31 18  1  0
 29 25  1  0
  1 35  1  0
  1 36  1  0
  1 37  1  0
  4 38  1  0
  5 39  1  0
  8 40  1  0
 11 41  1  0
 12 42  1  0
 15 43  1  0
 15 44  1  0
 15 45  1  0
 16 46  1  0
 17 47  1  0
 20 48  1  0
 20 49  1  0
 24 50  1  0
 27 51  1  0
 28 52  1  0
 33 53  1  0
 34 54  1  0
M  END
>  <Binding energies>  (1) 
[-6.09]

>  <Ligand effiencies>  (1) 
[-0.16459459459459458]

>  <Interactions>  (1) 
["V-A:TRP:381:CZ2:3368, V-A:TRP:381:CH2:3370, V-B:TYR:539:CE2:9848, V-A:LEU:475:CD2:4257, V-B:TYR:539:CD2:9846, V-A:ASP:366:CG:3211, V-A:PRO:540:N:4882, H-A:TYR:539:N:4868, V-A:ILE:538:CA:4858, H-A:TYR:531:OH:4793, V-A:ASP:366:CB:3210, V-A:TYR:539:C:4865, V-A:ILE:538:CB:4860, V-A:PRO:540:CA:4881, V-A:ILE:538:CG2:4861, V-A:GLU:543:CD:4906, V-A:PRO:540:CB:4883, V-B:ARG:545:CZ:9898, V-B:GLU:543:CD:9880, H-A:ASP:366:OD2:3213, V-A:PRO:540:CD:4885, V-A:GLY:454:CA:4047, H-B:GLY:454:N:9022, H-B:TYR:484:OH:9320, H-A:ASP:366:OD1:3212, V-A:ILE:369:CG2:3235, V-A:ILE:369:CD1:3237, V-B:HIS:456:CE1:9042, V-B:GLY:454:CA:9021, V-A:PRO:540:CG:4884, V-B:ARG:545:CG:9894, V-B:ARG:545:CD:9895, V-B:TYR:484:CZ:9319, V-A:ILE:369:CG1:3236, V-A:SER:385:C:3403, V-A:SER:385:CA:3405, V-B:ARG:545:CB:9893, V-B:ILE:455:C:9024, H-B:ILE:455:N:9027, V-B:GLY:454:C:9019"]

$$$$
8d_Ghoteimi_2023
     RDKit          3D

 50 53  0  0  0  0  0  0  0  0999 V2000
  127.1910  123.7210   54.7210 C   0  0  0  0  0  0  0  0  0  0  0  0
  126.5130  122.7570   55.5140 O   0  0  0  0  0  0  0  0  0  0  0  0
  125.8120  123.1300   56.6160 C   0  0  0  0  0  0  0  0  0  0  0  0
  124.5990  122.9530   56.7540 O   0  0  0  0  0  0  0  0  0  0  0  0
  126.6560  123.7760   57.6440 C   0  0  0  0  0  0  0  0  0  0  0  0
  127.9890  122.8820   58.3770 S   0  0  0  0  0  0  0  0  0  0  0  0
  128.4080  124.2520   59.3800 C   0  0  0  0  0  0  0  0  0  0  0  0
  129.4260  124.2100   60.2400 N   0  0  0  0  0  0  0  0  0  0  0  0
  129.6660  125.3320   60.9700 C   0  0  0  0  0  0  0  0  0  0  0  0
  130.8110  125.2560   61.9300 C   0  0  0  0  0  0  0  0  0  0  0  0
  132.1020  124.9270   61.4940 C   0  0  0  0  0  0  0  0  0  0  0  0
  133.1640  124.8580   62.3910 C   0  0  0  0  0  0  0  0  0  0  0  0
  132.9630  125.1140   63.7470 C   0  0  0  0  0  0  0  0  0  0  0  0
  134.0730  125.0220   64.5640 O   0  0  0  0  0  0  0  0  0  0  0  0
  133.8970  125.0150   65.9770 C   0  0  0  0  0  0  0  0  0  0  0  0
  131.6760  125.4460   64.1940 C   0  0  0  0  0  0  0  0  0  0  0  0
  130.6170  125.5150   63.2930 C   0  0  0  0  0  0  0  0  0  0  0  0
  128.8870  126.4860   60.8440 C   0  0  0  0  0  0  0  0  0  0  0  0
  127.8210  126.5310   59.9400 C   0  0  0  0  0  0  0  0  0  0  0  0
  127.0190  127.7710   59.8230 C   0  0  0  0  0  0  0  0  0  0  0  0
  126.9240  128.4330   58.5970 C   0  0  0  0  0  0  0  0  0  0  0  0
  126.1780  129.6030   58.4900 C   0  0  0  0  0  0  0  0  0  0  0  0
  125.5140  130.1260   59.6000 C   0  0  0  0  0  0  0  0  0  0  0  0
  124.7990  131.2900   59.4000 O   0  0  0  0  0  0  0  0  0  0  0  0
  123.5180  131.4320   60.0040 C   0  0  0  0  0  0  0  0  0  0  0  0
  125.6070  129.4550   60.8310 C   0  0  0  0  0  0  0  0  0  0  0  0
  126.3550  128.2850   60.9370 C   0  0  0  0  0  0  0  0  0  0  0  0
  127.5540  125.3720   59.1650 C   0  0  0  0  0  0  0  0  0  0  0  0
  126.5630  125.0710   58.1690 C   0  0  0  0  0  0  0  0  0  0  0  0
  125.6100  125.9760   57.7770 N   0  0  0  0  0  0  0  0  0  0  0  0
  127.6991  124.4434   55.3768 H   0  0  0  0  0  0  0  0  0  0  0  0
  127.9341  123.2164   54.0861 H   0  0  0  0  0  0  0  0  0  0  0  0
  126.4648  124.2497   54.0861 H   0  0  0  0  0  0  0  0  0  0  0  0
  132.2782  124.7205   60.4280 H   0  0  0  0  0  0  0  0  0  0  0  0
  134.1695  124.5996   62.0275 H   0  0  0  0  0  0  0  0  0  0  0  0
  134.8800  125.0541   66.4691 H   0  0  0  0  0  0  0  0  0  0  0  0
  133.3018  125.8902   66.2767 H   0  0  0  0  0  0  0  0  0  0  0  0
  133.3732  124.0953   66.2767 H   0  0  0  0  0  0  0  0  0  0  0  0
  131.5026  125.6527   65.2604 H   0  0  0  0  0  0  0  0  0  0  0  0
  129.6125  125.7769   63.6569 H   0  0  0  0  0  0  0  0  0  0  0  0
  129.1148  127.3671   61.4619 H   0  0  0  0  0  0  0  0  0  0  0  0
  127.4401  128.0287   57.7137 H   0  0  0  0  0  0  0  0  0  0  0  0
  126.1113  130.1201   57.5214 H   0  0  0  0  0  0  0  0  0  0  0  0
  123.6254  131.4201   61.0987 H   0  0  0  0  0  0  0  0  0  0  0  0
  123.0683  132.3855   59.6901 H   0  0  0  0  0  0  0  0  0  0  0  0
  122.8703  130.6001   59.6901 H   0  0  0  0  0  0  0  0  0  0  0  0
  125.0872  129.8552   61.7140 H   0  0  0  0  0  0  0  0  0  0  0  0
  126.4225  127.7639   61.9034 H   0  0  0  0  0  0  0  0  0  0  0  0
  125.3920  126.1240   56.8010 H   0  0  0  0  0  0  0  0  0  0  0  0
  125.0890  126.5230   58.4480 H   0  0  0  0  0  0  0  0  0  0  0  0
  1  2  1  0
  2  3  1  0
  3  4  2  0
  3  5  1  0
  5  6  1  0
  6  7  1  0
  7  8  2  0
  8  9  1  0
  9 10  1  0
 10 11  2  0
 11 12  1  0
 12 13  2  0
 13 14  1  0
 14 15  1  0
 13 16  1  0
 16 17  2  0
  9 18  2  0
 18 19  1  0
 19 20  1  0
 20 21  2  0
 21 22  1  0
 22 23  2  0
 23 24  1  0
 24 25  1  0
 23 26  1  0
 26 27  2  0
 19 28  2  0
 28 29  1  0
 29 30  1  0
 29  5  2  0
 28  7  1  0
 17 10  1  0
 27 20  1  0
  1 31  1  0
  1 32  1  0
  1 33  1  0
 11 34  1  0
 12 35  1  0
 15 36  1  0
 15 37  1  0
 15 38  1  0
 16 39  1  0
 17 40  1  0
 18 41  1  0
 21 42  1  0
 22 43  1  0
 25 44  1  0
 25 45  1  0
 25 46  1  0
 26 47  1  0
 27 48  1  0
 30 49  1  0
 30 50  1  0
M  END
>  <Binding energies>  (1) 
[-7.06]

>  <Ligand effiencies>  (1) 
[-0.220625]

>  <Interactions>  (1) 
["V-B:PRO:540:N:9856, V-B:ILE:538:CA:9832, V-B:ASP:366:CG:8185, V-B:PRO:540:CB:9857, V-B:PRO:540:CA:9855, V-B:TYR:539:CD2:9846, V-B:TYR:531:CZ:9766, H-B:TYR:539:N:9842, V-B:GLU:543:CD:9880, H-B:TYR:531:OH:9767, V-B:TYR:539:C:9839, H-B:ASP:366:OD2:8187, V-B:PRO:540:CD:9859, V-A:ARG:545:CZ:4924, V-A:GLY:454:CA:4047, V-A:ARG:545:CD:4921, H-A:TYR:484:OH:4346, H-A:ARG:545:NE:4922, H-A:GLY:454:N:4048, V-B:ASP:366:CB:8184, H-A:ARG:545:NH1:4925, V-A:HIS:456:CE1:4068, V-A:ARG:545:CG:4920, V-A:TYR:484:CZ:4345, V-B:ILE:369:CD1:8211, V-B:ILE:369:CG2:8209, V-B:ASP:366:CA:8182, V-B:ILE:369:CB:8208"]

$$$$
9a_Ghoteimi_2023
     RDKit          3D

 85 91  0  0  0  0  0  0  0  0999 V2000
  131.0060  124.6320   56.8740 C   0  0  0  0  0  0  0  0  0  0  0  0
  132.0120  125.5570   56.1830 C   0  0  0  0  0  0  0  0  0  0  0  0
  133.2860  125.4180   56.8000 O   0  0  0  0  0  0  0  0  0  0  0  0
  133.5260  124.4270   57.6960 C   0  0  0  0  0  0  0  0  0  0  0  0
  134.1560  123.4000   57.4230 O   0  0  0  0  0  0  0  0  0  0  0  0
  132.9420  124.6980   59.0530 C   0  0  0  0  0  0  0  0  0  0  0  0
  132.1190  125.8170   59.2330 C   0  0  0  0  0  0  0  0  0  0  0  0
  131.5640  126.0970   60.4790 C   0  0  0  0  0  0  0  0  0  0  0  0
  131.8190  125.2650   61.5690 C   0  0  0  0  0  0  0  0  0  0  0  0
  131.2060  125.6450   62.7790 N   0  0  0  0  0  0  0  0  0  0  0  0
  131.0770  124.9700   63.9480 C   0  0  0  0  0  0  0  0  0  0  0  0
  131.5110  123.8350   64.1440 O   0  0  0  0  0  0  0  0  0  0  0  0
  130.3730  125.6920   65.0130 C   0  0  0  0  0  0  0  0  0  0  0  0
  130.6810  125.3050   66.7060 S   0  0  0  0  0  0  0  0  0  0  0  0
  129.5480  126.5250   67.2380 C   0  0  0  0  0  0  0  0  0  0  0  0
  129.3290  126.7580   68.5320 N   0  0  0  0  0  0  0  0  0  0  0  0
  128.4370  127.7360   68.8400 C   0  0  0  0  0  0  0  0  0  0  0  0
  128.2150  127.9870   70.2960 C   0  0  0  0  0  0  0  0  0  0  0  0
  129.2990  128.0590   71.1790 C   0  0  0  0  0  0  0  0  0  0  0  0
  129.1010  128.2930   72.5370 C   0  0  0  0  0  0  0  0  0  0  0  0
  127.8120  128.4800   73.0610 C   0  0  0  0  0  0  0  0  0  0  0  0
  127.5970  128.6970   74.4260 N   0  0  0  0  0  0  0  0  0  0  0  0
  126.4380  129.4740   74.9100 C   0  0  0  0  0  0  0  0  0  0  0  0
  126.5550  129.9150   76.3840 C   0  0  0  0  0  0  0  0  0  0  0  0
  126.7960  128.7890   77.2120 O   0  0  0  0  0  0  0  0  0  0  0  0
  128.0010  128.1300   76.8560 C   0  0  0  0  0  0  0  0  0  0  0  0
  127.9200  127.6330   75.3990 C   0  0  0  0  0  0  0  0  0  0  0  0
  126.7290  128.3930   72.1750 C   0  0  0  0  0  0  0  0  0  0  0  0
  126.9270  128.1550   70.8180 C   0  0  0  0  0  0  0  0  0  0  0  0
  127.7510  128.4550   67.8590 C   0  0  0  0  0  0  0  0  0  0  0  0
  127.9630  128.2000   66.5000 C   0  0  0  0  0  0  0  0  0  0  0  0
  127.1800  128.9680   65.4980 C   0  0  0  0  0  0  0  0  0  0  0  0
  127.6640  129.1450   64.2000 C   0  0  0  0  0  0  0  0  0  0  0  0
  126.9230  129.8530   63.2590 C   0  0  0  0  0  0  0  0  0  0  0  0
  125.6670  130.3900   63.5870 C   0  0  0  0  0  0  0  0  0  0  0  0
  124.9100  131.1140   62.6630 N   0  0  0  0  0  0  0  0  0  0  0  0
  124.9390  130.7180   61.2410 C   0  0  0  0  0  0  0  0  0  0  0  0
  123.7930  131.3360   60.4110 C   0  0  0  0  0  0  0  0  0  0  0  0
  123.8040  132.7490   60.5440 O   0  0  0  0  0  0  0  0  0  0  0  0
  123.6320  133.1510   61.8940 C   0  0  0  0  0  0  0  0  0  0  0  0
  124.7740  132.5810   62.7630 C   0  0  0  0  0  0  0  0  0  0  0  0
  125.1900  130.2040   64.8920 C   0  0  0  0  0  0  0  0  0  0  0  0
  125.9330  129.4990   65.8340 C   0  0  0  0  0  0  0  0  0  0  0  0
  128.9210  127.2040   66.1530 C   0  0  0  0  0  0  0  0  0  0  0  0
  129.4290  126.7230   64.8920 C   0  0  0  0  0  0  0  0  0  0  0  0
  129.0300  127.2450   63.6890 N   0  0  0  0  0  0  0  0  0  0  0  0
  132.6400  124.1390   61.3980 C   0  0  0  0  0  0  0  0  0  0  0  0
  133.1940  123.8620   60.1510 C   0  0  0  0  0  0  0  0  0  0  0  0
  131.1096  124.7273   57.9650 H   0  0  0  0  0  0  0  0  0  0  0  0
  129.9850  124.9133   56.5767 H   0  0  0  0  0  0  0  0  0  0  0  0
  131.2008  123.5910   56.5767 H   0  0  0  0  0  0  0  0  0  0  0  0
  132.0883  125.2865   55.1195 H   0  0  0  0  0  0  0  0  0  0  0  0
  131.6730  126.5996   56.2730 H   0  0  0  0  0  0  0  0  0  0  0  0
  131.9090  126.4812   58.3816 H   0  0  0  0  0  0  0  0  0  0  0  0
  130.9203  126.9801   60.6045 H   0  0  0  0  0  0  0  0  0  0  0  0
  130.8050  126.5710   62.7620 H   0  0  0  0  0  0  0  0  0  0  0  0
  130.3213  127.9289   70.7945 H   0  0  0  0  0  0  0  0  0  0  0  0
  129.9694  128.3320   73.2110 H   0  0  0  0  0  0  0  0  0  0  0  0
  126.3389  130.3742   74.2856 H   0  0  0  0  0  0  0  0  0  0  0  0
  125.5598  128.8151   74.8417 H   0  0  0  0  0  0  0  0  0  0  0  0
  127.3878  130.6264   76.4859 H   0  0  0  0  0  0  0  0  0  0  0  0
  125.6139  130.3937   76.6923 H   0  0  0  0  0  0  0  0  0  0  0  0
  128.8427  128.8312   76.9554 H   0  0  0  0  0  0  0  0  0  0  0  0
  128.1520  127.2686   77.5233 H   0  0  0  0  0  0  0  0  0  0  0  0
  128.8922  127.1964   75.1264 H   0  0  0  0  0  0  0  0  0  0  0  0
  127.1029  126.8979   75.3549 H   0  0  0  0  0  0  0  0  0  0  0  0
  125.7054  128.5149   72.5588 H   0  0  0  0  0  0  0  0  0  0  0  0
  126.0583  128.0981   70.1456 H   0  0  0  0  0  0  0  0  0  0  0  0
  127.0337  129.2330   68.1592 H   0  0  0  0  0  0  0  0  0  0  0  0
  128.6394  128.7210   63.9192 H   0  0  0  0  0  0  0  0  0  0  0  0
  127.3258  129.9941   62.2452 H   0  0  0  0  0  0  0  0  0  0  0  0
  125.8972  131.0413   60.8081 H   0  0  0  0  0  0  0  0  0  0  0  0
  124.8150  129.6256   61.2046 H   0  0  0  0  0  0  0  0  0  0  0  0
  123.9251  131.0688   59.3521 H   0  0  0  0  0  0  0  0  0  0  0  0
  122.8316  130.9466   60.7771 H   0  0  0  0  0  0  0  0  0  0  0  0
  123.6436  134.2494   61.9515 H   0  0  0  0  0  0  0  0  0  0  0  0
  122.6697  132.7687   62.2653 H   0  0  0  0  0  0  0  0  0  0  0  0
  125.7199  133.0417   62.4419 H   0  0  0  0  0  0  0  0  0  0  0  0
  124.5328  132.8144   63.8105 H   0  0  0  0  0  0  0  0  0  0  0  0
  124.2129  130.6220   65.1759 H   0  0  0  0  0  0  0  0  0  0  0  0
  125.5354  129.3591   66.8500 H   0  0  0  0  0  0  0  0  0  0  0  0
  128.0590  127.2530   63.4070 H   0  0  0  0  0  0  0  0  0  0  0  0
  129.6960  127.6410   63.0400 H   0  0  0  0  0  0  0  0  0  0  0  0
  132.8458  123.4748   62.2503 H   0  0  0  0  0  0  0  0  0  0  0  0
  133.8363  122.9779   60.0254 H   0  0  0  0  0  0  0  0  0  0  0  0
  1  2  1  0
  2  3  1  0
  3  4  1  0
  4  5  2  0
  4  6  1  0
  6  7  2  0
  7  8  1  0
  8  9  2  0
  9 10  1  0
 10 11  1  0
 11 12  2  0
 11 13  1  0
 13 14  1  0
 14 15  1  0
 15 16  2  0
 16 17  1  0
 17 18  1  0
 18 19  2  0
 19 20  1  0
 20 21  2  0
 21 22  1  0
 22 23  1  0
 23 24  1  0
 24 25  1  0
 25 26  1  0
 26 27  1  0
 21 28  1  0
 28 29  2  0
 17 30  2  0
 30 31  1  0
 31 32  1  0
 32 33  2  0
 33 34  1  0
 34 35  2  0
 35 36  1  0
 36 37  1  0
 37 38  1  0
 38 39  1  0
 39 40  1  0
 40 41  1  0
 35 42  1  0
 42 43  2  0
 31 44  2  0
 44 45  1  0
 45 46  1  0
  9 47  1  0
 47 48  2  0
 48  6  1  0
 45 13  2  0
 44 15  1  0
 29 18  1  0
 43 32  1  0
 27 22  1  0
 41 36  1  0
  1 49  1  0
  1 50  1  0
  1 51  1  0
  2 52  1  0
  2 53  1  0
  7 54  1  0
  8 55  1  0
 10 56  1  0
 19 57  1  0
 20 58  1  0
 23 59  1  0
 23 60  1  0
 24 61  1  0
 24 62  1  0
 26 63  1  0
 26 64  1  0
 27 65  1  0
 27 66  1  0
 28 67  1  0
 29 68  1  0
 30 69  1  0
 33 70  1  0
 34 71  1  0
 37 72  1  0
 37 73  1  0
 38 74  1  0
 38 75  1  0
 40 76  1  0
 40 77  1  0
 41 78  1  0
 41 79  1  0
 42 80  1  0
 43 81  1  0
 46 82  1  0
 46 83  1  0
 47 84  1  0
 48 85  1  0
M  END
>  <Binding energies>  (1) 
[1.59]

>  <Ligand effiencies>  (1) 
[0.031176470588235295]

>  <Interactions>  (1) 
["H-B:GLU:543:OE1:9881, V-B:TYR:539:CZ:9849, V-B:ASP:366:CG:8185, V-B:TYR:539:CE2:9848, V-A:ASP:366:CG:3211, H-A:TYR:531:OH:4793, V-A:ASP:366:CB:3210, V-A:TYR:531:CZ:4792, V-A:GLU:543:CD:4906, V-B:ARG:545:CZ:9898, V-B:GLU:543:CD:9880, H-B:GLU:543:OE2:9882, V-A:ARG:545:CZ:4924, H-A:GLU:543:OE2:4908, H-A:GLU:543:OE1:4907, H-A:TYR:484:OH:4346, H-B:TYR:539:OH:9850, V-A:TYR:531:CE1:4790, V-A:ASP:366:CA:3208, V-B:HIS:456:CE1:9042, V-B:VAL:458:CG2:9059, V-B:LYS:471:CD:9191, V-B:GLY:544:C:9884, V-B:LYS:471:CE:9192, V-B:HIS:456:CD2:9040, V-A:LYS:547:CE:4948, V-B:HIS:456:CG:9038, V-B:HIS:456:CB:9037, V-A:HIS:456:CE1:4068, V-A:GLY:544:C:4910, V-B:LYS:547:CE:9922, V-B:GLY:454:CA:9021, V-B:GLU:543:CG:9879, V-A:GLU:543:CG:4905, V-A:TYR:484:CZ:4345, V-B:ARG:545:CG:9894, V-B:GLU:543:CB:9878, V-B:ILE:369:CD1:8211, V-A:GLY:544:CA:4912, V-B:ILE:369:CG2:8209, V-A:GLU:543:CB:4904, V-B:LEU:475:CD2:9231, V-A:ASP:366:C:3206, V-B:LYS:547:CD:9921, V-B:ARG:545:CA:9891"]

$$$$
9b_Ghoteimi_2023
     RDKit          3D

 72 78  0  0  0  0  0  0  0  0999 V2000
  128.5590  128.0750   63.4780 N   0  0  0  0  0  0  0  0  0  0  0  0
  128.1150  128.3710   64.7420 C   0  0  0  0  0  0  0  0  0  0  0  0
  127.0710  129.2720   65.0050 C   0  0  0  0  0  0  0  0  0  0  0  0
  126.2570  130.0300   64.0510 C   0  0  0  0  0  0  0  0  0  0  0  0
  125.1870  129.5780   63.6390 O   0  0  0  0  0  0  0  0  0  0  0  0
  126.7690  131.2270   63.6700 N   0  0  0  0  0  0  0  0  0  0  0  0
  126.2180  132.1380   62.7770 C   0  0  0  0  0  0  0  0  0  0  0  0
  126.9640  132.7830   61.7920 C   0  0  0  0  0  0  0  0  0  0  0  0
  126.0640  133.5850   61.1300 C   0  0  0  0  0  0  0  0  0  0  0  0
  124.8390  133.4310   61.6880 O   0  0  0  0  0  0  0  0  0  0  0  0
  124.9500  132.5120   62.7310 N   0  0  0  0  0  0  0  0  0  0  0  0
  126.7900  129.4340   66.7380 S   0  0  0  0  0  0  0  0  0  0  0  0
  128.0790  128.3120   67.0990 C   0  0  0  0  0  0  0  0  0  0  0  0
  128.4100  128.0080   68.3520 N   0  0  0  0  0  0  0  0  0  0  0  0
  129.4390  127.1380   68.5250 C   0  0  0  0  0  0  0  0  0  0  0  0
  129.8030  126.8300   69.9420 C   0  0  0  0  0  0  0  0  0  0  0  0
  131.1380  126.8450   70.3660 C   0  0  0  0  0  0  0  0  0  0  0  0
  131.4720  126.5430   71.6820 C   0  0  0  0  0  0  0  0  0  0  0  0
  130.4860  126.2010   72.6200 C   0  0  0  0  0  0  0  0  0  0  0  0
  130.8060  125.8980   73.9490 N   0  0  0  0  0  0  0  0  0  0  0  0
  131.3540  126.9230   74.8600 C   0  0  0  0  0  0  0  0  0  0  0  0
  131.3200  126.5160   76.3470 C   0  0  0  0  0  0  0  0  0  0  0  0
  131.9800  125.2730   76.5260 O   0  0  0  0  0  0  0  0  0  0  0  0
  131.3540  124.2410   75.7820 C   0  0  0  0  0  0  0  0  0  0  0  0
  131.3830  124.5780   74.2760 C   0  0  0  0  0  0  0  0  0  0  0  0
  129.1500  126.2070   72.1950 C   0  0  0  0  0  0  0  0  0  0  0  0
  128.8150  126.5130   70.8790 C   0  0  0  0  0  0  0  0  0  0  0  0
  130.1140  126.5560   67.4490 C   0  0  0  0  0  0  0  0  0  0  0  0
  129.7560  126.8570   66.1290 C   0  0  0  0  0  0  0  0  0  0  0  0
  130.4840  126.1890   65.0210 C   0  0  0  0  0  0  0  0  0  0  0  0
  131.7160  125.5780   65.2550 C   0  0  0  0  0  0  0  0  0  0  0  0
  132.3920  124.9350   64.2220 C   0  0  0  0  0  0  0  0  0  0  0  0
  131.8540  124.8860   62.9260 C   0  0  0  0  0  0  0  0  0  0  0  0
  132.5080  124.2330   61.8790 N   0  0  0  0  0  0  0  0  0  0  0  0
  132.5880  122.7590   61.8850 C   0  0  0  0  0  0  0  0  0  0  0  0
  133.6550  122.2040   60.9160 C   0  0  0  0  0  0  0  0  0  0  0  0
  133.4170  122.6890   59.6030 O   0  0  0  0  0  0  0  0  0  0  0  0
  133.4690  124.1070   59.5490 C   0  0  0  0  0  0  0  0  0  0  0  0
  132.4020  124.7110   60.4860 C   0  0  0  0  0  0  0  0  0  0  0  0
  130.6070  125.4890   62.7080 C   0  0  0  0  0  0  0  0  0  0  0  0
  129.9310  126.1320   63.7410 C   0  0  0  0  0  0  0  0  0  0  0  0
  128.7030  127.7930   65.9250 C   0  0  0  0  0  0  0  0  0  0  0  0
  128.0930  127.3920   62.8970 H   0  0  0  0  0  0  0  0  0  0  0  0
  129.3690  128.5330   63.0840 H   0  0  0  0  0  0  0  0  0  0  0  0
  127.6500  131.5000   64.0790 H   0  0  0  0  0  0  0  0  0  0  0  0
  128.0395  132.6742   61.5883 H   0  0  0  0  0  0  0  0  0  0  0  0
  126.3008  134.2457   60.2830 H   0  0  0  0  0  0  0  0  0  0  0  0
  131.9325  127.0989   69.6489 H   0  0  0  0  0  0  0  0  0  0  0  0
  132.5268  126.5728   71.9927 H   0  0  0  0  0  0  0  0  0  0  0  0
  132.3994  127.1154   74.5769 H   0  0  0  0  0  0  0  0  0  0  0  0
  130.7190  127.8153   74.7574 H   0  0  0  0  0  0  0  0  0  0  0  0
  131.8260  127.2866   76.9471 H   0  0  0  0  0  0  0  0  0  0  0  0
  130.2731  126.4184   76.6704 H   0  0  0  0  0  0  0  0  0  0  0  0
  131.8877  123.2945   75.9530 H   0  0  0  0  0  0  0  0  0  0  0  0
  130.3080  124.1462   76.1089 H   0  0  0  0  0  0  0  0  0  0  0  0
  132.4295  124.5635   73.9375 H   0  0  0  0  0  0  0  0  0  0  0  0
  130.7653  123.8235   73.7670 H   0  0  0  0  0  0  0  0  0  0  0  0
  128.3529  125.9658   72.9137 H   0  0  0  0  0  0  0  0  0  0  0  0
  127.7587  126.5053   70.5722 H   0  0  0  0  0  0  0  0  0  0  0  0
  130.9373  125.8523   67.6412 H   0  0  0  0  0  0  0  0  0  0  0  0
  132.1563  125.6045   66.2627 H   0  0  0  0  0  0  0  0  0  0  0  0
  133.3624  124.4580   64.4240 H   0  0  0  0  0  0  0  0  0  0  0  0
  132.8343  122.4263   62.9041 H   0  0  0  0  0  0  0  0  0  0  0  0
  131.6122  122.3771   61.5504 H   0  0  0  0  0  0  0  0  0  0  0  0
  134.6525  122.5271   61.2486 H   0  0  0  0  0  0  0  0  0  0  0  0
  133.6016  121.1053   60.9106 H   0  0  0  0  0  0  0  0  0  0  0  0
  134.4661  124.4471   59.8654 H   0  0  0  0  0  0  0  0  0  0  0  0
  133.2719  124.4363   58.5181 H   0  0  0  0  0  0  0  0  0  0  0  0
  132.5144  125.8052   60.4831 H   0  0  0  0  0  0  0  0  0  0  0  0
  131.4193  124.3935   60.1072 H   0  0  0  0  0  0  0  0  0  0  0  0
  130.1561  125.4534   61.7053 H   0  0  0  0  0  0  0  0  0  0  0  0
  128.9539  126.5985   63.5470 H   0  0  0  0  0  0  0  0  0  0  0  0
  1  2  1  0
  2  3  2  0
  3  4  1  0
  4  5  2  0
  4  6  1  0
  6  7  1  0
  7  8  1  0
  8  9  2  0
  9 10  1  0
 10 11  1  0
  3 12  1  0
 12 13  1  0
 13 14  2  0
 14 15  1  0
 15 16  1  0
 16 17  2  0
 17 18  1  0
 18 19  2  0
 19 20  1  0
 20 21  1  0
 21 22  1  0
 22 23  1  0
 23 24  1  0
 24 25  1  0
 19 26  1  0
 26 27  2  0
 15 28  2  0
 28 29  1  0
 29 30  1  0
 30 31  2  0
 31 32  1  0
 32 33  2  0
 33 34  1  0
 34 35  1  0
 35 36  1  0
 36 37  1  0
 37 38  1  0
 38 39  1  0
 33 40  1  0
 40 41  2  0
 29 42  2  0
 42  2  1  0
 11  7  2  0
 42 13  1  0
 27 16  1  0
 41 30  1  0
 25 20  1  0
 39 34  1  0
  1 43  1  0
  1 44  1  0
  6 45  1  0
  8 46  1  0
  9 47  1  0
 17 48  1  0
 18 49  1  0
 21 50  1  0
 21 51  1  0
 22 52  1  0
 22 53  1  0
 24 54  1  0
 24 55  1  0
 25 56  1  0
 25 57  1  0
 26 58  1  0
 27 59  1  0
 28 60  1  0
 31 61  1  0
 32 62  1  0
 35 63  1  0
 35 64  1  0
 36 65  1  0
 36 66  1  0
 38 67  1  0
 38 68  1  0
 39 69  1  0
 39 70  1  0
 40 71  1  0
 41 72  1  0
M  END
>  <Binding energies>  (1) 
[-1.44]

>  <Ligand effiencies>  (1) 
[-0.032]

>  <Interactions>  (1) 
["H-B:GLU:543:OE1:9881, H-B:ARG:545:NH2:9900, V-A:LEU:475:CD2:4257, V-A:ASP:366:CG:3211, V-A:ASP:366:CB:3210, V-A:GLU:543:CD:4906, V-B:GLU:543:CD:9880, H-B:GLU:543:OE2:9882, V-A:ARG:545:CZ:4924, H-A:GLU:543:OE2:4908, H-A:GLU:543:OE1:4907, V-A:TYR:539:CE2:4874, V-A:ALA:541:CB:4890, H-B:TYR:484:OH:9320, V-A:ILE:369:CG2:3235, V-A:ILE:369:CD1:3237, V-A:TYR:539:CD2:4872, V-A:LYS:471:CE:4218, V-B:HIS:456:CE1:9042, V-A:HIS:456:CB:4063, V-A:HIS:456:CD2:4066, V-B:GLY:544:C:9884, V-A:HIS:456:CG:4064, V-A:LYS:547:CE:4948, H-B:LYS:547:NZ:9923, V-A:HIS:456:CE1:4068, V-A:GLY:544:C:4910, V-B:LYS:547:CE:9922, V-B:GLY:544:CA:9886, V-B:GLU:543:CG:9879, V-B:GLU:543:C:9874, V-A:GLU:543:CG:4905, V-B:GLU:543:CB:9878, H-B:ARG:545:NE:9896, V-A:GLU:543:CB:4904, V-B:TYR:484:CZ:9319, V-B:LEU:475:CD2:9231, V-A:ARG:545:CA:4917, V-A:LYS:547:CD:4947"]

$$$$
9c_Ghoteimi_2023
     RDKit          3D

 72 78  0  0  0  0  0  0  0  0999 V2000
  128.3590  128.1630   63.4490 N   0  0  0  0  0  0  0  0  0  0  0  0
  127.9830  128.5180   64.7200 C   0  0  0  0  0  0  0  0  0  0  0  0
  127.0380  129.5180   64.9960 C   0  0  0  0  0  0  0  0  0  0  0  0
  126.2750  130.3390   64.0520 C   0  0  0  0  0  0  0  0  0  0  0  0
  125.0490  130.4320   64.1430 O   0  0  0  0  0  0  0  0  0  0  0  0
  127.0090  130.9620   63.0970 N   0  0  0  0  0  0  0  0  0  0  0  0
  126.5360  131.7800   62.0810 C   0  0  0  0  0  0  0  0  0  0  0  0
  125.3580  131.7420   61.4950 N   0  0  0  0  0  0  0  0  0  0  0  0
  125.2510  132.6680   60.5620 C   0  0  0  0  0  0  0  0  0  0  0  0
  126.3630  133.4850   60.3740 C   0  0  0  0  0  0  0  0  0  0  0  0
  127.6100  133.0050   61.4860 S   0  0  0  0  0  0  0  0  0  0  0  0
  126.8210  129.7290   66.7330 S   0  0  0  0  0  0  0  0  0  0  0  0
  128.0080  128.4940   67.0770 C   0  0  0  0  0  0  0  0  0  0  0  0
  128.3430  128.1750   68.3270 N   0  0  0  0  0  0  0  0  0  0  0  0
  129.2890  127.2140   68.4860 C   0  0  0  0  0  0  0  0  0  0  0  0
  129.6610  126.8910   69.8970 C   0  0  0  0  0  0  0  0  0  0  0  0
  128.6830  126.5990   70.8550 C   0  0  0  0  0  0  0  0  0  0  0  0
  129.0330  126.3080   72.1700 C   0  0  0  0  0  0  0  0  0  0  0  0
  130.3770  126.3130   72.5790 C   0  0  0  0  0  0  0  0  0  0  0  0
  130.7460  126.0160   73.8960 N   0  0  0  0  0  0  0  0  0  0  0  0
  131.3130  127.0490   74.7870 C   0  0  0  0  0  0  0  0  0  0  0  0
  131.3310  126.6460   76.2770 C   0  0  0  0  0  0  0  0  0  0  0  0
  132.0120  125.4120   76.4350 O   0  0  0  0  0  0  0  0  0  0  0  0
  131.3730  124.3710   75.7140 C   0  0  0  0  0  0  0  0  0  0  0  0
  131.3500  124.7040   74.2070 C   0  0  0  0  0  0  0  0  0  0  0  0
  131.3530  126.5880   71.6110 C   0  0  0  0  0  0  0  0  0  0  0  0
  131.0010  126.8740   70.2950 C   0  0  0  0  0  0  0  0  0  0  0  0
  129.8740  126.5560   67.4010 C   0  0  0  0  0  0  0  0  0  0  0  0
  129.5100  126.8720   66.0880 C   0  0  0  0  0  0  0  0  0  0  0  0
  130.1380  126.1230   64.9710 C   0  0  0  0  0  0  0  0  0  0  0  0
  130.9210  124.9970   65.2300 C   0  0  0  0  0  0  0  0  0  0  0  0
  131.4980  124.2820   64.1830 C   0  0  0  0  0  0  0  0  0  0  0  0
  131.3080  124.6760   62.8500 C   0  0  0  0  0  0  0  0  0  0  0  0
  131.8680  123.9660   61.7830 N   0  0  0  0  0  0  0  0  0  0  0  0
  133.2860  124.1880   61.4360 C   0  0  0  0  0  0  0  0  0  0  0  0
  133.6600  123.6600   60.0350 C   0  0  0  0  0  0  0  0  0  0  0  0
  133.3270  122.2830   59.9300 O   0  0  0  0  0  0  0  0  0  0  0  0
  131.9390  122.0630   60.1270 C   0  0  0  0  0  0  0  0  0  0  0  0
  131.5180  122.5550   61.5290 C   0  0  0  0  0  0  0  0  0  0  0  0
  130.5020  125.7970   62.6010 C   0  0  0  0  0  0  0  0  0  0  0  0
  129.9250  126.5110   63.6470 C   0  0  0  0  0  0  0  0  0  0  0  0
  128.5460  127.9020   65.8960 C   0  0  0  0  0  0  0  0  0  0  0  0
  127.9290  127.3900   62.9620 H   0  0  0  0  0  0  0  0  0  0  0  0
  129.0840  128.6650   62.9560 H   0  0  0  0  0  0  0  0  0  0  0  0
  128.0090  130.8250   63.1190 H   0  0  0  0  0  0  0  0  0  0  0  0
  124.3346  132.7883   59.9656 H   0  0  0  0  0  0  0  0  0  0  0  0
  126.4398  134.3015   59.6409 H   0  0  0  0  0  0  0  0  0  0  0  0
  127.6222  126.5996   70.5640 H   0  0  0  0  0  0  0  0  0  0  0  0
  128.2454  126.0705   72.9003 H   0  0  0  0  0  0  0  0  0  0  0  0
  132.3468  127.2508   74.4699 H   0  0  0  0  0  0  0  0  0  0  0  0
  130.6659  127.9345   74.7028 H   0  0  0  0  0  0  0  0  0  0  0  0
  131.8464  127.4242   76.8591 H   0  0  0  0  0  0  0  0  0  0  0  0
  130.2967  126.5374   76.6353 H   0  0  0  0  0  0  0  0  0  0  0  0
  131.9219  123.4306   75.8702 H   0  0  0  0  0  0  0  0  0  0  0  0
  130.3391  124.2662   76.0747 H   0  0  0  0  0  0  0  0  0  0  0  0
  132.3853  124.7019   73.8354 H   0  0  0  0  0  0  0  0  0  0  0  0
  130.7264  123.9402   73.7193 H   0  0  0  0  0  0  0  0  0  0  0  0
  132.4153  126.5776   71.8963 H   0  0  0  0  0  0  0  0  0  0  0  0
  131.7884  127.0897   69.5578 H   0  0  0  0  0  0  0  0  0  0  0  0
  130.6312  125.7788   67.5819 H   0  0  0  0  0  0  0  0  0  0  0  0
  131.0836  124.6719   66.2682 H   0  0  0  0  0  0  0  0  0  0  0  0
  132.1112  123.3960   64.4045 H   0  0  0  0  0  0  0  0  0  0  0  0
  133.4884  125.2688   61.4676 H   0  0  0  0  0  0  0  0  0  0  0  0
  133.8918  123.6321   62.1668 H   0  0  0  0  0  0  0  0  0  0  0  0
  133.1070  124.2277   59.2722 H   0  0  0  0  0  0  0  0  0  0  0  0
  134.7421  123.7827   59.8798 H   0  0  0  0  0  0  0  0  0  0  0  0
  131.3712  122.6135   59.3624 H   0  0  0  0  0  0  0  0  0  0  0  0
  131.7297  120.9862   60.0452 H   0  0  0  0  0  0  0  0  0  0  0  0
  130.4280  122.4431   61.6253 H   0  0  0  0  0  0  0  0  0  0  0  0
  132.0643  121.9467   62.2649 H   0  0  0  0  0  0  0  0  0  0  0  0
  130.3235  126.1163   61.5636 H   0  0  0  0  0  0  0  0  0  0  0  0
  129.2967  127.3872   63.4290 H   0  0  0  0  0  0  0  0  0  0  0  0
  1  2  1  0
  2  3  2  0
  3  4  1  0
  4  5  2  0
  4  6  1  0
  6  7  1  0
  7  8  2  0
  8  9  1  0
  9 10  2  0
 10 11  1  0
  3 12  1  0
 12 13  1  0
 13 14  2  0
 14 15  1  0
 15 16  1  0
 16 17  2  0
 17 18  1  0
 18 19  2  0
 19 20  1  0
 20 21  1  0
 21 22  1  0
 22 23  1  0
 23 24  1  0
 24 25  1  0
 19 26  1  0
 26 27  2  0
 15 28  2  0
 28 29  1  0
 29 30  1  0
 30 31  2  0
 31 32  1  0
 32 33  2  0
 33 34  1  0
 34 35  1  0
 35 36  1  0
 36 37  1  0
 37 38  1  0
 38 39  1  0
 33 40  1  0
 40 41  2  0
 29 42  2  0
 42  2  1  0
 11  7  1  0
 42 13  1  0
 27 16  1  0
 41 30  1  0
 25 20  1  0
 39 34  1  0
  1 43  1  0
  1 44  1  0
  6 45  1  0
  9 46  1  0
 10 47  1  0
 17 48  1  0
 18 49  1  0
 21 50  1  0
 21 51  1  0
 22 52  1  0
 22 53  1  0
 24 54  1  0
 24 55  1  0
 25 56  1  0
 25 57  1  0
 26 58  1  0
 27 59  1  0
 28 60  1  0
 31 61  1  0
 32 62  1  0
 35 63  1  0
 35 64  1  0
 36 65  1  0
 36 66  1  0
 38 67  1  0
 38 68  1  0
 39 69  1  0
 39 70  1  0
 40 71  1  0
 41 72  1  0
M  END
>  <Binding energies>  (1) 
[-2.15]

>  <Ligand effiencies>  (1) 
[-0.04777777777777777]

>  <Interactions>  (1) 
["H-B:GLU:543:OE1:9881, V-B:TYR:539:CE2:9848, V-B:TYR:539:CD2:9846, V-A:GLU:543:CD:4906, V-B:GLU:543:CD:9880, H-B:GLU:543:OE2:9882, H-A:GLU:543:OE2:4908, H-A:GLU:543:OE1:4907, V-A:TYR:539:CE2:4874, H-B:GLY:454:N:9022, V-A:ALA:541:CB:4890, H-B:TYR:484:OH:9320, V-A:ILE:369:CG2:3235, V-A:ILE:369:CD1:3237, V-A:TYR:539:CD2:4872, V-A:LYS:471:CE:4218, V-B:HIS:456:CE1:9042, V-A:HIS:456:CB:4063, V-A:HIS:456:CD2:4066, V-B:GLY:544:C:9884, V-A:HIS:456:CG:4064, V-A:LYS:547:CE:4948, H-B:LYS:547:NZ:9923, V-A:HIS:456:CE1:4068, V-A:GLY:544:C:4910, V-B:LYS:547:CE:9922, V-B:GLY:544:CA:9886, V-B:GLU:543:CG:9879, V-B:GLU:543:C:9874, V-A:GLU:543:CG:4905, V-B:GLU:543:CB:9878, V-A:GLU:543:CB:4904, V-B:TYR:484:CZ:9319, V-A:ARG:545:CA:4917, V-A:LYS:547:CD:4947"]

$$$$
9d_Ghoteimi_2023
     RDKit          3D

 68 73  0  0  0  0  0  0  0  0999 V2000
  134.3610  123.9420   58.5400 C   0  0  0  0  0  0  0  0  0  0  0  0
  133.4350  122.9850   59.0330 O   0  0  0  0  0  0  0  0  0  0  0  0
  133.5070  122.5420   60.3150 C   0  0  0  0  0  0  0  0  0  0  0  0
  134.1250  121.5320   60.6620 O   0  0  0  0  0  0  0  0  0  0  0  0
  132.7600  123.3970   61.2630 C   0  0  0  0  0  0  0  0  0  0  0  0
  133.0390  123.2380   62.9970 S   0  0  0  0  0  0  0  0  0  0  0  0
  131.8910  124.5110   63.3390 C   0  0  0  0  0  0  0  0  0  0  0  0
  131.6540  124.9200   64.5840 N   0  0  0  0  0  0  0  0  0  0  0  0
  130.7560  125.9280   64.7420 C   0  0  0  0  0  0  0  0  0  0  0  0
  130.5250  126.3890   66.1460 C   0  0  0  0  0  0  0  0  0  0  0  0
  131.5010  127.1300   66.8190 C   0  0  0  0  0  0  0  0  0  0  0  0
  131.2970  127.5620   68.1270 C   0  0  0  0  0  0  0  0  0  0  0  0
  130.1010  127.2770   68.8060 C   0  0  0  0  0  0  0  0  0  0  0  0
  129.8880  127.6890   70.1260 N   0  0  0  0  0  0  0  0  0  0  0  0
  128.6170  128.3180   70.5400 C   0  0  0  0  0  0  0  0  0  0  0  0
  128.6830  129.0140   71.9150 C   0  0  0  0  0  0  0  0  0  0  0  0
  129.1440  128.1030   72.8990 O   0  0  0  0  0  0  0  0  0  0  0  0
  130.4430  127.6230   72.5950 C   0  0  0  0  0  0  0  0  0  0  0  0
  130.4340  126.8850   71.2390 C   0  0  0  0  0  0  0  0  0  0  0  0
  129.1320  126.5200   68.1310 C   0  0  0  0  0  0  0  0  0  0  0  0
  129.3380  126.0860   66.8250 C   0  0  0  0  0  0  0  0  0  0  0  0
  130.0770  126.4980   63.6630 C   0  0  0  0  0  0  0  0  0  0  0  0
  130.3080  126.0580   62.3540 C   0  0  0  0  0  0  0  0  0  0  0  0
  129.5380  126.6790   61.2450 C   0  0  0  0  0  0  0  0  0  0  0  0
  128.2610  126.2180   60.9170 C   0  0  0  0  0  0  0  0  0  0  0  0
  127.5360  126.8160   59.8890 C   0  0  0  0  0  0  0  0  0  0  0  0
  128.0640  127.9020   59.1730 C   0  0  0  0  0  0  0  0  0  0  0  0
  127.3610  128.5120   58.1320 N   0  0  0  0  0  0  0  0  0  0  0  0
  125.8850  128.5130   58.1660 C   0  0  0  0  0  0  0  0  0  0  0  0
  125.2540  129.5330   57.1950 C   0  0  0  0  0  0  0  0  0  0  0  0
  125.7300  129.3090   55.8760 O   0  0  0  0  0  0  0  0  0  0  0  0
  127.1420  129.4420   55.7990 C   0  0  0  0  0  0  0  0  0  0  0  0
  127.8180  128.4160   56.7330 C   0  0  0  0  0  0  0  0  0  0  0  0
  129.3470  128.3560   59.5100 C   0  0  0  0  0  0  0  0  0  0  0  0
  130.0720  127.7570   60.5360 C   0  0  0  0  0  0  0  0  0  0  0  0
  131.2750  125.0320   62.1620 C   0  0  0  0  0  0  0  0  0  0  0  0
  131.8080  124.3880   60.9900 C   0  0  0  0  0  0  0  0  0  0  0  0
  131.4330  124.7300   59.7170 N   0  0  0  0  0  0  0  0  0  0  0  0
  134.8505  124.4479   59.3853 H   0  0  0  0  0  0  0  0  0  0  0  0
  135.1204  123.4352   57.9264 H   0  0  0  0  0  0  0  0  0  0  0  0
  133.8295  124.6843   57.9264 H   0  0  0  0  0  0  0  0  0  0  0  0
  132.4437  127.3753   66.3079 H   0  0  0  0  0  0  0  0  0  0  0  0
  132.0852  128.1357   68.6366 H   0  0  0  0  0  0  0  0  0  0  0  0
  128.3398  129.0683   69.7849 H   0  0  0  0  0  0  0  0  0  0  0  0
  127.8744  127.5110   70.6259 H   0  0  0  0  0  0  0  0  0  0  0  0
  129.3735  129.8684   71.8578 H   0  0  0  0  0  0  0  0  0  0  0  0
  127.6773  129.3642   72.1906 H   0  0  0  0  0  0  0  0  0  0  0  0
  131.1410  128.4716   72.5424 H   0  0  0  0  0  0  0  0  0  0  0  0
  130.7611  126.9239   73.3824 H   0  0  0  0  0  0  0  0  0  0  0  0
  131.4681  126.6049   70.9897 H   0  0  0  0  0  0  0  0  0  0  0  0
  129.7771  126.0103   71.3547 H   0  0  0  0  0  0  0  0  0  0  0  0
  128.1925  126.2649   68.6432 H   0  0  0  0  0  0  0  0  0  0  0  0
  128.5585  125.4973   66.3193 H   0  0  0  0  0  0  0  0  0  0  0  0
  129.3505  127.3039   63.8440 H   0  0  0  0  0  0  0  0  0  0  0  0
  127.8246  125.3763   61.4748 H   0  0  0  0  0  0  0  0  0  0  0  0
  126.5369  126.4324   59.6349 H   0  0  0  0  0  0  0  0  0  0  0  0
  125.5287  127.5077   57.8968 H   0  0  0  0  0  0  0  0  0  0  0  0
  125.5822  128.8007   59.1836 H   0  0  0  0  0  0  0  0  0  0  0  0
  124.1598  129.4218   57.2108 H   0  0  0  0  0  0  0  0  0  0  0  0
  125.5311  130.5498   57.5103 H   0  0  0  0  0  0  0  0  0  0  0  0
  127.4692  129.2640   54.7640 H   0  0  0  0  0  0  0  0  0  0  0  0
  127.4275  130.4578   56.1098 H   0  0  0  0  0  0  0  0  0  0  0  0
  127.5948  127.4051   56.3612 H   0  0  0  0  0  0  0  0  0  0  0  0
  128.8968  128.6306   56.7269 H   0  0  0  0  0  0  0  0  0  0  0  0
  129.7870  129.1979   58.9554 H   0  0  0  0  0  0  0  0  0  0  0  0
  131.0730  128.1356   60.7903 H   0  0  0  0  0  0  0  0  0  0  0  0
  132.0630  124.6380   58.9330 H   0  0  0  0  0  0  0  0  0  0  0  0
  130.5070  125.0830   59.5170 H   0  0  0  0  0  0  0  0  0  0  0  0
  1  2  1  0
  2  3  1  0
  3  4  2  0
  3  5  1  0
  5  6  1  0
  6  7  1  0
  7  8  2  0
  8  9  1  0
  9 10  1  0
 10 11  2  0
 11 12  1  0
 12 13  2  0
 13 14  1  0
 14 15  1  0
 15 16  1  0
 16 17  1  0
 17 18  1  0
 18 19  1  0
 13 20  1  0
 20 21  2  0
  9 22  2  0
 22 23  1  0
 23 24  1  0
 24 25  2  0
 25 26  1  0
 26 27  2  0
 27 28  1  0
 28 29  1  0
 29 30  1  0
 30 31  1  0
 31 32  1  0
 32 33  1  0
 27 34  1  0
 34 35  2  0
 23 36  2  0
 36 37  1  0
 37 38  1  0
 37  5  2  0
 36  7  1  0
 21 10  1  0
 35 24  1  0
 19 14  1  0
 33 28  1  0
  1 39  1  0
  1 40  1  0
  1 41  1  0
 11 42  1  0
 12 43  1  0
 15 44  1  0
 15 45  1  0
 16 46  1  0
 16 47  1  0
 18 48  1  0
 18 49  1  0
 19 50  1  0
 19 51  1  0
 20 52  1  0
 21 53  1  0
 22 54  1  0
 25 55  1  0
 26 56  1  0
 29 57  1  0
 29 58  1  0
 30 59  1  0
 30 60  1  0
 32 61  1  0
 32 62  1  0
 33 63  1  0
 33 64  1  0
 34 65  1  0
 35 66  1  0
 38 67  1  0
 38 68  1  0
M  END
>  <Binding energies>  (1) 
[-5.66]

>  <Ligand effiencies>  (1) 
[-0.14150000000000001]

>  <Interactions>  (1) 
["V-B:ASP:366:CG:8185, V-A:ASP:366:CG:3211, V-A:ASP:366:CB:3210, V-A:GLU:543:CD:4906, V-B:GLU:543:CD:9880, H-B:TYR:531:OH:9767, V-A:GLY:454:CA:4047, V-A:ARG:545:CD:4921, H-A:TYR:484:OH:4346, V-B:ASP:366:CB:8184, H-A:TYR:539:OH:4876, H-A:ASP:366:OD1:3212, V-A:ILE:369:CB:3234, V-A:ILE:369:CG2:3235, V-A:ILE:369:CD1:3237, V-A:ASP:366:CA:3208, V-B:HIS:456:CE1:9042, V-A:HIS:456:CD2:4066, V-A:HIS:456:CG:4064, V-B:HIS:456:CD2:9040, V-A:LYS:547:CE:4948, H-A:LYS:547:NZ:4949, V-B:HIS:456:CG:9038, V-A:HIS:456:CE1:4068, V-A:GLY:544:C:4910, V-B:GLU:543:CG:9879, V-B:GLU:543:C:9874, V-A:ARG:545:CG:4920, V-A:GLU:543:CG:4905, V-B:GLU:543:CB:9878, V-A:GLY:544:CA:4912, V-A:GLU:543:C:4900, V-A:ASP:366:C:3206, V-A:ARG:545:CA:4917"]

$$$$
RR10_Rahimova_2017
     RDKit          3D

 66 70  0  0  0  0  0  0  0  0999 V2000
  132.8770  132.1240   56.0220 C   0  0  0  0  0  0  0  0  0  0  0  0
  131.3560  132.1570   56.2470 C   0  0  1  0  0  0  0  0  0  0  0  0
  130.5730  131.9700   54.9270 C   0  0  0  0  0  0  0  0  0  0  0  0
  129.0490  132.0400   55.1710 C   0  0  0  0  0  0  0  0  0  0  0  0
  128.5720  130.9810   56.1990 C   0  0  1  0  0  0  0  0  0  0  0  0
  128.7020  129.6260   55.6470 N   0  0  0  0  0  0  0  0  0  0  0  0
  127.6790  128.7970   55.3670 C   0  0  0  0  0  0  0  0  0  0  0  0
  126.4970  129.1090   55.5290 O   0  0  0  0  0  0  0  0  0  0  0  0
  128.0480  127.3970   54.8330 C   0  0  1  0  0  0  0  0  0  0  0  0
  129.5860  127.3000   54.6620 C   0  0  0  0  0  0  0  0  0  0  0  0
  129.9670  125.8680   54.2150 C   0  0  0  0  0  0  0  0  0  0  0  0
  129.3680  124.7800   55.1370 C   0  0  0  0  0  0  0  0  0  0  0  0
  127.9020  124.9810   55.3020 N   0  0  0  0  0  0  0  0  0  0  0  0
  127.0610  123.6340   56.0870 S   0  0  0  0  0  0  0  0  0  0  0  0
  127.6040  122.3810   55.5480 O   0  0  0  0  0  0  0  0  0  0  0  0
  125.6190  123.9040   56.0220 O   0  0  0  0  0  0  0  0  0  0  0  0
  127.5590  123.7140   57.8070 C   0  0  0  0  0  0  0  0  0  0  0  0
  126.6150  123.4560   58.8060 C   0  0  0  0  0  0  0  0  0  0  0  0
  126.9390  123.5040   60.1650 C   0  0  0  0  0  0  0  0  0  0  0  0
  128.2620  123.8220   60.4810 C   0  0  0  0  0  0  0  0  0  0  0  0
  128.9500  123.9690   61.6620 N   0  0  0  0  0  0  0  0  0  0  0  0
  130.2550  124.2960   61.3550 C   0  0  0  0  0  0  0  0  0  0  0  0
  131.3140  124.5470   62.3890 C   0  0  0  0  0  0  0  0  0  0  0  0
  130.9600  124.7830   63.7250 C   0  0  0  0  0  0  0  0  0  0  0  0
  131.9410  125.0120   64.6860 C   0  0  0  0  0  0  0  0  0  0  0  0
  133.2830  125.0080   64.3160 C   0  0  0  0  0  0  0  0  0  0  0  0
  133.6520  124.7750   62.9940 C   0  0  0  0  0  0  0  0  0  0  0  0
  132.6700  124.5460   62.0340 C   0  0  0  0  0  0  0  0  0  0  0  0
  130.4540  124.3630   60.0570 N   0  0  0  0  0  0  0  0  0  0  0  0
  129.2390  124.0780   59.4900 C   0  0  0  0  0  0  0  0  0  0  0  0
  128.8860  124.0200   58.1340 C   0  0  0  0  0  0  0  0  0  0  0  0
  127.5440  126.3220   55.8290 C   0  0  0  0  0  0  0  0  0  0  0  0
  129.3780  131.1700   57.5130 C   0  0  0  0  0  0  0  0  0  0  0  0
  130.9020  131.0920   57.2730 C   0  0  0  0  0  0  0  0  0  0  0  0
  133.3913  132.1128   56.9943 H   0  0  0  0  0  0  0  0  0  0  0  0
  133.1443  131.2198   55.4554 H   0  0  0  0  0  0  0  0  0  0  0  0
  133.1833  133.0157   55.4554 H   0  0  0  0  0  0  0  0  0  0  0  0
  131.1290  133.1545   56.6514 H   0  0  0  0  0  0  0  0  0  0  0  0
  130.8611  132.7642   54.2225 H   0  0  0  0  0  0  0  0  0  0  0  0
  130.8160  130.9802   54.5133 H   0  0  0  0  0  0  0  0  0  0  0  0
  128.7964  133.0411   55.5504 H   0  0  0  0  0  0  0  0  0  0  0  0
  128.5438  131.8353   54.2155 H   0  0  0  0  0  0  0  0  0  0  0  0
  127.5040  131.1187   56.4237 H   0  0  0  0  0  0  0  0  0  0  0  0
  129.6410  129.2620   55.5890 H   0  0  0  0  0  0  0  0  0  0  0  0
  127.5722  127.2290   53.8556 H   0  0  0  0  0  0  0  0  0  0  0  0
  129.9163  128.0217   53.9005 H   0  0  0  0  0  0  0  0  0  0  0  0
  130.0761  127.5272   55.6202 H   0  0  0  0  0  0  0  0  0  0  0  0
  129.5954  125.7072   53.1922 H   0  0  0  0  0  0  0  0  0  0  0  0
  131.0625  125.7827   54.2657 H   0  0  0  0  0  0  0  0  0  0  0  0
  129.5493  123.7901   54.6929 H   0  0  0  0  0  0  0  0  0  0  0  0
  129.8484  124.8483   56.1242 H   0  0  0  0  0  0  0  0  0  0  0  0
  125.5843  123.2073   58.5130 H   0  0  0  0  0  0  0  0  0  0  0  0
  126.1906  123.3018   60.9454 H   0  0  0  0  0  0  0  0  0  0  0  0
  128.6100  123.8720   62.6080 H   0  0  0  0  0  0  0  0  0  0  0  0
  129.8992  124.7872   64.0160 H   0  0  0  0  0  0  0  0  0  0  0  0
  131.6570  125.1952   65.7328 H   0  0  0  0  0  0  0  0  0  0  0  0
  134.0584  125.1905   65.0746 H   0  0  0  0  0  0  0  0  0  0  0  0
  134.7145  124.7718   62.7092 H   0  0  0  0  0  0  0  0  0  0  0  0
  132.9605  124.3629   60.9890 H   0  0  0  0  0  0  0  0  0  0  0  0
  129.6317  124.2098   57.3479 H   0  0  0  0  0  0  0  0  0  0  0  0
  126.4518  126.3987   55.9353 H   0  0  0  0  0  0  0  0  0  0  0  0
  128.0101  126.4749   56.8136 H   0  0  0  0  0  0  0  0  0  0  0  0
  129.1356  132.1544   57.9399 H   0  0  0  0  0  0  0  0  0  0  0  0
  129.1004  130.3585   58.2017 H   0  0  0  0  0  0  0  0  0  0  0  0
  131.4255  131.2634   58.2251 H   0  0  0  0  0  0  0  0  0  0  0  0
  131.1439  130.0956   56.8747 H   0  0  0  0  0  0  0  0  0  0  0  0
  1  2  1  0
  2  3  1  0
  3  4  1  0
  4  5  1  0
  5  6  1  0
  6  7  1  0
  7  8  2  0
  7  9  1  0
  9 10  1  0
 10 11  1  0
 11 12  1  0
 12 13  1  0
 13 14  1  0
 14 15  2  0
 14 16  2  0
 14 17  1  0
 17 18  2  0
 18 19  1  0
 19 20  2  0
 20 21  1  0
 21 22  1  0
 22 23  1  0
 23 24  2  0
 24 25  1  0
 25 26  2  0
 26 27  1  0
 27 28  2  0
 22 29  2  0
 29 30  1  0
 30 31  2  0
 13 32  1  0
  5 33  1  0
 33 34  1  0
 34  2  1  0
 32  9  1  0
 31 17  1  0
 30 20  1  0
 28 23  1  0
  1 35  1  0
  1 36  1  0
  1 37  1  0
  2 38  1  1
  3 39  1  0
  3 40  1  0
  4 41  1  0
  4 42  1  0
  5 43  1  1
  6 44  1  0
  9 45  1  6
 10 46  1  0
 10 47  1  0
 11 48  1  0
 11 49  1  0
 12 50  1  0
 12 51  1  0
 18 52  1  0
 19 53  1  0
 21 54  1  0
 24 55  1  0
 25 56  1  0
 26 57  1  0
 27 58  1  0
 28 59  1  0
 31 60  1  0
 32 61  1  0
 32 62  1  0
 33 63  1  0
 33 64  1  0
 34 65  1  0
 34 66  1  0
M  END
>  <Binding energies>  (1) 
[-11.13]

>  <Ligand effiencies>  (1) 
[-0.3091666666666667]

>  <Interactions>  (1) 
["V-B:PRO:540:N:9856, H-B:GLU:543:OE1:9881, V-B:TYR:539:CZ:9849, V-B:PRO:540:CB:9857, V-B:PRO:540:CA:9855, V-B:PRO:540:C:9853, V-B:TYR:539:CE1:9847, V-A:TYR:539:CE1:4873, V-A:PRO:540:N:4882, V-A:ILE:538:CA:4858, V-A:TYR:539:CZ:4875, V-A:TYR:531:CE2:4791, H-A:TYR:531:OH:4793, V-A:TYR:539:C:4865, V-A:LEU:363:CD1:3187, V-A:ILE:538:CB:4860, V-A:ILE:538:CG2:4861, V-A:PRO:540:CB:4883, V-A:MET:535:CE:4833, H-B:TYR:539:N:9842, V-B:GLU:543:CD:9880, H-B:TYR:531:OH:9767, V-B:TYR:539:C:9839, H-B:GLU:543:OE2:9882, V-A:ARG:545:CZ:4924, V-A:PRO:540:CD:4885, V-A:ARG:545:CD:4921, V-A:ILE:538:C:4856, V-A:TYR:539:CD1:4871, V-A:GLY:453:CA:4042, V-A:GLY:453:C:4040"]

$$$$
RR11_Rahimova_2017
     RDKit          3D

 55 60  0  0  0  0  0  0  0  0999 V2000
  133.5930  132.1110   55.5310 N   0  0  0  0  0  0  0  0  0  0  0  0
  132.4120  131.9100   56.2430 C   0  0  0  0  0  0  0  0  0  0  0  0
  132.4650  131.4860   57.5700 C   0  0  0  0  0  0  0  0  0  0  0  0
  131.2850  131.2880   58.2800 C   0  0  0  0  0  0  0  0  0  0  0  0
  130.0420  131.5110   57.6730 C   0  0  0  0  0  0  0  0  0  0  0  0
  128.7720  131.3030   58.4430 C   0  0  0  0  0  0  0  0  0  0  0  0
  128.7150  130.8460   59.6750 N   0  0  0  0  0  0  0  0  0  0  0  0
  127.3820  130.8250   59.9920 C   0  0  0  0  0  0  0  0  0  0  0  0
  126.7620  130.4310   61.1860 C   0  0  0  0  0  0  0  0  0  0  0  0
  125.3680  130.5190   61.2720 C   0  0  0  0  0  0  0  0  0  0  0  0
  124.6660  130.0930   62.5550 C   0  0  0  0  0  0  0  0  0  0  0  0
  125.5960  130.0670   63.7600 C   0  0  0  0  0  0  0  0  0  0  0  0
  126.3610  131.1980   64.0640 C   0  0  0  0  0  0  0  0  0  0  0  0
  127.2210  131.2260   65.1630 C   0  0  0  0  0  0  0  0  0  0  0  0
  127.2990  130.0830   65.9700 C   0  0  0  0  0  0  0  0  0  0  0  0
  128.0620  129.8580   67.0860 N   0  0  0  0  0  0  0  0  0  0  0  0
  127.7710  128.6320   67.4650 C   0  0  0  0  0  0  0  0  0  0  0  0
  128.3850  127.9410   68.6480 C   0  0  0  0  0  0  0  0  0  0  0  0
  127.6050  127.6210   69.7670 C   0  0  0  0  0  0  0  0  0  0  0  0
  128.1760  126.9890   70.8690 C   0  0  0  0  0  0  0  0  0  0  0  0
  129.5330  126.6720   70.8590 C   0  0  0  0  0  0  0  0  0  0  0  0
  130.1070  126.0440   71.9640 N   0  0  0  0  0  0  0  0  0  0  0  0
  130.3190  126.9810   69.7520 C   0  0  0  0  0  0  0  0  0  0  0  0
  129.7470  127.6130   68.6510 C   0  0  0  0  0  0  0  0  0  0  0  0
  126.8360  128.0450   66.6390 N   0  0  0  0  0  0  0  0  0  0  0  0
  126.5090  128.9510   65.6580 C   0  0  0  0  0  0  0  0  0  0  0  0
  125.6420  128.9190   64.5630 C   0  0  0  0  0  0  0  0  0  0  0  0
  124.6120  130.9640   60.1820 C   0  0  0  0  0  0  0  0  0  0  0  0
  125.2000  131.3580   58.9770 C   0  0  0  0  0  0  0  0  0  0  0  0
  126.5930  131.2810   58.9100 C   0  0  0  0  0  0  0  0  0  0  0  0
  127.5180  131.5750   57.9350 N   0  0  0  0  0  0  0  0  0  0  0  0
  130.0030  131.9360   56.3380 C   0  0  0  0  0  0  0  0  0  0  0  0
  131.1830  132.1360   55.6250 C   0  0  0  0  0  0  0  0  0  0  0  0
  134.3880  131.5130   55.7070 H   0  0  0  0  0  0  0  0  0  0  0  0
  133.6280  132.8260   54.8200 H   0  0  0  0  0  0  0  0  0  0  0  0
  133.4367  131.3086   58.0542 H   0  0  0  0  0  0  0  0  0  0  0  0
  131.3283  130.9535   59.3270 H   0  0  0  0  0  0  0  0  0  0  0  0
  127.3567  130.0617   62.0345 H   0  0  0  0  0  0  0  0  0  0  0  0
  123.8479  130.7997   62.7585 H   0  0  0  0  0  0  0  0  0  0  0  0
  124.2947  129.0688   62.4031 H   0  0  0  0  0  0  0  0  0  0  0  0
  126.2829  132.0872   63.4211 H   0  0  0  0  0  0  0  0  0  0  0  0
  127.8206  132.1200   65.3893 H   0  0  0  0  0  0  0  0  0  0  0  0
  126.5338  127.8707   69.7753 H   0  0  0  0  0  0  0  0  0  0  0  0
  127.5578  126.7409   71.7444 H   0  0  0  0  0  0  0  0  0  0  0  0
  129.6940  125.1960   72.3240 H   0  0  0  0  0  0  0  0  0  0  0  0
  130.9510  126.4250   72.3690 H   0  0  0  0  0  0  0  0  0  0  0  0
  131.3891  126.7265   69.7473 H   0  0  0  0  0  0  0  0  0  0  0  0
  130.3691  127.8565   67.7771 H   0  0  0  0  0  0  0  0  0  0  0  0
  126.4900  127.1060   66.7710 H   0  0  0  0  0  0  0  0  0  0  0  0
  125.0252  128.0355   64.3417 H   0  0  0  0  0  0  0  0  0  0  0  0
  123.5169  131.0052   60.2768 H   0  0  0  0  0  0  0  0  0  0  0  0
  124.5978  131.7101   58.1265 H   0  0  0  0  0  0  0  0  0  0  0  0
  127.3610  131.9320   57.0050 H   0  0  0  0  0  0  0  0  0  0  0  0
  129.0334  132.1130   55.8496 H   0  0  0  0  0  0  0  0  0  0  0  0
  131.1451  132.4711   54.5780 H   0  0  0  0  0  0  0  0  0  0  0  0
  1  2  1  0
  2  3  2  0
  3  4  1  0
  4  5  2  0
  5  6  1  0
  6  7  2  0
  7  8  1  0
  8  9  2  0
  9 10  1  0
 10 11  1  0
 11 12  1  0
 12 13  2  0
 13 14  1  0
 14 15  2  0
 15 16  1  0
 16 17  2  0
 17 18  1  0
 18 19  2  0
 19 20  1  0
 20 21  2  0
 21 22  1  0
 21 23  1  0
 23 24  2  0
 17 25  1  0
 25 26  1  0
 26 27  2  0
 10 28  2  0
 28 29  1  0
 29 30  2  0
 30 31  1  0
  5 32  1  0
 32 33  2  0
 33  2  1  0
 31  6  1  0
 30  8  1  0
 27 12  1  0
 26 15  1  0
 24 18  1  0
  1 34  1  0
  1 35  1  0
  3 36  1  0
  4 37  1  0
  9 38  1  0
 11 39  1  0
 11 40  1  0
 13 41  1  0
 14 42  1  0
 19 43  1  0
 20 44  1  0
 22 45  1  0
 22 46  1  0
 23 47  1  0
 24 48  1  0
 25 49  1  0
 27 50  1  0
 28 51  1  0
 29 52  1  0
 31 53  1  0
 32 54  1  0
 33 55  1  0
M  END
>  <Binding energies>  (1) 
[-6.63]

>  <Ligand effiencies>  (1) 
[-0.16999999999999998]

>  <Interactions>  (1) 
["V-B:ASP:366:CG:8185, V-A:PRO:540:N:4882, V-A:ILE:538:CA:4858, V-A:TYR:539:CZ:4875, V-A:TYR:531:CE2:4791, H-A:TYR:531:OH:4793, V-A:TYR:539:C:4865, V-A:LEU:363:CD1:3187, V-A:ILE:538:CB:4860, V-A:PRO:540:CA:4881, V-A:ILE:538:CG2:4861, V-A:TYR:531:CZ:4792, V-A:GLU:543:CD:4906, V-A:PRO:540:CB:4883, V-B:ARG:545:CZ:9898, V-B:GLU:543:CD:9880, H-B:GLU:543:OE2:9882, V-A:PRO:540:CD:4885, V-A:TYR:539:CE2:4874, H-A:TYR:539:OH:4876, V-A:TYR:539:CD2:4872, V-B:HIS:456:CE1:9042, V-A:HIS:456:CD2:4066, V-B:GLY:544:C:9884, H-A:GLY:544:O:4911, V-A:HIS:456:CG:4064, V-B:HIS:456:CD2:9040, V-A:HIS:456:CE1:4068, H-A:HIS:456:NE2:4069, V-A:GLY:544:C:4910, V-B:GLY:544:CA:9886, H-B:GLU:543:O:9875, V-B:GLU:543:CG:9879, V-B:GLU:543:C:9874, V-A:GLU:543:CG:4905, V-B:ARG:545:CG:9894, V-A:GLU:543:C:4900, V-A:GLU:543:CB:4904, V-B:ARG:545:CD:9895, V-B:TYR:484:CZ:9319, V-A:ILE:538:CD1:4863, V-B:TYR:484:CE1:9317"]

$$$$
RR11_Rahimova_2017-again1
     RDKit          3D

 56 61  0  0  0  0  0  0  0  0999 V2000
  134.5800  123.8780   57.3690 N   0  0  0  0  0  0  0  0  0  0  0  0
  133.4040  124.6070   57.5420 C   0  0  0  0  0  0  0  0  0  0  0  0
  132.7180  124.5410   58.7530 C   0  0  0  0  0  0  0  0  0  0  0  0
  131.5420  125.2680   58.9230 C   0  0  0  0  0  0  0  0  0  0  0  0
  131.0430  126.0650   57.8850 C   0  0  0  0  0  0  0  0  0  0  0  0
  129.7710  126.8410   58.0660 C   0  0  0  0  0  0  0  0  0  0  0  0
  128.7000  126.6960   57.3190 N   0  0  0  0  0  0  0  0  0  0  0  0
  127.7920  127.5990   57.8070 C   0  0  0  0  0  0  0  0  0  0  0  0
  126.4870  127.8680   57.3740 C   0  0  0  0  0  0  0  0  0  0  0  0
  125.7640  128.8590   58.0400 C   0  0  0  0  0  0  0  0  0  0  0  0
  126.3140  129.5760   59.1080 C   0  0  0  0  0  0  0  0  0  0  0  0
  125.4830  130.6500   59.7950 C   0  0  0  0  0  0  0  0  0  0  0  0
  125.5440  130.5570   61.3140 C   0  0  0  0  0  0  0  0  0  0  0  0
  124.7700  131.4270   62.0910 C   0  0  0  0  0  0  0  0  0  0  0  0
  124.7860  131.3910   63.4870 C   0  0  0  0  0  0  0  0  0  0  0  0
  125.6140  130.4330   64.0790 C   0  0  0  0  0  0  0  0  0  0  0  0
  125.8780  130.1310   65.4090 N   0  0  0  0  0  0  0  0  0  0  0  0
  126.7810  129.0960   65.4880 C   0  0  0  0  0  0  0  0  0  0  0  0
  127.3390  128.4840   66.7330 C   0  0  0  0  0  0  0  0  0  0  0  0
  126.5230  127.6970   67.5540 C   0  0  0  0  0  0  0  0  0  0  0  0
  127.0390  127.1170   68.7100 C   0  0  0  0  0  0  0  0  0  0  0  0
  128.3750  127.3230   69.0500 C   0  0  0  0  0  0  0  0  0  0  0  0
  128.8920  126.7380   70.2050 N   0  0  0  0  0  0  0  0  0  0  0  0
  129.1960  128.1060   68.2400 C   0  0  0  0  0  0  0  0  0  0  0  0
  128.6790  128.6860   67.0850 C   0  0  0  0  0  0  0  0  0  0  0  0
  127.0800  128.7420   64.1930 N   0  0  0  0  0  0  0  0  0  0  0  0
  126.3820  129.5470   63.3050 C   0  0  0  0  0  0  0  0  0  0  0  0
  126.3570  129.5840   61.9080 C   0  0  0  0  0  0  0  0  0  0  0  0
  127.6080  129.3090   59.5740 C   0  0  0  0  0  0  0  0  0  0  0  0
  128.3290  128.3210   58.8990 C   0  0  0  0  0  0  0  0  0  0  0  0
  129.5950  127.8030   59.0390 N   0  0  0  0  0  0  0  0  0  0  0  0
  131.7440  126.1220   56.6730 C   0  0  0  0  0  0  0  0  0  0  0  0
  132.9200  125.3970   56.5010 C   0  0  0  0  0  0  0  0  0  0  0  0
  135.0960  123.5690   58.1790 H   0  0  0  0  0  0  0  0  0  0  0  0
  134.9220  123.7010   56.4350 H   0  0  0  0  0  0  0  0  0  0  0  0
  133.1039  123.9167   59.5723 H   0  0  0  0  0  0  0  0  0  0  0  0
  131.0013  125.2158   59.8795 H   0  0  0  0  0  0  0  0  0  0  0  0
  126.0447  127.3139   56.5330 H   0  0  0  0  0  0  0  0  0  0  0  0
  124.7363  129.0817   57.7171 H   0  0  0  0  0  0  0  0  0  0  0  0
  125.8592  131.6368   59.4873 H   0  0  0  0  0  0  0  0  0  0  0  0
  124.4351  130.5029   59.4945 H   0  0  0  0  0  0  0  0  0  0  0  0
  124.1280  132.1633   61.5853 H   0  0  0  0  0  0  0  0  0  0  0  0
  124.1779  132.0814   64.0900 H   0  0  0  0  0  0  0  0  0  0  0  0
  125.4940  130.5800   66.2280 H   0  0  0  0  0  0  0  0  0  0  0  0
  125.4687  127.5359   67.2846 H   0  0  0  0  0  0  0  0  0  0  0  0
  126.3948  126.4987   69.3524 H   0  0  0  0  0  0  0  0  0  0  0  0
  129.8530  126.9130   70.4650 H   0  0  0  0  0  0  0  0  0  0  0  0
  128.3100  126.1240   70.7550 H   0  0  0  0  0  0  0  0  0  0  0  0
  130.2497  128.2651   68.5128 H   0  0  0  0  0  0  0  0  0  0  0  0
  129.3258  129.3055   66.4463 H   0  0  0  0  0  0  0  0  0  0  0  0
  127.7260  127.9990   63.9730 H   0  0  0  0  0  0  0  0  0  0  0  0
  126.9487  128.8812   61.3031 H   0  0  0  0  0  0  0  0  0  0  0  0
  128.0357  129.8512   60.4302 H   0  0  0  0  0  0  0  0  0  0  0  0
  130.3090  128.0520   59.7080 H   0  0  0  0  0  0  0  0  0  0  0  0
  131.3619  126.7447   55.8507 H   0  0  0  0  0  0  0  0  0  0  0  0
  133.4651  125.4476   55.5469 H   0  0  0  0  0  0  0  0  0  0  0  0
  1  2  1  0
  2  3  2  0
  3  4  1  0
  4  5  2  0
  5  6  1  0
  6  7  2  0
  7  8  1  0
  8  9  2  0
  9 10  1  0
 10 11  2  0
 11 12  1  0
 12 13  1  0
 13 14  2  0
 14 15  1  0
 15 16  2  0
 16 17  1  0
 17 18  1  0
 18 19  1  0
 19 20  2  0
 20 21  1  0
 21 22  2  0
 22 23  1  0
 22 24  1  0
 24 25  2  0
 18 26  2  0
 26 27  1  0
 27 28  2  0
 11 29  1  0
 29 30  2  0
 30 31  1  0
  5 32  1  0
 32 33  2  0
 33  2  1  0
 31  6  1  0
 30  8  1  0
 28 13  1  0
 27 16  1  0
 25 19  1  0
  1 34  1  0
  1 35  1  0
  3 36  1  0
  4 37  1  0
  9 38  1  0
 10 39  1  0
 12 40  1  0
 12 41  1  0
 14 42  1  0
 15 43  1  0
 17 44  1  0
 20 45  1  0
 21 46  1  0
 23 47  1  0
 23 48  1  0
 24 49  1  0
 25 50  1  0
 26 51  1  0
 28 52  1  0
 29 53  1  0
 31 54  1  0
 32 55  1  0
 33 56  1  0
M  CHG  1  26   1
M  END
>  <Binding energies>  (1) 
[-7.47]

>  <Ligand effiencies>  (1) 
[-0.18675]

>  <Interactions>  (1) 
["H-B:GLU:543:OE1:9881, V-B:TYR:539:CZ:9849, V-B:ASP:366:CG:8185, V-B:TYR:539:CE2:9848, V-A:ASP:366:CG:3211, V-A:ASP:366:CB:3210, V-A:TYR:531:CZ:4792, V-A:GLU:543:CD:4906, V-B:ARG:545:CZ:9898, V-B:GLU:543:CD:9880, H-B:GLU:543:OE2:9882, H-A:GLU:543:OE2:4908, H-A:GLU:543:OE1:4907, H-A:ASP:366:OD2:3213, V-B:ASP:366:CB:8184, H-B:TYR:484:OH:9320, H-B:TYR:539:OH:9850, H-A:ASP:366:OD1:3212, H-A:ASP:366:O:3207, V-A:ILE:369:CB:3234, V-A:ILE:369:CG2:3235, V-A:TYR:531:CE1:4790, V-A:ASP:366:CA:3208, V-B:HIS:456:CE1:9042, H-B:GLY:544:O:9885, V-B:GLY:544:C:9884, H-A:HIS:456:NE2:4069, V-B:GLY:454:CA:9021, H-B:GLU:543:O:9875, V-B:GLU:543:CG:9879, V-B:GLU:543:C:9874, V-A:GLU:543:CG:4905, V-B:ARG:545:CG:9894, H-A:GLU:543:O:4901, V-A:GLU:543:C:4900, V-A:GLU:543:CB:4904, V-B:ARG:545:CD:9895, V-B:TYR:484:CZ:9319, V-A:ASP:366:C:3206, V-B:ARG:545:CA:9891"]

$$$$
RR11_Rahimova_2017-again2
     RDKit          3D

 57 62  0  0  0  0  0  0  0  0999 V2000
  134.4780  123.8170   57.4410 N   0  0  0  0  0  0  0  0  0  0  0  0
  133.3060  124.5530   57.6020 C   0  0  0  0  0  0  0  0  0  0  0  0
  132.8690  125.3950   56.5820 C   0  0  0  0  0  0  0  0  0  0  0  0
  131.7010  126.1350   56.7460 C   0  0  0  0  0  0  0  0  0  0  0  0
  130.9630  126.0370   57.9320 C   0  0  0  0  0  0  0  0  0  0  0  0
  129.7150  126.8380   58.1130 C   0  0  0  0  0  0  0  0  0  0  0  0
  129.4870  127.8020   59.0690 N   0  0  0  0  0  0  0  0  0  0  0  0
  128.2180  128.3420   58.9070 C   0  0  0  0  0  0  0  0  0  0  0  0
  127.5350  129.3390   59.6090 C   0  0  0  0  0  0  0  0  0  0  0  0
  126.2480  129.6630   59.1620 C   0  0  0  0  0  0  0  0  0  0  0  0
  125.4570  130.7450   59.8840 C   0  0  0  0  0  0  0  0  0  0  0  0
  125.5200  130.6110   61.3990 C   0  0  0  0  0  0  0  0  0  0  0  0
  124.7210  131.4370   62.1990 C   0  0  0  0  0  0  0  0  0  0  0  0
  124.7360  131.3600   63.5930 C   0  0  0  0  0  0  0  0  0  0  0  0
  125.5880  130.4090   64.1600 C   0  0  0  0  0  0  0  0  0  0  0  0
  125.8550  130.0770   65.4810 N   0  0  0  0  0  0  0  0  0  0  0  0
  126.7850  129.0650   65.5360 C   0  0  0  0  0  0  0  0  0  0  0  0
  127.3530  128.4340   66.7660 C   0  0  0  0  0  0  0  0  0  0  0  0
  128.7030  128.6080   67.0900 C   0  0  0  0  0  0  0  0  0  0  0  0
  129.2300  128.0290   68.2410 C   0  0  0  0  0  0  0  0  0  0  0  0
  128.4080  127.2720   69.0750 C   0  0  0  0  0  0  0  0  0  0  0  0
  128.9340  126.6970   70.2310 N   0  0  0  0  0  0  0  0  0  0  0  0
  127.0630  127.0890   68.7590 C   0  0  0  0  0  0  0  0  0  0  0  0
  126.5360  127.6690   67.6080 C   0  0  0  0  0  0  0  0  0  0  0  0
  127.0970  128.7550   64.2330 N   0  0  0  0  0  0  0  0  0  0  0  0
  126.3820  129.5670   63.3630 C   0  0  0  0  0  0  0  0  0  0  0  0
  126.3590  129.6440   61.9680 C   0  0  0  0  0  0  0  0  0  0  0  0
  125.6670  128.9910   58.0800 C   0  0  0  0  0  0  0  0  0  0  0  0
  126.3420  127.9890   57.3780 C   0  0  0  0  0  0  0  0  0  0  0  0
  127.6340  127.6810   57.8140 C   0  0  0  0  0  0  0  0  0  0  0  0
  128.5720  126.7680   57.3510 N   0  0  0  0  0  0  0  0  0  0  0  0
  131.4090  125.1840   58.9490 C   0  0  0  0  0  0  0  0  0  0  0  0
  132.5770  124.4440   58.7850 C   0  0  0  0  0  0  0  0  0  0  0  0
  134.8090  123.2360   58.1980 H   0  0  0  0  0  0  0  0  0  0  0  0
  135.0200  123.9220   56.5950 H   0  0  0  0  0  0  0  0  0  0  0  0
  133.4456  125.4752   55.6487 H   0  0  0  0  0  0  0  0  0  0  0  0
  131.3564  126.7997   55.9401 H   0  0  0  0  0  0  0  0  0  0  0  0
  130.1770  128.0500   59.7610 H   0  0  0  0  0  0  0  0  0  0  0  0
  127.9879  129.8463   60.4736 H   0  0  0  0  0  0  0  0  0  0  0  0
  125.8650  131.7265   59.6008 H   0  0  0  0  0  0  0  0  0  0  0  0
  124.4034  130.6392   59.5860 H   0  0  0  0  0  0  0  0  0  0  0  0
  124.0602  132.1702   61.7135 H   0  0  0  0  0  0  0  0  0  0  0  0
  124.1081  132.0157   64.2141 H   0  0  0  0  0  0  0  0  0  0  0  0
  125.4570  130.4910   66.3120 H   0  0  0  0  0  0  0  0  0  0  0  0
  129.3511  129.2053   66.4319 H   0  0  0  0  0  0  0  0  0  0  0  0
  130.2919  128.1683   68.4919 H   0  0  0  0  0  0  0  0  0  0  0  0
  128.4590  125.9160   70.6590 H   0  0  0  0  0  0  0  0  0  0  0  0
  129.7470  127.1090   70.6650 H   0  0  0  0  0  0  0  0  0  0  0  0
  126.4190  126.4876   69.4175 H   0  0  0  0  0  0  0  0  0  0  0  0
  125.4741  127.5258   67.3591 H   0  0  0  0  0  0  0  0  0  0  0  0
  127.7650  128.0350   63.9930 H   0  0  0  0  0  0  0  0  0  0  0  0
  126.9717  128.9758   61.3450 H   0  0  0  0  0  0  0  0  0  0  0  0
  124.6459  129.2606   57.7725 H   0  0  0  0  0  0  0  0  0  0  0  0
  125.8803  127.4690   56.5257 H   0  0  0  0  0  0  0  0  0  0  0  0
  128.4790  126.1310   56.5740 H   0  0  0  0  0  0  0  0  0  0  0  0
  130.8335  125.0981   59.8825 H   0  0  0  0  0  0  0  0  0  0  0  0
  132.9234  123.7753   59.5867 H   0  0  0  0  0  0  0  0  0  0  0  0
  1  2  1  0
  2  3  2  0
  3  4  1  0
  4  5  2  0
  5  6  1  0
  6  7  1  0
  7  8  1  0
  8  9  2  0
  9 10  1  0
 10 11  1  0
 11 12  1  0
 12 13  2  0
 13 14  1  0
 14 15  2  0
 15 16  1  0
 16 17  1  0
 17 18  1  0
 18 19  2  0
 19 20  1  0
 20 21  2  0
 21 22  1  0
 21 23  1  0
 23 24  2  0
 17 25  2  0
 25 26  1  0
 26 27  2  0
 10 28  2  0
 28 29  1  0
 29 30  2  0
 30 31  1  0
  5 32  1  0
 32 33  2  0
 33  2  1  0
 31  6  2  0
 30  8  1  0
 27 12  1  0
 26 15  1  0
 24 18  1  0
  1 34  1  0
  1 35  1  0
  3 36  1  0
  4 37  1  0
  7 38  1  0
  9 39  1  0
 11 40  1  0
 11 41  1  0
 13 42  1  0
 14 43  1  0
 16 44  1  0
 19 45  1  0
 20 46  1  0
 22 47  1  0
 22 48  1  0
 23 49  1  0
 24 50  1  0
 25 51  1  0
 27 52  1  0
 28 53  1  0
 29 54  1  0
 31 55  1  0
 32 56  1  0
 33 57  1  0
M  CHG  2  25   1  31   1
M  END
>  <Binding energies>  (1) 
[-7.97]

>  <Ligand effiencies>  (1) 
[-0.19439024390243903]

>  <Interactions>  (1) 
["H-B:GLU:543:OE1:9881, V-B:TYR:539:CZ:9849, V-B:ASP:366:CG:8185, V-B:TYR:539:CE2:9848, V-A:ASP:366:CG:3211, V-A:ASP:366:CB:3210, V-A:TYR:531:CZ:4792, V-A:GLU:543:CD:4906, V-B:ARG:545:CZ:9898, V-B:GLU:543:CD:9880, H-B:GLU:543:OE2:9882, H-A:GLU:543:OE2:4908, H-A:GLU:543:OE1:4907, H-A:ASP:366:OD2:3213, V-B:ASP:366:CB:8184, H-B:TYR:484:OH:9320, H-B:TYR:539:OH:9850, H-A:ASP:366:O:3207, V-A:ILE:369:CB:3234, V-A:ILE:369:CG2:3235, V-A:TYR:531:CE1:4790, V-A:ASP:366:CA:3208, V-B:HIS:456:CE1:9042, H-B:HIS:456:NE2:9043, H-B:GLY:544:O:9885, V-B:GLY:544:C:9884, V-A:HIS:456:CE1:4068, H-A:HIS:456:NE2:4069, V-B:GLY:454:CA:9021, H-B:GLU:543:O:9875, V-B:GLU:543:CG:9879, V-B:GLU:543:C:9874, V-A:GLU:543:CG:4905, V-B:ARG:545:CG:9894, H-A:GLU:543:O:4901, V-A:GLU:543:C:4900, V-A:GLU:543:CB:4904, V-B:ARG:545:CD:9895, V-B:TYR:484:CZ:9319, V-A:ASP:366:C:3206, V-B:ARG:545:CA:9891"]

$$$$
RR12_Rahimova_2017
     RDKit          3D

 51 53  0  0  0  0  0  0  0  0999 V2000
  126.4860  123.5040   55.3590 C   0  0  0  0  0  0  0  0  0  0  0  0
  127.7890  123.2740   56.1350 C   0  0  0  0  0  0  0  0  0  0  0  0
  128.2300  124.5170   56.9310 C   0  0  0  0  0  0  0  0  0  0  0  0
  129.6150  124.8650   56.6210 N   0  0  0  0  0  0  0  0  0  0  0  0
  130.0800  125.5900   55.5350 C   0  0  0  0  0  0  0  0  0  0  0  0
  129.1880  126.1180   54.4240 C   0  0  0  0  0  0  0  0  0  0  0  0
  128.6380  127.5230   54.7320 C   0  0  0  0  0  0  0  0  0  0  0  0
  129.4890  128.2820   55.7670 C   0  0  0  0  0  0  0  0  0  0  0  0
  130.0170  129.5550   55.2780 N   0  0  0  0  0  0  0  0  0  0  0  0
  129.2710  130.5680   54.7990 C   0  0  0  0  0  0  0  0  0  0  0  0
  128.0410  130.5220   54.7200 O   0  0  0  0  0  0  0  0  0  0  0  0
  130.0490  131.8110   54.3510 C   0  0  0  0  0  0  0  0  0  0  0  0
  130.4550  132.5580   55.4990 O   0  0  0  0  0  0  0  0  0  0  0  0
  131.4200  132.0360   56.3400 C   0  0  0  0  0  0  0  0  0  0  0  0
  132.7350  132.0640   55.8680 C   0  0  0  0  0  0  0  0  0  0  0  0
  133.7760  131.5640   56.6460 C   0  0  0  0  0  0  0  0  0  0  0  0
  133.5030  131.0330   57.9030 C   0  0  0  0  0  0  0  0  0  0  0  0
  132.1970  130.9950   58.3880 C   0  0  0  0  0  0  0  0  0  0  0  0
  131.1570  131.4950   57.6090 C   0  0  0  0  0  0  0  0  0  0  0  0
  131.3780  125.7640   55.5440 N   0  0  0  0  0  0  0  0  0  0  0  0
  131.8060  125.1580   56.6920 C   0  0  0  0  0  0  0  0  0  0  0  0
  133.1080  125.0560   57.2040 C   0  0  0  0  0  0  0  0  0  0  0  0
  133.2880  124.3850   58.4140 C   0  0  0  0  0  0  0  0  0  0  0  0
  132.2090  123.8280   59.1010 C   0  0  0  0  0  0  0  0  0  0  0  0
  130.9010  123.9110   58.6170 C   0  0  0  0  0  0  0  0  0  0  0  0
  130.7220  124.5850   57.4020 C   0  0  0  0  0  0  0  0  0  0  0  0
  125.6579  123.6502   56.0681 H   0  0  0  0  0  0  0  0  0  0  0  0
  126.5890  124.3979   54.7262 H   0  0  0  0  0  0  0  0  0  0  0  0
  126.2767  122.6289   54.7262 H   0  0  0  0  0  0  0  0  0  0  0  0
  127.6388  122.4407   56.8372 H   0  0  0  0  0  0  0  0  0  0  0  0
  128.5784  123.0492   55.4027 H   0  0  0  0  0  0  0  0  0  0  0  0
  127.5779  125.3633   56.6693 H   0  0  0  0  0  0  0  0  0  0  0  0
  128.1537  124.2940   58.0054 H   0  0  0  0  0  0  0  0  0  0  0  0
  129.7722  126.1634   53.4931 H   0  0  0  0  0  0  0  0  0  0  0  0
  128.3308  125.4353   54.3284 H   0  0  0  0  0  0  0  0  0  0  0  0
  128.6175  128.1050   53.7988 H   0  0  0  0  0  0  0  0  0  0  0  0
  127.6311  127.3992   55.1572 H   0  0  0  0  0  0  0  0  0  0  0  0
  128.8642  128.4820   56.6500 H   0  0  0  0  0  0  0  0  0  0  0  0
  130.3547  127.6443   55.9993 H   0  0  0  0  0  0  0  0  0  0  0  0
  131.0200  129.6670   55.3140 H   0  0  0  0  0  0  0  0  0  0  0  0
  130.9379  131.5017   53.7816 H   0  0  0  0  0  0  0  0  0  0  0  0
  129.4056  132.4368   53.7150 H   0  0  0  0  0  0  0  0  0  0  0  0
  132.9494  132.4842   54.8743 H   0  0  0  0  0  0  0  0  0  0  0  0
  134.8090  131.5886   56.2689 H   0  0  0  0  0  0  0  0  0  0  0  0
  134.3251  130.6399   58.5191 H   0  0  0  0  0  0  0  0  0  0  0  0
  131.9888  130.5719   59.3818 H   0  0  0  0  0  0  0  0  0  0  0  0
  130.1251  131.4662   57.9891 H   0  0  0  0  0  0  0  0  0  0  0  0
  133.9628  125.4926   56.6668 H   0  0  0  0  0  0  0  0  0  0  0  0
  134.3003  124.2934   58.8345 H   0  0  0  0  0  0  0  0  0  0  0  0
  132.3937  123.3078   60.0525 H   0  0  0  0  0  0  0  0  0  0  0  0
  130.0542  123.4692   59.1626 H   0  0  0  0  0  0  0  0  0  0  0  0
  1  2  1  0
  2  3  1  0
  3  4  1  0
  4  5  1  0
  5  6  1  0
  6  7  1  0
  7  8  1  0
  8  9  1  0
  9 10  1  0
 10 11  2  0
 10 12  1  0
 12 13  1  0
 13 14  1  0
 14 15  2  0
 15 16  1  0
 16 17  2  0
 17 18  1  0
 18 19  2  0
  5 20  2  0
 20 21  1  0
 21 22  2  0
 22 23  1  0
 23 24  2  0
 24 25  1  0
 25 26  2  0
 26  4  1  0
 19 14  1  0
 26 21  1  0
  1 27  1  0
  1 28  1  0
  1 29  1  0
  2 30  1  0
  2 31  1  0
  3 32  1  0
  3 33  1  0
  6 34  1  0
  6 35  1  0
  7 36  1  0
  7 37  1  0
  8 38  1  0
  8 39  1  0
  9 40  1  0
 12 41  1  0
 12 42  1  0
 15 43  1  0
 16 44  1  0
 17 45  1  0
 18 46  1  0
 19 47  1  0
 22 48  1  0
 23 49  1  0
 24 50  1  0
 25 51  1  0
M  END
>  <Binding energies>  (1) 
[-7.95]

>  <Ligand effiencies>  (1) 
[-0.29444444444444445]

>  <Interactions>  (1) 
["V-B:TYR:539:CZ:9849, V-B:ILE:538:CA:9832, V-B:TYR:539:CE2:9848, V-B:TYR:539:CE1:9847, V-B:TYR:539:CD1:9845, V-B:TYR:539:CD2:9846, V-A:ASP:366:CG:3211, V-A:PRO:540:N:4882, H-A:TYR:539:N:4868, V-A:ILE:538:CA:4858, V-A:TYR:531:CE2:4791, V-A:LEU:363:CA:3183, H-A:TYR:531:OH:4793, V-A:ASP:366:CB:3210, V-A:LEU:363:CD1:3187, V-A:ILE:538:CB:4860, V-A:PRO:540:CA:4881, V-A:ILE:538:CG2:4861, V-A:TYR:531:CZ:4792, V-A:PRO:540:CB:4883, V-B:ILE:538:CG2:9835, V-B:ILE:538:CB:9834, V-A:LEU:363:CB:3185, V-A:PRO:540:CD:4885, V-B:TYR:539:CG:9844, H-B:TYR:539:OH:9850, V-A:ASP:366:CA:3208, V-A:ASP:366:C:3206"]

$$$$
RR13_Rahimova_2017
     RDKit          3D

 84 90  0  0  0  0  0  0  0  0999 V2000
  128.4790  123.1630   59.9690 Cl  0  0  0  0  0  0  0  0  0  0  0  0
  128.5970  123.5290   58.2820 C   0  0  0  0  0  0  0  0  0  0  0  0
  127.6210  123.0030   57.4320 C   0  0  0  0  0  0  0  0  0  0  0  0
  127.6730  123.2430   56.0620 C   0  0  0  0  0  0  0  0  0  0  0  0
  128.7050  124.0120   55.5300 C   0  0  0  0  0  0  0  0  0  0  0  0
  129.6820  124.5410   56.3710 C   0  0  0  0  0  0  0  0  0  0  0  0
  129.6410  124.3190   57.7580 C   0  0  0  0  0  0  0  0  0  0  0  0
  130.7500  124.8950   58.6650 C   0  0  1  0  0  0  0  0  0  0  0  0
  132.1440  124.5270   58.1350 C   0  0  0  0  0  0  0  0  0  0  0  0
  132.7700  125.0820   57.1200 N   0  0  0  0  0  0  0  0  0  0  0  0
  133.9790  124.4040   57.0020 N   0  0  0  0  0  0  0  0  0  0  0  0
  134.0620  123.4110   57.9580 N   0  0  0  0  0  0  0  0  0  0  0  0
  132.9070  123.4910   58.6290 N   0  0  0  0  0  0  0  0  0  0  0  0
  132.6480  122.6070   59.7590 C   0  0  0  0  0  0  0  0  0  0  0  0
  133.5720  122.9630   60.9390 C   0  0  0  0  0  0  0  0  0  0  0  0
  132.8040  123.5550   62.1110 C   0  0  0  0  0  0  0  0  0  0  0  0
  133.1710  124.8000   62.6280 C   0  0  0  0  0  0  0  0  0  0  0  0
  132.4730  125.3370   63.7060 C   0  0  0  0  0  0  0  0  0  0  0  0
  131.4100  124.6270   64.2630 C   0  0  0  0  0  0  0  0  0  0  0  0
  131.0400  123.3860   63.7520 C   0  0  0  0  0  0  0  0  0  0  0  0
  131.7390  122.8470   62.6740 C   0  0  0  0  0  0  0  0  0  0  0  0
  130.6090  126.3490   58.9200 N   0  0  0  0  0  0  0  0  0  0  0  0
  130.4970  126.6120   60.3660 C   0  0  0  0  0  0  0  0  0  0  0  0
  130.4830  128.1330   60.6480 C   0  0  0  0  0  0  0  0  0  0  0  0
  129.3280  128.7710   59.9960 N   0  0  0  0  0  0  0  0  0  0  0  0
  129.2280  130.2160   60.3070 C   0  0  1  0  0  0  0  0  0  0  0  0
  128.1510  130.6010   61.3450 C   0  0  0  0  0  0  0  0  0  0  0  0
  127.6870  129.5860   62.1930 C   0  0  0  0  0  0  0  0  0  0  0  0
  126.7280  129.8470   63.1710 C   0  0  0  0  0  0  0  0  0  0  0  0
  126.2120  131.1310   63.3120 C   0  0  0  0  0  0  0  0  0  0  0  0
  126.6470  132.1500   62.4690 C   0  0  0  0  0  0  0  0  0  0  0  0
  127.6050  131.8990   61.4830 C   0  0  0  0  0  0  0  0  0  0  0  0
  128.0290  133.2150   60.4410 Cl  0  0  0  0  0  0  0  0  0  0  0  0
  130.5720  130.8430   60.6870 C   0  0  0  0  0  0  0  0  0  0  0  0
  130.8750  131.3410   61.8630 N   0  0  0  0  0  0  0  0  0  0  0  0
  132.1910  131.7820   61.7650 N   0  0  0  0  0  0  0  0  0  0  0  0
  132.6830  131.5230   60.5020 N   0  0  0  0  0  0  0  0  0  0  0  0
  131.6730  130.9240   59.8600 N   0  0  0  0  0  0  0  0  0  0  0  0
  131.8300  130.5200   58.4670 C   0  0  0  0  0  0  0  0  0  0  0  0
  131.9000  131.7570   57.5540 C   0  0  0  0  0  0  0  0  0  0  0  0
  130.8080  131.7520   56.4950 C   0  0  0  0  0  0  0  0  0  0  0  0
  129.4640  131.7550   56.8780 C   0  0  0  0  0  0  0  0  0  0  0  0
  128.4650  131.7570   55.9090 C   0  0  0  0  0  0  0  0  0  0  0  0
  128.8130  131.7550   54.5580 C   0  0  0  0  0  0  0  0  0  0  0  0
  130.1520  131.7530   54.1710 C   0  0  0  0  0  0  0  0  0  0  0  0
  131.1520  131.7520   55.1390 C   0  0  0  0  0  0  0  0  0  0  0  0
  129.4460  128.5100   58.5500 C   0  0  0  0  0  0  0  0  0  0  0  0
  129.4490  126.9890   58.2740 C   0  0  0  0  0  0  0  0  0  0  0  0
  126.8050  122.3944   57.8488 H   0  0  0  0  0  0  0  0  0  0  0  0
  126.8998  122.8257   55.4002 H   0  0  0  0  0  0  0  0  0  0  0  0
  128.7488  124.2016   54.4473 H   0  0  0  0  0  0  0  0  0  0  0  0
  130.4979  125.1416   55.9426 H   0  0  0  0  0  0  0  0  0  0  0  0
  130.6281  124.4189   59.6491 H   0  0  0  0  0  0  0  0  0  0  0  0
  131.5996  122.7172   60.0730 H   0  0  0  0  0  0  0  0  0  0  0  0
  132.8425  121.5685   59.4528 H   0  0  0  0  0  0  0  0  0  0  0  0
  134.0842  122.0498   61.2760 H   0  0  0  0  0  0  0  0  0  0  0  0
  134.2906  123.7189   60.5894 H   0  0  0  0  0  0  0  0  0  0  0  0
  134.0104  125.3551   62.1838 H   0  0  0  0  0  0  0  0  0  0  0  0
  132.7586  126.3168   64.1165 H   0  0  0  0  0  0  0  0  0  0  0  0
  130.8583  125.0517   65.1146 H   0  0  0  0  0  0  0  0  0  0  0  0
  130.1995  122.8335   64.1973 H   0  0  0  0  0  0  0  0  0  0  0  0
  131.4530  121.8659   62.2669 H   0  0  0  0  0  0  0  0  0  0  0  0
  129.5642  126.1668   60.7424 H   0  0  0  0  0  0  0  0  0  0  0  0
  131.3655  126.1672   60.8737 H   0  0  0  0  0  0  0  0  0  0  0  0
  130.4221  128.2987   61.7337 H   0  0  0  0  0  0  0  0  0  0  0  0
  131.4061  128.5763   60.2462 H   0  0  0  0  0  0  0  0  0  0  0  0
  128.8937  130.6426   59.3498 H   0  0  0  0  0  0  0  0  0  0  0  0
  128.0860  128.5666   62.0852 H   0  0  0  0  0  0  0  0  0  0  0  0
  126.3799  129.0383   63.8304 H   0  0  0  0  0  0  0  0  0  0  0  0
  125.4615  131.3409   64.0883 H   0  0  0  0  0  0  0  0  0  0  0  0
  126.2325  133.1628   62.5802 H   0  0  0  0  0  0  0  0  0  0  0  0
  132.7575  129.9382   58.3607 H   0  0  0  0  0  0  0  0  0  0  0  0
  130.9642  129.9084   58.1732 H   0  0  0  0  0  0  0  0  0  0  0  0
  131.7899  132.6602   58.1721 H   0  0  0  0  0  0  0  0  0  0  0  0
  132.8712  131.7412   57.0377 H   0  0  0  0  0  0  0  0  0  0  0  0
  129.1958  131.7558   57.9448 H   0  0  0  0  0  0  0  0  0  0  0  0
  127.4061  131.7601   56.2069 H   0  0  0  0  0  0  0  0  0  0  0  0
  128.0239  131.7550   53.7916 H   0  0  0  0  0  0  0  0  0  0  0  0
  130.4176  131.7522   53.1036 H   0  0  0  0  0  0  0  0  0  0  0  0
  132.2102  131.7512   54.8386 H   0  0  0  0  0  0  0  0  0  0  0  0
  128.5946  128.9711   58.0281 H   0  0  0  0  0  0  0  0  0  0  0  0
  130.3910  128.9399   58.1864 H   0  0  0  0  0  0  0  0  0  0  0  0
  128.5237  126.5471   58.6721 H   0  0  0  0  0  0  0  0  0  0  0  0
  129.5113  126.8248   57.1881 H   0  0  0  0  0  0  0  0  0  0  0  0
  1  2  1  0
  2  3  2  0
  3  4  1  0
  4  5  2  0
  5  6  1  0
  6  7  2  0
  7  8  1  0
  8  9  1  0
  9 10  2  0
 10 11  1  0
 11 12  2  0
 12 13  1  0
 13 14  1  0
 14 15  1  0
 15 16  1  0
 16 17  2  0
 17 18  1  0
 18 19  2  0
 19 20  1  0
 20 21  2  0
  8 22  1  0
 22 23  1  0
 23 24  1  0
 24 25  1  0
 25 26  1  0
 26 27  1  0
 27 28  2  0
 28 29  1  0
 29 30  2  0
 30 31  1  0
 31 32  2  0
 32 33  1  0
 26 34  1  0
 34 35  2  0
 35 36  1  0
 36 37  2  0
 37 38  1  0
 38 39  1  0
 39 40  1  0
 40 41  1  0
 41 42  2  0
 42 43  1  0
 43 44  2  0
 44 45  1  0
 45 46  2  0
 25 47  1  0
 47 48  1  0
  7  2  1  0
 13  9  1  0
 21 16  1  0
 48 22  1  0
 32 27  1  0
 38 34  1  0
 46 41  1  0
  3 49  1  0
  4 50  1  0
  5 51  1  0
  6 52  1  0
  8 53  1  1
 14 54  1  0
 14 55  1  0
 15 56  1  0
 15 57  1  0
 17 58  1  0
 18 59  1  0
 19 60  1  0
 20 61  1  0
 21 62  1  0
 23 63  1  0
 23 64  1  0
 24 65  1  0
 24 66  1  0
 26 67  1  6
 28 68  1  0
 29 69  1  0
 30 70  1  0
 31 71  1  0
 39 72  1  0
 39 73  1  0
 40 74  1  0
 40 75  1  0
 42 76  1  0
 43 77  1  0
 44 78  1  0
 45 79  1  0
 46 80  1  0
 47 81  1  0
 47 82  1  0
 48 83  1  0
 48 84  1  0
M  END
>  <Binding energies>  (1) 
[-14.3]

>  <Ligand effiencies>  (1) 
[-0.29791666666666666]

>  <Interactions>  (1) 
["V-B:PRO:540:N:9856, V-B:TYR:539:CZ:9849, V-B:PRO:540:CA:9855, V-B:TYR:539:CE2:9848, V-A:LEU:475:CD2:4257, V-B:TYR:539:CE1:9847, V-B:TYR:539:CD1:9845, V-B:TYR:539:CD2:9846, V-A:TYR:539:CE1:4873, V-A:ASP:366:CG:3211, V-A:PRO:540:N:4882, V-A:ILE:538:CA:4858, V-A:TYR:539:CZ:4875, V-A:TYR:539:C:4865, V-A:ILE:538:CB:4860, V-A:PRO:540:CA:4881, V-A:ILE:538:CG2:4861, V-A:GLU:543:CD:4906, V-A:PRO:540:CB:4883, V-B:TYR:539:C:9839, V-A:ARG:545:CZ:4924, H-A:ALA:541:N:4889, V-A:MET:535:CG:4831, V-A:PRO:540:CD:4885, V-A:MET:535:CB:4830, V-A:TYR:539:CE2:4874, V-A:ALA:541:CB:4890, H-B:TYR:539:OH:9850, V-A:TYR:539:CD1:4871, V-A:ILE:369:CG2:3235, V-A:ILE:369:CD1:3237, V-A:TYR:539:CD2:4872, V-A:TYR:539:CG:4870, V-B:TYR:539:CA:9841, V-A:TYR:484:CZ:4345"]

$$$$
RR14_Rahimova_2017
     RDKit          3D

 76 80  0  0  0  0  0  0  0  0999 V2000
  133.3190  132.1570   56.1510 C   0  0  0  0  0  0  0  0  0  0  0  0
  132.1090  132.8480   55.8620 O   0  0  0  0  0  0  0  0  0  0  0  0
  130.9010  132.2250   56.1120 C   0  0  0  0  0  0  0  0  0  0  0  0
  130.6870  131.7850   57.4190 C   0  0  0  0  0  0  0  0  0  0  0  0
  129.5110  131.1250   57.7600 C   0  0  0  0  0  0  0  0  0  0  0  0
  128.5340  130.8910   56.7890 C   0  0  0  0  0  0  0  0  0  0  0  0
  127.2740  130.1110   57.1430 C   0  0  0  0  0  0  0  0  0  0  0  0
  127.1880  128.8150   56.4700 N   0  0  0  0  0  0  0  0  0  0  0  0
  126.8930  128.7480   55.1670 N   0  0  0  0  0  0  0  0  0  0  0  0
  126.8670  127.3970   54.8810 N   0  0  0  0  0  0  0  0  0  0  0  0
  127.1420  126.6610   56.0290 N   0  0  0  0  0  0  0  0  0  0  0  0
  127.3260  127.5430   56.9830 C   0  0  0  0  0  0  0  0  0  0  0  0
  127.6320  127.2120   58.4370 C   0  0  0  0  0  0  0  0  0  0  0  0
  128.6230  126.1310   58.5720 N   0  0  0  0  0  0  0  0  0  0  0  0
  129.9830  126.5920   58.2660 C   0  0  0  0  0  0  0  0  0  0  0  0
  130.5150  126.0760   56.9110 C   0  0  0  0  0  0  0  0  0  0  0  0
  130.1750  124.5960   56.6350 C   0  0  0  0  0  0  0  0  0  0  0  0
  128.7790  124.3860   56.2370 N   0  0  0  0  0  0  0  0  0  0  0  0
  128.1400  123.4010   57.1190 C   0  0  0  0  0  0  0  0  0  0  0  0
  126.6830  123.1170   56.6940 C   0  0  0  0  0  0  0  0  0  0  0  0
  126.6400  122.7260   55.3260 O   0  0  0  0  0  0  0  0  0  0  0  0
  127.1570  123.7300   54.4610 C   0  0  0  0  0  0  0  0  0  0  0  0
  128.6290  124.0310   54.8170 C   0  0  0  0  0  0  0  0  0  0  0  0
  128.5650  125.5590   59.9250 C   0  0  0  0  0  0  0  0  0  0  0  0
  129.2150  124.1880   60.1010 C   0  0  0  0  0  0  0  0  0  0  0  0
  130.5540  124.0270   59.9710 C   0  0  0  0  0  0  0  0  0  0  0  0
  131.2030  122.7060   60.0970 C   0  0  0  0  0  0  0  0  0  0  0  0
  132.5900  122.5050   59.9880 C   0  0  0  0  0  0  0  0  0  0  0  0
  133.5450  123.6620   59.7270 C   0  0  0  0  0  0  0  0  0  0  0  0
  133.1030  121.2130   60.1260 C   0  0  0  0  0  0  0  0  0  0  0  0
  132.2560  120.1330   60.3690 C   0  0  0  0  0  0  0  0  0  0  0  0
  130.8750  120.3220   60.4810 C   0  0  0  0  0  0  0  0  0  0  0  0
  129.9760  119.1220   60.7480 C   0  0  0  0  0  0  0  0  0  0  0  0
  130.3490  121.6160   60.3440 C   0  0  0  0  0  0  0  0  0  0  0  0
  128.9620  121.8540   60.4470 N   0  0  0  0  0  0  0  0  0  0  0  0
  128.3240  123.0470   60.3380 C   0  0  0  0  0  0  0  0  0  0  0  0
  127.0990  123.1100   60.4340 O   0  0  0  0  0  0  0  0  0  0  0  0
  128.7270  131.3530   55.4850 C   0  0  0  0  0  0  0  0  0  0  0  0
  129.9040  132.0130   55.1460 C   0  0  0  0  0  0  0  0  0  0  0  0
  133.4479  132.0834   57.2409 H   0  0  0  0  0  0  0  0  0  0  0  0
  133.2768  131.1468   55.7177 H   0  0  0  0  0  0  0  0  0  0  0  0
  134.1676  132.7067   55.7177 H   0  0  0  0  0  0  0  0  0  0  0  0
  131.4551  131.9617   58.1863 H   0  0  0  0  0  0  0  0  0  0  0  0
  129.3502  130.7872   58.7944 H   0  0  0  0  0  0  0  0  0  0  0  0
  127.2619  129.9416   58.2298 H   0  0  0  0  0  0  0  0  0  0  0  0
  126.4147  130.7102   56.8075 H   0  0  0  0  0  0  0  0  0  0  0  0
  128.0245  128.1140   58.9292 H   0  0  0  0  0  0  0  0  0  0  0  0
  126.6977  126.8699   58.9060 H   0  0  0  0  0  0  0  0  0  0  0  0
  129.9818  127.6918   58.2442 H   0  0  0  0  0  0  0  0  0  0  0  0
  130.6451  126.1925   59.0483 H   0  0  0  0  0  0  0  0  0  0  0  0
  130.0764  126.6886   56.1095 H   0  0  0  0  0  0  0  0  0  0  0  0
  131.6117  126.1533   56.9453 H   0  0  0  0  0  0  0  0  0  0  0  0
  130.8269  124.2328   55.8268 H   0  0  0  0  0  0  0  0  0  0  0  0
  130.3326  124.0449   57.5739 H   0  0  0  0  0  0  0  0  0  0  0  0
  128.7125  122.4625   57.0798 H   0  0  0  0  0  0  0  0  0  0  0  0
  128.1266  123.8112   58.1396 H   0  0  0  0  0  0  0  0  0  0  0  0
  126.2735  122.3080   57.3167 H   0  0  0  0  0  0  0  0  0  0  0  0
  126.0847  124.0305   56.8264 H   0  0  0  0  0  0  0  0  0  0  0  0
  127.0990  123.3786   53.4203 H   0  0  0  0  0  0  0  0  0  0  0  0
  126.5630  124.6482   54.5799 H   0  0  0  0  0  0  0  0  0  0  0  0
  129.2374  123.1393   54.6054 H   0  0  0  0  0  0  0  0  0  0  0  0
  128.9627  124.8859   54.2106 H   0  0  0  0  0  0  0  0  0  0  0  0
  129.0671  126.2597   60.6084 H   0  0  0  0  0  0  0  0  0  0  0  0
  127.4962  125.4100   60.1383 H   0  0  0  0  0  0  0  0  0  0  0  0
  131.1783  124.9089   59.7649 H   0  0  0  0  0  0  0  0  0  0  0  0
  133.8881  124.0777   60.6859 H   0  0  0  0  0  0  0  0  0  0  0  0
  134.4110  123.3003   59.1533 H   0  0  0  0  0  0  0  0  0  0  0  0
  133.0257  124.4438   59.1533 H   0  0  0  0  0  0  0  0  0  0  0  0
  134.1870  121.0462   60.0420 H   0  0  0  0  0  0  0  0  0  0  0  0
  132.6779  119.1225   60.4736 H   0  0  0  0  0  0  0  0  0  0  0  0
  129.8686  118.9786   61.8333 H   0  0  0  0  0  0  0  0  0  0  0  0
  128.9863  119.2988   60.3018 H   0  0  0  0  0  0  0  0  0  0  0  0
  130.4239  118.2218   60.3018 H   0  0  0  0  0  0  0  0  0  0  0  0
  128.3540  121.0680   60.6130 H   0  0  0  0  0  0  0  0  0  0  0  0
  127.9475  131.1948   54.7252 H   0  0  0  0  0  0  0  0  0  0  0  0
  130.0543  132.3704   54.1166 H   0  0  0  0  0  0  0  0  0  0  0  0
  1  2  1  0
  2  3  1  0
  3  4  2  0
  4  5  1  0
  5  6  2  0
  6  7  1  0
  7  8  1  0
  8  9  1  0
  9 10  2  0
 10 11  1  0
 11 12  2  0
 12 13  1  0
 13 14  1  0
 14 15  1  0
 15 16  1  0
 16 17  1  0
 17 18  1  0
 18 19  1  0
 19 20  1  0
 20 21  1  0
 21 22  1  0
 22 23  1  0
 14 24  1  0
 24 25  1  0
 25 26  2  0
 26 27  1  0
 27 28  2  0
 28 29  1  0
 28 30  1  0
 30 31  2  0
 31 32  1  0
 32 33  1  0
 32 34  2  0
 34 35  1  0
 35 36  1  0
 36 37  2  0
  6 38  1  0
 38 39  2  0
 39  3  1  0
 12  8  1  0
 23 18  1  0
 36 25  1  0
 34 27  1  0
  1 40  1  0
  1 41  1  0
  1 42  1  0
  4 43  1  0
  5 44  1  0
  7 45  1  0
  7 46  1  0
 13 47  1  0
 13 48  1  0
 15 49  1  0
 15 50  1  0
 16 51  1  0
 16 52  1  0
 17 53  1  0
 17 54  1  0
 19 55  1  0
 19 56  1  0
 20 57  1  0
 20 58  1  0
 22 59  1  0
 22 60  1  0
 23 61  1  0
 23 62  1  0
 24 63  1  0
 24 64  1  0
 26 65  1  0
 29 66  1  0
 29 67  1  0
 29 68  1  0
 30 69  1  0
 31 70  1  0
 33 71  1  0
 33 72  1  0
 33 73  1  0
 35 74  1  0
 38 75  1  0
 39 76  1  0
M  END
>  <Binding energies>  (1) 
[-10.5]

>  <Ligand effiencies>  (1) 
[-0.2625]

>  <Interactions>  (1) 
["V-B:PRO:540:N:9856, V-A:TRP:381:CZ2:3368, V-B:TYR:539:CZ:9849, V-A:TRP:381:CH2:3370, V-B:ILE:538:CA:9832, V-B:ALA:541:CB:9864, V-A:PRO:482:CG:4325, V-B:PRO:540:CA:9855, V-B:PRO:540:C:9853, H-B:ALA:541:N:9863, V-B:TYR:539:CE2:9848, V-A:LEU:475:CD2:4257, V-B:TYR:539:CE1:9847, V-A:PRO:482:CB:4324, V-B:TYR:539:CD1:9845, V-B:TYR:539:CD2:9846, V-A:TYR:539:CE1:4873, V-A:ASP:366:CG:3211, V-A:PRO:540:N:4882, H-A:TYR:539:N:4868, V-A:ILE:538:CA:4858, V-A:TYR:539:CZ:4875, V-A:TYR:531:CE2:4791, V-A:TYR:539:C:4865, V-A:LEU:363:CD1:3187, V-A:ILE:538:CB:4860, V-A:PRO:540:CA:4881, V-A:ILE:538:CG2:4861, V-A:PRO:540:CB:4883, H-B:TYR:539:N:9842, H-B:TYR:531:OH:9767, V-B:TYR:539:C:9839, V-B:ILE:538:CG2:9835, V-B:PRO:540:CD:9859, V-B:ILE:538:CB:9834, V-A:PRO:540:CD:4885, V-A:TYR:539:CD1:4871, V-A:ILE:369:CG2:3235, V-A:ILE:369:CD1:3237, H-B:TYR:539:O:9840, V-A:PRO:540:CG:4884"]

$$$$
RR15_Rahimova_2017
     RDKit          3D

 85 89  0  0  0  0  0  0  0  0999 V2000
  133.0800  122.9120   62.5710 C   0  0  0  0  0  0  0  0  0  0  0  0
  133.7580  123.8840   61.7820 O   0  0  0  0  0  0  0  0  0  0  0  0
  133.2400  124.2420   60.5490 C   0  0  0  0  0  0  0  0  0  0  0  0
  133.7960  123.8380   59.3250 C   0  0  0  0  0  0  0  0  0  0  0  0
  133.2260  124.2370   58.1180 C   0  0  0  0  0  0  0  0  0  0  0  0
  132.0890  125.0510   58.0990 C   0  0  0  0  0  0  0  0  0  0  0  0
  131.4770  125.4880   56.7960 C   0  0  0  0  0  0  0  0  0  0  0  0
  132.2000  125.7810   55.7230 N   0  0  0  0  0  0  0  0  0  0  0  0
  131.2980  126.1430   54.7430 N   0  0  0  0  0  0  0  0  0  0  0  0
  130.1130  125.9850   55.3330 N   0  0  0  0  0  0  0  0  0  0  0  0
  128.8690  126.4160   54.6980 C   0  0  0  0  0  0  0  0  0  0  0  0
  128.3600  127.8100   55.1450 C   0  0  0  0  0  0  0  0  0  0  0  0
  128.6360  128.7840   54.4410 O   0  0  0  0  0  0  0  0  0  0  0  0
  127.6020  127.9230   56.2780 N   0  0  0  0  0  0  0  0  0  0  0  0
  126.9850  126.7390   56.9100 C   0  0  0  0  0  0  0  0  0  0  0  0
  127.3340  126.5850   58.4060 C   0  0  0  0  0  0  0  0  0  0  0  0
  126.7000  125.3550   59.0970 C   0  0  0  0  0  0  0  0  0  0  0  0
  126.6870  124.1500   58.2610 N   0  0  0  0  0  0  0  0  0  0  0  0
  125.5730  124.1140   57.3020 C   0  0  0  0  0  0  0  0  0  0  0  0
  125.6540  122.8700   56.3900 C   0  0  0  0  0  0  0  0  0  0  0  0
  126.9220  122.8150   55.7460 O   0  0  0  0  0  0  0  0  0  0  0  0
  127.9990  122.7450   56.6740 C   0  0  0  0  0  0  0  0  0  0  0  0
  127.9840  123.9870   57.5920 C   0  0  0  0  0  0  0  0  0  0  0  0
  127.4920  129.1850   57.0720 C   0  0  2  0  0  0  0  0  0  0  0  0
  126.0520  129.7870   57.1150 C   0  0  0  0  0  0  0  0  0  0  0  0
  125.2740  129.6410   56.1720 O   0  0  0  0  0  0  0  0  0  0  0  0
  125.7230  130.4260   58.2510 N   0  0  0  0  0  0  0  0  0  0  0  0
  124.4080  130.9770   58.5580 C   0  0  0  0  0  0  0  0  0  0  0  0
  124.3110  131.3960   60.0370 C   0  0  2  0  0  0  0  0  0  0  0  0
  124.2460  132.9130   60.2900 C   0  0  0  0  0  0  0  0  0  0  0  0
  125.6460  133.2860   60.7160 C   0  0  0  0  0  0  0  0  0  0  0  0
  126.0750  132.0340   61.4620 C   0  0  0  0  0  0  0  0  0  0  0  0
  125.5450  130.9940   60.6470 O   0  0  0  0  0  0  0  0  0  0  0  0
  128.6390  130.1320   56.7380 C   0  0  0  0  0  0  0  0  0  0  0  0
  129.9160  129.8140   57.2150 C   0  0  0  0  0  0  0  0  0  0  0  0
  131.0010  130.6420   56.9410 C   0  0  0  0  0  0  0  0  0  0  0  0
  130.8160  131.7960   56.1860 C   0  0  0  0  0  0  0  0  0  0  0  0
  131.8700  132.6010   55.9190 F   0  0  0  0  0  0  0  0  0  0  0  0
  129.5530  132.1280   55.7020 C   0  0  0  0  0  0  0  0  0  0  0  0
  128.4690  131.3000   55.9770 C   0  0  0  0  0  0  0  0  0  0  0  0
  130.1760  125.6190   56.6190 N   0  0  0  0  0  0  0  0  0  0  0  0
  131.5350  125.4520   59.3220 C   0  0  0  0  0  0  0  0  0  0  0  0
  132.0970  125.0540   60.5480 C   0  0  0  0  0  0  0  0  0  0  0  0
  131.5850  125.4210   61.7810 O   0  0  0  0  0  0  0  0  0  0  0  0
  130.4150  126.2280   61.8440 C   0  0  0  0  0  0  0  0  0  0  0  0
  133.2342  123.1331   63.6375 H   0  0  0  0  0  0  0  0  0  0  0  0
  132.0043  122.9398   62.3426 H   0  0  0  0  0  0  0  0  0  0  0  0
  133.4776  121.9121   62.3426 H   0  0  0  0  0  0  0  0  0  0  0  0
  134.6916  123.1994   59.3188 H   0  0  0  0  0  0  0  0  0  0  0  0
  133.6753  123.9081   57.1693 H   0  0  0  0  0  0  0  0  0  0  0  0
  129.0317  126.4437   53.6104 H   0  0  0  0  0  0  0  0  0  0  0  0
  128.0987  125.6926   55.0034 H   0  0  0  0  0  0  0  0  0  0  0  0
  125.8924  126.8235   56.8146 H   0  0  0  0  0  0  0  0  0  0  0  0
  127.3826  125.8532   56.3930 H   0  0  0  0  0  0  0  0  0  0  0  0
  128.4272  126.5020   58.4955 H   0  0  0  0  0  0  0  0  0  0  0  0
  126.9229  127.4707   58.9125 H   0  0  0  0  0  0  0  0  0  0  0  0
  127.2718  125.1372   60.0111 H   0  0  0  0  0  0  0  0  0  0  0  0
  125.6512  125.6105   59.3086 H   0  0  0  0  0  0  0  0  0  0  0  0
  124.6236  124.0895   57.8571 H   0  0  0  0  0  0  0  0  0  0  0  0
  125.6322  125.0116   56.6689 H   0  0  0  0  0  0  0  0  0  0  0  0
  125.5156  121.9639   56.9981 H   0  0  0  0  0  0  0  0  0  0  0  0
  124.8654  122.9331   55.6257 H   0  0  0  0  0  0  0  0  0  0  0  0
  127.8941  121.8374   57.2866 H   0  0  0  0  0  0  0  0  0  0  0  0
  128.9504  122.7138   56.1227 H   0  0  0  0  0  0  0  0  0  0  0  0
  128.7679  123.8758   58.3556 H   0  0  0  0  0  0  0  0  0  0  0  0
  128.1641  124.8763   56.9701 H   0  0  0  0  0  0  0  0  0  0  0  0
  127.6338  128.9455   58.1362 H   0  0  0  0  0  0  0  0  0  0  0  0
  126.4090  130.4790   58.9900 H   0  0  0  0  0  0  0  0  0  0  0  0
  124.2309  131.8577   57.9232 H   0  0  0  0  0  0  0  0  0  0  0  0
  123.6519  130.2017   58.3654 H   0  0  0  0  0  0  0  0  0  0  0  0
  123.3874  130.9420   60.4253 H   0  0  0  0  0  0  0  0  0  0  0  0
  123.9634  133.4485   59.3716 H   0  0  0  0  0  0  0  0  0  0  0  0
  123.4937  133.1788   61.0473 H   0  0  0  0  0  0  0  0  0  0  0  0
  126.2931  133.4787   59.8476 H   0  0  0  0  0  0  0  0  0  0  0  0
  125.7041  134.2079   61.3133 H   0  0  0  0  0  0  0  0  0  0  0  0
  127.1709  131.9671   61.5294 H   0  0  0  0  0  0  0  0  0  0  0  0
  125.7203  132.0000   62.5027 H   0  0  0  0  0  0  0  0  0  0  0  0
  130.0635  128.9017   57.8117 H   0  0  0  0  0  0  0  0  0  0  0  0
  132.0011  130.3848   57.3200 H   0  0  0  0  0  0  0  0  0  0  0  0
  129.4129  133.0411   55.1048 H   0  0  0  0  0  0  0  0  0  0  0  0
  127.4712  131.5623   55.5954 H   0  0  0  0  0  0  0  0  0  0  0  0
  130.6406  126.0924   59.3231 H   0  0  0  0  0  0  0  0  0  0  0  0
  130.1513  126.4099   62.8963 H   0  0  0  0  0  0  0  0  0  0  0  0
  130.6045  127.1884   61.3422 H   0  0  0  0  0  0  0  0  0  0  0  0
  129.5846  125.7097   61.3422 H   0  0  0  0  0  0  0  0  0  0  0  0
  1  2  1  0
  2  3  1  0
  3  4  2  0
  4  5  1  0
  5  6  2  0
  6  7  1  0
  7  8  1  0
  8  9  2  0
  9 10  1  0
 10 11  1  0
 11 12  1  0
 12 13  2  0
 12 14  1  0
 14 15  1  0
 15 16  1  0
 16 17  1  0
 17 18  1  0
 18 19  1  0
 19 20  1  0
 20 21  1  0
 21 22  1  0
 22 23  1  0
 14 24  1  0
 24 25  1  0
 25 26  2  0
 25 27  1  0
 27 28  1  0
 28 29  1  0
 29 30  1  0
 30 31  1  0
 31 32  1  0
 32 33  1  0
 24 34  1  0
 34 35  2  0
 35 36  1  0
 36 37  2  0
 37 38  1  0
 37 39  1  0
 39 40  2  0
 10 41  1  0
  6 42  1  0
 42 43  2  0
 43 44  1  0
 44 45  1  0
 43  3  1  0
 41  7  2  0
 23 18  1  0
 33 29  1  0
 40 34  1  0
  1 46  1  0
  1 47  1  0
  1 48  1  0
  4 49  1  0
  5 50  1  0
 11 51  1  0
 11 52  1  0
 15 53  1  0
 15 54  1  0
 16 55  1  0
 16 56  1  0
 17 57  1  0
 17 58  1  0
 19 59  1  0
 19 60  1  0
 20 61  1  0
 20 62  1  0
 22 63  1  0
 22 64  1  0
 23 65  1  0
 23 66  1  0
 24 67  1  1
 27 68  1  0
 28 69  1  0
 28 70  1  0
 29 71  1  1
 30 72  1  0
 30 73  1  0
 31 74  1  0
 31 75  1  0
 32 76  1  0
 32 77  1  0
 35 78  1  0
 36 79  1  0
 39 80  1  0
 40 81  1  0
 42 82  1  0
 45 83  1  0
 45 84  1  0
 45 85  1  0
M  END
>  <Binding energies>  (1) 
[-9.36]

>  <Ligand effiencies>  (1) 
[-0.2034782608695652]

>  <Interactions>  (1) 
["V-B:PRO:540:N:9856, V-B:TYR:539:CZ:9849, V-B:ILE:538:CA:9832, V-B:ASP:366:CG:8185, V-B:PRO:540:CB:9857, V-B:PRO:540:CA:9855, V-B:TYR:539:CE2:9848, V-A:LEU:475:CD2:4257, V-B:TYR:539:CE1:9847, V-B:TYR:539:CD1:9845, V-B:TYR:539:CD2:9846, V-A:TYR:539:CE1:4873, V-A:ASP:366:CG:3211, V-A:PRO:540:N:4882, V-A:ILE:538:CA:4858, V-A:TYR:539:CZ:4875, H-A:TYR:531:OH:4793, V-A:ASP:366:CB:3210, V-A:TYR:539:C:4865, V-A:ILE:538:CB:4860, V-A:PRO:540:CA:4881, V-A:ILE:538:CG2:4861, H-B:TYR:539:N:9842, H-B:TYR:531:OH:9767, V-B:TYR:539:C:9839, V-B:PRO:540:CD:9859, V-B:ILE:538:CB:9834, V-A:PRO:540:CD:4885, V-A:GLY:454:CA:4047, H-A:GLY:454:N:4048, V-A:TYR:539:CE2:4874, V-A:ILE:538:C:4856, V-B:TYR:539:CG:9844, V-B:ASP:366:CB:8184, H-A:TYR:539:OH:4876, H-B:TYR:539:OH:9850, H-A:ARG:545:NH2:4926, V-A:TYR:539:CD1:4871, V-A:ILE:369:CB:3234, V-A:ILE:369:CG2:3235, V-A:ILE:369:CD1:3237, V-A:ASP:366:CA:3208, V-A:TYR:539:CD2:4872, V-B:TYR:539:CA:9841, V-B:ILE:369:CD1:8211, V-B:ILE:369:CG2:8209"]

$$$$
RR16_Rahimova_2017
     RDKit          3D

 80 85  0  0  0  0  0  0  0  0999 V2000
  130.6460  124.4210   66.5340 O   0  0  0  0  0  0  0  0  0  0  0  0
  131.0530  125.5550   65.6970 S   0  0  0  0  0  0  0  0  0  0  0  0
  132.3300  126.2400   65.9250 O   0  0  0  0  0  0  0  0  0  0  0  0
  129.7650  126.7590   65.7710 N   0  0  0  0  0  0  0  0  0  0  0  0
  129.5230  127.5410   67.0060 C   0  0  0  0  0  0  0  0  0  0  0  0
  128.0510  128.0270   67.0220 C   0  0  0  0  0  0  0  0  0  0  0  0
  127.0280  127.1600   67.7820 C   0  0  0  0  0  0  0  0  0  0  0  0
  127.1440  127.2570   69.3130 C   0  0  0  0  0  0  0  0  0  0  0  0
  128.3810  128.0050   69.8470 C   0  0  0  0  0  0  0  0  0  0  0  0
  129.7590  127.3630   69.5900 C   0  0  0  0  0  0  0  0  0  0  0  0
  129.9600  126.6870   68.2190 C   0  0  0  0  0  0  0  0  0  0  0  0
  131.0310  124.9820   64.0020 C   0  0  0  0  0  0  0  0  0  0  0  0
  130.5490  125.8090   62.9850 C   0  0  0  0  0  0  0  0  0  0  0  0
  130.4230  125.3090   61.6920 C   0  0  0  0  0  0  0  0  0  0  0  0
  130.7790  123.9860   61.4220 C   0  0  0  0  0  0  0  0  0  0  0  0
  130.4860  123.2980   59.7940 S   0  0  0  0  0  0  0  0  0  0  0  0
  129.3190  122.4120   59.8950 O   0  0  0  0  0  0  0  0  0  0  0  0
  131.7680  122.7810   59.2980 O   0  0  0  0  0  0  0  0  0  0  0  0
  130.0360  124.7010   58.8050 N   0  0  0  0  0  0  0  0  0  0  0  0
  131.1750  125.5770   58.4250 C   0  0  0  0  0  0  0  0  0  0  0  0
  130.6600  126.9110   57.8480 C   0  0  0  0  0  0  0  0  0  0  0  0
  129.6570  126.6870   56.6890 C   0  0  0  0  0  0  0  0  0  0  0  0
  129.0980  127.9990   56.1320 C   0  0  0  0  0  0  0  0  0  0  0  0
  127.7120  128.1660   56.0050 C   0  0  0  0  0  0  0  0  0  0  0  0
  127.1590  129.3480   55.5100 C   0  0  0  0  0  0  0  0  0  0  0  0
  125.8000  129.4950   55.3960 O   0  0  0  0  0  0  0  0  0  0  0  0
  128.0310  130.3820   55.1380 C   0  0  0  0  0  0  0  0  0  0  0  0
  127.7820  131.6320   54.6490 N   0  0  0  0  0  0  0  0  0  0  0  0
  128.9970  132.2600   54.4800 N   0  0  0  0  0  0  0  0  0  0  0  0
  129.9740  131.3960   54.8160 N   0  0  0  0  0  0  0  0  0  0  0  0
  131.3660  131.8250   54.8140 C   0  0  0  0  0  0  0  0  0  0  0  0
  132.0540  131.5960   56.1520 C   0  0  0  0  0  0  0  0  0  0  0  0
  133.4490  131.5060   56.2180 C   0  0  0  0  0  0  0  0  0  0  0  0
  134.0830  131.3180   57.4470 C   0  0  0  0  0  0  0  0  0  0  0  0
  133.3270  131.2200   58.6150 C   0  0  0  0  0  0  0  0  0  0  0  0
  131.9360  131.3110   58.5570 C   0  0  0  0  0  0  0  0  0  0  0  0
  130.9990  131.2010   60.0010 Cl  0  0  0  0  0  0  0  0  0  0  0  0
  131.3010  131.4950   57.3270 C   0  0  0  0  0  0  0  0  0  0  0  0
  129.4290  130.2030   55.2620 C   0  0  0  0  0  0  0  0  0  0  0  0
  129.9850  129.0180   55.7550 C   0  0  0  0  0  0  0  0  0  0  0  0
  128.5460  125.6700   57.0610 C   0  0  0  0  0  0  0  0  0  0  0  0
  129.1270  124.3800   57.6740 C   0  0  0  0  0  0  0  0  0  0  0  0
  131.3010  123.1740   62.4320 C   0  0  0  0  0  0  0  0  0  0  0  0
  131.4230  123.6720   63.7240 C   0  0  0  0  0  0  0  0  0  0  0  0
  129.4890  127.2000   64.8890 H   0  0  0  0  0  0  0  0  0  0  0  0
  130.1265  128.4595   67.0526 H   0  0  0  0  0  0  0  0  0  0  0  0
  128.0386  129.0282   67.4775 H   0  0  0  0  0  0  0  0  0  0  0  0
  127.7292  127.9870   65.9709 H   0  0  0  0  0  0  0  0  0  0  0  0
  126.0172  127.4811   67.4902 H   0  0  0  0  0  0  0  0  0  0  0  0
  127.2331  126.1136   67.5119 H   0  0  0  0  0  0  0  0  0  0  0  0
  126.2489  127.7756   69.6869 H   0  0  0  0  0  0  0  0  0  0  0  0
  127.2442  126.2216   69.6707 H   0  0  0  0  0  0  0  0  0  0  0  0
  128.3895  129.0028   69.3841 H   0  0  0  0  0  0  0  0  0  0  0  0
  128.2653  127.9988   70.9409 H   0  0  0  0  0  0  0  0  0  0  0  0
  130.5186  128.1526   69.6874 H   0  0  0  0  0  0  0  0  0  0  0  0
  129.8439  126.5523   70.3286 H   0  0  0  0  0  0  0  0  0  0  0  0
  131.0289  126.4532   68.1059 H   0  0  0  0  0  0  0  0  0  0  0  0
  129.3184  125.7935   68.2166 H   0  0  0  0  0  0  0  0  0  0  0  0
  130.2703  126.8502   63.2046 H   0  0  0  0  0  0  0  0  0  0  0  0
  130.0442  125.9540   60.8855 H   0  0  0  0  0  0  0  0  0  0  0  0
  131.7883  125.7802   59.3153 H   0  0  0  0  0  0  0  0  0  0  0  0
  131.7769  125.0663   57.6589 H   0  0  0  0  0  0  0  0  0  0  0  0
  130.1591  127.4754   58.6483 H   0  0  0  0  0  0  0  0  0  0  0  0
  131.5220  127.4677   57.4516 H   0  0  0  0  0  0  0  0  0  0  0  0
  130.2283  126.2312   55.8669 H   0  0  0  0  0  0  0  0  0  0  0  0
  127.0435  127.3449   56.3029 H   0  0  0  0  0  0  0  0  0  0  0  0
  125.5250  130.4100   55.3040 H   0  0  0  0  0  0  0  0  0  0  0  0
  131.9067  131.2613   54.0394 H   0  0  0  0  0  0  0  0  0  0  0  0
  131.3796  132.9067   54.6147 H   0  0  0  0  0  0  0  0  0  0  0  0
  134.0476  131.5837   55.2984 H   0  0  0  0  0  0  0  0  0  0  0  0
  135.1797  131.2471   57.4945 H   0  0  0  0  0  0  0  0  0  0  0  0
  133.8280  131.0708   59.5829 H   0  0  0  0  0  0  0  0  0  0  0  0
  130.2039  131.5608   57.2816 H   0  0  0  0  0  0  0  0  0  0  0  0
  131.0740  128.8904   55.8435 H   0  0  0  0  0  0  0  0  0  0  0  0
  127.8676  126.1360   57.7908 H   0  0  0  0  0  0  0  0  0  0  0  0
  128.0114  125.3978   56.1390 H   0  0  0  0  0  0  0  0  0  0  0  0
  128.3025  123.7508   58.0404 H   0  0  0  0  0  0  0  0  0  0  0  0
  129.6986  123.8463   56.9004 H   0  0  0  0  0  0  0  0  0  0  0  0
  131.6144  122.1442   62.2056 H   0  0  0  0  0  0  0  0  0  0  0  0
  131.8273  123.0354   64.5248 H   0  0  0  0  0  0  0  0  0  0  0  0
  1  2  2  0
  2  3  2  0
  2  4  1  0
  4  5  1  0
  5  6  1  0
  6  7  1  0
  7  8  1  0
  8  9  1  0
  9 10  1  0
 10 11  1  0
  2 12  1  0
 12 13  2  0
 13 14  1  0
 14 15  2  0
 15 16  1  0
 16 17  2  0
 16 18  2  0
 16 19  1  0
 19 20  1  0
 20 21  1  0
 21 22  1  0
 22 23  1  0
 23 24  2  0
 24 25  1  0
 25 26  1  0
 25 27  2  0
 27 28  1  0
 28 29  2  0
 29 30  1  0
 30 31  1  0
 31 32  1  0
 32 33  2  0
 33 34  1  0
 34 35  2  0
 35 36  1  0
 36 37  1  0
 36 38  2  0
 30 39  1  0
 39 40  2  0
 22 41  1  0
 41 42  1  0
 15 43  1  0
 43 44  2  0
 11  5  1  0
 44 12  1  0
 42 19  1  0
 40 23  1  0
 39 27  1  0
 38 32  1  0
  4 45  1  0
  5 46  1  0
  6 47  1  0
  6 48  1  0
  7 49  1  0
  7 50  1  0
  8 51  1  0
  8 52  1  0
  9 53  1  0
  9 54  1  0
 10 55  1  0
 10 56  1  0
 11 57  1  0
 11 58  1  0
 13 59  1  0
 14 60  1  0
 20 61  1  0
 20 62  1  0
 21 63  1  0
 21 64  1  0
 22 65  1  0
 24 66  1  0
 26 67  1  0
 31 68  1  0
 31 69  1  0
 33 70  1  0
 34 71  1  0
 35 72  1  0
 38 73  1  0
 40 74  1  0
 41 75  1  0
 41 76  1  0
 42 77  1  0
 42 78  1  0
 43 79  1  0
 44 80  1  0
M  END
>  <Binding energies>  (1) 
[-10.48]

>  <Ligand effiencies>  (1) 
[-0.21833333333333335]

>  <Interactions>  (1) 
["H-B:GLU:543:OE1:9881, V-B:TYR:539:CE2:9848, V-A:ASP:366:CG:3211, V-A:PRO:540:N:4882, H-A:TYR:539:N:4868, V-A:ILE:538:CA:4858, V-A:TYR:531:CE2:4791, V-A:LEU:363:CA:3183, V-A:LEU:363:CD1:3187, V-A:ILE:538:CB:4860, V-A:PRO:540:CA:4881, V-A:ILE:538:CG2:4861, V-A:TYR:531:CZ:4792, V-A:GLU:543:CD:4906, V-A:PRO:540:CB:4883, V-B:GLU:543:CD:9880, H-B:TYR:531:OH:9767, H-B:GLU:543:OE2:9882, H-A:GLU:543:OE2:4908, H-A:GLU:543:OE1:4907, V-A:LEU:363:CB:3185, H-A:TYR:484:OH:4346, H-A:ARG:545:NE:4922, H-A:TYR:539:OH:4876, V-B:HIS:456:CE1:9042, V-B:GLY:544:C:9884, V-B:HIS:456:CD2:9040, V-A:HIS:456:CE1:4068, V-B:GLY:544:CA:9886, V-B:GLU:543:CG:9879, V-B:GLU:543:C:9874, V-A:GLU:543:CG:4905, V-B:ARG:545:CG:9894, V-B:GLU:543:CB:9878, V-A:GLU:543:C:4900, V-B:ARG:545:CA:9891"]

$$$$
RR17_Rahimova_2017
     RDKit          3D

 63 66  0  0  0  0  0  0  0  0999 V2000
  133.5200  132.1040   55.8900 C   0  0  0  0  0  0  0  0  0  0  0  0
  132.2680  132.4520   56.7000 C   0  0  0  0  0  0  0  0  0  0  0  0
  131.1630  132.5690   55.8080 O   0  0  0  0  0  0  0  0  0  0  0  0
  130.1970  131.5800   55.7920 C   0  0  0  0  0  0  0  0  0  0  0  0
  129.3510  131.5540   54.6840 C   0  0  0  0  0  0  0  0  0  0  0  0
  128.3480  130.5960   54.5800 C   0  0  0  0  0  0  0  0  0  0  0  0
  128.1690  129.6380   55.5890 C   0  0  0  0  0  0  0  0  0  0  0  0
  127.0790  128.6160   55.4490 C   0  0  0  0  0  0  0  0  0  0  0  0
  126.0640  128.8190   54.7750 O   0  0  0  0  0  0  0  0  0  0  0  0
  127.2670  127.2810   56.2040 C   0  0  0  0  0  0  0  0  0  0  0  0
  128.0450  126.0000   55.1570 S   0  0  0  0  0  0  0  0  0  0  0  0
  129.6310  125.8910   55.9370 C   0  0  0  0  0  0  0  0  0  0  0  0
  130.7670  126.2830   55.4080 N   0  0  0  0  0  0  0  0  0  0  0  0
  131.7740  126.0370   56.3330 N   0  0  0  0  0  0  0  0  0  0  0  0
  131.2080  125.5090   57.3890 C   0  0  0  0  0  0  0  0  0  0  0  0
  131.9500  125.0950   58.6510 C   0  0  0  0  0  0  0  0  0  0  0  0
  131.9960  126.1350   59.6760 N   0  0  0  0  0  0  0  0  0  0  0  0
  131.7380  125.9000   61.0380 C   0  0  0  0  0  0  0  0  0  0  0  0
  132.6590  125.1240   61.7420 C   0  0  0  0  0  0  0  0  0  0  0  0
  132.4610  124.8480   63.0920 C   0  0  0  0  0  0  0  0  0  0  0  0
  131.3390  125.3510   63.7570 C   0  0  0  0  0  0  0  0  0  0  0  0
  131.1330  125.0340   65.2380 C   0  0  0  0  0  0  0  0  0  0  0  0
  130.3230  125.9110   65.8350 F   0  0  0  0  0  0  0  0  0  0  0  0
  130.6030  123.8190   65.3840 F   0  0  0  0  0  0  0  0  0  0  0  0
  132.3130  125.0630   65.8580 F   0  0  0  0  0  0  0  0  0  0  0  0
  130.4180  126.1360   63.0550 C   0  0  0  0  0  0  0  0  0  0  0  0
  130.6170  126.4120   61.7050 C   0  0  0  0  0  0  0  0  0  0  0  0
  129.8480  125.3770   57.1990 N   0  0  0  0  0  0  0  0  0  0  0  0
  128.9000  124.8660   58.0980 C   0  0  0  0  0  0  0  0  0  0  0  0
  128.3320  123.6140   57.8610 C   0  0  0  0  0  0  0  0  0  0  0  0
  127.3880  123.1100   58.7520 C   0  0  0  0  0  0  0  0  0  0  0  0
  127.0110  123.8550   59.8810 C   0  0  0  0  0  0  0  0  0  0  0  0
  126.0850  123.4340   60.8170 O   0  0  0  0  0  0  0  0  0  0  0  0
  124.8450  124.1240   60.9250 C   0  0  0  0  0  0  0  0  0  0  0  0
  127.5890  125.1070   60.1010 C   0  0  0  0  0  0  0  0  0  0  0  0
  128.5330  125.6170   59.2150 C   0  0  0  0  0  0  0  0  0  0  0  0
  129.0210  129.6640   56.7020 C   0  0  0  0  0  0  0  0  0  0  0  0
  130.0250  130.6240   56.8040 C   0  0  0  0  0  0  0  0  0  0  0  0
  134.3484  131.8738   56.5762 H   0  0  0  0  0  0  0  0  0  0  0  0
  133.3150  131.2288   55.2560 H   0  0  0  0  0  0  0  0  0  0  0  0
  133.7960  132.9595   55.2560 H   0  0  0  0  0  0  0  0  0  0  0  0
  132.0689  131.6565   57.4332 H   0  0  0  0  0  0  0  0  0  0  0  0
  132.4199  133.4015   57.2341 H   0  0  0  0  0  0  0  0  0  0  0  0
  129.4780  132.2985   53.8842 H   0  0  0  0  0  0  0  0  0  0  0  0
  127.6894  130.5895   53.6989 H   0  0  0  0  0  0  0  0  0  0  0  0
  127.9060  127.4573   57.0819 H   0  0  0  0  0  0  0  0  0  0  0  0
  126.2720  126.9171   56.5000 H   0  0  0  0  0  0  0  0  0  0  0  0
  131.4482  124.2125   59.0746 H   0  0  0  0  0  0  0  0  0  0  0  0
  132.9898  124.8879   58.3579 H   0  0  0  0  0  0  0  0  0  0  0  0
  132.0110  127.0940   59.3620 H   0  0  0  0  0  0  0  0  0  0  0  0
  133.5468  124.7279   61.2274 H   0  0  0  0  0  0  0  0  0  0  0  0
  133.1905  124.2315   63.6377 H   0  0  0  0  0  0  0  0  0  0  0  0
  129.5333  126.5366   63.5716 H   0  0  0  0  0  0  0  0  0  0  0  0
  129.8918  127.0341   61.1601 H   0  0  0  0  0  0  0  0  0  0  0  0
  128.6275  123.0295   56.9772 H   0  0  0  0  0  0  0  0  0  0  0  0
  126.9356  122.1239   58.5706 H   0  0  0  0  0  0  0  0  0  0  0  0
  124.5943  124.2635   61.9869 H   0  0  0  0  0  0  0  0  0  0  0  0
  124.9278  125.1057   60.4358 H   0  0  0  0  0  0  0  0  0  0  0  0
  124.0544  123.5361   60.4358 H   0  0  0  0  0  0  0  0  0  0  0  0
  127.2954  125.6954   60.9828 H   0  0  0  0  0  0  0  0  0  0  0  0
  128.9858  126.6034   59.3937 H   0  0  0  0  0  0  0  0  0  0  0  0
  128.8955  128.9195   57.5020 H   0  0  0  0  0  0  0  0  0  0  0  0
  130.6865  130.6325   57.6828 H   0  0  0  0  0  0  0  0  0  0  0  0
  1  2  1  0
  2  3  1  0
  3  4  1  0
  4  5  2  0
  5  6  1  0
  6  7  2  0
  7  8  1  0
  8  9  2  0
  8 10  1  0
 10 11  1  0
 11 12  1  0
 12 13  2  0
 13 14  1  0
 14 15  2  0
 15 16  1  0
 16 17  1  0
 17 18  1  0
 18 19  2  0
 19 20  1  0
 20 21  2  0
 21 22  1  0
 22 23  1  0
 22 24  1  0
 22 25  1  0
 21 26  1  0
 26 27  2  0
 15 28  1  0
 28 29  1  0
 29 30  2  0
 30 31  1  0
 31 32  2  0
 32 33  1  0
 33 34  1  0
 32 35  1  0
 35 36  2  0
  7 37  1  0
 37 38  2  0
 38  4  1  0
 28 12  1  0
 36 29  1  0
 27 18  1  0
  1 39  1  0
  1 40  1  0
  1 41  1  0
  2 42  1  0
  2 43  1  0
  5 44  1  0
  6 45  1  0
 10 46  1  0
 10 47  1  0
 16 48  1  0
 16 49  1  0
 17 50  1  0
 19 51  1  0
 20 52  1  0
 26 53  1  0
 27 54  1  0
 30 55  1  0
 31 56  1  0
 34 57  1  0
 34 58  1  0
 34 59  1  0
 35 60  1  0
 36 61  1  0
 37 62  1  0
 38 63  1  0
M  END
>  <Binding energies>  (1) 
[-8.54]

>  <Ligand effiencies>  (1) 
[-0.21897435897435896]

>  <Interactions>  (1) 
["V-B:PRO:540:N:9856, V-B:PRO:540:CB:9857, V-B:PRO:540:CA:9855, H-B:ALA:541:N:9863, V-A:TYR:539:CE1:4873, V-A:ASP:366:CG:3211, V-A:PRO:540:N:4882, H-A:TYR:539:N:4868, V-A:ILE:538:CA:4858, V-A:TYR:531:CE2:4791, H-A:TYR:531:OH:4793, V-A:ASP:366:CB:3210, V-A:TYR:539:C:4865, V-A:LEU:363:CD1:3187, V-A:ILE:538:CB:4860, V-A:PRO:540:CA:4881, V-A:ILE:538:CG2:4861, V-A:TYR:531:CZ:4792, V-A:PRO:540:CB:4883, V-B:ASN:362:CB:8148, V-B:GLU:543:CD:9880, H-B:TYR:531:OH:9767, V-B:TYR:539:C:9839, V-A:ARG:545:CZ:4924, H-A:ASP:366:OD2:3213, V-A:PRO:540:CD:4885, H-B:TYR:539:OH:9850, H-A:ASP:366:OD1:3212, V-A:HIS:456:CE1:4068, V-A:PRO:540:CG:4884, V-B:GLU:543:CG:9879, V-A:ARG:545:CG:4920, V-A:TYR:484:CZ:4345, V-B:GLU:543:CB:9878, V-A:TYR:484:CE1:4343"]

$$$$
RR18_Rahimova_2017
     RDKit          3D

 56 61  0  0  0  0  0  0  0  0999 V2000
  133.6100  131.3670   60.5870 C   0  0  0  0  0  0  0  0  0  0  0  0
  132.1520  131.0160   60.7380 C   0  0  0  0  0  0  0  0  0  0  0  0
  131.1610  131.3730   61.6380 C   0  0  0  0  0  0  0  0  0  0  0  0
  130.0000  130.7090   61.2440 C   0  0  0  0  0  0  0  0  0  0  0  0
  130.3230  129.9700   60.1170 C   0  0  0  0  0  0  0  0  0  0  0  0
  129.5320  129.0410   59.1990 C   0  0  1  0  0  0  0  0  0  0  0  0
  128.9700  129.8040   57.9620 C   0  0  0  0  0  0  0  0  0  0  0  0
  127.9700  130.8530   58.1330 C   0  0  0  0  0  0  0  0  0  0  0  0
  127.8450  131.7710   57.3200 O   0  0  0  0  0  0  0  0  0  0  0  0
  127.2010  130.7110   59.2380 N   0  0  0  0  0  0  0  0  0  0  0  0
  126.1620  131.5260   59.7370 C   0  0  0  0  0  0  0  0  0  0  0  0
  124.7980  131.2060   59.6120 C   0  0  0  0  0  0  0  0  0  0  0  0
  123.8190  132.0570   60.1220 C   0  0  0  0  0  0  0  0  0  0  0  0
  124.1850  133.2400   60.7570 C   0  0  0  0  0  0  0  0  0  0  0  0
  125.5310  133.5760   60.8780 C   0  0  0  0  0  0  0  0  0  0  0  0
  126.5250  132.7310   60.3720 C   0  0  0  0  0  0  0  0  0  0  0  0
  127.9850  133.1470   60.5270 C   0  0  0  0  0  0  0  0  0  0  0  0
  129.5050  129.5410   56.7410 C   0  0  0  0  0  0  0  0  0  0  0  0
  130.4250  128.5690   56.4890 N   0  0  0  0  0  0  0  0  0  0  0  0
  130.7760  127.7730   57.4310 C   0  0  0  0  0  0  0  0  0  0  0  0
  131.8250  126.3910   57.2230 S   0  0  0  0  0  0  0  0  0  0  0  0
  131.6780  125.9530   58.9540 C   0  0  0  0  0  0  0  0  0  0  0  0
  132.2700  124.8860   59.5960 C   0  0  0  0  0  0  0  0  0  0  0  0
  133.0630  123.9100   58.8360 C   0  0  0  0  0  0  0  0  0  0  0  0
  133.3410  123.8760   57.6380 O   0  0  0  0  0  0  0  0  0  0  0  0
  133.4640  122.9670   59.6950 N   0  0  0  0  0  0  0  0  0  0  0  0
  133.0610  123.2070   60.9740 C   0  0  0  0  0  0  0  0  0  0  0  0
  133.3160  122.4390   62.1090 C   0  0  0  0  0  0  0  0  0  0  0  0
  132.8370  122.8780   63.3400 C   0  0  0  0  0  0  0  0  0  0  0  0
  132.1240  124.0730   63.4160 C   0  0  0  0  0  0  0  0  0  0  0  0
  131.8800  124.8250   62.2630 C   0  0  0  0  0  0  0  0  0  0  0  0
  132.3360  124.3860   61.0060 C   0  0  0  0  0  0  0  0  0  0  0  0
  130.7930  126.9270   59.5930 C   0  0  0  0  0  0  0  0  0  0  0  0
  130.4190  126.9170   60.7620 O   0  0  0  0  0  0  0  0  0  0  0  0
  130.3790  127.8890   58.7240 N   0  0  0  0  0  0  0  0  0  0  0  0
  131.6350  130.1620   59.8160 O   0  0  0  0  0  0  0  0  0  0  0  0
  134.0657  131.4767   61.5821 H   0  0  0  0  0  0  0  0  0  0  0  0
  134.1244  130.5670   60.0343 H   0  0  0  0  0  0  0  0  0  0  0  0
  133.7040  132.3134   60.0343 H   0  0  0  0  0  0  0  0  0  0  0  0
  131.2693  132.0501   62.4981 H   0  0  0  0  0  0  0  0  0  0  0  0
  129.0164  130.7616   61.7337 H   0  0  0  0  0  0  0  0  0  0  0  0
  128.6915  128.6515   59.7922 H   0  0  0  0  0  0  0  0  0  0  0  0
  127.3520  129.8700   59.7730 H   0  0  0  0  0  0  0  0  0  0  0  0
  124.5010  130.2751   59.1068 H   0  0  0  0  0  0  0  0  0  0  0  0
  122.7558  131.7932   60.0224 H   0  0  0  0  0  0  0  0  0  0  0  0
  123.4119  133.9090   61.1629 H   0  0  0  0  0  0  0  0  0  0  0  0
  125.8155  134.5146   61.3761 H   0  0  0  0  0  0  0  0  0  0  0  0
  128.2345  133.2181   61.5960 H   0  0  0  0  0  0  0  0  0  0  0  0
  128.6326  132.3976   60.0484 H   0  0  0  0  0  0  0  0  0  0  0  0
  128.1403  134.1252   60.0484 H   0  0  0  0  0  0  0  0  0  0  0  0
  129.1706  130.1583   55.8942 H   0  0  0  0  0  0  0  0  0  0  0  0
  134.0260  122.1740   59.4210 H   0  0  0  0  0  0  0  0  0  0  0  0
  133.8864  121.5015   62.0331 H   0  0  0  0  0  0  0  0  0  0  0  0
  133.0203  122.2848   64.2480 H   0  0  0  0  0  0  0  0  0  0  0  0
  131.7511  124.4265   64.3886 H   0  0  0  0  0  0  0  0  0  0  0  0
  131.3247  125.7715   62.3392 H   0  0  0  0  0  0  0  0  0  0  0  0
  1  2  1  0
  2  3  2  0
  3  4  1  0
  4  5  2  0
  5  6  1  0
  6  7  1  0
  7  8  1  0
  8  9  2  0
  8 10  1  0
 10 11  1  0
 11 12  2  0
 12 13  1  0
 13 14  2  0
 14 15  1  0
 15 16  2  0
 16 17  1  0
  7 18  2  0
 18 19  1  0
 19 20  2  0
 20 21  1  0
 21 22  1  0
 22 23  2  0
 23 24  1  0
 24 25  2  0
 24 26  1  0
 26 27  1  0
 27 28  2  0
 28 29  1  0
 29 30  2  0
 30 31  1  0
 31 32  2  0
 22 33  1  0
 33 34  2  0
 33 35  1  0
  5 36  1  0
 36  2  1  0
 35  6  1  0
 16 11  1  0
 35 20  1  0
 32 23  1  0
 32 27  1  0
  1 37  1  0
  1 38  1  0
  1 39  1  0
  3 40  1  0
  4 41  1  0
  6 42  1  1
 10 43  1  0
 12 44  1  0
 13 45  1  0
 14 46  1  0
 15 47  1  0
 17 48  1  0
 17 49  1  0
 17 50  1  0
 18 51  1  0
 26 52  1  0
 28 53  1  0
 29 54  1  0
 30 55  1  0
 31 56  1  0
M  END
>  <Binding energies>  (1) 
[-8.25]

>  <Ligand effiencies>  (1) 
[-0.21710526315789475]

>  <Interactions>  (1) 
["V-B:TYR:539:CE2:9848, V-A:LEU:475:CD2:4257, V-A:ASP:366:CG:3211, H-A:TYR:531:OH:4793, V-A:ASP:366:CB:3210, V-A:PRO:540:CA:4881, V-A:GLU:543:CD:4906, V-A:PRO:540:CB:4883, V-A:ASN:362:CB:3174, V-A:GLY:454:CA:4047, V-A:TYR:539:CE2:4874, V-A:ALA:541:CB:4890, H-B:TYR:539:OH:9850, H-A:ARG:545:NH2:4926, V-A:ILE:369:CG2:3235, V-A:ILE:369:CD1:3237, V-A:ASN:362:C:3170, V-A:PRO:540:C:4879, V-A:TYR:539:CD2:4872, V-A:ALA:541:CA:4888, V-B:ILE:369:CD1:8211, V-B:ILE:369:CG2:8209, V-B:LEU:475:CD2:9231, V-B:ILE:369:CB:8208, V-A:ASN:362:CA:3172"]

$$$$
RR19_Rahimova_2017
     RDKit          3D

 72 77  0  0  0  0  0  0  0  0999 V2000
  128.6430  126.3540   54.6440 O   0  0  0  0  0  0  0  0  0  0  0  0
  128.6190  126.4030   55.8770 C   0  0  0  0  0  0  0  0  0  0  0  0
  128.6160  127.5320   56.6300 N   0  0  0  0  0  0  0  0  0  0  0  0
  128.4250  128.8580   56.3280 C   0  0  0  0  0  0  0  0  0  0  0  0
  127.8680  129.4610   54.8470 S   0  0  0  0  0  0  0  0  0  0  0  0
  128.7590  129.6110   57.4260 N   0  0  0  0  0  0  0  0  0  0  0  0
  128.6270  130.9300   57.7160 C   0  0  0  0  0  0  0  0  0  0  0  0
  127.9750  131.7590   57.0760 O   0  0  0  0  0  0  0  0  0  0  0  0
  129.4130  131.3780   58.9740 C   0  0  2  0  0  0  0  0  0  0  0  0
  130.8720  130.8410   59.0570 C   0  0  0  0  0  0  0  0  0  0  0  0
  131.7750  131.2390   57.9010 C   0  0  0  0  0  0  0  0  0  0  0  0
  131.2680  131.9690   56.8040 C   0  0  0  0  0  0  0  0  0  0  0  0
  132.1240  132.3910   55.7960 C   0  0  0  0  0  0  0  0  0  0  0  0
  133.4840  132.1130   55.8680 C   0  0  0  0  0  0  0  0  0  0  0  0
  134.0010  131.4220   56.9560 C   0  0  0  0  0  0  0  0  0  0  0  0
  133.1630  130.9930   57.9760 C   0  0  0  0  0  0  0  0  0  0  0  0
  128.6520  131.0880   60.2200 N   0  0  0  0  0  0  0  0  0  0  0  0
  128.2100  132.0910   61.0310 C   0  0  0  0  0  0  0  0  0  0  0  0
  128.3860  133.3020   60.8840 O   0  0  0  0  0  0  0  0  0  0  0  0
  127.4680  131.4180   62.1250 C   0  0  0  0  0  0  0  0  0  0  0  0
  126.8070  131.9390   63.2380 C   0  0  0  0  0  0  0  0  0  0  0  0
  126.1740  131.0540   64.1180 C   0  0  0  0  0  0  0  0  0  0  0  0
  126.2090  129.6740   63.8770 C   0  0  0  0  0  0  0  0  0  0  0  0
  126.8770  129.1710   62.7550 C   0  0  0  0  0  0  0  0  0  0  0  0
  127.5020  130.0700   61.8900 C   0  0  0  0  0  0  0  0  0  0  0  0
  128.2660  129.8450   60.6380 C   0  0  0  0  0  0  0  0  0  0  0  0
  128.4930  128.7650   60.0900 O   0  0  0  0  0  0  0  0  0  0  0  0
  128.6040  125.0840   56.6950 C   0  0  2  0  0  0  0  0  0  0  0  0
  127.4610  125.0080   57.7480 C   0  0  0  0  0  0  0  0  0  0  0  0
  126.1690  124.4150   57.2140 C   0  0  0  0  0  0  0  0  0  0  0  0
  126.2090  123.3620   56.2750 C   0  0  0  0  0  0  0  0  0  0  0  0
  125.0300  122.7530   55.8650 C   0  0  0  0  0  0  0  0  0  0  0  0
  123.8120  123.1570   56.3950 C   0  0  0  0  0  0  0  0  0  0  0  0
  123.7610  124.1660   57.3500 C   0  0  0  0  0  0  0  0  0  0  0  0
  124.9280  124.7880   57.7720 C   0  0  0  0  0  0  0  0  0  0  0  0
  129.9250  124.7480   57.2980 N   0  0  0  0  0  0  0  0  0  0  0  0
  130.0260  123.9920   58.4280 C   0  0  0  0  0  0  0  0  0  0  0  0
  129.1040  123.5170   59.0920 O   0  0  0  0  0  0  0  0  0  0  0  0
  131.4820  123.8630   58.6860 C   0  0  0  0  0  0  0  0  0  0  0  0
  132.1750  123.2080   59.7050 C   0  0  0  0  0  0  0  0  0  0  0  0
  133.5740  123.2500   59.6980 C   0  0  0  0  0  0  0  0  0  0  0  0
  134.2540  123.9360   58.6830 C   0  0  0  0  0  0  0  0  0  0  0  0
  133.5410  124.5850   57.6690 C   0  0  0  0  0  0  0  0  0  0  0  0
  132.1460  124.5330   57.6960 C   0  0  0  0  0  0  0  0  0  0  0  0
  131.1350  125.1090   56.7760 C   0  0  0  0  0  0  0  0  0  0  0  0
  131.3420  125.7700   55.7590 O   0  0  0  0  0  0  0  0  0  0  0  0
  128.6730  127.3500   57.6210 H   0  0  0  0  0  0  0  0  0  0  0  0
  129.2910  129.1030   58.1170 H   0  0  0  0  0  0  0  0  0  0  0  0
  129.5200  132.4679   58.8708 H   0  0  0  0  0  0  0  0  0  0  0  0
  131.3218  131.2203   59.9864 H   0  0  0  0  0  0  0  0  0  0  0  0
  130.7960  129.7442   59.0213 H   0  0  0  0  0  0  0  0  0  0  0  0
  130.1947  132.2033   56.7481 H   0  0  0  0  0  0  0  0  0  0  0  0
  131.7241  132.9482   54.9360 H   0  0  0  0  0  0  0  0  0  0  0  0
  134.1537  132.4418   55.0596 H   0  0  0  0  0  0  0  0  0  0  0  0
  135.0797  131.2136   57.0097 H   0  0  0  0  0  0  0  0  0  0  0  0
  133.5808  130.4610   58.8434 H   0  0  0  0  0  0  0  0  0  0  0  0
  126.7840  133.0236   63.4200 H   0  0  0  0  0  0  0  0  0  0  0  0
  125.6472  131.4429   65.0019 H   0  0  0  0  0  0  0  0  0  0  0  0
  125.7095  128.9835   64.5725 H   0  0  0  0  0  0  0  0  0  0  0  0
  126.9088  128.0891   62.5589 H   0  0  0  0  0  0  0  0  0  0  0  0
  128.3863  124.3074   55.9470 H   0  0  0  0  0  0  0  0  0  0  0  0
  127.8053  124.3873   58.5883 H   0  0  0  0  0  0  0  0  0  0  0  0
  127.2364  126.0417   58.0497 H   0  0  0  0  0  0  0  0  0  0  0  0
  127.1734  123.0239   55.8681 H   0  0  0  0  0  0  0  0  0  0  0  0
  125.0614  121.9470   55.1171 H   0  0  0  0  0  0  0  0  0  0  0  0
  122.8821  122.6760   56.0574 H   0  0  0  0  0  0  0  0  0  0  0  0
  122.7927  124.4725   57.7726 H   0  0  0  0  0  0  0  0  0  0  0  0
  124.8852  125.5723   58.5421 H   0  0  0  0  0  0  0  0  0  0  0  0
  131.6332  122.6701   60.4969 H   0  0  0  0  0  0  0  0  0  0  0  0
  134.1416  122.7427   60.4921 H   0  0  0  0  0  0  0  0  0  0  0  0
  135.3536  123.9645   58.6833 H   0  0  0  0  0  0  0  0  0  0  0  0
  134.0679  125.1244   56.8681 H   0  0  0  0  0  0  0  0  0  0  0  0
  1  2  2  0
  2  3  1  0
  3  4  1  0
  4  5  2  0
  4  6  1  0
  6  7  1  0
  7  8  2  0
  7  9  1  0
  9 10  1  0
 10 11  1  0
 11 12  2  0
 12 13  1  0
 13 14  2  0
 14 15  1  0
 15 16  2  0
  9 17  1  0
 17 18  1  0
 18 19  2  0
 18 20  1  0
 20 21  2  0
 21 22  1  0
 22 23  2  0
 23 24  1  0
 24 25  2  0
 25 26  1  0
 26 27  2  0
  2 28  1  0
 28 29  1  0
 29 30  1  0
 30 31  2  0
 31 32  1  0
 32 33  2  0
 33 34  1  0
 34 35  2  0
 28 36  1  0
 36 37  1  0
 37 38  2  0
 37 39  1  0
 39 40  2  0
 40 41  1  0
 41 42  2  0
 42 43  1  0
 43 44  2  0
 44 45  1  0
 45 46  2  0
 16 11  1  0
 26 17  1  0
 35 30  1  0
 45 36  1  0
 25 20  1  0
 44 39  1  0
  3 47  1  0
  6 48  1  0
  9 49  1  6
 10 50  1  0
 10 51  1  0
 12 52  1  0
 13 53  1  0
 14 54  1  0
 15 55  1  0
 16 56  1  0
 21 57  1  0
 22 58  1  0
 23 59  1  0
 24 60  1  0
 28 61  1  6
 29 62  1  0
 29 63  1  0
 31 64  1  0
 32 65  1  0
 33 66  1  0
 34 67  1  0
 35 68  1  0
 40 69  1  0
 41 70  1  0
 42 71  1  0
 43 72  1  0
M  END
>  <Binding energies>  (1) 
[-12.15]

>  <Ligand effiencies>  (1) 
[-0.253125]

>  <Interactions>  (1) 
["V-B:PRO:540:N:9856, V-B:LEU:363:CA:8157, V-B:TYR:539:CZ:9849, V-B:ILE:538:CA:9832, V-B:ASP:366:CG:8185, V-B:PRO:540:CB:9857, V-B:TYR:539:CE2:9848, V-B:TYR:539:CD2:9846, V-A:ASP:366:CG:3211, V-A:PRO:540:N:4882, V-A:ILE:538:CA:4858, V-A:TYR:531:CE2:4791, V-A:LEU:363:CA:3183, H-A:TYR:531:OH:4793, V-A:ASP:366:CB:3210, V-A:TYR:539:C:4865, V-A:LEU:363:CD1:3187, V-A:ILE:538:CB:4860, V-A:PRO:540:CA:4881, V-A:ILE:538:CG2:4861, V-A:TYR:531:CZ:4792, V-A:PRO:540:CB:4883, V-B:ARG:545:CZ:9898, V-B:TYR:531:CE2:9765, V-B:LEU:363:CD1:8161, V-B:TYR:531:CZ:9766, V-B:ILE:538:CG2:9835, V-B:PRO:540:CD:9859, V-B:ILE:538:CB:9834, V-B:PRO:540:CG:9858, H-A:ALA:541:N:4889, V-A:LEU:363:CB:3185, V-A:PRO:540:CD:4885, V-A:ALA:541:CB:4890, H-B:TYR:539:OH:9850, V-A:ILE:369:CB:3234, V-A:ILE:369:CG2:3235, V-A:ILE:369:CD1:3237, V-A:ASP:366:CA:3208, V-B:ILE:538:C:9830, V-A:ASP:366:C:3206"]

$$$$
RR19_Rahimova_2017-again1
     RDKit          3D

 71 76  0  0  0  0  0  0  0  0999 V2000
  131.5100  123.5080   58.6640 O   0  0  0  0  0  0  0  0  0  0  0  0
  130.3840  124.0100   58.7090 C   0  0  0  0  0  0  0  0  0  0  0  0
  130.0050  125.1610   58.1030 N   0  0  0  0  0  0  0  0  0  0  0  0
  130.6260  125.9870   57.2080 C   0  0  0  0  0  0  0  0  0  0  0  0
  132.1880  125.9410   56.5920 S   0  0  0  0  0  0  0  0  0  0  0  0
  129.6760  126.9020   56.7890 N   0  0  0  0  0  0  0  0  0  0  0  0
  128.4350  126.7080   56.4800 C   0  0  0  0  0  0  0  0  0  0  0  0
  127.7360  125.6780   56.5520 O   0  0  0  0  0  0  0  0  0  0  0  0
  127.6830  127.9560   55.9070 C   0  0  2  0  0  0  0  0  0  0  0  0
  128.6340  128.8460   55.0390 C   0  0  0  0  0  0  0  0  0  0  0  0
  129.1790  130.0790   55.7560 C   0  0  0  0  0  0  0  0  0  0  0  0
  128.5750  131.3230   55.5590 C   0  0  0  0  0  0  0  0  0  0  0  0
  129.0620  132.4460   56.2240 C   0  0  0  0  0  0  0  0  0  0  0  0
  130.1530  132.3200   57.0820 C   0  0  0  0  0  0  0  0  0  0  0  0
  130.7630  131.0820   57.2800 C   0  0  0  0  0  0  0  0  0  0  0  0
  130.2770  129.9610   56.6140 C   0  0  0  0  0  0  0  0  0  0  0  0
  126.8940  128.7070   56.9390 N   0  0  0  0  0  0  0  0  0  0  0  0
  125.7590  129.3890   56.6130 C   0  0  0  0  0  0  0  0  0  0  0  0
  125.2470  129.4990   55.4990 O   0  0  0  0  0  0  0  0  0  0  0  0
  125.2720  129.9740   57.8890 C   0  0  0  0  0  0  0  0  0  0  0  0
  124.1590  130.7700   58.1620 C   0  0  0  0  0  0  0  0  0  0  0  0
  123.9410  131.1850   59.4810 C   0  0  0  0  0  0  0  0  0  0  0  0
  124.8260  130.8020   60.4980 C   0  0  0  0  0  0  0  0  0  0  0  0
  125.9350  130.0040   60.2030 C   0  0  0  0  0  0  0  0  0  0  0  0
  126.1360  129.6020   58.8810 C   0  0  0  0  0  0  0  0  0  0  0  0
  127.1990  128.7680   58.2710 C   0  0  0  0  0  0  0  0  0  0  0  0
  128.1520  128.2430   58.8470 O   0  0  0  0  0  0  0  0  0  0  0  0
  129.2580  123.3050   59.5210 C   0  0  2  0  0  0  0  0  0  0  0  0
  129.6410  121.8800   60.0150 C   0  0  0  0  0  0  0  0  0  0  0  0
  130.9950  121.8070   60.6980 C   0  0  0  0  0  0  0  0  0  0  0  0
  132.0080  120.9780   60.1720 C   0  0  0  0  0  0  0  0  0  0  0  0
  133.2770  120.9870   60.7370 C   0  0  0  0  0  0  0  0  0  0  0  0
  133.5620  121.8300   61.8040 C   0  0  0  0  0  0  0  0  0  0  0  0
  132.5850  122.6790   62.3080 C   0  0  0  0  0  0  0  0  0  0  0  0
  131.3110  122.6860   61.7560 C   0  0  0  0  0  0  0  0  0  0  0  0
  127.9210  123.3270   58.8540 N   0  0  0  0  0  0  0  0  0  0  0  0
  126.8260  123.8650   59.4630 C   0  0  0  0  0  0  0  0  0  0  0  0
  126.7530  124.3090   60.6090 O   0  0  0  0  0  0  0  0  0  0  0  0
  125.7440  123.8100   58.4510 C   0  0  0  0  0  0  0  0  0  0  0  0
  124.4140  124.2300   58.5110 C   0  0  0  0  0  0  0  0  0  0  0  0
  123.6100  124.0720   57.3760 C   0  0  0  0  0  0  0  0  0  0  0  0
  124.1370  123.5000   56.2110 C   0  0  0  0  0  0  0  0  0  0  0  0
  125.4720  123.0820   56.1710 C   0  0  0  0  0  0  0  0  0  0  0  0
  126.2580  123.2520   57.3120 C   0  0  0  0  0  0  0  0  0  0  0  0
  127.6870  122.9410   57.5640 C   0  0  0  0  0  0  0  0  0  0  0  0
  128.4930  122.4510   56.7720 O   0  0  0  0  0  0  0  0  0  0  0  0
  129.0450  125.4170   58.2790 H   0  0  0  0  0  0  0  0  0  0  0  0
  126.9096  127.5817   55.2201 H   0  0  0  0  0  0  0  0  0  0  0  0
  129.4871  128.2285   54.7214 H   0  0  0  0  0  0  0  0  0  0  0  0
  128.0322  129.2158   54.1958 H   0  0  0  0  0  0  0  0  0  0  0  0
  127.7153  131.4158   54.8791 H   0  0  0  0  0  0  0  0  0  0  0  0
  128.5880  133.4270   56.0727 H   0  0  0  0  0  0  0  0  0  0  0  0
  130.5368  133.2064   57.6084 H   0  0  0  0  0  0  0  0  0  0  0  0
  131.6237  130.9919   57.9590 H   0  0  0  0  0  0  0  0  0  0  0  0
  130.7564  128.9822   56.7624 H   0  0  0  0  0  0  0  0  0  0  0  0
  123.4681  131.0649   57.3585 H   0  0  0  0  0  0  0  0  0  0  0  0
  123.0712  131.8145   59.7203 H   0  0  0  0  0  0  0  0  0  0  0  0
  124.6472  131.1307   61.5324 H   0  0  0  0  0  0  0  0  0  0  0  0
  126.6345  129.6992   60.9954 H   0  0  0  0  0  0  0  0  0  0  0  0
  129.1546  123.9265   60.4227 H   0  0  0  0  0  0  0  0  0  0  0  0
  128.8747  121.5437   60.7290 H   0  0  0  0  0  0  0  0  0  0  0  0
  129.6991  121.2387   59.1232 H   0  0  0  0  0  0  0  0  0  0  0  0
  131.7929  120.3241   59.3140 H   0  0  0  0  0  0  0  0  0  0  0  0
  134.0591  120.3243   60.3382 H   0  0  0  0  0  0  0  0  0  0  0  0
  134.5666  121.8250   62.2520 H   0  0  0  0  0  0  0  0  0  0  0  0
  132.8216  123.3486   63.1480 H   0  0  0  0  0  0  0  0  0  0  0  0
  130.5477  123.3769   62.1434 H   0  0  0  0  0  0  0  0  0  0  0  0
  124.0065  124.6756   59.4305 H   0  0  0  0  0  0  0  0  0  0  0  0
  122.5598  124.3984   57.3991 H   0  0  0  0  0  0  0  0  0  0  0  0
  123.4986  123.3788   55.3235 H   0  0  0  0  0  0  0  0  0  0  0  0
  125.8925  122.6296   55.2608 H   0  0  0  0  0  0  0  0  0  0  0  0
  1  2  2  0
  2  3  1  0
  3  4  1  0
  4  5  2  0
  4  6  1  0
  6  7  2  0
  7  8  1  0
  7  9  1  0
  9 10  1  0
 10 11  1  0
 11 12  2  0
 12 13  1  0
 13 14  2  0
 14 15  1  0
 15 16  2  0
  9 17  1  0
 17 18  1  0
 18 19  2  0
 18 20  1  0
 20 21  2  0
 21 22  1  0
 22 23  2  0
 23 24  1  0
 24 25  2  0
 25 26  1  0
 26 27  2  0
  2 28  1  0
 28 29  1  0
 29 30  1  0
 30 31  2  0
 31 32  1  0
 32 33  2  0
 33 34  1  0
 34 35  2  0
 28 36  1  0
 36 37  1  0
 37 38  2  0
 37 39  1  0
 39 40  2  0
 40 41  1  0
 41 42  2  0
 42 43  1  0
 43 44  2  0
 44 45  1  0
 45 46  2  0
 16 11  1  0
 26 17  1  0
 35 30  1  0
 45 36  1  0
 25 20  1  0
 44 39  1  0
  3 47  1  0
  9 48  1  6
 10 49  1  0
 10 50  1  0
 12 51  1  0
 13 52  1  0
 14 53  1  0
 15 54  1  0
 16 55  1  0
 21 56  1  0
 22 57  1  0
 23 58  1  0
 24 59  1  0
 28 60  1  1
 29 61  1  0
 29 62  1  0
 31 63  1  0
 32 64  1  0
 33 65  1  0
 34 66  1  0
 35 67  1  0
 40 68  1  0
 41 69  1  0
 42 70  1  0
 43 71  1  0
M  CHG  1   8  -1
M  END
>  <Binding energies>  (1) 
[-11.12]

>  <Ligand effiencies>  (1) 
[-0.23659574468085104]

>  <Interactions>  (1) 
["V-B:PRO:540:N:9856, V-B:LEU:363:CA:8157, V-A:TRP:381:CH2:3370, V-B:ILE:538:CA:9832, V-B:ALA:541:CB:9864, V-B:ASP:366:CG:8185, V-B:PRO:540:CB:9857, V-B:PRO:540:CA:9855, V-B:TYR:539:CE2:9848, V-A:LEU:475:CD2:4257, V-B:TYR:539:CD2:9846, V-A:TYR:539:CE1:4873, V-A:ASP:366:CG:3211, V-A:PRO:540:N:4882, V-A:TYR:539:CZ:4875, V-A:ASP:366:CB:3210, V-A:TYR:539:C:4865, V-A:PRO:540:CA:4881, V-A:TYR:531:CZ:4792, V-B:TYR:531:CE2:9765, V-B:LEU:363:CD1:8161, V-B:TYR:531:CZ:9766, H-B:TYR:539:N:9842, H-B:TYR:531:OH:9767, V-B:TYR:539:C:9839, V-B:ILE:538:CG2:9835, V-B:PRO:540:CD:9859, V-B:ILE:538:CB:9834, V-A:GLY:454:CA:4047, V-A:TYR:539:CE2:4874, V-B:TYR:531:CE1:9764, V-A:TYR:539:CA:4867, V-B:ASP:366:CB:8184, H-A:TYR:539:OH:4876, H-B:TYR:539:OH:9850, V-A:TYR:539:CD1:4871, V-A:ILE:369:CG2:3235, V-A:ILE:369:CD1:3237, V-A:TYR:531:CE1:4790, V-A:TYR:539:CD2:4872, V-A:TYR:539:CG:4870, V-B:TYR:539:CA:9841, V-B:ILE:369:CG2:8209, V-B:ASP:366:CA:8182"]

$$$$
RR1_Rahimova_2017
     RDKit          3D

 68 71  0  0  0  0  0  0  0  0999 V2000
  126.9460  128.7890   73.6360 C   0  0  0  0  0  0  0  0  0  0  0  0
  128.3100  128.7870   73.2310 O   0  0  0  0  0  0  0  0  0  0  0  0
  128.6520  128.2160   72.0210 C   0  0  0  0  0  0  0  0  0  0  0  0
  129.9660  127.9060   71.6360 C   0  0  0  0  0  0  0  0  0  0  0  0
  130.2170  127.3380   70.3900 C   0  0  0  0  0  0  0  0  0  0  0  0
  129.1660  127.0660   69.5130 C   0  0  0  0  0  0  0  0  0  0  0  0
  129.5250  126.5340   68.2600 N   0  0  0  0  0  0  0  0  0  0  0  0
  130.4590  126.9640   67.3850 C   0  0  0  0  0  0  0  0  0  0  0  0
  131.1340  127.9840   67.5240 O   0  0  0  0  0  0  0  0  0  0  0  0
  130.6350  126.0700   66.1470 C   0  0  0  0  0  0  0  0  0  0  0  0
  132.3650  125.7400   65.6580 S   0  0  0  0  0  0  0  0  0  0  0  0
  132.0310  124.9040   64.1440 C   0  0  0  0  0  0  0  0  0  0  0  0
  132.5960  123.7790   63.7840 N   0  0  0  0  0  0  0  0  0  0  0  0
  132.0500  123.5130   62.6020 C   0  0  0  0  0  0  0  0  0  0  0  0
  132.4010  122.2840   61.8130 C   0  0  0  0  0  0  0  0  0  0  0  0
  133.7360  121.9050   61.6000 C   0  0  0  0  0  0  0  0  0  0  0  0
  134.0320  120.7590   60.8590 C   0  0  0  0  0  0  0  0  0  0  0  0
  132.9760  120.0100   60.3440 C   0  0  0  0  0  0  0  0  0  0  0  0
  131.6750  120.3460   60.5310 N   0  0  0  0  0  0  0  0  0  0  0  0
  131.4080  121.4640   61.2540 C   0  0  0  0  0  0  0  0  0  0  0  0
  131.1730  124.4010   62.1710 N   0  0  0  0  0  0  0  0  0  0  0  0
  131.1610  125.2980   63.1610 N   0  0  0  0  0  0  0  0  0  0  0  0
  130.2810  126.4660   63.0940 C   0  0  0  0  0  0  0  0  0  0  0  0
  130.1250  127.0830   61.6940 C   0  0  0  0  0  0  0  0  0  0  0  0
  129.6110  126.4390   60.7720 O   0  0  0  0  0  0  0  0  0  0  0  0
  130.5880  128.3420   61.5730 N   0  0  0  0  0  0  0  0  0  0  0  0
  130.3490  129.0150   60.3830 N   0  0  0  0  0  0  0  0  0  0  0  0
  130.5390  130.3530   60.3660 C   0  0  0  0  0  0  0  0  0  0  0  0
  131.0090  130.9970   61.3100 O   0  0  0  0  0  0  0  0  0  0  0  0
  130.1610  131.0530   59.0770 C   0  0  0  0  0  0  0  0  0  0  0  0
  128.8140  131.2850   58.7780 C   0  0  0  0  0  0  0  0  0  0  0  0
  128.4430  131.9150   57.5940 C   0  0  0  0  0  0  0  0  0  0  0  0
  129.4130  132.3270   56.6660 C   0  0  0  0  0  0  0  0  0  0  0  0
  129.1110  132.9460   55.4660 O   0  0  0  0  0  0  0  0  0  0  0  0
  129.1260  132.1860   54.2620 C   0  0  0  0  0  0  0  0  0  0  0  0
  130.7670  132.0970   56.9440 C   0  0  0  0  0  0  0  0  0  0  0  0
  131.6820  132.5050   55.9870 O   0  0  0  0  0  0  0  0  0  0  0  0
  133.0260  132.0430   56.0580 C   0  0  0  0  0  0  0  0  0  0  0  0
  131.1280  131.4660   58.1470 C   0  0  0  0  0  0  0  0  0  0  0  0
  127.8510  127.3740   69.8950 C   0  0  0  0  0  0  0  0  0  0  0  0
  127.6040  127.9410   71.1420 C   0  0  0  0  0  0  0  0  0  0  0  0
  126.8897  128.7891   74.7346 H   0  0  0  0  0  0  0  0  0  0  0  0
  126.4482  129.6879   73.2433 H   0  0  0  0  0  0  0  0  0  0  0  0
  126.4456  127.8916   73.2433 H   0  0  0  0  0  0  0  0  0  0  0  0
  130.8008  128.1128   72.3218 H   0  0  0  0  0  0  0  0  0  0  0  0
  131.2501  127.1021   70.0949 H   0  0  0  0  0  0  0  0  0  0  0  0
  128.9750  125.7370   67.9720 H   0  0  0  0  0  0  0  0  0  0  0  0
  130.1508  125.1043   66.3541 H   0  0  0  0  0  0  0  0  0  0  0  0
  130.1828  126.6204   65.3088 H   0  0  0  0  0  0  0  0  0  0  0  0
  134.5517  122.5130   62.0183 H   0  0  0  0  0  0  0  0  0  0  0  0
  135.0748  120.4546   60.6859 H   0  0  0  0  0  0  0  0  0  0  0  0
  133.2073  119.1068   59.7603 H   0  0  0  0  0  0  0  0  0  0  0  0
  130.3554  121.7426   61.4103 H   0  0  0  0  0  0  0  0  0  0  0  0
  129.2840  126.1627   63.4462 H   0  0  0  0  0  0  0  0  0  0  0  0
  130.7489  127.2397   63.7204 H   0  0  0  0  0  0  0  0  0  0  0  0
  130.8140  128.9510   62.3470 H   0  0  0  0  0  0  0  0  0  0  0  0
  129.6000  128.5860   59.8600 H   0  0  0  0  0  0  0  0  0  0  0  0
  128.0377  130.9650   59.4886 H   0  0  0  0  0  0  0  0  0  0  0  0
  127.3781  132.0922   57.3827 H   0  0  0  0  0  0  0  0  0  0  0  0
  129.1472  131.1135   54.5056 H   0  0  0  0  0  0  0  0  0  0  0  0
  128.2232  132.4110   53.6751 H   0  0  0  0  0  0  0  0  0  0  0  0
  130.0192  132.4464   53.6751 H   0  0  0  0  0  0  0  0  0  0  0  0
  133.3234  131.9408   57.1121 H   0  0  0  0  0  0  0  0  0  0  0  0
  133.1048  131.0662   55.5584 H   0  0  0  0  0  0  0  0  0  0  0  0
  133.6888  132.7649   55.5584 H   0  0  0  0  0  0  0  0  0  0  0  0
  132.1921  131.2919   58.3646 H   0  0  0  0  0  0  0  0  0  0  0  0
  127.0161  127.1674   69.2093 H   0  0  0  0  0  0  0  0  0  0  0  0
  126.5707  128.1749   71.4378 H   0  0  0  0  0  0  0  0  0  0  0  0
  1  2  1  0
  2  3  1  0
  3  4  2  0
  4  5  1  0
  5  6  2  0
  6  7  1  0
  7  8  1  0
  8  9  2  0
  8 10  1  0
 10 11  1  0
 11 12  1  0
 12 13  2  0
 13 14  1  0
 14 15  1  0
 15 16  2  0
 16 17  1  0
 17 18  2  0
 18 19  1  0
 19 20  2  0
 14 21  2  0
 21 22  1  0
 22 23  1  0
 23 24  1  0
 24 25  2  0
 24 26  1  0
 26 27  1  0
 27 28  1  0
 28 29  2  0
 28 30  1  0
 30 31  2  0
 31 32  1  0
 32 33  2  0
 33 34  1  0
 34 35  1  0
 33 36  1  0
 36 37  1  0
 37 38  1  0
 36 39  2  0
  6 40  1  0
 40 41  2  0
 41  3  1  0
 22 12  1  0
 39 30  1  0
 20 15  1  0
  1 42  1  0
  1 43  1  0
  1 44  1  0
  4 45  1  0
  5 46  1  0
  7 47  1  0
 10 48  1  0
 10 49  1  0
 16 50  1  0
 17 51  1  0
 18 52  1  0
 20 53  1  0
 23 54  1  0
 23 55  1  0
 26 56  1  0
 27 57  1  0
 31 58  1  0
 32 59  1  0
 35 60  1  0
 35 61  1  0
 35 62  1  0
 38 63  1  0
 38 64  1  0
 38 65  1  0
 39 66  1  0
 40 67  1  0
 41 68  1  0
M  END
>  <Binding energies>  (1) 
[-11.21]

>  <Ligand effiencies>  (1) 
[-0.2547727272727273]

>  <Interactions>  (1) 
["V-A:TRP:381:CZ2:3368, V-A:TRP:381:CH2:3370, V-A:LEU:475:CD2:4257, V-B:TYR:539:CD2:9846, V-A:TYR:539:CE1:4873, V-A:PRO:540:N:4882, H-A:TYR:539:N:4868, V-A:ILE:538:CA:4858, V-A:TYR:539:CZ:4875, V-A:TYR:531:CE2:4791, V-A:TYR:539:C:4865, V-A:LEU:363:CD1:3187, V-A:ILE:538:CB:4860, V-A:PRO:540:CA:4881, V-A:ILE:538:CG2:4861, V-A:GLU:543:CD:4906, V-A:PRO:540:CB:4883, V-B:GLU:543:CD:9880, V-A:ARG:545:CZ:4924, H-A:GLU:543:OE2:4908, H-A:ALA:541:N:4889, H-A:GLU:543:OE1:4907, V-A:PRO:540:CD:4885, V-A:GLY:454:CA:4047, H-A:TYR:484:OH:4346, H-A:ARG:545:NE:4922, H-A:GLY:454:N:4048, V-A:TYR:539:CE2:4874, V-A:ILE:538:C:4856, V-A:TYR:539:CA:4867, V-A:TYR:539:CD1:4871, V-A:ILE:369:CG2:3235, V-A:ILE:369:CD1:3237, V-A:TYR:539:CD2:4872, V-A:TYR:539:CG:4870, V-B:HIS:456:CE1:9042, V-A:HIS:456:CD2:4066, V-B:GLY:544:C:9884, V-B:HIS:456:CD2:9040, V-A:LYS:547:CE:4948, H-A:LYS:547:NZ:4949, V-B:HIS:456:CG:9038, V-B:HIS:456:CB:9037, V-A:HIS:456:CE1:4068, H-A:HIS:456:NE2:4069, V-A:GLY:544:C:4910, H-B:GLU:543:O:9875, V-B:GLU:543:CG:9879, V-B:GLU:543:C:9874, V-A:ARG:545:CG:4920, V-A:GLU:543:CG:4905, V-B:GLU:543:CB:9878, V-A:GLY:544:CA:4912, V-A:SER:385:C:3403"]

$$$$
RR20_Rahimova_2017
     RDKit          3D

 68 73  0  0  0  0  0  0  0  0999 V2000
  133.9770  131.3510   58.2370 C   0  0  0  0  0  0  0  0  0  0  0  0
  132.7390  131.4710   57.3670 C   0  0  0  0  0  0  0  0  0  0  0  0
  131.4770  131.5310   57.9590 C   0  0  0  0  0  0  0  0  0  0  0  0
  130.3410  131.6510   57.1630 C   0  0  0  0  0  0  0  0  0  0  0  0
  130.4560  131.6980   55.7690 C   0  0  0  0  0  0  0  0  0  0  0  0
  129.2100  131.8480   54.9230 C   0  0  0  0  0  0  0  0  0  0  0  0
  129.1110  132.8630   54.2300 O   0  0  0  0  0  0  0  0  0  0  0  0
  128.2630  130.8660   54.9460 N   0  0  0  0  0  0  0  0  0  0  0  0
  127.0400  130.9540   54.1320 C   0  0  0  0  0  0  0  0  0  0  0  0
  126.3170  129.6280   54.3010 C   0  0  0  0  0  0  0  0  0  0  0  0
  127.3710  128.7460   54.8980 C   0  0  0  0  0  0  0  0  0  0  0  0
  127.3140  127.3840   55.1940 C   0  0  0  0  0  0  0  0  0  0  0  0
  128.3490  126.7640   55.9050 C   0  0  0  0  0  0  0  0  0  0  0  0
  128.2920  125.2950   56.2170 C   0  0  0  0  0  0  0  0  0  0  0  0
  128.8340  124.8710   57.3470 N   0  0  0  0  0  0  0  0  0  0  0  0
  128.7090  123.5800   57.5250 C   0  0  0  0  0  0  0  0  0  0  0  0
  129.1530  122.8180   58.5950 N   0  0  0  0  0  0  0  0  0  0  0  0
  129.9150  123.2380   59.6340 C   0  0  0  0  0  0  0  0  0  0  0  0
  130.3060  124.3990   59.7770 O   0  0  0  0  0  0  0  0  0  0  0  0
  130.2950  122.2050   60.7210 C   0  0  0  0  0  0  0  0  0  0  0  0
  131.1630  122.7690   61.7720 N   0  0  0  0  0  0  0  0  0  0  0  0
  132.4080  123.3320   61.2310 C   0  0  0  0  0  0  0  0  0  0  0  0
  133.3880  123.6610   62.3800 C   0  0  0  0  0  0  0  0  0  0  0  0
  132.7200  124.3950   63.5430 C   0  0  0  0  0  0  0  0  0  0  0  0
  133.4830  125.0090   64.5420 C   0  0  0  0  0  0  0  0  0  0  0  0
  132.8740  125.6440   65.6220 C   0  0  0  0  0  0  0  0  0  0  0  0
  131.4860  125.6760   65.7130 C   0  0  0  0  0  0  0  0  0  0  0  0
  130.7140  125.0770   64.7200 C   0  0  0  0  0  0  0  0  0  0  0  0
  131.3130  124.4340   63.6310 C   0  0  0  0  0  0  0  0  0  0  0  0
  130.4650  123.8280   62.5120 C   0  0  0  0  0  0  0  0  0  0  0  0
  127.8900  122.7630   56.2520 S   0  0  0  0  0  0  0  0  0  0  0  0
  127.7140  124.2870   55.4150 C   0  0  0  0  0  0  0  0  0  0  0  0
  127.0540  124.3430   54.0550 C   0  0  0  0  0  0  0  0  0  0  0  0
  129.4160  127.5550   56.3590 C   0  0  0  0  0  0  0  0  0  0  0  0
  129.4670  128.9210   56.0810 C   0  0  0  0  0  0  0  0  0  0  0  0
  128.4670  129.5110   55.2960 C   0  0  0  0  0  0  0  0  0  0  0  0
  131.7280  131.6660   55.1830 C   0  0  0  0  0  0  0  0  0  0  0  0
  132.8650  131.5470   55.9780 C   0  0  0  0  0  0  0  0  0  0  0  0
  133.6844  131.3794   59.2970 H   0  0  0  0  0  0  0  0  0  0  0  0
  134.4852  130.3994   58.0222 H   0  0  0  0  0  0  0  0  0  0  0  0
  134.6585  132.1873   58.0222 H   0  0  0  0  0  0  0  0  0  0  0  0
  131.3796  131.4835   59.0537 H   0  0  0  0  0  0  0  0  0  0  0  0
  129.3478  131.7092   57.6323 H   0  0  0  0  0  0  0  0  0  0  0  0
  126.4063  131.7808   54.4853 H   0  0  0  0  0  0  0  0  0  0  0  0
  127.2768  131.1477   53.0754 H   0  0  0  0  0  0  0  0  0  0  0  0
  125.4562  129.7301   54.9782 H   0  0  0  0  0  0  0  0  0  0  0  0
  125.9037  129.2355   53.3602 H   0  0  0  0  0  0  0  0  0  0  0  0
  126.4475  126.7912   54.8657 H   0  0  0  0  0  0  0  0  0  0  0  0
  128.8830  121.8440   58.5880 H   0  0  0  0  0  0  0  0  0  0  0  0
  129.3719  121.8338   61.1902 H   0  0  0  0  0  0  0  0  0  0  0  0
  130.8568  121.3984   60.2272 H   0  0  0  0  0  0  0  0  0  0  0  0
  132.8738  122.6004   60.5543 H   0  0  0  0  0  0  0  0  0  0  0  0
  132.1753  124.2562   60.6818 H   0  0  0  0  0  0  0  0  0  0  0  0
  133.8139  122.7198   62.7578 H   0  0  0  0  0  0  0  0  0  0  0  0
  134.1622  124.3272   61.9716 H   0  0  0  0  0  0  0  0  0  0  0  0
  134.5807  124.9901   64.4736 H   0  0  0  0  0  0  0  0  0  0  0  0
  133.4888  126.1189   66.4008 H   0  0  0  0  0  0  0  0  0  0  0  0
  131.0000  126.1724   66.5659 H   0  0  0  0  0  0  0  0  0  0  0  0
  129.6169  125.1100   64.7931 H   0  0  0  0  0  0  0  0  0  0  0  0
  129.5523  123.4029   62.9550 H   0  0  0  0  0  0  0  0  0  0  0  0
  130.2384  124.6336   61.7980 H   0  0  0  0  0  0  0  0  0  0  0  0
  125.9650  124.4354   54.1795 H   0  0  0  0  0  0  0  0  0  0  0  0
  127.4345  125.2121   53.4983 H   0  0  0  0  0  0  0  0  0  0  0  0
  127.2826  123.4222   53.4983 H   0  0  0  0  0  0  0  0  0  0  0  0
  130.2243  127.0906   56.9429 H   0  0  0  0  0  0  0  0  0  0  0  0
  130.2902  129.5338   56.4770 H   0  0  0  0  0  0  0  0  0  0  0  0
  131.8291  131.7352   54.0898 H   0  0  0  0  0  0  0  0  0  0  0  0
  133.8612  131.5129   55.5127 H   0  0  0  0  0  0  0  0  0  0  0  0
  1  2  1  0
  2  3  2  0
  3  4  1  0
  4  5  2  0
  5  6  1  0
  6  7  2  0
  6  8  1  0
  8  9  1  0
  9 10  1  0
 10 11  1  0
 11 12  2  0
 12 13  1  0
 13 14  1  0
 14 15  1  0
 15 16  2  0
 16 17  1  0
 17 18  1  0
 18 19  2  0
 18 20  1  0
 20 21  1  0
 21 22  1  0
 22 23  1  0
 23 24  1  0
 24 25  2  0
 25 26  1  0
 26 27  2  0
 27 28  1  0
 28 29  2  0
 29 30  1  0
 16 31  1  0
 31 32  1  0
 32 33  1  0
 13 34  2  0
 34 35  1  0
 35 36  2  0
  5 37  1  0
 37 38  2  0
 38  2  1  0
 36  8  1  0
 36 11  1  0
 32 14  2  0
 30 21  1  0
 29 24  1  0
  1 39  1  0
  1 40  1  0
  1 41  1  0
  3 42  1  0
  4 43  1  0
  9 44  1  0
  9 45  1  0
 10 46  1  0
 10 47  1  0
 12 48  1  0
 17 49  1  0
 20 50  1  0
 20 51  1  0
 22 52  1  0
 22 53  1  0
 23 54  1  0
 23 55  1  0
 25 56  1  0
 26 57  1  0
 27 58  1  0
 28 59  1  0
 30 60  1  0
 30 61  1  0
 33 62  1  0
 33 63  1  0
 33 64  1  0
 34 65  1  0
 35 66  1  0
 37 67  1  0
 38 68  1  0
M  END
>  <Binding energies>  (1) 
[-11.11]

>  <Ligand effiencies>  (1) 
[-0.28487179487179487]

>  <Interactions>  (1) 
["V-B:PRO:540:N:9856, V-B:TYR:539:CZ:9849, V-B:ALA:541:CB:9864, V-B:TYR:539:CE2:9848, V-B:TYR:539:CE1:9847, V-B:TYR:539:CD1:9845, V-B:TYR:539:CD2:9846, V-B:MET:535:CE:9807, V-A:TYR:539:CE1:4873, V-A:ASP:366:CG:3211, V-A:PRO:540:N:4882, H-A:TYR:539:N:4868, V-A:ILE:538:CA:4858, V-A:TYR:539:CZ:4875, V-A:TYR:531:CE2:4791, V-A:LEU:363:CA:3183, V-A:TYR:539:C:4865, V-A:LEU:363:CD1:3187, V-A:ILE:538:CB:4860, V-A:PRO:540:CA:4881, V-A:ILE:538:CG2:4861, V-A:TYR:531:CZ:4792, V-A:PRO:540:CB:4883, V-B:GLU:543:CD:9880, V-B:TYR:539:C:9839, V-B:ILE:538:CG2:9835, V-A:ARG:545:CZ:4924, V-A:LEU:363:CB:3185, V-A:PRO:540:CD:4885, V-A:GLY:454:CA:4047, V-A:ARG:545:CD:4921, V-B:TYR:539:CG:9844, V-B:TYR:531:CE1:9764, V-A:TYR:539:CD1:4871, H-A:ILE:538:N:4859, V-A:ASN:362:C:3170, V-B:TYR:539:CA:9841, V-A:HIS:456:CE1:4068, H-B:TYR:539:O:9840, V-B:MET:535:CG:9805, V-B:MET:535:CB:9804, V-A:PRO:540:CG:4884, V-A:ARG:545:CG:4920, V-A:GLY:453:CA:4042, V-B:GLU:543:CB:9878"]

$$$$
RR20_Rahimova_2017-again1
     RDKit          3D

 68 73  0  0  0  0  0  0  0  0999 V2000
  133.8980  131.3500   58.1660 C   0  0  0  0  0  0  0  0  0  0  0  0
  132.6670  131.4900   57.2870 C   0  0  0  0  0  0  0  0  0  0  0  0
  132.8000  131.4870   55.8980 C   0  0  0  0  0  0  0  0  0  0  0  0
  131.6720  131.6080   55.0910 C   0  0  0  0  0  0  0  0  0  0  0  0
  130.4030  131.7450   55.6670 C   0  0  0  0  0  0  0  0  0  0  0  0
  129.1870  131.8580   54.7740 C   0  0  0  0  0  0  0  0  0  0  0  0
  129.1190  132.8290   54.0180 O   0  0  0  0  0  0  0  0  0  0  0  0
  128.2350  130.8800   54.8180 N   0  0  0  0  0  0  0  0  0  0  0  0
  127.0170  130.9560   53.9940 C   0  0  0  0  0  0  0  0  0  0  0  0
  126.2820  129.6400   54.1920 C   0  0  0  0  0  0  0  0  0  0  0  0
  127.3270  128.7680   54.8210 C   0  0  0  0  0  0  0  0  0  0  0  0
  127.2560  127.4160   55.1580 C   0  0  0  0  0  0  0  0  0  0  0  0
  128.2830  126.8080   55.8970 C   0  0  0  0  0  0  0  0  0  0  0  0
  128.2030  125.3540   56.2650 C   0  0  0  0  0  0  0  0  0  0  0  0
  128.6200  124.9890   57.4680 N   0  0  0  0  0  0  0  0  0  0  0  0
  128.5230  123.7030   57.7010 C   0  0  0  0  0  0  0  0  0  0  0  0
  128.9000  122.9970   58.8120 N   0  0  0  0  0  0  0  0  0  0  0  0
  128.1730  122.8320   59.8660 C   0  0  0  0  0  0  0  0  0  0  0  0
  127.0000  123.1660   60.1220 O   0  0  0  0  0  0  0  0  0  0  0  0
  128.8860  122.0740   61.0050 C   0  0  0  0  0  0  0  0  0  0  0  0
  129.3300  123.0750   62.1110 N   0  0  2  0  0  0  0  0  0  0  0  0
  129.4740  124.5170   61.5820 C   0  0  0  0  0  0  0  0  0  0  0  0
  130.6240  124.5900   60.5610 C   0  0  0  0  0  0  0  0  0  0  0  0
  131.9110  123.9380   61.0570 C   0  0  0  0  0  0  0  0  0  0  0  0
  133.1330  124.2710   60.4610 C   0  0  0  0  0  0  0  0  0  0  0  0
  134.3200  123.6610   60.8550 C   0  0  0  0  0  0  0  0  0  0  0  0
  134.3010  122.7040   61.8630 C   0  0  0  0  0  0  0  0  0  0  0  0
  133.0950  122.3720   62.4750 C   0  0  0  0  0  0  0  0  0  0  0  0
  131.8920  122.9800   62.0980 C   0  0  0  0  0  0  0  0  0  0  0  0
  130.6080  122.6080   62.8490 C   0  0  0  0  0  0  0  0  0  0  0  0
  127.8990  122.8150   56.3610 S   0  0  0  0  0  0  0  0  0  0  0  0
  127.7240  124.3010   55.4600 C   0  0  0  0  0  0  0  0  0  0  0  0
  127.1210  124.2920   54.0710 C   0  0  0  0  0  0  0  0  0  0  0  0
  129.3550  127.6010   56.3260 C   0  0  0  0  0  0  0  0  0  0  0  0
  129.4200  128.9570   56.0060 C   0  0  0  0  0  0  0  0  0  0  0  0
  128.4290  129.5340   55.2020 C   0  0  0  0  0  0  0  0  0  0  0  0
  130.2750  131.7170   57.0610 C   0  0  0  0  0  0  0  0  0  0  0  0
  131.4030  131.5960   57.8680 C   0  0  0  0  0  0  0  0  0  0  0  0
  133.5989  131.3840   59.2240 H   0  0  0  0  0  0  0  0  0  0  0  0
  134.3918  130.3899   57.9553 H   0  0  0  0  0  0  0  0  0  0  0  0
  134.5948  132.1747   57.9553 H   0  0  0  0  0  0  0  0  0  0  0  0
  133.7957  131.3891   55.4408 H   0  0  0  0  0  0  0  0  0  0  0  0
  131.7781  131.5959   53.9962 H   0  0  0  0  0  0  0  0  0  0  0  0
  126.3876  131.7964   54.3220 H   0  0  0  0  0  0  0  0  0  0  0  0
  127.2621  131.1204   52.9343 H   0  0  0  0  0  0  0  0  0  0  0  0
  125.4167  129.7658   54.8594 H   0  0  0  0  0  0  0  0  0  0  0  0
  125.8721  129.2252   53.2593 H   0  0  0  0  0  0  0  0  0  0  0  0
  126.3868  126.8207   54.8415 H   0  0  0  0  0  0  0  0  0  0  0  0
  128.1968  121.3342   61.4381 H   0  0  0  0  0  0  0  0  0  0  0  0
  129.7730  121.5641   60.6009 H   0  0  0  0  0  0  0  0  0  0  0  0
  128.5790  123.0920   62.7880 H   0  0  0  0  0  0  0  0  0  0  0  0
  128.5355  124.8224   61.0963 H   0  0  0  0  0  0  0  0  0  0  0  0
  129.6944  125.1904   62.4234 H   0  0  0  0  0  0  0  0  0  0  0  0
  130.3063  124.0799   59.6397 H   0  0  0  0  0  0  0  0  0  0  0  0
  130.8420  125.6545   60.3900 H   0  0  0  0  0  0  0  0  0  0  0  0
  133.1554  125.0301   59.6652 H   0  0  0  0  0  0  0  0  0  0  0  0
  135.2691  123.9349   60.3710 H   0  0  0  0  0  0  0  0  0  0  0  0
  135.2336  122.2116   62.1756 H   0  0  0  0  0  0  0  0  0  0  0  0
  133.0876  121.6147   63.2728 H   0  0  0  0  0  0  0  0  0  0  0  0
  130.5700  121.5144   62.9616 H   0  0  0  0  0  0  0  0  0  0  0  0
  130.6337  123.1158   63.8245 H   0  0  0  0  0  0  0  0  0  0  0  0
  126.0238  124.2756   54.1477 H   0  0  0  0  0  0  0  0  0  0  0  0
  127.4372  125.1950   53.5282 H   0  0  0  0  0  0  0  0  0  0  0  0
  127.4640  123.3989   53.5282 H   0  0  0  0  0  0  0  0  0  0  0  0
  130.1584  127.1471   56.9248 H   0  0  0  0  0  0  0  0  0  0  0  0
  130.2490  129.5728   56.3848 H   0  0  0  0  0  0  0  0  0  0  0  0
  129.2784  131.7910   57.5208 H   0  0  0  0  0  0  0  0  0  0  0  0
  131.2977  131.5840   58.9629 H   0  0  0  0  0  0  0  0  0  0  0  0
  1  2  1  0
  2  3  2  0
  3  4  1  0
  4  5  2  0
  5  6  1  0
  6  7  2  0
  6  8  1  0
  8  9  1  0
  9 10  1  0
 10 11  1  0
 11 12  2  0
 12 13  1  0
 13 14  1  0
 14 15  1  0
 15 16  2  0
 16 17  1  0
 17 18  2  0
 18 19  1  0
 18 20  1  0
 20 21  1  0
 21 22  1  0
 22 23  1  0
 23 24  1  0
 24 25  2  0
 25 26  1  0
 26 27  2  0
 27 28  1  0
 28 29  2  0
 29 30  1  0
 16 31  1  0
 31 32  1  0
 32 33  1  0
 13 34  2  0
 34 35  1  0
 35 36  2  0
  5 37  1  0
 37 38  2  0
 38  2  1  0
 36  8  1  0
 36 11  1  0
 32 14  2  0
 30 21  1  0
 29 24  1  0
  1 39  1  0
  1 40  1  0
  1 41  1  0
  3 42  1  0
  4 43  1  0
  9 44  1  0
  9 45  1  0
 10 46  1  0
 10 47  1  0
 12 48  1  0
 20 49  1  0
 20 50  1  0
 21 51  1  1
 22 52  1  0
 22 53  1  0
 23 54  1  0
 23 55  1  0
 25 56  1  0
 26 57  1  0
 27 58  1  0
 28 59  1  0
 30 60  1  0
 30 61  1  0
 33 62  1  0
 33 63  1  0
 33 64  1  0
 34 65  1  0
 35 66  1  0
 37 67  1  0
 38 68  1  0
M  CHG  2  19  -1  21   1
M  END
>  <Binding energies>  (1) 
[-10.77]

>  <Ligand effiencies>  (1) 
[-0.27615384615384614]

>  <Interactions>  (1) 
["V-B:PRO:540:N:9856, H-B:GLU:543:OE1:9881, V-B:TYR:539:CZ:9849, V-B:ALA:541:CB:9864, V-B:PRO:540:CA:9855, V-B:PRO:540:C:9853, V-B:ALA:541:CA:9862, H-B:ALA:541:N:9863, V-B:TYR:539:CE2:9848, V-A:LEU:475:CD2:4257, V-B:TYR:539:CE1:9847, V-B:TYR:539:CD1:9845, V-B:TYR:539:CD2:9846, V-B:MET:535:CE:9807, V-A:TYR:539:CE1:4873, V-A:ASP:366:CG:3211, V-A:PRO:540:N:4882, H-A:TYR:539:N:4868, V-A:ILE:538:CA:4858, V-A:TYR:539:CZ:4875, V-A:TYR:531:CE2:4791, V-A:LEU:363:CA:3183, V-A:TYR:539:C:4865, V-A:LEU:363:CD1:3187, V-A:ILE:538:CB:4860, V-A:PRO:540:CA:4881, V-A:ILE:538:CG2:4861, V-A:TYR:531:CZ:4792, V-A:PRO:540:CB:4883, V-B:TYR:531:CZ:9766, V-B:GLU:543:CD:9880, V-B:TYR:539:C:9839, V-A:LEU:363:CB:3185, V-A:PRO:540:CD:4885, V-A:GLY:454:CA:4047, V-B:TYR:539:CG:9844, V-B:TYR:531:CE1:9764, V-A:TYR:539:CD1:4871, H-A:ILE:538:N:4859, V-A:ILE:369:CD1:3237, V-A:ASN:362:C:3170, V-B:TYR:539:CA:9841, V-B:MET:535:CG:9805, V-B:MET:535:CB:9804, V-A:PRO:540:CG:4884, V-A:GLY:453:C:4040"]

$$$$
RR21_Rahimova_2017
     RDKit          3D

 62 67  0  0  0  0  0  0  0  0999 V2000
  125.3300  124.2490   54.0300 C   0  0  0  0  0  0  0  0  0  0  0  0
  125.3510  123.1780   54.9690 O   0  0  0  0  0  0  0  0  0  0  0  0
  126.2310  123.2300   56.0330 C   0  0  0  0  0  0  0  0  0  0  0  0
  125.8390  123.3270   57.3790 C   0  0  0  0  0  0  0  0  0  0  0  0
  126.7930  123.3700   58.3950 C   0  0  0  0  0  0  0  0  0  0  0  0
  128.1590  123.3140   58.0950 C   0  0  0  0  0  0  0  0  0  0  0  0
  129.1820  123.3560   59.1890 C   0  0  0  0  0  0  0  0  0  0  0  0
  130.1560  122.4680   59.2100 N   0  0  0  0  0  0  0  0  0  0  0  0
  130.9080  122.7460   60.2850 N   0  0  0  0  0  0  0  0  0  0  0  0
  132.0660  121.9870   60.5970 C   0  0  0  0  0  0  0  0  0  0  0  0
  132.2710  120.7230   60.0220 C   0  0  0  0  0  0  0  0  0  0  0  0
  133.4130  119.9890   60.3320 C   0  0  0  0  0  0  0  0  0  0  0  0
  134.3530  120.5140   61.2160 C   0  0  0  0  0  0  0  0  0  0  0  0
  134.1600  121.7660   61.7950 C   0  0  0  0  0  0  0  0  0  0  0  0
  133.0180  122.5020   61.4870 C   0  0  0  0  0  0  0  0  0  0  0  0
  130.4070  123.8400   60.9440 C   0  0  0  0  0  0  0  0  0  0  0  0
  129.2700  124.2620   60.2710 C   0  0  0  0  0  0  0  0  0  0  0  0
  128.4240  125.4080   60.5650 C   0  0  0  0  0  0  0  0  0  0  0  0
  127.8760  126.2900   59.6980 C   0  0  0  0  0  0  0  0  0  0  0  0
  128.0330  126.3210   57.9270 S   0  0  0  0  0  0  0  0  0  0  0  0
  126.9840  127.7300   57.8730 C   0  0  0  0  0  0  0  0  0  0  0  0
  126.5790  128.3810   56.8260 N   0  0  0  0  0  0  0  0  0  0  0  0
  125.7150  129.5060   56.9200 C   0  0  0  0  0  0  0  0  0  0  0  0
  125.2710  130.1620   55.9780 O   0  0  0  0  0  0  0  0  0  0  0  0
  125.3410  129.8690   58.3320 C   0  0  0  0  0  0  0  0  0  0  0  0
  124.4270  131.0800   58.5590 C   0  0  0  0  0  0  0  0  0  0  0  0
  124.4740  131.6460   59.9770 C   0  0  0  0  0  0  0  0  0  0  0  0
  123.5820  131.1790   60.9460 C   0  0  0  0  0  0  0  0  0  0  0  0
  123.6360  131.6840   62.2430 C   0  0  0  0  0  0  0  0  0  0  0  0
  124.5840  132.6530   62.5750 C   0  0  0  0  0  0  0  0  0  0  0  0
  124.6470  133.1910   63.9930 C   0  0  0  0  0  0  0  0  0  0  0  0
  125.4840  133.1120   61.6110 C   0  0  0  0  0  0  0  0  0  0  0  0
  125.4300  132.6090   60.3140 C   0  0  0  0  0  0  0  0  0  0  0  0
  125.7570  129.2140   59.3660 N   0  0  0  0  0  0  0  0  0  0  0  0
  126.5950  128.1170   59.1280 N   0  0  0  0  0  0  0  0  0  0  0  0
  127.0440  127.3860   60.1770 C   0  0  0  0  0  0  0  0  0  0  0  0
  126.7780  127.6160   61.3630 O   0  0  0  0  0  0  0  0  0  0  0  0
  128.5500  123.2240   56.7550 C   0  0  0  0  0  0  0  0  0  0  0  0
  127.5980  123.1810   55.7370 C   0  0  0  0  0  0  0  0  0  0  0  0
  128.0090  123.0930   54.4510 F   0  0  0  0  0  0  0  0  0  0  0  0
  125.3112  125.2082   54.5682 H   0  0  0  0  0  0  0  0  0  0  0  0
  126.2293  124.2005   53.3984 H   0  0  0  0  0  0  0  0  0  0  0  0
  124.4333  124.1653   53.3984 H   0  0  0  0  0  0  0  0  0  0  0  0
  124.7697  123.3694   57.6334 H   0  0  0  0  0  0  0  0  0  0  0  0
  126.4687  123.4487   59.4432 H   0  0  0  0  0  0  0  0  0  0  0  0
  131.5271  120.3110   59.3243 H   0  0  0  0  0  0  0  0  0  0  0  0
  133.5723  118.9986   59.8807 H   0  0  0  0  0  0  0  0  0  0  0  0
  135.2559  119.9345   61.4590 H   0  0  0  0  0  0  0  0  0  0  0  0
  134.9068  122.1722   62.4931 H   0  0  0  0  0  0  0  0  0  0  0  0
  132.8631  123.4906   61.9439 H   0  0  0  0  0  0  0  0  0  0  0  0
  130.8323  124.3014   61.8474 H   0  0  0  0  0  0  0  0  0  0  0  0
  128.2013  125.5794   61.6285 H   0  0  0  0  0  0  0  0  0  0  0  0
  124.7283  131.8747   57.8607 H   0  0  0  0  0  0  0  0  0  0  0  0
  123.3967  130.7326   58.3925 H   0  0  0  0  0  0  0  0  0  0  0  0
  122.8374  130.4127   60.6846 H   0  0  0  0  0  0  0  0  0  0  0  0
  122.9318  131.3193   63.0053 H   0  0  0  0  0  0  0  0  0  0  0  0
  124.5495  132.3587   64.7056 H   0  0  0  0  0  0  0  0  0  0  0  0
  125.6106  133.6976   64.1505 H   0  0  0  0  0  0  0  0  0  0  0  0
  123.8265  133.9065   64.1505 H   0  0  0  0  0  0  0  0  0  0  0  0
  126.2352  133.8705   61.8763 H   0  0  0  0  0  0  0  0  0  0  0  0
  126.1394  132.9692   59.5544 H   0  0  0  0  0  0  0  0  0  0  0  0
  129.6198  123.1868   56.5016 H   0  0  0  0  0  0  0  0  0  0  0  0
  1  2  1  0
  2  3  1  0
  3  4  2  0
  4  5  1  0
  5  6  2  0
  6  7  1  0
  7  8  2  0
  8  9  1  0
  9 10  1  0
 10 11  2  0
 11 12  1  0
 12 13  2  0
 13 14  1  0
 14 15  2  0
  9 16  1  0
 16 17  2  0
 17 18  1  0
 18 19  2  0
 19 20  1  0
 20 21  1  0
 21 22  2  0
 22 23  1  0
 23 24  2  0
 23 25  1  0
 25 26  1  0
 26 27  1  0
 27 28  2  0
 28 29  1  0
 29 30  2  0
 30 31  1  0
 30 32  1  0
 32 33  2  0
 25 34  2  0
 34 35  1  0
 35 36  1  0
 36 37  2  0
  6 38  1  0
 38 39  2  0
 39 40  1  0
 39  3  1  0
 17  7  1  0
 36 19  1  0
 15 10  1  0
 35 21  1  0
 33 27  1  0
  1 41  1  0
  1 42  1  0
  1 43  1  0
  4 44  1  0
  5 45  1  0
 11 46  1  0
 12 47  1  0
 13 48  1  0
 14 49  1  0
 15 50  1  0
 16 51  1  0
 18 52  1  0
 26 53  1  0
 26 54  1  0
 28 55  1  0
 29 56  1  0
 31 57  1  0
 31 58  1  0
 31 59  1  0
 32 60  1  0
 33 61  1  0
 38 62  1  0
M  END
>  <Binding energies>  (1) 
[-7.25]

>  <Ligand effiencies>  (1) 
[-0.18125]

>  <Interactions>  (1) 
["V-B:PRO:540:N:9856, V-A:TRP:381:CZ2:3368, V-B:TYR:539:CZ:9849, V-A:TRP:381:CH2:3370, V-B:ILE:538:CA:9832, V-B:ASP:366:CG:8185, V-B:PRO:540:CB:9857, H-B:ARG:545:NH2:9900, V-B:PRO:540:CA:9855, V-B:TYR:539:CE2:9848, V-A:LEU:475:CD2:4257, V-B:TYR:539:CE1:9847, V-B:TYR:539:CD1:9845, V-B:TYR:539:CD2:9846, V-A:TYR:539:CZ:4875, V-B:TYR:531:CE2:9765, V-B:TYR:531:CZ:9766, H-B:TYR:539:N:9842, H-B:TYR:531:OH:9767, V-B:TYR:539:C:9839, V-B:ILE:538:CG2:9835, V-B:PRO:540:CD:9859, V-B:ILE:538:CB:9834, V-A:GLY:454:CA:4047, V-A:TYR:539:CE2:4874, V-B:TYR:539:CG:9844, V-B:ASP:366:CB:8184, H-A:TYR:539:OH:4876, V-A:ILE:369:CG2:3235, V-A:ILE:369:CD1:3237, V-A:TYR:539:CD2:4872, V-B:GLY:454:CA:9021, V-B:ILE:538:C:9830, V-B:MET:535:CG:9805, V-B:MET:535:CB:9804, V-B:ILE:369:CD1:8211, V-B:TYR:484:CZ:9319, V-B:LEU:475:CD2:9231, V-B:GLY:453:C:9014, V-A:SER:385:C:3403, V-A:SER:385:CA:3405, V-B:LEU:475:CG:9229"]

$$$$
RR22_Rahimova_2017
     RDKit          3D

 49 54  0  0  0  0  0  0  0  0999 V2000
  125.3910  130.1690   53.6260 O   0  0  0  0  0  0  0  0  0  0  0  0
  126.0110  130.2040   54.6860 C   0  0  0  0  0  0  0  0  0  0  0  0
  125.4960  130.1280   55.9690 N   0  0  0  0  0  0  0  0  0  0  0  0
  126.3670  130.1220   57.1040 C   0  0  1  0  0  0  0  0  0  0  0  0
  125.9220  131.2090   57.9220 O   0  0  0  0  0  0  0  0  0  0  0  0
  125.4960  130.9290   59.2210 C   0  0  0  0  0  0  0  0  0  0  0  0
  124.7370  131.9150   59.8530 C   0  0  0  0  0  0  0  0  0  0  0  0
  124.3090  131.7240   61.1660 C   0  0  0  0  0  0  0  0  0  0  0  0
  124.6450  130.5550   61.8480 C   0  0  0  0  0  0  0  0  0  0  0  0
  125.4040  129.5680   61.2160 C   0  0  0  0  0  0  0  0  0  0  0  0
  125.8200  129.7340   59.8920 C   0  0  0  0  0  0  0  0  0  0  0  0
  126.6800  128.7480   59.1340 C   0  0  1  0  0  0  0  0  0  0  0  0
  126.6100  127.2530   59.3750 C   0  0  0  0  0  0  0  0  0  0  0  0
  126.9820  126.7450   57.9800 C   0  0  0  0  0  0  0  0  0  0  0  0
  127.4430  125.3650   57.7300 C   0  0  0  0  0  0  0  0  0  0  0  0
  128.6000  124.8750   58.3530 C   0  0  0  0  0  0  0  0  0  0  0  0
  129.0290  123.5720   58.1150 C   0  0  0  0  0  0  0  0  0  0  0  0
  128.3070  122.7520   57.2530 C   0  0  0  0  0  0  0  0  0  0  0  0
  127.1560  123.2230   56.6270 C   0  0  0  0  0  0  0  0  0  0  0  0
  126.7240  124.5250   56.8650 C   0  0  0  0  0  0  0  0  0  0  0  0
  126.8140  127.6560   57.0960 N   0  0  0  0  0  0  0  0  0  0  0  0
  126.3250  128.8010   57.7480 N   0  0  0  0  0  0  0  0  0  0  0  0
  127.7520  130.4870   56.5920 C   0  0  0  0  0  0  0  0  0  0  0  0
  128.7500  130.9100   57.4030 C   0  0  0  0  0  0  0  0  0  0  0  0
  130.1350  131.2740   57.0440 C   0  0  0  0  0  0  0  0  0  0  0  0
  131.2560  130.8200   57.7530 C   0  0  0  0  0  0  0  0  0  0  0  0
  132.5360  131.2060   57.3560 C   0  0  0  0  0  0  0  0  0  0  0  0
  132.6640  132.0500   56.2530 C   0  0  0  0  0  0  0  0  0  0  0  0
  131.5980  132.5120   55.5530 N   0  0  0  0  0  0  0  0  0  0  0  0
  130.3600  132.1240   55.9550 C   0  0  0  0  0  0  0  0  0  0  0  0
  127.8160  130.3740   54.8270 S   0  0  0  0  0  0  0  0  0  0  0  0
  124.4990  130.1190   56.1260 H   0  0  0  0  0  0  0  0  0  0  0  0
  124.4773  132.8398   59.3169 H   0  0  0  0  0  0  0  0  0  0  0  0
  123.7054  132.4966   61.6647 H   0  0  0  0  0  0  0  0  0  0  0  0
  124.3114  130.4101   62.8861 H   0  0  0  0  0  0  0  0  0  0  0  0
  125.6763  128.6538   61.7637 H   0  0  0  0  0  0  0  0  0  0  0  0
  127.6655  129.0873   59.4855 H   0  0  0  0  0  0  0  0  0  0  0  0
  127.3349  126.9271   60.1355 H   0  0  0  0  0  0  0  0  0  0  0  0
  125.6461  126.8891   59.7603 H   0  0  0  0  0  0  0  0  0  0  0  0
  129.1715  125.5235   59.0333 H   0  0  0  0  0  0  0  0  0  0  0  0
  129.9363  123.1917   58.6071 H   0  0  0  0  0  0  0  0  0  0  0  0
  128.6484  121.7234   57.0647 H   0  0  0  0  0  0  0  0  0  0  0  0
  126.5902  122.5691   55.9471 H   0  0  0  0  0  0  0  0  0  0  0  0
  125.8139  124.8977   56.3723 H   0  0  0  0  0  0  0  0  0  0  0  0
  128.4955  130.9935   58.4699 H   0  0  0  0  0  0  0  0  0  0  0  0
  131.1259  130.1591   58.6227 H   0  0  0  0  0  0  0  0  0  0  0  0
  133.4243  130.8529   57.9003 H   0  0  0  0  0  0  0  0  0  0  0  0
  133.6729  132.3541   55.9372 H   0  0  0  0  0  0  0  0  0  0  0  0
  129.4893  132.4970   55.3959 H   0  0  0  0  0  0  0  0  0  0  0  0
  1  2  2  0
  2  3  1  0
  3  4  1  0
  4  5  1  1
  5  6  1  0
  6  7  2  0
  7  8  1  0
  8  9  2  0
  9 10  1  0
 10 11  2  0
 11 12  1  0
 12 13  1  0
 13 14  1  0
 14 15  1  0
 15 16  2  0
 16 17  1  0
 17 18  2  0
 18 19  1  0
 19 20  2  0
 14 21  2  0
 21 22  1  0
  4 23  1  0
 23 24  2  0
 24 25  1  0
 25 26  2  0
 26 27  1  0
 27 28  2  0
 28 29  1  0
 29 30  2  0
 23 31  1  0
 31  2  1  0
 22  4  1  0
 30 25  1  0
 11  6  1  0
 22 12  1  0
 20 15  1  0
  3 32  1  0
  7 33  1  0
  8 34  1  0
  9 35  1  0
 10 36  1  0
 12 37  1  6
 13 38  1  0
 13 39  1  0
 16 40  1  0
 17 41  1  0
 18 42  1  0
 19 43  1  0
 20 44  1  0
 24 45  1  0
 26 46  1  0
 27 47  1  0
 28 48  1  0
 30 49  1  0
M  END
>  <Binding energies>  (1) 
[-8.99]

>  <Ligand effiencies>  (1) 
[-0.2809375]

>  <Interactions>  (1) 
["V-B:PRO:540:N:9856, V-B:TYR:539:CZ:9849, V-B:ASP:366:CG:8185, V-B:TYR:539:CE2:9848, V-B:TYR:539:CE1:9847, V-B:TYR:539:CD1:9845, V-B:TYR:539:CD2:9846, V-A:TYR:539:CE1:4873, V-A:PRO:540:N:4882, H-A:TYR:539:N:4868, V-A:ILE:538:CA:4858, V-A:TYR:539:CZ:4875, V-A:TYR:531:CE2:4791, V-A:TYR:539:C:4865, V-A:ILE:538:CB:4860, V-A:PRO:540:CA:4881, V-A:PRO:540:CB:4883, H-B:TYR:531:OH:9767, V-B:TYR:539:C:9839, V-A:PRO:540:CD:4885, V-A:TYR:539:CE2:4874, V-B:TYR:539:CG:9844, V-B:TYR:531:CE1:9764, H-A:TYR:539:OH:4876, V-B:TYR:539:CA:9841, V-B:ILE:369:CD1:8211, H-B:ASN:370:ND2:8220, H-B:ASP:366:O:8181"]

$$$$
RR23_Rahimova_2017
     RDKit          3D

 65 70  0  0  0  0  0  0  0  0999 V2000
  131.6800  130.9710   61.8080 C   0  0  0  0  0  0  0  0  0  0  0  0
  131.3920  131.2510   60.3450 C   0  0  0  0  0  0  0  0  0  0  0  0
  132.3760  131.0190   59.3830 C   0  0  0  0  0  0  0  0  0  0  0  0
  132.1080  131.2670   58.0390 C   0  0  0  0  0  0  0  0  0  0  0  0
  130.8580  131.7610   57.6480 C   0  0  0  0  0  0  0  0  0  0  0  0
  130.5800  132.0040   56.1810 C   0  0  0  0  0  0  0  0  0  0  0  0
  131.3400  132.7630   55.5740 O   0  0  0  0  0  0  0  0  0  0  0  0
  129.5240  131.3740   55.5860 N   0  0  0  0  0  0  0  0  0  0  0  0
  128.9480  131.8640   54.3230 C   0  0  0  0  0  0  0  0  0  0  0  0
  127.9080  130.8390   53.9010 C   0  0  0  0  0  0  0  0  0  0  0  0
  128.2380  129.6560   54.7610 C   0  0  0  0  0  0  0  0  0  0  0  0
  127.6730  128.3810   54.7550 C   0  0  0  0  0  0  0  0  0  0  0  0
  128.0080  127.4520   55.7520 C   0  0  0  0  0  0  0  0  0  0  0  0
  127.4090  126.0370   55.7820 C   0  0  2  0  0  0  0  0  0  0  0  0
  127.4560  125.4530   57.1050 N   0  0  0  0  0  0  0  0  0  0  0  0
  127.6010  124.1900   57.0610 C   0  0  0  0  0  0  0  0  0  0  0  0
  127.7110  123.3210   58.1020 N   0  0  0  0  0  0  0  0  0  0  0  0
  127.8320  123.6000   59.4220 C   0  0  0  0  0  0  0  0  0  0  0  0
  127.8230  124.7280   59.9200 O   0  0  0  0  0  0  0  0  0  0  0  0
  127.9980  122.3810   60.3440 C   0  0  0  0  0  0  0  0  0  0  0  0
  129.4400  122.1490   60.5850 N   0  0  0  0  0  0  0  0  0  0  0  0
  129.9340  120.9350   60.1270 N   0  0  0  0  0  0  0  0  0  0  0  0
  131.1780  120.6100   60.2770 N   0  0  0  0  0  0  0  0  0  0  0  0
  132.0550  121.4940   60.9110 C   0  0  0  0  0  0  0  0  0  0  0  0
  133.3900  121.1130   61.0590 C   0  0  0  0  0  0  0  0  0  0  0  0
  134.2900  121.9740   61.6890 C   0  0  0  0  0  0  0  0  0  0  0  0
  133.8580  123.2120   62.1710 C   0  0  0  0  0  0  0  0  0  0  0  0
  132.5230  123.5940   62.0250 C   0  0  0  0  0  0  0  0  0  0  0  0
  131.6210  122.7310   61.3910 C   0  0  0  0  0  0  0  0  0  0  0  0
  130.1720  123.1250   61.2270 C   0  0  0  0  0  0  0  0  0  0  0  0
  129.7000  124.1910   61.6310 O   0  0  0  0  0  0  0  0  0  0  0  0
  127.6900  123.4410   55.4410 S   0  0  0  0  0  0  0  0  0  0  0  0
  128.0110  125.0690   54.7380 C   0  0  2  0  0  0  0  0  0  0  0  0
  129.5230  125.2050   54.4570 C   0  0  0  0  0  0  0  0  0  0  0  0
  128.8790  127.8440   56.7750 C   0  0  0  0  0  0  0  0  0  0  0  0
  129.4280  129.1270   56.7930 C   0  0  0  0  0  0  0  0  0  0  0  0
  129.1520  130.0210   55.7510 C   0  0  0  0  0  0  0  0  0  0  0  0
  129.8660  131.9650   58.6160 C   0  0  0  0  0  0  0  0  0  0  0  0
  130.1340  131.7160   59.9590 C   0  0  0  0  0  0  0  0  0  0  0  0
  131.0325  131.6005   62.4362 H   0  0  0  0  0  0  0  0  0  0  0  0
  131.4821  129.9108   62.0243 H   0  0  0  0  0  0  0  0  0  0  0  0
  132.7342  131.1987   62.0243 H   0  0  0  0  0  0  0  0  0  0  0  0
  133.3632  130.6403   59.6862 H   0  0  0  0  0  0  0  0  0  0  0  0
  132.8819  131.0739   57.2815 H   0  0  0  0  0  0  0  0  0  0  0  0
  128.4752  132.8454   54.4757 H   0  0  0  0  0  0  0  0  0  0  0  0
  129.7229  131.9873   53.5520 H   0  0  0  0  0  0  0  0  0  0  0  0
  126.8894  131.2026   54.1016 H   0  0  0  0  0  0  0  0  0  0  0  0
  127.9306  130.6141   52.8245 H   0  0  0  0  0  0  0  0  0  0  0  0
  126.9609  128.1020   53.9644 H   0  0  0  0  0  0  0  0  0  0  0  0
  126.3560  126.1786   55.4973 H   0  0  0  0  0  0  0  0  0  0  0  0
  127.7530  122.3430   57.8580 H   0  0  0  0  0  0  0  0  0  0  0  0
  127.4905  122.5713   61.3012 H   0  0  0  0  0  0  0  0  0  0  0  0
  127.5541  121.4937   59.8689 H   0  0  0  0  0  0  0  0  0  0  0  0
  133.7312  120.1381   60.6806 H   0  0  0  0  0  0  0  0  0  0  0  0
  135.3426  121.6768   61.8063 H   0  0  0  0  0  0  0  0  0  0  0  0
  134.5711  123.8872   62.6666 H   0  0  0  0  0  0  0  0  0  0  0  0
  132.1817  124.5678   62.4061 H   0  0  0  0  0  0  0  0  0  0  0  0
  127.5548  125.2785   53.7592 H   0  0  0  0  0  0  0  0  0  0  0  0
  130.0701  125.2542   55.4100 H   0  0  0  0  0  0  0  0  0  0  0  0
  129.8686  124.3343   53.8804 H   0  0  0  0  0  0  0  0  0  0  0  0
  129.7076  126.1234   53.8804 H   0  0  0  0  0  0  0  0  0  0  0  0
  129.1339  127.1325   57.5743 H   0  0  0  0  0  0  0  0  0  0  0  0
  130.0773  129.4359   57.6254 H   0  0  0  0  0  0  0  0  0  0  0  0
  128.8710  132.3235   58.3134 H   0  0  0  0  0  0  0  0  0  0  0  0
  129.3543  131.8857   60.7161 H   0  0  0  0  0  0  0  0  0  0  0  0
  1  2  1  0
  2  3  2  0
  3  4  1  0
  4  5  2  0
  5  6  1  0
  6  7  2  0
  6  8  1  0
  8  9  1  0
  9 10  1  0
 10 11  1  0
 11 12  2  0
 12 13  1  0
 13 14  1  0
 14 15  1  0
 15 16  2  0
 16 17  1  0
 17 18  1  0
 18 19  2  0
 18 20  1  0
 20 21  1  0
 21 22  1  0
 22 23  2  0
 23 24  1  0
 24 25  2  0
 25 26  1  0
 26 27  2  0
 27 28  1  0
 28 29  2  0
 29 30  1  0
 30 31  2  0
 16 32  1  0
 32 33  1  0
 33 34  1  0
 13 35  2  0
 35 36  1  0
 36 37  2  0
  5 38  1  0
 38 39  2  0
 39  2  1  0
 37  8  1  0
 37 11  1  0
 33 14  1  0
 30 21  1  0
 29 24  1  0
  1 40  1  0
  1 41  1  0
  1 42  1  0
  3 43  1  0
  4 44  1  0
  9 45  1  0
  9 46  1  0
 10 47  1  0
 10 48  1  0
 12 49  1  0
 14 50  1  6
 17 51  1  0
 20 52  1  0
 20 53  1  0
 25 54  1  0
 26 55  1  0
 27 56  1  0
 28 57  1  0
 33 58  1  6
 34 59  1  0
 34 60  1  0
 34 61  1  0
 35 62  1  0
 36 63  1  0
 38 64  1  0
 39 65  1  0
M  END
>  <Binding energies>  (1) 
[-11.08]

>  <Ligand effiencies>  (1) 
[-0.277]

>  <Interactions>  (1) 
["V-B:PRO:540:N:9856, V-B:ALA:541:CB:9864, V-B:PRO:540:CA:9855, V-B:PRO:540:C:9853, V-B:ALA:541:CA:9862, V-A:LEU:475:CD2:4257, V-A:TYR:539:CE1:4873, V-A:PRO:540:N:4882, H-A:TYR:539:N:4868, V-A:ILE:538:CA:4858, V-A:TYR:539:C:4865, V-A:PRO:540:CA:4881, V-A:GLU:543:CD:4906, V-A:PRO:540:CB:4883, H-B:TYR:539:N:9842, H-B:TYR:531:OH:9767, V-B:TYR:539:C:9839, V-A:GLY:454:CA:4047, V-A:TYR:539:CD1:4871, V-A:ILE:369:CG2:3235, V-A:ILE:369:CD1:3237, V-A:PRO:540:C:4879, H-B:TYR:539:O:9840, V-A:GLY:453:C:4040"]

$$$$
RR24_Rahimova_2017
     RDKit          3D

 65 71  0  0  0  0  0  0  0  0999 V2000
  129.1180  132.2530   55.0810 C   0  0  0  0  0  0  0  0  0  0  0  0
  129.9690  130.9940   55.2980 C   0  0  2  0  0  0  0  0  0  0  0  0
  129.1660  129.6720   55.1180 C   0  0  0  0  0  0  0  0  0  0  0  0
  127.9310  129.6490   55.1120 O   0  0  0  0  0  0  0  0  0  0  0  0
  129.9780  128.5800   55.0010 O   0  0  0  0  0  0  0  0  0  0  0  0
  129.7730  127.4900   55.8170 C   0  0  0  0  0  0  0  0  0  0  0  0
  129.2400  126.3190   55.2740 C   0  0  0  0  0  0  0  0  0  0  0  0
  129.0380  125.2080   56.0880 C   0  0  0  0  0  0  0  0  0  0  0  0
  129.3750  125.2590   57.4430 C   0  0  0  0  0  0  0  0  0  0  0  0
  129.1330  124.0380   58.3380 C   0  0  1  0  0  0  0  0  0  0  0  0
  130.2610  123.8510   59.3790 C   0  0  0  0  0  0  0  0  0  0  0  0
  130.0200  123.6920   60.6930 C   0  0  0  0  0  0  0  0  0  0  0  0
  128.7470  123.6850   61.2090 N   0  0  0  0  0  0  0  0  0  0  0  0
  127.6470  123.8440   60.3990 C   0  0  0  0  0  0  0  0  0  0  0  0
  126.4630  123.8040   61.0620 N   0  0  0  0  0  0  0  0  0  0  0  0
  125.2730  124.0210   60.4400 C   0  0  0  0  0  0  0  0  0  0  0  0
  124.2790  124.2900   61.1170 O   0  0  0  0  0  0  0  0  0  0  0  0
  125.3600  124.0760   59.0570 N   0  0  0  0  0  0  0  0  0  0  0  0
  124.0830  124.2190   58.3270 C   0  0  0  0  0  0  0  0  0  0  0  0
  126.5070  124.1250   58.2840 C   0  0  0  0  0  0  0  0  0  0  0  0
  126.5100  124.2270   57.0540 O   0  0  0  0  0  0  0  0  0  0  0  0
  127.7500  124.0210   59.0560 C   0  0  0  0  0  0  0  0  0  0  0  0
  131.2620  123.5390   61.4320 C   0  0  0  0  0  0  0  0  0  0  0  0
  131.5480  123.3550   62.7860 C   0  0  0  0  0  0  0  0  0  0  0  0
  132.8800  123.2410   63.1920 C   0  0  0  0  0  0  0  0  0  0  0  0
  133.9110  123.3090   62.2510 C   0  0  0  0  0  0  0  0  0  0  0  0
  133.6190  123.4930   60.8970 C   0  0  0  0  0  0  0  0  0  0  0  0
  132.2860  123.6080   60.4970 C   0  0  0  0  0  0  0  0  0  0  0  0
  131.7010  123.8020   59.1530 C   0  0  0  0  0  0  0  0  0  0  0  0
  132.2570  123.9060   58.0610 O   0  0  0  0  0  0  0  0  0  0  0  0
  129.9270  126.4280   57.9790 C   0  0  0  0  0  0  0  0  0  0  0  0
  130.1310  127.5380   57.1660 C   0  0  0  0  0  0  0  0  0  0  0  0
  130.7120  131.0360   56.5920 N   0  0  0  0  0  0  0  0  0  0  0  0
  132.0590  131.2350   56.6350 C   0  0  0  0  0  0  0  0  0  0  0  0
  132.8230  131.3910   55.6800 O   0  0  0  0  0  0  0  0  0  0  0  0
  132.4150  131.2230   58.0760 C   0  0  0  0  0  0  0  0  0  0  0  0
  133.6470  131.3760   58.7130 C   0  0  0  0  0  0  0  0  0  0  0  0
  133.6870  131.3230   60.1120 C   0  0  0  0  0  0  0  0  0  0  0  0
  132.5110  131.1230   60.8450 C   0  0  0  0  0  0  0  0  0  0  0  0
  131.2860  130.9720   60.1870 C   0  0  0  0  0  0  0  0  0  0  0  0
  131.2660  131.0260   58.7930 C   0  0  0  0  0  0  0  0  0  0  0  0
  130.1430  130.9070   57.8300 C   0  0  0  0  0  0  0  0  0  0  0  0
  128.9520  130.7330   58.0920 O   0  0  0  0  0  0  0  0  0  0  0  0
  128.8326  132.6752   56.0558 H   0  0  0  0  0  0  0  0  0  0  0  0
  129.6999  132.9960   54.5158 H   0  0  0  0  0  0  0  0  0  0  0  0
  128.2117  131.9900   54.5158 H   0  0  0  0  0  0  0  0  0  0  0  0
  130.7217  130.9949   54.4958 H   0  0  0  0  0  0  0  0  0  0  0  0
  128.9805  126.2747   54.2060 H   0  0  0  0  0  0  0  0  0  0  0  0
  128.6118  124.2872   55.6632 H   0  0  0  0  0  0  0  0  0  0  0  0
  129.1332  123.1907   57.6365 H   0  0  0  0  0  0  0  0  0  0  0  0
  128.6120  123.5590   62.2030 H   0  0  0  0  0  0  0  0  0  0  0  0
  126.4330  123.6370   62.0570 H   0  0  0  0  0  0  0  0  0  0  0  0
  123.2571  124.3115   59.0476 H   0  0  0  0  0  0  0  0  0  0  0  0
  124.1207  125.1185   57.6950 H   0  0  0  0  0  0  0  0  0  0  0  0
  123.9208  123.3334   57.6950 H   0  0  0  0  0  0  0  0  0  0  0  0
  130.7344  123.3004   63.5243 H   0  0  0  0  0  0  0  0  0  0  0  0
  133.1181  123.0972   64.2563 H   0  0  0  0  0  0  0  0  0  0  0  0
  134.9573  123.2172   62.5778 H   0  0  0  0  0  0  0  0  0  0  0  0
  134.4294  123.5466   60.1551 H   0  0  0  0  0  0  0  0  0  0  0  0
  130.1997  126.4690   59.0439 H   0  0  0  0  0  0  0  0  0  0  0  0
  130.5741  128.4533   57.5854 H   0  0  0  0  0  0  0  0  0  0  0  0
  134.5660  131.5346   58.1296 H   0  0  0  0  0  0  0  0  0  0  0  0
  134.6466  131.4390   60.6372 H   0  0  0  0  0  0  0  0  0  0  0  0
  132.5506  131.0844   61.9436 H   0  0  0  0  0  0  0  0  0  0  0  0
  130.3582  130.8140   60.7564 H   0  0  0  0  0  0  0  0  0  0  0  0
  1  2  1  0
  2  3  1  0
  3  4  2  0
  3  5  1  0
  5  6  1  0
  6  7  2  0
  7  8  1  0
  8  9  2  0
  9 10  1  0
 10 11  1  0
 11 12  2  0
 12 13  1  0
 13 14  1  0
 14 15  1  0
 15 16  1  0
 16 17  2  0
 16 18  1  0
 18 19  1  0
 18 20  1  0
 20 21  2  0
 20 22  1  0
 12 23  1  0
 23 24  2  0
 24 25  1  0
 25 26  2  0
 26 27  1  0
 27 28  2  0
 28 29  1  0
 29 30  2  0
  9 31  1  0
 31 32  2  0
  2 33  1  0
 33 34  1  0
 34 35  2  0
 34 36  1  0
 36 37  2  0
 37 38  1  0
 38 39  2  0
 39 40  1  0
 40 41  2  0
 41 42  1  0
 42 43  2  0
 32  6  1  0
 42 33  1  0
 22 10  1  0
 28 23  1  0
 41 36  1  0
 29 11  1  0
 22 14  2  0
  1 44  1  0
  1 45  1  0
  1 46  1  0
  2 47  1  6
  7 48  1  0
  8 49  1  0
 10 50  1  6
 13 51  1  0
 15 52  1  0
 19 53  1  0
 19 54  1  0
 19 55  1  0
 24 56  1  0
 25 57  1  0
 26 58  1  0
 27 59  1  0
 31 60  1  0
 32 61  1  0
 37 62  1  0
 38 63  1  0
 39 64  1  0
 40 65  1  0
M  END
>  <Binding energies>  (1) 
[-10.9]

>  <Ligand effiencies>  (1) 
[-0.24222222222222223]

>  <Interactions>  (1) 
["V-B:LEU:363:CA:8157, H-B:GLU:543:OE1:9881, V-B:ALA:541:CB:9864, V-B:ASP:366:CG:8185, V-B:PRO:540:CB:9857, H-B:ARG:545:NH2:9900, V-B:PRO:540:CA:9855, V-B:PRO:540:C:9853, V-B:TYR:539:CE2:9848, V-A:TYR:539:CE1:4873, V-A:ASP:366:CG:3211, V-A:PRO:540:N:4882, V-A:ILE:538:CA:4858, V-A:TYR:539:CZ:4875, V-A:TYR:531:CE2:4791, V-A:LEU:363:CA:3183, H-A:TYR:531:OH:4793, V-A:PRO:540:CA:4881, V-A:TYR:531:CZ:4792, V-A:PRO:540:CB:4883, H-B:TYR:531:OH:9767, V-A:ASN:362:CB:3174, V-A:GLY:454:CA:4047, V-A:ILE:538:C:4856, H-B:TYR:539:OH:9850, V-A:TYR:539:CD1:4871, V-A:ILE:369:CD1:3237, V-A:ASN:362:C:3170, V-A:TYR:539:CG:4870, H-B:ALA:541:O:9861, V-A:GLY:453:C:4040"]

$$$$
RR24_Rahimova_2017-again1
     RDKit          3D

 63 69  0  0  0  0  0  0  0  0999 V2000
  127.1820  131.0110   57.7960 C   0  0  0  0  0  0  0  0  0  0  0  0
  127.9680  131.1360   56.4840 C   0  0  2  0  0  0  0  0  0  0  0  0
  127.6160  130.0310   55.4460 C   0  0  0  0  0  0  0  0  0  0  0  0
  126.5230  129.9990   54.8680 O   0  0  0  0  0  0  0  0  0  0  0  0
  128.6220  129.1220   55.2830 O   0  0  0  0  0  0  0  0  0  0  0  0
  128.5930  127.9410   55.9890 C   0  0  0  0  0  0  0  0  0  0  0  0
  127.8680  126.8590   55.4890 C   0  0  0  0  0  0  0  0  0  0  0  0
  127.8490  125.6550   56.1870 C   0  0  0  0  0  0  0  0  0  0  0  0
  128.5620  125.5240   57.3830 C   0  0  0  0  0  0  0  0  0  0  0  0
  128.5440  124.1980   58.1570 C   0  0  1  0  0  0  0  0  0  0  0  0
  129.8070  124.0430   59.0370 C   0  0  0  0  0  0  0  0  0  0  0  0
  131.1190  123.9390   58.7320 C   0  0  0  0  0  0  0  0  0  0  0  0
  131.6000  123.9110   57.5360 O   0  0  0  0  0  0  0  0  0  0  0  0
  131.9210  123.8900   59.9550 C   0  0  0  0  0  0  0  0  0  0  0  0
  133.3010  123.7970   60.1760 C   0  0  0  0  0  0  0  0  0  0  0  0
  133.7890  123.7770   61.4840 C   0  0  0  0  0  0  0  0  0  0  0  0
  132.9050  123.8470   62.5620 C   0  0  0  0  0  0  0  0  0  0  0  0
  131.5300  123.9370   62.3360 C   0  0  0  0  0  0  0  0  0  0  0  0
  131.0440  123.9610   61.0270 C   0  0  0  0  0  0  0  0  0  0  0  0
  129.6980  124.0300   60.4860 C   0  0  0  0  0  0  0  0  0  0  0  0
  128.5700  124.0640   61.0900 N   0  0  0  0  0  0  0  0  0  0  0  0
  127.3910  124.0040   60.4080 C   0  0  0  0  0  0  0  0  0  0  0  0
  126.3050  123.8880   61.2260 N   0  0  0  0  0  0  0  0  0  0  0  0
  125.1290  123.8380   60.7090 C   0  0  0  0  0  0  0  0  0  0  0  0
  124.2170  123.7380   61.5470 O   0  0  0  0  0  0  0  0  0  0  0  0
  124.9160  123.8900   59.3320 N   0  0  0  0  0  0  0  0  0  0  0  0
  123.5740  123.8370   58.7060 C   0  0  0  0  0  0  0  0  0  0  0  0
  125.9560  123.9890   58.4280 C   0  0  0  0  0  0  0  0  0  0  0  0
  125.8140  124.0130   57.2010 O   0  0  0  0  0  0  0  0  0  0  0  0
  127.2850  124.0570   59.0440 C   0  0  0  0  0  0  0  0  0  0  0  0
  129.2970  126.6070   57.8740 C   0  0  0  0  0  0  0  0  0  0  0  0
  129.3180  127.8110   57.1760 C   0  0  0  0  0  0  0  0  0  0  0  0
  129.4380  131.2450   56.7190 N   0  0  0  0  0  0  0  0  0  0  0  0
  130.2670  131.8120   55.7980 C   0  0  0  0  0  0  0  0  0  0  0  0
  129.9590  132.2850   54.7030 O   0  0  0  0  0  0  0  0  0  0  0  0
  131.6260  131.7370   56.3930 C   0  0  0  0  0  0  0  0  0  0  0  0
  132.8630  132.1560   55.9000 C   0  0  0  0  0  0  0  0  0  0  0  0
  134.0000  131.9550   56.6900 C   0  0  0  0  0  0  0  0  0  0  0  0
  133.8890  131.3460   57.9470 C   0  0  0  0  0  0  0  0  0  0  0  0
  132.6400  130.9340   58.4230 C   0  0  0  0  0  0  0  0  0  0  0  0
  131.5170  131.1420   57.6200 C   0  0  0  0  0  0  0  0  0  0  0  0
  130.0860  130.8220   57.8470 C   0  0  0  0  0  0  0  0  0  0  0  0
  129.5890  130.2900   58.8400 O   0  0  0  0  0  0  0  0  0  0  0  0
  127.8699  131.1204   58.6474 H   0  0  0  0  0  0  0  0  0  0  0  0
  126.4153  131.7985   57.8406 H   0  0  0  0  0  0  0  0  0  0  0  0
  126.6974  130.0245   57.8406 H   0  0  0  0  0  0  0  0  0  0  0  0
  127.6431  132.0831   56.0285 H   0  0  0  0  0  0  0  0  0  0  0  0
  127.3123  126.9573   54.5448 H   0  0  0  0  0  0  0  0  0  0  0  0
  127.2715  124.8040   55.7968 H   0  0  0  0  0  0  0  0  0  0  0  0
  128.5274  123.4004   57.3997 H   0  0  0  0  0  0  0  0  0  0  0  0
  133.9955  123.7401   59.3249 H   0  0  0  0  0  0  0  0  0  0  0  0
  134.8716  123.7060   61.6653 H   0  0  0  0  0  0  0  0  0  0  0  0
  133.2923  123.8312   63.5915 H   0  0  0  0  0  0  0  0  0  0  0  0
  130.8328  123.9888   63.1852 H   0  0  0  0  0  0  0  0  0  0  0  0
  122.8041  123.8066   59.4911 H   0  0  0  0  0  0  0  0  0  0  0  0
  123.4254  124.7300   58.0811 H   0  0  0  0  0  0  0  0  0  0  0  0
  123.4963  122.9351   58.0811 H   0  0  0  0  0  0  0  0  0  0  0  0
  129.8599  126.5075   58.8138 H   0  0  0  0  0  0  0  0  0  0  0  0
  129.9048  128.6591   57.5586 H   0  0  0  0  0  0  0  0  0  0  0  0
  132.9420  132.6336   54.9123 H   0  0  0  0  0  0  0  0  0  0  0  0
  134.9857  132.2766   56.3226 H   0  0  0  0  0  0  0  0  0  0  0  0
  134.7878  131.1913   58.5620 H   0  0  0  0  0  0  0  0  0  0  0  0
  132.5445  130.4562   59.4092 H   0  0  0  0  0  0  0  0  0  0  0  0
  1  2  1  0
  2  3  1  0
  3  4  2  0
  3  5  1  0
  5  6  1  0
  6  7  2  0
  7  8  1  0
  8  9  2  0
  9 10  1  0
 10 11  1  0
 11 12  2  0
 12 13  1  0
 12 14  1  0
 14 15  2  0
 15 16  1  0
 16 17  2  0
 17 18  1  0
 18 19  2  0
 19 20  1  0
 20 21  2  0
 21 22  1  0
 22 23  1  0
 23 24  2  0
 24 25  1  0
 24 26  1  0
 26 27  1  0
 26 28  1  0
 28 29  2  0
 28 30  1  0
  9 31  1  0
 31 32  2  0
  2 33  1  0
 33 34  1  0
 34 35  2  0
 34 36  1  0
 36 37  2  0
 37 38  1  0
 38 39  2  0
 39 40  1  0
 40 41  2  0
 41 42  1  0
 42 43  2  0
 32  6  1  0
 42 33  1  0
 30 10  1  0
 41 36  1  0
 20 11  1  0
 30 22  2  0
 19 14  1  0
  1 44  1  0
  1 45  1  0
  1 46  1  0
  2 47  1  6
  7 48  1  0
  8 49  1  0
 10 50  1  6
 15 51  1  0
 16 52  1  0
 17 53  1  0
 18 54  1  0
 27 55  1  0
 27 56  1  0
 27 57  1  0
 31 58  1  0
 32 59  1  0
 37 60  1  0
 38 61  1  0
 39 62  1  0
 40 63  1  0
M  CHG  2  13  -1  25  -1
M  END
>  <Binding energies>  (1) 
[-9.17]

>  <Ligand effiencies>  (1) 
[-0.21325581395348836]

>  <Interactions>  (1) 
["V-B:PRO:540:N:9856, V-B:LEU:363:CA:8157, V-B:TYR:539:CZ:9849, V-B:ASP:366:CG:8185, V-B:PRO:540:CB:9857, H-B:ARG:545:NH2:9900, V-B:PRO:540:CA:9855, V-B:PRO:540:C:9853, H-B:ALA:541:N:9863, V-B:TYR:539:CE2:9848, V-B:TYR:539:CD2:9846, V-A:TYR:539:CE1:4873, V-A:ASP:366:CG:3211, V-A:PRO:540:N:4882, H-A:TYR:539:N:4868, V-A:TYR:539:CZ:4875, V-A:TYR:531:CE2:4791, V-A:LEU:363:CA:3183, V-A:LEU:363:CD1:3187, V-A:ILE:538:CB:4860, V-A:PRO:540:CA:4881, V-A:ILE:538:CG2:4861, V-A:PRO:540:CB:4883, H-B:TYR:531:OH:9767, V-B:PRO:540:CG:9858, V-A:LEU:363:CB:3185, V-A:PRO:540:CD:4885, V-A:TYR:539:CE2:4874, H-A:TYR:539:OH:4876, H-B:TYR:539:OH:9850, V-A:ILE:369:CD1:3237, V-A:TYR:539:CD2:4872, V-A:PRO:540:CG:4884, V-A:LEU:363:CG:3186, V-B:ASN:362:C:8144, V-B:LEU:363:CB:8159"]

$$$$
RR25_Rahimova_2017
     RDKit          3D

 63 68  0  0  0  0  0  0  0  0999 V2000
  131.3110  125.7170   55.3230 O   0  0  0  0  0  0  0  0  0  0  0  0
  131.2990  125.5060   56.5360 C   0  0  0  0  0  0  0  0  0  0  0  0
  132.2480  124.6340   57.0090 O   0  0  0  0  0  0  0  0  0  0  0  0
  132.5000  124.5070   58.3630 C   0  0  0  0  0  0  0  0  0  0  0  0
  133.7730  124.0690   58.7260 C   0  0  0  0  0  0  0  0  0  0  0  0
  134.0930  123.9100   60.0730 C   0  0  0  0  0  0  0  0  0  0  0  0
  133.1470  124.1810   61.0730 C   0  0  0  0  0  0  0  0  0  0  0  0
  133.4930  124.0190   62.5070 N   0  0  0  0  0  0  0  0  0  0  0  0
  133.2510  122.9450   63.0520 O   0  0  0  0  0  0  0  0  0  0  0  0
  134.0080  124.9640   63.0970 O   0  0  0  0  0  0  0  0  0  0  0  0
  131.8670  124.6090   60.6860 C   0  0  0  0  0  0  0  0  0  0  0  0
  131.5270  124.7660   59.3390 C   0  0  0  0  0  0  0  0  0  0  0  0
  130.1620  125.2360   58.8710 C   0  0  0  0  0  0  0  0  0  0  0  0
  130.3180  126.1000   57.5880 C   0  0  2  0  0  0  0  0  0  0  0  0
  128.9300  126.5190   57.0220 C   0  0  0  0  0  0  0  0  0  0  0  0
  127.9500  125.9520   57.5150 O   0  0  0  0  0  0  0  0  0  0  0  0
  128.7870  127.5410   56.1260 N   0  0  0  0  0  0  0  0  0  0  0  0
  129.9010  128.0310   55.2870 C   0  0  0  0  0  0  0  0  0  0  0  0
  129.7780  129.5620   55.1330 C   0  0  0  0  0  0  0  0  0  0  0  0
  128.4620  129.9430   54.6110 N   0  0  0  0  0  0  0  0  0  0  0  0
  128.3890  131.3850   54.3390 C   0  0  0  0  0  0  0  0  0  0  0  0
  129.7200  132.1240   54.6410 C   0  0  0  0  0  0  0  0  0  0  0  0
  130.2600  131.9630   56.0230 N   0  0  0  0  0  0  0  0  0  0  0  0
  129.3260  132.0420   57.0340 C   0  0  0  0  0  0  0  0  0  0  0  0
  128.1270  132.2670   56.8310 O   0  0  0  0  0  0  0  0  0  0  0  0
  129.8810  131.8100   58.4260 C   0  0  0  0  0  0  0  0  0  0  0  0
  129.0140  131.8430   59.5260 C   0  0  0  0  0  0  0  0  0  0  0  0
  129.4880  131.6260   60.8190 C   0  0  0  0  0  0  0  0  0  0  0  0
  130.8380  131.3680   61.0530 C   0  0  0  0  0  0  0  0  0  0  0  0
  131.7510  131.3260   59.9720 C   0  0  0  0  0  0  0  0  0  0  0  0
  133.1330  131.0680   60.1380 C   0  0  0  0  0  0  0  0  0  0  0  0
  133.9770  131.0380   59.0300 C   0  0  0  0  0  0  0  0  0  0  0  0
  133.4820  131.2600   57.7460 C   0  0  0  0  0  0  0  0  0  0  0  0
  132.1220  131.5190   57.5340 C   0  0  0  0  0  0  0  0  0  0  0  0
  131.2560  131.5510   58.6570 C   0  0  0  0  0  0  0  0  0  0  0  0
  131.6200  131.7470   56.1210 C   0  0  0  0  0  0  0  0  0  0  0  0
  132.3760  131.7220   55.1450 O   0  0  0  0  0  0  0  0  0  0  0  0
  127.4160  129.5150   55.5410 C   0  0  0  0  0  0  0  0  0  0  0  0
  127.4250  127.9810   55.7450 C   0  0  0  0  0  0  0  0  0  0  0  0
  134.5225  123.8496   57.9514 H   0  0  0  0  0  0  0  0  0  0  0  0
  135.0995  123.5679   60.3556 H   0  0  0  0  0  0  0  0  0  0  0  0
  131.1154  124.8255   61.4594 H   0  0  0  0  0  0  0  0  0  0  0  0
  129.5306  124.3629   58.6496 H   0  0  0  0  0  0  0  0  0  0  0  0
  129.6930  125.8393   59.6622 H   0  0  0  0  0  0  0  0  0  0  0  0
  130.8220  127.0310   57.8867 H   0  0  0  0  0  0  0  0  0  0  0  0
  130.8599  127.7843   55.7663 H   0  0  0  0  0  0  0  0  0  0  0  0
  129.8589  127.5532   54.2971 H   0  0  0  0  0  0  0  0  0  0  0  0
  129.9232  130.0334   56.1162 H   0  0  0  0  0  0  0  0  0  0  0  0
  130.5445  129.9010   54.4206 H   0  0  0  0  0  0  0  0  0  0  0  0
  128.1400  131.5299   53.2774 H   0  0  0  0  0  0  0  0  0  0  0  0
  127.6189  131.8075   55.0011 H   0  0  0  0  0  0  0  0  0  0  0  0
  130.4790  131.7507   53.9377 H   0  0  0  0  0  0  0  0  0  0  0  0
  129.4946  133.1953   54.5342 H   0  0  0  0  0  0  0  0  0  0  0  0
  127.9440  132.0430   59.3672 H   0  0  0  0  0  0  0  0  0  0  0  0
  128.7872  131.6588   61.6663 H   0  0  0  0  0  0  0  0  0  0  0  0
  131.1943  131.1968   62.0795 H   0  0  0  0  0  0  0  0  0  0  0  0
  133.5413  130.8908   61.1439 H   0  0  0  0  0  0  0  0  0  0  0  0
  135.0492  130.8363   59.1704 H   0  0  0  0  0  0  0  0  0  0  0  0
  134.1690  131.2314   56.8874 H   0  0  0  0  0  0  0  0  0  0  0  0
  127.5801  130.0048   56.5122 H   0  0  0  0  0  0  0  0  0  0  0  0
  126.4419  129.7990   55.1162 H   0  0  0  0  0  0  0  0  0  0  0  0
  126.7167  127.7131   56.5428 H   0  0  0  0  0  0  0  0  0  0  0  0
  127.1282  127.4851   54.8090 H   0  0  0  0  0  0  0  0  0  0  0  0
  1  2  2  0
  2  3  1  0
  3  4  1  0
  4  5  2  0
  5  6  1  0
  6  7  2  0
  7  8  1  0
  8  9  2  0
  8 10  1  0
  7 11  1  0
 11 12  2  0
 12 13  1  0
 13 14  1  0
 14 15  1  0
 15 16  2  0
 15 17  1  0
 17 18  1  0
 18 19  1  0
 19 20  1  0
 20 21  1  0
 21 22  1  0
 22 23  1  0
 23 24  1  0
 24 25  2  0
 24 26  1  0
 26 27  2  0
 27 28  1  0
 28 29  2  0
 29 30  1  0
 30 31  2  0
 31 32  1  0
 32 33  2  0
 33 34  1  0
 34 35  2  0
 34 36  1  0
 36 37  2  0
 20 38  1  0
 38 39  1  0
 14  2  1  0
 39 17  1  0
 12  4  1  0
 36 23  1  0
 35 26  1  0
 35 30  1  0
  5 40  1  0
  6 41  1  0
 11 42  1  0
 13 43  1  0
 13 44  1  0
 14 45  1  1
 18 46  1  0
 18 47  1  0
 19 48  1  0
 19 49  1  0
 21 50  1  0
 21 51  1  0
 22 52  1  0
 22 53  1  0
 27 54  1  0
 28 55  1  0
 29 56  1  0
 31 57  1  0
 32 58  1  0
 33 59  1  0
 38 60  1  0
 38 61  1  0
 39 62  1  0
 39 63  1  0
M  CHG  2   8   1  10  -1
M  END
>  <Binding energies>  (1) 
[-11.37]

>  <Ligand effiencies>  (1) 
[-0.2915384615384615]

>  <Interactions>  (1) 
["V-B:TYR:539:CZ:9849, V-B:TYR:539:CE2:9848, V-A:TYR:539:CE1:4873, V-A:ASP:366:CG:3211, V-A:PRO:540:N:4882, V-A:ILE:538:CA:4858, V-A:TYR:539:CZ:4875, V-A:LEU:363:CA:3183, H-A:TYR:531:OH:4793, V-A:ASP:366:CB:3210, V-A:TYR:539:C:4865, V-A:ILE:538:CB:4860, V-A:PRO:540:CA:4881, V-A:ILE:538:CG2:4861, V-A:TYR:531:CZ:4792, V-A:PRO:540:CB:4883, V-A:PRO:540:CD:4885, V-A:ASN:362:CB:3174, V-A:GLY:454:CA:4047, H-A:TYR:484:OH:4346, H-A:ARG:545:NE:4922, H-A:GLY:454:N:4048, V-A:ILE:538:C:4856, H-B:TYR:539:OH:9850, H-A:ARG:545:NH2:4926, V-A:TYR:539:CD1:4871, V-A:ILE:369:CB:3234, V-A:ILE:369:CG2:3235, V-A:ILE:369:CD1:3237, H-A:ARG:545:NH1:4925, V-A:ASP:366:CA:3208, V-A:ASN:362:C:3170, V-A:PRO:540:C:4879, V-A:TYR:539:CG:4870"]

$$$$
RR26_Rahimova_2017
     RDKit          3D

 59 65  0  0  0  0  0  0  0  0999 V2000
  133.4350  123.8910   59.7650 C   0  0  0  0  0  0  0  0  0  0  0  0
  132.5860  122.6370   59.9360 C   0  0  0  0  0  0  0  0  0  0  0  0
  133.2390  121.4230   60.1730 C   0  0  0  0  0  0  0  0  0  0  0  0
  132.5110  120.2520   60.3760 C   0  0  0  0  0  0  0  0  0  0  0  0
  131.1210  120.2870   60.3510 C   0  0  0  0  0  0  0  0  0  0  0  0
  130.4590  121.4900   60.1160 C   0  0  0  0  0  0  0  0  0  0  0  0
  131.1750  122.6780   59.9000 C   0  0  0  0  0  0  0  0  0  0  0  0
  130.3850  123.9280   59.6390 C   0  0  0  0  0  0  0  0  0  0  0  0
  130.2910  124.9090   60.5320 N   0  0  0  0  0  0  0  0  0  0  0  0
  129.5440  125.7760   59.9040 C   0  0  0  0  0  0  0  0  0  0  0  0
  128.8890  127.3320   60.2580 S   0  0  0  0  0  0  0  0  0  0  0  0
  128.1270  127.3580   58.6240 C   0  0  0  0  0  0  0  0  0  0  0  0
  127.3590  128.3310   58.0840 C   0  0  0  0  0  0  0  0  0  0  0  0
  126.9660  129.5970   58.6800 C   0  0  0  0  0  0  0  0  0  0  0  0
  125.9630  129.8310   59.6090 C   0  0  0  0  0  0  0  0  0  0  0  0
  125.9780  131.1680   59.9180 N   0  0  0  0  0  0  0  0  0  0  0  0
  125.1400  131.8680   60.8240 C   0  0  0  0  0  0  0  0  0  0  0  0
  124.3350  132.9290   60.3840 C   0  0  0  0  0  0  0  0  0  0  0  0
  123.5200  133.6100   61.2840 C   0  0  0  0  0  0  0  0  0  0  0  0
  123.5040  133.2330   62.6240 C   0  0  0  0  0  0  0  0  0  0  0  0
  124.2970  132.1790   63.0730 C   0  0  0  0  0  0  0  0  0  0  0  0
  125.1150  131.4970   62.1770 C   0  0  0  0  0  0  0  0  0  0  0  0
  126.9630  131.7880   59.2510 N   0  0  0  0  0  0  0  0  0  0  0  0
  127.5520  130.8710   58.5100 C   0  0  0  0  0  0  0  0  0  0  0  0
  128.7010  131.2510   57.6270 C   0  0  0  0  0  0  0  0  0  0  0  0
  128.4690  131.7760   56.3460 C   0  0  0  0  0  0  0  0  0  0  0  0
  129.5320  132.1290   55.5140 C   0  0  0  0  0  0  0  0  0  0  0  0
  130.8420  131.9590   55.9590 C   0  0  0  0  0  0  0  0  0  0  0  0
  131.0870  131.4530   57.2440 C   0  0  0  0  0  0  0  0  0  0  0  0
  130.0230  131.0950   58.0700 C   0  0  0  0  0  0  0  0  0  0  0  0
  132.3670  131.2260   57.7100 O   0  0  0  0  0  0  0  0  0  0  0  0
  133.3840  131.9350   56.9950 C   0  0  0  0  0  0  0  0  0  0  0  0
  133.1470  131.8340   55.4680 C   0  0  0  0  0  0  0  0  0  0  0  0
  131.8630  132.3660   55.1230 O   0  0  0  0  0  0  0  0  0  0  0  0
  128.4060  126.1440   57.8620 C   0  0  0  0  0  0  0  0  0  0  0  0
  128.0390  125.8370   56.7260 O   0  0  0  0  0  0  0  0  0  0  0  0
  129.2100  125.3330   58.6780 N   0  0  0  0  0  0  0  0  0  0  0  0
  129.7560  124.1290   58.4910 N   0  0  0  0  0  0  0  0  0  0  0  0
  133.7045  124.2891   60.7544 H   0  0  0  0  0  0  0  0  0  0  0  0
  134.3504  123.6410   59.2086 H   0  0  0  0  0  0  0  0  0  0  0  0
  132.8629  124.6481   59.2086 H   0  0  0  0  0  0  0  0  0  0  0  0
  134.3383  121.3922   60.1994 H   0  0  0  0  0  0  0  0  0  0  0  0
  133.0350  119.3017   60.5557 H   0  0  0  0  0  0  0  0  0  0  0  0
  130.5444  119.3650   60.5167 H   0  0  0  0  0  0  0  0  0  0  0  0
  129.3593  121.5093   60.0995 H   0  0  0  0  0  0  0  0  0  0  0  0
  126.9851  128.1408   57.0671 H   0  0  0  0  0  0  0  0  0  0  0  0
  125.2770  129.0782   60.0245 H   0  0  0  0  0  0  0  0  0  0  0  0
  124.3477  133.2239   59.3244 H   0  0  0  0  0  0  0  0  0  0  0  0
  122.8908  134.4431   60.9375 H   0  0  0  0  0  0  0  0  0  0  0  0
  122.8598  133.7718   63.3344 H   0  0  0  0  0  0  0  0  0  0  0  0
  124.2766  131.8866   64.1332 H   0  0  0  0  0  0  0  0  0  0  0  0
  125.7430  130.6657   62.5301 H   0  0  0  0  0  0  0  0  0  0  0  0
  127.4358  131.9109   55.9935 H   0  0  0  0  0  0  0  0  0  0  0  0
  129.3373  132.5393   54.5121 H   0  0  0  0  0  0  0  0  0  0  0  0
  130.2205  130.6886   59.0729 H   0  0  0  0  0  0  0  0  0  0  0  0
  133.3657  132.9933   57.2946 H   0  0  0  0  0  0  0  0  0  0  0  0
  134.3612  131.4894   57.2327 H   0  0  0  0  0  0  0  0  0  0  0  0
  133.9277  132.4032   54.9422 H   0  0  0  0  0  0  0  0  0  0  0  0
  133.1845  130.7753   55.1716 H   0  0  0  0  0  0  0  0  0  0  0  0
  1  2  1  0
  2  3  2  0
  3  4  1  0
  4  5  2  0
  5  6  1  0
  6  7  2  0
  7  8  1  0
  8  9  1  0
  9 10  2  0
 10 11  1  0
 11 12  1  0
 12 13  2  0
 13 14  1  0
 14 15  2  0
 15 16  1  0
 16 17  1  0
 17 18  2  0
 18 19  1  0
 19 20  2  0
 20 21  1  0
 21 22  2  0
 16 23  1  0
 23 24  2  0
 24 25  1  0
 25 26  2  0
 26 27  1  0
 27 28  2  0
 28 29  1  0
 29 30  2  0
 29 31  1  0
 31 32  1  0
 32 33  1  0
 33 34  1  0
 12 35  1  0
 35 36  2  0
 35 37  1  0
 37 38  1  0
  7  2  1  0
 38  8  2  0
 37 10  1  0
 24 14  1  0
 30 25  1  0
 22 17  1  0
 34 28  1  0
  1 39  1  0
  1 40  1  0
  1 41  1  0
  3 42  1  0
  4 43  1  0
  5 44  1  0
  6 45  1  0
 13 46  1  0
 15 47  1  0
 18 48  1  0
 19 49  1  0
 20 50  1  0
 21 51  1  0
 22 52  1  0
 26 53  1  0
 27 54  1  0
 30 55  1  0
 32 56  1  0
 32 57  1  0
 33 58  1  0
 33 59  1  0
M  END
>  <Binding energies>  (1) 
[-8.4]

>  <Ligand effiencies>  (1) 
[-0.2210526315789474]

>  <Interactions>  (1) 
["V-A:TRP:381:CZ2:3368, V-A:TRP:381:CH2:3370, V-B:ASP:366:CG:8185, V-B:TYR:539:CE2:9848, V-A:LEU:475:CD2:4257, V-B:TYR:539:CD2:9846, V-A:TYR:539:CE1:4873, V-A:ASP:366:CG:3211, V-A:PRO:540:N:4882, H-A:TYR:539:N:4868, V-A:ILE:538:CA:4858, V-A:TYR:539:CZ:4875, V-A:TYR:531:CE2:4791, V-A:LEU:363:CA:3183, H-A:TYR:531:OH:4793, V-A:LEU:363:CD1:3187, V-A:ILE:538:CB:4860, V-A:PRO:540:CA:4881, V-A:ILE:538:CG2:4861, V-A:TYR:531:CZ:4792, V-A:PRO:540:CB:4883, V-A:PRO:540:CD:4885, V-A:TYR:539:CE2:4874, V-A:TYR:539:CD1:4871, V-A:ILE:369:CG2:3235, V-A:ILE:369:CD1:3237, V-A:TYR:539:CD2:4872, V-A:TYR:539:CG:4870, V-B:GLY:454:CA:9021, V-A:PRO:540:CG:4884, V-B:ILE:369:CD1:8211, V-B:ILE:369:CG2:8209, V-B:LEU:475:CD2:9231, V-B:GLY:453:C:9014, V-B:ILE:369:CB:8208, V-B:ILE:369:CG1:8210"]

$$$$
RR27_Rahimova_2017
     RDKit          3D

 66 71  0  0  0  0  0  0  0  0999 V2000
  127.2250  123.1070   57.3170 O   0  0  0  0  0  0  0  0  0  0  0  0
  128.2710  123.6480   57.6870 C   0  0  0  0  0  0  0  0  0  0  0  0
  128.5210  123.8050   59.2160 C   0  0  0  0  0  0  0  0  0  0  0  0
  129.5750  122.8230   59.7600 C   0  0  0  0  0  0  0  0  0  0  0  0
  130.9510  123.0720   59.6410 C   0  0  0  0  0  0  0  0  0  0  0  0
  131.8770  122.1640   60.1460 C   0  0  0  0  0  0  0  0  0  0  0  0
  131.4330  121.0030   60.7710 C   0  0  0  0  0  0  0  0  0  0  0  0
  130.0720  120.7400   60.8950 C   0  0  0  0  0  0  0  0  0  0  0  0
  129.1460  121.6480   60.3900 C   0  0  0  0  0  0  0  0  0  0  0  0
  127.2010  123.8450   60.0100 C   0  0  0  0  0  0  0  0  0  0  0  0
  125.9580  123.9270   59.3690 C   0  0  0  0  0  0  0  0  0  0  0  0
  124.7840  123.9740   60.1170 C   0  0  0  0  0  0  0  0  0  0  0  0
  124.8500  123.9430   61.5070 C   0  0  0  0  0  0  0  0  0  0  0  0
  126.0790  123.8730   62.1580 C   0  0  0  0  0  0  0  0  0  0  0  0
  127.2510  123.8280   61.4090 C   0  0  0  0  0  0  0  0  0  0  0  0
  129.2610  123.9690   56.8060 N   0  0  0  0  0  0  0  0  0  0  0  0
  130.4010  124.8340   57.1460 C   0  0  0  0  0  0  0  0  0  0  0  0
  129.9540  126.2890   56.8820 C   0  0  0  0  0  0  0  0  0  0  0  0
  129.4310  126.5040   55.4260 C   0  0  0  0  0  0  0  0  0  0  0  0
  128.8680  127.9090   55.1430 C   0  0  0  0  0  0  0  0  0  0  0  0
  127.5080  128.0210   55.0990 N   0  0  0  0  0  0  0  0  0  0  0  0
  126.9580  129.2470   54.8790 C   0  0  0  0  0  0  0  0  0  0  0  0
  125.6100  129.4860   54.8180 O   0  0  0  0  0  0  0  0  0  0  0  0
  127.8160  130.3500   54.7040 C   0  0  0  0  0  0  0  0  0  0  0  0
  127.6050  131.6790   54.4770 N   0  0  0  0  0  0  0  0  0  0  0  0
  128.8460  132.2810   54.3840 N   0  0  0  0  0  0  0  0  0  0  0  0
  129.8000  131.3430   54.5580 N   0  0  0  0  0  0  0  0  0  0  0  0
  131.2150  131.7010   54.4830 C   0  0  0  0  0  0  0  0  0  0  0  0
  131.9530  131.5590   55.8080 C   0  0  0  0  0  0  0  0  0  0  0  0
  133.3270  131.8080   55.8780 C   0  0  0  0  0  0  0  0  0  0  0  0
  134.0010  131.6880   57.0940 C   0  0  0  0  0  0  0  0  0  0  0  0
  133.3050  131.3240   58.2460 C   0  0  0  0  0  0  0  0  0  0  0  0
  131.9310  131.0840   58.1850 C   0  0  0  0  0  0  0  0  0  0  0  0
  131.0620  130.6600   59.6150 Cl  0  0  0  0  0  0  0  0  0  0  0  0
  131.2590  131.1960   56.9680 C   0  0  0  0  0  0  0  0  0  0  0  0
  129.2050  130.1080   54.7590 C   0  0  0  0  0  0  0  0  0  0  0  0
  129.7700  128.9160   54.9650 N   0  0  0  0  0  0  0  0  0  0  0  0
  128.4790  125.3540   54.9730 C   0  0  0  0  0  0  0  0  0  0  0  0
  128.9980  123.9460   55.3590 C   0  0  0  0  0  0  0  0  0  0  0  0
  128.9816  124.7915   59.3729 H   0  0  0  0  0  0  0  0  0  0  0  0
  131.2997  123.9902   59.1457 H   0  0  0  0  0  0  0  0  0  0  0  0
  132.9547  122.3633   60.0515 H   0  0  0  0  0  0  0  0  0  0  0  0
  132.1649  120.2859   61.1711 H   0  0  0  0  0  0  0  0  0  0  0  0
  129.7299  119.8190   61.3897 H   0  0  0  0  0  0  0  0  0  0  0  0
  128.0699  121.4414   60.4863 H   0  0  0  0  0  0  0  0  0  0  0  0
  125.9090  123.9544   58.2704 H   0  0  0  0  0  0  0  0  0  0  0  0
  123.8090  124.0353   59.6115 H   0  0  0  0  0  0  0  0  0  0  0  0
  123.9222  123.9741   62.0971 H   0  0  0  0  0  0  0  0  0  0  0  0
  126.1231  123.8534   63.2569 H   0  0  0  0  0  0  0  0  0  0  0  0
  128.2239  123.7787   61.9200 H   0  0  0  0  0  0  0  0  0  0  0  0
  130.6697  124.7070   58.2051 H   0  0  0  0  0  0  0  0  0  0  0  0
  131.2840  124.5775   56.5423 H   0  0  0  0  0  0  0  0  0  0  0  0
  129.1483  126.5429   57.5865 H   0  0  0  0  0  0  0  0  0  0  0  0
  130.8327  126.9365   57.0185 H   0  0  0  0  0  0  0  0  0  0  0  0
  130.3250  126.4515   54.7872 H   0  0  0  0  0  0  0  0  0  0  0  0
  125.3950  130.4180   54.9000 H   0  0  0  0  0  0  0  0  0  0  0  0
  131.7001  131.0470   53.7434 H   0  0  0  0  0  0  0  0  0  0  0  0
  131.2637  132.7628   54.1998 H   0  0  0  0  0  0  0  0  0  0  0  0
  133.8784  132.0994   54.9718 H   0  0  0  0  0  0  0  0  0  0  0  0
  135.0828  131.8808   57.1437 H   0  0  0  0  0  0  0  0  0  0  0  0
  133.8385  131.2259   59.2030 H   0  0  0  0  0  0  0  0  0  0  0  0
  130.1780  130.9980   56.9196 H   0  0  0  0  0  0  0  0  0  0  0  0
  127.4971  125.5064   55.4448 H   0  0  0  0  0  0  0  0  0  0  0  0
  128.4195  125.3915   53.8753 H   0  0  0  0  0  0  0  0  0  0  0  0
  128.2385  123.1856   55.1247 H   0  0  0  0  0  0  0  0  0  0  0  0
  129.9098  123.6950   54.7972 H   0  0  0  0  0  0  0  0  0  0  0  0
  1  2  2  0
  2  3  1  0
  3  4  1  0
  4  5  2  0
  5  6  1  0
  6  7  2  0
  7  8  1  0
  8  9  2  0
  3 10  1  0
 10 11  2  0
 11 12  1  0
 12 13  2  0
 13 14  1  0
 14 15  2  0
  2 16  1  0
 16 17  1  0
 17 18  1  0
 18 19  1  0
 19 20  1  0
 20 21  2  0
 21 22  1  0
 22 23  1  0
 22 24  2  0
 24 25  1  0
 25 26  2  0
 26 27  1  0
 27 28  1  0
 28 29  1  0
 29 30  2  0
 30 31  1  0
 31 32  2  0
 32 33  1  0
 33 34  1  0
 33 35  2  0
 27 36  1  0
 36 37  2  0
 19 38  1  0
 38 39  1  0
  9  4  1  0
 15 10  1  0
 39 16  1  0
 37 20  1  0
 36 24  1  0
 35 29  1  0
  3 40  1  0
  5 41  1  0
  6 42  1  0
  7 43  1  0
  8 44  1  0
  9 45  1  0
 11 46  1  0
 12 47  1  0
 13 48  1  0
 14 49  1  0
 15 50  1  0
 17 51  1  0
 17 52  1  0
 18 53  1  0
 18 54  1  0
 19 55  1  0
 23 56  1  0
 28 57  1  0
 28 58  1  0
 30 59  1  0
 31 60  1  0
 32 61  1  0
 35 62  1  0
 38 63  1  0
 38 64  1  0
 39 65  1  0
 39 66  1  0
M  END
>  <Binding energies>  (1) 
[-11.84]

>  <Ligand effiencies>  (1) 
[-0.296]

>  <Interactions>  (1) 
["V-B:PRO:540:N:9856, V-B:TYR:539:CZ:9849, V-B:ALA:541:CB:9864, V-B:PRO:540:CB:9857, V-B:PRO:540:CA:9855, V-B:PRO:540:C:9853, V-B:ALA:541:CA:9862, V-B:TYR:539:CE2:9848, V-A:LEU:475:CD2:4257, V-B:TYR:539:CE1:9847, V-B:TYR:539:CD1:9845, V-B:TYR:539:CD2:9846, V-A:TYR:539:CE1:4873, H-A:TYR:539:N:4868, V-A:ILE:538:CA:4858, V-A:TYR:531:CE2:4791, V-A:LEU:363:CA:3183, H-A:TYR:531:OH:4793, V-A:LEU:363:CD1:3187, V-A:ILE:538:CB:4860, V-A:PRO:540:CA:4881, V-A:ILE:538:CG2:4861, V-A:TYR:531:CZ:4792, V-A:PRO:540:CB:4883, V-B:ALA:541:C:9860, V-B:ARG:545:CZ:9898, V-B:ASN:362:CB:8148, H-B:TYR:539:N:9842, V-B:GLU:543:CD:9880, H-B:TYR:531:OH:9767, V-B:TYR:539:C:9839, V-A:LEU:363:CB:3185, V-A:MET:535:CG:4831, V-A:PRO:540:CD:4885, H-A:TYR:539:OH:4876, V-A:PRO:540:CG:4884"]

$$$$
RR27_Rahimova_2017-again1
     RDKit          3D

 66 71  0  0  0  0  0  0  0  0999 V2000
  126.7610  127.8360   57.2970 O   0  0  0  0  0  0  0  0  0  0  0  0
  127.4020  127.8980   56.2430 C   0  0  0  0  0  0  0  0  0  0  0  0
  127.9960  126.5790   55.6640 C   0  0  0  0  0  0  0  0  0  0  0  0
  127.0980  125.3570   55.9380 C   0  0  0  0  0  0  0  0  0  0  0  0
  126.7650  124.9540   57.2400 C   0  0  0  0  0  0  0  0  0  0  0  0
  125.9490  123.8450   57.4470 C   0  0  0  0  0  0  0  0  0  0  0  0
  125.4620  123.1330   56.3540 C   0  0  0  0  0  0  0  0  0  0  0  0
  125.7830  123.5200   55.0570 C   0  0  0  0  0  0  0  0  0  0  0  0
  126.5980  124.6300   54.8500 C   0  0  0  0  0  0  0  0  0  0  0  0
  129.4640  126.3740   56.0820 C   0  0  0  0  0  0  0  0  0  0  0  0
  130.3310  125.5610   55.3360 C   0  0  0  0  0  0  0  0  0  0  0  0
  131.6490  125.3740   55.7450 C   0  0  0  0  0  0  0  0  0  0  0  0
  132.1080  126.0010   56.9000 C   0  0  0  0  0  0  0  0  0  0  0  0
  131.2600  126.8100   57.6510 C   0  0  0  0  0  0  0  0  0  0  0  0
  129.9400  126.9900   57.2470 C   0  0  0  0  0  0  0  0  0  0  0  0
  127.4540  129.0510   55.5140 N   0  0  0  0  0  0  0  0  0  0  0  0
  128.4060  129.2800   54.4190 C   0  0  0  0  0  0  0  0  0  0  0  0
  129.7230  129.7990   55.0410 C   0  0  0  0  0  0  0  0  0  0  0  0
  129.5660  130.8900   56.1520 C   0  0  0  0  0  0  0  0  0  0  0  0
  130.7370  130.9300   57.1390 C   0  0  0  0  0  0  0  0  0  0  0  0
  130.5240  131.0630   58.4100 N   0  0  0  0  0  0  0  0  0  0  0  0
  131.6380  131.0920   59.1920 C   0  0  0  0  0  0  0  0  0  0  0  0
  132.9510  130.9980   58.7550 C   0  0  0  0  0  0  0  0  0  0  0  0
  133.7840  131.0730   59.7790 N   0  0  0  0  0  0  0  0  0  0  0  0
  133.0160  131.2180   60.9300 N   0  0  0  0  0  0  0  0  0  0  0  0
  131.7260  131.2100   60.5540 N   0  0  0  0  0  0  0  0  0  0  0  0
  130.6590  131.3660   61.5350 C   0  0  0  0  0  0  0  0  0  0  0  0
  129.2790  131.5040   60.9100 C   0  0  0  0  0  0  0  0  0  0  0  0
  128.8080  132.7620   60.5190 C   0  0  0  0  0  0  0  0  0  0  0  0
  127.5390  132.8930   59.9540 C   0  0  0  0  0  0  0  0  0  0  0  0
  126.7360  131.7670   59.7730 C   0  0  0  0  0  0  0  0  0  0  0  0
  127.2020  130.5090   60.1560 C   0  0  0  0  0  0  0  0  0  0  0  0
  126.2060  129.1170   59.9360 Cl  0  0  0  0  0  0  0  0  0  0  0  0
  128.4710  130.3770   60.7200 C   0  0  0  0  0  0  0  0  0  0  0  0
  133.2190  130.8410   57.3250 C   0  0  0  0  0  0  0  0  0  0  0  0
  134.3030  130.7380   56.7560 O   0  0  0  0  0  0  0  0  0  0  0  0
  132.0280  130.8190   56.6310 N   0  0  0  0  0  0  0  0  0  0  0  0
  128.1820  130.9360   56.8750 C   0  0  0  0  0  0  0  0  0  0  0  0
  126.9900  130.3140   56.1060 C   0  0  0  0  0  0  0  0  0  0  0  0
  128.0103  126.6851   54.5692 H   0  0  0  0  0  0  0  0  0  0  0  0
  127.1509  125.5175   58.1023 H   0  0  0  0  0  0  0  0  0  0  0  0
  125.6902  123.5327   58.4695 H   0  0  0  0  0  0  0  0  0  0  0  0
  124.8176  122.2566   56.5176 H   0  0  0  0  0  0  0  0  0  0  0  0
  125.3948  122.9518   54.1988 H   0  0  0  0  0  0  0  0  0  0  0  0
  126.8510  124.9381   53.8248 H   0  0  0  0  0  0  0  0  0  0  0  0
  129.9672  125.0682   54.4223 H   0  0  0  0  0  0  0  0  0  0  0  0
  132.3242  124.7339   55.1582 H   0  0  0  0  0  0  0  0  0  0  0  0
  133.1498  125.8559   57.2220 H   0  0  0  0  0  0  0  0  0  0  0  0
  131.6315  127.3052   58.5603 H   0  0  0  0  0  0  0  0  0  0  0  0
  129.2662  127.6200   57.8463 H   0  0  0  0  0  0  0  0  0  0  0  0
  128.5914  128.3387   53.8809 H   0  0  0  0  0  0  0  0  0  0  0  0
  128.0024  130.0130   53.7049 H   0  0  0  0  0  0  0  0  0  0  0  0
  130.2494  128.9401   55.4829 H   0  0  0  0  0  0  0  0  0  0  0  0
  130.2711  130.2843   54.2200 H   0  0  0  0  0  0  0  0  0  0  0  0
  129.5970  131.8249   55.5732 H   0  0  0  0  0  0  0  0  0  0  0  0
  130.6576  130.4837   62.1919 H   0  0  0  0  0  0  0  0  0  0  0  0
  130.8595  132.2957   62.0878 H   0  0  0  0  0  0  0  0  0  0  0  0
  129.4405  133.6512   60.6575 H   0  0  0  0  0  0  0  0  0  0  0  0
  127.1717  133.8847   59.6512 H   0  0  0  0  0  0  0  0  0  0  0  0
  125.7353  131.8709   59.3283 H   0  0  0  0  0  0  0  0  0  0  0  0
  128.8381  129.3834   61.0166 H   0  0  0  0  0  0  0  0  0  0  0  0
  132.1240  130.7150   55.6310 H   0  0  0  0  0  0  0  0  0  0  0  0
  128.2834  130.3984   57.8293 H   0  0  0  0  0  0  0  0  0  0  0  0
  127.9398  132.0037   56.9815 H   0  0  0  0  0  0  0  0  0  0  0  0
  126.1571  130.1203   56.7980 H   0  0  0  0  0  0  0  0  0  0  0  0
  126.6347  131.0003   55.3232 H   0  0  0  0  0  0  0  0  0  0  0  0
  1  2  2  0
  2  3  1  0
  3  4  1  0
  4  5  2  0
  5  6  1  0
  6  7  2  0
  7  8  1  0
  8  9  2  0
  3 10  1  0
 10 11  2  0
 11 12  1  0
 12 13  2  0
 13 14  1  0
 14 15  2  0
  2 16  1  0
 16 17  1  0
 17 18  1  0
 18 19  1  0
 19 20  1  0
 20 21  2  0
 21 22  1  0
 22 23  2  0
 23 24  1  0
 24 25  2  0
 25 26  1  0
 26 27  1  0
 27 28  1  0
 28 29  2  0
 29 30  1  0
 30 31  2  0
 31 32  1  0
 32 33  1  0
 32 34  2  0
 23 35  1  0
 35 36  2  0
 35 37  1  0
 19 38  1  0
 38 39  1  0
  9  4  1  0
 15 10  1  0
 39 16  1  0
 37 20  1  0
 26 22  1  0
 34 28  1  0
  3 40  1  0
  5 41  1  0
  6 42  1  0
  7 43  1  0
  8 44  1  0
  9 45  1  0
 11 46  1  0
 12 47  1  0
 13 48  1  0
 14 49  1  0
 15 50  1  0
 17 51  1  0
 17 52  1  0
 18 53  1  0
 18 54  1  0
 19 55  1  0
 27 56  1  0
 27 57  1  0
 29 58  1  0
 30 59  1  0
 31 60  1  0
 34 61  1  0
 37 62  1  0
 38 63  1  0
 38 64  1  0
 39 65  1  0
 39 66  1  0
M  END
>  <Binding energies>  (1) 
[-10.36]

>  <Ligand effiencies>  (1) 
[-0.259]

>  <Interactions>  (1) 
["V-B:PRO:540:N:9856, V-B:TYR:539:CZ:9849, V-B:ILE:538:CA:9832, V-B:ASP:366:CG:8185, V-B:PRO:540:CA:9855, V-A:TYR:539:CE1:4873, V-A:ASP:366:CG:3211, V-A:TYR:539:CZ:4875, V-A:TYR:531:CE2:4791, H-A:TYR:531:OH:4793, V-A:ASP:366:CB:3210, V-A:TYR:539:C:4865, V-A:PRO:540:CA:4881, V-A:TYR:531:CZ:4792, V-A:GLU:543:CD:4906, V-A:PRO:540:CB:4883, V-B:TYR:531:CZ:9766, H-B:TYR:531:OH:9767, V-B:ILE:538:CG2:9835, V-B:PRO:540:CD:9859, V-B:ILE:538:CB:9834, V-A:TYR:539:CE2:4874, V-A:ALA:541:CB:4890, H-A:ARG:545:NH2:4926, H-A:LEU:363:N:3184, V-A:TYR:531:CE1:4790, V-A:PRO:540:C:4879, V-A:TYR:539:CD2:4872, V-B:MET:535:CG:9805"]

$$$$
RR28_Rahimova_2017
     RDKit          3D

 82 85  0  0  0  0  0  0  0  0999 V2000
  133.9850  131.7080   56.8200 C   0  0  0  0  0  0  0  0  0  0  0  0
  132.4750  131.4980   56.8600 C   0  0  0  0  0  0  0  0  0  0  0  0
  131.7430  132.2270   56.1930 O   0  0  0  0  0  0  0  0  0  0  0  0
  132.0320  130.4970   57.6470 N   0  0  0  0  0  0  0  0  0  0  0  0
  130.6350  130.0710   57.8870 C   0  0  0  0  0  0  0  0  0  0  0  0
  130.4110  128.7110   57.1660 C   0  0  0  0  0  0  0  0  0  0  0  0
  129.6230  128.6690   56.0050 C   0  0  0  0  0  0  0  0  0  0  0  0
  129.3970  127.4700   55.3360 C   0  0  0  0  0  0  0  0  0  0  0  0
  129.9550  126.2830   55.8140 C   0  0  0  0  0  0  0  0  0  0  0  0
  129.6920  124.9740   55.0690 C   0  0  0  0  0  0  0  0  0  0  0  0
  130.6980  124.6440   54.2560 F   0  0  0  0  0  0  0  0  0  0  0  0
  129.5180  123.9760   55.9350 F   0  0  0  0  0  0  0  0  0  0  0  0
  128.5870  125.1020   54.3340 F   0  0  0  0  0  0  0  0  0  0  0  0
  130.7400  126.3100   56.9700 C   0  0  0  0  0  0  0  0  0  0  0  0
  130.9650  127.5110   57.6380 C   0  0  0  0  0  0  0  0  0  0  0  0
  129.6320  131.1950   57.4410 C   0  0  0  0  0  0  0  0  0  0  0  0
  129.7380  132.4850   58.2940 C   0  0  0  0  0  0  0  0  0  0  0  0
  129.4720  132.0860   59.6860 N   0  0  0  0  0  0  0  0  0  0  0  0
  128.2130  132.1700   60.1970 C   0  0  0  0  0  0  0  0  0  0  0  0
  127.2970  132.7290   59.5900 O   0  0  0  0  0  0  0  0  0  0  0  0
  127.9620  131.6970   61.6490 C   0  0  0  0  0  0  0  0  0  0  0  0
  127.0970  130.4160   61.8050 C   0  0  0  0  0  0  0  0  0  0  0  0
  127.0030  129.5290   60.5410 C   0  0  0  0  0  0  0  0  0  0  0  0
  126.1160  129.7840   59.7210 O   0  0  0  0  0  0  0  0  0  0  0  0
  127.9650  128.5950   60.2970 N   0  0  0  0  0  0  0  0  0  0  0  0
  128.8320  128.0380   61.3420 C   0  0  0  0  0  0  0  0  0  0  0  0
  128.0550  126.8660   61.9810 C   0  0  0  0  0  0  0  0  0  0  0  0
  127.5980  125.7540   60.9730 C   0  0  0  0  0  0  0  0  0  0  0  0
  126.5510  124.9250   61.6070 N   0  0  0  0  0  0  0  0  0  0  0  0
  125.5510  124.2480   61.0090 C   0  0  0  0  0  0  0  0  0  0  0  0
  124.6030  123.4880   61.9320 C   0  0  0  0  0  0  0  0  0  0  0  0
  125.3710  124.2160   59.7930 O   0  0  0  0  0  0  0  0  0  0  0  0
  128.8310  124.8310   60.7030 C   0  0  0  0  0  0  0  0  0  0  0  0
  128.8520  123.8690   59.6800 C   0  0  0  0  0  0  0  0  0  0  0  0
  129.9710  123.0670   59.4720 C   0  0  0  0  0  0  0  0  0  0  0  0
  131.0980  123.2050   60.2850 C   0  0  0  0  0  0  0  0  0  0  0  0
  132.3360  122.3350   60.0670 C   0  0  0  0  0  0  0  0  0  0  0  0
  131.9860  121.0660   59.8510 F   0  0  0  0  0  0  0  0  0  0  0  0
  133.0000  122.7810   59.0010 F   0  0  0  0  0  0  0  0  0  0  0  0
  133.1600  122.3620   61.1160 F   0  0  0  0  0  0  0  0  0  0  0  0
  131.0900  124.1510   61.3110 C   0  0  0  0  0  0  0  0  0  0  0  0
  129.9700  124.9510   61.5160 C   0  0  0  0  0  0  0  0  0  0  0  0
  127.0400  126.4420   59.6680 C   0  0  0  0  0  0  0  0  0  0  0  0
  127.8290  127.6780   59.1580 C   0  0  0  0  0  0  0  0  0  0  0  0
  130.4930  131.1850   60.2390 C   0  0  0  0  0  0  0  0  0  0  0  0
  130.4270  129.8680   59.4230 C   0  0  0  0  0  0  0  0  0  0  0  0
  134.3750  131.7622   57.8471 H   0  0  0  0  0  0  0  0  0  0  0  0
  134.4583  130.8670   56.2920 H   0  0  0  0  0  0  0  0  0  0  0  0
  134.2109  132.6462   56.2920 H   0  0  0  0  0  0  0  0  0  0  0  0
  132.7260  129.9780   58.1640 H   0  0  0  0  0  0  0  0  0  0  0  0
  129.1776  129.5976   55.6184 H   0  0  0  0  0  0  0  0  0  0  0  0
  128.7767  127.4574   54.4277 H   0  0  0  0  0  0  0  0  0  0  0  0
  131.1820  125.3787   57.3538 H   0  0  0  0  0  0  0  0  0  0  0  0
  131.5846  127.5192   58.5469 H   0  0  0  0  0  0  0  0  0  0  0  0
  129.8397  131.4521   56.3918 H   0  0  0  0  0  0  0  0  0  0  0  0
  128.6155  130.7972   57.5768 H   0  0  0  0  0  0  0  0  0  0  0  0
  130.7463  132.9162   58.2079 H   0  0  0  0  0  0  0  0  0  0  0  0
  129.0220  133.2478   57.9541 H   0  0  0  0  0  0  0  0  0  0  0  0
  128.9397  131.5022   62.1138 H   0  0  0  0  0  0  0  0  0  0  0  0
  127.3893  132.5035   62.1302 H   0  0  0  0  0  0  0  0  0  0  0  0
  127.5288  129.8100   62.6151 H   0  0  0  0  0  0  0  0  0  0  0  0
  126.0736  130.7612   62.0135 H   0  0  0  0  0  0  0  0  0  0  0  0
  129.7722  127.6748   60.9015 H   0  0  0  0  0  0  0  0  0  0  0  0
  129.0888  128.8001   62.0926 H   0  0  0  0  0  0  0  0  0  0  0  0
  128.7024  126.3977   62.7371 H   0  0  0  0  0  0  0  0  0  0  0  0
  127.1360  127.2974   62.4046 H   0  0  0  0  0  0  0  0  0  0  0  0
  126.5810  124.9040   62.6160 H   0  0  0  0  0  0  0  0  0  0  0  0
  124.8647  123.6978   62.9796 H   0  0  0  0  0  0  0  0  0  0  0  0
  123.5687  123.8099   61.7409 H   0  0  0  0  0  0  0  0  0  0  0  0
  124.6922  122.4084   61.7409 H   0  0  0  0  0  0  0  0  0  0  0  0
  127.9707  123.7472   59.0330 H   0  0  0  0  0  0  0  0  0  0  0  0
  129.9673  122.3212   58.6635 H   0  0  0  0  0  0  0  0  0  0  0  0
  131.9713  124.2645   61.9593 H   0  0  0  0  0  0  0  0  0  0  0  0
  129.9768  125.6910   62.3298 H   0  0  0  0  0  0  0  0  0  0  0  0
  127.0383  125.6896   58.8656 H   0  0  0  0  0  0  0  0  0  0  0  0
  126.0415  126.8181   59.9355 H   0  0  0  0  0  0  0  0  0  0  0  0
  128.8222  127.3711   58.7984 H   0  0  0  0  0  0  0  0  0  0  0  0
  127.3045  128.1631   58.3216 H   0  0  0  0  0  0  0  0  0  0  0  0
  131.4900  131.6395   60.1423 H   0  0  0  0  0  0  0  0  0  0  0  0
  130.3107  130.9942   61.3069 H   0  0  0  0  0  0  0  0  0  0  0  0
  131.2103  129.1902   59.7932 H   0  0  0  0  0  0  0  0  0  0  0  0
  129.4167  129.4549   59.5594 H   0  0  0  0  0  0  0  0  0  0  0  0
  1  2  1  0
  2  3  2  0
  2  4  1  0
  4  5  1  0
  5  6  1  0
  6  7  2  0
  7  8  1  0
  8  9  2  0
  9 10  1  0
 10 11  1  0
 10 12  1  0
 10 13  1  0
  9 14  1  0
 14 15  2  0
  5 16  1  0
 16 17  1  0
 17 18  1  0
 18 19  1  0
 19 20  2  0
 19 21  1  0
 21 22  1  0
 22 23  1  0
 23 24  2  0
 23 25  1  0
 25 26  1  0
 26 27  1  0
 27 28  1  0
 28 29  1  0
 29 30  1  0
 30 31  1  0
 30 32  2  0
 28 33  1  0
 33 34  2  0
 34 35  1  0
 35 36  2  0
 36 37  1  0
 37 38  1  0
 37 39  1  0
 37 40  1  0
 36 41  1  0
 41 42  2  0
 28 43  1  0
 43 44  1  0
 18 45  1  0
 45 46  1  0
 46  5  1  0
 15  6  1  0
 44 25  1  0
 42 33  1  0
  1 47  1  0
  1 48  1  0
  1 49  1  0
  4 50  1  0
  7 51  1  0
  8 52  1  0
 14 53  1  0
 15 54  1  0
 16 55  1  0
 16 56  1  0
 17 57  1  0
 17 58  1  0
 21 59  1  0
 21 60  1  0
 22 61  1  0
 22 62  1  0
 26 63  1  0
 26 64  1  0
 27 65  1  0
 27 66  1  0
 29 67  1  0
 31 68  1  0
 31 69  1  0
 31 70  1  0
 34 71  1  0
 35 72  1  0
 41 73  1  0
 42 74  1  0
 43 75  1  0
 43 76  1  0
 44 77  1  0
 44 78  1  0
 45 79  1  0
 45 80  1  0
 46 81  1  0
 46 82  1  0
M  END
>  <Binding energies>  (1) 
[-8.43]

>  <Ligand effiencies>  (1) 
[-0.175625]

>  <Interactions>  (1) 
["H-B:GLU:543:OE1:9881, V-B:TYR:539:CZ:9849, V-A:TRP:381:CH2:3370, V-B:PRO:540:CB:9857, V-B:PRO:540:CA:9855, V-B:PRO:540:C:9853, V-B:TYR:539:CE2:9848, V-A:LEU:475:CD2:4257, V-B:TYR:539:CE1:9847, V-B:TYR:539:CD1:9845, V-B:TYR:539:CD2:9846, V-A:ASP:366:CG:3211, V-A:PRO:540:N:4882, H-A:TYR:539:N:4868, V-A:TYR:531:CE2:4791, V-A:LEU:363:CA:3183, H-A:TYR:531:OH:4793, V-A:TYR:539:C:4865, V-A:LEU:363:CD1:3187, V-A:PRO:540:CA:4881, V-A:PRO:540:CB:4883, V-B:ALA:541:C:9860, V-B:ASN:362:CB:8148, V-B:GLU:543:CD:9880, H-B:GLU:543:OE2:9882, V-A:LEU:363:CB:3185, H-A:ASP:366:OD2:3213, V-A:PRO:540:CD:4885, V-A:TYR:539:CA:4867, V-A:ALA:541:CB:4890, V-A:ILE:369:CG2:3235, V-A:ILE:369:CD1:3237, V-A:PRO:540:CG:4884, V-A:LEU:363:CG:3186, V-B:ASN:362:CG:8149"]

$$$$
RR29_Rahimova_2017
     RDKit          3D

 35 36  0  0  0  0  0  0  0  0999 V2000
  130.7210  121.1120   61.0560 C   0  0  0  0  0  0  0  0  0  0  0  0
  130.1780  122.4120   61.6310 C   0  0  0  0  0  0  0  0  0  0  0  0
  128.8640  122.8660   60.9590 C   0  0  0  0  0  0  0  0  0  0  0  0
  128.9800  122.8670   59.4200 C   0  0  0  0  0  0  0  0  0  0  0  0
  127.6530  123.1690   58.7410 C   0  0  0  0  0  0  0  0  0  0  0  0
  126.6450  123.8600   59.4420 C   0  0  0  0  0  0  0  0  0  0  0  0
  125.4150  124.1490   58.8350 C   0  0  0  0  0  0  0  0  0  0  0  0
  125.2280  123.7200   57.5260 C   0  0  0  0  0  0  0  0  0  0  0  0
  126.2010  123.0480   56.8420 C   0  0  0  0  0  0  0  0  0  0  0  0
  127.4340  122.7560   57.4150 C   0  0  0  0  0  0  0  0  0  0  0  0
  125.7640  122.7830   55.5820 O   0  0  0  0  0  0  0  0  0  0  0  0
  124.4030  123.1240   55.5740 C   0  0  0  0  0  0  0  0  0  0  0  0
  124.1500  123.8980   56.7170 O   0  0  0  0  0  0  0  0  0  0  0  0
  130.8340  122.9900   62.5680 N   0  0  0  0  0  0  0  0  0  0  0  0
  130.3910  124.2100   63.0310 N   0  0  0  0  0  0  0  0  0  0  0  0
  131.0420  124.9490   63.9440 C   0  0  0  0  0  0  0  0  0  0  0  0
  132.2040  124.6150   64.5070 N   0  0  0  0  0  0  0  0  0  0  0  0
  130.4930  126.0960   64.3140 N   0  0  0  0  0  0  0  0  0  0  0  0
  131.0029  120.4371   61.8776 H   0  0  0  0  0  0  0  0  0  0  0  0
  129.9476  120.6334   60.4373 H   0  0  0  0  0  0  0  0  0  0  0  0
  131.6051  121.3257   60.4373 H   0  0  0  0  0  0  0  0  0  0  0  0
  128.0567  122.1800   61.2551 H   0  0  0  0  0  0  0  0  0  0  0  0
  128.6486  123.8936   61.2871 H   0  0  0  0  0  0  0  0  0  0  0  0
  129.7123  123.6314   59.1210 H   0  0  0  0  0  0  0  0  0  0  0  0
  129.2974  121.8617   59.1059 H   0  0  0  0  0  0  0  0  0  0  0  0
  126.8257  124.1770   60.4797 H   0  0  0  0  0  0  0  0  0  0  0  0
  124.6270  124.6950   59.3744 H   0  0  0  0  0  0  0  0  0  0  0  0
  128.2112  122.2203   56.8502 H   0  0  0  0  0  0  0  0  0  0  0  0
  124.1674  123.7038   54.6694 H   0  0  0  0  0  0  0  0  0  0  0  0
  123.7790  122.2181   55.5764 H   0  0  0  0  0  0  0  0  0  0  0  0
  129.5070  124.5380   62.6700 H   0  0  0  0  0  0  0  0  0  0  0  0
  132.7860  125.3230   64.9300 H   0  0  0  0  0  0  0  0  0  0  0  0
  132.5010  123.6500   64.4980 H   0  0  0  0  0  0  0  0  0  0  0  0
  129.5030  126.2490   64.1820 H   0  0  0  0  0  0  0  0  0  0  0  0
  131.0640  126.8150   64.7350 H   0  0  0  0  0  0  0  0  0  0  0  0
  1  2  1  0
  2  3  1  0
  3  4  1  0
  4  5  1  0
  5  6  2  0
  6  7  1  0
  7  8  2  0
  8  9  1  0
  9 10  2  0
  9 11  1  0
 11 12  1  0
 12 13  1  0
  2 14  2  0
 14 15  1  0
 15 16  1  0
 16 17  1  0
 16 18  2  0
 10  5  1  0
 13  8  1  0
  1 19  1  0
  1 20  1  0
  1 21  1  0
  3 22  1  0
  3 23  1  0
  4 24  1  0
  4 25  1  0
  6 26  1  0
  7 27  1  0
 10 28  1  0
 12 29  1  0
 12 30  1  0
 15 31  1  0
 17 32  1  0
 17 33  1  0
 18 34  1  0
 18 35  1  0
M  CHG  1  18   1
M  END
>  <Binding energies>  (1) 
[-7.31]

>  <Ligand effiencies>  (1) 
[-0.3178260869565217]

>  <Interactions>  (1) 
["V-B:PRO:540:N:9856, H-B:GLU:543:OE1:9881, V-B:ILE:538:CA:9832, V-B:ALA:541:CB:9864, V-B:PRO:540:CB:9857, V-B:PRO:540:CA:9855, V-B:TYR:539:CE2:9848, V-A:LEU:475:CD2:4257, V-B:TYR:539:CD2:9846, V-A:GLU:543:CD:4906, V-B:TYR:531:CE2:9765, V-B:LEU:363:CD1:8161, V-B:TYR:531:CZ:9766, H-B:TYR:539:N:9842, V-B:GLU:543:CD:9880, H-B:TYR:531:OH:9767, V-B:TYR:539:C:9839, V-B:ILE:538:CG2:9835, V-B:PRO:540:CD:9859, V-B:ILE:538:CB:9834, H-B:GLU:543:OE2:9882, H-A:GLU:543:OE2:4908, H-A:TYR:484:OH:4346, V-B:TYR:539:CG:9844, V-B:TYR:539:CA:9841, V-A:TYR:484:CZ:4345"]

$$$$
RR29_Rahimova_2017-again1
     RDKit          3D

 34 35  0  0  0  0  0  0  0  0999 V2000
  132.6270  123.7930   75.1070 C   0  0  0  0  0  0  0  0  0  0  0  0
  131.5280  123.8800   74.0590 C   0  0  0  0  0  0  0  0  0  0  0  0
  131.1760  122.5210   73.4250 C   0  0  0  0  0  0  0  0  0  0  0  0
  129.7870  122.0260   73.8800 C   0  0  0  0  0  0  0  0  0  0  0  0
  129.1040  121.1720   72.8220 C   0  0  0  0  0  0  0  0  0  0  0  0
  128.9800  121.6530   71.5040 C   0  0  0  0  0  0  0  0  0  0  0  0
  128.3560  120.8830   70.5120 C   0  0  0  0  0  0  0  0  0  0  0  0
  127.8600  119.6370   70.8820 C   0  0  0  0  0  0  0  0  0  0  0  0
  127.9760  119.1670   72.1610 C   0  0  0  0  0  0  0  0  0  0  0  0
  128.5980  119.9060   73.1610 C   0  0  0  0  0  0  0  0  0  0  0  0
  127.4380  117.9210   72.2310 O   0  0  0  0  0  0  0  0  0  0  0  0
  126.7890  117.7200   71.0040 C   0  0  0  0  0  0  0  0  0  0  0  0
  127.2460  118.7010   70.1130 O   0  0  0  0  0  0  0  0  0  0  0  0
  131.0130  125.0260   73.7820 N   0  0  0  0  0  0  0  0  0  0  0  0
  130.1010  125.0600   72.8640 N   0  0  0  0  0  0  0  0  0  0  0  0
  129.9340  126.1690   72.2400 C   0  0  0  0  0  0  0  0  0  0  0  0
  130.6310  127.3950   72.4290 N   0  0  0  0  0  0  0  0  0  0  0  0
  128.9660  126.2960   71.2210 N   0  0  0  0  0  0  0  0  0  0  0  0
  132.1796  123.8284   76.1113 H   0  0  0  0  0  0  0  0  0  0  0  0
  133.1772  122.8485   74.9838 H   0  0  0  0  0  0  0  0  0  0  0  0
  133.3190  124.6392   74.9838 H   0  0  0  0  0  0  0  0  0  0  0  0
  131.1765  122.6268   72.3301 H   0  0  0  0  0  0  0  0  0  0  0  0
  131.9270  121.7851   73.7483 H   0  0  0  0  0  0  0  0  0  0  0  0
  129.9070  121.4271   74.7949 H   0  0  0  0  0  0  0  0  0  0  0  0
  129.1564  122.9095   74.0584 H   0  0  0  0  0  0  0  0  0  0  0  0
  129.3781  122.6463   71.2494 H   0  0  0  0  0  0  0  0  0  0  0  0
  128.2622  121.2506   69.4795 H   0  0  0  0  0  0  0  0  0  0  0  0
  128.6909  119.5124   74.1840 H   0  0  0  0  0  0  0  0  0  0  0  0
  127.0274  116.7195   70.6138 H   0  0  0  0  0  0  0  0  0  0  0  0
  125.6985  117.7920   71.1292 H   0  0  0  0  0  0  0  0  0  0  0  0
  131.3590  127.4960   73.1220 H   0  0  0  0  0  0  0  0  0  0  0  0
  130.4280  128.2220   71.8900 H   0  0  0  0  0  0  0  0  0  0  0  0
  128.3690  125.5290   70.9490 H   0  0  0  0  0  0  0  0  0  0  0  0
  128.8160  127.1590   70.7210 H   0  0  0  0  0  0  0  0  0  0  0  0
  1  2  1  0
  2  3  1  0
  3  4  1  0
  4  5  1  0
  5  6  2  0
  6  7  1  0
  7  8  2  0
  8  9  1  0
  9 10  2  0
  9 11  1  0
 11 12  1  0
 12 13  1  0
  2 14  2  0
 14 15  1  0
 15 16  2  0
 16 17  1  0
 16 18  1  0
 10  5  1  0
 13  8  1  0
  1 19  1  0
  1 20  1  0
  1 21  1  0
  3 22  1  0
  3 23  1  0
  4 24  1  0
  4 25  1  0
  6 26  1  0
  7 27  1  0
 10 28  1  0
 12 29  1  0
 12 30  1  0
 17 31  1  0
 17 32  1  0
 18 33  1  0
 18 34  1  0
M  END
>  <Binding energies>  (1) 
[-6.79]

>  <Ligand effiencies>  (1) 
[-0.30863636363636365]

>  <Interactions>  (1) 
["V-A:LYS:471:CE:4218, H-B:GLY:544:O:9885, V-A:HIS:456:CB:4063, V-A:HIS:456:CD2:4066, V-B:GLY:544:C:9884, H-A:GLY:544:O:4911, V-A:HIS:456:CG:4064, V-A:LYS:547:CE:4948, V-A:ASP:473:CG:4238, V-A:LYS:471:CD:4217, H-B:LYS:547:NZ:9923, H-A:HIS:456:NE2:4069, V-A:GLY:544:C:4910, V-B:LYS:547:CE:9922, V-B:GLY:544:CA:9886, H-B:GLU:543:O:9875, V-B:GLU:543:C:9874, V-A:GLY:544:CA:4912, H-A:GLU:543:O:4901, V-A:TYR:484:CG:4340, V-A:TYR:484:CB:4339, V-B:VAL:542:C:9866, V-B:VAL:542:CG1:9871, V-B:GLU:543:CA:9876, V-A:TYR:484:CD1:4341, V-A:TYR:484:C:4335, H-A:TYR:484:N:4338, V-A:SER:483:CB:4331, V-A:TYR:484:CA:4337"]

$$$$
RR2_Rahimova_2017
     RDKit          3D

 76 80  0  0  0  0  0  0  0  0999 V2000
  124.7300  123.8660   62.2300 C   0  0  0  0  0  0  0  0  0  0  0  0
  125.7470  123.2140   61.4780 O   0  0  0  0  0  0  0  0  0  0  0  0
  126.2450  123.8270   60.3430 C   0  0  0  0  0  0  0  0  0  0  0  0
  127.5620  124.2860   60.2050 C   0  0  0  0  0  0  0  0  0  0  0  0
  127.9740  124.8960   59.0230 C   0  0  0  0  0  0  0  0  0  0  0  0
  127.0810  125.0650   57.9560 C   0  0  0  0  0  0  0  0  0  0  0  0
  127.5530  125.7380   56.6820 C   0  0  0  0  0  0  0  0  0  0  0  0
  128.4590  125.2340   56.0090 O   0  0  0  0  0  0  0  0  0  0  0  0
  126.9340  126.8990   56.3640 N   0  0  0  0  0  0  0  0  0  0  0  0
  127.3920  127.6060   55.2570 N   0  0  0  0  0  0  0  0  0  0  0  0
  126.8710  128.8260   55.0200 C   0  0  0  0  0  0  0  0  0  0  0  0
  125.8910  129.3010   55.6010 O   0  0  0  0  0  0  0  0  0  0  0  0
  127.5980  129.6600   53.9550 C   0  0  0  0  0  0  0  0  0  0  0  0
  129.2440  130.2870   54.4530 S   0  0  0  0  0  0  0  0  0  0  0  0
  129.8620  128.8990   55.3560 C   0  0  0  0  0  0  0  0  0  0  0  0
  130.1090  127.7400   54.8000 N   0  0  0  0  0  0  0  0  0  0  0  0
  130.5070  126.8710   55.8070 N   0  0  0  0  0  0  0  0  0  0  0  0
  130.5140  127.5480   56.9310 C   0  0  0  0  0  0  0  0  0  0  0  0
  130.9070  126.9540   58.2450 C   0  0  0  0  0  0  0  0  0  0  0  0
  131.6840  125.7930   58.2780 C   0  0  0  0  0  0  0  0  0  0  0  0
  132.0490  125.2290   59.4960 C   0  0  0  0  0  0  0  0  0  0  0  0
  131.6540  125.8310   60.6960 C   0  0  0  0  0  0  0  0  0  0  0  0
  131.9830  125.3010   61.9530 N   0  0  0  0  0  0  0  0  0  0  0  0
  133.1280  123.9680   62.2200 S   0  0  0  0  0  0  0  0  0  0  0  0
  133.2470  123.8230   63.6760 O   0  0  0  0  0  0  0  0  0  0  0  0
  134.3130  124.2120   61.3890 O   0  0  0  0  0  0  0  0  0  0  0  0
  132.2890  122.5020   61.6230 C   0  0  0  0  0  0  0  0  0  0  0  0
  132.9660  121.5640   60.8410 C   0  0  0  0  0  0  0  0  0  0  0  0
  132.2910  120.4390   60.3730 C   0  0  0  0  0  0  0  0  0  0  0  0
  130.9440  120.2500   60.6930 C   0  0  0  0  0  0  0  0  0  0  0  0
  130.2070  119.0310   60.1700 C   0  0  0  0  0  0  0  0  0  0  0  0
  130.2700  121.1920   61.4730 C   0  0  0  0  0  0  0  0  0  0  0  0
  130.9430  122.3180   61.9390 C   0  0  0  0  0  0  0  0  0  0  0  0
  130.8810  126.9920   60.6620 C   0  0  0  0  0  0  0  0  0  0  0  0
  130.5100  127.5540   59.4440 C   0  0  0  0  0  0  0  0  0  0  0  0
  130.1060  128.8540   56.7160 N   0  0  0  0  0  0  0  0  0  0  0  0
  129.9350  129.8860   57.6620 C   0  0  0  0  0  0  0  0  0  0  0  0
  128.6510  130.3150   58.0000 C   0  0  0  0  0  0  0  0  0  0  0  0
  128.4890  131.3300   58.9380 C   0  0  0  0  0  0  0  0  0  0  0  0
  129.5980  131.9250   59.5410 C   0  0  0  0  0  0  0  0  0  0  0  0
  129.3370  132.9250   60.4570 O   0  0  0  0  0  0  0  0  0  0  0  0
  127.9880  133.1980   60.8230 C   0  0  0  0  0  0  0  0  0  0  0  0
  130.8870  131.4880   59.1930 C   0  0  0  0  0  0  0  0  0  0  0  0
  131.0550  130.4710   58.2580 C   0  0  0  0  0  0  0  0  0  0  0  0
  125.7660  124.5980   58.0990 C   0  0  0  0  0  0  0  0  0  0  0  0
  125.3570  123.9870   59.2810 C   0  0  0  0  0  0  0  0  0  0  0  0
  124.9293  123.7382   63.3042 H   0  0  0  0  0  0  0  0  0  0  0  0
  124.7220  124.9380   61.9835 H   0  0  0  0  0  0  0  0  0  0  0  0
  123.7525  123.4258   61.9835 H   0  0  0  0  0  0  0  0  0  0  0  0
  128.2738  124.1638   61.0347 H   0  0  0  0  0  0  0  0  0  0  0  0
  129.0113  125.2490   58.9256 H   0  0  0  0  0  0  0  0  0  0  0  0
  126.5710  127.5160   57.0770 H   0  0  0  0  0  0  0  0  0  0  0  0
  128.3170  127.3270   54.9600 H   0  0  0  0  0  0  0  0  0  0  0  0
  127.7282  129.0327   53.0608 H   0  0  0  0  0  0  0  0  0  0  0  0
  126.9717  130.5471   53.7793 H   0  0  0  0  0  0  0  0  0  0  0  0
  132.0081  125.3235   57.3375 H   0  0  0  0  0  0  0  0  0  0  0  0
  132.6495  124.3076   59.5160 H   0  0  0  0  0  0  0  0  0  0  0  0
  131.5590  125.7230   62.7660 H   0  0  0  0  0  0  0  0  0  0  0  0
  134.0279  121.7128   60.5956 H   0  0  0  0  0  0  0  0  0  0  0  0
  132.8180  119.6998   59.7519 H   0  0  0  0  0  0  0  0  0  0  0  0
  129.8440  118.4306   61.0172 H   0  0  0  0  0  0  0  0  0  0  0  0
  129.3528  119.3541   59.5569 H   0  0  0  0  0  0  0  0  0  0  0  0
  130.8900  118.4247   59.5569 H   0  0  0  0  0  0  0  0  0  0  0  0
  129.2081  121.0444   61.7190 H   0  0  0  0  0  0  0  0  0  0  0  0
  130.4146  123.0607   62.5548 H   0  0  0  0  0  0  0  0  0  0  0  0
  130.5632  127.4656   61.6026 H   0  0  0  0  0  0  0  0  0  0  0  0
  129.9036  128.4715   59.4245 H   0  0  0  0  0  0  0  0  0  0  0  0
  127.7715  129.8533   57.5275 H   0  0  0  0  0  0  0  0  0  0  0  0
  127.4769  131.6667   59.2068 H   0  0  0  0  0  0  0  0  0  0  0  0
  127.9019  133.2154   61.9195 H   0  0  0  0  0  0  0  0  0  0  0  0
  127.6882  134.1750   60.4161 H   0  0  0  0  0  0  0  0  0  0  0  0
  127.3319  132.4144   60.4161 H   0  0  0  0  0  0  0  0  0  0  0  0
  131.7675  131.9518   59.6617 H   0  0  0  0  0  0  0  0  0  0  0  0
  132.0654  130.1292   57.9893 H   0  0  0  0  0  0  0  0  0  0  0  0
  125.0522  124.7156   57.2703 H   0  0  0  0  0  0  0  0  0  0  0  0
  124.3222  123.6268   59.3777 H   0  0  0  0  0  0  0  0  0  0  0  0
  1  2  1  0
  2  3  1  0
  3  4  2  0
  4  5  1  0
  5  6  2  0
  6  7  1  0
  7  8  2  0
  7  9  1  0
  9 10  1  0
 10 11  1  0
 11 12  2  0
 11 13  1  0
 13 14  1  0
 14 15  1  0
 15 16  2  0
 16 17  1  0
 17 18  2  0
 18 19  1  0
 19 20  2  0
 20 21  1  0
 21 22  2  0
 22 23  1  0
 23 24  1  0
 24 25  2  0
 24 26  2  0
 24 27  1  0
 27 28  2  0
 28 29  1  0
 29 30  2  0
 30 31  1  0
 30 32  1  0
 32 33  2  0
 22 34  1  0
 34 35  2  0
 18 36  1  0
 36 37  1  0
 37 38  2  0
 38 39  1  0
 39 40  2  0
 40 41  1  0
 41 42  1  0
 40 43  1  0
 43 44  2  0
  6 45  1  0
 45 46  2  0
 46  3  1  0
 36 15  1  0
 44 37  1  0
 35 19  1  0
 33 27  1  0
  1 47  1  0
  1 48  1  0
  1 49  1  0
  4 50  1  0
  5 51  1  0
  9 52  1  0
 10 53  1  0
 13 54  1  0
 13 55  1  0
 20 56  1  0
 21 57  1  0
 23 58  1  0
 28 59  1  0
 29 60  1  0
 31 61  1  0
 31 62  1  0
 31 63  1  0
 32 64  1  0
 33 65  1  0
 34 66  1  0
 35 67  1  0
 38 68  1  0
 39 69  1  0
 42 70  1  0
 42 71  1  0
 42 72  1  0
 43 73  1  0
 44 74  1  0
 45 75  1  0
 46 76  1  0
M  END
>  <Binding energies>  (1) 
[-9.72]

>  <Ligand effiencies>  (1) 
[-0.19836734693877553]

>  <Interactions>  (1) 
["V-A:TRP:381:CZ2:3368, V-A:TRP:381:CH2:3370, V-B:ALA:541:CB:9864, V-A:PRO:482:CG:4325, V-B:PRO:540:CB:9857, V-B:PRO:540:CA:9855, V-B:PRO:540:C:9853, H-B:ALA:541:N:9863, V-B:TYR:539:CE2:9848, V-A:LEU:475:CD2:4257, V-A:PRO:482:CB:4324, V-B:TYR:539:CD2:9846, V-B:MET:535:CE:9807, V-A:ASP:366:CG:3211, V-A:PRO:540:N:4882, H-A:TYR:531:OH:4793, V-A:ASP:366:CB:3210, V-A:TYR:539:C:4865, V-A:PRO:540:CA:4881, V-A:TYR:531:CZ:4792, V-A:PRO:540:CB:4883, V-B:ALA:541:C:9860, V-B:ARG:545:CZ:9898, V-B:TYR:531:CZ:9766, V-B:ASN:362:CB:8148, V-B:GLU:543:CD:9880, H-B:MET:535:SD:9806, H-B:TYR:531:OH:9767, V-B:TYR:539:C:9839, V-A:ARG:545:CZ:4924, H-A:GLU:543:OE2:4908, H-A:ALA:541:N:4889, H-A:TYR:484:OH:4346, H-A:GLY:454:N:4048, V-B:TYR:531:CE1:9764, H-A:TYR:539:OH:4876, V-A:ALA:541:CB:4890, V-A:ILE:369:CG2:3235, V-A:TYR:539:CD2:4872, V-A:TRP:381:CZ3:3369, V-B:ASN:362:CG:8149"]

$$$$
RR30_Rahimova_2017
     RDKit          3D

 29 30  0  0  0  0  0  0  0  0999 V2000
  127.6890  130.9970   54.3230 C   0  0  0  0  0  0  0  0  0  0  0  0
  129.0740  131.3480   53.7580 C   0  0  0  0  0  0  0  0  0  0  0  0
  130.0240  131.8320   54.8310 C   0  0  0  0  0  0  0  0  0  0  0  0
  129.7390  132.4780   55.9350 N   0  0  0  0  0  0  0  0  0  0  0  0
  130.9560  132.7010   56.5730 N   0  0  0  0  0  0  0  0  0  0  0  0
  131.8720  132.1800   55.7970 C   0  0  0  0  0  0  0  0  0  0  0  0
  133.6140  132.1320   56.0700 S   0  0  0  0  0  0  0  0  0  0  0  0
  133.7090  130.7360   57.2360 C   0  0  0  0  0  0  0  0  0  0  0  0
  133.0940  131.0760   58.5970 C   0  0  0  0  0  0  0  0  0  0  0  0
  133.8350  131.2500   59.5660 O   0  0  0  0  0  0  0  0  0  0  0  0
  131.7430  131.1270   58.6380 N   0  0  0  0  0  0  0  0  0  0  0  0
  130.9640  131.4110   59.7500 C   0  0  0  0  0  0  0  0  0  0  0  0
  131.3190  131.4090   61.0150 N   0  0  0  0  0  0  0  0  0  0  0  0
  130.2680  131.7430   61.8590 N   0  0  0  0  0  0  0  0  0  0  0  0
  129.1460  131.9900   61.2220 C   0  0  0  0  0  0  0  0  0  0  0  0
  127.8620  132.3700   61.9220 C   0  0  0  0  0  0  0  0  0  0  0  0
  129.2980  131.8290   59.4930 S   0  0  0  0  0  0  0  0  0  0  0  0
  131.3530  131.6090   54.6790 O   0  0  0  0  0  0  0  0  0  0  0  0
  127.7282  131.0069   55.4223 H   0  0  0  0  0  0  0  0  0  0  0  0
  126.9530  131.7370   53.9756 H   0  0  0  0  0  0  0  0  0  0  0  0
  127.3943  129.9958   53.9756 H   0  0  0  0  0  0  0  0  0  0  0  0
  129.5011  130.4513   53.2852 H   0  0  0  0  0  0  0  0  0  0  0  0
  128.9447  132.1622   53.0297 H   0  0  0  0  0  0  0  0  0  0  0  0
  133.1688  129.8790   56.8073 H   0  0  0  0  0  0  0  0  0  0  0  0
  134.7717  130.5005   57.3950 H   0  0  0  0  0  0  0  0  0  0  0  0
  131.2410  130.9370   57.7830 H   0  0  0  0  0  0  0  0  0  0  0  0
  128.0111  132.3259   63.0110 H   0  0  0  0  0  0  0  0  0  0  0  0
  127.5749  133.3916   61.6323 H   0  0  0  0  0  0  0  0  0  0  0  0
  127.0652  131.6692   61.6323 H   0  0  0  0  0  0  0  0  0  0  0  0
  1  2  1  0
  2  3  1  0
  3  4  2  0
  4  5  1  0
  5  6  2  0
  6  7  1  0
  7  8  1  0
  8  9  1  0
  9 10  2  0
  9 11  1  0
 11 12  1  0
 12 13  2  0
 13 14  1  0
 14 15  2  0
 15 16  1  0
 15 17  1  0
  6 18  1  0
 18  3  1  0
 17 12  1  0
  1 19  1  0
  1 20  1  0
  1 21  1  0
  2 22  1  0
  2 23  1  0
  8 24  1  0
  8 25  1  0
 11 26  1  0
 16 27  1  0
 16 28  1  0
 16 29  1  0
M  END
>  <Binding energies>  (1) 
[-7.58]

>  <Ligand effiencies>  (1) 
[-0.39894736842105266]

>  <Interactions>  (1) 
["V-A:TYR:539:CE1:4873, V-A:ASP:366:CG:3211, V-A:PRO:540:N:4882, H-A:TYR:539:N:4868, V-A:ILE:538:CA:4858, V-A:TYR:539:CZ:4875, V-A:TYR:531:CE2:4791, V-A:LEU:363:CA:3183, H-A:TYR:531:OH:4793, V-A:ASP:366:CB:3210, V-A:LEU:363:CD1:3187, V-A:ILE:538:CB:4860, V-A:PRO:540:CA:4881, V-A:ILE:538:CG2:4861, V-A:TYR:531:CZ:4792, V-A:PRO:540:CB:4883, H-A:ALA:541:N:4889, V-A:MET:535:CG:4831, V-A:PRO:540:CD:4885, V-A:MET:535:CB:4830, V-A:ALA:541:CB:4890, H-A:LEU:363:N:3184"]

$$$$
RR31_Rahimova_2017
     RDKit          3D

 44 45  0  0  0  0  0  0  0  0999 V2000
  131.9310  131.7460   55.1690 C   0  0  0  0  0  0  0  0  0  0  0  0
  131.0260  131.7660   56.3940 C   0  0  0  0  0  0  0  0  0  0  0  0
  129.6780  132.0900   56.2390 C   0  0  0  0  0  0  0  0  0  0  0  0
  128.8240  132.1130   57.3400 C   0  0  0  0  0  0  0  0  0  0  0  0
  129.2910  131.8040   58.6280 C   0  0  0  0  0  0  0  0  0  0  0  0
  128.4490  131.8330   59.7420 N   0  0  0  0  0  0  0  0  0  0  0  0
  128.6270  132.8130   60.8310 C   0  0  0  0  0  0  0  0  0  0  0  0
  127.8910  132.4420   62.1400 C   0  0  0  0  0  0  0  0  0  0  0  0
  126.4620  132.2340   61.8960 N   0  0  0  0  0  0  0  0  0  0  0  0
  125.7300  131.9150   63.1270 C   0  0  0  0  0  0  0  0  0  0  0  0
  126.5320  131.0150   64.0880 C   0  0  0  0  0  0  0  0  0  0  0  0
  126.2720  129.5200   63.8410 C   0  0  0  0  0  0  0  0  0  0  0  0
  127.5760  128.7300   63.9930 N   0  0  0  0  0  0  0  0  0  0  0  0
  126.3360  131.1270   60.9480 C   0  0  0  0  0  0  0  0  0  0  0  0
  127.0230  131.4730   59.6070 C   0  0  0  0  0  0  0  0  0  0  0  0
  130.6500  131.4880   58.7700 C   0  0  0  0  0  0  0  0  0  0  0  0
  131.5190  131.4620   57.6720 C   0  0  0  0  0  0  0  0  0  0  0  0
  132.9860  131.1140   57.8940 C   0  0  0  0  0  0  0  0  0  0  0  0
  132.9827  131.7228   55.4905 H   0  0  0  0  0  0  0  0  0  0  0  0
  131.7121  130.8525   54.5659 H   0  0  0  0  0  0  0  0  0  0  0  0
  131.7518  132.6483   54.5659 H   0  0  0  0  0  0  0  0  0  0  0  0
  129.2859  132.3293   55.2395 H   0  0  0  0  0  0  0  0  0  0  0  0
  127.7658  132.3777   57.1978 H   0  0  0  0  0  0  0  0  0  0  0  0
  129.7019  132.8947   61.0501 H   0  0  0  0  0  0  0  0  0  0  0  0
  128.1922  133.7604   60.4798 H   0  0  0  0  0  0  0  0  0  0  0  0
  128.3251  131.5170   62.5473 H   0  0  0  0  0  0  0  0  0  0  0  0
  128.0083  133.2693   62.8554 H   0  0  0  0  0  0  0  0  0  0  0  0
  125.4895  132.8549   63.6455 H   0  0  0  0  0  0  0  0  0  0  0  0
  124.8239  131.3625   62.8375 H   0  0  0  0  0  0  0  0  0  0  0  0
  127.6045  131.2154   63.9480 H   0  0  0  0  0  0  0  0  0  0  0  0
  126.2104  131.2475   65.1139 H   0  0  0  0  0  0  0  0  0  0  0  0
  125.5361  129.1526   64.5714 H   0  0  0  0  0  0  0  0  0  0  0  0
  125.8841  129.3844   62.8206 H   0  0  0  0  0  0  0  0  0  0  0  0
  127.5700  127.9270   63.3790 H   0  0  0  0  0  0  0  0  0  0  0  0
  127.6800  128.4090   64.9450 H   0  0  0  0  0  0  0  0  0  0  0  0
  128.3670  129.3120   63.7580 H   0  0  0  0  0  0  0  0  0  0  0  0
  126.8093  130.2306   61.3751 H   0  0  0  0  0  0  0  0  0  0  0  0
  125.2679  130.9429   60.7602 H   0  0  0  0  0  0  0  0  0  0  0  0
  126.9475  130.5991   58.9433 H   0  0  0  0  0  0  0  0  0  0  0  0
  126.5071  132.3560   59.2018 H   0  0  0  0  0  0  0  0  0  0  0  0
  131.0438  131.2544   59.7702 H   0  0  0  0  0  0  0  0  0  0  0  0
  133.1920  131.0651   58.9734 H   0  0  0  0  0  0  0  0  0  0  0  0
  133.2052  130.1389   57.4344 H   0  0  0  0  0  0  0  0  0  0  0  0
  133.6198  131.8867   57.4344 H   0  0  0  0  0  0  0  0  0  0  0  0
  1  2  1  0
  2  3  2  0
  3  4  1  0
  4  5  2  0
  5  6  1  0
  6  7  1  0
  7  8  1  0
  8  9  1  0
  9 10  1  0
 10 11  1  0
 11 12  1  0
 12 13  1  0
  9 14  1  0
 14 15  1  0
  5 16  1  0
 16 17  2  0
 17 18  1  0
 17  2  1  0
 15  6  1  0
  1 19  1  0
  1 20  1  0
  1 21  1  0
  3 22  1  0
  4 23  1  0
  7 24  1  0
  7 25  1  0
  8 26  1  0
  8 27  1  0
 10 28  1  0
 10 29  1  0
 11 30  1  0
 11 31  1  0
 12 32  1  0
 12 33  1  0
 13 34  1  0
 13 35  1  0
 13 36  1  0
 14 37  1  0
 14 38  1  0
 15 39  1  0
 15 40  1  0
 16 41  1  0
 18 42  1  0
 18 43  1  0
 18 44  1  0
M  CHG  1  13   1
M  END
>  <Binding energies>  (1) 
[-7.58]

>  <Ligand effiencies>  (1) 
[-0.36095238095238097]

>  <Interactions>  (1) 
["H-B:GLU:543:OE1:9881, V-A:PRO:540:N:4882, V-A:ILE:538:CA:4858, V-A:TYR:539:CZ:4875, V-A:TYR:531:CE2:4791, V-A:TYR:539:C:4865, V-A:ILE:538:CB:4860, V-A:PRO:540:CA:4881, V-A:ILE:538:CG2:4861, V-A:TYR:531:CZ:4792, V-A:GLU:543:CD:4906, V-A:PRO:540:CB:4883, V-B:ARG:545:CZ:9898, V-B:GLU:543:CD:9880, H-B:GLU:543:OE2:9882, H-A:GLU:543:OE2:4908, H-A:GLU:543:OE1:4907, V-A:TYR:539:CE2:4874, V-A:ALA:541:CB:4890, V-A:TYR:539:CD1:4871, V-A:TYR:539:CD2:4872, V-A:TYR:539:CG:4870"]

$$$$
RR32_Rahimova_2017
     RDKit          3D

 37 39  0  0  0  0  0  0  0  0999 V2000
  125.4570  124.4080   61.0510 C   0  0  0  0  0  0  0  0  0  0  0  0
  126.2830  123.8750   59.8850 C   0  0  0  0  0  0  0  0  0  0  0  0
  127.5960  123.4750   60.1340 C   0  0  0  0  0  0  0  0  0  0  0  0
  128.3790  122.9810   59.0950 C   0  0  0  0  0  0  0  0  0  0  0  0
  129.6810  122.5850   59.3470 N   0  0  0  0  0  0  0  0  0  0  0  0
  130.6830  123.6480   59.5470 C   0  0  0  0  0  0  0  0  0  0  0  0
  132.1310  123.1120   59.6400 C   0  0  0  0  0  0  0  0  0  0  0  0
  132.2450  122.1500   60.7360 N   0  0  0  0  0  0  0  0  0  0  0  0
  133.6180  121.6690   60.8440 C   0  0  0  0  0  0  0  0  0  0  0  0
  131.3390  121.0390   60.4570 C   0  0  0  0  0  0  0  0  0  0  0  0
  129.8790  121.5430   60.3730 C   0  0  0  0  0  0  0  0  0  0  0  0
  127.9190  122.8680   57.8220 N   0  0  0  0  0  0  0  0  0  0  0  0
  126.6430  123.2530   57.5460 C   0  0  0  0  0  0  0  0  0  0  0  0
  126.1900  123.1260   56.2100 C   0  0  0  0  0  0  0  0  0  0  0  0
  124.8960  123.5040   55.8710 C   0  0  0  0  0  0  0  0  0  0  0  0
  124.0330  124.0080   56.8360 C   0  0  0  0  0  0  0  0  0  0  0  0
  124.4460  124.1450   58.1580 C   0  0  0  0  0  0  0  0  0  0  0  0
  125.7640  123.7710   58.5520 C   0  0  0  0  0  0  0  0  0  0  0  0
  125.9246  124.1062   61.9998 H   0  0  0  0  0  0  0  0  0  0  0  0
  125.4123  125.5058   60.9971 H   0  0  0  0  0  0  0  0  0  0  0  0
  124.4383  123.9964   60.9971 H   0  0  0  0  0  0  0  0  0  0  0  0
  128.0117  123.5499   61.1497 H   0  0  0  0  0  0  0  0  0  0  0  0
  130.6233  124.3482   58.7008 H   0  0  0  0  0  0  0  0  0  0  0  0
  130.4536  124.1368   60.5054 H   0  0  0  0  0  0  0  0  0  0  0  0
  132.3968  122.6178   58.6939 H   0  0  0  0  0  0  0  0  0  0  0  0
  132.8134  123.9537   59.8292 H   0  0  0  0  0  0  0  0  0  0  0  0
  133.8906  121.5735   61.9054 H   0  0  0  0  0  0  0  0  0  0  0  0
  133.7024  120.6878   60.3540 H   0  0  0  0  0  0  0  0  0  0  0  0
  134.2963  122.3830   60.3540 H   0  0  0  0  0  0  0  0  0  0  0  0
  131.6181  120.5752   59.4994 H   0  0  0  0  0  0  0  0  0  0  0  0
  131.4163  120.3022   61.2701 H   0  0  0  0  0  0  0  0  0  0  0  0
  129.2278  120.6892   60.1342 H   0  0  0  0  0  0  0  0  0  0  0  0
  129.6321  121.9920   61.3463 H   0  0  0  0  0  0  0  0  0  0  0  0
  126.8645  122.7269   55.4381 H   0  0  0  0  0  0  0  0  0  0  0  0
  124.5527  123.4033   54.8308 H   0  0  0  0  0  0  0  0  0  0  0  0
  123.0118  124.3021   56.5520 H   0  0  0  0  0  0  0  0  0  0  0  0
  123.7477  124.5463   58.9072 H   0  0  0  0  0  0  0  0  0  0  0  0
  1  2  1  0
  2  3  2  0
  3  4  1  0
  4  5  1  0
  5  6  1  0
  6  7  1  0
  7  8  1  0
  8  9  1  0
  8 10  1  0
 10 11  1  0
  4 12  2  0
 12 13  1  0
 13 14  2  0
 14 15  1  0
 15 16  2  0
 16 17  1  0
 17 18  2  0
 18  2  1  0
 11  5  1  0
 18 13  1  0
  1 19  1  0
  1 20  1  0
  1 21  1  0
  3 22  1  0
  6 23  1  0
  6 24  1  0
  7 25  1  0
  7 26  1  0
  9 27  1  0
  9 28  1  0
  9 29  1  0
 10 30  1  0
 10 31  1  0
 11 32  1  0
 11 33  1  0
 14 34  1  0
 15 35  1  0
 16 36  1  0
 17 37  1  0
M  END
>  <Binding energies>  (1) 
[-6.59]

>  <Ligand effiencies>  (1) 
[-0.3661111111111111]

>  <Interactions>  (1) 
["V-B:PRO:540:N:9856, V-B:ILE:538:CA:9832, V-B:ALA:541:CB:9864, V-B:PRO:540:CB:9857, V-B:PRO:540:CA:9855, V-B:TYR:539:CE2:9848, V-A:LEU:475:CD2:4257, V-B:TYR:539:CD2:9846, V-B:TYR:531:CE2:9765, V-B:LEU:363:CD1:8161, V-B:TYR:531:CZ:9766, V-B:TYR:539:C:9839, V-B:ILE:538:CG2:9835, V-B:PRO:540:CD:9859, V-B:ILE:538:CB:9834, V-A:ILE:369:CG2:3235, V-A:ILE:369:CD1:3237"]

$$$$
RR32_Rahimova_2017-again1
     RDKit          3D

 38 40  0  0  0  0  0  0  0  0999 V2000
  133.6740  131.1540   56.8140 C   0  0  0  0  0  0  0  0  0  0  0  0
  132.2370  131.3580   57.2730 C   0  0  0  0  0  0  0  0  0  0  0  0
  131.9280  131.3590   58.6330 C   0  0  0  0  0  0  0  0  0  0  0  0
  130.6070  131.5510   59.0540 C   0  0  0  0  0  0  0  0  0  0  0  0
  130.2720  131.5460   60.4120 N   0  0  0  0  0  0  0  0  0  0  0  0
  128.8680  131.7220   60.8350 C   0  0  0  0  0  0  0  0  0  0  0  0
  128.0840  130.3890   60.8620 C   0  0  0  0  0  0  0  0  0  0  0  0
  128.7600  129.4420   61.8730 N   0  0  0  0  0  0  0  0  0  0  0  0
  128.0270  128.0880   61.9300 C   0  0  0  0  0  0  0  0  0  0  0  0
  130.2330  129.2490   61.4600 C   0  0  0  0  0  0  0  0  0  0  0  0
  130.9110  130.6370   61.3870 C   0  0  0  0  0  0  0  0  0  0  0  0
  129.5950  131.7130   58.1570 N   0  0  0  0  0  0  0  0  0  0  0  0
  129.8670  131.7200   56.8240 C   0  0  0  0  0  0  0  0  0  0  0  0
  128.7920  131.9060   55.9220 C   0  0  0  0  0  0  0  0  0  0  0  0
  129.0260  131.9220   54.5490 C   0  0  0  0  0  0  0  0  0  0  0  0
  130.3130  131.7550   54.0490 C   0  0  0  0  0  0  0  0  0  0  0  0
  131.3900  131.5670   54.9120 C   0  0  0  0  0  0  0  0  0  0  0  0
  131.1920  131.5460   56.3200 C   0  0  0  0  0  0  0  0  0  0  0  0
  134.3297  131.0609   57.6923 H   0  0  0  0  0  0  0  0  0  0  0  0
  133.7391  130.2376   56.2090 H   0  0  0  0  0  0  0  0  0  0  0  0
  133.9916  132.0161   56.2090 H   0  0  0  0  0  0  0  0  0  0  0  0
  132.7244  131.2085   59.3767 H   0  0  0  0  0  0  0  0  0  0  0  0
  128.8562  132.1583   61.8447 H   0  0  0  0  0  0  0  0  0  0  0  0
  128.3793  132.3815   60.1027 H   0  0  0  0  0  0  0  0  0  0  0  0
  127.0442  130.5767   61.1679 H   0  0  0  0  0  0  0  0  0  0  0  0
  128.0838  129.9325   59.8612 H   0  0  0  0  0  0  0  0  0  0  0  0
  128.7370  129.8780   62.7840 H   0  0  0  0  0  0  0  0  0  0  0  0
  127.8708  127.7995   62.9799 H   0  0  0  0  0  0  0  0  0  0  0  0
  127.0536  128.1765   61.4254 H   0  0  0  0  0  0  0  0  0  0  0  0
  128.6333  127.3213   61.4254 H   0  0  0  0  0  0  0  0  0  0  0  0
  130.7477  128.6239   62.2045 H   0  0  0  0  0  0  0  0  0  0  0  0
  130.2865  128.7527   60.4798 H   0  0  0  0  0  0  0  0  0  0  0  0
  130.8631  131.1024   62.3825 H   0  0  0  0  0  0  0  0  0  0  0  0
  131.9476  130.4777   61.0552 H   0  0  0  0  0  0  0  0  0  0  0  0
  127.7698  132.0382   56.3062 H   0  0  0  0  0  0  0  0  0  0  0  0
  128.1857  132.0680   53.8543 H   0  0  0  0  0  0  0  0  0  0  0  0
  130.4819  131.7715   52.9622 H   0  0  0  0  0  0  0  0  0  0  0  0
  132.4017  131.4337   54.5012 H   0  0  0  0  0  0  0  0  0  0  0  0
  1  2  1  0
  2  3  2  0
  3  4  1  0
  4  5  1  0
  5  6  1  0
  6  7  1  0
  7  8  1  0
  8  9  1  0
  8 10  1  0
 10 11  1  0
  4 12  2  0
 12 13  1  0
 13 14  2  0
 14 15  1  0
 15 16  2  0
 16 17  1  0
 17 18  2  0
 18  2  1  0
 11  5  1  0
 18 13  1  0
  1 19  1  0
  1 20  1  0
  1 21  1  0
  3 22  1  0
  6 23  1  0
  6 24  1  0
  7 25  1  0
  7 26  1  0
  8 27  1  0
  9 28  1  0
  9 29  1  0
  9 30  1  0
 10 31  1  0
 10 32  1  0
 11 33  1  0
 11 34  1  0
 14 35  1  0
 15 36  1  0
 16 37  1  0
 17 38  1  0
M  CHG  1   8   1
M  END
>  <Binding energies>  (1) 
[-7.89]

>  <Ligand effiencies>  (1) 
[-0.41526315789473683]

>  <Interactions>  (1) 
["V-A:TYR:539:CE1:4873, V-A:PRO:540:N:4882, V-A:ILE:538:CA:4858, V-A:TYR:539:CZ:4875, V-A:TYR:531:CE2:4791, V-A:LEU:363:CA:3183, V-A:TYR:539:C:4865, V-A:LEU:363:CD1:3187, V-A:ILE:538:CB:4860, V-A:PRO:540:CA:4881, V-A:ILE:538:CG2:4861, V-A:TYR:531:CZ:4792, V-A:GLU:543:CD:4906, V-A:PRO:540:CB:4883, H-A:GLU:543:OE2:4908, H-A:GLU:543:OE1:4907, V-A:MET:535:CG:4831, V-A:MET:535:CB:4830, V-A:TYR:539:CE2:4874, V-A:TYR:539:CD1:4871, V-A:TYR:539:CG:4870"]

$$$$
RR32_Rahimova_2017-again2
     RDKit          3D

 39 41  0  0  0  0  0  0  0  0999 V2000
  133.7450  131.2640   56.7220 C   0  0  0  0  0  0  0  0  0  0  0  0
  132.3210  131.3960   57.2460 C   0  0  0  0  0  0  0  0  0  0  0  0
  132.0730  131.3710   58.6210 C   0  0  0  0  0  0  0  0  0  0  0  0
  130.7690  131.4850   59.1220 C   0  0  0  0  0  0  0  0  0  0  0  0
  130.4620  131.4800   60.5300 N   0  0  0  0  0  0  0  0  0  0  0  0
  129.1110  131.8670   61.0170 C   0  0  0  0  0  0  0  0  0  0  0  0
  128.1470  130.6510   60.9840 C   0  0  0  0  0  0  0  0  0  0  0  0
  128.7110  129.5210   61.8790 N   0  0  0  0  0  0  0  0  0  0  0  0
  127.8080  128.2730   61.8270 C   0  0  0  0  0  0  0  0  0  0  0  0
  130.1580  129.1750   61.4540 C   0  0  0  0  0  0  0  0  0  0  0  0
  131.0160  130.4680   61.4650 C   0  0  0  0  0  0  0  0  0  0  0  0
  129.7630  131.6280   58.2350 N   0  0  0  0  0  0  0  0  0  0  0  0
  129.9110  131.6650   56.8670 C   0  0  0  0  0  0  0  0  0  0  0  0
  128.7860  131.8180   56.0260 C   0  0  0  0  0  0  0  0  0  0  0  0
  128.9730  131.8540   54.6470 C   0  0  0  0  0  0  0  0  0  0  0  0
  130.2490  131.7420   54.1000 C   0  0  0  0  0  0  0  0  0  0  0  0
  131.3680  131.5900   54.9190 C   0  0  0  0  0  0  0  0  0  0  0  0
  131.2290  131.5470   56.3350 C   0  0  0  0  0  0  0  0  0  0  0  0
  134.4431  131.1993   57.5696 H   0  0  0  0  0  0  0  0  0  0  0  0
  133.8273  130.3544   56.1090 H   0  0  0  0  0  0  0  0  0  0  0  0
  133.9931  132.1430   56.1090 H   0  0  0  0  0  0  0  0  0  0  0  0
  132.9142  131.2601   59.3210 H   0  0  0  0  0  0  0  0  0  0  0  0
  129.1916  132.2360   62.0501 H   0  0  0  0  0  0  0  0  0  0  0  0
  128.7105  132.6538   60.3609 H   0  0  0  0  0  0  0  0  0  0  0  0
  127.1587  130.9563   61.3582 H   0  0  0  0  0  0  0  0  0  0  0  0
  128.0513  130.2869   59.9504 H   0  0  0  0  0  0  0  0  0  0  0  0
  128.7430  129.8670   62.8290 H   0  0  0  0  0  0  0  0  0  0  0  0
  127.5727  127.9478   62.8511 H   0  0  0  0  0  0  0  0  0  0  0  0
  126.8758  128.5168   61.2964 H   0  0  0  0  0  0  0  0  0  0  0  0
  128.3311  127.4638   61.2964 H   0  0  0  0  0  0  0  0  0  0  0  0
  130.5837  128.4450   62.1582 H   0  0  0  0  0  0  0  0  0  0  0  0
  130.1528  128.7435   60.4422 H   0  0  0  0  0  0  0  0  0  0  0  0
  131.0255  130.8852   62.4828 H   0  0  0  0  0  0  0  0  0  0  0  0
  132.0371  130.2147   61.1438 H   0  0  0  0  0  0  0  0  0  0  0  0
  128.8300  131.7220   58.6050 H   0  0  0  0  0  0  0  0  0  0  0  0
  127.7769  131.9074   56.4547 H   0  0  0  0  0  0  0  0  0  0  0  0
  128.1043  131.9721   53.9827 H   0  0  0  0  0  0  0  0  0  0  0  0
  130.3761  131.7738   53.0078 H   0  0  0  0  0  0  0  0  0  0  0  0
  132.3668  131.5026   54.4665 H   0  0  0  0  0  0  0  0  0  0  0  0
  1  2  1  0
  2  3  2  0
  3  4  1  0
  4  5  1  0
  5  6  1  0
  6  7  1  0
  7  8  1  0
  8  9  1  0
  8 10  1  0
 10 11  1  0
  4 12  2  0
 12 13  1  0
 13 14  2  0
 14 15  1  0
 15 16  2  0
 16 17  1  0
 17 18  2  0
 18  2  1  0
 11  5  1  0
 18 13  1  0
  1 19  1  0
  1 20  1  0
  1 21  1  0
  3 22  1  0
  6 23  1  0
  6 24  1  0
  7 25  1  0
  7 26  1  0
  8 27  1  0
  9 28  1  0
  9 29  1  0
  9 30  1  0
 10 31  1  0
 10 32  1  0
 11 33  1  0
 11 34  1  0
 12 35  1  0
 14 36  1  0
 15 37  1  0
 16 38  1  0
 17 39  1  0
M  CHG  2   8   1  12   1
M  END
>  <Binding energies>  (1) 
[-8.1]

>  <Ligand effiencies>  (1) 
[-0.40499999999999997]

>  <Interactions>  (1) 
["V-A:TYR:539:CE1:4873, V-A:PRO:540:N:4882, V-A:ILE:538:CA:4858, V-A:TYR:539:CZ:4875, V-A:TYR:531:CE2:4791, V-A:LEU:363:CA:3183, V-A:TYR:539:C:4865, V-A:LEU:363:CD1:3187, V-A:ILE:538:CB:4860, V-A:PRO:540:CA:4881, V-A:ILE:538:CG2:4861, V-A:TYR:531:CZ:4792, V-A:GLU:543:CD:4906, V-A:PRO:540:CB:4883, H-A:GLU:543:OE2:4908, H-A:GLU:543:OE1:4907, V-A:MET:535:CG:4831, V-A:MET:535:CB:4830, V-A:TYR:539:CE2:4874, V-A:ALA:541:CB:4890, V-A:TYR:539:CD1:4871, V-A:TYR:539:CG:4870, H-A:TYR:539:O:4866"]

$$$$
RR33_Rahimova_2017
     RDKit          3D

 36 37  0  0  0  0  0  0  0  0999 V2000
  125.5550  129.8610   56.4670 C   0  0  0  0  0  0  0  0  0  0  0  0
  124.1140  129.9490   56.9790 C   0  0  0  0  0  0  0  0  0  0  0  0
  124.0350  130.9920   57.9460 O   0  0  0  0  0  0  0  0  0  0  0  0
  124.3290  130.7150   59.2680 C   0  0  0  0  0  0  0  0  0  0  0  0
  123.5230  131.3280   60.2260 C   0  0  0  0  0  0  0  0  0  0  0  0
  123.7450  131.1110   61.5830 C   0  0  0  0  0  0  0  0  0  0  0  0
  124.7830  130.2730   62.0030 C   0  0  0  0  0  0  0  0  0  0  0  0
  125.0220  130.0410   63.4600 C   0  0  0  0  0  0  0  0  0  0  0  0
  126.1600  129.7560   64.0520 N   0  0  0  0  0  0  0  0  0  0  0  0
  125.8680  129.6450   65.3380 C   0  0  0  0  0  0  0  0  0  0  0  0
  126.9440  129.3300   66.3560 C   0  0  0  0  0  0  0  0  0  0  0  0
  126.7440  128.0030   66.9190 N   0  0  0  0  0  0  0  0  0  0  0  0
  127.9410  127.5550   67.6110 C   0  0  0  0  0  0  0  0  0  0  0  0
  124.5100  129.8690   65.5290 C   0  0  0  0  0  0  0  0  0  0  0  0
  123.5830  129.8910   66.7200 C   0  0  0  0  0  0  0  0  0  0  0  0
  123.9690  130.1230   64.3160 O   0  0  0  0  0  0  0  0  0  0  0  0
  125.5910  129.6530   61.0450 C   0  0  0  0  0  0  0  0  0  0  0  0
  125.3690  129.8710   59.6870 C   0  0  0  0  0  0  0  0  0  0  0  0
  126.2459  129.8188   57.3219 H   0  0  0  0  0  0  0  0  0  0  0  0
  125.6722  128.9540   55.8557 H   0  0  0  0  0  0  0  0  0  0  0  0
  125.7817  130.7470   55.8557 H   0  0  0  0  0  0  0  0  0  0  0  0
  123.4364  130.1693   56.1410 H   0  0  0  0  0  0  0  0  0  0  0  0
  123.8196  128.9923   57.4352 H   0  0  0  0  0  0  0  0  0  0  0  0
  122.7040  131.9893   59.9067 H   0  0  0  0  0  0  0  0  0  0  0  0
  123.1011  131.6008   62.3283 H   0  0  0  0  0  0  0  0  0  0  0  0
  127.9280  129.3703   65.8661 H   0  0  0  0  0  0  0  0  0  0  0  0
  126.8922  130.0709   67.1674 H   0  0  0  0  0  0  0  0  0  0  0  0
  126.5340  127.3530   66.1740 H   0  0  0  0  0  0  0  0  0  0  0  0
  127.7805  127.6151   68.6976 H   0  0  0  0  0  0  0  0  0  0  0  0
  128.1594  126.5143   67.3296 H   0  0  0  0  0  0  0  0  0  0  0  0
  128.7890  128.1966   67.3296 H   0  0  0  0  0  0  0  0  0  0  0  0
  124.1759  129.8769   67.6464 H   0  0  0  0  0  0  0  0  0  0  0  0
  122.9701  130.8039   66.6908 H   0  0  0  0  0  0  0  0  0  0  0  0
  122.9275  129.0082   66.6908 H   0  0  0  0  0  0  0  0  0  0  0  0
  126.4072  128.9889   61.3656 H   0  0  0  0  0  0  0  0  0  0  0  0
  126.0110  129.3800   58.9408 H   0  0  0  0  0  0  0  0  0  0  0  0
  1  2  1  0
  2  3  1  0
  3  4  1  0
  4  5  2  0
  5  6  1  0
  6  7  2  0
  7  8  1  0
  8  9  2  0
  9 10  1  0
 10 11  1  0
 11 12  1  0
 12 13  1  0
 10 14  2  0
 14 15  1  0
 14 16  1  0
  7 17  1  0
 17 18  2  0
 18  4  1  0
 16  8  1  0
  1 19  1  0
  1 20  1  0
  1 21  1  0
  2 22  1  0
  2 23  1  0
  5 24  1  0
  6 25  1  0
 11 26  1  0
 11 27  1  0
 12 28  1  0
 13 29  1  0
 13 30  1  0
 13 31  1  0
 15 32  1  0
 15 33  1  0
 15 34  1  0
 17 35  1  0
 18 36  1  0
M  END
>  <Binding energies>  (1) 
[-5.87]

>  <Ligand effiencies>  (1) 
[-0.30894736842105264]

>  <Interactions>  (1) 
["V-B:ASP:366:CG:8185, H-B:ARG:545:NH2:9900, V-A:TYR:539:CZ:4875, V-A:GLU:543:CD:4906, V-B:ARG:545:CZ:9898, V-B:TYR:531:CZ:9766, V-B:GLU:543:CD:9880, H-B:GLU:543:OE2:9882, V-B:TYR:531:CE1:9764, V-B:ASP:366:CB:8184, H-B:GLY:454:N:9022, H-A:TYR:539:OH:4876, H-B:TYR:484:OH:9320, V-B:HIS:456:CE1:9042, V-B:GLY:454:CA:9021, V-B:GLU:543:CG:9879, V-B:ARG:545:CG:9894, V-B:ILE:369:CD1:8211, H-B:ARG:545:NE:9896, V-B:ILE:369:CG2:8209, V-A:GLU:543:CB:4904, V-B:ASP:366:CA:8182, V-B:ARG:545:CD:9895, V-B:GLY:453:C:9014, V-B:GLY:453:CA:9016, V-B:ILE:369:CB:8208, V-B:ASP:366:C:8180, H-B:ARG:545:NH1:9899, V-B:ARG:545:CB:9893, V-B:ILE:455:C:9024"]

$$$$
RR33_Rahimova_2017-again1
     RDKit          3D

 37 38  0  0  0  0  0  0  0  0999 V2000
  123.7660  123.0890   56.2310 C   0  0  0  0  0  0  0  0  0  0  0  0
  125.0250  123.7130   55.6230 C   0  0  0  0  0  0  0  0  0  0  0  0
  126.1210  122.8270   55.8290 O   0  0  0  0  0  0  0  0  0  0  0  0
  126.9540  123.0190   56.9160 C   0  0  0  0  0  0  0  0  0  0  0  0
  126.3580  123.5110   58.0770 C   0  0  0  0  0  0  0  0  0  0  0  0
  127.1150  123.7360   59.2230 C   0  0  0  0  0  0  0  0  0  0  0  0
  128.4880  123.4710   59.2230 C   0  0  0  0  0  0  0  0  0  0  0  0
  129.3050  123.7110   60.4520 C   0  0  0  0  0  0  0  0  0  0  0  0
  129.7950  124.8540   60.8810 N   0  0  0  0  0  0  0  0  0  0  0  0
  130.4390  124.5630   62.0010 C   0  0  0  0  0  0  0  0  0  0  0  0
  131.1570  125.6380   62.7940 C   0  0  0  0  0  0  0  0  0  0  0  0
  130.2410  126.1220   63.9310 N   0  0  0  0  0  0  0  0  0  0  0  0
  130.6800  125.6400   65.3200 C   0  0  0  0  0  0  0  0  0  0  0  0
  130.3410  123.2000   62.2520 C   0  0  0  0  0  0  0  0  0  0  0  0
  130.8430  122.2660   63.3260 C   0  0  0  0  0  0  0  0  0  0  0  0
  129.6080  122.6570   61.2520 O   0  0  0  0  0  0  0  0  0  0  0  0
  129.0900  122.9780   58.0600 C   0  0  0  0  0  0  0  0  0  0  0  0
  128.3310  122.7530   56.9150 C   0  0  0  0  0  0  0  0  0  0  0  0
  123.8335  123.1225   57.3284 H   0  0  0  0  0  0  0  0  0  0  0  0
  122.8811  123.6528   55.9007 H   0  0  0  0  0  0  0  0  0  0  0  0
  123.6788  122.0434   55.9007 H   0  0  0  0  0  0  0  0  0  0  0  0
  124.8754  123.8718   54.5448 H   0  0  0  0  0  0  0  0  0  0  0  0
  125.2315  124.6812   56.1025 H   0  0  0  0  0  0  0  0  0  0  0  0
  125.2787  123.7233   58.0870 H   0  0  0  0  0  0  0  0  0  0  0  0
  126.6316  124.1236   60.1319 H   0  0  0  0  0  0  0  0  0  0  0  0
  132.0841  125.2252   63.2184 H   0  0  0  0  0  0  0  0  0  0  0  0
  131.4050  126.4820   62.1336 H   0  0  0  0  0  0  0  0  0  0  0  0
  130.2200  127.1310   63.9240 H   0  0  0  0  0  0  0  0  0  0  0  0
  129.3030  125.7900   63.7510 H   0  0  0  0  0  0  0  0  0  0  0  0
  130.1527  126.2189   66.0926 H   0  0  0  0  0  0  0  0  0  0  0  0
  130.4370  124.5730   65.4316 H   0  0  0  0  0  0  0  0  0  0  0  0
  131.7650  125.7826   65.4316 H   0  0  0  0  0  0  0  0  0  0  0  0
  130.6156  122.6892   64.3156 H   0  0  0  0  0  0  0  0  0  0  0  0
  130.3485  121.2889   63.2226 H   0  0  0  0  0  0  0  0  0  0  0  0
  131.9308  122.1393   63.2226 H   0  0  0  0  0  0  0  0  0  0  0  0
  130.1695  122.7670   58.0505 H   0  0  0  0  0  0  0  0  0  0  0  0
  128.8132  122.3650   56.0057 H   0  0  0  0  0  0  0  0  0  0  0  0
  1  2  1  0
  2  3  1  0
  3  4  1  0
  4  5  2  0
  5  6  1  0
  6  7  2  0
  7  8  1  0
  8  9  2  0
  9 10  1  0
 10 11  1  0
 11 12  1  0
 12 13  1  0
 10 14  2  0
 14 15  1  0
 14 16  1  0
  7 17  1  0
 17 18  2  0
 18  4  1  0
 16  8  1  0
  1 19  1  0
  1 20  1  0
  1 21  1  0
  2 22  1  0
  2 23  1  0
  5 24  1  0
  6 25  1  0
 11 26  1  0
 11 27  1  0
 12 28  1  0
 12 29  1  0
 13 30  1  0
 13 31  1  0
 13 32  1  0
 15 33  1  0
 15 34  1  0
 15 35  1  0
 17 36  1  0
 18 37  1  0
M  CHG  1  12   1
M  END
>  <Binding energies>  (1) 
[-7.04]

>  <Ligand effiencies>  (1) 
[-0.352]

>  <Interactions>  (1) 
["V-B:PRO:540:N:9856, H-B:GLU:543:OE1:9881, V-B:TYR:539:CZ:9849, V-B:ALA:541:CB:9864, V-B:PRO:540:CB:9857, V-B:PRO:540:CA:9855, V-B:TYR:539:CE2:9848, V-A:LEU:475:CD2:4257, V-B:TYR:539:CE1:9847, V-B:TYR:539:CD1:9845, V-B:TYR:539:CD2:9846, V-A:GLU:543:CD:4906, V-B:TYR:531:CE2:9765, V-B:LEU:363:CD1:8161, V-B:TYR:531:CZ:9766, H-B:TYR:539:N:9842, V-B:GLU:543:CD:9880, V-B:TYR:539:C:9839, V-B:ILE:538:CG2:9835, V-B:PRO:540:CD:9859, V-B:ILE:538:CB:9834, H-B:GLU:543:OE2:9882, V-B:PRO:540:CG:9858, H-A:GLU:543:OE2:4908, H-A:GLU:543:OE1:4907, V-B:TYR:539:CG:9844, V-B:TYR:539:CA:9841, V-A:HIS:456:CE1:4068, V-B:GLU:543:CB:9878"]

$$$$
RR3_Rahimova_2017
     RDKit          3D

 63 69  0  0  0  0  0  0  0  0999 V2000
  123.9630  131.5850   62.0290 C   0  0  0  0  0  0  0  0  0  0  0  0
  125.1240  132.1930   62.4940 C   0  0  0  0  0  0  0  0  0  0  0  0
  125.8420  131.6050   63.5310 C   0  0  0  0  0  0  0  0  0  0  0  0
  125.4120  130.4040   64.1140 C   0  0  0  0  0  0  0  0  0  0  0  0
  126.1860  129.7710   65.2290 C   0  0  0  0  0  0  0  0  0  0  0  0
  127.2920  130.4190   65.7950 C   0  0  0  0  0  0  0  0  0  0  0  0
  128.0140  129.8290   66.8290 C   0  0  0  0  0  0  0  0  0  0  0  0
  127.6490  128.5710   67.3160 C   0  0  0  0  0  0  0  0  0  0  0  0
  128.4240  127.9290   68.4230 C   0  0  0  0  0  0  0  0  0  0  0  0
  128.1180  128.1920   69.6890 N   0  0  0  0  0  0  0  0  0  0  0  0
  128.9200  127.4650   70.4280 C   0  0  0  0  0  0  0  0  0  0  0  0
  128.9300  127.4430   71.8890 C   0  0  0  0  0  0  0  0  0  0  0  0
  129.9640  126.9790   72.6850 C   0  0  0  0  0  0  0  0  0  0  0  0
  129.6380  127.1160   74.0090 N   0  0  0  0  0  0  0  0  0  0  0  0
  128.3830  127.6710   74.1290 C   0  0  0  0  0  0  0  0  0  0  0  0
  127.6330  127.9960   75.2640 C   0  0  0  0  0  0  0  0  0  0  0  0
  126.3720  128.5530   75.0510 C   0  0  0  0  0  0  0  0  0  0  0  0
  125.8760  128.7780   73.7710 C   0  0  0  0  0  0  0  0  0  0  0  0
  126.6240  128.4550   72.6400 C   0  0  0  0  0  0  0  0  0  0  0  0
  127.9020  127.8900   72.7990 C   0  0  0  0  0  0  0  0  0  0  0  0
  129.7660  126.7240   69.6490 N   0  0  0  0  0  0  0  0  0  0  0  0
  129.4890  127.0150   68.3380 C   0  0  0  0  0  0  0  0  0  0  0  0
  130.2600  126.4340   67.1990 C   0  0  0  0  0  0  0  0  0  0  0  0
  129.8700  125.2160   66.6400 C   0  0  0  0  0  0  0  0  0  0  0  0
  130.5930  124.6650   65.5860 C   0  0  0  0  0  0  0  0  0  0  0  0
  131.7190  125.3180   65.0640 C   0  0  0  0  0  0  0  0  0  0  0  0
  132.5050  124.7130   63.9450 C   0  0  0  0  0  0  0  0  0  0  0  0
  132.1270  123.4840   63.3830 C   0  0  0  0  0  0  0  0  0  0  0  0
  132.8570  122.9220   62.3370 C   0  0  0  0  0  0  0  0  0  0  0  0
  133.9740  123.5870   61.8410 C   0  0  0  0  0  0  0  0  0  0  0  0
  134.3660  124.8070   62.3820 C   0  0  0  0  0  0  0  0  0  0  0  0
  133.6350  125.3650   63.4280 C   0  0  0  0  0  0  0  0  0  0  0  0
  132.0890  126.5500   65.6230 C   0  0  0  0  0  0  0  0  0  0  0  0
  131.3680  127.1040   66.6770 C   0  0  0  0  0  0  0  0  0  0  0  0
  126.5410  127.9230   66.7670 C   0  0  0  0  0  0  0  0  0  0  0  0
  125.8210  128.5160   65.7330 C   0  0  0  0  0  0  0  0  0  0  0  0
  124.2380  129.8090   63.6290 C   0  0  0  0  0  0  0  0  0  0  0  0
  123.5160  130.3940   62.5920 C   0  0  0  0  0  0  0  0  0  0  0  0
  123.3939  132.0492   61.2100 H   0  0  0  0  0  0  0  0  0  0  0  0
  125.4732  133.1342   62.0443 H   0  0  0  0  0  0  0  0  0  0  0  0
  126.7591  132.0886   63.8984 H   0  0  0  0  0  0  0  0  0  0  0  0
  127.5939  131.4071   65.4173 H   0  0  0  0  0  0  0  0  0  0  0  0
  128.8759  130.3556   67.2647 H   0  0  0  0  0  0  0  0  0  0  0  0
  130.9096  126.5612   72.3091 H   0  0  0  0  0  0  0  0  0  0  0  0
  130.2620  126.8370   74.7520 H   0  0  0  0  0  0  0  0  0  0  0  0
  128.0200  127.8203   76.2786 H   0  0  0  0  0  0  0  0  0  0  0  0
  125.7526  128.8218   75.9194 H   0  0  0  0  0  0  0  0  0  0  0  0
  124.8755  129.2187   73.6492 H   0  0  0  0  0  0  0  0  0  0  0  0
  126.2191  128.6400   71.6341 H   0  0  0  0  0  0  0  0  0  0  0  0
  130.4840  126.0970   69.9810 H   0  0  0  0  0  0  0  0  0  0  0  0
  128.9881  124.6896   67.0339 H   0  0  0  0  0  0  0  0  0  0  0  0
  130.2766  123.7032   65.1561 H   0  0  0  0  0  0  0  0  0  0  0  0
  131.2434  122.9575   63.7729 H   0  0  0  0  0  0  0  0  0  0  0  0
  132.5515  121.9573   61.9057 H   0  0  0  0  0  0  0  0  0  0  0  0
  134.5510  123.1449   61.0154 H   0  0  0  0  0  0  0  0  0  0  0  0
  135.2494  125.3288   61.9855 H   0  0  0  0  0  0  0  0  0  0  0  0
  133.9476  126.3296   63.8545 H   0  0  0  0  0  0  0  0  0  0  0  0
  132.9619  127.0864   65.2226 H   0  0  0  0  0  0  0  0  0  0  0  0
  131.6722  128.0728   67.1000 H   0  0  0  0  0  0  0  0  0  0  0  0
  126.2353  126.9394   67.1530 H   0  0  0  0  0  0  0  0  0  0  0  0
  124.9535  127.9916   65.3060 H   0  0  0  0  0  0  0  0  0  0  0  0
  123.8830  128.8677   64.0738 H   0  0  0  0  0  0  0  0  0  0  0  0
  122.5972  129.9170   62.2200 H   0  0  0  0  0  0  0  0  0  0  0  0
  1  2  2  0
  2  3  1  0
  3  4  2  0
  4  5  1  0
  5  6  2  0
  6  7  1  0
  7  8  2  0
  8  9  1  0
  9 10  1  0
 10 11  2  0
 11 12  1  0
 12 13  2  0
 13 14  1  0
 14 15  1  0
 15 16  2  0
 16 17  1  0
 17 18  2  0
 18 19  1  0
 19 20  2  0
 11 21  1  0
 21 22  1  0
 22 23  1  0
 23 24  2  0
 24 25  1  0
 25 26  2  0
 26 27  1  0
 27 28  2  0
 28 29  1  0
 29 30  2  0
 30 31  1  0
 31 32  2  0
 26 33  1  0
 33 34  2  0
  8 35  1  0
 35 36  2  0
  4 37  1  0
 37 38  2  0
 38  1  1  0
 36  5  1  0
 22  9  2  0
 34 23  1  0
 20 12  1  0
 32 27  1  0
 20 15  1  0
  1 39  1  0
  2 40  1  0
  3 41  1  0
  6 42  1  0
  7 43  1  0
 13 44  1  0
 14 45  1  0
 16 46  1  0
 17 47  1  0
 18 48  1  0
 19 49  1  0
 21 50  1  0
 24 51  1  0
 25 52  1  0
 28 53  1  0
 29 54  1  0
 30 55  1  0
 31 56  1  0
 32 57  1  0
 33 58  1  0
 34 59  1  0
 35 60  1  0
 36 61  1  0
 37 62  1  0
 38 63  1  0
M  END
>  <Binding energies>  (1) 
[-6.03]

>  <Ligand effiencies>  (1) 
[-0.15075]

>  <Interactions>  (1) 
["V-A:LEU:475:CD2:4257, V-A:GLU:543:CD:4906, V-B:ARG:545:CZ:9898, V-B:GLU:543:CD:9880, V-A:ARG:545:CZ:4924, V-A:GLY:454:CA:4047, V-A:ARG:545:CD:4921, V-A:ILE:369:CD1:3237, V-B:HIS:456:CE1:9042, V-A:HIS:456:CD2:4066, V-B:GLY:544:C:9884, V-B:HIS:456:CD2:9040, V-A:LYS:547:CE:4948, V-B:HIS:456:CG:9038, V-B:HIS:456:CB:9037, V-A:HIS:456:CE1:4068, H-A:HIS:456:NE2:4069, V-B:LYS:547:CE:9922, H-B:GLU:543:O:9875, V-B:GLU:543:CG:9879, V-A:ARG:545:CG:4920, V-A:GLY:453:CA:4042, V-A:GLY:453:C:4040, V-A:GLU:543:CG:4905, V-A:TYR:484:CZ:4345, V-B:ARG:545:CG:9894, V-B:GLU:543:CB:9878, V-B:ILE:369:CD1:8211, V-A:GLU:543:CB:4904, V-B:GLU:543:CA:9876, V-B:ARG:545:CD:9895, V-B:TYR:484:CZ:9319, V-B:LEU:475:CD2:9231, V-B:GLY:453:C:9014, V-B:GLY:453:CA:9016, V-A:TYR:484:CE1:4343, V-A:GLU:543:CA:4902, V-B:TYR:484:CE1:9317, V-B:LYS:547:CD:9921"]

$$$$
RR4_Rahimova_2017
     RDKit          3D

 66 70  0  0  0  0  0  0  0  0999 V2000
  133.0530  124.2340   58.8690 C   0  0  0  0  0  0  0  0  0  0  0  0
  132.4150  124.5750   57.6440 O   0  0  0  0  0  0  0  0  0  0  0  0
  131.3170  125.4140   57.6660 C   0  0  0  0  0  0  0  0  0  0  0  0
  130.9070  125.8740   58.9160 C   0  0  0  0  0  0  0  0  0  0  0  0
  129.8110  126.7230   59.0350 C   0  0  0  0  0  0  0  0  0  0  0  0
  129.0890  127.1350   57.9060 C   0  0  0  0  0  0  0  0  0  0  0  0
  127.9060  128.0510   58.0380 C   0  0  0  0  0  0  0  0  0  0  0  0
  127.3540  128.4020   59.2740 C   0  0  0  0  0  0  0  0  0  0  0  0
  126.2520  129.2640   59.3460 C   0  0  0  0  0  0  0  0  0  0  0  0
  125.7340  129.6160   60.7020 C   0  0  0  0  0  0  0  0  0  0  0  0
  126.2630  128.9960   61.8380 C   0  0  0  0  0  0  0  0  0  0  0  0
  125.7950  129.3270   63.1070 C   0  0  0  0  0  0  0  0  0  0  0  0
  124.7960  130.2870   63.2660 C   0  0  0  0  0  0  0  0  0  0  0  0
  124.3950  130.5510   64.5610 O   0  0  0  0  0  0  0  0  0  0  0  0
  124.8930  129.7410   65.6210 C   0  0  0  0  0  0  0  0  0  0  0  0
  124.2670  130.9160   62.1290 C   0  0  0  0  0  0  0  0  0  0  0  0
  124.7370  130.5840   60.8610 C   0  0  0  0  0  0  0  0  0  0  0  0
  125.6930  129.7470   58.1370 C   0  0  0  0  0  0  0  0  0  0  0  0
  124.5400  130.6520   58.1540 C   0  0  0  0  0  0  0  0  0  0  0  0
  123.6300  131.3660   58.1680 N   0  0  0  0  0  0  0  0  0  0  0  0
  126.2830  129.3280   56.9220 C   0  0  0  0  0  0  0  0  0  0  0  0
  125.7070  129.8240   55.3120 S   0  0  0  0  0  0  0  0  0  0  0  0
  127.1350  130.4820   54.3890 C   0  0  0  0  0  0  0  0  0  0  0  0
  128.4790  130.3580   55.1200 C   0  0  0  0  0  0  0  0  0  0  0  0
  129.4110  129.7260   54.6150 O   0  0  0  0  0  0  0  0  0  0  0  0
  128.5270  130.9720   56.3250 N   0  0  0  0  0  0  0  0  0  0  0  0
  129.5950  131.0420   57.2220 C   0  0  0  0  0  0  0  0  0  0  0  0
  129.3990  130.8740   58.9470 S   0  0  0  0  0  0  0  0  0  0  0  0
  131.1010  131.0890   59.2180 C   0  0  0  0  0  0  0  0  0  0  0  0
  131.7940  131.2870   58.0140 C   0  0  0  0  0  0  0  0  0  0  0  0
  130.9420  131.2450   56.8840 C   0  0  0  0  0  0  0  0  0  0  0  0
  131.4170  131.4040   55.5130 C   0  0  0  0  0  0  0  0  0  0  0  0
  131.7940  131.5320   54.4260 N   0  0  0  0  0  0  0  0  0  0  0  0
  133.3170  131.4640   57.9850 C   0  0  0  0  0  0  0  0  0  0  0  0
  133.9450  130.9990   59.3180 C   0  0  0  0  0  0  0  0  0  0  0  0
  133.1780  131.5360   60.5390 C   0  0  0  0  0  0  0  0  0  0  0  0
  131.7340  130.9940   60.6000 C   0  0  0  0  0  0  0  0  0  0  0  0
  127.3680  128.5200   56.8830 N   0  0  0  0  0  0  0  0  0  0  0  0
  129.5110  126.6690   56.6510 C   0  0  0  0  0  0  0  0  0  0  0  0
  130.6070  125.8200   56.5280 C   0  0  0  0  0  0  0  0  0  0  0  0
  132.4299  124.5671   59.7121 H   0  0  0  0  0  0  0  0  0  0  0  0
  133.1879  123.1435   58.9210 H   0  0  0  0  0  0  0  0  0  0  0  0
  134.0346  124.7277   58.9210 H   0  0  0  0  0  0  0  0  0  0  0  0
  131.4552  125.5628   59.8175 H   0  0  0  0  0  0  0  0  0  0  0  0
  129.5061  127.0766   60.0310 H   0  0  0  0  0  0  0  0  0  0  0  0
  127.7896  127.9970   60.1993 H   0  0  0  0  0  0  0  0  0  0  0  0
  127.0552  128.2407   61.7284 H   0  0  0  0  0  0  0  0  0  0  0  0
  126.2168  128.8271   63.9914 H   0  0  0  0  0  0  0  0  0  0  0  0
  124.6169  130.1901   66.5864 H   0  0  0  0  0  0  0  0  0  0  0  0
  124.4583  128.7332   65.5477 H   0  0  0  0  0  0  0  0  0  0  0  0
  125.9885  129.6740   65.5477 H   0  0  0  0  0  0  0  0  0  0  0  0
  123.4779  131.6744   62.2396 H   0  0  0  0  0  0  0  0  0  0  0  0
  124.3204  131.0876   59.9763 H   0  0  0  0  0  0  0  0  0  0  0  0
  127.2101  129.9354   53.4374 H   0  0  0  0  0  0  0  0  0  0  0  0
  126.9509  131.5581   54.2544 H   0  0  0  0  0  0  0  0  0  0  0  0
  127.6910  131.4550   56.6200 H   0  0  0  0  0  0  0  0  0  0  0  0
  133.7346  130.8667   57.1611 H   0  0  0  0  0  0  0  0  0  0  0  0
  133.5470  132.5296   57.8377 H   0  0  0  0  0  0  0  0  0  0  0  0
  133.9363  129.8995   59.3494 H   0  0  0  0  0  0  0  0  0  0  0  0
  134.9713  131.3921   59.3636 H   0  0  0  0  0  0  0  0  0  0  0  0
  133.7096  131.2336   61.4533 H   0  0  0  0  0  0  0  0  0  0  0  0
  133.1260  132.6313   60.4523 H   0  0  0  0  0  0  0  0  0  0  0  0
  131.7495  129.9434   60.9255 H   0  0  0  0  0  0  0  0  0  0  0  0
  131.1473  131.5891   61.3153 H   0  0  0  0  0  0  0  0  0  0  0  0
  128.9654  126.9806   55.7481 H   0  0  0  0  0  0  0  0  0  0  0  0
  130.9171  125.4663   55.5337 H   0  0  0  0  0  0  0  0  0  0  0  0
  1  2  1  0
  2  3  1  0
  3  4  2  0
  4  5  1  0
  5  6  2  0
  6  7  1  0
  7  8  2  0
  8  9  1  0
  9 10  1  0
 10 11  2  0
 11 12  1  0
 12 13  2  0
 13 14  1  0
 14 15  1  0
 13 16  1  0
 16 17  2  0
  9 18  2  0
 18 19  1  0
 19 20  3  0
 18 21  1  0
 21 22  1  0
 22 23  1  0
 23 24  1  0
 24 25  2  0
 24 26  1  0
 26 27  1  0
 27 28  1  0
 28 29  1  0
 29 30  2  0
 30 31  1  0
 31 32  1  0
 32 33  3  0
 30 34  1  0
 34 35  1  0
 35 36  1  0
 36 37  1  0
 21 38  2  0
  6 39  1  0
 39 40  2  0
 40  3  1  0
 38  7  1  0
 17 10  1  0
 31 27  2  0
 37 29  1  0
  1 41  1  0
  1 42  1  0
  1 43  1  0
  4 44  1  0
  5 45  1  0
  8 46  1  0
 11 47  1  0
 12 48  1  0
 15 49  1  0
 15 50  1  0
 15 51  1  0
 16 52  1  0
 17 53  1  0
 23 54  1  0
 23 55  1  0
 26 56  1  0
 34 57  1  0
 34 58  1  0
 35 59  1  0
 35 60  1  0
 36 61  1  0
 36 62  1  0
 37 63  1  0
 37 64  1  0
 39 65  1  0
 40 66  1  0
M  END
>  <Binding energies>  (1) 
[-9.72]

>  <Ligand effiencies>  (1) 
[-0.23707317073170733]

>  <Interactions>  (1) 
["V-B:ASP:366:CG:8185, V-B:TYR:539:CE2:9848, V-A:TYR:539:CE1:4873, V-A:ASP:366:CG:3211, V-A:PRO:540:N:4882, V-A:TYR:539:CZ:4875, V-A:TYR:531:CE2:4791, V-A:LEU:363:CA:3183, H-A:TYR:531:OH:4793, V-A:ASP:366:CB:3210, V-A:ILE:538:CB:4860, V-A:PRO:540:CA:4881, V-A:ILE:538:CG2:4861, V-A:TYR:531:CZ:4792, V-A:PRO:540:CB:4883, V-B:ARG:545:CZ:9898, H-B:TYR:531:OH:9767, V-A:ASN:362:CB:3174, V-A:TYR:539:CE2:4874, V-B:ASP:366:CB:8184, H-B:GLY:454:N:9022, H-A:TYR:539:OH:4876, H-B:TYR:484:OH:9320, H-B:TYR:539:OH:9850, V-A:ASN:362:C:3170, V-A:PRO:540:C:4879, V-B:HIS:456:CE1:9042, V-A:PRO:540:CG:4884, V-B:ARG:545:CG:9894, V-B:ARG:545:CD:9895"]

$$$$
RR5_Rahimova_2017
     RDKit          3D

 77 82  0  0  0  0  0  0  0  0999 V2000
  128.2250  122.3820   57.1940 O   0  0  0  0  0  0  0  0  0  0  0  0
  128.4340  123.5370   56.8270 C   0  0  0  0  0  0  0  0  0  0  0  0
  128.5830  123.8470   55.3250 C   0  0  0  0  0  0  0  0  0  0  0  0
  127.2580  124.3390   54.6410 C   0  0  2  0  0  0  0  0  0  0  0  0
  126.9750  125.7800   54.7940 N   0  0  0  0  0  0  0  0  0  0  0  0
  127.9660  126.6810   55.1590 C   0  0  0  0  0  0  0  0  0  0  0  0
  129.1580  126.4270   55.3490 O   0  0  0  0  0  0  0  0  0  0  0  0
  127.4060  127.8960   55.2910 O   0  0  0  0  0  0  0  0  0  0  0  0
  127.7140  128.9580   54.3920 C   0  0  0  0  0  0  0  0  0  0  0  0
  127.5640  130.3280   55.0890 C   0  0  0  0  0  0  0  0  0  0  0  0
  126.8450  130.2560   56.4250 C   0  0  0  0  0  0  0  0  0  0  0  0
  125.5660  129.7770   56.7220 C   0  0  0  0  0  0  0  0  0  0  0  0
  125.1100  129.7860   58.0410 C   0  0  0  0  0  0  0  0  0  0  0  0
  125.9270  130.2730   59.0630 C   0  0  0  0  0  0  0  0  0  0  0  0
  127.2040  130.7550   58.7680 C   0  0  0  0  0  0  0  0  0  0  0  0
  127.6580  130.7460   57.4480 C   0  0  0  0  0  0  0  0  0  0  0  0
  128.9310  131.1910   56.8590 C   0  0  0  0  0  0  0  0  0  0  0  0
  130.0630  131.7640   57.4430 C   0  0  0  0  0  0  0  0  0  0  0  0
  131.1470  132.1210   56.6400 C   0  0  0  0  0  0  0  0  0  0  0  0
  131.1000  131.9040   55.2610 C   0  0  0  0  0  0  0  0  0  0  0  0
  129.9690  131.3280   54.6830 C   0  0  0  0  0  0  0  0  0  0  0  0
  128.8820  130.9660   55.4830 C   0  0  0  0  0  0  0  0  0  0  0  0
  126.0440  123.5140   55.1360 C   0  0  0  0  0  0  0  0  0  0  0  0
  126.1190  122.4320   55.6820 O   0  0  0  0  0  0  0  0  0  0  0  0
  124.8900  124.1980   54.8810 O   0  0  0  0  0  0  0  0  0  0  0  0
  128.5190  124.6050   57.6520 N   0  0  0  0  0  0  0  0  0  0  0  0
  128.4340  124.7670   59.1350 C   0  0  0  0  0  0  0  0  0  0  0  0
  129.4370  123.6760   59.6410 C   0  0  0  0  0  0  0  0  0  0  0  0
  128.9850  122.4670   60.1970 C   0  0  0  0  0  0  0  0  0  0  0  0
  129.8860  121.5030   60.6420 C   0  0  0  0  0  0  0  0  0  0  0  0
  131.2540  121.7370   60.5490 C   0  0  0  0  0  0  0  0  0  0  0  0
  131.7290  122.9230   60.0020 C   0  0  0  0  0  0  0  0  0  0  0  0
  130.8280  123.8810   59.5480 C   0  0  0  0  0  0  0  0  0  0  0  0
  128.9050  126.2210   59.4740 C   0  0  0  0  0  0  0  0  0  0  0  0
  129.4420  127.0700   58.4930 C   0  0  0  0  0  0  0  0  0  0  0  0
  129.8730  128.3530   58.8210 C   0  0  0  0  0  0  0  0  0  0  0  0
  129.7750  128.8020   60.1340 C   0  0  0  0  0  0  0  0  0  0  0  0
  129.2440  127.9810   61.1220 C   0  0  0  0  0  0  0  0  0  0  0  0
  128.8050  126.7030   60.7910 C   0  0  0  0  0  0  0  0  0  0  0  0
  126.9490  124.4550   59.5220 C   0  0  0  0  0  0  0  0  0  0  0  0
  126.5770  124.2530   60.8630 C   0  0  0  0  0  0  0  0  0  0  0  0
  125.2600  123.9680   61.2130 C   0  0  0  0  0  0  0  0  0  0  0  0
  124.2870  123.8850   60.2240 C   0  0  0  0  0  0  0  0  0  0  0  0
  124.6210  124.0930   58.8910 C   0  0  0  0  0  0  0  0  0  0  0  0
  125.9390  124.3780   58.5460 C   0  0  0  0  0  0  0  0  0  0  0  0
  129.3451  124.6315   55.2075 H   0  0  0  0  0  0  0  0  0  0  0  0
  128.8657  122.9053   54.8317 H   0  0  0  0  0  0  0  0  0  0  0  0
  127.4227  124.1762   53.5657 H   0  0  0  0  0  0  0  0  0  0  0  0
  126.0110  126.0800   54.7980 H   0  0  0  0  0  0  0  0  0  0  0  0
  128.7501  128.8438   54.0405 H   0  0  0  0  0  0  0  0  0  0  0  0
  127.0148  128.9157   53.5438 H   0  0  0  0  0  0  0  0  0  0  0  0
  127.0164  130.8987   54.3245 H   0  0  0  0  0  0  0  0  0  0  0  0
  124.9203  129.3938   55.9181 H   0  0  0  0  0  0  0  0  0  0  0  0
  124.1040  129.4083   58.2760 H   0  0  0  0  0  0  0  0  0  0  0  0
  125.5645  130.2770   60.1015 H   0  0  0  0  0  0  0  0  0  0  0  0
  127.8489  131.1398   59.5717 H   0  0  0  0  0  0  0  0  0  0  0  0
  130.0998  131.9328   58.5293 H   0  0  0  0  0  0  0  0  0  0  0  0
  132.0405  132.5743   57.0940 H   0  0  0  0  0  0  0  0  0  0  0  0
  131.9556  132.1876   54.6305 H   0  0  0  0  0  0  0  0  0  0  0  0
  129.9326  131.1586   53.5967 H   0  0  0  0  0  0  0  0  0  0  0  0
  124.7760  124.9490   55.4670 H   0  0  0  0  0  0  0  0  0  0  0  0
  128.7930  125.4600   57.1920 H   0  0  0  0  0  0  0  0  0  0  0  0
  127.9044  122.2796   60.2818 H   0  0  0  0  0  0  0  0  0  0  0  0
  129.5165  120.5579   61.0664 H   0  0  0  0  0  0  0  0  0  0  0  0
  131.9641  120.9787   60.9106 H   0  0  0  0  0  0  0  0  0  0  0  0
  132.8116  123.1033   59.9284 H   0  0  0  0  0  0  0  0  0  0  0  0
  131.2083  124.8150   59.1087 H   0  0  0  0  0  0  0  0  0  0  0  0
  129.5231  126.7179   57.4540 H   0  0  0  0  0  0  0  0  0  0  0  0
  130.2900  129.0100   58.0435 H   0  0  0  0  0  0  0  0  0  0  0  0
  130.1202  129.8140   60.3922 H   0  0  0  0  0  0  0  0  0  0  0  0
  129.1713  128.3396   62.1594 H   0  0  0  0  0  0  0  0  0  0  0  0
  128.3730  126.0597   61.5717 H   0  0  0  0  0  0  0  0  0  0  0  0
  127.3416  124.3215   61.6509 H   0  0  0  0  0  0  0  0  0  0  0  0
  124.9907  123.8092   62.2676 H   0  0  0  0  0  0  0  0  0  0  0  0
  123.2471  123.6535   60.4977 H   0  0  0  0  0  0  0  0  0  0  0  0
  123.8469  124.0326   58.1118 H   0  0  0  0  0  0  0  0  0  0  0  0
  126.1957  124.5463   57.4897 H   0  0  0  0  0  0  0  0  0  0  0  0
  1  2  2  0
  2  3  1  0
  3  4  1  0
  4  5  1  0
  5  6  1  0
  6  7  2  0
  6  8  1  0
  8  9  1  0
  9 10  1  0
 10 11  1  0
 11 12  2  0
 12 13  1  0
 13 14  2  0
 14 15  1  0
 15 16  2  0
 16 17  1  0
 17 18  2  0
 18 19  1  0
 19 20  2  0
 20 21  1  0
 21 22  2  0
  4 23  1  0
 23 24  2  0
 23 25  1  0
  2 26  1  0
 26 27  1  0
 27 28  1  0
 28 29  2  0
 29 30  1  0
 30 31  2  0
 31 32  1  0
 32 33  2  0
 27 34  1  0
 34 35  2  0
 35 36  1  0
 36 37  2  0
 37 38  1  0
 38 39  2  0
 27 40  1  0
 40 41  2  0
 41 42  1  0
 42 43  2  0
 43 44  1  0
 44 45  2  0
 22 10  1  0
 33 28  1  0
 39 34  1  0
 45 40  1  0
 16 11  1  0
 22 17  1  0
  3 46  1  0
  3 47  1  0
  4 48  1  6
  5 49  1  0
  9 50  1  0
  9 51  1  0
 10 52  1  0
 12 53  1  0
 13 54  1  0
 14 55  1  0
 15 56  1  0
 18 57  1  0
 19 58  1  0
 20 59  1  0
 21 60  1  0
 25 61  1  0
 26 62  1  0
 29 63  1  0
 30 64  1  0
 31 65  1  0
 32 66  1  0
 33 67  1  0
 35 68  1  0
 36 69  1  0
 37 70  1  0
 38 71  1  0
 39 72  1  0
 41 73  1  0
 42 74  1  0
 43 75  1  0
 44 76  1  0
 45 77  1  0
M  END
>  <Binding energies>  (1) 
[-11.27]

>  <Ligand effiencies>  (1) 
[-0.23479166666666665]

>  <Interactions>  (1) 
["V-B:TYR:539:CZ:9849, V-B:ILE:538:CA:9832, V-B:ALA:541:CB:9864, V-B:ASP:366:CG:8185, V-B:PRO:540:CB:9857, V-B:PRO:540:CA:9855, V-B:TYR:539:CE2:9848, V-B:TYR:539:CE1:9847, V-B:TYR:539:CD1:9845, V-B:TYR:539:CD2:9846, V-B:MET:535:CE:9807, V-A:TYR:539:CE1:4873, V-A:PRO:540:N:4882, V-A:ILE:538:CA:4858, V-A:TYR:539:CZ:4875, V-A:TYR:539:C:4865, V-A:ILE:538:CB:4860, V-A:PRO:540:CA:4881, V-A:ILE:538:CG2:4861, V-B:TYR:531:CZ:9766, V-B:ASN:362:CB:8148, H-B:TYR:539:N:9842, H-B:MET:535:SD:9806, H-B:TYR:531:OH:9767, V-B:ILE:538:CG2:9835, V-B:ILE:538:CB:9834, V-A:PRO:540:CD:4885, V-A:TYR:539:CE2:4874, V-B:ASP:366:CB:8184, V-B:MET:535:CG:9805, V-B:ASN:362:C:8144"]

$$$$
RR5_Rahimova_2017-again1
     RDKit          3D

 76 81  0  0  0  0  0  0  0  0999 V2000
  127.5400  123.2520   61.0780 O   0  0  0  0  0  0  0  0  0  0  0  0
  127.5940  123.6390   59.9100 C   0  0  0  0  0  0  0  0  0  0  0  0
  126.2780  123.9780   59.1790 C   0  0  0  0  0  0  0  0  0  0  0  0
  126.3760  124.2280   57.6380 C   0  0  2  0  0  0  0  0  0  0  0  0
  126.1920  125.6700   57.3690 N   0  0  0  0  0  0  0  0  0  0  0  0
  127.1930  126.5970   57.6390 C   0  0  0  0  0  0  0  0  0  0  0  0
  128.2990  126.3600   58.1320 O   0  0  0  0  0  0  0  0  0  0  0  0
  126.7600  127.8180   57.2710 O   0  0  0  0  0  0  0  0  0  0  0  0
  126.1520  128.6930   58.2150 C   0  0  0  0  0  0  0  0  0  0  0  0
  126.3430  130.1590   57.7770 C   0  0  0  0  0  0  0  0  0  0  0  0
  127.5210  130.8430   58.4470 C   0  0  0  0  0  0  0  0  0  0  0  0
  127.7680  131.0660   59.8040 C   0  0  0  0  0  0  0  0  0  0  0  0
  128.9410  131.7120   60.2020 C   0  0  0  0  0  0  0  0  0  0  0  0
  129.8640  132.1390   59.2460 C   0  0  0  0  0  0  0  0  0  0  0  0
  129.6180  131.9230   57.8890 C   0  0  0  0  0  0  0  0  0  0  0  0
  128.4450  131.2760   57.4950 C   0  0  0  0  0  0  0  0  0  0  0  0
  127.9320  130.9320   56.1590 C   0  0  0  0  0  0  0  0  0  0  0  0
  128.4630  131.1520   54.8870 C   0  0  0  0  0  0  0  0  0  0  0  0
  127.7550  130.7310   53.7600 C   0  0  0  0  0  0  0  0  0  0  0  0
  126.5210  130.0930   53.9070 C   0  0  0  0  0  0  0  0  0  0  0  0
  125.9930  129.8730   55.1800 C   0  0  0  0  0  0  0  0  0  0  0  0
  126.7020  130.2910   56.3110 C   0  0  0  0  0  0  0  0  0  0  0  0
  125.3480  123.3420   56.8270 C   0  0  0  0  0  0  0  0  0  0  0  0
  125.8700  122.4010   56.1840 O   0  0  0  0  0  0  0  0  0  0  0  0
  124.1340  123.6400   56.9360 O   0  0  0  0  0  0  0  0  0  0  0  0
  128.7570  123.9000   59.2770 N   0  0  0  0  0  0  0  0  0  0  0  0
  130.1530  123.6930   59.7390 C   0  0  0  0  0  0  0  0  0  0  0  0
  130.3940  124.4610   61.0770 C   0  0  0  0  0  0  0  0  0  0  0  0
  130.1020  125.8330   61.1850 C   0  0  0  0  0  0  0  0  0  0  0  0
  130.3040  126.5180   62.3800 C   0  0  0  0  0  0  0  0  0  0  0  0
  130.7990  125.8390   63.4880 C   0  0  0  0  0  0  0  0  0  0  0  0
  131.0920  124.4810   63.4100 C   0  0  0  0  0  0  0  0  0  0  0  0
  130.8900  123.7970   62.2140 C   0  0  0  0  0  0  0  0  0  0  0  0
  130.5260  122.2170   60.0910 C   0  0  0  0  0  0  0  0  0  0  0  0
  129.5420  121.3030   60.5080 C   0  0  0  0  0  0  0  0  0  0  0  0
  129.8710  119.9880   60.8230 C   0  0  0  0  0  0  0  0  0  0  0  0
  131.1920  119.5650   60.7210 C   0  0  0  0  0  0  0  0  0  0  0  0
  132.1840  120.4460   60.3010 C   0  0  0  0  0  0  0  0  0  0  0  0
  131.8510  121.7610   59.9860 C   0  0  0  0  0  0  0  0  0  0  0  0
  131.0320  124.2960   58.5900 C   0  0  0  0  0  0  0  0  0  0  0  0
  130.4610  124.7870   57.4030 C   0  0  0  0  0  0  0  0  0  0  0  0
  131.2530  125.3370   56.3990 C   0  0  0  0  0  0  0  0  0  0  0  0
  132.6310  125.4160   56.5740 C   0  0  0  0  0  0  0  0  0  0  0  0
  133.2200  124.9600   57.7470 C   0  0  0  0  0  0  0  0  0  0  0  0
  132.4250  124.4100   58.7490 C   0  0  0  0  0  0  0  0  0  0  0  0
  125.5831  123.1402   59.3374 H   0  0  0  0  0  0  0  0  0  0  0  0
  125.9472  124.9357   59.6073 H   0  0  0  0  0  0  0  0  0  0  0  0
  127.3748  123.9236   57.2918 H   0  0  0  0  0  0  0  0  0  0  0  0
  125.3400  125.9730   56.9180 H   0  0  0  0  0  0  0  0  0  0  0  0
  125.0769  128.4693   58.2787 H   0  0  0  0  0  0  0  0  0  0  0  0
  126.6234  128.5463   59.1980 H   0  0  0  0  0  0  0  0  0  0  0  0
  125.3745  130.6090   58.0408 H   0  0  0  0  0  0  0  0  0  0  0  0
  127.0396  130.7333   60.5582 H   0  0  0  0  0  0  0  0  0  0  0  0
  129.1375  131.8844   61.2705 H   0  0  0  0  0  0  0  0  0  0  0  0
  130.7871  132.6467   59.5625 H   0  0  0  0  0  0  0  0  0  0  0  0
  130.3439  132.2605   57.1345 H   0  0  0  0  0  0  0  0  0  0  0  0
  129.4348  131.6547   54.7732 H   0  0  0  0  0  0  0  0  0  0  0  0
  128.1691  130.9018   52.7553 H   0  0  0  0  0  0  0  0  0  0  0  0
  125.9642  129.7633   53.0174 H   0  0  0  0  0  0  0  0  0  0  0  0
  125.0206  129.3716   55.2938 H   0  0  0  0  0  0  0  0  0  0  0  0
  128.6820  124.1510   58.3020 H   0  0  0  0  0  0  0  0  0  0  0  0
  129.7079  126.3730   60.3115 H   0  0  0  0  0  0  0  0  0  0  0  0
  130.0731  127.5914   62.4475 H   0  0  0  0  0  0  0  0  0  0  0  0
  130.9600  126.3792   64.4326 H   0  0  0  0  0  0  0  0  0  0  0  0
  131.4820  123.9493   64.2905 H   0  0  0  0  0  0  0  0  0  0  0  0
  131.1213  122.7231   62.1574 H   0  0  0  0  0  0  0  0  0  0  0  0
  128.4955  121.6327   60.5865 H   0  0  0  0  0  0  0  0  0  0  0  0
  129.0899  119.2864   61.1511 H   0  0  0  0  0  0  0  0  0  0  0  0
  131.4544  118.5272   60.9740 H   0  0  0  0  0  0  0  0  0  0  0  0
  133.2266  120.1052   60.2182 H   0  0  0  0  0  0  0  0  0  0  0  0
  132.6371  122.4532   59.6499 H   0  0  0  0  0  0  0  0  0  0  0  0
  129.3709  124.7358   57.2653 H   0  0  0  0  0  0  0  0  0  0  0  0
  130.7916  125.7074   55.4717 H   0  0  0  0  0  0  0  0  0  0  0  0
  133.2588  125.8426   55.7779 H   0  0  0  0  0  0  0  0  0  0  0  0
  134.3091  125.0332   57.8833 H   0  0  0  0  0  0  0  0  0  0  0  0
  132.8938  124.0589   59.6801 H   0  0  0  0  0  0  0  0  0  0  0  0
  1  2  2  0
  2  3  1  0
  3  4  1  0
  4  5  1  0
  5  6  1  0
  6  7  2  0
  6  8  1  0
  8  9  1  0
  9 10  1  0
 10 11  1  0
 11 12  2  0
 12 13  1  0
 13 14  2  0
 14 15  1  0
 15 16  2  0
 16 17  1  0
 17 18  2  0
 18 19  1  0
 19 20  2  0
 20 21  1  0
 21 22  2  0
  4 23  1  0
 23 24  2  0
 23 25  1  0
  2 26  1  0
 26 27  1  0
 27 28  1  0
 28 29  2  0
 29 30  1  0
 30 31  2  0
 31 32  1  0
 32 33  2  0
 27 34  1  0
 34 35  2  0
 35 36  1  0
 36 37  2  0
 37 38  1  0
 38 39  2  0
 27 40  1  0
 40 41  2  0
 41 42  1  0
 42 43  2  0
 43 44  1  0
 44 45  2  0
 22 10  1  0
 33 28  1  0
 39 34  1  0
 45 40  1  0
 16 11  1  0
 22 17  1  0
  3 46  1  0
  3 47  1  0
  4 48  1  6
  5 49  1  0
  9 50  1  0
  9 51  1  0
 10 52  1  0
 12 53  1  0
 13 54  1  0
 14 55  1  0
 15 56  1  0
 18 57  1  0
 19 58  1  0
 20 59  1  0
 21 60  1  0
 26 61  1  0
 29 62  1  0
 30 63  1  0
 31 64  1  0
 32 65  1  0
 33 66  1  0
 35 67  1  0
 36 68  1  0
 37 69  1  0
 38 70  1  0
 39 71  1  0
 41 72  1  0
 42 73  1  0
 43 74  1  0
 44 75  1  0
 45 76  1  0
M  CHG  1  25  -1
M  END
>  <Binding energies>  (1) 
[-10.52]

>  <Ligand effiencies>  (1) 
[-0.22382978723404254]

>  <Interactions>  (1) 
["V-B:PRO:540:N:9856, V-A:TRP:381:CZ2:3368, V-B:TYR:539:CZ:9849, V-A:TRP:381:CH2:3370, V-B:ALA:541:CB:9864, V-A:PRO:482:CG:4325, V-B:ASP:366:CG:8185, V-B:PRO:540:CB:9857, V-B:PRO:540:CA:9855, H-B:ALA:541:N:9863, V-B:TYR:539:CE2:9848, V-A:LEU:475:CD2:4257, V-A:PRO:482:CB:4324, V-B:TYR:539:CD2:9846, V-B:MET:535:CE:9807, V-A:TYR:539:CE1:4873, V-A:ASP:366:CG:3211, V-A:PRO:540:N:4882, V-A:TYR:539:CZ:4875, V-A:ASP:366:CB:3210, V-A:TYR:539:C:4865, V-A:PRO:540:CA:4881, H-B:TYR:539:N:9842, V-B:GLU:543:CD:9880, H-B:TYR:531:OH:9767, V-B:TYR:539:C:9839, H-B:ASP:366:OD2:8187, V-B:PRO:540:CD:9859, V-A:TYR:539:CE2:4874, V-B:TYR:531:CE1:9764, V-A:TYR:531:CE1:4790, V-A:ASP:366:CA:3208, V-A:PRO:540:C:4879, V-A:ASP:366:C:3206"]

$$$$
RR6_Rahimova_2017
     RDKit          3D

 63 66  0  0  0  0  0  0  0  0999 V2000
  128.8960  132.1850   57.6600 C   0  0  0  0  0  0  0  0  0  0  0  0
  129.8310  132.4720   56.6290 O   0  0  0  0  0  0  0  0  0  0  0  0
  129.9150  131.6890   55.5240 C   0  0  0  0  0  0  0  0  0  0  0  0
  130.4430  132.0550   54.4690 O   0  0  0  0  0  0  0  0  0  0  0  0
  129.3010  130.3310   55.7100 C   0  0  0  0  0  0  0  0  0  0  0  0
  129.9110  129.3410   56.4930 C   0  0  0  0  0  0  0  0  0  0  0  0
  129.3200  128.0880   56.6410 C   0  0  0  0  0  0  0  0  0  0  0  0
  128.1050  127.8030   55.9990 C   0  0  0  0  0  0  0  0  0  0  0  0
  127.4380  126.5660   56.0570 N   0  0  0  0  0  0  0  0  0  0  0  0
  127.8340  125.3570   55.6010 C   0  0  0  0  0  0  0  0  0  0  0  0
  128.9050  125.1220   55.0400 O   0  0  0  0  0  0  0  0  0  0  0  0
  126.8160  124.2230   55.7590 C   0  0  0  0  0  0  0  0  0  0  0  0
  126.7310  123.5440   57.4500 S   0  0  0  0  0  0  0  0  0  0  0  0
  127.4610  124.7590   58.5290 C   0  0  0  0  0  0  0  0  0  0  0  0
  126.8340  125.9600   58.5220 N   0  0  0  0  0  0  0  0  0  0  0  0
  127.2810  126.9570   59.3250 C   0  0  0  0  0  0  0  0  0  0  0  0
  126.4940  128.2350   59.3040 C   0  0  0  0  0  0  0  0  0  0  0  0
  126.3940  129.0410   60.4490 C   0  0  0  0  0  0  0  0  0  0  0  0
  125.6520  130.2190   60.4320 C   0  0  0  0  0  0  0  0  0  0  0  0
  124.9990  130.6170   59.2660 C   0  0  0  0  0  0  0  0  0  0  0  0
  124.1850  131.8980   59.2560 C   0  0  0  0  0  0  0  0  0  0  0  0
  125.0880  129.8320   58.1190 C   0  0  0  0  0  0  0  0  0  0  0  0
  125.8310  128.6560   58.1410 C   0  0  0  0  0  0  0  0  0  0  0  0
  128.3920  126.7660   60.1530 C   0  0  0  0  0  0  0  0  0  0  0  0
  129.0610  125.5340   60.1740 C   0  0  0  0  0  0  0  0  0  0  0  0
  130.2290  125.3920   61.0950 C   0  0  0  0  0  0  0  0  0  0  0  0
  131.4570  124.9350   60.6070 C   0  0  0  0  0  0  0  0  0  0  0  0
  132.5550  124.8150   61.4550 C   0  0  0  0  0  0  0  0  0  0  0  0
  132.4490  125.1530   62.8030 C   0  0  0  0  0  0  0  0  0  0  0  0
  133.5900  125.0050   63.5680 O   0  0  0  0  0  0  0  0  0  0  0  0
  133.4850  125.0600   64.9860 C   0  0  0  0  0  0  0  0  0  0  0  0
  131.2200  125.6170   63.2960 C   0  0  0  0  0  0  0  0  0  0  0  0
  130.1240  125.7370   62.4450 C   0  0  0  0  0  0  0  0  0  0  0  0
  128.5880  124.4960   59.3330 C   0  0  0  0  0  0  0  0  0  0  0  0
  129.2590  123.1930   59.2850 C   0  0  0  0  0  0  0  0  0  0  0  0
  129.7870  122.1640   59.2490 N   0  0  0  0  0  0  0  0  0  0  0  0
  127.4870  128.7920   55.2330 C   0  0  0  0  0  0  0  0  0  0  0  0
  128.0810  130.0420   55.0850 C   0  0  0  0  0  0  0  0  0  0  0  0
  129.3740  132.3317   58.6398 H   0  0  0  0  0  0  0  0  0  0  0  0
  128.0316  132.8592   57.5691 H   0  0  0  0  0  0  0  0  0  0  0  0
  128.5587  131.1420   57.5691 H   0  0  0  0  0  0  0  0  0  0  0  0
  130.8657  129.5556   56.9955 H   0  0  0  0  0  0  0  0  0  0  0  0
  129.8063  127.3212   57.2618 H   0  0  0  0  0  0  0  0  0  0  0  0
  126.4970  126.6170   56.4180 H   0  0  0  0  0  0  0  0  0  0  0  0
  125.8218  124.6088   55.4893 H   0  0  0  0  0  0  0  0  0  0  0  0
  127.1416  123.4046   55.1000 H   0  0  0  0  0  0  0  0  0  0  0  0
  126.9090  128.7377   61.3725 H   0  0  0  0  0  0  0  0  0  0  0  0
  125.5808  130.8365   61.3395 H   0  0  0  0  0  0  0  0  0  0  0  0
  123.9847  132.2132   60.2907 H   0  0  0  0  0  0  0  0  0  0  0  0
  124.7482  132.6863   58.7350 H   0  0  0  0  0  0  0  0  0  0  0  0
  123.2321  131.7229   58.7350 H   0  0  0  0  0  0  0  0  0  0  0  0
  124.5721  130.1411   57.1980 H   0  0  0  0  0  0  0  0  0  0  0  0
  125.9001  128.0444   57.2293 H   0  0  0  0  0  0  0  0  0  0  0  0
  128.7436  127.5888   60.7927 H   0  0  0  0  0  0  0  0  0  0  0  0
  131.5566  124.6681   59.5445 H   0  0  0  0  0  0  0  0  0  0  0  0
  133.5138  124.4505   61.0578 H   0  0  0  0  0  0  0  0  0  0  0  0
  134.3734  124.5946   65.4378 H   0  0  0  0  0  0  0  0  0  0  0  0
  133.4169  126.1096   65.3082 H   0  0  0  0  0  0  0  0  0  0  0  0
  132.5835  124.5183   65.3082 H   0  0  0  0  0  0  0  0  0  0  0  0
  131.1218  125.8868   64.3579 H   0  0  0  0  0  0  0  0  0  0  0  0
  129.1662  126.1070   62.8396 H   0  0  0  0  0  0  0  0  0  0  0  0
  126.5246  128.5826   54.7432 H   0  0  0  0  0  0  0  0  0  0  0  0
  127.5878  130.8103   54.4714 H   0  0  0  0  0  0  0  0  0  0  0  0
  1  2  1  0
  2  3  1  0
  3  4  2  0
  3  5  1  0
  5  6  2  0
  6  7  1  0
  7  8  2  0
  8  9  1  0
  9 10  1  0
 10 11  2  0
 10 12  1  0
 12 13  1  0
 13 14  1  0
 14 15  2  0
 15 16  1  0
 16 17  1  0
 17 18  2  0
 18 19  1  0
 19 20  2  0
 20 21  1  0
 20 22  1  0
 22 23  2  0
 16 24  2  0
 24 25  1  0
 25 26  1  0
 26 27  2  0
 27 28  1  0
 28 29  2  0
 29 30  1  0
 30 31  1  0
 29 32  1  0
 32 33  2  0
 25 34  2  0
 34 35  1  0
 35 36  3  0
  8 37  1  0
 37 38  2  0
 38  5  1  0
 34 14  1  0
 23 17  1  0
 33 26  1  0
  1 39  1  0
  1 40  1  0
  1 41  1  0
  6 42  1  0
  7 43  1  0
  9 44  1  0
 12 45  1  0
 12 46  1  0
 18 47  1  0
 19 48  1  0
 21 49  1  0
 21 50  1  0
 21 51  1  0
 22 52  1  0
 23 53  1  0
 24 54  1  0
 27 55  1  0
 28 56  1  0
 31 57  1  0
 31 58  1  0
 31 59  1  0
 32 60  1  0
 33 61  1  0
 37 62  1  0
 38 63  1  0
M  END
>  <Binding energies>  (1) 
[-7.81]

>  <Ligand effiencies>  (1) 
[-0.20025641025641025]

>  <Interactions>  (1) 
["V-B:ASP:366:CG:8185, V-B:TYR:539:CE2:9848, V-B:TYR:539:CD2:9846, V-A:ASP:366:CG:3211, H-A:TYR:539:N:4868, V-A:TYR:539:CZ:4875, V-A:TYR:539:C:4865, V-B:GLU:543:CD:9880, H-B:TYR:531:OH:9767, V-A:ARG:545:CZ:4924, V-A:ARG:545:CD:4921, H-A:ARG:545:NE:4922, H-A:GLY:454:N:4048, V-A:TYR:539:CE2:4874, V-B:ASP:366:CB:8184, H-A:ARG:545:NH2:4926, H-A:ARG:545:NH1:4925, V-A:TYR:539:CD2:4872, V-A:TYR:539:CG:4870, V-A:ARG:545:CG:4920, V-B:ILE:369:CG2:8209"]

$$$$
RR7_Rahimova_2017
     RDKit          3D

 80 86  0  0  0  0  0  0  0  0999 V2000
  131.1530  130.7730   60.6140 C   0  0  0  0  0  0  0  0  0  0  0  0
  129.9090  130.5470   59.9570 O   0  0  0  0  0  0  0  0  0  0  0  0
  129.4870  129.2480   59.7450 C   0  0  0  0  0  0  0  0  0  0  0  0
  130.1010  128.5560   58.7030 C   0  0  0  0  0  0  0  0  0  0  0  0
  129.7450  127.2420   58.4180 C   0  0  0  0  0  0  0  0  0  0  0  0
  128.7520  126.5900   59.1640 C   0  0  0  0  0  0  0  0  0  0  0  0
  128.3560  125.1060   58.8870 C   0  0  0  0  0  0  0  0  0  0  0  0
  129.5060  124.3050   59.2410 O   0  0  0  0  0  0  0  0  0  0  0  0
  130.4500  123.9220   58.2350 C   0  0  0  0  0  0  0  0  0  0  0  0
  131.7890  124.6230   58.5130 C   0  0  1  0  0  0  0  0  0  0  0  0
  131.5910  125.4570   59.6520 O   0  0  0  0  0  0  0  0  0  0  0  0
  132.4570  125.1270   60.6990 C   0  0  1  0  0  0  0  0  0  0  0  0
  131.8090  125.3590   61.9750 N   0  0  0  0  0  0  0  0  0  0  0  0
  130.5170  125.7960   62.2080 C   0  0  0  0  0  0  0  0  0  0  0  0
  130.2010  125.9660   63.4680 N   0  0  0  0  0  0  0  0  0  0  0  0
  131.3580  125.6720   64.1380 C   0  0  0  0  0  0  0  0  0  0  0  0
  131.6810  125.6770   65.5090 C   0  0  0  0  0  0  0  0  0  0  0  0
  130.6820  126.0270   66.4370 N   0  0  0  0  0  0  0  0  0  0  0  0
  130.6650  127.0460   67.3270 C   0  0  0  0  0  0  0  0  0  0  0  0
  131.5850  127.8540   67.4760 O   0  0  0  0  0  0  0  0  0  0  0  0
  129.4280  127.1380   68.1950 C   0  0  0  0  0  0  0  0  0  0  0  0
  129.5630  127.2580   69.5870 C   0  0  0  0  0  0  0  0  0  0  0  0
  128.4390  127.3490   70.4020 C   0  0  0  0  0  0  0  0  0  0  0  0
  127.1700  127.3270   69.8330 C   0  0  0  0  0  0  0  0  0  0  0  0
  127.0140  127.2130   68.4540 C   0  0  0  0  0  0  0  0  0  0  0  0
  128.1380  127.1200   67.6370 C   0  0  0  0  0  0  0  0  0  0  0  0
  132.9500  125.3490   65.8970 N   0  0  0  0  0  0  0  0  0  0  0  0
  133.8470  125.0310   64.9270 C   0  0  0  0  0  0  0  0  0  0  0  0
  133.6420  124.9900   63.5830 N   0  0  0  0  0  0  0  0  0  0  0  0
  132.3890  125.3100   63.2340 C   0  0  0  0  0  0  0  0  0  0  0  0
  132.8700  123.6830   60.4390 C   0  0  0  0  0  0  0  0  0  0  0  0
  132.9380  123.6900   58.9210 C   0  0  2  0  0  0  0  0  0  0  0  0
  134.1960  124.1410   58.4480 O   0  0  0  0  0  0  0  0  0  0  0  0
  127.1810  124.6320   59.7830 C   0  0  0  0  0  0  0  0  0  0  0  0
  125.8750  124.5780   59.2690 C   0  0  0  0  0  0  0  0  0  0  0  0
  124.8120  124.1680   60.0670 C   0  0  0  0  0  0  0  0  0  0  0  0
  125.0440  123.8070   61.3910 C   0  0  0  0  0  0  0  0  0  0  0  0
  126.3290  123.8530   61.9220 C   0  0  0  0  0  0  0  0  0  0  0  0
  127.3920  124.2650   61.1230 C   0  0  0  0  0  0  0  0  0  0  0  0
  127.9260  124.7810   57.4280 C   0  0  0  0  0  0  0  0  0  0  0  0
  127.6890  123.4540   57.0370 C   0  0  0  0  0  0  0  0  0  0  0  0
  127.3130  123.1520   55.7320 C   0  0  0  0  0  0  0  0  0  0  0  0
  127.1800  124.1760   54.7980 C   0  0  0  0  0  0  0  0  0  0  0  0
  127.4230  125.4970   55.1610 C   0  0  0  0  0  0  0  0  0  0  0  0
  127.7980  125.7970   56.4670 C   0  0  0  0  0  0  0  0  0  0  0  0
  128.1470  127.2860   60.2200 C   0  0  0  0  0  0  0  0  0  0  0  0
  128.5040  128.6010   60.5060 C   0  0  0  0  0  0  0  0  0  0  0  0
  131.0026  130.7457   61.7033 H   0  0  0  0  0  0  0  0  0  0  0  0
  131.8689  129.9902   60.3229 H   0  0  0  0  0  0  0  0  0  0  0  0
  131.5478  131.7576   60.3229 H   0  0  0  0  0  0  0  0  0  0  0  0
  130.8747  129.0537   58.1000 H   0  0  0  0  0  0  0  0  0  0  0  0
  130.2479  126.7080   57.5983 H   0  0  0  0  0  0  0  0  0  0  0  0
  130.5926  122.8315   58.2590 H   0  0  0  0  0  0  0  0  0  0  0  0
  130.0757  124.2153   57.2431 H   0  0  0  0  0  0  0  0  0  0  0  0
  132.0663  125.1300   57.5770 H   0  0  0  0  0  0  0  0  0  0  0  0
  133.3603  125.7531   60.7436 H   0  0  0  0  0  0  0  0  0  0  0  0
  129.8047  125.9874   61.3920 H   0  0  0  0  0  0  0  0  0  0  0  0
  129.8730  125.4220   66.4280 H   0  0  0  0  0  0  0  0  0  0  0  0
  130.5663  127.2803   70.0375 H   0  0  0  0  0  0  0  0  0  0  0  0
  128.5536  127.4380   71.4924 H   0  0  0  0  0  0  0  0  0  0  0  0
  126.2819  127.4003   70.4780 H   0  0  0  0  0  0  0  0  0  0  0  0
  126.0070  127.1965   68.0117 H   0  0  0  0  0  0  0  0  0  0  0  0
  128.0154  127.0318   66.5474 H   0  0  0  0  0  0  0  0  0  0  0  0
  134.8606  124.7761   65.2699 H   0  0  0  0  0  0  0  0  0  0  0  0
  133.8466  123.4515   60.8892 H   0  0  0  0  0  0  0  0  0  0  0  0
  132.1952  122.9267   60.8665 H   0  0  0  0  0  0  0  0  0  0  0  0
  132.8352  122.6853   58.4852 H   0  0  0  0  0  0  0  0  0  0  0  0
  134.4380  124.9350   58.9320 H   0  0  0  0  0  0  0  0  0  0  0  0
  125.6906  124.8634   58.2228 H   0  0  0  0  0  0  0  0  0  0  0  0
  123.7933  124.1293   59.6538 H   0  0  0  0  0  0  0  0  0  0  0  0
  124.2041  123.4825   62.0229 H   0  0  0  0  0  0  0  0  0  0  0  0
  126.5045  123.5650   62.9690 H   0  0  0  0  0  0  0  0  0  0  0  0
  128.4072  124.3036   61.5448 H   0  0  0  0  0  0  0  0  0  0  0  0
  127.8019  122.6428   57.7714 H   0  0  0  0  0  0  0  0  0  0  0  0
  127.1217  122.1090   55.4394 H   0  0  0  0  0  0  0  0  0  0  0  0
  126.8808  123.9391   53.7663 H   0  0  0  0  0  0  0  0  0  0  0  0
  127.3190  126.3015   54.4181 H   0  0  0  0  0  0  0  0  0  0  0  0
  127.9963  126.8414   56.7498 H   0  0  0  0  0  0  0  0  0  0  0  0
  127.3803  126.7866   60.8305 H   0  0  0  0  0  0  0  0  0  0  0  0
  128.0123  129.1344   61.3329 H   0  0  0  0  0  0  0  0  0  0  0  0
  1  2  1  0
  2  3  1  0
  3  4  2  0
  4  5  1  0
  5  6  2  0
  6  7  1  0
  7  8  1  0
  8  9  1  0
  9 10  1  0
 10 11  1  0
 11 12  1  0
 12 13  1  0
 13 14  1  0
 14 15  2  0
 15 16  1  0
 16 17  2  0
 17 18  1  0
 18 19  1  0
 19 20  2  0
 19 21  1  0
 21 22  2  0
 22 23  1  0
 23 24  2  0
 24 25  1  0
 25 26  2  0
 17 27  1  0
 27 28  2  0
 28 29  1  0
 29 30  2  0
 12 31  1  0
 31 32  1  0
 32 33  1  0
  7 34  1  0
 34 35  2  0
 35 36  1  0
 36 37  2  0
 37 38  1  0
 38 39  2  0
  7 40  1  0
 40 41  2  0
 41 42  1  0
 42 43  2  0
 43 44  1  0
 44 45  2  0
  6 46  1  0
 46 47  2  0
 47  3  1  0
 32 10  1  0
 39 34  1  0
 45 40  1  0
 30 13  1  0
 30 16  1  0
 26 21  1  0
  1 48  1  0
  1 49  1  0
  1 50  1  0
  4 51  1  0
  5 52  1  0
  9 53  1  0
  9 54  1  0
 10 55  1  6
 12 56  1  1
 14 57  1  0
 18 58  1  0
 22 59  1  0
 23 60  1  0
 24 61  1  0
 25 62  1  0
 26 63  1  0
 28 64  1  0
 31 65  1  0
 31 66  1  0
 32 67  1  6
 33 68  1  0
 35 69  1  0
 36 70  1  0
 37 71  1  0
 38 72  1  0
 39 73  1  0
 41 74  1  0
 42 75  1  0
 43 76  1  0
 44 77  1  0
 45 78  1  0
 46 79  1  0
 47 80  1  0
M  END
>  <Binding energies>  (1) 
[-9.87]

>  <Ligand effiencies>  (1) 
[-0.2014285714285714]

>  <Interactions>  (1) 
["H-B:GLU:543:OE1:9881, V-B:TYR:539:CZ:9849, V-B:ILE:538:CA:9832, V-B:ASP:366:CG:8185, V-B:PRO:540:CB:9857, V-B:PRO:540:CA:9855, V-B:PRO:540:C:9853, V-B:ALA:541:CA:9862, V-B:TYR:539:CE2:9848, V-B:TYR:539:CD1:9845, V-B:TYR:539:CD2:9846, V-A:ASP:366:CG:3211, V-A:PRO:540:CA:4881, V-A:GLU:543:CD:4906, V-B:ASN:362:CB:8148, V-B:GLU:543:CD:9880, V-B:TYR:539:C:9839, H-B:GLU:543:OE2:9882, V-A:ARG:545:CZ:4924, H-A:ASP:366:OD2:3213, V-A:GLY:454:CA:4047, V-A:ARG:545:CD:4921, H-A:TYR:484:OH:4346, H-A:ARG:545:NE:4922, H-A:GLY:454:N:4048, H-A:ARG:545:NH2:4926, H-A:ASP:366:OD1:3212, H-A:ASP:366:O:3207, H-A:ARG:545:NH1:4925, V-B:HIS:456:CE1:9042, V-B:GLY:544:C:9884, V-B:HIS:456:CD2:9040, V-A:HIS:456:CE1:4068, H-A:HIS:456:NE2:4069, V-B:GLY:544:CA:9886, H-B:GLU:543:O:9875, V-B:GLU:543:CG:9879, V-B:GLU:543:C:9874, V-A:ARG:545:CG:4920, V-A:GLY:453:CA:4042, V-A:GLY:453:C:4040, V-A:GLU:543:CG:4905, V-B:ARG:545:CG:9894, V-B:GLU:543:CB:9878, H-A:HIS:456:ND1:4065, V-B:ARG:545:CA:9891, H-A:ARG:545:N:4918"]

$$$$
RR8_A_Rahimova_2017
     RDKit          3D

 73 77  0  0  0  0  0  0  0  0999 V2000
  127.3570  126.2260   55.5930 O   0  0  0  0  0  0  0  0  0  0  0  0
  128.4340  126.6600   55.1720 C   0  0  0  0  0  0  0  0  0  0  0  0
  129.3260  125.9300   54.4330 O   0  0  0  0  0  0  0  0  0  0  0  0
  130.2590  125.1500   55.1290 C   0  0  1  0  0  0  0  0  0  0  0  0
  131.3260  125.9200   55.6000 O   0  0  0  0  0  0  0  0  0  0  0  0
  131.7550  125.4970   56.8910 C   0  0  2  0  0  0  0  0  0  0  0  0
  133.2580  125.1720   56.8270 C   0  0  0  0  0  0  0  0  0  0  0  0
  133.4750  123.8940   57.4080 O   0  0  0  0  0  0  0  0  0  0  0  0
  134.1210  123.9370   58.6740 C   0  0  0  0  0  0  0  0  0  0  0  0
  133.2250  123.3110   59.7320 C   0  0  0  0  0  0  0  0  0  0  0  0
  132.7420  124.0910   60.7860 C   0  0  0  0  0  0  0  0  0  0  0  0
  131.9160  123.5210   61.7530 C   0  0  0  0  0  0  0  0  0  0  0  0
  131.5720  122.1740   61.6610 C   0  0  0  0  0  0  0  0  0  0  0  0
  132.0450  121.3910   60.6100 C   0  0  0  0  0  0  0  0  0  0  0  0
  132.8690  121.9600   59.6430 C   0  0  0  0  0  0  0  0  0  0  0  0
  130.8360  124.3110   57.2110 C   0  0  1  0  0  0  0  0  0  0  0  0
  130.4310  124.2680   58.5780 O   0  0  0  0  0  0  0  0  0  0  0  0
  129.8190  125.4500   59.0780 C   0  0  0  0  0  0  0  0  0  0  0  0
  128.5850  125.0910   59.8940 C   0  0  0  0  0  0  0  0  0  0  0  0
  128.5020  123.8390   60.5100 C   0  0  0  0  0  0  0  0  0  0  0  0
  127.3730  123.5000   61.2500 C   0  0  0  0  0  0  0  0  0  0  0  0
  126.3260  124.4120   61.3700 C   0  0  0  0  0  0  0  0  0  0  0  0
  126.3970  125.6590   60.7530 C   0  0  0  0  0  0  0  0  0  0  0  0
  127.5260  125.9980   60.0110 C   0  0  0  0  0  0  0  0  0  0  0  0
  129.5970  124.5960   56.3820 C   0  0  2  0  0  0  0  0  0  0  0  0
  128.8570  123.3990   56.1580 O   0  0  0  0  0  0  0  0  0  0  0  0
  128.0880  122.9330   57.2620 C   0  0  0  0  0  0  0  0  0  0  0  0
  126.6160  123.2490   57.0380 C   0  0  0  0  0  0  0  0  0  0  0  0
  125.8150  123.6620   58.1070 C   0  0  0  0  0  0  0  0  0  0  0  0
  124.4710  123.9590   57.8960 C   0  0  0  0  0  0  0  0  0  0  0  0
  123.9330  123.8470   56.6160 C   0  0  0  0  0  0  0  0  0  0  0  0
  124.7250  123.4420   55.5440 C   0  0  0  0  0  0  0  0  0  0  0  0
  126.0700  123.1440   55.7550 C   0  0  0  0  0  0  0  0  0  0  0  0
  128.8970  128.0680   55.4130 C   0  0  0  0  0  0  0  0  0  0  0  0
  129.8140  128.3840   56.4280 C   0  0  0  0  0  0  0  0  0  0  0  0
  130.2230  129.6990   56.6270 C   0  0  0  0  0  0  0  0  0  0  0  0
  129.7270  130.7320   55.8210 C   0  0  0  0  0  0  0  0  0  0  0  0
  130.1650  132.1330   56.0330 N   0  0  0  0  0  0  0  0  0  0  0  0
  131.2270  132.4990   55.5390 O   0  0  0  0  0  0  0  0  0  0  0  0
  129.4490  132.8780   56.6960 O   0  0  0  0  0  0  0  0  0  0  0  0
  128.8100  130.4160   54.8100 C   0  0  0  0  0  0  0  0  0  0  0  0
  128.4000  129.1020   54.6090 C   0  0  0  0  0  0  0  0  0  0  0  0
  130.6118  124.3728   54.4351 H   0  0  0  0  0  0  0  0  0  0  0  0
  131.6720  126.2439   57.6943 H   0  0  0  0  0  0  0  0  0  0  0  0
  133.5899  125.1626   55.7783 H   0  0  0  0  0  0  0  0  0  0  0  0
  133.8291  125.9345   57.3770 H   0  0  0  0  0  0  0  0  0  0  0  0
  135.0672  123.3787   58.6201 H   0  0  0  0  0  0  0  0  0  0  0  0
  134.3230  124.9843   58.9430 H   0  0  0  0  0  0  0  0  0  0  0  0
  133.0137  125.1548   60.8525 H   0  0  0  0  0  0  0  0  0  0  0  0
  131.5372  124.1321   62.5855 H   0  0  0  0  0  0  0  0  0  0  0  0
  130.9209  121.7245   62.4252 H   0  0  0  0  0  0  0  0  0  0  0  0
  131.7686  120.3283   60.5447 H   0  0  0  0  0  0  0  0  0  0  0  0
  133.2407  121.3476   58.8083 H   0  0  0  0  0  0  0  0  0  0  0  0
  131.3482  123.3600   57.0030 H   0  0  0  0  0  0  0  0  0  0  0  0
  130.5344  125.9886   59.7169 H   0  0  0  0  0  0  0  0  0  0  0  0
  129.5206  126.0878   58.2329 H   0  0  0  0  0  0  0  0  0  0  0  0
  129.3295  123.1212   60.4099 H   0  0  0  0  0  0  0  0  0  0  0  0
  127.3074  122.5164   61.7381 H   0  0  0  0  0  0  0  0  0  0  0  0
  125.4352  124.1447   61.9574 H   0  0  0  0  0  0  0  0  0  0  0  0
  125.5655  126.3724   60.8513 H   0  0  0  0  0  0  0  0  0  0  0  0
  127.5851  126.9790   59.5169 H   0  0  0  0  0  0  0  0  0  0  0  0
  128.8510  125.2723   56.8248 H   0  0  0  0  0  0  0  0  0  0  0  0
  128.2163  121.8452   57.3626 H   0  0  0  0  0  0  0  0  0  0  0  0
  128.4305  123.4342   58.1793 H   0  0  0  0  0  0  0  0  0  0  0  0
  126.2465  123.7523   59.1148 H   0  0  0  0  0  0  0  0  0  0  0  0
  123.8374  124.2804   58.7358 H   0  0  0  0  0  0  0  0  0  0  0  0
  122.8711  124.0809   56.4499 H   0  0  0  0  0  0  0  0  0  0  0  0
  124.2913  123.3579   54.5366 H   0  0  0  0  0  0  0  0  0  0  0  0
  126.7019  122.8263   54.9125 H   0  0  0  0  0  0  0  0  0  0  0  0
  130.2124  127.5855   57.0712 H   0  0  0  0  0  0  0  0  0  0  0  0
  130.9434  129.9299   57.4256 H   0  0  0  0  0  0  0  0  0  0  0  0
  128.4101  131.2152   54.1686 H   0  0  0  0  0  0  0  0  0  0  0  0
  127.6785  128.8726   53.8110 H   0  0  0  0  0  0  0  0  0  0  0  0
  1  2  2  0
  2  3  1  0
  3  4  1  0
  4  5  1  0
  5  6  1  0
  6  7  1  0
  7  8  1  0
  8  9  1  0
  9 10  1  0
 10 11  2  0
 11 12  1  0
 12 13  2  0
 13 14  1  0
 14 15  2  0
  6 16  1  0
 16 17  1  0
 17 18  1  0
 18 19  1  0
 19 20  2  0
 20 21  1  0
 21 22  2  0
 22 23  1  0
 23 24  2  0
 16 25  1  0
 25 26  1  0
 26 27  1  0
 27 28  1  0
 28 29  2  0
 29 30  1  0
 30 31  2  0
 31 32  1  0
 32 33  2  0
  2 34  1  0
 34 35  2  0
 35 36  1  0
 36 37  2  0
 37 38  1  0
 38 39  2  0
 38 40  1  0
 37 41  1  0
 41 42  2  0
 25  4  1  0
 33 28  1  0
 42 34  1  0
 15 10  1  0
 24 19  1  0
  4 43  1  6
  6 44  1  1
  7 45  1  0
  7 46  1  0
  9 47  1  0
  9 48  1  0
 11 49  1  0
 12 50  1  0
 13 51  1  0
 14 52  1  0
 15 53  1  0
 16 54  1  6
 18 55  1  0
 18 56  1  0
 20 57  1  0
 21 58  1  0
 22 59  1  0
 23 60  1  0
 24 61  1  0
 25 62  1  1
 27 63  1  0
 27 64  1  0
 29 65  1  0
 30 66  1  0
 31 67  1  0
 32 68  1  0
 33 69  1  0
 35 70  1  0
 36 71  1  0
 41 72  1  0
 42 73  1  0
M  CHG  2  38   1  40  -1
M  END
>  <Binding energies>  (1) 
[-10.68]

>  <Ligand effiencies>  (1) 
[-0.2542857142857143]

>  <Interactions>  (1) 
["V-B:PRO:540:N:9856, V-B:TYR:539:CZ:9849, V-B:ILE:538:CA:9832, V-B:ALA:541:CB:9864, V-B:PRO:540:CB:9857, V-B:PRO:540:CA:9855, V-B:TYR:539:CE2:9848, V-A:LEU:475:CD2:4257, V-B:TYR:539:CE1:9847, V-B:TYR:539:CD2:9846, V-A:ASP:366:CG:3211, V-A:PRO:540:N:4882, H-A:TYR:539:N:4868, V-A:ILE:538:CA:4858, H-A:TYR:531:OH:4793, V-A:ASP:366:CB:3210, V-A:TYR:539:C:4865, V-B:TYR:531:CE2:9765, V-B:LEU:363:CD1:8161, V-B:TYR:531:CZ:9766, V-B:GLU:543:CD:9880, H-B:TYR:531:OH:9767, V-B:TYR:539:C:9839, V-B:ILE:538:CG2:9835, V-B:PRO:540:CD:9859, V-B:ILE:538:CB:9834, V-B:TYR:539:CG:9844, H-B:TYR:539:OH:9850, V-A:ILE:369:CB:3234, V-A:ILE:369:CG2:3235, V-A:ILE:369:CD1:3237, V-A:ASP:366:CA:3208, V-B:TYR:539:CA:9841, V-A:ASP:366:C:3206"]

$$$$
RR8_B_Rahimova_2017
     RDKit          3D

 73 77  0  0  0  0  0  0  0  0999 V2000
  133.3750  123.9880   57.4140 O   0  0  0  0  0  0  0  0  0  0  0  0
  132.6240  124.7280   58.0560 C   0  0  0  0  0  0  0  0  0  0  0  0
  131.7580  125.6250   57.4940 O   0  0  0  0  0  0  0  0  0  0  0  0
  130.8550  125.1580   56.5220 C   0  0  2  0  0  0  0  0  0  0  0  0
  130.6240  126.1100   55.5220 O   0  0  0  0  0  0  0  0  0  0  0  0
  129.5030  126.9350   55.8360 C   0  0  2  0  0  0  0  0  0  0  0  0
  129.9460  128.4090   55.8770 C   0  0  0  0  0  0  0  0  0  0  0  0
  129.6200  128.9600   57.1470 O   0  0  0  0  0  0  0  0  0  0  0  0
  130.7360  129.3200   57.9480 C   0  0  0  0  0  0  0  0  0  0  0  0
  131.4910  130.4550   57.2730 C   0  0  0  0  0  0  0  0  0  0  0  0
  130.7900  131.4130   56.5340 C   0  0  0  0  0  0  0  0  0  0  0  0
  131.4770  132.4410   55.8940 C   0  0  0  0  0  0  0  0  0  0  0  0
  132.8650  132.5090   55.9970 C   0  0  0  0  0  0  0  0  0  0  0  0
  133.5700  131.5620   56.7370 C   0  0  0  0  0  0  0  0  0  0  0  0
  132.8830  130.5320   57.3750 C   0  0  0  0  0  0  0  0  0  0  0  0
  128.9740  126.3690   57.1590 C   0  0  1  0  0  0  0  0  0  0  0  0
  127.5470  126.4620   57.1910 O   0  0  0  0  0  0  0  0  0  0  0  0
  126.8580  125.5950   58.0950 C   0  0  0  0  0  0  0  0  0  0  0  0
  125.9170  124.6360   57.3730 C   0  0  0  0  0  0  0  0  0  0  0  0
  124.6310  124.4080   57.8720 C   0  0  0  0  0  0  0  0  0  0  0  0
  123.7630  123.5580   57.1930 C   0  0  0  0  0  0  0  0  0  0  0  0
  124.1840  122.9350   56.0190 C   0  0  0  0  0  0  0  0  0  0  0  0
  125.4650  123.1550   55.5190 C   0  0  0  0  0  0  0  0  0  0  0  0
  126.3330  124.0090   56.1960 C   0  0  0  0  0  0  0  0  0  0  0  0
  129.4870  124.9330   57.1640 C   0  0  2  0  0  0  0  0  0  0  0  0
  129.5520  124.4330   58.4970 O   0  0  0  0  0  0  0  0  0  0  0  0
  129.0950  123.1010   58.6760 C   0  0  0  0  0  0  0  0  0  0  0  0
  129.6560  122.5780   59.9860 C   0  0  0  0  0  0  0  0  0  0  0  0
  129.3660  123.2290   61.1890 C   0  0  0  0  0  0  0  0  0  0  0  0
  129.9020  122.7520   62.3820 C   0  0  0  0  0  0  0  0  0  0  0  0
  130.7250  121.6280   62.3700 C   0  0  0  0  0  0  0  0  0  0  0  0
  131.0170  120.9730   61.1740 C   0  0  0  0  0  0  0  0  0  0  0  0
  130.4810  121.4490   59.9810 C   0  0  0  0  0  0  0  0  0  0  0  0
  132.5910  124.7630   59.5560 C   0  0  0  0  0  0  0  0  0  0  0  0
  131.7580  125.6480   60.2570 C   0  0  0  0  0  0  0  0  0  0  0  0
  131.7550  125.6650   61.6480 C   0  0  0  0  0  0  0  0  0  0  0  0
  132.5900  124.8070   62.3730 C   0  0  0  0  0  0  0  0  0  0  0  0
  132.6050  124.8450   63.8560 N   0  0  0  0  0  0  0  0  0  0  0  0
  133.6850  124.9440   64.4320 O   0  0  0  0  0  0  0  0  0  0  0  0
  131.5350  124.7810   64.4570 O   0  0  0  0  0  0  0  0  0  0  0  0
  133.4180  123.9190   61.6730 C   0  0  0  0  0  0  0  0  0  0  0  0
  133.4160  123.8960   60.2820 C   0  0  0  0  0  0  0  0  0  0  0  0
  131.2978  124.2428   56.1020 H   0  0  0  0  0  0  0  0  0  0  0  0
  128.6932  126.9239   55.0916 H   0  0  0  0  0  0  0  0  0  0  0  0
  131.0325  128.4712   55.7168 H   0  0  0  0  0  0  0  0  0  0  0  0
  129.4293  128.9724   55.0860 H   0  0  0  0  0  0  0  0  0  0  0  0
  130.3875  129.6479   58.9385 H   0  0  0  0  0  0  0  0  0  0  0  0
  131.4015  128.4522   58.0658 H   0  0  0  0  0  0  0  0  0  0  0  0
  129.6942  131.3543   56.4582 H   0  0  0  0  0  0  0  0  0  0  0  0
  130.9276  133.1947   55.3108 H   0  0  0  0  0  0  0  0  0  0  0  0
  133.4096  133.3185   55.4890 H   0  0  0  0  0  0  0  0  0  0  0  0
  134.6651  131.6276   56.8170 H   0  0  0  0  0  0  0  0  0  0  0  0
  133.4350  129.7803   57.9583 H   0  0  0  0  0  0  0  0  0  0  0  0
  129.3120  126.9116   58.0542 H   0  0  0  0  0  0  0  0  0  0  0  0
  127.5995  125.0075   58.6562 H   0  0  0  0  0  0  0  0  0  0  0  0
  126.2511  126.2213   58.7654 H   0  0  0  0  0  0  0  0  0  0  0  0
  124.3056  124.9000   58.8004 H   0  0  0  0  0  0  0  0  0  0  0  0
  122.7494  123.3786   57.5809 H   0  0  0  0  0  0  0  0  0  0  0  0
  123.4978  122.2632   55.4825 H   0  0  0  0  0  0  0  0  0  0  0  0
  125.7900  122.6568   54.5937 H   0  0  0  0  0  0  0  0  0  0  0  0
  127.3449  124.1894   55.8041 H   0  0  0  0  0  0  0  0  0  0  0  0
  128.8728  124.1831   56.6440 H   0  0  0  0  0  0  0  0  0  0  0  0
  127.9956  123.0861   58.7096 H   0  0  0  0  0  0  0  0  0  0  0  0
  129.4303  122.4692   57.8403 H   0  0  0  0  0  0  0  0  0  0  0  0
  128.7157  124.1162   61.1927 H   0  0  0  0  0  0  0  0  0  0  0  0
  129.6765  123.2608   63.3308 H   0  0  0  0  0  0  0  0  0  0  0  0
  131.1488  121.2534   63.3134 H   0  0  0  0  0  0  0  0  0  0  0  0
  131.6670  120.0856   61.1735 H   0  0  0  0  0  0  0  0  0  0  0  0
  130.7064  120.9369   59.0339 H   0  0  0  0  0  0  0  0  0  0  0  0
  131.1016  126.3343   59.7019 H   0  0  0  0  0  0  0  0  0  0  0  0
  131.0903  126.3591   62.1831 H   0  0  0  0  0  0  0  0  0  0  0  0
  134.0754  123.2340   62.2285 H   0  0  0  0  0  0  0  0  0  0  0  0
  134.0688  123.1900   59.7477 H   0  0  0  0  0  0  0  0  0  0  0  0
  1  2  2  0
  2  3  1  0
  3  4  1  0
  4  5  1  0
  5  6  1  0
  6  7  1  0
  7  8  1  0
  8  9  1  0
  9 10  1  0
 10 11  2  0
 11 12  1  0
 12 13  2  0
 13 14  1  0
 14 15  2  0
  6 16  1  0
 16 17  1  0
 17 18  1  0
 18 19  1  0
 19 20  2  0
 20 21  1  0
 21 22  2  0
 22 23  1  0
 23 24  2  0
 16 25  1  0
 25 26  1  0
 26 27  1  0
 27 28  1  0
 28 29  2  0
 29 30  1  0
 30 31  2  0
 31 32  1  0
 32 33  2  0
  2 34  1  0
 34 35  2  0
 35 36  1  0
 36 37  2  0
 37 38  1  0
 38 39  2  0
 38 40  1  0
 37 41  1  0
 41 42  2  0
 25  4  1  0
 33 28  1  0
 42 34  1  0
 15 10  1  0
 24 19  1  0
  4 43  1  6
  6 44  1  6
  7 45  1  0
  7 46  1  0
  9 47  1  0
  9 48  1  0
 11 49  1  0
 12 50  1  0
 13 51  1  0
 14 52  1  0
 15 53  1  0
 16 54  1  1
 18 55  1  0
 18 56  1  0
 20 57  1  0
 21 58  1  0
 22 59  1  0
 23 60  1  0
 24 61  1  0
 25 62  1  6
 27 63  1  0
 27 64  1  0
 29 65  1  0
 30 66  1  0
 31 67  1  0
 32 68  1  0
 33 69  1  0
 35 70  1  0
 36 71  1  0
 41 72  1  0
 42 73  1  0
M  CHG  2  38   1  40  -1
M  END
>  <Binding energies>  (1) 
[-10.45]

>  <Ligand effiencies>  (1) 
[-0.24880952380952379]

>  <Interactions>  (1) 
["V-B:PRO:540:N:9856, V-B:LEU:363:CA:8157, V-B:TYR:539:CZ:9849, V-B:ILE:538:CA:9832, V-B:ALA:541:CB:9864, V-B:PRO:540:CB:9857, V-B:PRO:540:CA:9855, V-B:TYR:539:CE2:9848, V-A:LEU:475:CD2:4257, V-B:TYR:539:CD2:9846, V-A:ASP:366:CG:3211, V-A:PRO:540:N:4882, V-A:ILE:538:CA:4858, V-A:TYR:531:CE2:4791, V-A:LEU:363:CA:3183, H-A:TYR:531:OH:4793, V-A:ASP:366:CB:3210, V-A:TYR:539:C:4865, V-A:LEU:363:CD1:3187, V-A:ILE:538:CB:4860, V-A:ILE:538:CG2:4861, V-A:TYR:531:CZ:4792, V-A:PRO:540:CB:4883, V-B:TYR:531:CE2:9765, V-B:LEU:363:CD1:8161, H-B:TYR:531:OH:9767, V-B:TYR:539:C:9839, V-B:ILE:538:CG2:9835, V-B:PRO:540:CD:9859, V-B:ILE:538:CB:9834, V-B:PRO:540:CG:9858, V-A:ARG:545:CZ:4924, V-A:PRO:540:CD:4885, H-A:TYR:484:OH:4346, H-A:ARG:545:NE:4922, H-A:GLY:454:N:4048, V-A:ILE:538:C:4856, H-B:TYR:539:OH:9850, V-A:ILE:369:CD1:3237, V-A:PRO:540:CG:4884"]

$$$$
RR9_Rahimova_2017
     RDKit          3D

 64 68  0  0  0  0  0  0  0  0999 V2000
  124.1870  133.6210   60.4450 C   0  0  0  0  0  0  0  0  0  0  0  0
  124.3800  132.1770   59.9720 C   0  0  0  0  0  0  0  0  0  0  0  0
  124.3270  131.3140   61.1040 O   0  0  0  0  0  0  0  0  0  0  0  0
  125.3040  130.3510   61.2700 C   0  0  0  0  0  0  0  0  0  0  0  0
  125.7480  129.7080   60.1160 C   0  0  0  0  0  0  0  0  0  0  0  0
  126.7280  128.7240   60.1860 C   0  0  0  0  0  0  0  0  0  0  0  0
  127.2940  128.3530   61.4150 C   0  0  0  0  0  0  0  0  0  0  0  0
  128.3480  127.2890   61.4970 C   0  0  0  0  0  0  0  0  0  0  0  0
  128.5490  126.3710   60.4540 C   0  0  0  0  0  0  0  0  0  0  0  0
  129.5470  125.3830   60.5300 C   0  0  0  0  0  0  0  0  0  0  0  0
  129.7800  124.4940   59.3390 C   0  0  0  0  0  0  0  0  0  0  0  0
  130.8320  124.5680   58.7030 O   0  0  0  0  0  0  0  0  0  0  0  0
  128.7700  123.6600   59.0240 N   0  0  0  0  0  0  0  0  0  0  0  0
  128.7050  122.7970   57.8400 C   0  0  0  0  0  0  0  0  0  0  0  0
  127.9600  123.4520   56.6530 C   0  0  0  0  0  0  0  0  0  0  0  0
  126.4520  123.5760   56.8380 C   0  0  0  0  0  0  0  0  0  0  0  0
  125.5820  123.1090   55.8470 C   0  0  0  0  0  0  0  0  0  0  0  0
  124.2050  123.1920   56.0350 C   0  0  0  0  0  0  0  0  0  0  0  0
  123.7020  123.7460   57.2090 C   0  0  0  0  0  0  0  0  0  0  0  0
  124.5620  124.2180   58.2000 C   0  0  0  0  0  0  0  0  0  0  0  0
  125.9400  124.1340   58.0130 C   0  0  0  0  0  0  0  0  0  0  0  0
  130.3070  125.3490   61.7260 C   0  0  0  0  0  0  0  0  0  0  0  0
  131.3670  124.5680   62.3180 C   0  0  0  0  0  0  0  0  0  0  0  0
  132.0370  123.3360   61.8060 C   0  0  0  0  0  0  0  0  0  0  0  0
  131.2900  122.3450   61.1620 C   0  0  0  0  0  0  0  0  0  0  0  0
  131.9140  121.1890   60.7000 C   0  0  0  0  0  0  0  0  0  0  0  0
  133.2890  121.0220   60.8770 C   0  0  0  0  0  0  0  0  0  0  0  0
  133.9660  119.7530   60.3900 C   0  0  0  0  0  0  0  0  0  0  0  0
  134.0370  122.0070   61.5210 C   0  0  0  0  0  0  0  0  0  0  0  0
  133.4130  123.1630   61.9800 C   0  0  0  0  0  0  0  0  0  0  0  0
  131.7160  125.0720   63.4810 N   0  0  0  0  0  0  0  0  0  0  0  0
  130.9130  126.1160   63.7370 N   0  0  0  0  0  0  0  0  0  0  0  0
  130.0240  126.3270   62.7090 C   0  0  0  0  0  0  0  0  0  0  0  0
  129.0880  127.2730   62.6410 N   0  0  0  0  0  0  0  0  0  0  0  0
  126.8410  129.0030   62.5720 C   0  0  0  0  0  0  0  0  0  0  0  0
  125.8610  129.9900   62.5050 C   0  0  0  0  0  0  0  0  0  0  0  0
  124.1832  133.6492   61.5446 H   0  0  0  0  0  0  0  0  0  0  0  0
  125.0098  134.2444   60.0650 H   0  0  0  0  0  0  0  0  0  0  0  0
  123.2294  134.0064   60.0650 H   0  0  0  0  0  0  0  0  0  0  0  0
  123.5810  131.9093   59.2649 H   0  0  0  0  0  0  0  0  0  0  0  0
  125.3525  132.0747   59.4683 H   0  0  0  0  0  0  0  0  0  0  0  0
  125.3192  129.9815   59.1406 H   0  0  0  0  0  0  0  0  0  0  0  0
  127.0648  128.2287   59.2634 H   0  0  0  0  0  0  0  0  0  0  0  0
  127.9125  126.4256   59.5585 H   0  0  0  0  0  0  0  0  0  0  0  0
  127.9820  123.6070   59.6530 H   0  0  0  0  0  0  0  0  0  0  0  0
  129.7312  122.5607   57.5220 H   0  0  0  0  0  0  0  0  0  0  0  0
  128.1436  121.8941   58.1221 H   0  0  0  0  0  0  0  0  0  0  0  0
  128.3713  124.4615   56.5053 H   0  0  0  0  0  0  0  0  0  0  0  0
  128.1136  122.7913   55.7870 H   0  0  0  0  0  0  0  0  0  0  0  0
  125.9857  122.6764   54.9197 H   0  0  0  0  0  0  0  0  0  0  0  0
  123.5180  122.8217   55.2599 H   0  0  0  0  0  0  0  0  0  0  0  0
  122.6139  123.8121   57.3565 H   0  0  0  0  0  0  0  0  0  0  0  0
  124.1547  124.6541   59.1241 H   0  0  0  0  0  0  0  0  0  0  0  0
  126.6246  124.5065   58.7893 H   0  0  0  0  0  0  0  0  0  0  0  0
  130.2074  122.4787   61.0200 H   0  0  0  0  0  0  0  0  0  0  0  0
  131.3246  120.4086   60.1964 H   0  0  0  0  0  0  0  0  0  0  0  0
  134.2860  119.1531   61.2547 H   0  0  0  0  0  0  0  0  0  0  0  0
  133.2588  119.1706   59.7813 H   0  0  0  0  0  0  0  0  0  0  0  0
  134.8436  120.0161   59.7813 H   0  0  0  0  0  0  0  0  0  0  0  0
  135.1188  121.8704   61.6660 H   0  0  0  0  0  0  0  0  0  0  0  0
  134.0046  123.9432   62.4814 H   0  0  0  0  0  0  0  0  0  0  0  0
  131.0070  126.6390   64.5960 H   0  0  0  0  0  0  0  0  0  0  0  0
  127.2667  128.7287   63.5485 H   0  0  0  0  0  0  0  0  0  0  0  0
  125.5223  130.4887   63.4251 H   0  0  0  0  0  0  0  0  0  0  0  0
  1  2  1  0
  2  3  1  0
  3  4  1  0
  4  5  2  0
  5  6  1  0
  6  7  2  0
  7  8  1  0
  8  9  2  0
  9 10  1  0
 10 11  1  0
 11 12  2  0
 11 13  1  0
 13 14  1  0
 14 15  1  0
 15 16  1  0
 16 17  2  0
 17 18  1  0
 18 19  2  0
 19 20  1  0
 20 21  2  0
 10 22  2  0
 22 23  1  0
 23 24  1  0
 24 25  2  0
 25 26  1  0
 26 27  2  0
 27 28  1  0
 27 29  1  0
 29 30  2  0
 23 31  2  0
 31 32  1  0
 32 33  1  0
 33 34  2  0
  7 35  1  0
 35 36  2  0
 36  4  1  0
 34  8  1  0
 21 16  1  0
 33 22  1  0
 30 24  1  0
  1 37  1  0
  1 38  1  0
  1 39  1  0
  2 40  1  0
  2 41  1  0
  5 42  1  0
  6 43  1  0
  9 44  1  0
 13 45  1  0
 14 46  1  0
 14 47  1  0
 15 48  1  0
 15 49  1  0
 17 50  1  0
 18 51  1  0
 19 52  1  0
 20 53  1  0
 21 54  1  0
 25 55  1  0
 26 56  1  0
 28 57  1  0
 28 58  1  0
 28 59  1  0
 29 60  1  0
 30 61  1  0
 32 62  1  0
 35 63  1  0
 36 64  1  0
M  END
>  <Binding energies>  (1) 
[-8.25]

>  <Ligand effiencies>  (1) 
[-0.21710526315789475]

>  <Interactions>  (1) 
["V-B:PRO:540:N:9856, V-B:LEU:363:CA:8157, V-A:TRP:381:CZ2:3368, H-B:GLU:543:OE1:9881, V-B:TYR:539:CZ:9849, V-A:TRP:381:CH2:3370, V-B:ILE:538:CA:9832, V-B:ASP:366:CG:8185, V-B:PRO:540:CB:9857, V-B:PRO:540:CA:9855, V-B:TYR:539:CE2:9848, V-A:LEU:475:CD2:4257, V-B:TYR:539:CD2:9846, V-A:GLU:543:CD:4906, V-B:TYR:531:CE2:9765, V-B:LEU:363:CD1:8161, V-B:GLU:543:CD:9880, V-B:TYR:539:C:9839, V-B:ILE:538:CG2:9835, V-B:PRO:540:CD:9859, V-B:ILE:538:CB:9834, V-A:ARG:545:CZ:4924, H-A:GLU:543:OE2:4908, V-A:GLY:454:CA:4047, V-A:TYR:539:CE2:4874, V-B:TYR:539:CG:9844, H-A:ARG:545:NH2:4926, V-A:ILE:369:CG2:3235, V-A:ILE:369:CD1:3237, V-B:ILE:369:CD1:8211, V-B:ILE:369:CG2:8209, V-A:SER:385:C:3403, V-A:SER:385:CA:3405, V-A:SER:385:CB:3407"]

$$$$
