1a_Ghoteimi_2023
     RDKit          3D

 40 43  0  0  0  0  0  0  0  0999 V2000
  131.6500  126.4500   66.0040 C   0  0  0  0  0  0  0  0  0  0  0  0
  132.0610  125.0650   65.4960 C   0  0  0  0  0  0  0  0  0  0  0  0
  133.0580  125.2080   64.4910 O   0  0  0  0  0  0  0  0  0  0  0  0
  132.9370  124.5870   63.2900 C   0  0  0  0  0  0  0  0  0  0  0  0
  133.8230  123.8840   62.7950 O   0  0  0  0  0  0  0  0  0  0  0  0
  131.6140  124.8370   62.6250 C   0  0  0  0  0  0  0  0  0  0  0  0
  131.0340  126.1130   62.5820 C   0  0  0  0  0  0  0  0  0  0  0  0
  129.8040  126.3130   61.9610 C   0  0  0  0  0  0  0  0  0  0  0  0
  129.1310  125.2360   61.3650 C   0  0  0  0  0  0  0  0  0  0  0  0
  127.8850  125.3220   60.7160 N   0  0  0  0  0  0  0  0  0  0  0  0
  127.0470  124.3410   60.3160 C   0  0  0  0  0  0  0  0  0  0  0  0
  127.2330  123.1340   60.4710 O   0  0  0  0  0  0  0  0  0  0  0  0
  125.7690  124.8100   59.6210 C   0  0  0  0  0  0  0  0  0  0  0  0
  126.1310  125.7280   58.0950 S   0  0  0  0  0  0  0  0  0  0  0  0
  126.7560  127.3130   58.6070 C   0  0  0  0  0  0  0  0  0  0  0  0
  126.2270  127.7630   59.7690 N   0  0  0  0  0  0  0  0  0  0  0  0
  126.6250  128.9600   60.2740 C   0  0  0  0  0  0  0  0  0  0  0  0
  126.0080  129.3800   61.5760 C   0  0  0  0  0  0  0  0  0  0  0  0
  124.8560  130.1830   61.6130 C   0  0  0  0  0  0  0  0  0  0  0  0
  124.2860  130.5700   62.8220 C   0  0  0  0  0  0  0  0  0  0  0  0
  124.8480  130.1690   64.0320 C   0  0  0  0  0  0  0  0  0  0  0  0
  124.2140  130.5980   65.1820 O   0  0  0  0  0  0  0  0  0  0  0  0
  124.2590  129.7780   66.3450 C   0  0  0  0  0  0  0  0  0  0  0  0
  126.0000  129.3710   64.0120 C   0  0  0  0  0  0  0  0  0  0  0  0
  126.5680  128.9870   62.8010 C   0  0  0  0  0  0  0  0  0  0  0  0
  127.5780  129.7350   59.6000 C   0  0  0  0  0  0  0  0  0  0  0  0
  128.1210  129.3020   58.3840 C   0  0  0  0  0  0  0  0  0  0  0  0
  129.1080  130.1950   57.7060 C   0  0  0  0  0  0  0  0  0  0  0  0
  128.6830  131.1970   56.8270 C   0  0  0  0  0  0  0  0  0  0  0  0
  129.6090  132.0350   56.2100 C   0  0  0  0  0  0  0  0  0  0  0  0
  130.9730  131.8950   56.4650 C   0  0  0  0  0  0  0  0  0  0  0  0
  131.8150  132.7710   55.8100 O   0  0  0  0  0  0  0  0  0  0  0  0
  133.2130  132.5020   55.7840 C   0  0  0  0  0  0  0  0  0  0  0  0
  131.4020  130.8960   57.3530 C   0  0  0  0  0  0  0  0  0  0  0  0
  130.4750  130.0580   57.9680 C   0  0  0  0  0  0  0  0  0  0  0  0
  127.7050  128.0510   57.8670 C   0  0  0  0  0  0  0  0  0  0  0  0
  128.2490  127.5380   56.6060 C   0  0  0  0  0  0  0  0  0  0  0  0
  128.6800  127.1330   55.6110 N   0  0  0  0  0  0  0  0  0  0  0  0
  129.7040  123.9640   61.4100 C   0  0  0  0  0  0  0  0  0  0  0  0
  130.9340  123.7650   62.0320 C   0  0  0  0  0  0  0  0  0  0  0  0
  1  2  1  0
  2  3  1  0
  3  4  1  0
  4  5  2  0
  4  6  1  0
  6  7  2  0
  7  8  1  0
  8  9  2  0
  9 10  1  0
 10 11  1  0
 11 12  2  0
 11 13  1  0
 13 14  1  0
 14 15  1  0
 15 16  2  0
 16 17  1  0
 17 18  1  0
 18 19  2  0
 19 20  1  0
 20 21  2  0
 21 22  1  0
 22 23  1  0
 21 24  1  0
 24 25  2  0
 17 26  2  0
 26 27  1  0
 27 28  1  0
 28 29  2  0
 29 30  1  0
 30 31  2  0
 31 32  1  0
 32 33  1  0
 31 34  1  0
 34 35  2  0
 27 36  2  0
 36 37  1  0
 37 38  3  0
  9 39  1  0
 39 40  2  0
 40  6  1  0
 36 15  1  0
 25 18  1  0
 35 28  1  0
M  END
>  <Binding energies>  (1) 
[-7.89]

>  <Ligand effiencies>  (1) 
[-0.1924390243902439]

>  <Interactions>  (1) 
["V-B:ASP:366:CG:8185, H-B:ALA:541:N:9863, V-A:PRO:540:N:4882, H-A:TYR:539:N:4868, V-A:TYR:531:CE2:4791, V-A:TYR:539:C:4865, V-A:LEU:363:CD1:3187, V-A:ILE:538:CB:4860, V-A:ILE:538:CG2:4861, V-A:GLU:543:CD:4906, V-A:PRO:540:CB:4883, V-B:ARG:545:CZ:9898, V-B:GLU:543:CD:9880, H-B:TYR:531:OH:9767, V-A:ARG:545:CZ:4924, V-A:PRO:540:CD:4885, V-A:ARG:545:CD:4921, H-A:TYR:484:OH:4346, H-A:ARG:545:NE:4922, H-A:GLY:454:N:4048, H-B:GLY:454:N:9022, H-B:TYR:484:OH:9320, H-A:ARG:545:NH2:4926, V-B:HIS:456:CE1:9042, V-A:HIS:456:CE1:4068, V-A:PRO:540:CG:4884, V-A:ARG:545:CG:4920, V-A:TYR:484:CZ:4345, V-B:ARG:545:CG:9894, V-B:ARG:545:CD:9895, V-B:TYR:484:CZ:9319, V-A:ILE:538:CD1:4863"]

$$$$
1b_Ghoteimi_2023
     RDKit          3D

 34 37  0  0  0  0  0  0  0  0999 V2000
  129.1420  132.4650   54.3280 C   0  0  0  0  0  0  0  0  0  0  0  0
  129.9890  132.3100   55.4600 O   0  0  0  0  0  0  0  0  0  0  0  0
  130.0990  131.0670   56.0540 C   0  0  0  0  0  0  0  0  0  0  0  0
  129.2750  130.0600   55.5530 C   0  0  0  0  0  0  0  0  0  0  0  0
  129.3160  128.7770   56.0890 C   0  0  0  0  0  0  0  0  0  0  0  0
  130.1870  128.4590   57.1420 C   0  0  0  0  0  0  0  0  0  0  0  0
  130.2260  127.0720   57.7200 C   0  0  0  0  0  0  0  0  0  0  0  0
  130.8370  126.7740   58.9430 C   0  0  0  0  0  0  0  0  0  0  0  0
  130.8430  125.4640   59.4400 C   0  0  0  0  0  0  0  0  0  0  0  0
  131.5170  125.2190   60.7490 C   0  0  0  0  0  0  0  0  0  0  0  0
  130.9610  125.7110   61.9330 C   0  0  0  0  0  0  0  0  0  0  0  0
  131.5900  125.4930   63.1550 C   0  0  0  0  0  0  0  0  0  0  0  0
  132.7890  124.7820   63.2180 C   0  0  0  0  0  0  0  0  0  0  0  0
  133.3420  124.6150   64.4730 O   0  0  0  0  0  0  0  0  0  0  0  0
  132.8200  125.3620   65.5670 C   0  0  0  0  0  0  0  0  0  0  0  0
  133.3560  124.2930   62.0320 C   0  0  0  0  0  0  0  0  0  0  0  0
  132.7240  124.5140   60.8110 C   0  0  0  0  0  0  0  0  0  0  0  0
  130.2050  124.4520   58.6800 C   0  0  0  0  0  0  0  0  0  0  0  0
  130.1000  123.0860   59.2010 C   0  0  0  0  0  0  0  0  0  0  0  0
  130.0180  122.0070   59.6130 N   0  0  0  0  0  0  0  0  0  0  0  0
  129.6260  124.8170   57.4440 C   0  0  0  0  0  0  0  0  0  0  0  0
  128.7930  123.6790   56.3560 S   0  0  0  0  0  0  0  0  0  0  0  0
  127.0280  124.1370   56.3100 C   0  0  0  0  0  0  0  0  0  0  0  0
  126.4030  124.4550   57.6760 C   0  0  0  0  0  0  0  0  0  0  0  0
  125.6740  125.4380   57.8220 O   0  0  0  0  0  0  0  0  0  0  0  0
  126.7250  123.5840   58.6590 N   0  0  0  0  0  0  0  0  0  0  0  0
  126.3080  123.6200   59.9850 C   0  0  0  0  0  0  0  0  0  0  0  0
  125.0100  123.9580   60.3650 C   0  0  0  0  0  0  0  0  0  0  0  0
  125.0080  123.8760   61.7390 C   0  0  0  0  0  0  0  0  0  0  0  0
  126.2390  123.5030   62.1630 O   0  0  0  0  0  0  0  0  0  0  0  0
  127.0540  123.3440   61.0420 N   0  0  0  0  0  0  0  0  0  0  0  0
  129.6230  126.0950   56.9940 N   0  0  0  0  0  0  0  0  0  0  0  0
  131.0110  129.4800   57.6400 C   0  0  0  0  0  0  0  0  0  0  0  0
  130.9720  130.7650   57.1080 C   0  0  0  0  0  0  0  0  0  0  0  0
  1  2  1  0
  2  3  1  0
  3  4  2  0
  4  5  1  0
  5  6  2  0
  6  7  1  0
  7  8  2  0
  8  9  1  0
  9 10  1  0
 10 11  2  0
 11 12  1  0
 12 13  2  0
 13 14  1  0
 14 15  1  0
 13 16  1  0
 16 17  2  0
  9 18  2  0
 18 19  1  0
 19 20  3  0
 18 21  1  0
 21 22  1  0
 22 23  1  0
 23 24  1  0
 24 25  2  0
 24 26  1  0
 26 27  1  0
 27 28  1  0
 28 29  2  0
 29 30  1  0
 30 31  1  0
 21 32  2  0
  6 33  1  0
 33 34  2  0
 34  3  1  0
 32  7  1  0
 17 10  1  0
 31 27  2  0
M  END
>  <Binding energies>  (2) 
[-8.35]

>  <Ligand effiencies>  (2) 
[-0.23857142857142857]

>  <Interactions>  (2) 
["V-B:PRO:540:N:9856, V-B:PRO:540:CB:9857, V-B:PRO:540:CA:9855, V-B:PRO:540:C:9853, H-B:ALA:541:N:9863, V-B:TYR:539:CE2:9848, V-B:TYR:539:CD2:9846, V-A:TYR:539:CE1:4873, V-A:ASP:366:CG:3211, H-A:TYR:539:N:4868, V-A:ILE:538:CA:4858, V-A:ILE:538:CB:4860, V-B:ARG:545:CZ:9898, V-B:ASN:362:CB:8148, H-B:TYR:531:OH:9767, V-B:TYR:539:C:9839, V-A:ARG:545:CZ:4924, V-A:ARG:545:CD:4921, H-A:TYR:484:OH:4346, H-A:ARG:545:NE:4922, H-A:GLY:454:N:4048, V-A:ILE:538:C:4856, V-A:TYR:539:CD1:4871, V-A:HIS:456:CE1:4068, H-B:TYR:539:O:9840, V-A:ARG:545:CG:4920, V-A:VAL:537:C:4848"]

$$$$
1c_Ghoteimi_2023
     RDKit          3D

 34 37  0  0  0  0  0  0  0  0999 V2000
  129.1420  132.4300   54.4750 C   0  0  0  0  0  0  0  0  0  0  0  0
  130.2370  132.1450   55.3390 O   0  0  0  0  0  0  0  0  0  0  0  0
  130.3030  130.9130   55.9620 C   0  0  0  0  0  0  0  0  0  0  0  0
  129.7220  129.8410   55.2900 C   0  0  0  0  0  0  0  0  0  0  0  0
  129.7400  128.5640   55.8440 C   0  0  0  0  0  0  0  0  0  0  0  0
  130.3390  128.3220   57.0900 C   0  0  0  0  0  0  0  0  0  0  0  0
  130.3560  126.9470   57.6940 C   0  0  0  0  0  0  0  0  0  0  0  0
  131.0050  126.6590   58.9000 C   0  0  0  0  0  0  0  0  0  0  0  0
  130.9700  125.3670   59.4380 C   0  0  0  0  0  0  0  0  0  0  0  0
  131.6270  125.1470   60.7600 C   0  0  0  0  0  0  0  0  0  0  0  0
  131.0310  125.6100   61.9370 C   0  0  0  0  0  0  0  0  0  0  0  0
  131.6550  125.4230   63.1660 C   0  0  0  0  0  0  0  0  0  0  0  0
  132.8860  124.7740   63.2430 C   0  0  0  0  0  0  0  0  0  0  0  0
  133.4320  124.6320   64.5060 O   0  0  0  0  0  0  0  0  0  0  0  0
  132.8640  125.3560   65.5920 C   0  0  0  0  0  0  0  0  0  0  0  0
  133.4910  124.3120   62.0640 C   0  0  0  0  0  0  0  0  0  0  0  0
  132.8650  124.5010   60.8350 C   0  0  0  0  0  0  0  0  0  0  0  0
  130.2900  124.3560   58.7190 C   0  0  0  0  0  0  0  0  0  0  0  0
  130.2460  122.9750   59.2120 C   0  0  0  0  0  0  0  0  0  0  0  0
  130.2120  121.8860   59.6030 N   0  0  0  0  0  0  0  0  0  0  0  0
  129.6430  124.7190   57.5200 C   0  0  0  0  0  0  0  0  0  0  0  0
  128.6120  123.5950   56.6040 S   0  0  0  0  0  0  0  0  0  0  0  0
  127.0000  124.4360   56.4780 C   0  0  0  0  0  0  0  0  0  0  0  0
  126.0940  124.1320   57.6760 C   0  0  0  0  0  0  0  0  0  0  0  0
  124.9810  123.6410   57.4870 O   0  0  0  0  0  0  0  0  0  0  0  0
  126.6310  124.4000   58.8870 N   0  0  0  0  0  0  0  0  0  0  0  0
  126.0910  124.0790   60.1220 C   0  0  0  0  0  0  0  0  0  0  0  0
  126.7250  123.9240   61.2650 N   0  0  0  0  0  0  0  0  0  0  0  0
  125.8880  123.6600   62.2490 C   0  0  0  0  0  0  0  0  0  0  0  0
  124.5400  123.5980   61.9110 C   0  0  0  0  0  0  0  0  0  0  0  0
  124.3690  123.9010   60.2080 S   0  0  0  0  0  0  0  0  0  0  0  0
  129.6700  125.9820   57.0290 N   0  0  0  0  0  0  0  0  0  0  0  0
  130.9260  129.4080   57.7550 C   0  0  0  0  0  0  0  0  0  0  0  0
  130.9100  130.6860   57.2050 C   0  0  0  0  0  0  0  0  0  0  0  0
  1  2  1  0
  2  3  1  0
  3  4  2  0
  4  5  1  0
  5  6  2  0
  6  7  1  0
  7  8  2  0
  8  9  1  0
  9 10  1  0
 10 11  2  0
 11 12  1  0
 12 13  2  0
 13 14  1  0
 14 15  1  0
 13 16  1  0
 16 17  2  0
  9 18  2  0
 18 19  1  0
 19 20  3  0
 18 21  1  0
 21 22  1  0
 22 23  1  0
 23 24  1  0
 24 25  2  0
 24 26  1  0
 26 27  1  0
 27 28  2  0
 28 29  1  0
 29 30  2  0
 30 31  1  0
 21 32  2  0
  6 33  1  0
 33 34  2  0
 34  3  1  0
 32  7  1  0
 17 10  1  0
 31 27  1  0
M  END
>  <Binding energies>  (3) 
[-8.0]

>  <Ligand effiencies>  (3) 
[-0.22857142857142856]

>  <Interactions>  (3) 
["V-B:ALA:541:CB:9864, V-B:PRO:540:CB:9857, V-B:PRO:540:CA:9855, V-B:PRO:540:C:9853, V-B:ALA:541:CA:9862, H-B:ALA:541:N:9863, V-B:TYR:539:CE2:9848, V-B:TYR:539:CD2:9846, V-A:TYR:539:CE1:4873, V-A:ASP:366:CG:3211, H-A:TYR:539:N:4868, V-A:ILE:538:CA:4858, V-B:ALA:541:C:9860, V-B:ARG:545:CZ:9898, V-B:ASN:362:CB:8148, V-B:GLU:543:CD:9880, V-A:ARG:545:CZ:4924, V-A:ARG:545:CD:4921, H-A:TYR:484:OH:4346, H-A:ARG:545:NE:4922, H-A:GLY:454:N:4048, V-A:ILE:538:C:4856, V-A:TYR:539:CD1:4871, V-A:HIS:456:CE1:4068, V-A:ARG:545:CG:4920, V-B:ASN:362:CG:8149"]

$$$$
1d_Ghoteimi_2023
     RDKit          3D

 30 32  0  0  0  0  0  0  0  0999 V2000
  123.8870  124.3500   57.4840 C   0  0  0  0  0  0  0  0  0  0  0  0
  124.4620  123.1450   57.0050 O   0  0  0  0  0  0  0  0  0  0  0  0
  125.7340  123.1240   56.5550 C   0  0  0  0  0  0  0  0  0  0  0  0
  126.1040  122.7780   55.4320 O   0  0  0  0  0  0  0  0  0  0  0  0
  126.7310  123.5870   57.6140 C   0  0  0  0  0  0  0  0  0  0  0  0
  128.3760  123.6170   56.8400 S   0  0  0  0  0  0  0  0  0  0  0  0
  129.3670  124.7650   57.7700 C   0  0  0  0  0  0  0  0  0  0  0  0
  129.4240  126.0040   57.2260 N   0  0  0  0  0  0  0  0  0  0  0  0
  130.1500  126.9780   57.8310 C   0  0  0  0  0  0  0  0  0  0  0  0
  130.1550  128.3240   57.1660 C   0  0  0  0  0  0  0  0  0  0  0  0
  130.8190  129.4190   57.7420 C   0  0  0  0  0  0  0  0  0  0  0  0
  130.8180  130.6670   57.1270 C   0  0  0  0  0  0  0  0  0  0  0  0
  130.1520  130.8620   55.9190 C   0  0  0  0  0  0  0  0  0  0  0  0
  130.2010  132.1340   55.3830 O   0  0  0  0  0  0  0  0  0  0  0  0
  129.2610  132.5000   54.3790 C   0  0  0  0  0  0  0  0  0  0  0  0
  129.4840  129.7790   55.3320 C   0  0  0  0  0  0  0  0  0  0  0  0
  129.4880  128.5310   55.9490 C   0  0  0  0  0  0  0  0  0  0  0  0
  130.8360  126.7190   59.0240 C   0  0  0  0  0  0  0  0  0  0  0  0
  130.8070  125.4430   59.6010 C   0  0  0  0  0  0  0  0  0  0  0  0
  131.5680  125.2340   60.8710 C   0  0  0  0  0  0  0  0  0  0  0  0
  131.0810  125.7490   62.0760 C   0  0  0  0  0  0  0  0  0  0  0  0
  131.7840  125.5570   63.2620 C   0  0  0  0  0  0  0  0  0  0  0  0
  132.9830  124.8450   63.2690 C   0  0  0  0  0  0  0  0  0  0  0  0
  133.6160  124.7110   64.4900 O   0  0  0  0  0  0  0  0  0  0  0  0
  133.0700  125.3640   65.6310 C   0  0  0  0  0  0  0  0  0  0  0  0
  133.4690  124.3150   62.0640 C   0  0  0  0  0  0  0  0  0  0  0  0
  132.7640  124.5070   60.8790 C   0  0  0  0  0  0  0  0  0  0  0  0
  130.0690  124.4240   58.9490 C   0  0  0  0  0  0  0  0  0  0  0  0
  130.0900  123.0470   59.4520 C   0  0  0  0  0  0  0  0  0  0  0  0
  130.1060  121.9610   59.8490 N   0  0  0  0  0  0  0  0  0  0  0  0
  1  2  1  0
  2  3  1  0
  3  4  2  0
  3  5  1  0
  5  6  1  0
  6  7  1  0
  7  8  2  0
  8  9  1  0
  9 10  1  0
 10 11  2  0
 11 12  1  0
 12 13  2  0
 13 14  1  0
 14 15  1  0
 13 16  1  0
 16 17  2  0
  9 18  2  0
 18 19  1  0
 19 20  1  0
 20 21  2  0
 21 22  1  0
 22 23  2  0
 23 24  1  0
 24 25  1  0
 23 26  1  0
 26 27  2  0
 19 28  2  0
 28 29  1  0
 29 30  3  0
 28  7  1  0
 17 10  1  0
 27 20  1  0
M  END
>  <Binding energies>  (4) 
[-7.55]

>  <Ligand effiencies>  (4) 
[-0.25166666666666665]

>  <Interactions>  (4) 
["V-B:PRO:540:N:9856, V-B:LEU:363:CA:8157, V-B:PRO:540:CB:9857, V-B:PRO:540:CA:9855, V-B:TYR:539:CE2:9848, V-B:TYR:539:CD2:9846, V-A:TYR:539:CE1:4873, V-A:ASP:366:CG:3211, H-A:TYR:539:N:4868, V-A:ILE:538:CA:4858, V-A:ILE:538:CB:4860, V-B:TYR:531:CE2:9765, V-B:TYR:531:CZ:9766, H-B:TYR:539:N:9842, V-B:TYR:539:C:9839, V-B:PRO:540:CD:9859, V-A:ARG:545:CZ:4924, V-A:ARG:545:CD:4921, H-A:TYR:484:OH:4346, H-A:ARG:545:NE:4922, H-A:GLY:454:N:4048, V-A:ILE:538:C:4856, V-A:TYR:539:CD1:4871, V-A:HIS:456:CE1:4068, V-A:ARG:545:CG:4920, V-A:VAL:537:C:4848"]

$$$$
1j_Grossjean_2025
     RDKit          3D

 20 21  0  0  0  0  0  0  0  0999 V2000
  129.0010  132.6040   74.0670 C   0  0  0  0  0  0  0  0  0  0  0  0
  127.9410  131.5230   74.1770 C   0  0  0  0  0  0  0  0  0  0  0  0
  126.8210  131.6800   74.9910 C   0  0  0  0  0  0  0  0  0  0  0  0
  125.8700  130.6560   75.0430 C   0  0  0  0  0  0  0  0  0  0  0  0
  124.6410  130.8590   75.9280 C   0  0  0  0  0  0  0  0  0  0  0  0
  126.0730  129.4860   74.2770 C   0  0  0  0  0  0  0  0  0  0  0  0
  125.0640  128.4230   74.2760 C   0  0  0  0  0  0  0  0  0  0  0  0
  124.2650  127.5860   74.2760 N   0  0  0  0  0  0  0  0  0  0  0  0
  127.2520  129.4010   73.5000 C   0  0  0  0  0  0  0  0  0  0  0  0
  127.6690  128.0030   72.4810 S   0  0  0  0  0  0  0  0  0  0  0  0
  129.4760  127.9740   72.2940 C   0  0  0  0  0  0  0  0  0  0  0  0
  130.0920  126.6950   72.8650 C   0  0  0  0  0  0  0  0  0  0  0  0
  129.4740  125.6330   72.7720 O   0  0  0  0  0  0  0  0  0  0  0  0
  131.3040  126.8400   73.4430 N   0  0  0  0  0  0  0  0  0  0  0  0
  132.0640  125.8410   74.0360 C   0  0  0  0  0  0  0  0  0  0  0  0
  131.6550  124.6700   74.4760 N   0  0  0  0  0  0  0  0  0  0  0  0
  132.6500  123.9690   74.9820 C   0  0  0  0  0  0  0  0  0  0  0  0
  133.9040  124.5730   74.9570 C   0  0  0  0  0  0  0  0  0  0  0  0
  133.7600  126.1440   74.2280 S   0  0  0  0  0  0  0  0  0  0  0  0
  128.1580  130.4090   73.4390 N   0  0  0  0  0  0  0  0  0  0  0  0
  1  2  1  0
  2  3  2  0
  3  4  1  0
  4  5  1  0
  4  6  2  0
  6  7  1  0
  7  8  3  0
  6  9  1  0
  9 10  1  0
 10 11  1  0
 11 12  1  0
 12 13  2  0
 12 14  1  0
 14 15  1  0
 15 16  2  0
 16 17  1  0
 17 18  2  0
 18 19  1  0
  9 20  2  0
 20  2  1  0
 19 15  1  0
M  END
>  <Binding energies>  (5) 
[-8.11]

>  <Ligand effiencies>  (5) 
[-0.38619047619047614]

>  <Interactions>  (5) 
["V-A:LYS:471:CE:4218, V-B:HIS:456:CA:9035, V-B:VAL:458:CG2:9059, V-A:HIS:456:CB:4063, V-B:LYS:471:CD:9191, H-A:GLY:544:O:4911, V-A:VAL:458:CG2:4085, V-A:HIS:456:C:4059, V-A:VAL:457:C:4071, V-B:LYS:471:CE:9192, V-B:HIS:456:C:9033, V-B:HIS:456:CD2:9040, V-A:LYS:547:CE:4948, V-B:LYS:471:CG:9190, H-A:LYS:547:NZ:4949, V-B:HIS:456:CG:9038, V-B:HIS:456:CB:9037, V-A:HIS:456:CA:4061, H-B:LYS:547:NZ:9923, V-B:ASP:473:CG:9212, V-A:GLY:544:C:4910, V-B:LYS:547:CE:9922, V-A:GLY:544:CA:4912, V-A:LYS:547:CD:4947"]

$$$$
1o_Grossjean_2025
     RDKit          3D

 26 27  0  0  0  0  0  0  0  0999 V2000
  132.0830  132.0080   55.8600 C   0  0  0  0  0  0  0  0  0  0  0  0
  130.9990  132.8300   56.2680 O   0  0  0  0  0  0  0  0  0  0  0  0
  129.8210  132.2850   56.6680 C   0  0  0  0  0  0  0  0  0  0  0  0
  129.0160  132.8680   57.4010 O   0  0  0  0  0  0  0  0  0  0  0  0
  129.5910  130.9040   56.1260 C   0  0  0  0  0  0  0  0  0  0  0  0
  130.0950  129.7620   56.7660 C   0  0  0  0  0  0  0  0  0  0  0  0
  129.8610  128.4940   56.2380 C   0  0  0  0  0  0  0  0  0  0  0  0
  129.1270  128.3420   55.0610 C   0  0  0  0  0  0  0  0  0  0  0  0
  128.9430  127.0160   54.6220 N   0  0  0  0  0  0  0  0  0  0  0  0
  129.8300  125.9990   54.5450 C   0  0  0  0  0  0  0  0  0  0  0  0
  131.0050  126.0530   54.9080 O   0  0  0  0  0  0  0  0  0  0  0  0
  129.2770  124.6820   53.9810 C   0  0  0  0  0  0  0  0  0  0  0  0
  127.7370  124.6090   53.9970 C   0  0  0  0  0  0  0  0  0  0  0  0
  127.0770  123.1280   54.8170 S   0  0  0  0  0  0  0  0  0  0  0  0
  127.1300  123.3880   56.5790 C   0  0  0  0  0  0  0  0  0  0  0  0
  128.3850  123.3500   57.0940 N   0  0  0  0  0  0  0  0  0  0  0  0
  128.5500  123.5440   58.4230 C   0  0  0  0  0  0  0  0  0  0  0  0
  129.9830  123.5010   58.9220 C   0  0  0  0  0  0  0  0  0  0  0  0
  127.4820  123.7680   59.2880 C   0  0  0  0  0  0  0  0  0  0  0  0
  126.1820  123.7840   58.7730 C   0  0  0  0  0  0  0  0  0  0  0  0
  125.0260  124.0180   59.7440 C   0  0  0  0  0  0  0  0  0  0  0  0
  125.9840  123.5800   57.3880 C   0  0  0  0  0  0  0  0  0  0  0  0
  124.6260  123.5340   56.8400 C   0  0  0  0  0  0  0  0  0  0  0  0
  123.5530  123.4990   56.4100 N   0  0  0  0  0  0  0  0  0  0  0  0
  128.6150  129.4790   54.4190 C   0  0  0  0  0  0  0  0  0  0  0  0
  128.8490  130.7450   54.9480 C   0  0  0  0  0  0  0  0  0  0  0  0
  1  2  1  0
  2  3  1  0
  3  4  2  0
  3  5  1  0
  5  6  2  0
  6  7  1  0
  7  8  2  0
  8  9  1  0
  9 10  1  0
 10 11  2  0
 10 12  1  0
 12 13  1  0
 13 14  1  0
 14 15  1  0
 15 16  2  0
 16 17  1  0
 17 18  1  0
 17 19  2  0
 19 20  1  0
 20 21  1  0
 20 22  2  0
 22 23  1  0
 23 24  3  0
  8 25  1  0
 25 26  2  0
 26  5  1  0
 22 15  1  0
M  END
>  <Binding energies>  (6) 
[-8.53]

>  <Ligand effiencies>  (6) 
[-0.3159259259259259]

>  <Interactions>  (6) 
["V-B:PRO:540:N:9856, V-B:PRO:540:CB:9857, V-B:PRO:540:CA:9855, V-B:TYR:539:CE2:9848, V-B:TYR:539:CE1:9847, V-B:TYR:539:CD2:9846, V-A:PRO:540:N:4882, H-A:TYR:539:N:4868, H-A:MET:535:SD:4832, V-A:TYR:531:CE2:4791, H-A:TYR:531:OH:4793, V-A:TYR:539:C:4865, V-A:ILE:538:CB:4860, V-A:ILE:538:CG2:4861, V-B:TYR:531:CE2:9765, H-B:TYR:539:N:9842, H-B:MET:535:SD:9806, H-B:TYR:531:OH:9767, V-B:TYR:539:C:9839, V-B:PRO:540:CD:9859, V-A:PRO:540:CD:4885, V-A:TYR:539:CA:4867, H-B:TYR:539:OH:9850, V-B:MET:535:CG:9805, V-B:MET:535:CB:9804"]

$$$$
1p_Grossjean_2025
     RDKit          3D

 21 22  0  0  0  0  0  0  0  0999 V2000
  125.3820  124.0380   62.2540 C   0  0  0  0  0  0  0  0  0  0  0  0
  125.6210  123.8830   60.7640 C   0  0  0  0  0  0  0  0  0  0  0  0
  124.6210  124.1630   59.8340 C   0  0  0  0  0  0  0  0  0  0  0  0
  124.8920  123.9900   58.4720 C   0  0  0  0  0  0  0  0  0  0  0  0
  123.7770  124.2880   57.4710 C   0  0  0  0  0  0  0  0  0  0  0  0
  126.1730  123.5460   58.0740 C   0  0  0  0  0  0  0  0  0  0  0  0
  126.4670  123.3120   56.6590 C   0  0  0  0  0  0  0  0  0  0  0  0
  126.6980  123.1280   55.5400 N   0  0  0  0  0  0  0  0  0  0  0  0
  127.1340  123.3090   59.0860 C   0  0  0  0  0  0  0  0  0  0  0  0
  128.7930  122.7590   58.7580 S   0  0  0  0  0  0  0  0  0  0  0  0
  129.8270  123.3590   60.1260 C   0  0  0  0  0  0  0  0  0  0  0  0
  130.2700  122.2530   61.1020 C   0  0  0  0  0  0  0  0  0  0  0  0
  131.3980  122.6870   62.0510 C   0  0  0  0  0  0  0  0  0  0  0  0
  132.4680  122.0770   62.0410 O   0  0  0  0  0  0  0  0  0  0  0  0
  131.1210  123.7500   62.8390 N   0  0  0  0  0  0  0  0  0  0  0  0
  131.9570  124.3410   63.7770 C   0  0  0  0  0  0  0  0  0  0  0  0
  131.4840  125.0480   64.8830 C   0  0  0  0  0  0  0  0  0  0  0  0
  132.6120  125.4650   65.5520 C   0  0  0  0  0  0  0  0  0  0  0  0
  133.7070  125.0350   64.8830 O   0  0  0  0  0  0  0  0  0  0  0  0
  133.2800  124.3250   63.7600 N   0  0  0  0  0  0  0  0  0  0  0  0
  126.8550  123.4590   60.4050 N   0  0  0  0  0  0  0  0  0  0  0  0
  1  2  1  0
  2  3  2  0
  3  4  1  0
  4  5  1  0
  4  6  2  0
  6  7  1  0
  7  8  3  0
  6  9  1  0
  9 10  1  0
 10 11  1  0
 11 12  1  0
 12 13  1  0
 13 14  2  0
 13 15  1  0
 15 16  1  0
 16 17  1  0
 17 18  2  0
 18 19  1  0
 19 20  1  0
  9 21  2  0
 21  2  1  0
 20 16  2  0
M  END
>  <Binding energies>  (7) 
[-8.25]

>  <Ligand effiencies>  (7) 
[-0.375]

>  <Interactions>  (7) 
["V-B:PRO:540:N:9856, V-B:LEU:363:CA:8157, H-B:GLU:543:OE1:9881, V-B:ALA:541:CB:9864, V-B:ASP:366:CG:8185, V-B:PRO:540:CB:9857, V-B:PRO:540:CA:9855, V-B:PRO:540:C:9853, H-B:ALA:541:N:9863, V-A:LEU:475:CD2:4257, V-B:ALA:541:C:9860, V-B:ARG:545:CZ:9898, V-B:TYR:531:CE2:9765, V-B:TYR:531:CZ:9766, V-B:ASN:362:CB:8148, H-B:TYR:539:N:9842, V-B:GLU:543:CD:9880, V-B:TYR:539:C:9839, V-A:ARG:545:CZ:4924, V-A:ARG:545:CD:4921, H-A:TYR:484:OH:4346, H-A:ARG:545:NE:4922, H-A:GLY:454:N:4048, V-A:HIS:456:CE1:4068, V-A:ARG:545:CG:4920"]

$$$$
2a_Ghoteimi_2023
     RDKit          3D

 48 53  0  0  0  0  0  0  0  0999 V2000
  127.6420  123.3890   54.5580 C   0  0  0  0  0  0  0  0  0  0  0  0
  126.3120  123.4240   55.3150 C   0  0  0  0  0  0  0  0  0  0  0  0
  126.4800  122.8240   56.5930 O   0  0  0  0  0  0  0  0  0  0  0  0
  126.5730  123.5800   57.7170 C   0  0  0  0  0  0  0  0  0  0  0  0
  125.6780  124.3380   58.1020 O   0  0  0  0  0  0  0  0  0  0  0  0
  127.8710  123.3960   58.4500 C   0  0  0  0  0  0  0  0  0  0  0  0
  129.1060  123.7090   57.8630 C   0  0  0  0  0  0  0  0  0  0  0  0
  130.2900  123.5280   58.5700 C   0  0  0  0  0  0  0  0  0  0  0  0
  130.2680  123.0360   59.8770 C   0  0  0  0  0  0  0  0  0  0  0  0
  131.5240  122.8880   60.4960 N   0  0  0  0  0  0  0  0  0  0  0  0
  132.7010  123.4890   60.2190 C   0  0  0  0  0  0  0  0  0  0  0  0
  132.8930  124.2790   59.2930 O   0  0  0  0  0  0  0  0  0  0  0  0
  133.8670  123.0930   61.1340 C   0  0  0  0  0  0  0  0  0  0  0  0
  134.4290  124.4150   62.2550 S   0  0  0  0  0  0  0  0  0  0  0  0
  132.9510  125.2230   62.8220 C   0  0  0  0  0  0  0  0  0  0  0  0
  132.1160  125.6000   61.8260 N   0  0  0  0  0  0  0  0  0  0  0  0
  130.9570  126.2360   62.1330 C   0  0  0  0  0  0  0  0  0  0  0  0
  130.0890  126.6310   60.9810 C   0  0  0  0  0  0  0  0  0  0  0  0
  130.6390  126.9520   59.7350 C   0  0  0  0  0  0  0  0  0  0  0  0
  129.8270  127.3310   58.6700 C   0  0  0  0  0  0  0  0  0  0  0  0
  128.4330  127.3950   58.8080 C   0  0  0  0  0  0  0  0  0  0  0  0
  127.6320  127.8060   57.7370 N   0  0  0  0  0  0  0  0  0  0  0  0
  128.0800  127.6560   56.3380 C   0  0  0  0  0  0  0  0  0  0  0  0
  126.9480  127.8170   55.3010 C   0  0  0  0  0  0  0  0  0  0  0  0
  126.2870  129.0580   55.4920 O   0  0  0  0  0  0  0  0  0  0  0  0
  125.7060  129.1410   56.7830 C   0  0  0  0  0  0  0  0  0  0  0  0
  126.7980  129.0200   57.8660 C   0  0  0  0  0  0  0  0  0  0  0  0
  127.8870  127.0830   60.0630 C   0  0  0  0  0  0  0  0  0  0  0  0
  128.6990  126.7030   61.1270 C   0  0  0  0  0  0  0  0  0  0  0  0
  130.6040  126.4960   63.4590 C   0  0  0  0  0  0  0  0  0  0  0  0
  131.4530  126.1150   64.5080 C   0  0  0  0  0  0  0  0  0  0  0  0
  131.0180  126.4300   65.9020 C   0  0  0  0  0  0  0  0  0  0  0  0
  129.8570  125.8520   66.4230 C   0  0  0  0  0  0  0  0  0  0  0  0
  129.4320  126.1540   67.7130 C   0  0  0  0  0  0  0  0  0  0  0  0
  130.1570  127.0410   68.5230 C   0  0  0  0  0  0  0  0  0  0  0  0
  129.7380  127.3720   69.8150 N   0  0  0  0  0  0  0  0  0  0  0  0
  130.4880  126.8500   70.9750 C   0  0  0  0  0  0  0  0  0  0  0  0
  130.1700  127.5910   72.2910 C   0  0  0  0  0  0  0  0  0  0  0  0
  128.7730  127.5630   72.5390 O   0  0  0  0  0  0  0  0  0  0  0  0
  128.0410  128.1880   71.4970 C   0  0  0  0  0  0  0  0  0  0  0  0
  128.3060  127.4660   70.1590 C   0  0  0  0  0  0  0  0  0  0  0  0
  131.3150  127.6250   67.9890 C   0  0  0  0  0  0  0  0  0  0  0  0
  131.7390  127.3250   66.6980 C   0  0  0  0  0  0  0  0  0  0  0  0
  132.6630  125.4520   64.1860 C   0  0  0  0  0  0  0  0  0  0  0  0
  133.5650  124.9800   65.2410 C   0  0  0  0  0  0  0  0  0  0  0  0
  134.2760  124.6090   66.0760 N   0  0  0  0  0  0  0  0  0  0  0  0
  129.0370  122.7130   60.4670 C   0  0  0  0  0  0  0  0  0  0  0  0
  127.8520  122.8960   59.7590 C   0  0  0  0  0  0  0  0  0  0  0  0
  1  2  1  0
  2  3  1  0
  3  4  1  0
  4  5  2  0
  4  6  1  0
  6  7  2  0
  7  8  1  0
  8  9  2  0
  9 10  1  0
 10 11  1  0
 11 12  2  0
 11 13  1  0
 13 14  1  0
 14 15  1  0
 15 16  2  0
 16 17  1  0
 17 18  1  0
 18 19  2  0
 19 20  1  0
 20 21  2  0
 21 22  1  0
 22 23  1  0
 23 24  1  0
 24 25  1  0
 25 26  1  0
 26 27  1  0
 21 28  1  0
 28 29  2  0
 17 30  2  0
 30 31  1  0
 31 32  1  0
 32 33  2  0
 33 34  1  0
 34 35  2  0
 35 36  1  0
 36 37  1  0
 37 38  1  0
 38 39  1  0
 39 40  1  0
 40 41  1  0
 35 42  1  0
 42 43  2  0
 31 44  2  0
 44 45  1  0
 45 46  3  0
  9 47  1  0
 47 48  2  0
 48  6  1  0
 44 15  1  0
 29 18  1  0
 43 32  1  0
 27 22  1  0
 41 36  1  0
M  END
>  <Binding energies>  (8) 
[-8.46]

>  <Ligand effiencies>  (8) 
[-0.1726530612244898]

>  <Interactions>  (8) 
["V-B:PRO:540:N:9856, V-B:TYR:539:CZ:9849, V-B:ILE:538:CA:9832, V-B:ALA:541:CB:9864, V-B:PRO:540:CA:9855, V-B:PRO:540:C:9853, V-B:TYR:539:CE2:9848, V-B:TYR:539:CE1:9847, V-B:TYR:539:CD1:9845, V-B:TYR:539:CD2:9846, V-A:ASP:366:CG:3211, V-A:GLU:543:CD:4906, V-B:TYR:531:CZ:9766, H-B:TYR:539:N:9842, V-B:GLU:543:CD:9880, H-B:TYR:531:OH:9767, V-B:TYR:539:C:9839, V-B:ILE:538:CG2:9835, V-B:ILE:538:CB:9834, V-A:ARG:545:CZ:4924, V-A:GLY:454:CA:4047, V-A:ARG:545:CD:4921, H-A:TYR:484:OH:4346, H-A:GLY:454:N:4048, V-B:TYR:531:CE1:9764, H-A:ARG:545:NH2:4926, V-A:ILE:369:CD1:3237, V-B:HIS:456:CE1:9042, V-A:HIS:456:CD2:4066, V-B:GLY:544:C:9884, V-A:HIS:456:CG:4064, V-B:HIS:456:CD2:9040, V-A:LYS:547:CE:4948, V-B:HIS:456:CG:9038, V-A:HIS:456:CE1:4068, V-A:GLY:544:C:4910, V-B:GLU:543:CG:9879, V-B:GLU:543:C:9874, V-A:ARG:545:CG:4920, V-A:GLU:543:CG:4905, V-B:GLU:543:CB:9878, V-A:GLY:544:CA:4912, V-A:GLU:543:C:4900, V-A:ARG:545:CA:4917, H-A:HIS:456:ND1:4065, H-A:ILE:455:N:4053"]

$$$$
2aa_Ghoteimi_2023
     RDKit          3D

 48 53  0  0  0  0  0  0  0  0999 V2000
  125.6060  123.1570   55.4980 C   0  0  0  0  0  0  0  0  0  0  0  0
  124.2710  123.1460   56.2490 C   0  0  0  0  0  0  0  0  0  0  0  0
  124.4820  123.5670   57.5910 O   0  0  0  0  0  0  0  0  0  0  0  0
  125.3950  124.5280   57.8900 C   0  0  0  0  0  0  0  0  0  0  0  0
  125.3820  125.6580   57.3910 O   0  0  0  0  0  0  0  0  0  0  0  0
  126.4130  124.0840   58.9010 C   0  0  0  0  0  0  0  0  0  0  0  0
  127.6590  123.5660   58.5190 C   0  0  0  0  0  0  0  0  0  0  0  0
  128.5840  123.1670   59.4800 C   0  0  0  0  0  0  0  0  0  0  0  0
  128.2800  123.2690   60.8390 C   0  0  0  0  0  0  0  0  0  0  0  0
  129.2880  122.8400   61.7240 N   0  0  0  0  0  0  0  0  0  0  0  0
  130.0080  121.6970   61.7270 C   0  0  0  0  0  0  0  0  0  0  0  0
  129.9150  120.7990   60.8880 O   0  0  0  0  0  0  0  0  0  0  0  0
  131.0180  121.5820   62.8760 C   0  0  0  0  0  0  0  0  0  0  0  0
  132.0000  122.6170   62.7600 O   0  0  0  0  0  0  0  0  0  0  0  0
  131.6320  123.9470   62.9100 C   0  0  0  0  0  0  0  0  0  0  0  0
  131.3540  124.3970   64.1650 N   0  0  0  0  0  0  0  0  0  0  0  0
  130.9950  125.6930   64.3470 C   0  0  0  0  0  0  0  0  0  0  0  0
  130.7000  126.1140   65.7520 C   0  0  0  0  0  0  0  0  0  0  0  0
  131.6150  126.8880   66.4730 C   0  0  0  0  0  0  0  0  0  0  0  0
  131.3430  127.2890   67.7790 C   0  0  0  0  0  0  0  0  0  0  0  0
  130.1370  126.9410   68.4080 C   0  0  0  0  0  0  0  0  0  0  0  0
  129.8530  127.3250   69.7230 N   0  0  0  0  0  0  0  0  0  0  0  0
  128.5070  127.7900   70.1160 C   0  0  0  0  0  0  0  0  0  0  0  0
  128.4680  128.4970   71.4870 C   0  0  0  0  0  0  0  0  0  0  0  0
  129.0240  127.6560   72.4840 O   0  0  0  0  0  0  0  0  0  0  0  0
  130.3780  127.3370   72.1980 C   0  0  0  0  0  0  0  0  0  0  0  0
  130.4730  126.5950   70.8480 C   0  0  0  0  0  0  0  0  0  0  0  0
  129.2320  126.1480   67.6880 C   0  0  0  0  0  0  0  0  0  0  0  0
  129.5070  125.7450   66.3840 C   0  0  0  0  0  0  0  0  0  0  0  0
  130.8890  126.5720   63.2650 C   0  0  0  0  0  0  0  0  0  0  0  0
  131.1590  126.1320   61.9640 C   0  0  0  0  0  0  0  0  0  0  0  0
  131.0040  127.1110   60.8450 C   0  0  0  0  0  0  0  0  0  0  0  0
  130.7850  128.4640   61.1170 C   0  0  0  0  0  0  0  0  0  0  0  0
  130.6200  129.3780   60.0800 C   0  0  0  0  0  0  0  0  0  0  0  0
  130.6550  128.9630   58.7400 C   0  0  0  0  0  0  0  0  0  0  0  0
  130.4950  129.8630   57.6830 N   0  0  0  0  0  0  0  0  0  0  0  0
  131.6240  130.6710   57.1840 C   0  0  0  0  0  0  0  0  0  0  0  0
  131.3530  131.3270   55.8130 C   0  0  0  0  0  0  0  0  0  0  0  0
  130.1640  132.1010   55.8730 O   0  0  0  0  0  0  0  0  0  0  0  0
  129.0390  131.3050   56.2100 C   0  0  0  0  0  0  0  0  0  0  0  0
  129.2480  130.6500   57.5900 C   0  0  0  0  0  0  0  0  0  0  0  0
  130.8820  127.6050   58.4770 C   0  0  0  0  0  0  0  0  0  0  0  0
  131.0470  126.6910   59.5130 C   0  0  0  0  0  0  0  0  0  0  0  0
  131.5550  124.7860   61.7840 C   0  0  0  0  0  0  0  0  0  0  0  0
  131.9040  124.2520   60.4660 C   0  0  0  0  0  0  0  0  0  0  0  0
  132.1810  123.8310   59.4240 N   0  0  0  0  0  0  0  0  0  0  0  0
  127.0390  123.7920   61.2290 C   0  0  0  0  0  0  0  0  0  0  0  0
  126.1170  124.1940   60.2660 C   0  0  0  0  0  0  0  0  0  0  0  0
  1  2  1  0
  2  3  1  0
  3  4  1  0
  4  5  2  0
  4  6  1  0
  6  7  2  0
  7  8  1  0
  8  9  2  0
  9 10  1  0
 10 11  1  0
 11 12  2  0
 11 13  1  0
 13 14  1  0
 14 15  1  0
 15 16  2  0
 16 17  1  0
 17 18  1  0
 18 19  2  0
 19 20  1  0
 20 21  2  0
 21 22  1  0
 22 23  1  0
 23 24  1  0
 24 25  1  0
 25 26  1  0
 26 27  1  0
 21 28  1  0
 28 29  2  0
 17 30  2  0
 30 31  1  0
 31 32  1  0
 32 33  2  0
 33 34  1  0
 34 35  2  0
 35 36  1  0
 36 37  1  0
 37 38  1  0
 38 39  1  0
 39 40  1  0
 40 41  1  0
 35 42  1  0
 42 43  2  0
 31 44  2  0
 44 45  1  0
 45 46  3  0
  9 47  1  0
 47 48  2  0
 48  6  1  0
 44 15  1  0
 29 18  1  0
 43 32  1  0
 27 22  1  0
 41 36  1  0
M  END
>  <Binding energies>  (9) 
[-7.1]

>  <Ligand effiencies>  (9) 
[-0.14489795918367346]

>  <Interactions>  (9) 
["V-B:PRO:540:N:9856, H-B:GLU:543:OE1:9881, V-B:ILE:538:CA:9832, V-B:ALA:541:CB:9864, V-B:PRO:540:CB:9857, V-B:PRO:540:CA:9855, V-A:LEU:475:CD2:4257, V-A:ASP:366:CG:3211, H-A:TYR:539:N:4868, V-A:TYR:531:CZ:4792, V-A:GLU:543:CD:4906, V-B:TYR:531:CE2:9765, V-B:LEU:363:CD1:8161, V-B:GLU:543:CD:9880, H-B:TYR:531:OH:9767, V-B:TYR:539:C:9839, V-B:ILE:538:CG2:9835, V-B:PRO:540:CD:9859, V-B:ILE:538:CB:9834, V-B:PRO:540:CG:9858, V-A:ARG:545:CZ:4924, V-A:ARG:545:CD:4921, H-A:TYR:484:OH:4346, V-B:HIS:456:CE1:9042, V-A:HIS:456:CD2:4066, V-A:HIS:456:CG:4064, V-B:HIS:456:CD2:9040, V-A:LYS:547:CE:4948, H-A:LYS:547:NZ:4949, V-B:HIS:456:CG:9038, V-A:HIS:456:CE1:4068, V-A:GLY:544:C:4910, V-B:GLU:543:CG:9879, V-B:GLU:543:C:9874, V-A:ARG:545:CG:4920, V-A:GLU:543:CG:4905, V-B:GLU:543:CB:9878, V-A:GLY:544:CA:4912, V-B:GLU:543:CA:9876"]

$$$$
2b_Ghoteimi_2023
     RDKit          3D

 42 47  0  0  0  0  0  0  0  0999 V2000
  134.2590  124.6540   66.1010 N   0  0  0  0  0  0  0  0  0  0  0  0
  133.5410  124.9830   65.2560 C   0  0  0  0  0  0  0  0  0  0  0  0
  132.6270  125.4040   64.1890 C   0  0  0  0  0  0  0  0  0  0  0  0
  131.4250  126.0880   64.4990 C   0  0  0  0  0  0  0  0  0  0  0  0
  130.9990  126.4300   65.8880 C   0  0  0  0  0  0  0  0  0  0  0  0
  129.8340  125.8780   66.4240 C   0  0  0  0  0  0  0  0  0  0  0  0
  129.4320  126.1950   67.7190 C   0  0  0  0  0  0  0  0  0  0  0  0
  130.1750  127.0870   68.5070 C   0  0  0  0  0  0  0  0  0  0  0  0
  129.7990  127.4100   69.8120 N   0  0  0  0  0  0  0  0  0  0  0  0
  128.3630  127.4860   70.1490 C   0  0  0  0  0  0  0  0  0  0  0  0
  128.0860  128.2080   71.4840 C   0  0  0  0  0  0  0  0  0  0  0  0
  128.8250  127.6000   72.5320 O   0  0  0  0  0  0  0  0  0  0  0  0
  130.2220  127.6510   72.2860 C   0  0  0  0  0  0  0  0  0  0  0  0
  130.5520  126.9060   70.9770 C   0  0  0  0  0  0  0  0  0  0  0  0
  131.3410  127.6390   67.9590 C   0  0  0  0  0  0  0  0  0  0  0  0
  131.7460  127.3200   66.6660 C   0  0  0  0  0  0  0  0  0  0  0  0
  130.5860  126.4740   63.4460 C   0  0  0  0  0  0  0  0  0  0  0  0
  130.9500  126.2150   62.1210 C   0  0  0  0  0  0  0  0  0  0  0  0
  130.1040  126.6330   60.9600 C   0  0  0  0  0  0  0  0  0  0  0  0
  128.9480  125.9200   60.6260 C   0  0  0  0  0  0  0  0  0  0  0  0
  128.1480  126.3120   59.5560 C   0  0  0  0  0  0  0  0  0  0  0  0
  128.4820  127.4270   58.7710 C   0  0  0  0  0  0  0  0  0  0  0  0
  127.6720  127.8520   57.7120 N   0  0  0  0  0  0  0  0  0  0  0  0
  126.7800  129.0170   57.8880 C   0  0  0  0  0  0  0  0  0  0  0  0
  125.6860  129.1270   56.8050 C   0  0  0  0  0  0  0  0  0  0  0  0
  126.2770  129.1290   55.5150 O   0  0  0  0  0  0  0  0  0  0  0  0
  127.0030  127.9350   55.2740 C   0  0  0  0  0  0  0  0  0  0  0  0
  128.1360  127.7860   56.3120 C   0  0  0  0  0  0  0  0  0  0  0  0
  129.6380  128.1430   59.1130 C   0  0  0  0  0  0  0  0  0  0  0  0
  130.4360  127.7510   60.1850 C   0  0  0  0  0  0  0  0  0  0  0  0
  132.1020  125.5610   61.8260 N   0  0  0  0  0  0  0  0  0  0  0  0
  132.9130  125.1480   62.8290 C   0  0  0  0  0  0  0  0  0  0  0  0
  134.3740  124.3050   62.2630 S   0  0  0  0  0  0  0  0  0  0  0  0
  133.8420  122.7530   61.4780 C   0  0  0  0  0  0  0  0  0  0  0  0
  133.3800  122.9670   60.0360 C   0  0  0  0  0  0  0  0  0  0  0  0
  133.1200  121.9880   59.3330 O   0  0  0  0  0  0  0  0  0  0  0  0
  133.2970  124.2550   59.6370 N   0  0  0  0  0  0  0  0  0  0  0  0
  132.8980  124.7270   58.3940 C   0  0  0  0  0  0  0  0  0  0  0  0
  131.6870  125.3850   58.1840 C   0  0  0  0  0  0  0  0  0  0  0  0
  131.6710  125.6850   56.8420 C   0  0  0  0  0  0  0  0  0  0  0  0
  132.8130  125.2330   56.2740 O   0  0  0  0  0  0  0  0  0  0  0  0
  133.5850  124.6280   57.2690 N   0  0  0  0  0  0  0  0  0  0  0  0
  1  2  3  0
  2  3  1  0
  3  4  2  0
  4  5  1  0
  5  6  2  0
  6  7  1  0
  7  8  2  0
  8  9  1  0
  9 10  1  0
 10 11  1  0
 11 12  1  0
 12 13  1  0
 13 14  1  0
  8 15  1  0
 15 16  2  0
  4 17  1  0
 17 18  2  0
 18 19  1  0
 19 20  2  0
 20 21  1  0
 21 22  2  0
 22 23  1  0
 23 24  1  0
 24 25  1  0
 25 26  1  0
 26 27  1  0
 27 28  1  0
 22 29  1  0
 29 30  2  0
 18 31  1  0
 31 32  2  0
 32 33  1  0
 33 34  1  0
 34 35  1  0
 35 36  2  0
 35 37  1  0
 37 38  1  0
 38 39  1  0
 39 40  2  0
 40 41  1  0
 41 42  1  0
 32  3  1  0
 42 38  2  0
 16  5  1  0
 30 19  1  0
 14  9  1  0
 28 23  1  0
M  END
>  <Binding energies>  (10) 
[-7.89]

>  <Ligand effiencies>  (10) 
[-0.18348837209302324]

>  <Interactions>  (10) 
["V-B:TYR:539:CE2:9848, V-A:ASP:366:CG:3211, H-A:TYR:531:OH:4793, V-A:ASP:366:CB:3210, V-A:GLU:543:CD:4906, V-B:TYR:531:CZ:9766, V-B:GLU:543:CD:9880, H-B:TYR:531:OH:9767, V-A:ARG:545:CZ:4924, H-A:ASP:366:OD2:3213, V-A:GLY:454:CA:4047, V-A:ARG:545:CD:4921, H-A:TYR:484:OH:4346, H-A:GLY:454:N:4048, V-B:TYR:531:CE1:9764, V-B:ASP:366:CB:8184, H-B:TYR:539:OH:9850, H-A:ARG:545:NH2:4926, H-A:ASP:366:OD1:3212, V-A:ILE:369:CG2:3235, V-A:ILE:369:CD1:3237, V-A:ASP:366:CA:3208, V-B:HIS:456:CE1:9042, V-A:HIS:456:CD2:4066, V-B:GLY:544:C:9884, V-A:HIS:456:CG:4064, V-B:HIS:456:CD2:9040, V-A:LYS:547:CE:4948, V-B:HIS:456:CG:9038, V-A:HIS:456:CE1:4068, V-A:GLY:544:C:4910, V-B:GLU:543:CG:9879, V-B:GLU:543:C:9874, V-A:ARG:545:CG:4920, V-A:GLU:543:CG:4905, V-A:TYR:484:CZ:4345, V-B:GLU:543:CB:9878, V-A:GLY:544:CA:4912, V-A:GLU:543:C:4900, V-A:ARG:545:CA:4917, H-A:HIS:456:ND1:4065, H-A:ILE:455:N:4053"]

$$$$
2c_Ghoteimi_2023
     RDKit          3D

 42 47  0  0  0  0  0  0  0  0999 V2000
  134.6530  125.3960   65.8790 N   0  0  0  0  0  0  0  0  0  0  0  0
  133.7930  125.3090   65.1100 C   0  0  0  0  0  0  0  0  0  0  0  0
  132.7000  125.2030   64.1390 C   0  0  0  0  0  0  0  0  0  0  0  0
  131.3790  125.5720   64.4960 C   0  0  0  0  0  0  0  0  0  0  0  0
  130.9940  126.0820   65.8470 C   0  0  0  0  0  0  0  0  0  0  0  0
  129.8780  125.5610   66.5030 C   0  0  0  0  0  0  0  0  0  0  0  0
  129.5150  126.0280   67.7630 C   0  0  0  0  0  0  0  0  0  0  0  0
  130.2520  127.0400   68.3980 C   0  0  0  0  0  0  0  0  0  0  0  0
  129.9180  127.5090   69.6700 N   0  0  0  0  0  0  0  0  0  0  0  0
  128.5100  127.8350   69.9740 C   0  0  0  0  0  0  0  0  0  0  0  0
  128.3440  128.6910   71.2480 C   0  0  0  0  0  0  0  0  0  0  0  0
  128.9640  128.0470   72.3510 O   0  0  0  0  0  0  0  0  0  0  0  0
  130.3530  127.8550   72.1320 C   0  0  0  0  0  0  0  0  0  0  0  0
  130.5730  126.9780   70.8810 C   0  0  0  0  0  0  0  0  0  0  0  0
  131.3690  127.5600   67.7290 C   0  0  0  0  0  0  0  0  0  0  0  0
  131.7320  127.0920   66.4700 C   0  0  0  0  0  0  0  0  0  0  0  0
  130.3700  125.4550   63.5320 C   0  0  0  0  0  0  0  0  0  0  0  0
  130.6720  125.0090   62.2420 C   0  0  0  0  0  0  0  0  0  0  0  0
  129.6350  124.8830   61.1720 C   0  0  0  0  0  0  0  0  0  0  0  0
  128.6020  123.9460   61.2850 C   0  0  0  0  0  0  0  0  0  0  0  0
  127.6300  123.8280   60.2950 C   0  0  0  0  0  0  0  0  0  0  0  0
  127.6610  124.6360   59.1470 C   0  0  0  0  0  0  0  0  0  0  0  0
  126.6790  124.5470   58.1560 N   0  0  0  0  0  0  0  0  0  0  0  0
  126.9980  123.9180   56.8580 C   0  0  0  0  0  0  0  0  0  0  0  0
  125.9710  124.2300   55.7490 C   0  0  0  0  0  0  0  0  0  0  0  0
  124.6680  123.8690   56.1780 O   0  0  0  0  0  0  0  0  0  0  0  0
  124.2840  124.5900   57.3380 C   0  0  0  0  0  0  0  0  0  0  0  0
  125.2630  124.2940   58.4940 C   0  0  0  0  0  0  0  0  0  0  0  0
  128.6910  125.5820   59.0450 C   0  0  0  0  0  0  0  0  0  0  0  0
  129.6620  125.7000   60.0360 C   0  0  0  0  0  0  0  0  0  0  0  0
  131.9380  124.6580   61.9010 N   0  0  0  0  0  0  0  0  0  0  0  0
  132.9250  124.7320   62.8260 C   0  0  0  0  0  0  0  0  0  0  0  0
  134.5150  124.2240   62.2120 S   0  0  0  0  0  0  0  0  0  0  0  0
  134.3910  124.1120   60.4010 C   0  0  0  0  0  0  0  0  0  0  0  0
  133.3750  123.0580   59.9600 C   0  0  0  0  0  0  0  0  0  0  0  0
  133.2470  122.8070   58.7600 O   0  0  0  0  0  0  0  0  0  0  0  0
  132.6750  122.4710   60.9540 N   0  0  0  0  0  0  0  0  0  0  0  0
  131.7140  121.4800   60.8190 C   0  0  0  0  0  0  0  0  0  0  0  0
  130.4130  121.5900   60.9800 N   0  0  0  0  0  0  0  0  0  0  0  0
  129.8000  120.4430   60.7650 C   0  0  0  0  0  0  0  0  0  0  0  0
  130.6110  119.3660   60.4210 C   0  0  0  0  0  0  0  0  0  0  0  0
  132.2660  119.8960   60.3790 S   0  0  0  0  0  0  0  0  0  0  0  0
  1  2  3  0
  2  3  1  0
  3  4  2  0
  4  5  1  0
  5  6  2  0
  6  7  1  0
  7  8  2  0
  8  9  1  0
  9 10  1  0
 10 11  1  0
 11 12  1  0
 12 13  1  0
 13 14  1  0
  8 15  1  0
 15 16  2  0
  4 17  1  0
 17 18  2  0
 18 19  1  0
 19 20  2  0
 20 21  1  0
 21 22  2  0
 22 23  1  0
 23 24  1  0
 24 25  1  0
 25 26  1  0
 26 27  1  0
 27 28  1  0
 22 29  1  0
 29 30  2  0
 18 31  1  0
 31 32  2  0
 32 33  1  0
 33 34  1  0
 34 35  1  0
 35 36  2  0
 35 37  1  0
 37 38  1  0
 38 39  2  0
 39 40  1  0
 40 41  2  0
 41 42  1  0
 32  3  1  0
 42 38  1  0
 16  5  1  0
 30 19  1  0
 14  9  1  0
 28 23  1  0
M  END
>  <Binding energies>  (11) 
[-6.94]

>  <Ligand effiencies>  (11) 
[-0.16139534883720932]

>  <Interactions>  (11) 
["V-A:TRP:381:CZ2:3368, V-A:TRP:381:CH2:3370, V-B:ALA:541:CB:9864, V-A:PRO:482:CG:4325, V-B:PRO:540:CB:9857, V-B:PRO:540:CA:9855, V-B:TYR:539:CE2:9848, V-A:LEU:475:CD2:4257, V-A:PRO:482:CB:4324, V-B:TYR:539:CD2:9846, V-A:ASP:366:CG:3211, V-A:GLU:543:CD:4906, V-B:TYR:531:CE2:9765, V-B:TYR:531:CZ:9766, V-B:GLU:543:CD:9880, H-B:TYR:531:OH:9767, V-A:ARG:545:CZ:4924, V-A:ARG:545:CD:4921, H-A:TYR:484:OH:4346, H-A:ARG:545:NE:4922, H-A:GLY:454:N:4048, H-B:TYR:539:OH:9850, V-A:ILE:369:CG2:3235, V-A:ILE:369:CD1:3237, V-A:ASP:366:CA:3208, V-B:HIS:456:CE1:9042, V-A:HIS:456:CD2:4066, V-A:HIS:456:CG:4064, V-B:HIS:456:CD2:9040, V-A:LYS:547:CE:4948, H-A:LYS:547:NZ:4949, V-B:HIS:456:CG:9038, V-A:HIS:456:CE1:4068, V-A:GLY:544:C:4910, V-B:GLU:543:CG:9879, V-B:GLU:543:C:9874, V-A:ARG:545:CG:4920, V-A:GLY:453:CA:4042, V-A:GLU:543:CG:4905, V-B:GLU:543:CB:9878, V-A:GLY:544:CA:4912, V-A:GLU:543:C:4900, V-B:GLU:543:CA:9876, V-A:TRP:381:CZ3:3369"]

$$$$
2j_Grossjean_2025
     RDKit          3D

 23 24  0  0  0  0  0  0  0  0999 V2000
  129.0880  132.5080   73.5330 C   0  0  0  0  0  0  0  0  0  0  0  0
  128.0900  131.4040   73.8280 C   0  0  0  0  0  0  0  0  0  0  0  0
  127.0410  131.5890   74.7240 C   0  0  0  0  0  0  0  0  0  0  0  0
  126.1420  130.5390   74.9610 C   0  0  0  0  0  0  0  0  0  0  0  0
  124.9860  130.7610   75.9550 C   0  0  0  0  0  0  0  0  0  0  0  0
  123.8840  130.1500   75.5180 F   0  0  0  0  0  0  0  0  0  0  0  0
  125.3100  130.2660   77.1510 F   0  0  0  0  0  0  0  0  0  0  0  0
  124.6910  132.0520   76.1230 F   0  0  0  0  0  0  0  0  0  0  0  0
  126.3360  129.3140   74.2750 C   0  0  0  0  0  0  0  0  0  0  0  0
  125.4280  128.1820   74.4840 C   0  0  0  0  0  0  0  0  0  0  0  0
  124.7100  127.2900   74.6490 N   0  0  0  0  0  0  0  0  0  0  0  0
  127.4300  129.2130   73.3820 C   0  0  0  0  0  0  0  0  0  0  0  0
  127.7700  127.7190   72.4620 S   0  0  0  0  0  0  0  0  0  0  0  0
  129.5700  127.6120   72.1840 C   0  0  0  0  0  0  0  0  0  0  0  0
  130.2470  126.3810   72.8040 C   0  0  0  0  0  0  0  0  0  0  0  0
  129.7100  125.2730   72.7500 O   0  0  0  0  0  0  0  0  0  0  0  0
  131.4350  126.6280   73.4000 N   0  0  0  0  0  0  0  0  0  0  0  0
  132.2540  125.7030   74.0330 C   0  0  0  0  0  0  0  0  0  0  0  0
  131.9170  124.5310   74.5260 N   0  0  0  0  0  0  0  0  0  0  0  0
  132.9530  123.9110   75.0570 C   0  0  0  0  0  0  0  0  0  0  0  0
  134.1690  124.5860   75.0010 C   0  0  0  0  0  0  0  0  0  0  0  0
  133.9300  126.1140   74.2080 S   0  0  0  0  0  0  0  0  0  0  0  0
  128.2870  130.2420   73.1640 N   0  0  0  0  0  0  0  0  0  0  0  0
  1  2  1  0
  2  3  2  0
  3  4  1  0
  4  5  1  0
  5  6  1  0
  5  7  1  0
  5  8  1  0
  4  9  2  0
  9 10  1  0
 10 11  3  0
  9 12  1  0
 12 13  1  0
 13 14  1  0
 14 15  1  0
 15 16  2  0
 15 17  1  0
 17 18  1  0
 18 19  2  0
 19 20  1  0
 20 21  2  0
 21 22  1  0
 12 23  2  0
 23  2  1  0
 22 18  1  0
M  END
>  <Binding energies>  (12) 
[-7.51]

>  <Ligand effiencies>  (12) 
[-0.3129166666666667]

>  <Interactions>  (12) 
["V-A:LYS:471:CE:4218, V-B:HIS:456:CA:9035, V-B:VAL:458:CG2:9059, V-B:VAL:457:C:9045, V-A:HIS:456:CB:4063, V-A:HIS:456:CD2:4066, V-B:LYS:471:CD:9191, H-A:GLY:544:O:4911, V-A:VAL:458:CG2:4085, V-A:HIS:456:CG:4064, V-A:HIS:456:C:4059, V-A:VAL:457:C:4071, V-B:LYS:471:CE:9192, V-B:HIS:456:C:9033, V-B:HIS:456:CD2:9040, V-A:LYS:547:CE:4948, V-B:LYS:471:CB:9189, V-B:LYS:471:CG:9190, V-B:VAL:457:CA:9047, H-A:LYS:547:NZ:4949, V-A:LYS:471:CD:4217, V-B:HIS:456:CG:9038, V-B:HIS:456:CB:9037, V-A:HIS:456:CA:4061, H-B:LYS:547:NZ:9923, V-B:ASP:473:CG:9212, V-A:GLY:544:C:4910, V-B:LYS:547:CE:9922, V-B:LYS:547:CG:9920, V-B:LYS:547:CD:9921, V-B:ASP:473:CB:9211"]

$$$$
3ab_Grossjean_2025
     RDKit          3D

 33 35  0  0  0  0  0  0  0  0999 V2000
  132.0970  131.8180   55.5640 C   0  0  0  0  0  0  0  0  0  0  0  0
  130.8090  132.2780   55.1780 O   0  0  0  0  0  0  0  0  0  0  0  0
  129.7190  132.0310   55.9490 C   0  0  0  0  0  0  0  0  0  0  0  0
  129.2220  132.8630   56.7130 O   0  0  0  0  0  0  0  0  0  0  0  0
  129.1750  130.6420   55.7780 C   0  0  0  0  0  0  0  0  0  0  0  0
  129.7600  129.5320   56.4080 C   0  0  0  0  0  0  0  0  0  0  0  0
  129.2330  128.2550   56.2330 C   0  0  0  0  0  0  0  0  0  0  0  0
  128.1060  128.0650   55.4180 C   0  0  0  0  0  0  0  0  0  0  0  0
  127.4880  126.8240   55.1750 N   0  0  0  0  0  0  0  0  0  0  0  0
  128.0360  125.6080   54.9670 C   0  0  0  0  0  0  0  0  0  0  0  0
  129.2420  125.3630   54.9390 O   0  0  0  0  0  0  0  0  0  0  0  0
  127.0400  124.4680   54.7490 C   0  0  0  0  0  0  0  0  0  0  0  0
  127.6240  122.9020   55.4650 S   0  0  0  0  0  0  0  0  0  0  0  0
  127.6900  123.1150   57.2320 C   0  0  0  0  0  0  0  0  0  0  0  0
  128.8850  122.7800   57.7730 N   0  0  0  0  0  0  0  0  0  0  0  0
  129.0780  122.8980   59.1120 C   0  0  0  0  0  0  0  0  0  0  0  0
  130.4310  122.5100   59.6320 C   0  0  0  0  0  0  0  0  0  0  0  0
  131.5250  123.3820   59.5080 C   0  0  0  0  0  0  0  0  0  0  0  0
  132.7830  123.0270   59.9890 C   0  0  0  0  0  0  0  0  0  0  0  0
  132.9640  121.7910   60.6020 C   0  0  0  0  0  0  0  0  0  0  0  0
  131.8980  120.9080   60.7340 C   0  0  0  0  0  0  0  0  0  0  0  0
  130.6430  121.2670   60.2510 C   0  0  0  0  0  0  0  0  0  0  0  0
  128.0470  123.3430   59.9480 C   0  0  0  0  0  0  0  0  0  0  0  0
  126.7940  123.6770   59.4130 C   0  0  0  0  0  0  0  0  0  0  0  0
  125.6840  124.1560   60.3680 C   0  0  0  0  0  0  0  0  0  0  0  0
  124.4580  123.9070   59.9030 F   0  0  0  0  0  0  0  0  0  0  0  0
  125.7950  123.5440   61.5480 F   0  0  0  0  0  0  0  0  0  0  0  0
  125.7830  125.4730   60.5550 F   0  0  0  0  0  0  0  0  0  0  0  0
  126.5990  123.5540   58.0150 C   0  0  0  0  0  0  0  0  0  0  0  0
  125.2930  123.8350   57.4130 C   0  0  0  0  0  0  0  0  0  0  0  0
  124.2610  124.0580   56.9400 N   0  0  0  0  0  0  0  0  0  0  0  0
  127.5190  129.1670   54.7950 C   0  0  0  0  0  0  0  0  0  0  0  0
  128.0480  130.4420   54.9710 C   0  0  0  0  0  0  0  0  0  0  0  0
  1  2  1  0
  2  3  1  0
  3  4  2  0
  3  5  1  0
  5  6  2  0
  6  7  1  0
  7  8  2  0
  8  9  1  0
  9 10  1  0
 10 11  2  0
 10 12  1  0
 12 13  1  0
 13 14  1  0
 14 15  2  0
 15 16  1  0
 16 17  1  0
 17 18  2  0
 18 19  1  0
 19 20  2  0
 20 21  1  0
 21 22  2  0
 16 23  2  0
 23 24  1  0
 24 25  1  0
 25 26  1  0
 25 27  1  0
 25 28  1  0
 24 29  2  0
 29 30  1  0
 30 31  3  0
  8 32  1  0
 32 33  2  0
 33  5  1  0
 29 14  1  0
 22 17  1  0
M  END
>  <Binding energies>  (13) 
[-9.01]

>  <Ligand effiencies>  (13) 
[-0.265]

>  <Interactions>  (13) 
["V-B:PRO:540:N:9856, V-A:TRP:381:CH2:3370, V-B:ASP:366:CG:8185, V-B:PRO:540:CB:9857, V-B:PRO:540:CA:9855, V-B:PRO:540:C:9853, V-B:ALA:541:CA:9862, V-B:TYR:539:CE2:9848, V-A:LEU:475:CD2:4257, V-B:TYR:539:CD2:9846, H-A:TYR:539:N:4868, V-A:TYR:531:CE2:4791, V-A:ILE:538:CB:4860, V-A:ILE:538:CG2:4861, V-A:TYR:531:CZ:4792, V-B:ALA:541:C:9860, H-B:TYR:539:N:9842, H-B:MET:535:SD:9806, H-B:TYR:531:OH:9767, V-B:TYR:539:C:9839, V-A:ILE:369:CG2:3235, V-B:MET:535:CG:9805"]

$$$$
3ac_Grossjean_2025
     RDKit          3D

 31 33  0  0  0  0  0  0  0  0999 V2000
  131.7260  132.1080   56.0160 C   0  0  0  0  0  0  0  0  0  0  0  0
  130.3340  132.2350   55.7430 O   0  0  0  0  0  0  0  0  0  0  0  0
  129.5860  131.0970   55.5060 C   0  0  0  0  0  0  0  0  0  0  0  0
  129.7480  130.0460   56.4080 C   0  0  0  0  0  0  0  0  0  0  0  0
  129.0340  128.8620   56.2520 C   0  0  0  0  0  0  0  0  0  0  0  0
  128.1510  128.7090   55.1820 C   0  0  0  0  0  0  0  0  0  0  0  0
  127.4590  127.4850   55.1200 N   0  0  0  0  0  0  0  0  0  0  0  0
  127.8680  126.2550   55.5000 C   0  0  0  0  0  0  0  0  0  0  0  0
  128.9500  125.9970   56.0280 O   0  0  0  0  0  0  0  0  0  0  0  0
  126.8760  125.1210   55.2400 C   0  0  0  0  0  0  0  0  0  0  0  0
  127.5360  123.5010   55.7410 S   0  0  0  0  0  0  0  0  0  0  0  0
  127.5760  123.4270   57.5220 C   0  0  0  0  0  0  0  0  0  0  0  0
  128.7500  122.9570   58.0100 N   0  0  0  0  0  0  0  0  0  0  0  0
  128.9310  122.8490   59.3510 C   0  0  0  0  0  0  0  0  0  0  0  0
  130.2550  122.3130   59.8080 C   0  0  0  0  0  0  0  0  0  0  0  0
  130.3650  121.0090   60.3170 C   0  0  0  0  0  0  0  0  0  0  0  0
  131.5920  120.5030   60.7370 C   0  0  0  0  0  0  0  0  0  0  0  0
  132.7300  121.2990   60.6560 C   0  0  0  0  0  0  0  0  0  0  0  0
  132.6480  122.5960   60.1610 C   0  0  0  0  0  0  0  0  0  0  0  0
  131.4190  123.0970   59.7420 C   0  0  0  0  0  0  0  0  0  0  0  0
  127.9120  123.2020   60.2420 C   0  0  0  0  0  0  0  0  0  0  0  0
  126.6800  123.6710   59.7630 C   0  0  0  0  0  0  0  0  0  0  0  0
  125.5830  124.0430   60.7800 C   0  0  0  0  0  0  0  0  0  0  0  0
  125.4360  125.3620   60.9230 F   0  0  0  0  0  0  0  0  0  0  0  0
  124.4060  123.5530   60.3890 F   0  0  0  0  0  0  0  0  0  0  0  0
  125.8850  123.5390   61.9770 F   0  0  0  0  0  0  0  0  0  0  0  0
  126.4930  123.7760   58.3620 C   0  0  0  0  0  0  0  0  0  0  0  0
  125.1990  124.1860   57.8130 C   0  0  0  0  0  0  0  0  0  0  0  0
  124.1760  124.5100   57.3800 N   0  0  0  0  0  0  0  0  0  0  0  0
  127.9760  129.7640   54.2740 C   0  0  0  0  0  0  0  0  0  0  0  0
  128.6920  130.9480   54.4340 C   0  0  0  0  0  0  0  0  0  0  0  0
  1  2  1  0
  2  3  1  0
  3  4  2  0
  4  5  1  0
  5  6  2  0
  6  7  1  0
  7  8  1  0
  8  9  2  0
  8 10  1  0
 10 11  1  0
 11 12  1  0
 12 13  2  0
 13 14  1  0
 14 15  1  0
 15 16  2  0
 16 17  1  0
 17 18  2  0
 18 19  1  0
 19 20  2  0
 14 21  2  0
 21 22  1  0
 22 23  1  0
 23 24  1  0
 23 25  1  0
 23 26  1  0
 22 27  2  0
 27 28  1  0
 28 29  3  0
  6 30  1  0
 30 31  2  0
 31  3  1  0
 27 12  1  0
 20 15  1  0
M  END
>  <Binding energies>  (14) 
[-8.01]

>  <Ligand effiencies>  (14) 
[-0.2503125]

>  <Interactions>  (14) 
["V-B:PRO:540:N:9856, V-A:TRP:381:CH2:3370, V-B:ALA:541:CB:9864, V-B:ASP:366:CG:8185, V-B:PRO:540:CB:9857, V-B:PRO:540:CA:9855, V-B:PRO:540:C:9853, V-B:ALA:541:CA:9862, V-B:TYR:539:CE2:9848, V-A:LEU:475:CD2:4257, V-B:TYR:539:CD2:9846, V-B:MET:535:CE:9807, V-A:TYR:539:CE1:4873, V-A:PRO:540:N:4882, H-A:TYR:539:N:4868, V-A:ILE:538:CA:4858, V-A:ILE:538:CB:4860, V-A:ILE:538:CG2:4861, V-B:ALA:541:C:9860, V-B:ARG:545:CZ:9898, V-B:TYR:531:CZ:9766, V-B:ASN:362:CB:8148, H-B:TYR:539:N:9842, V-B:GLU:543:CD:9880, H-B:MET:535:SD:9806, H-B:TYR:531:OH:9767, V-B:TYR:539:C:9839, V-A:PRO:540:CD:4885, V-A:ILE:369:CG2:3235"]

$$$$
3af_Grossjean_2025
     RDKit          3D

 29 31  0  0  0  0  0  0  0  0999 V2000
  133.8170  127.3190   74.3070 N   0  0  0  0  0  0  0  0  0  0  0  0
  133.0600  126.4630   74.1250 C   0  0  0  0  0  0  0  0  0  0  0  0
  132.1010  125.3780   73.8960 C   0  0  0  0  0  0  0  0  0  0  0  0
  132.3130  124.0960   74.4590 C   0  0  0  0  0  0  0  0  0  0  0  0
  133.5130  123.7760   75.3710 C   0  0  0  0  0  0  0  0  0  0  0  0
  134.6460  124.3480   74.9580 F   0  0  0  0  0  0  0  0  0  0  0  0
  133.2720  124.2090   76.6090 F   0  0  0  0  0  0  0  0  0  0  0  0
  133.7230  122.4590   75.4060 F   0  0  0  0  0  0  0  0  0  0  0  0
  131.3960  123.0750   74.1660 C   0  0  0  0  0  0  0  0  0  0  0  0
  130.3000  123.3270   73.3340 C   0  0  0  0  0  0  0  0  0  0  0  0
  129.3010  122.2690   72.9740 C   0  0  0  0  0  0  0  0  0  0  0  0
  129.1020  121.8950   71.6350 C   0  0  0  0  0  0  0  0  0  0  0  0
  128.1780  120.9110   71.2940 C   0  0  0  0  0  0  0  0  0  0  0  0
  127.4370  120.2860   72.2910 C   0  0  0  0  0  0  0  0  0  0  0  0
  127.6160  120.6350   73.6260 C   0  0  0  0  0  0  0  0  0  0  0  0
  128.5430  121.6190   73.9620 C   0  0  0  0  0  0  0  0  0  0  0  0
  130.1030  124.5560   72.7940 N   0  0  0  0  0  0  0  0  0  0  0  0
  130.9620  125.5640   73.0800 C   0  0  0  0  0  0  0  0  0  0  0  0
  130.5310  127.1030   72.2940 S   0  0  0  0  0  0  0  0  0  0  0  0
  128.7200  127.1750   72.1510 C   0  0  0  0  0  0  0  0  0  0  0  0
  128.1410  128.3960   72.8650 C   0  0  0  0  0  0  0  0  0  0  0  0
  128.7410  129.4690   72.7980 O   0  0  0  0  0  0  0  0  0  0  0  0
  126.9870  128.1820   73.5340 N   0  0  0  0  0  0  0  0  0  0  0  0
  126.2090  129.0790   74.2920 C   0  0  0  0  0  0  0  0  0  0  0  0
  126.6490  130.3090   74.8140 C   0  0  0  0  0  0  0  0  0  0  0  0
  125.7660  131.1010   75.5520 C   0  0  0  0  0  0  0  0  0  0  0  0
  124.4630  130.6430   75.7510 C   0  0  0  0  0  0  0  0  0  0  0  0
  124.0150  129.4620   75.2580 N   0  0  0  0  0  0  0  0  0  0  0  0
  124.8840  128.7040   74.5420 C   0  0  0  0  0  0  0  0  0  0  0  0
  1  2  3  0
  2  3  1  0
  3  4  2  0
  4  5  1  0
  5  6  1  0
  5  7  1  0
  5  8  1  0
  4  9  1  0
  9 10  2  0
 10 11  1  0
 11 12  2  0
 12 13  1  0
 13 14  2  0
 14 15  1  0
 15 16  2  0
 10 17  1  0
 17 18  2  0
 18 19  1  0
 19 20  1  0
 20 21  1  0
 21 22  2  0
 21 23  1  0
 23 24  1  0
 24 25  2  0
 25 26  1  0
 26 27  2  0
 27 28  1  0
 28 29  2  0
 18  3  1  0
 29 24  1  0
 16 11  1  0
M  END
>  <Binding energies>  (15) 
[-9.13]

>  <Ligand effiencies>  (15) 
[-0.30433333333333334]

>  <Interactions>  (15) 
["V-A:LYS:471:CE:4218, H-B:GLY:544:O:9885, V-B:HIS:456:CA:9035, V-B:VAL:458:CG2:9059, V-A:HIS:456:CB:4063, V-A:HIS:456:CD2:4066, V-B:LYS:471:CD:9191, V-B:GLY:544:C:9884, V-A:VAL:458:CG2:4085, V-A:HIS:456:CG:4064, V-A:HIS:456:C:4059, V-A:VAL:457:C:4071, V-B:LYS:471:CE:9192, V-A:LYS:471:CG:4216, V-B:HIS:456:C:9033, V-B:HIS:456:CD2:9040, V-A:LYS:547:CE:4948, V-B:LYS:471:CG:9190, H-A:LYS:547:NZ:4949, V-A:ASP:473:CG:4238, V-A:LYS:471:CD:4217, V-B:HIS:456:CG:9038, V-B:HIS:456:CB:9037, V-A:HIS:456:CA:4061, H-B:LYS:547:NZ:9923, V-A:VAL:457:CA:4073, H-B:VAL:458:N:9056, V-B:ASP:473:CG:9212, V-B:LYS:547:CE:9922, V-B:GLY:544:CA:9886, V-B:GLU:543:C:9874, V-A:TYR:484:CG:4340, V-A:TYR:484:CB:4339, V-B:GLU:543:CA:9876, V-A:TYR:484:CD1:4341, V-A:ASP:473:CB:4237, V-A:LYS:547:CD:4947, H-B:VAL:457:N:9048"]

$$$$
3ag_Grossjean_2025
     RDKit          3D

 30 32  0  0  0  0  0  0  0  0999 V2000
  126.7060  123.4980   61.5590 N   0  0  0  0  0  0  0  0  0  0  0  0
  126.8180  124.2620   60.6970 C   0  0  0  0  0  0  0  0  0  0  0  0
  126.9630  125.2310   59.6070 C   0  0  0  0  0  0  0  0  0  0  0  0
  128.0300  126.1620   59.6030 C   0  0  0  0  0  0  0  0  0  0  0  0
  129.1220  126.1810   60.6900 C   0  0  0  0  0  0  0  0  0  0  0  0
  130.1200  127.0200   60.4070 F   0  0  0  0  0  0  0  0  0  0  0  0
  128.5950  126.5600   61.8550 F   0  0  0  0  0  0  0  0  0  0  0  0
  129.6520  124.9650   60.8300 F   0  0  0  0  0  0  0  0  0  0  0  0
  128.0940  127.1050   58.5650 C   0  0  0  0  0  0  0  0  0  0  0  0
  127.1140  127.1250   57.5670 C   0  0  0  0  0  0  0  0  0  0  0  0
  127.1320  128.1100   56.4370 C   0  0  0  0  0  0  0  0  0  0  0  0
  128.1180  128.0400   55.4410 C   0  0  0  0  0  0  0  0  0  0  0  0
  128.1410  128.9510   54.3890 C   0  0  0  0  0  0  0  0  0  0  0  0
  127.1740  129.9500   54.3190 C   0  0  0  0  0  0  0  0  0  0  0  0
  126.1880  130.0430   55.2960 C   0  0  0  0  0  0  0  0  0  0  0  0
  126.1690  129.1300   56.3470 C   0  0  0  0  0  0  0  0  0  0  0  0
  126.1000  126.2220   57.5670 N   0  0  0  0  0  0  0  0  0  0  0  0
  126.0290  125.2900   58.5480 C   0  0  0  0  0  0  0  0  0  0  0  0
  124.6390  124.1920   58.3860 S   0  0  0  0  0  0  0  0  0  0  0  0
  124.4100  123.8650   56.6130 C   0  0  0  0  0  0  0  0  0  0  0  0
  125.7300  123.5500   55.9080 C   0  0  0  0  0  0  0  0  0  0  0  0
  126.1260  122.3850   55.8360 O   0  0  0  0  0  0  0  0  0  0  0  0
  126.3950  124.5970   55.3890 N   0  0  0  0  0  0  0  0  0  0  0  0
  127.6520  124.5200   54.6460 C   0  0  0  0  0  0  0  0  0  0  0  0
  128.8970  124.6600   55.5150 C   0  0  0  0  0  0  0  0  0  0  0  0
  129.9930  125.3890   55.0450 C   0  0  0  0  0  0  0  0  0  0  0  0
  131.1210  125.5440   55.8470 C   0  0  0  0  0  0  0  0  0  0  0  0
  131.1450  124.9780   57.1200 C   0  0  0  0  0  0  0  0  0  0  0  0
  130.0500  124.2630   57.6010 C   0  0  0  0  0  0  0  0  0  0  0  0
  128.9220  124.1080   56.7990 C   0  0  0  0  0  0  0  0  0  0  0  0
  1  2  3  0
  2  3  1  0
  3  4  2  0
  4  5  1  0
  5  6  1  0
  5  7  1  0
  5  8  1  0
  4  9  1  0
  9 10  2  0
 10 11  1  0
 11 12  2  0
 12 13  1  0
 13 14  2  0
 14 15  1  0
 15 16  2  0
 10 17  1  0
 17 18  2  0
 18 19  1  0
 19 20  1  0
 20 21  1  0
 21 22  2  0
 21 23  1  0
 23 24  1  0
 24 25  1  0
 25 26  2  0
 26 27  1  0
 27 28  2  0
 28 29  1  0
 29 30  2  0
 18  3  1  0
 30 25  1  0
 16 11  1  0
M  END
>  <Binding energies>  (16) 
[-7.13]

>  <Ligand effiencies>  (16) 
[-0.23]

>  <Interactions>  (16) 
["V-B:TYR:539:CZ:9849, V-B:PRO:540:CB:9857, H-B:ALA:541:N:9863, V-B:TYR:539:CE2:9848, V-B:TYR:539:CE1:9847, V-B:MET:535:CE:9807, V-A:TYR:539:CE1:4873, V-A:TYR:539:CZ:4875, V-B:TYR:531:CE2:9765, V-B:TYR:531:CZ:9766, H-B:TYR:539:N:9842, V-B:GLU:543:CD:9880, H-B:TYR:531:OH:9767, V-B:ILE:538:CG2:9835, V-B:ILE:538:CB:9834, V-B:TYR:531:CE1:9764"]

$$$$
3bc_Grossjean_2025
     RDKit          3D

 28 30  0  0  0  0  0  0  0  0999 V2000
  131.6460  132.1230   56.0320 C   0  0  0  0  0  0  0  0  0  0  0  0
  130.2380  132.2670   55.8760 O   0  0  0  0  0  0  0  0  0  0  0  0
  129.4620  131.1370   55.6950 C   0  0  0  0  0  0  0  0  0  0  0  0
  130.1390  129.9670   55.3520 C   0  0  0  0  0  0  0  0  0  0  0  0
  129.4430  128.7780   55.1490 C   0  0  0  0  0  0  0  0  0  0  0  0
  128.0530  128.7470   55.2790 C   0  0  0  0  0  0  0  0  0  0  0  0
  127.4380  127.4990   55.0670 N   0  0  0  0  0  0  0  0  0  0  0  0
  127.7650  126.2910   55.5740 C   0  0  0  0  0  0  0  0  0  0  0  0
  128.6800  126.0900   56.3750 O   0  0  0  0  0  0  0  0  0  0  0  0
  126.8670  125.1360   55.1080 C   0  0  0  0  0  0  0  0  0  0  0  0
  127.4300  123.4700   55.5980 S   0  0  0  0  0  0  0  0  0  0  0  0
  127.4590  123.4060   57.3750 C   0  0  0  0  0  0  0  0  0  0  0  0
  128.6600  123.0430   57.8890 N   0  0  0  0  0  0  0  0  0  0  0  0
  128.8220  122.9560   59.2350 C   0  0  0  0  0  0  0  0  0  0  0  0
  130.1750  122.5270   59.7210 C   0  0  0  0  0  0  0  0  0  0  0  0
  130.3530  121.2770   60.3330 C   0  0  0  0  0  0  0  0  0  0  0  0
  131.6060  120.8720   60.7860 C   0  0  0  0  0  0  0  0  0  0  0  0
  132.7000  121.7160   60.6340 C   0  0  0  0  0  0  0  0  0  0  0  0
  132.5510  122.9620   60.0340 C   0  0  0  0  0  0  0  0  0  0  0  0
  131.2960  123.3630   59.5830 C   0  0  0  0  0  0  0  0  0  0  0  0
  127.7650  123.2370   60.1060 C   0  0  0  0  0  0  0  0  0  0  0  0
  126.5250  123.6360   59.5930 C   0  0  0  0  0  0  0  0  0  0  0  0
  125.4030  123.9500   60.5820 C   0  0  0  0  0  0  0  0  0  0  0  0
  126.3560  123.7380   58.1950 C   0  0  0  0  0  0  0  0  0  0  0  0
  125.0840  124.2000   57.6380 C   0  0  0  0  0  0  0  0  0  0  0  0
  124.0770  124.5660   57.2000 N   0  0  0  0  0  0  0  0  0  0  0  0
  127.3660  129.9160   55.6370 C   0  0  0  0  0  0  0  0  0  0  0  0
  128.0670  131.1030   55.8390 C   0  0  0  0  0  0  0  0  0  0  0  0
  1  2  1  0
  2  3  1  0
  3  4  2  0
  4  5  1  0
  5  6  2  0
  6  7  1  0
  7  8  1  0
  8  9  2  0
  8 10  1  0
 10 11  1  0
 11 12  1  0
 12 13  2  0
 13 14  1  0
 14 15  1  0
 15 16  2  0
 16 17  1  0
 17 18  2  0
 18 19  1  0
 19 20  2  0
 14 21  2  0
 21 22  1  0
 22 23  1  0
 22 24  2  0
 24 25  1  0
 25 26  3  0
  6 27  1  0
 27 28  2  0
 28  3  1  0
 24 12  1  0
 20 15  1  0
M  END
>  <Binding energies>  (17) 
[-8.14]

>  <Ligand effiencies>  (17) 
[-0.2806896551724138]

>  <Interactions>  (17) 
["V-B:PRO:540:N:9856, V-B:ALA:541:CB:9864, V-B:PRO:540:CB:9857, V-B:PRO:540:CA:9855, V-B:PRO:540:C:9853, V-B:TYR:539:CE2:9848, V-A:LEU:475:CD2:4257, V-B:TYR:539:CD2:9846, V-A:TYR:539:CE1:4873, V-A:PRO:540:N:4882, H-A:TYR:539:N:4868, V-A:ILE:538:CA:4858, V-A:TYR:539:CZ:4875, V-A:ILE:538:CB:4860, V-A:ILE:538:CG2:4861, V-A:TYR:531:CZ:4792, V-B:TYR:531:CZ:9766, H-B:TYR:539:N:9842, H-B:MET:535:SD:9806, H-B:TYR:531:OH:9767, V-B:TYR:539:C:9839, V-A:PRO:540:CD:4885, V-A:TYR:539:CE2:4874, V-B:MET:535:CG:9805"]

$$$$
3bd_Grossjean_2025
     RDKit          3D

 26 28  0  0  0  0  0  0  0  0999 V2000
  133.3570  123.3220   75.2380 C   0  0  0  0  0  0  0  0  0  0  0  0
  132.1860  123.7490   74.3550 C   0  0  0  0  0  0  0  0  0  0  0  0
  131.2320  122.7850   74.0090 C   0  0  0  0  0  0  0  0  0  0  0  0
  130.1460  123.1360   73.1980 C   0  0  0  0  0  0  0  0  0  0  0  0
  129.0870  122.1540   72.7940 C   0  0  0  0  0  0  0  0  0  0  0  0
  129.0000  121.6960   71.4700 C   0  0  0  0  0  0  0  0  0  0  0  0
  128.0180  120.7860   71.0870 C   0  0  0  0  0  0  0  0  0  0  0  0
  127.1050  120.3200   72.0280 C   0  0  0  0  0  0  0  0  0  0  0  0
  127.1670  120.7600   73.3460 C   0  0  0  0  0  0  0  0  0  0  0  0
  128.1500  121.6700   73.7240 C   0  0  0  0  0  0  0  0  0  0  0  0
  129.9950  124.4090   72.7510 N   0  0  0  0  0  0  0  0  0  0  0  0
  130.9110  125.3570   73.0750 C   0  0  0  0  0  0  0  0  0  0  0  0
  130.6050  126.9870   72.4150 S   0  0  0  0  0  0  0  0  0  0  0  0
  128.8200  127.1440   72.1060 C   0  0  0  0  0  0  0  0  0  0  0  0
  128.2160  128.3440   72.8370 C   0  0  0  0  0  0  0  0  0  0  0  0
  128.7970  129.4280   72.7890 O   0  0  0  0  0  0  0  0  0  0  0  0
  127.0670  128.1040   73.5050 N   0  0  0  0  0  0  0  0  0  0  0  0
  126.2670  128.9990   74.2410 C   0  0  0  0  0  0  0  0  0  0  0  0
  126.8760  130.1970   74.6220 C   0  0  0  0  0  0  0  0  0  0  0  0
  126.1670  131.1410   75.3600 C   0  0  0  0  0  0  0  0  0  0  0  0
  124.8490  130.8820   75.7260 C   0  0  0  0  0  0  0  0  0  0  0  0
  124.2350  129.6850   75.3650 C   0  0  0  0  0  0  0  0  0  0  0  0
  124.9420  128.7400   74.6260 C   0  0  0  0  0  0  0  0  0  0  0  0
  132.0340  125.0700   73.8810 C   0  0  0  0  0  0  0  0  0  0  0  0
  133.0150  126.1030   74.2270 C   0  0  0  0  0  0  0  0  0  0  0  0
  133.7890  126.9180   74.5010 N   0  0  0  0  0  0  0  0  0  0  0  0
  1  2  1  0
  2  3  2  0
  3  4  1  0
  4  5  1  0
  5  6  2  0
  6  7  1  0
  7  8  2  0
  8  9  1  0
  9 10  2  0
  4 11  2  0
 11 12  1  0
 12 13  1  0
 13 14  1  0
 14 15  1  0
 15 16  2  0
 15 17  1  0
 17 18  1  0
 18 19  2  0
 19 20  1  0
 20 21  2  0
 21 22  1  0
 22 23  2  0
 12 24  2  0
 24 25  1  0
 25 26  3  0
 24  2  1  0
 10  5  1  0
 23 18  1  0
M  END
>  <Binding energies>  (18) 
[-9.82]

>  <Ligand effiencies>  (18) 
[-0.3637037037037037]

>  <Interactions>  (18) 
["V-A:LYS:471:CE:4218, H-B:GLY:544:O:9885, V-B:HIS:456:CA:9035, V-B:VAL:458:CG2:9059, V-B:VAL:457:C:9045, V-A:HIS:456:CB:4063, V-A:HIS:456:CD2:4066, V-B:LYS:471:CD:9191, V-B:GLY:544:C:9884, V-A:VAL:458:CG2:4085, V-A:HIS:456:CG:4064, V-A:HIS:456:C:4059, V-B:LYS:471:CE:9192, V-A:LYS:471:CG:4216, V-B:HIS:456:C:9033, V-B:HIS:456:CD2:9040, V-A:LYS:547:CE:4948, V-B:LYS:471:CG:9190, V-B:VAL:457:CA:9047, H-A:LYS:547:NZ:4949, V-A:ASP:473:CG:4238, V-A:LYS:471:CD:4217, V-B:HIS:456:CG:9038, V-B:HIS:456:CB:9037, H-B:LYS:547:NZ:9923, V-B:ASP:473:CG:9212, V-B:LYS:547:CE:9922, V-B:GLY:544:CA:9886, V-B:GLU:543:C:9874, V-A:TYR:484:CG:4340, V-A:TYR:484:CB:4339, V-B:GLU:543:CA:9876, V-A:TYR:484:CD1:4341"]

$$$$
3be_Grossjean_2025
     RDKit          3D

 27 29  0  0  0  0  0  0  0  0999 V2000
  126.4090  131.7440   75.3550 C   0  0  0  0  0  0  0  0  0  0  0  0
  126.1890  130.2880   74.9940 C   0  0  0  0  0  0  0  0  0  0  0  0
  125.0000  129.6280   75.3090 C   0  0  0  0  0  0  0  0  0  0  0  0
  124.8690  128.2860   74.9490 C   0  0  0  0  0  0  0  0  0  0  0  0
  125.9190  127.6440   74.2880 C   0  0  0  0  0  0  0  0  0  0  0  0
  127.0830  128.3650   73.9990 C   0  0  0  0  0  0  0  0  0  0  0  0
  128.1080  127.6600   73.3420 N   0  0  0  0  0  0  0  0  0  0  0  0
  128.2580  127.4230   72.0200 C   0  0  0  0  0  0  0  0  0  0  0  0
  127.4760  127.8040   71.1470 O   0  0  0  0  0  0  0  0  0  0  0  0
  129.5150  126.6180   71.6510 C   0  0  0  0  0  0  0  0  0  0  0  0
  130.9590  126.8940   72.7320 S   0  0  0  0  0  0  0  0  0  0  0  0
  131.4390  125.3270   73.4240 C   0  0  0  0  0  0  0  0  0  0  0  0
  130.5790  124.3190   73.1360 N   0  0  0  0  0  0  0  0  0  0  0  0
  130.8250  123.0650   73.5980 C   0  0  0  0  0  0  0  0  0  0  0  0
  129.8170  122.0110   73.2460 C   0  0  0  0  0  0  0  0  0  0  0  0
  129.4680  121.0140   74.1720 C   0  0  0  0  0  0  0  0  0  0  0  0
  128.5360  120.0320   73.8510 C   0  0  0  0  0  0  0  0  0  0  0  0
  127.9380  120.0320   72.5950 C   0  0  0  0  0  0  0  0  0  0  0  0
  128.2670  121.0060   71.6590 C   0  0  0  0  0  0  0  0  0  0  0  0
  129.2010  121.9870   71.9840 C   0  0  0  0  0  0  0  0  0  0  0  0
  131.9570  122.7960   74.3750 C   0  0  0  0  0  0  0  0  0  0  0  0
  132.8670  123.8190   74.6610 C   0  0  0  0  0  0  0  0  0  0  0  0
  134.0980  123.4750   75.4980 C   0  0  0  0  0  0  0  0  0  0  0  0
  132.6210  125.1200   74.1710 C   0  0  0  0  0  0  0  0  0  0  0  0
  133.5880  126.1930   74.4120 C   0  0  0  0  0  0  0  0  0  0  0  0
  134.3540  127.0390   74.6040 N   0  0  0  0  0  0  0  0  0  0  0  0
  127.2180  129.6780   74.3520 N   0  0  0  0  0  0  0  0  0  0  0  0
  1  2  1  0
  2  3  2  0
  3  4  1  0
  4  5  2  0
  5  6  1  0
  6  7  1  0
  7  8  1  0
  8  9  2  0
  8 10  1  0
 10 11  1  0
 11 12  1  0
 12 13  2  0
 13 14  1  0
 14 15  1  0
 15 16  2  0
 16 17  1  0
 17 18  2  0
 18 19  1  0
 19 20  2  0
 14 21  2  0
 21 22  1  0
 22 23  1  0
 22 24  2  0
 24 25  1  0
 25 26  3  0
  6 27  2  0
 27  2  1  0
 24 12  1  0
 20 15  1  0
M  END
>  <Binding energies>  (19) 
[-8.91]

>  <Ligand effiencies>  (19) 
[-0.3182142857142857]

>  <Interactions>  (19) 
["V-A:LYS:471:CE:4218, V-B:VAL:458:CG2:9059, V-B:VAL:457:C:9045, V-A:HIS:456:CB:4063, V-A:HIS:456:CD2:4066, V-B:LYS:471:CD:9191, V-B:GLY:544:C:9884, V-A:VAL:458:CG2:4085, V-A:HIS:456:CG:4064, V-A:HIS:456:C:4059, V-B:LYS:471:CE:9192, V-A:LYS:471:CG:4216, V-B:HIS:456:C:9033, H-A:LYS:547:NZ:4949, V-A:ASP:473:CG:4238, V-A:LYS:471:CD:4217, V-B:HIS:456:CB:9037, H-B:LYS:547:NZ:9923, V-B:ASP:473:CG:9212, V-B:LYS:547:CE:9922, V-B:GLY:544:CA:9886, V-B:GLU:543:C:9874, V-A:TYR:484:CG:4340, V-A:TYR:484:CB:4339, V-B:LYS:547:CG:9920, V-B:LYS:547:CD:9921, H-B:HIS:456:ND1:9039"]

$$$$
3bf_Grossjean_2025
     RDKit          3D

 26 28  0  0  0  0  0  0  0  0999 V2000
  126.9550  132.2780   60.1180 C   0  0  0  0  0  0  0  0  0  0  0  0
  127.5560  131.7050   58.8360 C   0  0  0  0  0  0  0  0  0  0  0  0
  128.9270  131.8710   58.6190 C   0  0  0  0  0  0  0  0  0  0  0  0
  129.5210  131.3480   57.4650 C   0  0  0  0  0  0  0  0  0  0  0  0
  130.9890  131.4720   57.1840 C   0  0  0  0  0  0  0  0  0  0  0  0
  131.4430  132.0660   55.9960 C   0  0  0  0  0  0  0  0  0  0  0  0
  132.8040  132.1840   55.7280 C   0  0  0  0  0  0  0  0  0  0  0  0
  133.7320  131.7080   56.6490 C   0  0  0  0  0  0  0  0  0  0  0  0
  133.3080  131.1150   57.8330 C   0  0  0  0  0  0  0  0  0  0  0  0
  131.9460  130.9970   58.0960 C   0  0  0  0  0  0  0  0  0  0  0  0
  128.7810  130.6760   56.5430 N   0  0  0  0  0  0  0  0  0  0  0  0
  127.4460  130.5290   56.7270 C   0  0  0  0  0  0  0  0  0  0  0  0
  126.6410  129.6310   55.4180 S   0  0  0  0  0  0  0  0  0  0  0  0
  127.9290  128.8060   54.4220 C   0  0  0  0  0  0  0  0  0  0  0  0
  128.4260  127.4650   54.9810 C   0  0  0  0  0  0  0  0  0  0  0  0
  129.6280  127.2700   55.1730 O   0  0  0  0  0  0  0  0  0  0  0  0
  127.4500  126.5730   55.2550 N   0  0  0  0  0  0  0  0  0  0  0  0
  127.5660  125.2640   55.7600 C   0  0  0  0  0  0  0  0  0  0  0  0
  128.5110  125.0510   56.7690 C   0  0  0  0  0  0  0  0  0  0  0  0
  128.6640  123.7770   57.3210 C   0  0  0  0  0  0  0  0  0  0  0  0
  127.8560  122.7440   56.8460 C   0  0  0  0  0  0  0  0  0  0  0  0
  126.9240  122.9240   55.8770 N   0  0  0  0  0  0  0  0  0  0  0  0
  126.7860  124.1680   55.3500 C   0  0  0  0  0  0  0  0  0  0  0  0
  126.7840  131.0140   57.8770 C   0  0  0  0  0  0  0  0  0  0  0  0
  125.3550  130.7850   58.1080 C   0  0  0  0  0  0  0  0  0  0  0  0
  124.2260  130.6070   58.2920 N   0  0  0  0  0  0  0  0  0  0  0  0
  1  2  1  0
  2  3  2  0
  3  4  1  0
  4  5  1  0
  5  6  2  0
  6  7  1  0
  7  8  2  0
  8  9  1  0
  9 10  2  0
  4 11  2  0
 11 12  1  0
 12 13  1  0
 13 14  1  0
 14 15  1  0
 15 16  2  0
 15 17  1  0
 17 18  1  0
 18 19  2  0
 19 20  1  0
 20 21  2  0
 21 22  1  0
 22 23  2  0
 12 24  2  0
 24 25  1  0
 25 26  3  0
 24  2  1  0
 10  5  1  0
 23 18  1  0
M  END
>  <Binding energies>  (20) 
[-8.4]

>  <Ligand effiencies>  (20) 
[-0.3111111111111111]

>  <Interactions>  (20) 
["V-B:PRO:540:N:9856, V-B:TYR:539:CE2:9848, V-B:TYR:539:CD1:9845, V-B:TYR:539:CD2:9846, V-B:MET:535:CE:9807, V-A:PRO:540:N:4882, V-A:ILE:538:CA:4858, V-A:TYR:539:CZ:4875, V-A:TYR:531:CE2:4791, V-A:LEU:363:CA:3183, H-A:TYR:531:OH:4793, V-A:TYR:539:C:4865, V-A:LEU:363:CD1:3187, V-A:ILE:538:CB:4860, V-A:PRO:540:CA:4881, V-A:ILE:538:CG2:4861, V-A:PRO:540:CB:4883, H-B:TYR:539:N:9842, H-B:MET:535:SD:9806, H-B:TYR:531:OH:9767, V-B:TYR:539:C:9839, V-A:LEU:363:CB:3185, V-A:PRO:540:CD:4885, V-A:TYR:539:CE2:4874, V-B:TYR:539:CG:9844, H-A:TYR:539:OH:4876, V-A:TYR:539:CD2:4872, V-B:TYR:539:CA:9841, V-A:PRO:540:CG:4884"]

$$$$
3bg_Grossjean_2025
     RDKit          3D

 27 29  0  0  0  0  0  0  0  0999 V2000
  131.7790  121.3240   60.1200 C   0  0  0  0  0  0  0  0  0  0  0  0
  130.9800  122.5600   59.7140 C   0  0  0  0  0  0  0  0  0  0  0  0
  129.6370  122.6340   60.0960 C   0  0  0  0  0  0  0  0  0  0  0  0
  128.8690  123.7540   59.7520 C   0  0  0  0  0  0  0  0  0  0  0  0
  127.4240  123.9020   60.1410 C   0  0  0  0  0  0  0  0  0  0  0  0
  126.4280  124.0950   59.1690 C   0  0  0  0  0  0  0  0  0  0  0  0
  125.0870  124.2140   59.5240 C   0  0  0  0  0  0  0  0  0  0  0  0
  124.7190  124.1440   60.8640 C   0  0  0  0  0  0  0  0  0  0  0  0
  125.6840  123.9650   61.8480 C   0  0  0  0  0  0  0  0  0  0  0  0
  127.0230  123.8490   61.4880 C   0  0  0  0  0  0  0  0  0  0  0  0
  129.4240  124.7850   59.0600 N   0  0  0  0  0  0  0  0  0  0  0  0
  130.7270  124.7310   58.6840 C   0  0  0  0  0  0  0  0  0  0  0  0
  131.3410  126.1640   57.8120 S   0  0  0  0  0  0  0  0  0  0  0  0
  132.0240  125.6110   56.2150 C   0  0  0  0  0  0  0  0  0  0  0  0
  130.9940  125.7190   55.0860 C   0  0  0  0  0  0  0  0  0  0  0  0
  130.8410  126.7890   54.4960 O   0  0  0  0  0  0  0  0  0  0  0  0
  130.2820  124.6110   54.8180 N   0  0  0  0  0  0  0  0  0  0  0  0
  129.1320  124.5380   53.9170 C   0  0  0  0  0  0  0  0  0  0  0  0
  127.8810  124.0450   54.6340 C   0  0  0  0  0  0  0  0  0  0  0  0
  127.9960  123.3250   55.8280 C   0  0  0  0  0  0  0  0  0  0  0  0
  126.8550  122.8660   56.4780 C   0  0  0  0  0  0  0  0  0  0  0  0
  125.5980  123.1380   55.9400 C   0  0  0  0  0  0  0  0  0  0  0  0
  125.4740  123.8720   54.7620 C   0  0  0  0  0  0  0  0  0  0  0  0
  126.6170  124.3300   54.1120 C   0  0  0  0  0  0  0  0  0  0  0  0
  131.5490  123.6250   58.9840 C   0  0  0  0  0  0  0  0  0  0  0  0
  132.9550  123.5800   58.5760 C   0  0  0  0  0  0  0  0  0  0  0  0
  134.0660  123.5430   58.2550 N   0  0  0  0  0  0  0  0  0  0  0  0
  1  2  1  0
  2  3  2  0
  3  4  1  0
  4  5  1  0
  5  6  2  0
  6  7  1  0
  7  8  2  0
  8  9  1  0
  9 10  2  0
  4 11  2  0
 11 12  1  0
 12 13  1  0
 13 14  1  0
 14 15  1  0
 15 16  2  0
 15 17  1  0
 17 18  1  0
 18 19  1  0
 19 20  2  0
 20 21  1  0
 21 22  2  0
 22 23  1  0
 23 24  2  0
 12 25  2  0
 25 26  1  0
 26 27  3  0
 25  2  1  0
 10  5  1  0
 24 19  1  0
M  END
>  <Binding energies>  (21) 
[-8.45]

>  <Ligand effiencies>  (21) 
[-0.30178571428571427]

>  <Interactions>  (21) 
["V-B:PRO:540:N:9856, V-B:TYR:539:CZ:9849, V-B:ILE:538:CA:9832, V-B:PRO:540:CB:9857, V-B:PRO:540:CA:9855, V-B:TYR:539:CE2:9848, V-A:LEU:475:CD2:4257, V-B:TYR:539:CE1:9847, V-B:TYR:539:CD1:9845, V-B:TYR:539:CD2:9846, H-A:TYR:531:OH:4793, V-A:ASP:366:CB:3210, V-A:TYR:531:CZ:4792, V-B:TYR:531:CE2:9765, V-B:TYR:531:CZ:9766, V-B:ASN:362:CB:8148, V-B:GLU:543:CD:9880, V-B:TYR:539:C:9839, V-B:ILE:538:CG2:9835, V-B:PRO:540:CD:9859, V-B:ILE:538:CB:9834, V-B:TYR:539:CG:9844, H-B:TYR:539:OH:9850, V-A:ILE:369:CG2:3235, V-A:TYR:531:CE1:4790, V-B:TYR:539:CA:9841, V-B:MET:535:CG:9805, V-B:MET:535:CB:9804"]

$$$$
3ca_Grossjean_2025
     RDKit          3D

 31 33  0  0  0  0  0  0  0  0999 V2000
  123.5770  123.5380   57.0290 C   0  0  0  0  0  0  0  0  0  0  0  0
  124.5710  123.4450   55.8680 C   0  0  0  0  0  0  0  0  0  0  0  0
  125.6570  122.6060   56.2410 O   0  0  0  0  0  0  0  0  0  0  0  0
  126.8620  123.1280   56.5820 C   0  0  0  0  0  0  0  0  0  0  0  0
  127.9330  122.7400   56.1040 O   0  0  0  0  0  0  0  0  0  0  0  0
  126.7650  124.2330   57.5950 C   0  0  0  0  0  0  0  0  0  0  0  0
  126.7610  125.5640   57.1590 C   0  0  0  0  0  0  0  0  0  0  0  0
  126.6720  126.6090   58.0740 C   0  0  0  0  0  0  0  0  0  0  0  0
  126.5940  126.3470   59.4420 C   0  0  0  0  0  0  0  0  0  0  0  0
  126.5060  127.4760   60.2790 N   0  0  0  0  0  0  0  0  0  0  0  0
  127.4910  128.2290   60.8150 C   0  0  0  0  0  0  0  0  0  0  0  0
  128.6960  128.0580   60.6380 O   0  0  0  0  0  0  0  0  0  0  0  0
  127.0190  129.3940   61.6920 C   0  0  0  0  0  0  0  0  0  0  0  0
  126.7440  130.9330   60.7540 S   0  0  0  0  0  0  0  0  0  0  0  0
  127.5290  130.8160   59.1520 C   0  0  0  0  0  0  0  0  0  0  0  0
  126.7300  130.4050   58.1350 N   0  0  0  0  0  0  0  0  0  0  0  0
  127.2510  130.3130   56.8920 C   0  0  0  0  0  0  0  0  0  0  0  0
  126.2910  129.8650   55.8070 C   0  0  0  0  0  0  0  0  0  0  0  0
  128.5830  130.6090   56.6140 C   0  0  0  0  0  0  0  0  0  0  0  0
  129.4330  131.0180   57.6500 C   0  0  0  0  0  0  0  0  0  0  0  0
  130.8570  131.3120   57.3070 C   0  0  0  0  0  0  0  0  0  0  0  0
  131.1610  132.1510   56.2280 C   0  0  0  0  0  0  0  0  0  0  0  0
  132.4860  132.4230   55.8950 C   0  0  0  0  0  0  0  0  0  0  0  0
  133.5140  131.8510   56.6400 C   0  0  0  0  0  0  0  0  0  0  0  0
  133.2290  131.0090   57.7110 C   0  0  0  0  0  0  0  0  0  0  0  0
  131.9030  130.7390   58.0410 C   0  0  0  0  0  0  0  0  0  0  0  0
  128.8940  131.1350   58.9570 C   0  0  0  0  0  0  0  0  0  0  0  0
  129.7220  131.6080   60.0710 C   0  0  0  0  0  0  0  0  0  0  0  0
  130.3760  131.9810   60.9500 N   0  0  0  0  0  0  0  0  0  0  0  0
  126.5890  125.0160   59.8880 C   0  0  0  0  0  0  0  0  0  0  0  0
  126.6760  123.9720   58.9710 C   0  0  0  0  0  0  0  0  0  0  0  0
  1  2  1  0
  2  3  1  0
  3  4  1  0
  4  5  2  0
  4  6  1  0
  6  7  2  0
  7  8  1  0
  8  9  2  0
  9 10  1  0
 10 11  1  0
 11 12  2  0
 11 13  1  0
 13 14  1  0
 14 15  1  0
 15 16  2  0
 16 17  1  0
 17 18  1  0
 17 19  2  0
 19 20  1  0
 20 21  1  0
 21 22  2  0
 22 23  1  0
 23 24  2  0
 24 25  1  0
 25 26  2  0
 20 27  2  0
 27 28  1  0
 28 29  3  0
  9 30  1  0
 30 31  2  0
 31  6  1  0
 27 15  1  0
 26 21  1  0
M  END
>  <Binding energies>  (22) 
[-9.13]

>  <Ligand effiencies>  (22) 
[-0.2853125]

>  <Interactions>  (22) 
["V-B:PRO:540:N:9856, V-B:LEU:363:CA:8157, V-B:ASP:366:CG:8185, V-B:PRO:540:CB:9857, V-B:PRO:540:CA:9855, V-A:PRO:540:N:4882, V-A:ILE:538:CA:4858, V-A:TYR:539:CZ:4875, V-A:TYR:531:CE2:4791, V-A:LEU:363:CA:3183, V-A:TYR:539:C:4865, V-A:LEU:363:CD1:3187, V-A:ILE:538:CB:4860, V-A:PRO:540:CA:4881, V-A:ILE:538:CG2:4861, V-A:PRO:540:CB:4883, V-B:TYR:531:CE2:9765, V-B:LEU:363:CD1:8161, V-B:TYR:531:CZ:9766, H-B:TYR:539:N:9842, V-B:TYR:539:C:9839, V-B:ILE:538:CG2:9835, H-B:ASP:366:OD2:8187, V-B:PRO:540:CD:9859, V-B:ILE:538:CB:9834, V-B:PRO:540:CG:9858, H-A:ALA:541:N:4889, V-A:PRO:540:CD:4885, V-A:TYR:539:CE2:4874, V-A:PRO:540:CG:4884, H-B:ASP:366:OD1:8186, V-B:LEU:363:CB:8159"]

$$$$
3ce_Grossjean_2025
     RDKit          3D

 27 29  0  0  0  0  0  0  0  0999 V2000
  130.3170  121.2220   60.8300 C   0  0  0  0  0  0  0  0  0  0  0  0
  129.2480  122.1900   60.3610 C   0  0  0  0  0  0  0  0  0  0  0  0
  128.3890  122.8240   61.2630 C   0  0  0  0  0  0  0  0  0  0  0  0
  127.4360  123.7090   60.7610 C   0  0  0  0  0  0  0  0  0  0  0  0
  127.3630  123.9380   59.3850 C   0  0  0  0  0  0  0  0  0  0  0  0
  128.2470  123.2630   58.5360 C   0  0  0  0  0  0  0  0  0  0  0  0
  128.1410  123.5470   57.1640 N   0  0  0  0  0  0  0  0  0  0  0  0
  127.1910  123.1330   56.2960 C   0  0  0  0  0  0  0  0  0  0  0  0
  126.2310  122.4180   56.5870 O   0  0  0  0  0  0  0  0  0  0  0  0
  127.3540  123.6160   54.8560 C   0  0  0  0  0  0  0  0  0  0  0  0
  126.9130  125.3700   54.6740 S   0  0  0  0  0  0  0  0  0  0  0  0
  128.2330  126.2820   55.4390 C   0  0  0  0  0  0  0  0  0  0  0  0
  129.2830  125.5150   55.8230 N   0  0  0  0  0  0  0  0  0  0  0  0
  130.3470  126.1180   56.4010 C   0  0  0  0  0  0  0  0  0  0  0  0
  131.4920  125.2030   56.7930 C   0  0  0  0  0  0  0  0  0  0  0  0
  130.3990  127.4900   56.6280 C   0  0  0  0  0  0  0  0  0  0  0  0
  129.3130  128.2970   56.2630 C   0  0  0  0  0  0  0  0  0  0  0  0
  129.4050  129.7590   56.5500 C   0  0  0  0  0  0  0  0  0  0  0  0
  128.8790  130.2760   57.7410 C   0  0  0  0  0  0  0  0  0  0  0  0
  128.9560  131.6400   58.0130 C   0  0  0  0  0  0  0  0  0  0  0  0
  129.5530  132.4950   57.0910 C   0  0  0  0  0  0  0  0  0  0  0  0
  130.0720  131.9980   55.8980 C   0  0  0  0  0  0  0  0  0  0  0  0
  129.9950  130.6350   55.6290 C   0  0  0  0  0  0  0  0  0  0  0  0
  128.1950  127.6820   55.6450 C   0  0  0  0  0  0  0  0  0  0  0  0
  127.0350  128.4760   55.2270 C   0  0  0  0  0  0  0  0  0  0  0  0
  126.1210  129.1040   54.8980 N   0  0  0  0  0  0  0  0  0  0  0  0
  129.1880  122.4000   59.0210 N   0  0  0  0  0  0  0  0  0  0  0  0
  1  2  1  0
  2  3  2  0
  3  4  1  0
  4  5  2  0
  5  6  1  0
  6  7  1  0
  7  8  1  0
  8  9  2  0
  8 10  1  0
 10 11  1  0
 11 12  1  0
 12 13  2  0
 13 14  1  0
 14 15  1  0
 14 16  2  0
 16 17  1  0
 17 18  1  0
 18 19  2  0
 19 20  1  0
 20 21  2  0
 21 22  1  0
 22 23  2  0
 17 24  2  0
 24 25  1  0
 25 26  3  0
  6 27  2  0
 27  2  1  0
 24 12  1  0
 23 18  1  0
M  END
>  <Binding energies>  (23) 
[-7.78]

>  <Ligand effiencies>  (23) 
[-0.27785714285714286]

>  <Interactions>  (23) 
["V-B:PRO:540:N:9856, V-B:TYR:539:CZ:9849, V-B:ILE:538:CA:9832, V-B:ALA:541:CB:9864, V-B:PRO:540:CA:9855, V-B:ALA:541:CA:9862, V-B:TYR:539:CE2:9848, V-B:TYR:539:CD2:9846, V-A:PRO:540:N:4882, V-A:ILE:538:CA:4858, V-A:TYR:539:C:4865, V-A:PRO:540:CA:4881, H-B:TYR:539:N:9842, H-B:TYR:531:OH:9767, V-B:TYR:539:C:9839, V-A:TYR:539:CA:4867, V-A:TYR:539:CD1:4871, V-A:TYR:539:CD2:4872, V-A:TYR:539:CG:4870"]

$$$$
3cj_Grossjean_2025
     RDKit          3D

 25 27  0  0  0  0  0  0  0  0999 V2000
  129.4520  121.8350   60.7940 C   0  0  0  0  0  0  0  0  0  0  0  0
  129.7310  122.6750   59.5630 C   0  0  0  0  0  0  0  0  0  0  0  0
  128.8090  122.7720   58.5230 C   0  0  0  0  0  0  0  0  0  0  0  0
  129.0980  123.5780   57.4130 C   0  0  0  0  0  0  0  0  0  0  0  0
  128.0550  123.7040   56.3540 C   0  0  0  0  0  0  0  0  0  0  0  0
  128.3970  123.5910   55.0020 C   0  0  0  0  0  0  0  0  0  0  0  0
  127.4240  123.7220   54.0140 C   0  0  0  0  0  0  0  0  0  0  0  0
  126.1050  123.9730   54.3760 C   0  0  0  0  0  0  0  0  0  0  0  0
  125.7500  124.0970   55.7170 C   0  0  0  0  0  0  0  0  0  0  0  0
  126.7240  123.9650   56.7030 C   0  0  0  0  0  0  0  0  0  0  0  0
  130.3470  124.2460   57.3730 C   0  0  0  0  0  0  0  0  0  0  0  0
  130.7200  125.0810   56.2270 C   0  0  0  0  0  0  0  0  0  0  0  0
  131.0130  125.7410   55.3220 N   0  0  0  0  0  0  0  0  0  0  0  0
  131.2200  124.0940   58.4740 C   0  0  0  0  0  0  0  0  0  0  0  0
  132.7570  124.9820   58.6120 S   0  0  0  0  0  0  0  0  0  0  0  0
  133.8920  123.8230   59.4390 C   0  0  0  0  0  0  0  0  0  0  0  0
  133.5700  123.6750   60.9300 C   0  0  0  0  0  0  0  0  0  0  0  0
  133.6930  122.5740   61.4710 O   0  0  0  0  0  0  0  0  0  0  0  0
  133.2010  124.8120   61.5580 N   0  0  0  0  0  0  0  0  0  0  0  0
  132.9890  124.9750   62.9170 C   0  0  0  0  0  0  0  0  0  0  0  0
  133.8870  125.0040   63.8780 N   0  0  0  0  0  0  0  0  0  0  0  0
  133.3290  125.2080   65.0550 C   0  0  0  0  0  0  0  0  0  0  0  0
  131.9440  125.3470   65.0650 C   0  0  0  0  0  0  0  0  0  0  0  0
  131.3490  125.2010   63.4380 S   0  0  0  0  0  0  0  0  0  0  0  0
  130.9120  123.3310   59.5530 N   0  0  0  0  0  0  0  0  0  0  0  0
  1  2  1  0
  2  3  2  0
  3  4  1  0
  4  5  1  0
  5  6  2  0
  6  7  1  0
  7  8  2  0
  8  9  1  0
  9 10  2  0
  4 11  2  0
 11 12  1  0
 12 13  3  0
 11 14  1  0
 14 15  1  0
 15 16  1  0
 16 17  1  0
 17 18  2  0
 17 19  1  0
 19 20  1  0
 20 21  2  0
 21 22  1  0
 22 23  2  0
 23 24  1  0
 14 25  2  0
 25  2  1  0
 10  5  1  0
 24 20  1  0
M  END
>  <Binding energies>  (24) 
[-8.46]

>  <Ligand effiencies>  (24) 
[-0.32538461538461544]

>  <Interactions>  (24) 
["V-B:TYR:539:CZ:9849, V-B:ILE:538:CA:9832, V-B:ALA:541:CB:9864, V-B:TYR:539:CE2:9848, V-B:TYR:539:CE1:9847, V-B:TYR:539:CD1:9845, V-B:TYR:539:CD2:9846, V-A:ASP:366:CG:3211, H-A:TYR:531:OH:4793, V-B:TYR:531:CE2:9765, V-B:TYR:531:CZ:9766, V-B:TYR:539:C:9839, V-B:ILE:538:CG2:9835, V-B:ILE:538:CB:9834, V-A:ARG:545:CZ:4924, H-A:ASP:366:OD2:3213, V-A:ARG:545:CD:4921, H-A:TYR:484:OH:4346, H-A:ARG:545:NE:4922, H-A:GLY:454:N:4048, V-B:TYR:539:CG:9844, H-B:TYR:539:OH:9850, H-A:ARG:545:NH2:4926, H-A:ASP:366:OD1:3212, V-A:ILE:369:CB:3234, V-A:ILE:369:CG2:3235, V-A:ILE:369:CD1:3237, H-A:ARG:545:NH1:4925, V-A:ASP:366:CA:3208, V-A:HIS:456:CE1:4068, V-B:MET:535:CG:9805, V-B:MET:535:CB:9804, V-A:ARG:545:CG:4920"]

$$$$
4ba_Grossjean_2025
     RDKit          3D

 28 30  0  0  0  0  0  0  0  0999 V2000
  130.1080  127.2720   72.5830 C   0  0  0  0  0  0  0  0  0  0  0  0
  129.3780  128.4290   71.8750 C   0  0  0  0  0  0  0  0  0  0  0  0
  128.4300  128.0040   70.7350 C   0  0  0  0  0  0  0  0  0  0  0  0
  127.2120  128.0040   70.9260 O   0  0  0  0  0  0  0  0  0  0  0  0
  129.0480  127.6100   69.4250 C   0  0  0  0  0  0  0  0  0  0  0  0
  128.2220  127.2120   68.3660 C   0  0  0  0  0  0  0  0  0  0  0  0
  128.7680  126.8400   67.1420 C   0  0  0  0  0  0  0  0  0  0  0  0
  130.1500  126.8620   66.9470 C   0  0  0  0  0  0  0  0  0  0  0  0
  130.5950  126.4590   65.6730 N   0  0  0  0  0  0  0  0  0  0  0  0
  131.7220  125.7970   65.3130 C   0  0  0  0  0  0  0  0  0  0  0  0
  132.6090  125.4620   66.0990 O   0  0  0  0  0  0  0  0  0  0  0  0
  131.8480  125.5110   63.8820 C   0  0  0  0  0  0  0  0  0  0  0  0
  133.2440  124.6240   63.2750 S   0  0  0  0  0  0  0  0  0  0  0  0
  132.6750  124.7640   61.6280 C   0  0  0  0  0  0  0  0  0  0  0  0
  133.3620  124.2460   60.6110 N   0  0  0  0  0  0  0  0  0  0  0  0
  132.8230  124.4180   59.3820 C   0  0  0  0  0  0  0  0  0  0  0  0
  133.6260  123.8290   58.2360 C   0  0  0  0  0  0  0  0  0  0  0  0
  131.6230  125.0840   59.1500 C   0  0  0  0  0  0  0  0  0  0  0  0
  130.8940  125.6310   60.2180 C   0  0  0  0  0  0  0  0  0  0  0  0
  129.5780  126.3540   59.9130 C   0  0  0  0  0  0  0  0  0  0  0  0
  129.5610  127.6150   60.3480 F   0  0  0  0  0  0  0  0  0  0  0  0
  129.3720  126.3830   58.5960 F   0  0  0  0  0  0  0  0  0  0  0  0
  128.5660  125.7150   60.5020 F   0  0  0  0  0  0  0  0  0  0  0  0
  131.4390  125.4720   61.5270 C   0  0  0  0  0  0  0  0  0  0  0  0
  130.9960  125.8960   62.8330 C   0  0  0  0  0  0  0  0  0  0  0  0
  129.8400  126.6100   63.0270 N   0  0  0  0  0  0  0  0  0  0  0  0
  130.9850  127.2540   68.0040 C   0  0  0  0  0  0  0  0  0  0  0  0
  130.4370  127.6250   69.2290 C   0  0  0  0  0  0  0  0  0  0  0  0
  1  2  1  0
  2  3  1  0
  3  4  2  0
  3  5  1  0
  5  6  2  0
  6  7  1  0
  7  8  2  0
  8  9  1  0
  9 10  1  0
 10 11  2  0
 10 12  1  0
 12 13  1  0
 13 14  1  0
 14 15  2  0
 15 16  1  0
 16 17  1  0
 16 18  2  0
 18 19  1  0
 19 20  1  0
 20 21  1  0
 20 22  1  0
 20 23  1  0
 19 24  2  0
 24 25  1  0
 25 26  1  0
  8 27  1  0
 27 28  2  0
 28  5  1  0
 25 12  2  0
 24 14  1  0
M  END
>  <Binding energies>  (25) 
[-7.16]

>  <Ligand effiencies>  (25) 
[-0.2309677419354839]

>  <Interactions>  (25) 
["H-B:GLU:543:OE1:9881, V-B:TYR:539:CZ:9849, V-B:TYR:539:CE2:9848, V-A:ASP:366:CG:3211, V-A:ASP:366:CB:3210, V-A:GLU:543:CD:4906, V-B:GLU:543:CD:9880, H-B:GLU:543:OE2:9882, V-A:ARG:545:CZ:4924, H-A:GLU:543:OE2:4908, H-A:GLU:543:OE1:4907, V-A:ARG:545:CD:4921, H-A:TYR:484:OH:4346, H-A:ARG:545:NE:4922, V-A:ILE:369:CB:3234, V-A:ILE:369:CG2:3235, V-A:ASP:366:CA:3208, V-B:HIS:456:CE1:9042, V-B:HIS:456:CD2:9040, V-A:LYS:547:CE:4948, V-A:HIS:456:CE1:4068, V-A:GLY:544:C:4910, V-B:GLU:543:CG:9879, V-B:GLU:543:C:9874, V-A:ARG:545:CG:4920, V-A:GLU:543:CG:4905, V-B:GLU:543:CB:9878, V-A:GLY:544:CA:4912, V-A:GLU:543:C:4900, H-A:HIS:456:ND1:4065, H-B:HIS:456:ND1:9039"]

$$$$
4bb_Grossjean_2025
     RDKit          3D

 27 29  0  0  0  0  0  0  0  0999 V2000
  129.0120  128.6030   72.1800 C   0  0  0  0  0  0  0  0  0  0  0  0
  128.0840  128.0910   71.0760 C   0  0  0  0  0  0  0  0  0  0  0  0
  126.8760  128.0370   71.3120 O   0  0  0  0  0  0  0  0  0  0  0  0
  128.6940  127.6730   69.7710 C   0  0  0  0  0  0  0  0  0  0  0  0
  127.8600  127.3280   68.7010 C   0  0  0  0  0  0  0  0  0  0  0  0
  128.4000  126.9360   67.4800 C   0  0  0  0  0  0  0  0  0  0  0  0
  129.7840  126.8890   67.3020 C   0  0  0  0  0  0  0  0  0  0  0  0
  130.2240  126.4760   66.0290 N   0  0  0  0  0  0  0  0  0  0  0  0
  130.5950  125.2490   65.5910 C   0  0  0  0  0  0  0  0  0  0  0  0
  130.6320  124.2430   66.3000 O   0  0  0  0  0  0  0  0  0  0  0  0
  130.9940  125.1830   64.1820 C   0  0  0  0  0  0  0  0  0  0  0  0
  132.2750  124.0850   63.6740 S   0  0  0  0  0  0  0  0  0  0  0  0
  132.1490  124.6300   62.0170 C   0  0  0  0  0  0  0  0  0  0  0  0
  132.9240  124.1260   61.0590 N   0  0  0  0  0  0  0  0  0  0  0  0
  132.7350  124.6270   59.8170 C   0  0  0  0  0  0  0  0  0  0  0  0
  133.6270  124.0380   58.7390 C   0  0  0  0  0  0  0  0  0  0  0  0
  131.7980  125.6110   59.5130 C   0  0  0  0  0  0  0  0  0  0  0  0
  130.9780  126.1460   60.5190 C   0  0  0  0  0  0  0  0  0  0  0  0
  129.9620  127.2270   60.1370 C   0  0  0  0  0  0  0  0  0  0  0  0
  130.1480  128.3740   60.7950 F   0  0  0  0  0  0  0  0  0  0  0  0
  130.0560  127.4940   58.8340 F   0  0  0  0  0  0  0  0  0  0  0  0
  128.7280  126.8050   60.4120 F   0  0  0  0  0  0  0  0  0  0  0  0
  131.1520  125.6390   61.8420 C   0  0  0  0  0  0  0  0  0  0  0  0
  130.5130  125.9370   63.0990 C   0  0  0  0  0  0  0  0  0  0  0  0
  129.5160  126.8710   63.2200 N   0  0  0  0  0  0  0  0  0  0  0  0
  130.6270  127.2260   68.3730 C   0  0  0  0  0  0  0  0  0  0  0  0
  130.0840  127.6160   69.5940 C   0  0  0  0  0  0  0  0  0  0  0  0
  1  2  1  0
  2  3  2  0
  2  4  1  0
  4  5  2  0
  5  6  1  0
  6  7  2  0
  7  8  1  0
  8  9  1  0
  9 10  2  0
  9 11  1  0
 11 12  1  0
 12 13  1  0
 13 14  2  0
 14 15  1  0
 15 16  1  0
 15 17  2  0
 17 18  1  0
 18 19  1  0
 19 20  1  0
 19 21  1  0
 19 22  1  0
 18 23  2  0
 23 24  1  0
 24 25  1  0
  7 26  1  0
 26 27  2  0
 27  4  1  0
 24 11  2  0
 23 13  1  0
M  END
>  <Binding energies>  (26) 
[-6.89]

>  <Ligand effiencies>  (26) 
[-0.22966666666666666]

>  <Interactions>  (26) 
["H-B:GLU:543:OE1:9881, V-B:TYR:539:CE2:9848, V-A:ASP:366:CG:3211, V-A:ASP:366:CB:3210, V-A:GLU:543:CD:4906, V-B:GLU:543:CD:9880, H-B:GLU:543:OE2:9882, H-A:GLU:543:OE2:4908, H-A:GLU:543:OE1:4907, H-A:TYR:484:OH:4346, V-A:ILE:369:CG2:3235, V-A:ASP:366:CA:3208, V-B:HIS:456:CE1:9042, V-B:GLY:544:C:9884, V-B:HIS:456:CD2:9040, V-A:LYS:547:CE:4948, V-B:HIS:456:CG:9038, V-A:HIS:456:CE1:4068, V-A:GLY:544:C:4910, V-B:GLU:543:CG:9879, V-B:GLU:543:C:9874, V-A:ARG:545:CG:4920, V-A:GLU:543:CG:4905, V-B:GLU:543:CB:9878, V-A:GLY:544:CA:4912, V-A:GLU:543:C:4900, H-B:HIS:456:ND1:9039, H-B:ARG:545:N:9892"]

$$$$
4bd_Grossjean_2025
     RDKit          3D

 24 26  0  0  0  0  0  0  0  0999 V2000
  125.9630  116.8350   70.7340 C   0  0  0  0  0  0  0  0  0  0  0  0
  126.7700  117.7370   71.6510 C   0  0  0  0  0  0  0  0  0  0  0  0
  127.0630  117.3560   72.9580 C   0  0  0  0  0  0  0  0  0  0  0  0
  127.8080  118.2010   73.7950 C   0  0  0  0  0  0  0  0  0  0  0  0
  128.1020  117.7410   75.2270 C   0  0  0  0  0  0  0  0  0  0  0  0
  127.5290  116.5730   75.5270 F   0  0  0  0  0  0  0  0  0  0  0  0
  129.4150  117.5970   75.3950 F   0  0  0  0  0  0  0  0  0  0  0  0
  127.6430  118.6440   76.0930 F   0  0  0  0  0  0  0  0  0  0  0  0
  128.2430  119.4440   73.2470 C   0  0  0  0  0  0  0  0  0  0  0  0
  129.0090  120.5410   73.7870 C   0  0  0  0  0  0  0  0  0  0  0  0
  129.4950  120.5430   75.0680 N   0  0  0  0  0  0  0  0  0  0  0  0
  129.2090  121.6010   72.8860 C   0  0  0  0  0  0  0  0  0  0  0  0
  129.9180  122.8650   73.1050 C   0  0  0  0  0  0  0  0  0  0  0  0
  129.4220  123.9340   72.7460 O   0  0  0  0  0  0  0  0  0  0  0  0
  131.1180  122.7580   73.7280 N   0  0  0  0  0  0  0  0  0  0  0  0
  132.0540  123.7590   74.0450 C   0  0  0  0  0  0  0  0  0  0  0  0
  131.7140  125.0590   73.6610 C   0  0  0  0  0  0  0  0  0  0  0  0
  132.5700  126.1210   73.9390 C   0  0  0  0  0  0  0  0  0  0  0  0
  133.7660  125.8850   74.6110 C   0  0  0  0  0  0  0  0  0  0  0  0
  134.1110  124.5970   75.0120 C   0  0  0  0  0  0  0  0  0  0  0  0
  133.2570  123.5320   74.7350 C   0  0  0  0  0  0  0  0  0  0  0  0
  128.4550  121.2650   71.3290 S   0  0  0  0  0  0  0  0  0  0  0  0
  127.8760  119.7140   71.8920 C   0  0  0  0  0  0  0  0  0  0  0  0
  127.1680  118.9080   71.1020 N   0  0  0  0  0  0  0  0  0  0  0  0
  1  2  1  0
  2  3  2  0
  3  4  1  0
  4  5  1  0
  5  6  1  0
  5  7  1  0
  5  8  1  0
  4  9  2  0
  9 10  1  0
 10 11  1  0
 10 12  2  0
 12 13  1  0
 13 14  2  0
 13 15  1  0
 15 16  1  0
 16 17  2  0
 17 18  1  0
 18 19  2  0
 19 20  1  0
 20 21  2  0
 12 22  1  0
 22 23  1  0
 23 24  2  0
 24  2  1  0
 23  9  1  0
 21 16  1  0
M  END
>  <Binding energies>  (27) 
[-6.84]

>  <Ligand effiencies>  (27) 
[-0.25333333333333335]

>  <Interactions>  (27) 
["V-A:LYS:471:CE:4218, V-A:HIS:456:CB:4063, V-A:HIS:456:CD2:4066, V-A:VAL:458:CG2:4085, V-A:HIS:456:CG:4064, V-A:HIS:456:C:4059, V-A:VAL:457:C:4071, V-A:ASP:473:CG:4238, V-A:HIS:456:CA:4061, H-B:LYS:547:NZ:9923, V-B:LYS:547:CE:9922, V-B:GLY:544:CA:9886, V-B:GLU:543:C:9874, V-A:TYR:484:CG:4340, V-A:TYR:484:CB:4339, V-B:VAL:542:CG1:9871, V-B:GLU:543:CA:9876, V-A:TYR:484:CD1:4341, H-A:ASP:473:OD2:4240, H-A:TYR:484:N:4338, V-A:SER:483:CB:4331"]

$$$$
4be_Grossjean_2025
     RDKit          3D

 25 27  0  0  0  0  0  0  0  0999 V2000
  135.1750  123.8130   75.7530 C   0  0  0  0  0  0  0  0  0  0  0  0
  133.9410  124.2110   74.9660 C   0  0  0  0  0  0  0  0  0  0  0  0
  133.6990  125.5400   74.6100 C   0  0  0  0  0  0  0  0  0  0  0  0
  132.5410  125.8330   73.8880 C   0  0  0  0  0  0  0  0  0  0  0  0
  131.6640  124.8030   73.5430 C   0  0  0  0  0  0  0  0  0  0  0  0
  131.9710  123.4920   73.9250 C   0  0  0  0  0  0  0  0  0  0  0  0
  131.0440  122.5020   73.5530 N   0  0  0  0  0  0  0  0  0  0  0  0
  129.8030  122.6520   73.0250 C   0  0  0  0  0  0  0  0  0  0  0  0
  129.2900  123.7450   72.7790 O   0  0  0  0  0  0  0  0  0  0  0  0
  129.0720  121.4070   72.7740 C   0  0  0  0  0  0  0  0  0  0  0  0
  128.2670  121.1490   71.2270 S   0  0  0  0  0  0  0  0  0  0  0  0
  127.6720  119.5890   71.7440 C   0  0  0  0  0  0  0  0  0  0  0  0
  126.9300  118.8280   70.9420 N   0  0  0  0  0  0  0  0  0  0  0  0
  126.5300  117.6410   71.4530 C   0  0  0  0  0  0  0  0  0  0  0  0
  125.6820  116.7900   70.5250 C   0  0  0  0  0  0  0  0  0  0  0  0
  126.8530  117.2010   72.7340 C   0  0  0  0  0  0  0  0  0  0  0  0
  127.6360  117.9980   73.5830 C   0  0  0  0  0  0  0  0  0  0  0  0
  127.9700  117.4700   74.9830 C   0  0  0  0  0  0  0  0  0  0  0  0
  129.2180  117.0070   75.0820 F   0  0  0  0  0  0  0  0  0  0  0  0
  127.8360  118.4480   75.8780 F   0  0  0  0  0  0  0  0  0  0  0  0
  127.1460  116.4700   75.2960 F   0  0  0  0  0  0  0  0  0  0  0  0
  128.0710  119.2590   73.0770 C   0  0  0  0  0  0  0  0  0  0  0  0
  128.8620  120.3240   73.6420 C   0  0  0  0  0  0  0  0  0  0  0  0
  129.3680  120.2750   74.9160 N   0  0  0  0  0  0  0  0  0  0  0  0
  133.0990  123.1980   74.6360 N   0  0  0  0  0  0  0  0  0  0  0  0
  1  2  1  0
  2  3  2  0
  3  4  1  0
  4  5  2  0
  5  6  1  0
  6  7  1  0
  7  8  1  0
  8  9  2  0
  8 10  1  0
 10 11  1  0
 11 12  1  0
 12 13  2  0
 13 14  1  0
 14 15  1  0
 14 16  2  0
 16 17  1  0
 17 18  1  0
 18 19  1  0
 18 20  1  0
 18 21  1  0
 17 22  2  0
 22 23  1  0
 23 24  1  0
  6 25  2  0
 25  2  1  0
 23 10  2  0
 22 12  1  0
M  END
>  <Binding energies>  (28) 
[-6.57]

>  <Ligand effiencies>  (28) 
[-0.23464285714285715]

>  <Interactions>  (28) 
["V-A:HIS:456:CB:4063, V-A:HIS:456:CD2:4066, V-A:VAL:458:CG2:4085, V-A:HIS:456:CG:4064, V-A:HIS:456:C:4059, V-A:VAL:457:C:4071, V-A:LYS:471:CG:4216, V-A:ASP:473:CG:4238, V-A:LYS:471:CD:4217, V-A:HIS:456:CA:4061, H-B:LYS:547:NZ:9923, V-A:LYS:471:CB:4215, V-A:VAL:457:CA:4073, V-A:LYS:471:C:4211, V-B:LYS:547:CE:9922, V-B:GLY:544:CA:9886, V-B:GLU:543:C:9874, V-A:TYR:484:CG:4340, V-A:TYR:484:CB:4339, V-B:VAL:542:CG1:9871, V-B:GLU:543:CA:9876, V-A:TYR:484:CD1:4341, H-A:ASP:473:OD2:4240, H-A:TYR:484:N:4338, V-A:SER:483:CB:4331, V-A:VAL:458:CB:4083"]

$$$$
4bg_Grossjean_2025
     RDKit          3D

 25 27  0  0  0  0  0  0  0  0999 V2000
  132.7890  131.9570   55.6460 C   0  0  0  0  0  0  0  0  0  0  0  0
  131.9930  131.8120   56.9310 C   0  0  0  0  0  0  0  0  0  0  0  0
  132.6210  131.4870   58.1300 C   0  0  0  0  0  0  0  0  0  0  0  0
  131.8720  131.3500   59.3100 C   0  0  0  0  0  0  0  0  0  0  0  0
  132.6060  130.9910   60.6060 C   0  0  0  0  0  0  0  0  0  0  0  0
  132.5310  131.9500   61.5320 F   0  0  0  0  0  0  0  0  0  0  0  0
  132.0780  129.8860   61.1320 F   0  0  0  0  0  0  0  0  0  0  0  0
  133.8980  130.7830   60.3510 F   0  0  0  0  0  0  0  0  0  0  0  0
  130.4640  131.5600   59.2170 C   0  0  0  0  0  0  0  0  0  0  0  0
  129.3970  131.5020   60.1850 C   0  0  0  0  0  0  0  0  0  0  0  0
  129.6060  131.1860   61.5040 N   0  0  0  0  0  0  0  0  0  0  0  0
  128.1310  131.8060   59.6600 C   0  0  0  0  0  0  0  0  0  0  0  0
  126.8380  131.8130   60.3440 C   0  0  0  0  0  0  0  0  0  0  0  0
  126.1600  132.8380   60.4270 O   0  0  0  0  0  0  0  0  0  0  0  0
  126.4240  130.6270   60.8360 N   0  0  0  0  0  0  0  0  0  0  0  0
  125.1780  130.4000   61.5670 C   0  0  0  0  0  0  0  0  0  0  0  0
  125.3850  130.0730   63.0400 C   0  0  0  0  0  0  0  0  0  0  0  0
  126.6580  129.7370   63.5120 C   0  0  0  0  0  0  0  0  0  0  0  0
  126.8520  129.4760   64.8650 C   0  0  0  0  0  0  0  0  0  0  0  0
  125.7770  129.5640   65.7470 C   0  0  0  0  0  0  0  0  0  0  0  0
  124.5090  129.9150   65.2870 C   0  0  0  0  0  0  0  0  0  0  0  0
  124.3140  130.1750   63.9330 C   0  0  0  0  0  0  0  0  0  0  0  0
  128.2160  132.1370   57.9320 S   0  0  0  0  0  0  0  0  0  0  0  0
  129.9470  131.8960   57.9270 C   0  0  0  0  0  0  0  0  0  0  0  0
  130.6630  132.0210   56.8100 N   0  0  0  0  0  0  0  0  0  0  0  0
  1  2  1  0
  2  3  2  0
  3  4  1  0
  4  5  1  0
  5  6  1  0
  5  7  1  0
  5  8  1  0
  4  9  2  0
  9 10  1  0
 10 11  1  0
 10 12  2  0
 12 13  1  0
 13 14  2  0
 13 15  1  0
 15 16  1  0
 16 17  1  0
 17 18  2  0
 18 19  1  0
 19 20  2  0
 20 21  1  0
 21 22  2  0
 12 23  1  0
 23 24  1  0
 24 25  2  0
 25  2  1  0
 24  9  1  0
 22 17  1  0
M  END
>  <Binding energies>  (29) 
[-6.56]

>  <Ligand effiencies>  (29) 
[-0.23428571428571426]

>  <Interactions>  (29) 
["V-A:ASP:366:CG:3211, V-A:PRO:540:N:4882, H-A:TYR:539:N:4868, V-A:TYR:539:CZ:4875, V-A:TYR:531:CE2:4791, V-A:TYR:539:C:4865, V-A:LEU:363:CD1:3187, V-A:ILE:538:CB:4860, V-A:PRO:540:CA:4881, V-A:ILE:538:CG2:4861, V-A:TYR:531:CZ:4792, V-A:GLU:543:CD:4906, V-A:PRO:540:CB:4883, V-B:ARG:545:CZ:9898, V-A:ARG:545:CZ:4924, H-A:GLU:543:OE2:4908, H-A:GLU:543:OE1:4907, V-A:PRO:540:CD:4885, V-A:ASN:362:CB:3174, V-A:ALA:541:C:4886, V-A:TYR:539:CE2:4874, V-A:ALA:541:CB:4890, V-A:ASN:362:C:3170, V-A:PRO:540:C:4879, V-A:TYR:539:CD2:4872, V-A:TYR:539:CG:4870, V-B:HIS:456:CE1:9042, V-A:ALA:541:CA:4888, V-B:ARG:545:CG:9894, V-B:ARG:545:CD:9895, V-B:GLY:453:CA:9016, V-A:ASN:362:CA:3172"]

$$$$
4ca_Grossjean_2025
     RDKit          3D

 34 37  0  0  0  0  0  0  0  0999 V2000
  129.4120  125.6970   72.2360 C   0  0  0  0  0  0  0  0  0  0  0  0
  130.4630  126.8120   72.2470 C   0  0  0  0  0  0  0  0  0  0  0  0
  129.8670  128.0280   71.8160 O   0  0  0  0  0  0  0  0  0  0  0  0
  128.7420  128.0270   71.0530 C   0  0  0  0  0  0  0  0  0  0  0  0
  127.6260  128.3310   71.4880 O   0  0  0  0  0  0  0  0  0  0  0  0
  128.9920  127.6240   69.6300 C   0  0  0  0  0  0  0  0  0  0  0  0
  130.3090  127.5800   69.1520 C   0  0  0  0  0  0  0  0  0  0  0  0
  130.5720  127.2060   67.8370 C   0  0  0  0  0  0  0  0  0  0  0  0
  129.5290  126.8750   66.9730 C   0  0  0  0  0  0  0  0  0  0  0  0
  129.9090  126.5020   65.6690 N   0  0  0  0  0  0  0  0  0  0  0  0
  130.9250  125.7070   65.2490 C   0  0  0  0  0  0  0  0  0  0  0  0
  131.6940  125.1120   66.0050 O   0  0  0  0  0  0  0  0  0  0  0  0
  131.0540  125.5720   63.7970 C   0  0  0  0  0  0  0  0  0  0  0  0
  130.0280  126.5220   62.7240 S   0  0  0  0  0  0  0  0  0  0  0  0
  130.8040  125.8460   61.3110 C   0  0  0  0  0  0  0  0  0  0  0  0
  130.4400  126.2040   60.0820 N   0  0  0  0  0  0  0  0  0  0  0  0
  131.1100  125.6370   59.0460 C   0  0  0  0  0  0  0  0  0  0  0  0
  130.6830  126.0690   57.6730 C   0  0  0  0  0  0  0  0  0  0  0  0
  129.9440  127.2480   57.4870 C   0  0  0  0  0  0  0  0  0  0  0  0
  129.5400  127.6510   56.2160 C   0  0  0  0  0  0  0  0  0  0  0  0
  129.8710  126.8770   55.1090 C   0  0  0  0  0  0  0  0  0  0  0  0
  130.6010  125.7030   55.2650 C   0  0  0  0  0  0  0  0  0  0  0  0
  131.0020  125.3030   56.5370 C   0  0  0  0  0  0  0  0  0  0  0  0
  132.1250  124.6960   59.2480 C   0  0  0  0  0  0  0  0  0  0  0  0
  132.5130  124.3080   60.5400 C   0  0  0  0  0  0  0  0  0  0  0  0
  133.6350  123.2740   60.6900 C   0  0  0  0  0  0  0  0  0  0  0  0
  133.2460  122.1680   61.3260 F   0  0  0  0  0  0  0  0  0  0  0  0
  134.0750  122.9080   59.4860 F   0  0  0  0  0  0  0  0  0  0  0  0
  134.6430  123.8000   61.3860 F   0  0  0  0  0  0  0  0  0  0  0  0
  131.8290  124.9100   61.6350 C   0  0  0  0  0  0  0  0  0  0  0  0
  131.9510  124.7750   63.0660 C   0  0  0  0  0  0  0  0  0  0  0  0
  132.8640  123.9380   63.6550 N   0  0  0  0  0  0  0  0  0  0  0  0
  128.2080  126.9100   67.4430 C   0  0  0  0  0  0  0  0  0  0  0  0
  127.9460  127.2820   68.7590 C   0  0  0  0  0  0  0  0  0  0  0  0
  1  2  1  0
  2  3  1  0
  3  4  1  0
  4  5  2  0
  4  6  1  0
  6  7  2  0
  7  8  1  0
  8  9  2  0
  9 10  1  0
 10 11  1  0
 11 12  2  0
 11 13  1  0
 13 14  1  0
 14 15  1  0
 15 16  2  0
 16 17  1  0
 17 18  1  0
 18 19  2  0
 19 20  1  0
 20 21  2  0
 21 22  1  0
 22 23  2  0
 17 24  2  0
 24 25  1  0
 25 26  1  0
 26 27  1  0
 26 28  1  0
 26 29  1  0
 25 30  2  0
 30 31  1  0
 31 32  1  0
  9 33  1  0
 33 34  2  0
 34  6  1  0
 31 13  2  0
 30 15  1  0
 23 18  1  0
M  END
>  <Binding energies>  (30) 
[-6.96]

>  <Ligand effiencies>  (30) 
[-0.1881081081081081]

>  <Interactions>  (30) 
["H-B:GLU:543:OE1:9881, V-B:TYR:539:CZ:9849, V-B:TYR:539:CE2:9848, V-A:LEU:475:CD2:4257, V-A:ASP:366:CG:3211, V-A:GLU:543:CD:4906, V-B:GLU:543:CD:9880, H-B:GLU:543:OE2:9882, H-A:GLU:543:OE2:4908, V-A:GLY:454:CA:4047, H-A:TYR:484:OH:4346, V-A:ILE:369:CB:3234, V-A:ILE:369:CG2:3235, V-A:ILE:369:CD1:3237, V-B:HIS:456:CE1:9042, V-A:HIS:456:CD2:4066, V-B:HIS:456:CD2:9040, V-A:HIS:456:CE1:4068, V-A:GLY:544:C:4910, V-B:LYS:547:CE:9922, V-B:GLY:544:CA:9886, V-B:GLU:543:CG:9879, V-B:GLU:543:C:9874, V-A:ARG:545:CG:4920, V-A:GLY:453:CA:4042, V-A:GLY:453:C:4040, V-A:GLU:543:CG:4905, V-B:GLU:543:CB:9878, V-A:GLU:543:C:4900, V-A:ILE:369:CG1:3236, H-B:HIS:456:ND1:9039"]

$$$$
4cb_Grossjean_2025
     RDKit          3D

 33 36  0  0  0  0  0  0  0  0999 V2000
  130.3710  126.6410   72.2980 C   0  0  0  0  0  0  0  0  0  0  0  0
  129.9000  127.9050   71.8530 O   0  0  0  0  0  0  0  0  0  0  0  0
  128.7910  128.0040   71.0770 C   0  0  0  0  0  0  0  0  0  0  0  0
  127.6930  128.3770   71.5010 O   0  0  0  0  0  0  0  0  0  0  0  0
  129.0320  127.6140   69.6460 C   0  0  0  0  0  0  0  0  0  0  0  0
  130.3460  127.5520   69.1660 C   0  0  0  0  0  0  0  0  0  0  0  0
  130.6020  127.1860   67.8480 C   0  0  0  0  0  0  0  0  0  0  0  0
  129.5520  126.8820   66.9810 C   0  0  0  0  0  0  0  0  0  0  0  0
  129.9260  126.5100   65.6750 N   0  0  0  0  0  0  0  0  0  0  0  0
  130.9060  125.6760   65.2520 C   0  0  0  0  0  0  0  0  0  0  0  0
  131.6410  125.0340   66.0040 O   0  0  0  0  0  0  0  0  0  0  0  0
  131.0400  125.5550   63.7980 C   0  0  0  0  0  0  0  0  0  0  0  0
  130.0070  126.5020   62.7300 S   0  0  0  0  0  0  0  0  0  0  0  0
  130.7920  125.8470   61.3130 C   0  0  0  0  0  0  0  0  0  0  0  0
  130.4270  126.2100   60.0860 N   0  0  0  0  0  0  0  0  0  0  0  0
  131.1030  125.6550   59.0460 C   0  0  0  0  0  0  0  0  0  0  0  0
  130.6730  126.0880   57.6750 C   0  0  0  0  0  0  0  0  0  0  0  0
  131.0080  125.3260   56.5440 C   0  0  0  0  0  0  0  0  0  0  0  0
  130.6150  125.7240   55.2680 C   0  0  0  0  0  0  0  0  0  0  0  0
  129.8790  126.8930   55.1060 C   0  0  0  0  0  0  0  0  0  0  0  0
  129.5360  127.6680   56.2090 C   0  0  0  0  0  0  0  0  0  0  0  0
  129.9330  127.2670   57.4820 C   0  0  0  0  0  0  0  0  0  0  0  0
  132.1270  124.7220   59.2450 C   0  0  0  0  0  0  0  0  0  0  0  0
  132.5170  124.3300   60.5340 C   0  0  0  0  0  0  0  0  0  0  0  0
  133.6490  123.3050   60.6800 C   0  0  0  0  0  0  0  0  0  0  0  0
  133.2670  122.1910   61.3080 F   0  0  0  0  0  0  0  0  0  0  0  0
  134.0930  122.9510   59.4740 F   0  0  0  0  0  0  0  0  0  0  0  0
  134.6510  123.8350   61.3810 F   0  0  0  0  0  0  0  0  0  0  0  0
  131.8260  124.9190   61.6320 C   0  0  0  0  0  0  0  0  0  0  0  0
  131.9490  124.7750   63.0630 C   0  0  0  0  0  0  0  0  0  0  0  0
  132.8730  123.9470   63.6470 N   0  0  0  0  0  0  0  0  0  0  0  0
  128.2330  126.9380   67.4540 C   0  0  0  0  0  0  0  0  0  0  0  0
  127.9780  127.3030   68.7730 C   0  0  0  0  0  0  0  0  0  0  0  0
  1  2  1  0
  2  3  1  0
  3  4  2  0
  3  5  1  0
  5  6  2  0
  6  7  1  0
  7  8  2  0
  8  9  1  0
  9 10  1  0
 10 11  2  0
 10 12  1  0
 12 13  1  0
 13 14  1  0
 14 15  2  0
 15 16  1  0
 16 17  1  0
 17 18  2  0
 18 19  1  0
 19 20  2  0
 20 21  1  0
 21 22  2  0
 16 23  2  0
 23 24  1  0
 24 25  1  0
 25 26  1  0
 25 27  1  0
 25 28  1  0
 24 29  2  0
 29 30  1  0
 30 31  1  0
  8 32  1  0
 32 33  2  0
 33  5  1  0
 30 12  2  0
 29 14  1  0
 22 17  1  0
M  END
>  <Binding energies>  (31) 
[-6.8]

>  <Ligand effiencies>  (31) 
[-0.18888888888888888]

>  <Interactions>  (31) 
["H-B:GLU:543:OE1:9881, V-B:TYR:539:CZ:9849, V-B:TYR:539:CE2:9848, V-A:LEU:475:CD2:4257, V-A:ASP:366:CG:3211, V-A:GLU:543:CD:4906, V-B:GLU:543:CD:9880, H-B:GLU:543:OE2:9882, H-A:GLU:543:OE2:4908, V-A:GLY:454:CA:4047, H-A:TYR:484:OH:4346, V-A:ILE:369:CB:3234, V-A:ILE:369:CG2:3235, V-A:ILE:369:CD1:3237, V-A:TYR:531:CE1:4790, V-B:HIS:456:CE1:9042, V-A:HIS:456:CD2:4066, V-B:HIS:456:CD2:9040, V-A:HIS:456:CE1:4068, V-A:GLY:544:C:4910, V-B:GLU:543:CG:9879, V-B:GLU:543:C:9874, V-A:ARG:545:CG:4920, V-A:GLY:453:CA:4042, V-A:GLY:453:C:4040, V-A:GLU:543:CG:4905, V-B:GLU:543:CB:9878, V-A:GLU:543:C:4900, V-A:ILE:369:CG1:3236, H-B:HIS:456:ND1:9039"]

$$$$
4cc_Grossjean_2025
     RDKit          3D

 31 34  0  0  0  0  0  0  0  0999 V2000
  127.6870  128.0000   71.5200 C   0  0  0  0  0  0  0  0  0  0  0  0
  128.9860  128.0100   70.9370 O   0  0  0  0  0  0  0  0  0  0  0  0
  129.1360  127.6320   69.6170 C   0  0  0  0  0  0  0  0  0  0  0  0
  130.4430  127.5530   69.1360 C   0  0  0  0  0  0  0  0  0  0  0  0
  130.6930  127.1780   67.8190 C   0  0  0  0  0  0  0  0  0  0  0  0
  129.6330  126.8860   66.9580 C   0  0  0  0  0  0  0  0  0  0  0  0
  129.9840  126.5010   65.6500 N   0  0  0  0  0  0  0  0  0  0  0  0
  130.9510  125.6460   65.2390 C   0  0  0  0  0  0  0  0  0  0  0  0
  131.6830  125.0150   66.0030 O   0  0  0  0  0  0  0  0  0  0  0  0
  131.0870  125.5020   63.7860 C   0  0  0  0  0  0  0  0  0  0  0  0
  130.0830  126.4620   62.7010 S   0  0  0  0  0  0  0  0  0  0  0  0
  130.8330  125.7390   61.2970 C   0  0  0  0  0  0  0  0  0  0  0  0
  130.4720  126.0830   60.0630 N   0  0  0  0  0  0  0  0  0  0  0  0
  131.1180  125.4740   59.0340 C   0  0  0  0  0  0  0  0  0  0  0  0
  130.6890  125.8800   57.6540 C   0  0  0  0  0  0  0  0  0  0  0  0
  131.3370  125.3640   56.5200 C   0  0  0  0  0  0  0  0  0  0  0  0
  130.9450  125.7380   55.2370 C   0  0  0  0  0  0  0  0  0  0  0  0
  129.8970  126.6360   55.0690 C   0  0  0  0  0  0  0  0  0  0  0  0
  129.2400  127.1640   56.1760 C   0  0  0  0  0  0  0  0  0  0  0  0
  129.6360  126.7890   57.4570 C   0  0  0  0  0  0  0  0  0  0  0  0
  132.1100  124.5130   59.2500 C   0  0  0  0  0  0  0  0  0  0  0  0
  132.4970  124.1410   60.5480 C   0  0  0  0  0  0  0  0  0  0  0  0
  133.5950  123.0840   60.7120 C   0  0  0  0  0  0  0  0  0  0  0  0
  134.1400  122.7100   59.5510 F   0  0  0  0  0  0  0  0  0  0  0  0
  134.5750  123.5660   61.4750 F   0  0  0  0  0  0  0  0  0  0  0  0
  133.0880  121.9920   61.2840 F   0  0  0  0  0  0  0  0  0  0  0  0
  131.8320  124.7790   61.6340 C   0  0  0  0  0  0  0  0  0  0  0  0
  131.9520  124.6620   63.0670 C   0  0  0  0  0  0  0  0  0  0  0  0
  132.8390  123.8050   63.6680 N   0  0  0  0  0  0  0  0  0  0  0  0
  128.3160  126.9510   67.4370 C   0  0  0  0  0  0  0  0  0  0  0  0
  128.0710  127.3250   68.7550 C   0  0  0  0  0  0  0  0  0  0  0  0
  1  2  1  0
  2  3  1  0
  3  4  2  0
  4  5  1  0
  5  6  2  0
  6  7  1  0
  7  8  1  0
  8  9  2  0
  8 10  1  0
 10 11  1  0
 11 12  1  0
 12 13  2  0
 13 14  1  0
 14 15  1  0
 15 16  2  0
 16 17  1  0
 17 18  2  0
 18 19  1  0
 19 20  2  0
 14 21  2  0
 21 22  1  0
 22 23  1  0
 23 24  1  0
 23 25  1  0
 23 26  1  0
 22 27  2  0
 27 28  1  0
 28 29  1  0
  6 30  1  0
 30 31  2  0
 31  3  1  0
 28 10  2  0
 27 12  1  0
 20 15  1  0
M  END
>  <Binding energies>  (32) 
[-6.22]

>  <Ligand effiencies>  (32) 
[-0.18294117647058822]

>  <Interactions>  (32) 
["H-B:GLU:543:OE1:9881, V-B:TYR:539:CZ:9849, V-B:TYR:539:CE2:9848, V-A:LEU:475:CD2:4257, V-A:ASP:366:CG:3211, V-A:GLU:543:CD:4906, V-B:GLU:543:CD:9880, H-B:GLU:543:OE2:9882, H-A:GLU:543:OE2:4908, V-A:GLY:454:CA:4047, H-A:TYR:484:OH:4346, V-A:ILE:369:CB:3234, V-A:ILE:369:CG2:3235, V-A:ILE:369:CD1:3237, V-A:TYR:531:CE1:4790, V-B:HIS:456:CE1:9042, V-B:GLY:544:C:9884, V-B:HIS:456:CD2:9040, V-B:HIS:456:CG:9038, V-A:HIS:456:CE1:4068, V-A:GLY:544:C:4910, V-B:GLU:543:CG:9879, V-B:GLU:543:C:9874, V-A:ARG:545:CG:4920, V-A:GLY:453:CA:4042, V-A:GLY:453:C:4040, V-A:GLU:543:CG:4905, V-B:GLU:543:CB:9878, V-A:GLU:543:C:4900, V-A:ILE:369:CG1:3236"]

$$$$
4ce_Grossjean_2025
     RDKit          3D

 30 33  0  0  0  0  0  0  0  0999 V2000
  130.9300  127.2170   70.3440 C   0  0  0  0  0  0  0  0  0  0  0  0
  129.9020  127.2360   69.2280 C   0  0  0  0  0  0  0  0  0  0  0  0
  128.5800  127.6260   69.4580 C   0  0  0  0  0  0  0  0  0  0  0  0
  127.6920  127.6270   68.3820 C   0  0  0  0  0  0  0  0  0  0  0  0
  128.1400  127.2450   67.1170 C   0  0  0  0  0  0  0  0  0  0  0  0
  129.4760  126.8600   66.9570 C   0  0  0  0  0  0  0  0  0  0  0  0
  129.8740  126.5080   65.6540 N   0  0  0  0  0  0  0  0  0  0  0  0
  130.8750  125.6790   65.2670 C   0  0  0  0  0  0  0  0  0  0  0  0
  131.6030  125.0720   66.0530 O   0  0  0  0  0  0  0  0  0  0  0  0
  131.0490  125.5350   63.8200 C   0  0  0  0  0  0  0  0  0  0  0  0
  129.9910  126.4030   62.7090 S   0  0  0  0  0  0  0  0  0  0  0  0
  130.8430  125.7600   61.3260 C   0  0  0  0  0  0  0  0  0  0  0  0
  130.4890  126.0800   60.0830 N   0  0  0  0  0  0  0  0  0  0  0  0
  131.2200  125.5420   59.0710 C   0  0  0  0  0  0  0  0  0  0  0  0
  130.7990  125.9260   57.6840 C   0  0  0  0  0  0  0  0  0  0  0  0
  130.9400  125.0240   56.6170 C   0  0  0  0  0  0  0  0  0  0  0  0
  130.5580  125.3760   55.3250 C   0  0  0  0  0  0  0  0  0  0  0  0
  130.0250  126.6370   55.0820 C   0  0  0  0  0  0  0  0  0  0  0  0
  129.8750  127.5500   56.1210 C   0  0  0  0  0  0  0  0  0  0  0  0
  130.2610  127.1950   57.4110 C   0  0  0  0  0  0  0  0  0  0  0  0
  132.2880  124.6720   59.3120 C   0  0  0  0  0  0  0  0  0  0  0  0
  132.6670  124.3250   60.6190 C   0  0  0  0  0  0  0  0  0  0  0  0
  133.8480  123.3670   60.8100 C   0  0  0  0  0  0  0  0  0  0  0  0
  133.5040  122.2240   61.4060 F   0  0  0  0  0  0  0  0  0  0  0  0
  134.3730  123.0570   59.6240 F   0  0  0  0  0  0  0  0  0  0  0  0
  134.7800  123.9470   61.5660 F   0  0  0  0  0  0  0  0  0  0  0  0
  131.9170  124.8950   61.6870 C   0  0  0  0  0  0  0  0  0  0  0  0
  132.0090  124.7830   63.1230 C   0  0  0  0  0  0  0  0  0  0  0  0
  132.9550  124.0110   63.7470 N   0  0  0  0  0  0  0  0  0  0  0  0
  130.3530  126.8600   68.0030 N   0  0  0  0  0  0  0  0  0  0  0  0
  1  2  1  0
  2  3  2  0
  3  4  1  0
  4  5  2  0
  5  6  1  0
  6  7  1  0
  7  8  1  0
  8  9  2  0
  8 10  1  0
 10 11  1  0
 11 12  1  0
 12 13  2  0
 13 14  1  0
 14 15  1  0
 15 16  2  0
 16 17  1  0
 17 18  2  0
 18 19  1  0
 19 20  2  0
 14 21  2  0
 21 22  1  0
 22 23  1  0
 23 24  1  0
 23 25  1  0
 23 26  1  0
 22 27  2  0
 27 28  1  0
 28 29  1  0
  6 30  2  0
 30  2  1  0
 28 10  2  0
 27 12  1  0
 20 15  1  0
M  END
>  <Binding energies>  (33) 
[-6.35]

>  <Ligand effiencies>  (33) 
[-0.19242424242424241]

>  <Interactions>  (33) 
["H-B:GLU:543:OE1:9881, V-B:TYR:539:CZ:9849, V-B:TYR:539:CE2:9848, V-A:LEU:475:CD2:4257, V-A:ASP:366:CG:3211, V-A:GLU:543:CD:4906, V-B:GLU:543:CD:9880, H-B:GLU:543:OE2:9882, H-A:GLU:543:OE2:4908, V-A:GLY:454:CA:4047, H-A:TYR:484:OH:4346, V-A:ILE:369:CB:3234, V-A:ILE:369:CG2:3235, V-A:ILE:369:CD1:3237, V-B:HIS:456:CE1:9042, V-A:HIS:456:CD2:4066, V-A:HIS:456:CG:4064, V-A:HIS:456:CE1:4068, V-A:GLY:544:C:4910, V-B:GLU:543:CG:9879, V-A:GLY:453:CA:4042, V-A:GLY:453:C:4040, V-A:GLU:543:CG:4905, V-B:GLU:543:CB:9878, V-A:GLY:544:CA:4912, V-A:ILE:369:CG1:3236, V-A:ARG:545:CA:4917"]

$$$$
4cf_Grossjean_2025
     RDKit          3D

 29 32  0  0  0  0  0  0  0  0999 V2000
  131.6410  122.5710   63.4180 N   0  0  0  0  0  0  0  0  0  0  0  0
  130.9640  123.5380   62.7200 C   0  0  0  0  0  0  0  0  0  0  0  0
  130.7860  124.8470   63.1960 C   0  0  0  0  0  0  0  0  0  0  0  0
  131.2190  125.4230   64.4730 C   0  0  0  0  0  0  0  0  0  0  0  0
  132.4040  125.3840   64.8070 O   0  0  0  0  0  0  0  0  0  0  0  0
  130.2390  125.9900   65.2160 N   0  0  0  0  0  0  0  0  0  0  0  0
  130.3070  126.5770   66.4940 C   0  0  0  0  0  0  0  0  0  0  0  0
  131.4240  127.2500   67.0250 C   0  0  0  0  0  0  0  0  0  0  0  0
  131.3630  127.7760   68.3180 C   0  0  0  0  0  0  0  0  0  0  0  0
  130.1860  127.6150   69.0500 C   0  0  0  0  0  0  0  0  0  0  0  0
  129.0980  126.9660   68.5640 N   0  0  0  0  0  0  0  0  0  0  0  0
  129.1730  126.4590   67.3070 C   0  0  0  0  0  0  0  0  0  0  0  0
  129.8770  125.8250   62.0450 S   0  0  0  0  0  0  0  0  0  0  0  0
  129.7370  124.4760   60.9420 C   0  0  0  0  0  0  0  0  0  0  0  0
  129.0910  124.5890   59.7830 N   0  0  0  0  0  0  0  0  0  0  0  0
  129.0210  123.4800   59.0010 C   0  0  0  0  0  0  0  0  0  0  0  0
  128.2810  123.6370   57.7040 C   0  0  0  0  0  0  0  0  0  0  0  0
  128.9700  123.9110   56.5130 C   0  0  0  0  0  0  0  0  0  0  0  0
  128.2910  124.0560   55.3060 C   0  0  0  0  0  0  0  0  0  0  0  0
  126.9070  123.9260   55.2740 C   0  0  0  0  0  0  0  0  0  0  0  0
  126.1980  123.6520   56.4390 C   0  0  0  0  0  0  0  0  0  0  0  0
  126.8820  123.5070   57.6430 C   0  0  0  0  0  0  0  0  0  0  0  0
  129.6190  122.2730   59.3730 C   0  0  0  0  0  0  0  0  0  0  0  0
  130.3060  122.1440   60.5900 C   0  0  0  0  0  0  0  0  0  0  0  0
  130.9330  120.7890   60.9390 C   0  0  0  0  0  0  0  0  0  0  0  0
  130.5380  120.3180   62.1230 F   0  0  0  0  0  0  0  0  0  0  0  0
  130.5970  119.8860   60.0180 F   0  0  0  0  0  0  0  0  0  0  0  0
  132.2610  120.9040   60.9790 F   0  0  0  0  0  0  0  0  0  0  0  0
  130.3710  123.2950   61.4280 C   0  0  0  0  0  0  0  0  0  0  0  0
  1  2  1  0
  2  3  2  0
  3  4  1  0
  4  5  2  0
  4  6  1  0
  6  7  1  0
  7  8  2  0
  8  9  1  0
  9 10  2  0
 10 11  1  0
 11 12  2  0
  3 13  1  0
 13 14  1  0
 14 15  2  0
 15 16  1  0
 16 17  1  0
 17 18  2  0
 18 19  1  0
 19 20  2  0
 20 21  1  0
 21 22  2  0
 16 23  2  0
 23 24  1  0
 24 25  1  0
 25 26  1  0
 25 27  1  0
 25 28  1  0
 24 29  2  0
 29  2  1  0
 12  7  1  0
 29 14  1  0
 22 17  1  0
M  END
>  <Binding energies>  (34) 
[-6.44]

>  <Ligand effiencies>  (34) 
[-0.20125]

>  <Interactions>  (34) 
["V-B:PRO:540:N:9856, V-A:TRP:381:CZ2:3368, H-B:GLU:543:OE1:9881, V-B:TYR:539:CZ:9849, V-A:TRP:381:CH2:3370, V-B:ALA:541:CB:9864, V-B:PRO:540:CA:9855, V-B:TYR:539:CE2:9848, V-A:LEU:475:CD2:4257, V-B:TYR:539:CE1:9847, V-A:PRO:482:CB:4324, V-B:TYR:539:CD2:9846, V-A:GLU:543:CD:4906, V-B:GLU:543:CD:9880, V-B:TYR:539:C:9839, H-B:GLU:543:OE2:9882, H-A:GLU:543:OE2:4908, V-A:ARG:545:CD:4921, H-A:TYR:484:OH:4346, H-A:ARG:545:NE:4922, V-B:TYR:539:CG:9844, V-A:HIS:456:CE1:4068, V-A:GLY:544:C:4910, V-B:GLU:543:CG:9879, V-B:GLU:543:C:9874, V-A:ARG:545:CG:4920, V-A:GLU:543:CG:4905, V-A:TYR:484:CZ:4345, V-B:GLU:543:CB:9878, V-A:GLU:543:C:4900, V-A:ARG:545:CA:4917, V-A:ARG:545:CB:4919, V-A:LEU:475:CG:4255, V-A:LEU:475:CD1:4256, V-A:TRP:381:CZ3:3369"]

$$$$
4ci_Grossjean_2025
     RDKit          3D

 28 31  0  0  0  0  0  0  0  0999 V2000
  131.5810  122.2920   63.3490 N   0  0  0  0  0  0  0  0  0  0  0  0
  130.9210  123.2730   62.6570 C   0  0  0  0  0  0  0  0  0  0  0  0
  130.7830  124.5890   63.1300 C   0  0  0  0  0  0  0  0  0  0  0  0
  131.2890  125.1680   64.3770 C   0  0  0  0  0  0  0  0  0  0  0  0
  132.4630  125.0020   64.7160 O   0  0  0  0  0  0  0  0  0  0  0  0
  130.3840  125.8680   65.1060 N   0  0  0  0  0  0  0  0  0  0  0  0
  130.5920  126.5140   66.3180 C   0  0  0  0  0  0  0  0  0  0  0  0
  129.6070  126.6310   67.2980 C   0  0  0  0  0  0  0  0  0  0  0  0
  130.2030  127.3270   68.3240 C   0  0  0  0  0  0  0  0  0  0  0  0
  131.4820  127.6140   67.9800 O   0  0  0  0  0  0  0  0  0  0  0  0
  131.7160  127.0940   66.7060 N   0  0  0  0  0  0  0  0  0  0  0  0
  129.8890  125.5860   61.9860 S   0  0  0  0  0  0  0  0  0  0  0  0
  129.6980  124.2380   60.8890 C   0  0  0  0  0  0  0  0  0  0  0  0
  129.0500  124.3670   59.7350 N   0  0  0  0  0  0  0  0  0  0  0  0
  128.9560  123.2640   58.9470 C   0  0  0  0  0  0  0  0  0  0  0  0
  128.2140  123.4400   57.6530 C   0  0  0  0  0  0  0  0  0  0  0  0
  128.8980  123.7560   56.4670 C   0  0  0  0  0  0  0  0  0  0  0  0
  128.2160  123.9190   55.2640 C   0  0  0  0  0  0  0  0  0  0  0  0
  126.8330  123.7690   55.2300 C   0  0  0  0  0  0  0  0  0  0  0  0
  126.1300  123.4620   56.3890 C   0  0  0  0  0  0  0  0  0  0  0  0
  126.8160  123.3010   57.5900 C   0  0  0  0  0  0  0  0  0  0  0  0
  129.4990  122.0340   59.3320 C   0  0  0  0  0  0  0  0  0  0  0  0
  130.1860  121.8870   60.5480 C   0  0  0  0  0  0  0  0  0  0  0  0
  130.7560  120.5100   60.9060 C   0  0  0  0  0  0  0  0  0  0  0  0
  130.4540  119.5680   60.0100 F   0  0  0  0  0  0  0  0  0  0  0  0
  132.0850  120.5790   60.9780 F   0  0  0  0  0  0  0  0  0  0  0  0
  130.2720  120.1130   62.0830 F   0  0  0  0  0  0  0  0  0  0  0  0
  130.3010  123.0400   61.3750 C   0  0  0  0  0  0  0  0  0  0  0  0
  1  2  1  0
  2  3  2  0
  3  4  1  0
  4  5  2  0
  4  6  1  0
  6  7  1  0
  7  8  1  0
  8  9  2  0
  9 10  1  0
 10 11  1  0
  3 12  1  0
 12 13  1  0
 13 14  2  0
 14 15  1  0
 15 16  1  0
 16 17  2  0
 17 18  1  0
 18 19  2  0
 19 20  1  0
 20 21  2  0
 15 22  2  0
 22 23  1  0
 23 24  1  0
 24 25  1  0
 24 26  1  0
 24 27  1  0
 23 28  2  0
 28  2  1  0
 11  7  2  0
 28 13  1  0
 21 16  1  0
M  END
>  <Binding energies>  (35) 
[-6.99]

>  <Ligand effiencies>  (35) 
[-0.22548387096774195]

>  <Interactions>  (35) 
["V-B:PRO:540:N:9856, V-A:TRP:381:CZ2:3368, H-B:GLU:543:OE1:9881, V-B:TYR:539:CZ:9849, V-A:TRP:381:CH2:3370, V-B:ILE:538:CA:9832, V-B:ALA:541:CB:9864, V-B:PRO:540:CA:9855, V-B:ALA:541:CA:9862, V-B:TYR:539:CE2:9848, V-A:LEU:475:CD2:4257, V-B:TYR:539:CE1:9847, V-A:PRO:482:CB:4324, V-B:TYR:539:CD1:9845, V-B:TYR:539:CD2:9846, V-A:GLU:543:CD:4906, V-B:GLU:543:CD:9880, V-B:TYR:539:C:9839, H-B:GLU:543:OE2:9882, H-A:GLU:543:OE2:4908, H-A:TYR:484:OH:4346, H-A:ARG:545:NE:4922, V-B:TYR:539:CG:9844, V-A:HIS:456:CE1:4068, V-B:GLU:543:CG:9879, V-A:GLU:543:CG:4905, V-A:TYR:484:CZ:4345, V-B:GLU:543:CB:9878, V-A:LEU:475:CG:4255, V-A:LEU:475:CD1:4256, V-A:TRP:381:CZ3:3369, H-A:ARG:545:N:4918"]

$$$$
8a_Ghoteimi_2023
     RDKit          3D

 40 44  0  0  0  0  0  0  0  0999 V2000
  131.1330  126.4320   73.4260 C   0  0  0  0  0  0  0  0  0  0  0  0
  130.1990  125.8790   72.3460 C   0  0  0  0  0  0  0  0  0  0  0  0
  129.0040  126.6510   72.3140 O   0  0  0  0  0  0  0  0  0  0  0  0
  128.9240  127.7880   71.5740 C   0  0  0  0  0  0  0  0  0  0  0  0
  128.6890  128.8990   72.0590 O   0  0  0  0  0  0  0  0  0  0  0  0
  129.1440  127.5580   70.1070 C   0  0  0  0  0  0  0  0  0  0  0  0
  128.0370  127.3480   69.2750 C   0  0  0  0  0  0  0  0  0  0  0  0
  128.2070  127.1310   67.9100 C   0  0  0  0  0  0  0  0  0  0  0  0
  129.4850  127.1180   67.3490 C   0  0  0  0  0  0  0  0  0  0  0  0
  129.5360  126.8840   65.9600 N   0  0  0  0  0  0  0  0  0  0  0  0
  130.3900  126.1250   65.2300 C   0  0  0  0  0  0  0  0  0  0  0  0
  131.3230  125.4780   65.7050 O   0  0  0  0  0  0  0  0  0  0  0  0
  130.1310  126.1090   63.7870 C   0  0  0  0  0  0  0  0  0  0  0  0
  129.1520  127.3710   63.0420 S   0  0  0  0  0  0  0  0  0  0  0  0
  129.3250  126.6400   61.4630 C   0  0  0  0  0  0  0  0  0  0  0  0
  128.7420  127.1590   60.3830 N   0  0  0  0  0  0  0  0  0  0  0  0
  128.9360  126.5090   59.2050 C   0  0  0  0  0  0  0  0  0  0  0  0
  128.2550  127.0980   58.0110 C   0  0  0  0  0  0  0  0  0  0  0  0
  128.6190  126.7190   56.7110 C   0  0  0  0  0  0  0  0  0  0  0  0
  127.9900  127.2780   55.6030 C   0  0  0  0  0  0  0  0  0  0  0  0
  126.9820  128.2260   55.7640 C   0  0  0  0  0  0  0  0  0  0  0  0
  126.4150  128.7290   54.6080 O   0  0  0  0  0  0  0  0  0  0  0  0
  126.6810  130.0770   54.2350 C   0  0  0  0  0  0  0  0  0  0  0  0
  126.6060  128.6080   57.0600 C   0  0  0  0  0  0  0  0  0  0  0  0
  127.2390  128.0480   58.1670 C   0  0  0  0  0  0  0  0  0  0  0  0
  129.7140  125.3540   59.1100 C   0  0  0  0  0  0  0  0  0  0  0  0
  130.3420  124.8150   60.2380 C   0  0  0  0  0  0  0  0  0  0  0  0
  131.1850  123.6030   60.0750 C   0  0  0  0  0  0  0  0  0  0  0  0
  130.6430  122.3350   60.2960 C   0  0  0  0  0  0  0  0  0  0  0  0
  131.4230  121.1960   60.1240 C   0  0  0  0  0  0  0  0  0  0  0  0
  132.7560  121.3020   59.7230 C   0  0  0  0  0  0  0  0  0  0  0  0
  133.4530  120.1180   59.5780 O   0  0  0  0  0  0  0  0  0  0  0  0
  134.0590  119.5250   60.7200 C   0  0  0  0  0  0  0  0  0  0  0  0
  133.3000  122.5750   59.4930 C   0  0  0  0  0  0  0  0  0  0  0  0
  132.5160  123.7140   59.6640 C   0  0  0  0  0  0  0  0  0  0  0  0
  130.1350  125.4660   61.4860 C   0  0  0  0  0  0  0  0  0  0  0  0
  130.5670  125.1760   62.8310 C   0  0  0  0  0  0  0  0  0  0  0  0
  131.3220  124.0720   63.1410 N   0  0  0  0  0  0  0  0  0  0  0  0
  130.6000  127.3330   68.1740 C   0  0  0  0  0  0  0  0  0  0  0  0
  130.4270  127.5500   69.5390 C   0  0  0  0  0  0  0  0  0  0  0  0
  1  2  1  0
  2  3  1  0
  3  4  1  0
  4  5  2  0
  4  6  1  0
  6  7  2  0
  7  8  1  0
  8  9  2  0
  9 10  1  0
 10 11  1  0
 11 12  2  0
 11 13  1  0
 13 14  1  0
 14 15  1  0
 15 16  2  0
 16 17  1  0
 17 18  1  0
 18 19  2  0
 19 20  1  0
 20 21  2  0
 21 22  1  0
 22 23  1  0
 21 24  1  0
 24 25  2  0
 17 26  2  0
 26 27  1  0
 27 28  1  0
 28 29  2  0
 29 30  1  0
 30 31  2  0
 31 32  1  0
 32 33  1  0
 31 34  1  0
 34 35  2  0
 27 36  2  0
 36 37  1  0
 37 38  1  0
  9 39  1  0
 39 40  2  0
 40  6  1  0
 37 13  2  0
 36 15  1  0
 25 18  1  0
 35 28  1  0
M  END
>  <Binding energies>  (36) 
[-5.65]

>  <Ligand effiencies>  (36) 
[-0.1313953488372093]

>  <Interactions>  (36) 
["V-A:TRP:381:CZ2:3368, H-B:GLU:543:OE1:9881, V-A:TRP:381:CH2:3370, V-B:TYR:539:CE2:9848, V-A:LEU:475:CD2:4257, V-B:TYR:539:CD2:9846, V-B:MET:535:CE:9807, V-A:TYR:539:CZ:4875, V-A:GLU:543:CD:4906, V-B:GLU:543:CD:9880, H-B:TYR:531:OH:9767, H-B:GLU:543:OE2:9882, H-A:GLU:543:OE2:4908, H-A:GLU:543:OE1:4907, H-A:TYR:484:OH:4346, V-A:ILE:369:CB:3234, V-A:ILE:369:CG2:3235, V-A:ILE:369:CD1:3237, V-B:HIS:456:CE1:9042, V-A:HIS:456:CD2:4066, V-B:GLY:544:C:9884, V-A:HIS:456:CG:4064, V-A:LYS:547:CE:4948, H-A:LYS:547:NZ:4949, H-B:LYS:547:NZ:9923, V-A:HIS:456:CE1:4068, V-A:GLY:544:C:4910, V-B:GLU:543:CG:9879, V-B:GLU:543:C:9874, V-A:ARG:545:CG:4920, V-A:GLU:543:CG:4905, V-B:GLU:543:CB:9878, V-A:GLY:544:CA:4912, V-A:GLU:543:C:4900, V-A:SER:385:C:3403, V-A:SER:385:CA:3405, V-A:SER:385:CB:3407"]

$$$$
8c_Ghoteimi_2023
     RDKit          3D

 34 38  0  0  0  0  0  0  0  0999 V2000
  123.5450  130.0370   67.1700 C   0  0  0  0  0  0  0  0  0  0  0  0
  123.7260  130.6070   65.8790 O   0  0  0  0  0  0  0  0  0  0  0  0
  124.7390  130.1310   65.0680 C   0  0  0  0  0  0  0  0  0  0  0  0
  124.5590  130.2770   63.6940 C   0  0  0  0  0  0  0  0  0  0  0  0
  125.5250  129.8230   62.8020 C   0  0  0  0  0  0  0  0  0  0  0  0
  126.7000  129.2110   63.2610 C   0  0  0  0  0  0  0  0  0  0  0  0
  127.7410  128.7180   62.3070 C   0  0  0  0  0  0  0  0  0  0  0  0
  128.2420  129.5240   61.2810 C   0  0  0  0  0  0  0  0  0  0  0  0
  129.2170  129.0400   60.4030 C   0  0  0  0  0  0  0  0  0  0  0  0
  129.7200  129.9170   59.3210 C   0  0  0  0  0  0  0  0  0  0  0  0
  128.9480  130.1370   58.1780 C   0  0  0  0  0  0  0  0  0  0  0  0
  129.4180  130.9690   57.1660 C   0  0  0  0  0  0  0  0  0  0  0  0
  130.6630  131.5900   57.2790 C   0  0  0  0  0  0  0  0  0  0  0  0
  131.0460  132.4000   56.2280 O   0  0  0  0  0  0  0  0  0  0  0  0
  132.4260  132.5030   55.8970 C   0  0  0  0  0  0  0  0  0  0  0  0
  131.4390  131.3650   58.4270 C   0  0  0  0  0  0  0  0  0  0  0  0
  130.9670  130.5320   59.4390 C   0  0  0  0  0  0  0  0  0  0  0  0
  129.6840  127.7120   60.5910 C   0  0  0  0  0  0  0  0  0  0  0  0
  130.6580  126.9120   59.8950 C   0  0  0  0  0  0  0  0  0  0  0  0
  131.3600  127.3840   58.8150 N   0  0  0  0  0  0  0  0  0  0  0  0
  130.8160  125.6210   60.4230 C   0  0  0  0  0  0  0  0  0  0  0  0
  131.7130  124.5540   59.9720 C   0  0  0  0  0  0  0  0  0  0  0  0
  132.3740  124.6820   58.9400 O   0  0  0  0  0  0  0  0  0  0  0  0
  131.7470  123.4520   60.7610 N   0  0  0  0  0  0  0  0  0  0  0  0
  132.5090  122.3080   60.5630 C   0  0  0  0  0  0  0  0  0  0  0  0
  132.3110  121.3480   59.6860 N   0  0  0  0  0  0  0  0  0  0  0  0
  133.2350  120.4120   59.7760 C   0  0  0  0  0  0  0  0  0  0  0  0
  134.2130  120.6040   60.7460 C   0  0  0  0  0  0  0  0  0  0  0  0
  133.8950  122.0950   61.5820 S   0  0  0  0  0  0  0  0  0  0  0  0
  129.7550  125.3650   61.8100 S   0  0  0  0  0  0  0  0  0  0  0  0
  129.1080  126.9840   61.6720 C   0  0  0  0  0  0  0  0  0  0  0  0
  128.1770  127.4440   62.5070 N   0  0  0  0  0  0  0  0  0  0  0  0
  126.8760  129.0700   64.6450 C   0  0  0  0  0  0  0  0  0  0  0  0
  125.9100  129.5210   65.5400 C   0  0  0  0  0  0  0  0  0  0  0  0
  1  2  1  0
  2  3  1  0
  3  4  2  0
  4  5  1  0
  5  6  2  0
  6  7  1  0
  7  8  2  0
  8  9  1  0
  9 10  1  0
 10 11  2  0
 11 12  1  0
 12 13  2  0
 13 14  1  0
 14 15  1  0
 13 16  1  0
 16 17  2  0
  9 18  2  0
 18 19  1  0
 19 20  1  0
 19 21  2  0
 21 22  1  0
 22 23  2  0
 22 24  1  0
 24 25  1  0
 25 26  2  0
 26 27  1  0
 27 28  2  0
 28 29  1  0
 21 30  1  0
 30 31  1  0
 31 32  2  0
  6 33  1  0
 33 34  2  0
 34  3  1  0
 32  7  1  0
 17 10  1  0
 31 18  1  0
 29 25  1  0
M  END
>  <Binding energies>  (37) 
[-6.09]

>  <Ligand effiencies>  (37) 
[-0.16459459459459458]

>  <Interactions>  (37) 
["V-A:TRP:381:CZ2:3368, V-A:TRP:381:CH2:3370, V-B:TYR:539:CE2:9848, V-A:LEU:475:CD2:4257, V-B:TYR:539:CD2:9846, V-A:ASP:366:CG:3211, V-A:PRO:540:N:4882, H-A:TYR:539:N:4868, V-A:ILE:538:CA:4858, H-A:TYR:531:OH:4793, V-A:ASP:366:CB:3210, V-A:TYR:539:C:4865, V-A:ILE:538:CB:4860, V-A:PRO:540:CA:4881, V-A:ILE:538:CG2:4861, V-A:GLU:543:CD:4906, V-A:PRO:540:CB:4883, V-B:ARG:545:CZ:9898, V-B:GLU:543:CD:9880, H-A:ASP:366:OD2:3213, V-A:PRO:540:CD:4885, V-A:GLY:454:CA:4047, H-B:GLY:454:N:9022, H-B:TYR:484:OH:9320, H-A:ASP:366:OD1:3212, V-A:ILE:369:CG2:3235, V-A:ILE:369:CD1:3237, V-B:HIS:456:CE1:9042, V-B:GLY:454:CA:9021, V-A:PRO:540:CG:4884, V-B:ARG:545:CG:9894, V-B:ARG:545:CD:9895, V-B:TYR:484:CZ:9319, V-A:ILE:369:CG1:3236, V-A:SER:385:C:3403, V-A:SER:385:CA:3405, V-B:ARG:545:CB:9893, V-B:ILE:455:C:9024, H-B:ILE:455:N:9027, V-B:GLY:454:C:9019"]

$$$$
8d_Ghoteimi_2023
     RDKit          3D

 30 33  0  0  0  0  0  0  0  0999 V2000
  127.1910  123.7210   54.7210 C   0  0  0  0  0  0  0  0  0  0  0  0
  126.5130  122.7570   55.5140 O   0  0  0  0  0  0  0  0  0  0  0  0
  125.8120  123.1300   56.6160 C   0  0  0  0  0  0  0  0  0  0  0  0
  124.5990  122.9530   56.7540 O   0  0  0  0  0  0  0  0  0  0  0  0
  126.6560  123.7760   57.6440 C   0  0  0  0  0  0  0  0  0  0  0  0
  127.9890  122.8820   58.3770 S   0  0  0  0  0  0  0  0  0  0  0  0
  128.4080  124.2520   59.3800 C   0  0  0  0  0  0  0  0  0  0  0  0
  129.4260  124.2100   60.2400 N   0  0  0  0  0  0  0  0  0  0  0  0
  129.6660  125.3320   60.9700 C   0  0  0  0  0  0  0  0  0  0  0  0
  130.8110  125.2560   61.9300 C   0  0  0  0  0  0  0  0  0  0  0  0
  132.1020  124.9270   61.4940 C   0  0  0  0  0  0  0  0  0  0  0  0
  133.1640  124.8580   62.3910 C   0  0  0  0  0  0  0  0  0  0  0  0
  132.9630  125.1140   63.7470 C   0  0  0  0  0  0  0  0  0  0  0  0
  134.0730  125.0220   64.5640 O   0  0  0  0  0  0  0  0  0  0  0  0
  133.8970  125.0150   65.9770 C   0  0  0  0  0  0  0  0  0  0  0  0
  131.6760  125.4460   64.1940 C   0  0  0  0  0  0  0  0  0  0  0  0
  130.6170  125.5150   63.2930 C   0  0  0  0  0  0  0  0  0  0  0  0
  128.8870  126.4860   60.8440 C   0  0  0  0  0  0  0  0  0  0  0  0
  127.8210  126.5310   59.9400 C   0  0  0  0  0  0  0  0  0  0  0  0
  127.0190  127.7710   59.8230 C   0  0  0  0  0  0  0  0  0  0  0  0
  126.9240  128.4330   58.5970 C   0  0  0  0  0  0  0  0  0  0  0  0
  126.1780  129.6030   58.4900 C   0  0  0  0  0  0  0  0  0  0  0  0
  125.5140  130.1260   59.6000 C   0  0  0  0  0  0  0  0  0  0  0  0
  124.7990  131.2900   59.4000 O   0  0  0  0  0  0  0  0  0  0  0  0
  123.5180  131.4320   60.0040 C   0  0  0  0  0  0  0  0  0  0  0  0
  125.6070  129.4550   60.8310 C   0  0  0  0  0  0  0  0  0  0  0  0
  126.3550  128.2850   60.9370 C   0  0  0  0  0  0  0  0  0  0  0  0
  127.5540  125.3720   59.1650 C   0  0  0  0  0  0  0  0  0  0  0  0
  126.5630  125.0710   58.1690 C   0  0  0  0  0  0  0  0  0  0  0  0
  125.6100  125.9760   57.7770 N   0  0  0  0  0  0  0  0  0  0  0  0
  1  2  1  0
  2  3  1  0
  3  4  2  0
  3  5  1  0
  5  6  1  0
  6  7  1  0
  7  8  2  0
  8  9  1  0
  9 10  1  0
 10 11  2  0
 11 12  1  0
 12 13  2  0
 13 14  1  0
 14 15  1  0
 13 16  1  0
 16 17  2  0
  9 18  2  0
 18 19  1  0
 19 20  1  0
 20 21  2  0
 21 22  1  0
 22 23  2  0
 23 24  1  0
 24 25  1  0
 23 26  1  0
 26 27  2  0
 19 28  2  0
 28 29  1  0
 29 30  1  0
 29  5  2  0
 28  7  1  0
 17 10  1  0
 27 20  1  0
M  END
>  <Binding energies>  (38) 
[-7.06]

>  <Ligand effiencies>  (38) 
[-0.220625]

>  <Interactions>  (38) 
["V-B:PRO:540:N:9856, V-B:ILE:538:CA:9832, V-B:ASP:366:CG:8185, V-B:PRO:540:CB:9857, V-B:PRO:540:CA:9855, V-B:TYR:539:CD2:9846, V-B:TYR:531:CZ:9766, H-B:TYR:539:N:9842, V-B:GLU:543:CD:9880, H-B:TYR:531:OH:9767, V-B:TYR:539:C:9839, H-B:ASP:366:OD2:8187, V-B:PRO:540:CD:9859, V-A:ARG:545:CZ:4924, V-A:GLY:454:CA:4047, V-A:ARG:545:CD:4921, H-A:TYR:484:OH:4346, H-A:ARG:545:NE:4922, H-A:GLY:454:N:4048, V-B:ASP:366:CB:8184, H-A:ARG:545:NH1:4925, V-A:HIS:456:CE1:4068, V-A:ARG:545:CG:4920, V-A:TYR:484:CZ:4345, V-B:ILE:369:CD1:8211, V-B:ILE:369:CG2:8209, V-B:ASP:366:CA:8182, V-B:ILE:369:CB:8208"]

$$$$
9a_Ghoteimi_2023
     RDKit          3D

 48 54  0  0  0  0  0  0  0  0999 V2000
  131.0060  124.6320   56.8740 C   0  0  0  0  0  0  0  0  0  0  0  0
  132.0120  125.5570   56.1830 C   0  0  0  0  0  0  0  0  0  0  0  0
  133.2860  125.4180   56.8000 O   0  0  0  0  0  0  0  0  0  0  0  0
  133.5260  124.4270   57.6960 C   0  0  0  0  0  0  0  0  0  0  0  0
  134.1560  123.4000   57.4230 O   0  0  0  0  0  0  0  0  0  0  0  0
  132.9420  124.6980   59.0530 C   0  0  0  0  0  0  0  0  0  0  0  0
  132.1190  125.8170   59.2330 C   0  0  0  0  0  0  0  0  0  0  0  0
  131.5640  126.0970   60.4790 C   0  0  0  0  0  0  0  0  0  0  0  0
  131.8190  125.2650   61.5690 C   0  0  0  0  0  0  0  0  0  0  0  0
  131.2060  125.6450   62.7790 N   0  0  0  0  0  0  0  0  0  0  0  0
  131.0770  124.9700   63.9480 C   0  0  0  0  0  0  0  0  0  0  0  0
  131.5110  123.8350   64.1440 O   0  0  0  0  0  0  0  0  0  0  0  0
  130.3730  125.6920   65.0130 C   0  0  0  0  0  0  0  0  0  0  0  0
  130.6810  125.3050   66.7060 S   0  0  0  0  0  0  0  0  0  0  0  0
  129.5480  126.5250   67.2380 C   0  0  0  0  0  0  0  0  0  0  0  0
  129.3290  126.7580   68.5320 N   0  0  0  0  0  0  0  0  0  0  0  0
  128.4370  127.7360   68.8400 C   0  0  0  0  0  0  0  0  0  0  0  0
  128.2150  127.9870   70.2960 C   0  0  0  0  0  0  0  0  0  0  0  0
  129.2990  128.0590   71.1790 C   0  0  0  0  0  0  0  0  0  0  0  0
  129.1010  128.2930   72.5370 C   0  0  0  0  0  0  0  0  0  0  0  0
  127.8120  128.4800   73.0610 C   0  0  0  0  0  0  0  0  0  0  0  0
  127.5970  128.6970   74.4260 N   0  0  0  0  0  0  0  0  0  0  0  0
  126.4380  129.4740   74.9100 C   0  0  0  0  0  0  0  0  0  0  0  0
  126.5550  129.9150   76.3840 C   0  0  0  0  0  0  0  0  0  0  0  0
  126.7960  128.7890   77.2120 O   0  0  0  0  0  0  0  0  0  0  0  0
  128.0010  128.1300   76.8560 C   0  0  0  0  0  0  0  0  0  0  0  0
  127.9200  127.6330   75.3990 C   0  0  0  0  0  0  0  0  0  0  0  0
  126.7290  128.3930   72.1750 C   0  0  0  0  0  0  0  0  0  0  0  0
  126.9270  128.1550   70.8180 C   0  0  0  0  0  0  0  0  0  0  0  0
  127.7510  128.4550   67.8590 C   0  0  0  0  0  0  0  0  0  0  0  0
  127.9630  128.2000   66.5000 C   0  0  0  0  0  0  0  0  0  0  0  0
  127.1800  128.9680   65.4980 C   0  0  0  0  0  0  0  0  0  0  0  0
  127.6640  129.1450   64.2000 C   0  0  0  0  0  0  0  0  0  0  0  0
  126.9230  129.8530   63.2590 C   0  0  0  0  0  0  0  0  0  0  0  0
  125.6670  130.3900   63.5870 C   0  0  0  0  0  0  0  0  0  0  0  0
  124.9100  131.1140   62.6630 N   0  0  0  0  0  0  0  0  0  0  0  0
  124.9390  130.7180   61.2410 C   0  0  0  0  0  0  0  0  0  0  0  0
  123.7930  131.3360   60.4110 C   0  0  0  0  0  0  0  0  0  0  0  0
  123.8040  132.7490   60.5440 O   0  0  0  0  0  0  0  0  0  0  0  0
  123.6320  133.1510   61.8940 C   0  0  0  0  0  0  0  0  0  0  0  0
  124.7740  132.5810   62.7630 C   0  0  0  0  0  0  0  0  0  0  0  0
  125.1900  130.2040   64.8920 C   0  0  0  0  0  0  0  0  0  0  0  0
  125.9330  129.4990   65.8340 C   0  0  0  0  0  0  0  0  0  0  0  0
  128.9210  127.2040   66.1530 C   0  0  0  0  0  0  0  0  0  0  0  0
  129.4290  126.7230   64.8920 C   0  0  0  0  0  0  0  0  0  0  0  0
  129.0300  127.2450   63.6890 N   0  0  0  0  0  0  0  0  0  0  0  0
  132.6400  124.1390   61.3980 C   0  0  0  0  0  0  0  0  0  0  0  0
  133.1940  123.8620   60.1510 C   0  0  0  0  0  0  0  0  0  0  0  0
  1  2  1  0
  2  3  1  0
  3  4  1  0
  4  5  2  0
  4  6  1  0
  6  7  2  0
  7  8  1  0
  8  9  2  0
  9 10  1  0
 10 11  1  0
 11 12  2  0
 11 13  1  0
 13 14  1  0
 14 15  1  0
 15 16  2  0
 16 17  1  0
 17 18  1  0
 18 19  2  0
 19 20  1  0
 20 21  2  0
 21 22  1  0
 22 23  1  0
 23 24  1  0
 24 25  1  0
 25 26  1  0
 26 27  1  0
 21 28  1  0
 28 29  2  0
 17 30  2  0
 30 31  1  0
 31 32  1  0
 32 33  2  0
 33 34  1  0
 34 35  2  0
 35 36  1  0
 36 37  1  0
 37 38  1  0
 38 39  1  0
 39 40  1  0
 40 41  1  0
 35 42  1  0
 42 43  2  0
 31 44  2  0
 44 45  1  0
 45 46  1  0
  9 47  1  0
 47 48  2  0
 48  6  1  0
 45 13  2  0
 44 15  1  0
 29 18  1  0
 43 32  1  0
 27 22  1  0
 41 36  1  0
M  END
>  <Binding energies>  (39) 
[1.59]

>  <Ligand effiencies>  (39) 
[0.031176470588235295]

>  <Interactions>  (39) 
["H-B:GLU:543:OE1:9881, V-B:TYR:539:CZ:9849, V-B:ASP:366:CG:8185, V-B:TYR:539:CE2:9848, V-A:ASP:366:CG:3211, H-A:TYR:531:OH:4793, V-A:ASP:366:CB:3210, V-A:TYR:531:CZ:4792, V-A:GLU:543:CD:4906, V-B:ARG:545:CZ:9898, V-B:GLU:543:CD:9880, H-B:GLU:543:OE2:9882, V-A:ARG:545:CZ:4924, H-A:GLU:543:OE2:4908, H-A:GLU:543:OE1:4907, H-A:TYR:484:OH:4346, H-B:TYR:539:OH:9850, V-A:TYR:531:CE1:4790, V-A:ASP:366:CA:3208, V-B:HIS:456:CE1:9042, V-B:VAL:458:CG2:9059, V-B:LYS:471:CD:9191, V-B:GLY:544:C:9884, V-B:LYS:471:CE:9192, V-B:HIS:456:CD2:9040, V-A:LYS:547:CE:4948, V-B:HIS:456:CG:9038, V-B:HIS:456:CB:9037, V-A:HIS:456:CE1:4068, V-A:GLY:544:C:4910, V-B:LYS:547:CE:9922, V-B:GLY:454:CA:9021, V-B:GLU:543:CG:9879, V-A:GLU:543:CG:4905, V-A:TYR:484:CZ:4345, V-B:ARG:545:CG:9894, V-B:GLU:543:CB:9878, V-B:ILE:369:CD1:8211, V-A:GLY:544:CA:4912, V-B:ILE:369:CG2:8209, V-A:GLU:543:CB:4904, V-B:LEU:475:CD2:9231, V-A:ASP:366:C:3206, V-B:LYS:547:CD:9921, V-B:ARG:545:CA:9891"]

$$$$
9b_Ghoteimi_2023
     RDKit          3D

 42 48  0  0  0  0  0  0  0  0999 V2000
  128.5590  128.0750   63.4780 N   0  0  0  0  0  0  0  0  0  0  0  0
  128.1150  128.3710   64.7420 C   0  0  0  0  0  0  0  0  0  0  0  0
  127.0710  129.2720   65.0050 C   0  0  0  0  0  0  0  0  0  0  0  0
  126.2570  130.0300   64.0510 C   0  0  0  0  0  0  0  0  0  0  0  0
  125.1870  129.5780   63.6390 O   0  0  0  0  0  0  0  0  0  0  0  0
  126.7690  131.2270   63.6700 N   0  0  0  0  0  0  0  0  0  0  0  0
  126.2180  132.1380   62.7770 C   0  0  0  0  0  0  0  0  0  0  0  0
  126.9640  132.7830   61.7920 C   0  0  0  0  0  0  0  0  0  0  0  0
  126.0640  133.5850   61.1300 C   0  0  0  0  0  0  0  0  0  0  0  0
  124.8390  133.4310   61.6880 O   0  0  0  0  0  0  0  0  0  0  0  0
  124.9500  132.5120   62.7310 N   0  0  0  0  0  0  0  0  0  0  0  0
  126.7900  129.4340   66.7380 S   0  0  0  0  0  0  0  0  0  0  0  0
  128.0790  128.3120   67.0990 C   0  0  0  0  0  0  0  0  0  0  0  0
  128.4100  128.0080   68.3520 N   0  0  0  0  0  0  0  0  0  0  0  0
  129.4390  127.1380   68.5250 C   0  0  0  0  0  0  0  0  0  0  0  0
  129.8030  126.8300   69.9420 C   0  0  0  0  0  0  0  0  0  0  0  0
  131.1380  126.8450   70.3660 C   0  0  0  0  0  0  0  0  0  0  0  0
  131.4720  126.5430   71.6820 C   0  0  0  0  0  0  0  0  0  0  0  0
  130.4860  126.2010   72.6200 C   0  0  0  0  0  0  0  0  0  0  0  0
  130.8060  125.8980   73.9490 N   0  0  0  0  0  0  0  0  0  0  0  0
  131.3540  126.9230   74.8600 C   0  0  0  0  0  0  0  0  0  0  0  0
  131.3200  126.5160   76.3470 C   0  0  0  0  0  0  0  0  0  0  0  0
  131.9800  125.2730   76.5260 O   0  0  0  0  0  0  0  0  0  0  0  0
  131.3540  124.2410   75.7820 C   0  0  0  0  0  0  0  0  0  0  0  0
  131.3830  124.5780   74.2760 C   0  0  0  0  0  0  0  0  0  0  0  0
  129.1500  126.2070   72.1950 C   0  0  0  0  0  0  0  0  0  0  0  0
  128.8150  126.5130   70.8790 C   0  0  0  0  0  0  0  0  0  0  0  0
  130.1140  126.5560   67.4490 C   0  0  0  0  0  0  0  0  0  0  0  0
  129.7560  126.8570   66.1290 C   0  0  0  0  0  0  0  0  0  0  0  0
  130.4840  126.1890   65.0210 C   0  0  0  0  0  0  0  0  0  0  0  0
  131.7160  125.5780   65.2550 C   0  0  0  0  0  0  0  0  0  0  0  0
  132.3920  124.9350   64.2220 C   0  0  0  0  0  0  0  0  0  0  0  0
  131.8540  124.8860   62.9260 C   0  0  0  0  0  0  0  0  0  0  0  0
  132.5080  124.2330   61.8790 N   0  0  0  0  0  0  0  0  0  0  0  0
  132.5880  122.7590   61.8850 C   0  0  0  0  0  0  0  0  0  0  0  0
  133.6550  122.2040   60.9160 C   0  0  0  0  0  0  0  0  0  0  0  0
  133.4170  122.6890   59.6030 O   0  0  0  0  0  0  0  0  0  0  0  0
  133.4690  124.1070   59.5490 C   0  0  0  0  0  0  0  0  0  0  0  0
  132.4020  124.7110   60.4860 C   0  0  0  0  0  0  0  0  0  0  0  0
  130.6070  125.4890   62.7080 C   0  0  0  0  0  0  0  0  0  0  0  0
  129.9310  126.1320   63.7410 C   0  0  0  0  0  0  0  0  0  0  0  0
  128.7030  127.7930   65.9250 C   0  0  0  0  0  0  0  0  0  0  0  0
  1  2  1  0
  2  3  2  0
  3  4  1  0
  4  5  2  0
  4  6  1  0
  6  7  1  0
  7  8  1  0
  8  9  2  0
  9 10  1  0
 10 11  1  0
  3 12  1  0
 12 13  1  0
 13 14  2  0
 14 15  1  0
 15 16  1  0
 16 17  2  0
 17 18  1  0
 18 19  2  0
 19 20  1  0
 20 21  1  0
 21 22  1  0
 22 23  1  0
 23 24  1  0
 24 25  1  0
 19 26  1  0
 26 27  2  0
 15 28  2  0
 28 29  1  0
 29 30  1  0
 30 31  2  0
 31 32  1  0
 32 33  2  0
 33 34  1  0
 34 35  1  0
 35 36  1  0
 36 37  1  0
 37 38  1  0
 38 39  1  0
 33 40  1  0
 40 41  2  0
 29 42  2  0
 42  2  1  0
 11  7  2  0
 42 13  1  0
 27 16  1  0
 41 30  1  0
 25 20  1  0
 39 34  1  0
M  END
>  <Binding energies>  (40) 
[-1.44]

>  <Ligand effiencies>  (40) 
[-0.032]

>  <Interactions>  (40) 
["H-B:GLU:543:OE1:9881, H-B:ARG:545:NH2:9900, V-A:LEU:475:CD2:4257, V-A:ASP:366:CG:3211, V-A:ASP:366:CB:3210, V-A:GLU:543:CD:4906, V-B:GLU:543:CD:9880, H-B:GLU:543:OE2:9882, V-A:ARG:545:CZ:4924, H-A:GLU:543:OE2:4908, H-A:GLU:543:OE1:4907, V-A:TYR:539:CE2:4874, V-A:ALA:541:CB:4890, H-B:TYR:484:OH:9320, V-A:ILE:369:CG2:3235, V-A:ILE:369:CD1:3237, V-A:TYR:539:CD2:4872, V-A:LYS:471:CE:4218, V-B:HIS:456:CE1:9042, V-A:HIS:456:CB:4063, V-A:HIS:456:CD2:4066, V-B:GLY:544:C:9884, V-A:HIS:456:CG:4064, V-A:LYS:547:CE:4948, H-B:LYS:547:NZ:9923, V-A:HIS:456:CE1:4068, V-A:GLY:544:C:4910, V-B:LYS:547:CE:9922, V-B:GLY:544:CA:9886, V-B:GLU:543:CG:9879, V-B:GLU:543:C:9874, V-A:GLU:543:CG:4905, V-B:GLU:543:CB:9878, H-B:ARG:545:NE:9896, V-A:GLU:543:CB:4904, V-B:TYR:484:CZ:9319, V-B:LEU:475:CD2:9231, V-A:ARG:545:CA:4917, V-A:LYS:547:CD:4947"]

$$$$
9c_Ghoteimi_2023
     RDKit          3D

 42 48  0  0  0  0  0  0  0  0999 V2000
  128.3590  128.1630   63.4490 N   0  0  0  0  0  0  0  0  0  0  0  0
  127.9830  128.5180   64.7200 C   0  0  0  0  0  0  0  0  0  0  0  0
  127.0380  129.5180   64.9960 C   0  0  0  0  0  0  0  0  0  0  0  0
  126.2750  130.3390   64.0520 C   0  0  0  0  0  0  0  0  0  0  0  0
  125.0490  130.4320   64.1430 O   0  0  0  0  0  0  0  0  0  0  0  0
  127.0090  130.9620   63.0970 N   0  0  0  0  0  0  0  0  0  0  0  0
  126.5360  131.7800   62.0810 C   0  0  0  0  0  0  0  0  0  0  0  0
  125.3580  131.7420   61.4950 N   0  0  0  0  0  0  0  0  0  0  0  0
  125.2510  132.6680   60.5620 C   0  0  0  0  0  0  0  0  0  0  0  0
  126.3630  133.4850   60.3740 C   0  0  0  0  0  0  0  0  0  0  0  0
  127.6100  133.0050   61.4860 S   0  0  0  0  0  0  0  0  0  0  0  0
  126.8210  129.7290   66.7330 S   0  0  0  0  0  0  0  0  0  0  0  0
  128.0080  128.4940   67.0770 C   0  0  0  0  0  0  0  0  0  0  0  0
  128.3430  128.1750   68.3270 N   0  0  0  0  0  0  0  0  0  0  0  0
  129.2890  127.2140   68.4860 C   0  0  0  0  0  0  0  0  0  0  0  0
  129.6610  126.8910   69.8970 C   0  0  0  0  0  0  0  0  0  0  0  0
  128.6830  126.5990   70.8550 C   0  0  0  0  0  0  0  0  0  0  0  0
  129.0330  126.3080   72.1700 C   0  0  0  0  0  0  0  0  0  0  0  0
  130.3770  126.3130   72.5790 C   0  0  0  0  0  0  0  0  0  0  0  0
  130.7460  126.0160   73.8960 N   0  0  0  0  0  0  0  0  0  0  0  0
  131.3130  127.0490   74.7870 C   0  0  0  0  0  0  0  0  0  0  0  0
  131.3310  126.6460   76.2770 C   0  0  0  0  0  0  0  0  0  0  0  0
  132.0120  125.4120   76.4350 O   0  0  0  0  0  0  0  0  0  0  0  0
  131.3730  124.3710   75.7140 C   0  0  0  0  0  0  0  0  0  0  0  0
  131.3500  124.7040   74.2070 C   0  0  0  0  0  0  0  0  0  0  0  0
  131.3530  126.5880   71.6110 C   0  0  0  0  0  0  0  0  0  0  0  0
  131.0010  126.8740   70.2950 C   0  0  0  0  0  0  0  0  0  0  0  0
  129.8740  126.5560   67.4010 C   0  0  0  0  0  0  0  0  0  0  0  0
  129.5100  126.8720   66.0880 C   0  0  0  0  0  0  0  0  0  0  0  0
  130.1380  126.1230   64.9710 C   0  0  0  0  0  0  0  0  0  0  0  0
  130.9210  124.9970   65.2300 C   0  0  0  0  0  0  0  0  0  0  0  0
  131.4980  124.2820   64.1830 C   0  0  0  0  0  0  0  0  0  0  0  0
  131.3080  124.6760   62.8500 C   0  0  0  0  0  0  0  0  0  0  0  0
  131.8680  123.9660   61.7830 N   0  0  0  0  0  0  0  0  0  0  0  0
  133.2860  124.1880   61.4360 C   0  0  0  0  0  0  0  0  0  0  0  0
  133.6600  123.6600   60.0350 C   0  0  0  0  0  0  0  0  0  0  0  0
  133.3270  122.2830   59.9300 O   0  0  0  0  0  0  0  0  0  0  0  0
  131.9390  122.0630   60.1270 C   0  0  0  0  0  0  0  0  0  0  0  0
  131.5180  122.5550   61.5290 C   0  0  0  0  0  0  0  0  0  0  0  0
  130.5020  125.7970   62.6010 C   0  0  0  0  0  0  0  0  0  0  0  0
  129.9250  126.5110   63.6470 C   0  0  0  0  0  0  0  0  0  0  0  0
  128.5460  127.9020   65.8960 C   0  0  0  0  0  0  0  0  0  0  0  0
  1  2  1  0
  2  3  2  0
  3  4  1  0
  4  5  2  0
  4  6  1  0
  6  7  1  0
  7  8  2  0
  8  9  1  0
  9 10  2  0
 10 11  1  0
  3 12  1  0
 12 13  1  0
 13 14  2  0
 14 15  1  0
 15 16  1  0
 16 17  2  0
 17 18  1  0
 18 19  2  0
 19 20  1  0
 20 21  1  0
 21 22  1  0
 22 23  1  0
 23 24  1  0
 24 25  1  0
 19 26  1  0
 26 27  2  0
 15 28  2  0
 28 29  1  0
 29 30  1  0
 30 31  2  0
 31 32  1  0
 32 33  2  0
 33 34  1  0
 34 35  1  0
 35 36  1  0
 36 37  1  0
 37 38  1  0
 38 39  1  0
 33 40  1  0
 40 41  2  0
 29 42  2  0
 42  2  1  0
 11  7  1  0
 42 13  1  0
 27 16  1  0
 41 30  1  0
 25 20  1  0
 39 34  1  0
M  END
>  <Binding energies>  (41) 
[-2.15]

>  <Ligand effiencies>  (41) 
[-0.04777777777777777]

>  <Interactions>  (41) 
["H-B:GLU:543:OE1:9881, V-B:TYR:539:CE2:9848, V-B:TYR:539:CD2:9846, V-A:GLU:543:CD:4906, V-B:GLU:543:CD:9880, H-B:GLU:543:OE2:9882, H-A:GLU:543:OE2:4908, H-A:GLU:543:OE1:4907, V-A:TYR:539:CE2:4874, H-B:GLY:454:N:9022, V-A:ALA:541:CB:4890, H-B:TYR:484:OH:9320, V-A:ILE:369:CG2:3235, V-A:ILE:369:CD1:3237, V-A:TYR:539:CD2:4872, V-A:LYS:471:CE:4218, V-B:HIS:456:CE1:9042, V-A:HIS:456:CB:4063, V-A:HIS:456:CD2:4066, V-B:GLY:544:C:9884, V-A:HIS:456:CG:4064, V-A:LYS:547:CE:4948, H-B:LYS:547:NZ:9923, V-A:HIS:456:CE1:4068, V-A:GLY:544:C:4910, V-B:LYS:547:CE:9922, V-B:GLY:544:CA:9886, V-B:GLU:543:CG:9879, V-B:GLU:543:C:9874, V-A:GLU:543:CG:4905, V-B:GLU:543:CB:9878, V-A:GLU:543:CB:4904, V-B:TYR:484:CZ:9319, V-A:ARG:545:CA:4917, V-A:LYS:547:CD:4947"]

$$$$
RR11_Rahimova_2017
     RDKit          3D

 33 38  0  0  0  0  0  0  0  0999 V2000
  133.5930  132.1110   55.5310 N   0  0  0  0  0  0  0  0  0  0  0  0
  132.4120  131.9100   56.2430 C   0  0  0  0  0  0  0  0  0  0  0  0
  132.4650  131.4860   57.5700 C   0  0  0  0  0  0  0  0  0  0  0  0
  131.2850  131.2880   58.2800 C   0  0  0  0  0  0  0  0  0  0  0  0
  130.0420  131.5110   57.6730 C   0  0  0  0  0  0  0  0  0  0  0  0
  128.7720  131.3030   58.4430 C   0  0  0  0  0  0  0  0  0  0  0  0
  128.7150  130.8460   59.6750 N   0  0  0  0  0  0  0  0  0  0  0  0
  127.3820  130.8250   59.9920 C   0  0  0  0  0  0  0  0  0  0  0  0
  126.7620  130.4310   61.1860 C   0  0  0  0  0  0  0  0  0  0  0  0
  125.3680  130.5190   61.2720 C   0  0  0  0  0  0  0  0  0  0  0  0
  124.6660  130.0930   62.5550 C   0  0  0  0  0  0  0  0  0  0  0  0
  125.5960  130.0670   63.7600 C   0  0  0  0  0  0  0  0  0  0  0  0
  126.3610  131.1980   64.0640 C   0  0  0  0  0  0  0  0  0  0  0  0
  127.2210  131.2260   65.1630 C   0  0  0  0  0  0  0  0  0  0  0  0
  127.2990  130.0830   65.9700 C   0  0  0  0  0  0  0  0  0  0  0  0
  128.0620  129.8580   67.0860 N   0  0  0  0  0  0  0  0  0  0  0  0
  127.7710  128.6320   67.4650 C   0  0  0  0  0  0  0  0  0  0  0  0
  128.3850  127.9410   68.6480 C   0  0  0  0  0  0  0  0  0  0  0  0
  127.6050  127.6210   69.7670 C   0  0  0  0  0  0  0  0  0  0  0  0
  128.1760  126.9890   70.8690 C   0  0  0  0  0  0  0  0  0  0  0  0
  129.5330  126.6720   70.8590 C   0  0  0  0  0  0  0  0  0  0  0  0
  130.1070  126.0440   71.9640 N   0  0  0  0  0  0  0  0  0  0  0  0
  130.3190  126.9810   69.7520 C   0  0  0  0  0  0  0  0  0  0  0  0
  129.7470  127.6130   68.6510 C   0  0  0  0  0  0  0  0  0  0  0  0
  126.8360  128.0450   66.6390 N   0  0  0  0  0  0  0  0  0  0  0  0
  126.5090  128.9510   65.6580 C   0  0  0  0  0  0  0  0  0  0  0  0
  125.6420  128.9190   64.5630 C   0  0  0  0  0  0  0  0  0  0  0  0
  124.6120  130.9640   60.1820 C   0  0  0  0  0  0  0  0  0  0  0  0
  125.2000  131.3580   58.9770 C   0  0  0  0  0  0  0  0  0  0  0  0
  126.5930  131.2810   58.9100 C   0  0  0  0  0  0  0  0  0  0  0  0
  127.5180  131.5750   57.9350 N   0  0  0  0  0  0  0  0  0  0  0  0
  130.0030  131.9360   56.3380 C   0  0  0  0  0  0  0  0  0  0  0  0
  131.1830  132.1360   55.6250 C   0  0  0  0  0  0  0  0  0  0  0  0
  1  2  1  0
  2  3  2  0
  3  4  1  0
  4  5  2  0
  5  6  1  0
  6  7  2  0
  7  8  1  0
  8  9  2  0
  9 10  1  0
 10 11  1  0
 11 12  1  0
 12 13  2  0
 13 14  1  0
 14 15  2  0
 15 16  1  0
 16 17  2  0
 17 18  1  0
 18 19  2  0
 19 20  1  0
 20 21  2  0
 21 22  1  0
 21 23  1  0
 23 24  2  0
 17 25  1  0
 25 26  1  0
 26 27  2  0
 10 28  2  0
 28 29  1  0
 29 30  2  0
 30 31  1  0
  5 32  1  0
 32 33  2  0
 33  2  1  0
 31  6  1  0
 30  8  1  0
 27 12  1  0
 26 15  1  0
 24 18  1  0
M  END
>  <Binding energies>  (42) 
[-6.63]

>  <Ligand effiencies>  (42) 
[-0.16999999999999998]

>  <Interactions>  (42) 
["V-B:ASP:366:CG:8185, V-A:PRO:540:N:4882, V-A:ILE:538:CA:4858, V-A:TYR:539:CZ:4875, V-A:TYR:531:CE2:4791, H-A:TYR:531:OH:4793, V-A:TYR:539:C:4865, V-A:LEU:363:CD1:3187, V-A:ILE:538:CB:4860, V-A:PRO:540:CA:4881, V-A:ILE:538:CG2:4861, V-A:TYR:531:CZ:4792, V-A:GLU:543:CD:4906, V-A:PRO:540:CB:4883, V-B:ARG:545:CZ:9898, V-B:GLU:543:CD:9880, H-B:GLU:543:OE2:9882, V-A:PRO:540:CD:4885, V-A:TYR:539:CE2:4874, H-A:TYR:539:OH:4876, V-A:TYR:539:CD2:4872, V-B:HIS:456:CE1:9042, V-A:HIS:456:CD2:4066, V-B:GLY:544:C:9884, H-A:GLY:544:O:4911, V-A:HIS:456:CG:4064, V-B:HIS:456:CD2:9040, V-A:HIS:456:CE1:4068, H-A:HIS:456:NE2:4069, V-A:GLY:544:C:4910, V-B:GLY:544:CA:9886, H-B:GLU:543:O:9875, V-B:GLU:543:CG:9879, V-B:GLU:543:C:9874, V-A:GLU:543:CG:4905, V-B:ARG:545:CG:9894, V-A:GLU:543:C:4900, V-A:GLU:543:CB:4904, V-B:ARG:545:CD:9895, V-B:TYR:484:CZ:9319, V-A:ILE:538:CD1:4863, V-B:TYR:484:CE1:9317"]

$$$$
RR16_Rahimova_2017
     RDKit          3D

 44 49  0  0  0  0  0  0  0  0999 V2000
  130.6460  124.4210   66.5340 O   0  0  0  0  0  0  0  0  0  0  0  0
  131.0530  125.5550   65.6970 S   0  0  0  0  0  0  0  0  0  0  0  0
  132.3300  126.2400   65.9250 O   0  0  0  0  0  0  0  0  0  0  0  0
  129.7650  126.7590   65.7710 N   0  0  0  0  0  0  0  0  0  0  0  0
  129.5230  127.5410   67.0060 C   0  0  0  0  0  0  0  0  0  0  0  0
  128.0510  128.0270   67.0220 C   0  0  0  0  0  0  0  0  0  0  0  0
  127.0280  127.1600   67.7820 C   0  0  0  0  0  0  0  0  0  0  0  0
  127.1440  127.2570   69.3130 C   0  0  0  0  0  0  0  0  0  0  0  0
  128.3810  128.0050   69.8470 C   0  0  0  0  0  0  0  0  0  0  0  0
  129.7590  127.3630   69.5900 C   0  0  0  0  0  0  0  0  0  0  0  0
  129.9600  126.6870   68.2190 C   0  0  0  0  0  0  0  0  0  0  0  0
  131.0310  124.9820   64.0020 C   0  0  0  0  0  0  0  0  0  0  0  0
  130.5490  125.8090   62.9850 C   0  0  0  0  0  0  0  0  0  0  0  0
  130.4230  125.3090   61.6920 C   0  0  0  0  0  0  0  0  0  0  0  0
  130.7790  123.9860   61.4220 C   0  0  0  0  0  0  0  0  0  0  0  0
  130.4860  123.2980   59.7940 S   0  0  0  0  0  0  0  0  0  0  0  0
  129.3190  122.4120   59.8950 O   0  0  0  0  0  0  0  0  0  0  0  0
  131.7680  122.7810   59.2980 O   0  0  0  0  0  0  0  0  0  0  0  0
  130.0360  124.7010   58.8050 N   0  0  0  0  0  0  0  0  0  0  0  0
  131.1750  125.5770   58.4250 C   0  0  0  0  0  0  0  0  0  0  0  0
  130.6600  126.9110   57.8480 C   0  0  0  0  0  0  0  0  0  0  0  0
  129.6570  126.6870   56.6890 C   0  0  0  0  0  0  0  0  0  0  0  0
  129.0980  127.9990   56.1320 C   0  0  0  0  0  0  0  0  0  0  0  0
  127.7120  128.1660   56.0050 C   0  0  0  0  0  0  0  0  0  0  0  0
  127.1590  129.3480   55.5100 C   0  0  0  0  0  0  0  0  0  0  0  0
  125.8000  129.4950   55.3960 O   0  0  0  0  0  0  0  0  0  0  0  0
  128.0310  130.3820   55.1380 C   0  0  0  0  0  0  0  0  0  0  0  0
  127.7820  131.6320   54.6490 N   0  0  0  0  0  0  0  0  0  0  0  0
  128.9970  132.2600   54.4800 N   0  0  0  0  0  0  0  0  0  0  0  0
  129.9740  131.3960   54.8160 N   0  0  0  0  0  0  0  0  0  0  0  0
  131.3660  131.8250   54.8140 C   0  0  0  0  0  0  0  0  0  0  0  0
  132.0540  131.5960   56.1520 C   0  0  0  0  0  0  0  0  0  0  0  0
  133.4490  131.5060   56.2180 C   0  0  0  0  0  0  0  0  0  0  0  0
  134.0830  131.3180   57.4470 C   0  0  0  0  0  0  0  0  0  0  0  0
  133.3270  131.2200   58.6150 C   0  0  0  0  0  0  0  0  0  0  0  0
  131.9360  131.3110   58.5570 C   0  0  0  0  0  0  0  0  0  0  0  0
  130.9990  131.2010   60.0010 Cl  0  0  0  0  0  0  0  0  0  0  0  0
  131.3010  131.4950   57.3270 C   0  0  0  0  0  0  0  0  0  0  0  0
  129.4290  130.2030   55.2620 C   0  0  0  0  0  0  0  0  0  0  0  0
  129.9850  129.0180   55.7550 C   0  0  0  0  0  0  0  0  0  0  0  0
  128.5460  125.6700   57.0610 C   0  0  0  0  0  0  0  0  0  0  0  0
  129.1270  124.3800   57.6740 C   0  0  0  0  0  0  0  0  0  0  0  0
  131.3010  123.1740   62.4320 C   0  0  0  0  0  0  0  0  0  0  0  0
  131.4230  123.6720   63.7240 C   0  0  0  0  0  0  0  0  0  0  0  0
  1  2  2  0
  2  3  2  0
  2  4  1  0
  4  5  1  0
  5  6  1  0
  6  7  1  0
  7  8  1  0
  8  9  1  0
  9 10  1  0
 10 11  1  0
  2 12  1  0
 12 13  2  0
 13 14  1  0
 14 15  2  0
 15 16  1  0
 16 17  2  0
 16 18  2  0
 16 19  1  0
 19 20  1  0
 20 21  1  0
 21 22  1  0
 22 23  1  0
 23 24  2  0
 24 25  1  0
 25 26  1  0
 25 27  2  0
 27 28  1  0
 28 29  2  0
 29 30  1  0
 30 31  1  0
 31 32  1  0
 32 33  2  0
 33 34  1  0
 34 35  2  0
 35 36  1  0
 36 37  1  0
 36 38  2  0
 30 39  1  0
 39 40  2  0
 22 41  1  0
 41 42  1  0
 15 43  1  0
 43 44  2  0
 11  5  1  0
 44 12  1  0
 42 19  1  0
 40 23  1  0
 39 27  1  0
 38 32  1  0
M  END
>  <Binding energies>  (43) 
[-10.48]

>  <Ligand effiencies>  (43) 
[-0.21833333333333335]

>  <Interactions>  (43) 
["H-B:GLU:543:OE1:9881, V-B:TYR:539:CE2:9848, V-A:ASP:366:CG:3211, V-A:PRO:540:N:4882, H-A:TYR:539:N:4868, V-A:ILE:538:CA:4858, V-A:TYR:531:CE2:4791, V-A:LEU:363:CA:3183, V-A:LEU:363:CD1:3187, V-A:ILE:538:CB:4860, V-A:PRO:540:CA:4881, V-A:ILE:538:CG2:4861, V-A:TYR:531:CZ:4792, V-A:GLU:543:CD:4906, V-A:PRO:540:CB:4883, V-B:GLU:543:CD:9880, H-B:TYR:531:OH:9767, H-B:GLU:543:OE2:9882, H-A:GLU:543:OE2:4908, H-A:GLU:543:OE1:4907, V-A:LEU:363:CB:3185, H-A:TYR:484:OH:4346, H-A:ARG:545:NE:4922, H-A:TYR:539:OH:4876, V-B:HIS:456:CE1:9042, V-B:GLY:544:C:9884, V-B:HIS:456:CD2:9040, V-A:HIS:456:CE1:4068, V-B:GLY:544:CA:9886, V-B:GLU:543:CG:9879, V-B:GLU:543:C:9874, V-A:GLU:543:CG:4905, V-B:ARG:545:CG:9894, V-B:GLU:543:CB:9878, V-A:GLU:543:C:4900, V-B:ARG:545:CA:9891"]

$$$$
RR18_Rahimova_2017
     RDKit          3D

 36 41  0  0  0  0  0  0  0  0999 V2000
  133.6100  131.3670   60.5870 C   0  0  0  0  0  0  0  0  0  0  0  0
  132.1520  131.0160   60.7380 C   0  0  0  0  0  0  0  0  0  0  0  0
  131.1610  131.3730   61.6380 C   0  0  0  0  0  0  0  0  0  0  0  0
  130.0000  130.7090   61.2440 C   0  0  0  0  0  0  0  0  0  0  0  0
  130.3230  129.9700   60.1170 C   0  0  0  0  0  0  0  0  0  0  0  0
  129.5320  129.0410   59.1990 C   0  0  1  0  0  0  0  0  0  0  0  0
  128.9700  129.8040   57.9620 C   0  0  0  0  0  0  0  0  0  0  0  0
  127.9700  130.8530   58.1330 C   0  0  0  0  0  0  0  0  0  0  0  0
  127.8450  131.7710   57.3200 O   0  0  0  0  0  0  0  0  0  0  0  0
  127.2010  130.7110   59.2380 N   0  0  0  0  0  0  0  0  0  0  0  0
  126.1620  131.5260   59.7370 C   0  0  0  0  0  0  0  0  0  0  0  0
  124.7980  131.2060   59.6120 C   0  0  0  0  0  0  0  0  0  0  0  0
  123.8190  132.0570   60.1220 C   0  0  0  0  0  0  0  0  0  0  0  0
  124.1850  133.2400   60.7570 C   0  0  0  0  0  0  0  0  0  0  0  0
  125.5310  133.5760   60.8780 C   0  0  0  0  0  0  0  0  0  0  0  0
  126.5250  132.7310   60.3720 C   0  0  0  0  0  0  0  0  0  0  0  0
  127.9850  133.1470   60.5270 C   0  0  0  0  0  0  0  0  0  0  0  0
  129.5050  129.5410   56.7410 C   0  0  0  0  0  0  0  0  0  0  0  0
  130.4250  128.5690   56.4890 N   0  0  0  0  0  0  0  0  0  0  0  0
  130.7760  127.7730   57.4310 C   0  0  0  0  0  0  0  0  0  0  0  0
  131.8250  126.3910   57.2230 S   0  0  0  0  0  0  0  0  0  0  0  0
  131.6780  125.9530   58.9540 C   0  0  0  0  0  0  0  0  0  0  0  0
  132.2700  124.8860   59.5960 C   0  0  0  0  0  0  0  0  0  0  0  0
  133.0630  123.9100   58.8360 C   0  0  0  0  0  0  0  0  0  0  0  0
  133.3410  123.8760   57.6380 O   0  0  0  0  0  0  0  0  0  0  0  0
  133.4640  122.9670   59.6950 N   0  0  0  0  0  0  0  0  0  0  0  0
  133.0610  123.2070   60.9740 C   0  0  0  0  0  0  0  0  0  0  0  0
  133.3160  122.4390   62.1090 C   0  0  0  0  0  0  0  0  0  0  0  0
  132.8370  122.8780   63.3400 C   0  0  0  0  0  0  0  0  0  0  0  0
  132.1240  124.0730   63.4160 C   0  0  0  0  0  0  0  0  0  0  0  0
  131.8800  124.8250   62.2630 C   0  0  0  0  0  0  0  0  0  0  0  0
  132.3360  124.3860   61.0060 C   0  0  0  0  0  0  0  0  0  0  0  0
  130.7930  126.9270   59.5930 C   0  0  0  0  0  0  0  0  0  0  0  0
  130.4190  126.9170   60.7620 O   0  0  0  0  0  0  0  0  0  0  0  0
  130.3790  127.8890   58.7240 N   0  0  0  0  0  0  0  0  0  0  0  0
  131.6350  130.1620   59.8160 O   0  0  0  0  0  0  0  0  0  0  0  0
  1  2  1  0
  2  3  2  0
  3  4  1  0
  4  5  2  0
  6  5  1  1
  6  7  1  0
  7  8  1  0
  8  9  2  0
  8 10  1  0
 10 11  1  0
 11 12  2  0
 12 13  1  0
 13 14  2  0
 14 15  1  0
 15 16  2  0
 16 17  1  0
  7 18  2  0
 18 19  1  0
 19 20  2  0
 20 21  1  0
 21 22  1  0
 22 23  2  0
 23 24  1  0
 24 25  2  0
 24 26  1  0
 26 27  1  0
 27 28  2  0
 28 29  1  0
 29 30  2  0
 30 31  1  0
 31 32  2  0
 22 33  1  0
 33 34  2  0
 33 35  1  0
  5 36  1  0
 36  2  1  0
 35  6  1  0
 16 11  1  0
 35 20  1  0
 32 23  1  0
 32 27  1  0
M  END
>  <Binding energies>  (44) 
[-8.25]

>  <Ligand effiencies>  (44) 
[-0.21710526315789475]

>  <Interactions>  (44) 
["V-B:TYR:539:CE2:9848, V-A:LEU:475:CD2:4257, V-A:ASP:366:CG:3211, H-A:TYR:531:OH:4793, V-A:ASP:366:CB:3210, V-A:PRO:540:CA:4881, V-A:GLU:543:CD:4906, V-A:PRO:540:CB:4883, V-A:ASN:362:CB:3174, V-A:GLY:454:CA:4047, V-A:TYR:539:CE2:4874, V-A:ALA:541:CB:4890, H-B:TYR:539:OH:9850, H-A:ARG:545:NH2:4926, V-A:ILE:369:CG2:3235, V-A:ILE:369:CD1:3237, V-A:ASN:362:C:3170, V-A:PRO:540:C:4879, V-A:TYR:539:CD2:4872, V-A:ALA:541:CA:4888, V-B:ILE:369:CD1:8211, V-B:ILE:369:CG2:8209, V-B:LEU:475:CD2:9231, V-B:ILE:369:CB:8208, V-A:ASN:362:CA:3172"]

$$$$
RR20_Rahimova_2017
     RDKit          3D

 38 43  0  0  0  0  0  0  0  0999 V2000
  133.9770  131.3510   58.2370 C   0  0  0  0  0  0  0  0  0  0  0  0
  132.7390  131.4710   57.3670 C   0  0  0  0  0  0  0  0  0  0  0  0
  131.4770  131.5310   57.9590 C   0  0  0  0  0  0  0  0  0  0  0  0
  130.3410  131.6510   57.1630 C   0  0  0  0  0  0  0  0  0  0  0  0
  130.4560  131.6980   55.7690 C   0  0  0  0  0  0  0  0  0  0  0  0
  129.2100  131.8480   54.9230 C   0  0  0  0  0  0  0  0  0  0  0  0
  129.1110  132.8630   54.2300 O   0  0  0  0  0  0  0  0  0  0  0  0
  128.2630  130.8660   54.9460 N   0  0  0  0  0  0  0  0  0  0  0  0
  127.0400  130.9540   54.1320 C   0  0  0  0  0  0  0  0  0  0  0  0
  126.3170  129.6280   54.3010 C   0  0  0  0  0  0  0  0  0  0  0  0
  127.3710  128.7460   54.8980 C   0  0  0  0  0  0  0  0  0  0  0  0
  127.3140  127.3840   55.1940 C   0  0  0  0  0  0  0  0  0  0  0  0
  128.3490  126.7640   55.9050 C   0  0  0  0  0  0  0  0  0  0  0  0
  128.2920  125.2950   56.2170 C   0  0  0  0  0  0  0  0  0  0  0  0
  128.8340  124.8710   57.3470 N   0  0  0  0  0  0  0  0  0  0  0  0
  128.7090  123.5800   57.5250 C   0  0  0  0  0  0  0  0  0  0  0  0
  129.1530  122.8180   58.5950 N   0  0  0  0  0  0  0  0  0  0  0  0
  129.9150  123.2380   59.6340 C   0  0  0  0  0  0  0  0  0  0  0  0
  130.3060  124.3990   59.7770 O   0  0  0  0  0  0  0  0  0  0  0  0
  130.2950  122.2050   60.7210 C   0  0  0  0  0  0  0  0  0  0  0  0
  131.1630  122.7690   61.7720 N   0  0  0  0  0  0  0  0  0  0  0  0
  132.4080  123.3320   61.2310 C   0  0  0  0  0  0  0  0  0  0  0  0
  133.3880  123.6610   62.3800 C   0  0  0  0  0  0  0  0  0  0  0  0
  132.7200  124.3950   63.5430 C   0  0  0  0  0  0  0  0  0  0  0  0
  133.4830  125.0090   64.5420 C   0  0  0  0  0  0  0  0  0  0  0  0
  132.8740  125.6440   65.6220 C   0  0  0  0  0  0  0  0  0  0  0  0
  131.4860  125.6760   65.7130 C   0  0  0  0  0  0  0  0  0  0  0  0
  130.7140  125.0770   64.7200 C   0  0  0  0  0  0  0  0  0  0  0  0
  131.3130  124.4340   63.6310 C   0  0  0  0  0  0  0  0  0  0  0  0
  130.4650  123.8280   62.5120 C   0  0  0  0  0  0  0  0  0  0  0  0
  127.8900  122.7630   56.2520 S   0  0  0  0  0  0  0  0  0  0  0  0
  127.7140  124.2870   55.4150 C   0  0  0  0  0  0  0  0  0  0  0  0
  127.0540  124.3430   54.0550 C   0  0  0  0  0  0  0  0  0  0  0  0
  129.4160  127.5550   56.3590 C   0  0  0  0  0  0  0  0  0  0  0  0
  129.4670  128.9210   56.0810 C   0  0  0  0  0  0  0  0  0  0  0  0
  128.4670  129.5110   55.2960 C   0  0  0  0  0  0  0  0  0  0  0  0
  131.7280  131.6660   55.1830 C   0  0  0  0  0  0  0  0  0  0  0  0
  132.8650  131.5470   55.9780 C   0  0  0  0  0  0  0  0  0  0  0  0
  1  2  1  0
  2  3  2  0
  3  4  1  0
  4  5  2  0
  5  6  1  0
  6  7  2  0
  6  8  1  0
  8  9  1  0
  9 10  1  0
 10 11  1  0
 11 12  2  0
 12 13  1  0
 13 14  1  0
 14 15  1  0
 15 16  2  0
 16 17  1  0
 17 18  1  0
 18 19  2  0
 18 20  1  0
 20 21  1  0
 21 22  1  0
 22 23  1  0
 23 24  1  0
 24 25  2  0
 25 26  1  0
 26 27  2  0
 27 28  1  0
 28 29  2  0
 29 30  1  0
 16 31  1  0
 31 32  1  0
 32 33  1  0
 13 34  2  0
 34 35  1  0
 35 36  2  0
  5 37  1  0
 37 38  2  0
 38  2  1  0
 36  8  1  0
 36 11  1  0
 32 14  2  0
 30 21  1  0
 29 24  1  0
M  END
>  <Binding energies>  (45) 
[-11.11]

>  <Ligand effiencies>  (45) 
[-0.28487179487179487]

>  <Interactions>  (45) 
["V-B:PRO:540:N:9856, V-B:TYR:539:CZ:9849, V-B:ALA:541:CB:9864, V-B:TYR:539:CE2:9848, V-B:TYR:539:CE1:9847, V-B:TYR:539:CD1:9845, V-B:TYR:539:CD2:9846, V-B:MET:535:CE:9807, V-A:TYR:539:CE1:4873, V-A:ASP:366:CG:3211, V-A:PRO:540:N:4882, H-A:TYR:539:N:4868, V-A:ILE:538:CA:4858, V-A:TYR:539:CZ:4875, V-A:TYR:531:CE2:4791, V-A:LEU:363:CA:3183, V-A:TYR:539:C:4865, V-A:LEU:363:CD1:3187, V-A:ILE:538:CB:4860, V-A:PRO:540:CA:4881, V-A:ILE:538:CG2:4861, V-A:TYR:531:CZ:4792, V-A:PRO:540:CB:4883, V-B:GLU:543:CD:9880, V-B:TYR:539:C:9839, V-B:ILE:538:CG2:9835, V-A:ARG:545:CZ:4924, V-A:LEU:363:CB:3185, V-A:PRO:540:CD:4885, V-A:GLY:454:CA:4047, V-A:ARG:545:CD:4921, V-B:TYR:539:CG:9844, V-B:TYR:531:CE1:9764, V-A:TYR:539:CD1:4871, H-A:ILE:538:N:4859, V-A:ASN:362:C:3170, V-B:TYR:539:CA:9841, V-A:HIS:456:CE1:4068, H-B:TYR:539:O:9840, V-B:MET:535:CG:9805, V-B:MET:535:CB:9804, V-A:PRO:540:CG:4884, V-A:ARG:545:CG:4920, V-A:GLY:453:CA:4042, V-B:GLU:543:CB:9878"]

$$$$
RR21_Rahimova_2017
     RDKit          3D

 40 45  0  0  0  0  0  0  0  0999 V2000
  125.3300  124.2490   54.0300 C   0  0  0  0  0  0  0  0  0  0  0  0
  125.3510  123.1780   54.9690 O   0  0  0  0  0  0  0  0  0  0  0  0
  126.2310  123.2300   56.0330 C   0  0  0  0  0  0  0  0  0  0  0  0
  125.8390  123.3270   57.3790 C   0  0  0  0  0  0  0  0  0  0  0  0
  126.7930  123.3700   58.3950 C   0  0  0  0  0  0  0  0  0  0  0  0
  128.1590  123.3140   58.0950 C   0  0  0  0  0  0  0  0  0  0  0  0
  129.1820  123.3560   59.1890 C   0  0  0  0  0  0  0  0  0  0  0  0
  130.1560  122.4680   59.2100 N   0  0  0  0  0  0  0  0  0  0  0  0
  130.9080  122.7460   60.2850 N   0  0  0  0  0  0  0  0  0  0  0  0
  132.0660  121.9870   60.5970 C   0  0  0  0  0  0  0  0  0  0  0  0
  132.2710  120.7230   60.0220 C   0  0  0  0  0  0  0  0  0  0  0  0
  133.4130  119.9890   60.3320 C   0  0  0  0  0  0  0  0  0  0  0  0
  134.3530  120.5140   61.2160 C   0  0  0  0  0  0  0  0  0  0  0  0
  134.1600  121.7660   61.7950 C   0  0  0  0  0  0  0  0  0  0  0  0
  133.0180  122.5020   61.4870 C   0  0  0  0  0  0  0  0  0  0  0  0
  130.4070  123.8400   60.9440 C   0  0  0  0  0  0  0  0  0  0  0  0
  129.2700  124.2620   60.2710 C   0  0  0  0  0  0  0  0  0  0  0  0
  128.4240  125.4080   60.5650 C   0  0  0  0  0  0  0  0  0  0  0  0
  127.8760  126.2900   59.6980 C   0  0  0  0  0  0  0  0  0  0  0  0
  128.0330  126.3210   57.9270 S   0  0  0  0  0  0  0  0  0  0  0  0
  126.9840  127.7300   57.8730 C   0  0  0  0  0  0  0  0  0  0  0  0
  126.5790  128.3810   56.8260 N   0  0  0  0  0  0  0  0  0  0  0  0
  125.7150  129.5060   56.9200 C   0  0  0  0  0  0  0  0  0  0  0  0
  125.2710  130.1620   55.9780 O   0  0  0  0  0  0  0  0  0  0  0  0
  125.3410  129.8690   58.3320 C   0  0  0  0  0  0  0  0  0  0  0  0
  124.4270  131.0800   58.5590 C   0  0  0  0  0  0  0  0  0  0  0  0
  124.4740  131.6460   59.9770 C   0  0  0  0  0  0  0  0  0  0  0  0
  123.5820  131.1790   60.9460 C   0  0  0  0  0  0  0  0  0  0  0  0
  123.6360  131.6840   62.2430 C   0  0  0  0  0  0  0  0  0  0  0  0
  124.5840  132.6530   62.5750 C   0  0  0  0  0  0  0  0  0  0  0  0
  124.6470  133.1910   63.9930 C   0  0  0  0  0  0  0  0  0  0  0  0
  125.4840  133.1120   61.6110 C   0  0  0  0  0  0  0  0  0  0  0  0
  125.4300  132.6090   60.3140 C   0  0  0  0  0  0  0  0  0  0  0  0
  125.7570  129.2140   59.3660 N   0  0  0  0  0  0  0  0  0  0  0  0
  126.5950  128.1170   59.1280 N   0  0  0  0  0  0  0  0  0  0  0  0
  127.0440  127.3860   60.1770 C   0  0  0  0  0  0  0  0  0  0  0  0
  126.7780  127.6160   61.3630 O   0  0  0  0  0  0  0  0  0  0  0  0
  128.5500  123.2240   56.7550 C   0  0  0  0  0  0  0  0  0  0  0  0
  127.5980  123.1810   55.7370 C   0  0  0  0  0  0  0  0  0  0  0  0
  128.0090  123.0930   54.4510 F   0  0  0  0  0  0  0  0  0  0  0  0
  1  2  1  0
  2  3  1  0
  3  4  2  0
  4  5  1  0
  5  6  2  0
  6  7  1  0
  7  8  2  0
  8  9  1  0
  9 10  1  0
 10 11  2  0
 11 12  1  0
 12 13  2  0
 13 14  1  0
 14 15  2  0
  9 16  1  0
 16 17  2  0
 17 18  1  0
 18 19  2  0
 19 20  1  0
 20 21  1  0
 21 22  2  0
 22 23  1  0
 23 24  2  0
 23 25  1  0
 25 26  1  0
 26 27  1  0
 27 28  2  0
 28 29  1  0
 29 30  2  0
 30 31  1  0
 30 32  1  0
 32 33  2  0
 25 34  2  0
 34 35  1  0
 35 36  1  0
 36 37  2  0
  6 38  1  0
 38 39  2  0
 39 40  1  0
 39  3  1  0
 17  7  1  0
 36 19  1  0
 15 10  1  0
 35 21  1  0
 33 27  1  0
M  END
>  <Binding energies>  (46) 
[-7.25]

>  <Ligand effiencies>  (46) 
[-0.18125]

>  <Interactions>  (46) 
["V-B:PRO:540:N:9856, V-A:TRP:381:CZ2:3368, V-B:TYR:539:CZ:9849, V-A:TRP:381:CH2:3370, V-B:ILE:538:CA:9832, V-B:ASP:366:CG:8185, V-B:PRO:540:CB:9857, H-B:ARG:545:NH2:9900, V-B:PRO:540:CA:9855, V-B:TYR:539:CE2:9848, V-A:LEU:475:CD2:4257, V-B:TYR:539:CE1:9847, V-B:TYR:539:CD1:9845, V-B:TYR:539:CD2:9846, V-A:TYR:539:CZ:4875, V-B:TYR:531:CE2:9765, V-B:TYR:531:CZ:9766, H-B:TYR:539:N:9842, H-B:TYR:531:OH:9767, V-B:TYR:539:C:9839, V-B:ILE:538:CG2:9835, V-B:PRO:540:CD:9859, V-B:ILE:538:CB:9834, V-A:GLY:454:CA:4047, V-A:TYR:539:CE2:4874, V-B:TYR:539:CG:9844, V-B:ASP:366:CB:8184, H-A:TYR:539:OH:4876, V-A:ILE:369:CG2:3235, V-A:ILE:369:CD1:3237, V-A:TYR:539:CD2:4872, V-B:GLY:454:CA:9021, V-B:ILE:538:C:9830, V-B:MET:535:CG:9805, V-B:MET:535:CB:9804, V-B:ILE:369:CD1:8211, V-B:TYR:484:CZ:9319, V-B:LEU:475:CD2:9231, V-B:GLY:453:C:9014, V-A:SER:385:C:3403, V-A:SER:385:CA:3405, V-B:LEU:475:CG:9229"]

$$$$
RR23_Rahimova_2017
     RDKit          3D

 39 44  0  0  0  0  0  0  0  0999 V2000
  131.6800  130.9710   61.8080 C   0  0  0  0  0  0  0  0  0  0  0  0
  131.3920  131.2510   60.3450 C   0  0  0  0  0  0  0  0  0  0  0  0
  132.3760  131.0190   59.3830 C   0  0  0  0  0  0  0  0  0  0  0  0
  132.1080  131.2670   58.0390 C   0  0  0  0  0  0  0  0  0  0  0  0
  130.8580  131.7610   57.6480 C   0  0  0  0  0  0  0  0  0  0  0  0
  130.5800  132.0040   56.1810 C   0  0  0  0  0  0  0  0  0  0  0  0
  131.3400  132.7630   55.5740 O   0  0  0  0  0  0  0  0  0  0  0  0
  129.5240  131.3740   55.5860 N   0  0  0  0  0  0  0  0  0  0  0  0
  128.9480  131.8640   54.3230 C   0  0  0  0  0  0  0  0  0  0  0  0
  127.9080  130.8390   53.9010 C   0  0  0  0  0  0  0  0  0  0  0  0
  128.2380  129.6560   54.7610 C   0  0  0  0  0  0  0  0  0  0  0  0
  127.6730  128.3810   54.7550 C   0  0  0  0  0  0  0  0  0  0  0  0
  128.0080  127.4520   55.7520 C   0  0  0  0  0  0  0  0  0  0  0  0
  127.4090  126.0370   55.7820 C   0  0  2  0  0  0  0  0  0  0  0  0
  127.4560  125.4530   57.1050 N   0  0  0  0  0  0  0  0  0  0  0  0
  127.6010  124.1900   57.0610 C   0  0  0  0  0  0  0  0  0  0  0  0
  127.7110  123.3210   58.1020 N   0  0  0  0  0  0  0  0  0  0  0  0
  127.8320  123.6000   59.4220 C   0  0  0  0  0  0  0  0  0  0  0  0
  127.8230  124.7280   59.9200 O   0  0  0  0  0  0  0  0  0  0  0  0
  127.9980  122.3810   60.3440 C   0  0  0  0  0  0  0  0  0  0  0  0
  129.4400  122.1490   60.5850 N   0  0  0  0  0  0  0  0  0  0  0  0
  129.9340  120.9350   60.1270 N   0  0  0  0  0  0  0  0  0  0  0  0
  131.1780  120.6100   60.2770 N   0  0  0  0  0  0  0  0  0  0  0  0
  132.0550  121.4940   60.9110 C   0  0  0  0  0  0  0  0  0  0  0  0
  133.3900  121.1130   61.0590 C   0  0  0  0  0  0  0  0  0  0  0  0
  134.2900  121.9740   61.6890 C   0  0  0  0  0  0  0  0  0  0  0  0
  133.8580  123.2120   62.1710 C   0  0  0  0  0  0  0  0  0  0  0  0
  132.5230  123.5940   62.0250 C   0  0  0  0  0  0  0  0  0  0  0  0
  131.6210  122.7310   61.3910 C   0  0  0  0  0  0  0  0  0  0  0  0
  130.1720  123.1250   61.2270 C   0  0  0  0  0  0  0  0  0  0  0  0
  129.7000  124.1910   61.6310 O   0  0  0  0  0  0  0  0  0  0  0  0
  127.6900  123.4410   55.4410 S   0  0  0  0  0  0  0  0  0  0  0  0
  128.0110  125.0690   54.7380 C   0  0  2  0  0  0  0  0  0  0  0  0
  129.5230  125.2050   54.4570 C   0  0  0  0  0  0  0  0  0  0  0  0
  128.8790  127.8440   56.7750 C   0  0  0  0  0  0  0  0  0  0  0  0
  129.4280  129.1270   56.7930 C   0  0  0  0  0  0  0  0  0  0  0  0
  129.1520  130.0210   55.7510 C   0  0  0  0  0  0  0  0  0  0  0  0
  129.8660  131.9650   58.6160 C   0  0  0  0  0  0  0  0  0  0  0  0
  130.1340  131.7160   59.9590 C   0  0  0  0  0  0  0  0  0  0  0  0
  1  2  1  0
  2  3  2  0
  3  4  1  0
  4  5  2  0
  5  6  1  0
  6  7  2  0
  6  8  1  0
  8  9  1  0
  9 10  1  0
 10 11  1  0
 11 12  2  0
 12 13  1  0
 14 13  1  1
 14 15  1  0
 15 16  2  0
 16 17  1  0
 17 18  1  0
 18 19  2  0
 18 20  1  0
 20 21  1  0
 21 22  1  0
 22 23  2  0
 23 24  1  0
 24 25  2  0
 25 26  1  0
 26 27  2  0
 27 28  1  0
 28 29  2  0
 29 30  1  0
 30 31  2  0
 16 32  1  0
 32 33  1  0
 33 34  1  1
 13 35  2  0
 35 36  1  0
 36 37  2  0
  5 38  1  0
 38 39  2  0
 39  2  1  0
 37  8  1  0
 37 11  1  0
 33 14  1  0
 30 21  1  0
 29 24  1  0
M  END
>  <Binding energies>  (47) 
[-11.08]

>  <Ligand effiencies>  (47) 
[-0.277]

>  <Interactions>  (47) 
["V-B:PRO:540:N:9856, V-B:ALA:541:CB:9864, V-B:PRO:540:CA:9855, V-B:PRO:540:C:9853, V-B:ALA:541:CA:9862, V-A:LEU:475:CD2:4257, V-A:TYR:539:CE1:4873, V-A:PRO:540:N:4882, H-A:TYR:539:N:4868, V-A:ILE:538:CA:4858, V-A:TYR:539:C:4865, V-A:PRO:540:CA:4881, V-A:GLU:543:CD:4906, V-A:PRO:540:CB:4883, H-B:TYR:539:N:9842, H-B:TYR:531:OH:9767, V-B:TYR:539:C:9839, V-A:GLY:454:CA:4047, V-A:TYR:539:CD1:4871, V-A:ILE:369:CG2:3235, V-A:ILE:369:CD1:3237, V-A:PRO:540:C:4879, H-B:TYR:539:O:9840, V-A:GLY:453:C:4040"]

$$$$
RR26_Rahimova_2017
     RDKit          3D

 38 44  0  0  0  0  0  0  0  0999 V2000
  133.4350  123.8910   59.7650 C   0  0  0  0  0  0  0  0  0  0  0  0
  132.5860  122.6370   59.9360 C   0  0  0  0  0  0  0  0  0  0  0  0
  133.2390  121.4230   60.1730 C   0  0  0  0  0  0  0  0  0  0  0  0
  132.5110  120.2520   60.3760 C   0  0  0  0  0  0  0  0  0  0  0  0
  131.1210  120.2870   60.3510 C   0  0  0  0  0  0  0  0  0  0  0  0
  130.4590  121.4900   60.1160 C   0  0  0  0  0  0  0  0  0  0  0  0
  131.1750  122.6780   59.9000 C   0  0  0  0  0  0  0  0  0  0  0  0
  130.3850  123.9280   59.6390 C   0  0  0  0  0  0  0  0  0  0  0  0
  130.2910  124.9090   60.5320 N   0  0  0  0  0  0  0  0  0  0  0  0
  129.5440  125.7760   59.9040 C   0  0  0  0  0  0  0  0  0  0  0  0
  128.8890  127.3320   60.2580 S   0  0  0  0  0  0  0  0  0  0  0  0
  128.1270  127.3580   58.6240 C   0  0  0  0  0  0  0  0  0  0  0  0
  127.3590  128.3310   58.0840 C   0  0  0  0  0  0  0  0  0  0  0  0
  126.9660  129.5970   58.6800 C   0  0  0  0  0  0  0  0  0  0  0  0
  125.9630  129.8310   59.6090 C   0  0  0  0  0  0  0  0  0  0  0  0
  125.9780  131.1680   59.9180 N   0  0  0  0  0  0  0  0  0  0  0  0
  125.1400  131.8680   60.8240 C   0  0  0  0  0  0  0  0  0  0  0  0
  124.3350  132.9290   60.3840 C   0  0  0  0  0  0  0  0  0  0  0  0
  123.5200  133.6100   61.2840 C   0  0  0  0  0  0  0  0  0  0  0  0
  123.5040  133.2330   62.6240 C   0  0  0  0  0  0  0  0  0  0  0  0
  124.2970  132.1790   63.0730 C   0  0  0  0  0  0  0  0  0  0  0  0
  125.1150  131.4970   62.1770 C   0  0  0  0  0  0  0  0  0  0  0  0
  126.9630  131.7880   59.2510 N   0  0  0  0  0  0  0  0  0  0  0  0
  127.5520  130.8710   58.5100 C   0  0  0  0  0  0  0  0  0  0  0  0
  128.7010  131.2510   57.6270 C   0  0  0  0  0  0  0  0  0  0  0  0
  128.4690  131.7760   56.3460 C   0  0  0  0  0  0  0  0  0  0  0  0
  129.5320  132.1290   55.5140 C   0  0  0  0  0  0  0  0  0  0  0  0
  130.8420  131.9590   55.9590 C   0  0  0  0  0  0  0  0  0  0  0  0
  131.0870  131.4530   57.2440 C   0  0  0  0  0  0  0  0  0  0  0  0
  130.0230  131.0950   58.0700 C   0  0  0  0  0  0  0  0  0  0  0  0
  132.3670  131.2260   57.7100 O   0  0  0  0  0  0  0  0  0  0  0  0
  133.3840  131.9350   56.9950 C   0  0  0  0  0  0  0  0  0  0  0  0
  133.1470  131.8340   55.4680 C   0  0  0  0  0  0  0  0  0  0  0  0
  131.8630  132.3660   55.1230 O   0  0  0  0  0  0  0  0  0  0  0  0
  128.4060  126.1440   57.8620 C   0  0  0  0  0  0  0  0  0  0  0  0
  128.0390  125.8370   56.7260 O   0  0  0  0  0  0  0  0  0  0  0  0
  129.2100  125.3330   58.6780 N   0  0  0  0  0  0  0  0  0  0  0  0
  129.7560  124.1290   58.4910 N   0  0  0  0  0  0  0  0  0  0  0  0
  1  2  1  0
  2  3  2  0
  3  4  1  0
  4  5  2  0
  5  6  1  0
  6  7  2  0
  7  8  1  0
  8  9  1  0
  9 10  2  0
 10 11  1  0
 11 12  1  0
 12 13  2  0
 13 14  1  0
 14 15  2  0
 15 16  1  0
 16 17  1  0
 17 18  2  0
 18 19  1  0
 19 20  2  0
 20 21  1  0
 21 22  2  0
 16 23  1  0
 23 24  2  0
 24 25  1  0
 25 26  2  0
 26 27  1  0
 27 28  2  0
 28 29  1  0
 29 30  2  0
 29 31  1  0
 31 32  1  0
 32 33  1  0
 33 34  1  0
 12 35  1  0
 35 36  2  0
 35 37  1  0
 37 38  1  0
  7  2  1  0
 38  8  2  0
 37 10  1  0
 24 14  1  0
 30 25  1  0
 22 17  1  0
 34 28  1  0
M  END
>  <Binding energies>  (48) 
[-8.4]

>  <Ligand effiencies>  (48) 
[-0.2210526315789474]

>  <Interactions>  (48) 
["V-A:TRP:381:CZ2:3368, V-A:TRP:381:CH2:3370, V-B:ASP:366:CG:8185, V-B:TYR:539:CE2:9848, V-A:LEU:475:CD2:4257, V-B:TYR:539:CD2:9846, V-A:TYR:539:CE1:4873, V-A:ASP:366:CG:3211, V-A:PRO:540:N:4882, H-A:TYR:539:N:4868, V-A:ILE:538:CA:4858, V-A:TYR:539:CZ:4875, V-A:TYR:531:CE2:4791, V-A:LEU:363:CA:3183, H-A:TYR:531:OH:4793, V-A:LEU:363:CD1:3187, V-A:ILE:538:CB:4860, V-A:PRO:540:CA:4881, V-A:ILE:538:CG2:4861, V-A:TYR:531:CZ:4792, V-A:PRO:540:CB:4883, V-A:PRO:540:CD:4885, V-A:TYR:539:CE2:4874, V-A:TYR:539:CD1:4871, V-A:ILE:369:CG2:3235, V-A:ILE:369:CD1:3237, V-A:TYR:539:CD2:4872, V-A:TYR:539:CG:4870, V-B:GLY:454:CA:9021, V-A:PRO:540:CG:4884, V-B:ILE:369:CD1:8211, V-B:ILE:369:CG2:8209, V-B:LEU:475:CD2:9231, V-B:GLY:453:C:9014, V-B:ILE:369:CB:8208, V-B:ILE:369:CG1:8210"]

$$$$
RR2_Rahimova_2017
     RDKit          3D

 46 50  0  0  0  0  0  0  0  0999 V2000
  124.7300  123.8660   62.2300 C   0  0  0  0  0  0  0  0  0  0  0  0
  125.7470  123.2140   61.4780 O   0  0  0  0  0  0  0  0  0  0  0  0
  126.2450  123.8270   60.3430 C   0  0  0  0  0  0  0  0  0  0  0  0
  127.5620  124.2860   60.2050 C   0  0  0  0  0  0  0  0  0  0  0  0
  127.9740  124.8960   59.0230 C   0  0  0  0  0  0  0  0  0  0  0  0
  127.0810  125.0650   57.9560 C   0  0  0  0  0  0  0  0  0  0  0  0
  127.5530  125.7380   56.6820 C   0  0  0  0  0  0  0  0  0  0  0  0
  128.4590  125.2340   56.0090 O   0  0  0  0  0  0  0  0  0  0  0  0
  126.9340  126.8990   56.3640 N   0  0  0  0  0  0  0  0  0  0  0  0
  127.3920  127.6060   55.2570 N   0  0  0  0  0  0  0  0  0  0  0  0
  126.8710  128.8260   55.0200 C   0  0  0  0  0  0  0  0  0  0  0  0
  125.8910  129.3010   55.6010 O   0  0  0  0  0  0  0  0  0  0  0  0
  127.5980  129.6600   53.9550 C   0  0  0  0  0  0  0  0  0  0  0  0
  129.2440  130.2870   54.4530 S   0  0  0  0  0  0  0  0  0  0  0  0
  129.8620  128.8990   55.3560 C   0  0  0  0  0  0  0  0  0  0  0  0
  130.1090  127.7400   54.8000 N   0  0  0  0  0  0  0  0  0  0  0  0
  130.5070  126.8710   55.8070 N   0  0  0  0  0  0  0  0  0  0  0  0
  130.5140  127.5480   56.9310 C   0  0  0  0  0  0  0  0  0  0  0  0
  130.9070  126.9540   58.2450 C   0  0  0  0  0  0  0  0  0  0  0  0
  131.6840  125.7930   58.2780 C   0  0  0  0  0  0  0  0  0  0  0  0
  132.0490  125.2290   59.4960 C   0  0  0  0  0  0  0  0  0  0  0  0
  131.6540  125.8310   60.6960 C   0  0  0  0  0  0  0  0  0  0  0  0
  131.9830  125.3010   61.9530 N   0  0  0  0  0  0  0  0  0  0  0  0
  133.1280  123.9680   62.2200 S   0  0  0  0  0  0  0  0  0  0  0  0
  133.2470  123.8230   63.6760 O   0  0  0  0  0  0  0  0  0  0  0  0
  134.3130  124.2120   61.3890 O   0  0  0  0  0  0  0  0  0  0  0  0
  132.2890  122.5020   61.6230 C   0  0  0  0  0  0  0  0  0  0  0  0
  132.9660  121.5640   60.8410 C   0  0  0  0  0  0  0  0  0  0  0  0
  132.2910  120.4390   60.3730 C   0  0  0  0  0  0  0  0  0  0  0  0
  130.9440  120.2500   60.6930 C   0  0  0  0  0  0  0  0  0  0  0  0
  130.2070  119.0310   60.1700 C   0  0  0  0  0  0  0  0  0  0  0  0
  130.2700  121.1920   61.4730 C   0  0  0  0  0  0  0  0  0  0  0  0
  130.9430  122.3180   61.9390 C   0  0  0  0  0  0  0  0  0  0  0  0
  130.8810  126.9920   60.6620 C   0  0  0  0  0  0  0  0  0  0  0  0
  130.5100  127.5540   59.4440 C   0  0  0  0  0  0  0  0  0  0  0  0
  130.1060  128.8540   56.7160 N   0  0  0  0  0  0  0  0  0  0  0  0
  129.9350  129.8860   57.6620 C   0  0  0  0  0  0  0  0  0  0  0  0
  128.6510  130.3150   58.0000 C   0  0  0  0  0  0  0  0  0  0  0  0
  128.4890  131.3300   58.9380 C   0  0  0  0  0  0  0  0  0  0  0  0
  129.5980  131.9250   59.5410 C   0  0  0  0  0  0  0  0  0  0  0  0
  129.3370  132.9250   60.4570 O   0  0  0  0  0  0  0  0  0  0  0  0
  127.9880  133.1980   60.8230 C   0  0  0  0  0  0  0  0  0  0  0  0
  130.8870  131.4880   59.1930 C   0  0  0  0  0  0  0  0  0  0  0  0
  131.0550  130.4710   58.2580 C   0  0  0  0  0  0  0  0  0  0  0  0
  125.7660  124.5980   58.0990 C   0  0  0  0  0  0  0  0  0  0  0  0
  125.3570  123.9870   59.2810 C   0  0  0  0  0  0  0  0  0  0  0  0
  1  2  1  0
  2  3  1  0
  3  4  2  0
  4  5  1  0
  5  6  2  0
  6  7  1  0
  7  8  2  0
  7  9  1  0
  9 10  1  0
 10 11  1  0
 11 12  2  0
 11 13  1  0
 13 14  1  0
 14 15  1  0
 15 16  2  0
 16 17  1  0
 17 18  2  0
 18 19  1  0
 19 20  2  0
 20 21  1  0
 21 22  2  0
 22 23  1  0
 23 24  1  0
 24 25  2  0
 24 26  2  0
 24 27  1  0
 27 28  2  0
 28 29  1  0
 29 30  2  0
 30 31  1  0
 30 32  1  0
 32 33  2  0
 22 34  1  0
 34 35  2  0
 18 36  1  0
 36 37  1  0
 37 38  2  0
 38 39  1  0
 39 40  2  0
 40 41  1  0
 41 42  1  0
 40 43  1  0
 43 44  2  0
  6 45  1  0
 45 46  2  0
 46  3  1  0
 36 15  1  0
 44 37  1  0
 35 19  1  0
 33 27  1  0
M  END
>  <Binding energies>  (49) 
[-9.72]

>  <Ligand effiencies>  (49) 
[-0.19836734693877553]

>  <Interactions>  (49) 
["V-A:TRP:381:CZ2:3368, V-A:TRP:381:CH2:3370, V-B:ALA:541:CB:9864, V-A:PRO:482:CG:4325, V-B:PRO:540:CB:9857, V-B:PRO:540:CA:9855, V-B:PRO:540:C:9853, H-B:ALA:541:N:9863, V-B:TYR:539:CE2:9848, V-A:LEU:475:CD2:4257, V-A:PRO:482:CB:4324, V-B:TYR:539:CD2:9846, V-B:MET:535:CE:9807, V-A:ASP:366:CG:3211, V-A:PRO:540:N:4882, H-A:TYR:531:OH:4793, V-A:ASP:366:CB:3210, V-A:TYR:539:C:4865, V-A:PRO:540:CA:4881, V-A:TYR:531:CZ:4792, V-A:PRO:540:CB:4883, V-B:ALA:541:C:9860, V-B:ARG:545:CZ:9898, V-B:TYR:531:CZ:9766, V-B:ASN:362:CB:8148, V-B:GLU:543:CD:9880, H-B:MET:535:SD:9806, H-B:TYR:531:OH:9767, V-B:TYR:539:C:9839, V-A:ARG:545:CZ:4924, H-A:GLU:543:OE2:4908, H-A:ALA:541:N:4889, H-A:TYR:484:OH:4346, H-A:GLY:454:N:4048, V-B:TYR:531:CE1:9764, H-A:TYR:539:OH:4876, V-A:ALA:541:CB:4890, V-A:ILE:369:CG2:3235, V-A:TYR:539:CD2:4872, V-A:TRP:381:CZ3:3369, V-B:ASN:362:CG:8149"]

$$$$
RR33_Rahimova_2017
     RDKit          3D

 18 19  0  0  0  0  0  0  0  0999 V2000
  125.5550  129.8610   56.4670 C   0  0  0  0  0  0  0  0  0  0  0  0
  124.1140  129.9490   56.9790 C   0  0  0  0  0  0  0  0  0  0  0  0
  124.0350  130.9920   57.9460 O   0  0  0  0  0  0  0  0  0  0  0  0
  124.3290  130.7150   59.2680 C   0  0  0  0  0  0  0  0  0  0  0  0
  123.5230  131.3280   60.2260 C   0  0  0  0  0  0  0  0  0  0  0  0
  123.7450  131.1110   61.5830 C   0  0  0  0  0  0  0  0  0  0  0  0
  124.7830  130.2730   62.0030 C   0  0  0  0  0  0  0  0  0  0  0  0
  125.0220  130.0410   63.4600 C   0  0  0  0  0  0  0  0  0  0  0  0
  126.1600  129.7560   64.0520 N   0  0  0  0  0  0  0  0  0  0  0  0
  125.8680  129.6450   65.3380 C   0  0  0  0  0  0  0  0  0  0  0  0
  126.9440  129.3300   66.3560 C   0  0  0  0  0  0  0  0  0  0  0  0
  126.7440  128.0030   66.9190 N   0  0  0  0  0  0  0  0  0  0  0  0
  127.9410  127.5550   67.6110 C   0  0  0  0  0  0  0  0  0  0  0  0
  124.5100  129.8690   65.5290 C   0  0  0  0  0  0  0  0  0  0  0  0
  123.5830  129.8910   66.7200 C   0  0  0  0  0  0  0  0  0  0  0  0
  123.9690  130.1230   64.3160 O   0  0  0  0  0  0  0  0  0  0  0  0
  125.5910  129.6530   61.0450 C   0  0  0  0  0  0  0  0  0  0  0  0
  125.3690  129.8710   59.6870 C   0  0  0  0  0  0  0  0  0  0  0  0
  1  2  1  0
  2  3  1  0
  3  4  1  0
  4  5  2  0
  5  6  1  0
  6  7  2  0
  7  8  1  0
  8  9  2  0
  9 10  1  0
 10 11  1  0
 11 12  1  0
 12 13  1  0
 10 14  2  0
 14 15  1  0
 14 16  1  0
  7 17  1  0
 17 18  2  0
 18  4  1  0
 16  8  1  0
M  END
>  <Binding energies>  (50) 
[-5.87]

>  <Ligand effiencies>  (50) 
[-0.30894736842105264]

>  <Interactions>  (50) 
["V-B:ASP:366:CG:8185, H-B:ARG:545:NH2:9900, V-A:TYR:539:CZ:4875, V-A:GLU:543:CD:4906, V-B:ARG:545:CZ:9898, V-B:TYR:531:CZ:9766, V-B:GLU:543:CD:9880, H-B:GLU:543:OE2:9882, V-B:TYR:531:CE1:9764, V-B:ASP:366:CB:8184, H-B:GLY:454:N:9022, H-A:TYR:539:OH:4876, H-B:TYR:484:OH:9320, V-B:HIS:456:CE1:9042, V-B:GLY:454:CA:9021, V-B:GLU:543:CG:9879, V-B:ARG:545:CG:9894, V-B:ILE:369:CD1:8211, H-B:ARG:545:NE:9896, V-B:ILE:369:CG2:8209, V-A:GLU:543:CB:4904, V-B:ASP:366:CA:8182, V-B:ARG:545:CD:9895, V-B:GLY:453:C:9014, V-B:GLY:453:CA:9016, V-B:ILE:369:CB:8208, V-B:ASP:366:C:8180, H-B:ARG:545:NH1:9899, V-B:ARG:545:CB:9893, V-B:ILE:455:C:9024"]

$$$$
RR3_Rahimova_2017
     RDKit          3D

 38 44  0  0  0  0  0  0  0  0999 V2000
  123.9630  131.5850   62.0290 C   0  0  0  0  0  0  0  0  0  0  0  0
  125.1240  132.1930   62.4940 C   0  0  0  0  0  0  0  0  0  0  0  0
  125.8420  131.6050   63.5310 C   0  0  0  0  0  0  0  0  0  0  0  0
  125.4120  130.4040   64.1140 C   0  0  0  0  0  0  0  0  0  0  0  0
  126.1860  129.7710   65.2290 C   0  0  0  0  0  0  0  0  0  0  0  0
  127.2920  130.4190   65.7950 C   0  0  0  0  0  0  0  0  0  0  0  0
  128.0140  129.8290   66.8290 C   0  0  0  0  0  0  0  0  0  0  0  0
  127.6490  128.5710   67.3160 C   0  0  0  0  0  0  0  0  0  0  0  0
  128.4240  127.9290   68.4230 C   0  0  0  0  0  0  0  0  0  0  0  0
  128.1180  128.1920   69.6890 N   0  0  0  0  0  0  0  0  0  0  0  0
  128.9200  127.4650   70.4280 C   0  0  0  0  0  0  0  0  0  0  0  0
  128.9300  127.4430   71.8890 C   0  0  0  0  0  0  0  0  0  0  0  0
  129.9640  126.9790   72.6850 C   0  0  0  0  0  0  0  0  0  0  0  0
  129.6380  127.1160   74.0090 N   0  0  0  0  0  0  0  0  0  0  0  0
  128.3830  127.6710   74.1290 C   0  0  0  0  0  0  0  0  0  0  0  0
  127.6330  127.9960   75.2640 C   0  0  0  0  0  0  0  0  0  0  0  0
  126.3720  128.5530   75.0510 C   0  0  0  0  0  0  0  0  0  0  0  0
  125.8760  128.7780   73.7710 C   0  0  0  0  0  0  0  0  0  0  0  0
  126.6240  128.4550   72.6400 C   0  0  0  0  0  0  0  0  0  0  0  0
  127.9020  127.8900   72.7990 C   0  0  0  0  0  0  0  0  0  0  0  0
  129.7660  126.7240   69.6490 N   0  0  0  0  0  0  0  0  0  0  0  0
  129.4890  127.0150   68.3380 C   0  0  0  0  0  0  0  0  0  0  0  0
  130.2600  126.4340   67.1990 C   0  0  0  0  0  0  0  0  0  0  0  0
  129.8700  125.2160   66.6400 C   0  0  0  0  0  0  0  0  0  0  0  0
  130.5930  124.6650   65.5860 C   0  0  0  0  0  0  0  0  0  0  0  0
  131.7190  125.3180   65.0640 C   0  0  0  0  0  0  0  0  0  0  0  0
  132.5050  124.7130   63.9450 C   0  0  0  0  0  0  0  0  0  0  0  0
  132.1270  123.4840   63.3830 C   0  0  0  0  0  0  0  0  0  0  0  0
  132.8570  122.9220   62.3370 C   0  0  0  0  0  0  0  0  0  0  0  0
  133.9740  123.5870   61.8410 C   0  0  0  0  0  0  0  0  0  0  0  0
  134.3660  124.8070   62.3820 C   0  0  0  0  0  0  0  0  0  0  0  0
  133.6350  125.3650   63.4280 C   0  0  0  0  0  0  0  0  0  0  0  0
  132.0890  126.5500   65.6230 C   0  0  0  0  0  0  0  0  0  0  0  0
  131.3680  127.1040   66.6770 C   0  0  0  0  0  0  0  0  0  0  0  0
  126.5410  127.9230   66.7670 C   0  0  0  0  0  0  0  0  0  0  0  0
  125.8210  128.5160   65.7330 C   0  0  0  0  0  0  0  0  0  0  0  0
  124.2380  129.8090   63.6290 C   0  0  0  0  0  0  0  0  0  0  0  0
  123.5160  130.3940   62.5920 C   0  0  0  0  0  0  0  0  0  0  0  0
  1  2  2  0
  2  3  1  0
  3  4  2  0
  4  5  1  0
  5  6  2  0
  6  7  1  0
  7  8  2  0
  8  9  1  0
  9 10  1  0
 10 11  2  0
 11 12  1  0
 12 13  2  0
 13 14  1  0
 14 15  1  0
 15 16  2  0
 16 17  1  0
 17 18  2  0
 18 19  1  0
 19 20  2  0
 11 21  1  0
 21 22  1  0
 22 23  1  0
 23 24  2  0
 24 25  1  0
 25 26  2  0
 26 27  1  0
 27 28  2  0
 28 29  1  0
 29 30  2  0
 30 31  1  0
 31 32  2  0
 26 33  1  0
 33 34  2  0
  8 35  1  0
 35 36  2  0
  4 37  1  0
 37 38  2  0
 38  1  1  0
 36  5  1  0
 22  9  2  0
 34 23  1  0
 20 12  1  0
 32 27  1  0
 20 15  1  0
M  END
>  <Binding energies>  (51) 
[-6.03]

>  <Ligand effiencies>  (51) 
[-0.15075]

>  <Interactions>  (51) 
["V-A:LEU:475:CD2:4257, V-A:GLU:543:CD:4906, V-B:ARG:545:CZ:9898, V-B:GLU:543:CD:9880, V-A:ARG:545:CZ:4924, V-A:GLY:454:CA:4047, V-A:ARG:545:CD:4921, V-A:ILE:369:CD1:3237, V-B:HIS:456:CE1:9042, V-A:HIS:456:CD2:4066, V-B:GLY:544:C:9884, V-B:HIS:456:CD2:9040, V-A:LYS:547:CE:4948, V-B:HIS:456:CG:9038, V-B:HIS:456:CB:9037, V-A:HIS:456:CE1:4068, H-A:HIS:456:NE2:4069, V-B:LYS:547:CE:9922, H-B:GLU:543:O:9875, V-B:GLU:543:CG:9879, V-A:ARG:545:CG:4920, V-A:GLY:453:CA:4042, V-A:GLY:453:C:4040, V-A:GLU:543:CG:4905, V-A:TYR:484:CZ:4345, V-B:ARG:545:CG:9894, V-B:GLU:543:CB:9878, V-B:ILE:369:CD1:8211, V-A:GLU:543:CB:4904, V-B:GLU:543:CA:9876, V-B:ARG:545:CD:9895, V-B:TYR:484:CZ:9319, V-B:LEU:475:CD2:9231, V-B:GLY:453:C:9014, V-B:GLY:453:CA:9016, V-A:TYR:484:CE1:4343, V-A:GLU:543:CA:4902, V-B:TYR:484:CE1:9317, V-B:LYS:547:CD:9921"]

$$$$
RR4_Rahimova_2017
     RDKit          3D

 40 44  0  0  0  0  0  0  0  0999 V2000
  133.0530  124.2340   58.8690 C   0  0  0  0  0  0  0  0  0  0  0  0
  132.4150  124.5750   57.6440 O   0  0  0  0  0  0  0  0  0  0  0  0
  131.3170  125.4140   57.6660 C   0  0  0  0  0  0  0  0  0  0  0  0
  130.9070  125.8740   58.9160 C   0  0  0  0  0  0  0  0  0  0  0  0
  129.8110  126.7230   59.0350 C   0  0  0  0  0  0  0  0  0  0  0  0
  129.0890  127.1350   57.9060 C   0  0  0  0  0  0  0  0  0  0  0  0
  127.9060  128.0510   58.0380 C   0  0  0  0  0  0  0  0  0  0  0  0
  127.3540  128.4020   59.2740 C   0  0  0  0  0  0  0  0  0  0  0  0
  126.2520  129.2640   59.3460 C   0  0  0  0  0  0  0  0  0  0  0  0
  125.7340  129.6160   60.7020 C   0  0  0  0  0  0  0  0  0  0  0  0
  126.2630  128.9960   61.8380 C   0  0  0  0  0  0  0  0  0  0  0  0
  125.7950  129.3270   63.1070 C   0  0  0  0  0  0  0  0  0  0  0  0
  124.7960  130.2870   63.2660 C   0  0  0  0  0  0  0  0  0  0  0  0
  124.3950  130.5510   64.5610 O   0  0  0  0  0  0  0  0  0  0  0  0
  124.8930  129.7410   65.6210 C   0  0  0  0  0  0  0  0  0  0  0  0
  124.2670  130.9160   62.1290 C   0  0  0  0  0  0  0  0  0  0  0  0
  124.7370  130.5840   60.8610 C   0  0  0  0  0  0  0  0  0  0  0  0
  125.6930  129.7470   58.1370 C   0  0  0  0  0  0  0  0  0  0  0  0
  124.5400  130.6520   58.1540 C   0  0  0  0  0  0  0  0  0  0  0  0
  123.6300  131.3660   58.1680 N   0  0  0  0  0  0  0  0  0  0  0  0
  126.2830  129.3280   56.9220 C   0  0  0  0  0  0  0  0  0  0  0  0
  125.7070  129.8240   55.3120 S   0  0  0  0  0  0  0  0  0  0  0  0
  127.1350  130.4820   54.3890 C   0  0  0  0  0  0  0  0  0  0  0  0
  128.4790  130.3580   55.1200 C   0  0  0  0  0  0  0  0  0  0  0  0
  129.4110  129.7260   54.6150 O   0  0  0  0  0  0  0  0  0  0  0  0
  128.5270  130.9720   56.3250 N   0  0  0  0  0  0  0  0  0  0  0  0
  129.5950  131.0420   57.2220 C   0  0  0  0  0  0  0  0  0  0  0  0
  129.3990  130.8740   58.9470 S   0  0  0  0  0  0  0  0  0  0  0  0
  131.1010  131.0890   59.2180 C   0  0  0  0  0  0  0  0  0  0  0  0
  131.7940  131.2870   58.0140 C   0  0  0  0  0  0  0  0  0  0  0  0
  130.9420  131.2450   56.8840 C   0  0  0  0  0  0  0  0  0  0  0  0
  131.4170  131.4040   55.5130 C   0  0  0  0  0  0  0  0  0  0  0  0
  131.7940  131.5320   54.4260 N   0  0  0  0  0  0  0  0  0  0  0  0
  133.3170  131.4640   57.9850 C   0  0  0  0  0  0  0  0  0  0  0  0
  133.9450  130.9990   59.3180 C   0  0  0  0  0  0  0  0  0  0  0  0
  133.1780  131.5360   60.5390 C   0  0  0  0  0  0  0  0  0  0  0  0
  131.7340  130.9940   60.6000 C   0  0  0  0  0  0  0  0  0  0  0  0
  127.3680  128.5200   56.8830 N   0  0  0  0  0  0  0  0  0  0  0  0
  129.5110  126.6690   56.6510 C   0  0  0  0  0  0  0  0  0  0  0  0
  130.6070  125.8200   56.5280 C   0  0  0  0  0  0  0  0  0  0  0  0
  1  2  1  0
  2  3  1  0
  3  4  2  0
  4  5  1  0
  5  6  2  0
  6  7  1  0
  7  8  2  0
  8  9  1  0
  9 10  1  0
 10 11  2  0
 11 12  1  0
 12 13  2  0
 13 14  1  0
 14 15  1  0
 13 16  1  0
 16 17  2  0
  9 18  2  0
 18 19  1  0
 19 20  3  0
 18 21  1  0
 21 22  1  0
 22 23  1  0
 23 24  1  0
 24 25  2  0
 24 26  1  0
 26 27  1  0
 27 28  1  0
 28 29  1  0
 29 30  2  0
 30 31  1  0
 31 32  1  0
 32 33  3  0
 30 34  1  0
 34 35  1  0
 35 36  1  0
 36 37  1  0
 21 38  2  0
  6 39  1  0
 39 40  2  0
 40  3  1  0
 38  7  1  0
 17 10  1  0
 31 27  2  0
 37 29  1  0
M  END
>  <Binding energies>  (52) 
[-9.72]

>  <Ligand effiencies>  (52) 
[-0.23707317073170733]

>  <Interactions>  (52) 
["V-B:ASP:366:CG:8185, V-B:TYR:539:CE2:9848, V-A:TYR:539:CE1:4873, V-A:ASP:366:CG:3211, V-A:PRO:540:N:4882, V-A:TYR:539:CZ:4875, V-A:TYR:531:CE2:4791, V-A:LEU:363:CA:3183, H-A:TYR:531:OH:4793, V-A:ASP:366:CB:3210, V-A:ILE:538:CB:4860, V-A:PRO:540:CA:4881, V-A:ILE:538:CG2:4861, V-A:TYR:531:CZ:4792, V-A:PRO:540:CB:4883, V-B:ARG:545:CZ:9898, H-B:TYR:531:OH:9767, V-A:ASN:362:CB:3174, V-A:TYR:539:CE2:4874, V-B:ASP:366:CB:8184, H-B:GLY:454:N:9022, H-A:TYR:539:OH:4876, H-B:TYR:484:OH:9320, H-B:TYR:539:OH:9850, V-A:ASN:362:C:3170, V-A:PRO:540:C:4879, V-B:HIS:456:CE1:9042, V-A:PRO:540:CG:4884, V-B:ARG:545:CG:9894, V-B:ARG:545:CD:9895"]

$$$$
RR6_Rahimova_2017
     RDKit          3D

 38 41  0  0  0  0  0  0  0  0999 V2000
  128.8960  132.1850   57.6600 C   0  0  0  0  0  0  0  0  0  0  0  0
  129.8310  132.4720   56.6290 O   0  0  0  0  0  0  0  0  0  0  0  0
  129.9150  131.6890   55.5240 C   0  0  0  0  0  0  0  0  0  0  0  0
  130.4430  132.0550   54.4690 O   0  0  0  0  0  0  0  0  0  0  0  0
  129.3010  130.3310   55.7100 C   0  0  0  0  0  0  0  0  0  0  0  0
  129.9110  129.3410   56.4930 C   0  0  0  0  0  0  0  0  0  0  0  0
  129.3200  128.0880   56.6410 C   0  0  0  0  0  0  0  0  0  0  0  0
  128.1050  127.8030   55.9990 C   0  0  0  0  0  0  0  0  0  0  0  0
  127.4380  126.5660   56.0570 N   0  0  0  0  0  0  0  0  0  0  0  0
  127.8340  125.3570   55.6010 C   0  0  0  0  0  0  0  0  0  0  0  0
  128.9050  125.1220   55.0400 O   0  0  0  0  0  0  0  0  0  0  0  0
  126.8160  124.2230   55.7590 C   0  0  0  0  0  0  0  0  0  0  0  0
  126.7310  123.5440   57.4500 S   0  0  0  0  0  0  0  0  0  0  0  0
  127.4610  124.7590   58.5290 C   0  0  0  0  0  0  0  0  0  0  0  0
  126.8340  125.9600   58.5220 N   0  0  0  0  0  0  0  0  0  0  0  0
  127.2810  126.9570   59.3250 C   0  0  0  0  0  0  0  0  0  0  0  0
  126.4940  128.2350   59.3040 C   0  0  0  0  0  0  0  0  0  0  0  0
  126.3940  129.0410   60.4490 C   0  0  0  0  0  0  0  0  0  0  0  0
  125.6520  130.2190   60.4320 C   0  0  0  0  0  0  0  0  0  0  0  0
  124.9990  130.6170   59.2660 C   0  0  0  0  0  0  0  0  0  0  0  0
  124.1850  131.8980   59.2560 C   0  0  0  0  0  0  0  0  0  0  0  0
  125.0880  129.8320   58.1190 C   0  0  0  0  0  0  0  0  0  0  0  0
  125.8310  128.6560   58.1410 C   0  0  0  0  0  0  0  0  0  0  0  0
  128.3920  126.7660   60.1530 C   0  0  0  0  0  0  0  0  0  0  0  0
  129.0610  125.5340   60.1740 C   0  0  0  0  0  0  0  0  0  0  0  0
  130.2290  125.3920   61.0950 C   0  0  0  0  0  0  0  0  0  0  0  0
  131.4570  124.9350   60.6070 C   0  0  0  0  0  0  0  0  0  0  0  0
  132.5550  124.8150   61.4550 C   0  0  0  0  0  0  0  0  0  0  0  0
  132.4490  125.1530   62.8030 C   0  0  0  0  0  0  0  0  0  0  0  0
  133.5900  125.0050   63.5680 O   0  0  0  0  0  0  0  0  0  0  0  0
  133.4850  125.0600   64.9860 C   0  0  0  0  0  0  0  0  0  0  0  0
  131.2200  125.6170   63.2960 C   0  0  0  0  0  0  0  0  0  0  0  0
  130.1240  125.7370   62.4450 C   0  0  0  0  0  0  0  0  0  0  0  0
  128.5880  124.4960   59.3330 C   0  0  0  0  0  0  0  0  0  0  0  0
  129.2590  123.1930   59.2850 C   0  0  0  0  0  0  0  0  0  0  0  0
  129.7870  122.1640   59.2490 N   0  0  0  0  0  0  0  0  0  0  0  0
  127.4870  128.7920   55.2330 C   0  0  0  0  0  0  0  0  0  0  0  0
  128.0810  130.0420   55.0850 C   0  0  0  0  0  0  0  0  0  0  0  0
  1  2  1  0
  2  3  1  0
  3  4  2  0
  3  5  1  0
  5  6  2  0
  6  7  1  0
  7  8  2  0
  8  9  1  0
  9 10  1  0
 10 11  2  0
 10 12  1  0
 12 13  1  0
 13 14  1  0
 14 15  2  0
 15 16  1  0
 16 17  1  0
 17 18  2  0
 18 19  1  0
 19 20  2  0
 20 21  1  0
 20 22  1  0
 22 23  2  0
 16 24  2  0
 24 25  1  0
 25 26  1  0
 26 27  2  0
 27 28  1  0
 28 29  2  0
 29 30  1  0
 30 31  1  0
 29 32  1  0
 32 33  2  0
 25 34  2  0
 34 35  1  0
 35 36  3  0
  8 37  1  0
 37 38  2  0
 38  5  1  0
 34 14  1  0
 23 17  1  0
 33 26  1  0
M  END
>  <Binding energies>  (53) 
[-7.81]

>  <Ligand effiencies>  (53) 
[-0.20025641025641025]

>  <Interactions>  (53) 
["V-B:ASP:366:CG:8185, V-B:TYR:539:CE2:9848, V-B:TYR:539:CD2:9846, V-A:ASP:366:CG:3211, H-A:TYR:539:N:4868, V-A:TYR:539:CZ:4875, V-A:TYR:539:C:4865, V-B:GLU:543:CD:9880, H-B:TYR:531:OH:9767, V-A:ARG:545:CZ:4924, V-A:ARG:545:CD:4921, H-A:ARG:545:NE:4922, H-A:GLY:454:N:4048, V-A:TYR:539:CE2:4874, V-B:ASP:366:CB:8184, H-A:ARG:545:NH2:4926, H-A:ARG:545:NH1:4925, V-A:TYR:539:CD2:4872, V-A:TYR:539:CG:4870, V-A:ARG:545:CG:4920, V-B:ILE:369:CG2:8209"]

$$$$
RR7_Rahimova_2017
     RDKit          3D

 47 53  0  0  0  0  0  0  0  0999 V2000
  131.1530  130.7730   60.6140 C   0  0  0  0  0  0  0  0  0  0  0  0
  129.9090  130.5470   59.9570 O   0  0  0  0  0  0  0  0  0  0  0  0
  129.4870  129.2480   59.7450 C   0  0  0  0  0  0  0  0  0  0  0  0
  130.1010  128.5560   58.7030 C   0  0  0  0  0  0  0  0  0  0  0  0
  129.7450  127.2420   58.4180 C   0  0  0  0  0  0  0  0  0  0  0  0
  128.7520  126.5900   59.1640 C   0  0  0  0  0  0  0  0  0  0  0  0
  128.3560  125.1060   58.8870 C   0  0  0  0  0  0  0  0  0  0  0  0
  129.5060  124.3050   59.2410 O   0  0  0  0  0  0  0  0  0  0  0  0
  130.4500  123.9220   58.2350 C   0  0  0  0  0  0  0  0  0  0  0  0
  131.7890  124.6230   58.5130 C   0  0  1  0  0  0  0  0  0  0  0  0
  131.5910  125.4570   59.6520 O   0  0  0  0  0  0  0  0  0  0  0  0
  132.4570  125.1270   60.6990 C   0  0  1  0  0  0  0  0  0  0  0  0
  131.8090  125.3590   61.9750 N   0  0  0  0  0  0  0  0  0  0  0  0
  130.5170  125.7960   62.2080 C   0  0  0  0  0  0  0  0  0  0  0  0
  130.2010  125.9660   63.4680 N   0  0  0  0  0  0  0  0  0  0  0  0
  131.3580  125.6720   64.1380 C   0  0  0  0  0  0  0  0  0  0  0  0
  131.6810  125.6770   65.5090 C   0  0  0  0  0  0  0  0  0  0  0  0
  130.6820  126.0270   66.4370 N   0  0  0  0  0  0  0  0  0  0  0  0
  130.6650  127.0460   67.3270 C   0  0  0  0  0  0  0  0  0  0  0  0
  131.5850  127.8540   67.4760 O   0  0  0  0  0  0  0  0  0  0  0  0
  129.4280  127.1380   68.1950 C   0  0  0  0  0  0  0  0  0  0  0  0
  129.5630  127.2580   69.5870 C   0  0  0  0  0  0  0  0  0  0  0  0
  128.4390  127.3490   70.4020 C   0  0  0  0  0  0  0  0  0  0  0  0
  127.1700  127.3270   69.8330 C   0  0  0  0  0  0  0  0  0  0  0  0
  127.0140  127.2130   68.4540 C   0  0  0  0  0  0  0  0  0  0  0  0
  128.1380  127.1200   67.6370 C   0  0  0  0  0  0  0  0  0  0  0  0
  132.9500  125.3490   65.8970 N   0  0  0  0  0  0  0  0  0  0  0  0
  133.8470  125.0310   64.9270 C   0  0  0  0  0  0  0  0  0  0  0  0
  133.6420  124.9900   63.5830 N   0  0  0  0  0  0  0  0  0  0  0  0
  132.3890  125.3100   63.2340 C   0  0  0  0  0  0  0  0  0  0  0  0
  132.8700  123.6830   60.4390 C   0  0  0  0  0  0  0  0  0  0  0  0
  132.9380  123.6900   58.9210 C   0  0  2  0  0  0  0  0  0  0  0  0
  134.1960  124.1410   58.4480 O   0  0  0  0  0  0  0  0  0  0  0  0
  127.1810  124.6320   59.7830 C   0  0  0  0  0  0  0  0  0  0  0  0
  125.8750  124.5780   59.2690 C   0  0  0  0  0  0  0  0  0  0  0  0
  124.8120  124.1680   60.0670 C   0  0  0  0  0  0  0  0  0  0  0  0
  125.0440  123.8070   61.3910 C   0  0  0  0  0  0  0  0  0  0  0  0
  126.3290  123.8530   61.9220 C   0  0  0  0  0  0  0  0  0  0  0  0
  127.3920  124.2650   61.1230 C   0  0  0  0  0  0  0  0  0  0  0  0
  127.9260  124.7810   57.4280 C   0  0  0  0  0  0  0  0  0  0  0  0
  127.6890  123.4540   57.0370 C   0  0  0  0  0  0  0  0  0  0  0  0
  127.3130  123.1520   55.7320 C   0  0  0  0  0  0  0  0  0  0  0  0
  127.1800  124.1760   54.7980 C   0  0  0  0  0  0  0  0  0  0  0  0
  127.4230  125.4970   55.1610 C   0  0  0  0  0  0  0  0  0  0  0  0
  127.7980  125.7970   56.4670 C   0  0  0  0  0  0  0  0  0  0  0  0
  128.1470  127.2860   60.2200 C   0  0  0  0  0  0  0  0  0  0  0  0
  128.5040  128.6010   60.5060 C   0  0  0  0  0  0  0  0  0  0  0  0
  1  2  1  0
  2  3  1  0
  3  4  2  0
  4  5  1  0
  5  6  2  0
  6  7  1  0
  7  8  1  0
  8  9  1  0
 10  9  1  1
 10 11  1  0
 11 12  1  0
 12 13  1  1
 13 14  1  0
 14 15  2  0
 15 16  1  0
 16 17  2  0
 17 18  1  0
 18 19  1  0
 19 20  2  0
 19 21  1  0
 21 22  2  0
 22 23  1  0
 23 24  2  0
 24 25  1  0
 25 26  2  0
 17 27  1  0
 27 28  2  0
 28 29  1  0
 29 30  2  0
 12 31  1  0
 31 32  1  0
 32 33  1  1
  7 34  1  0
 34 35  2  0
 35 36  1  0
 36 37  2  0
 37 38  1  0
 38 39  2  0
  7 40  1  0
 40 41  2  0
 41 42  1  0
 42 43  2  0
 43 44  1  0
 44 45  2  0
  6 46  1  0
 46 47  2  0
 47  3  1  0
 32 10  1  0
 39 34  1  0
 45 40  1  0
 30 13  1  0
 30 16  1  0
 26 21  1  0
M  END
>  <Binding energies>  (54) 
[-9.87]

>  <Ligand effiencies>  (54) 
[-0.2014285714285714]

>  <Interactions>  (54) 
["H-B:GLU:543:OE1:9881, V-B:TYR:539:CZ:9849, V-B:ILE:538:CA:9832, V-B:ASP:366:CG:8185, V-B:PRO:540:CB:9857, V-B:PRO:540:CA:9855, V-B:PRO:540:C:9853, V-B:ALA:541:CA:9862, V-B:TYR:539:CE2:9848, V-B:TYR:539:CD1:9845, V-B:TYR:539:CD2:9846, V-A:ASP:366:CG:3211, V-A:PRO:540:CA:4881, V-A:GLU:543:CD:4906, V-B:ASN:362:CB:8148, V-B:GLU:543:CD:9880, V-B:TYR:539:C:9839, H-B:GLU:543:OE2:9882, V-A:ARG:545:CZ:4924, H-A:ASP:366:OD2:3213, V-A:GLY:454:CA:4047, V-A:ARG:545:CD:4921, H-A:TYR:484:OH:4346, H-A:ARG:545:NE:4922, H-A:GLY:454:N:4048, H-A:ARG:545:NH2:4926, H-A:ASP:366:OD1:3212, H-A:ASP:366:O:3207, H-A:ARG:545:NH1:4925, V-B:HIS:456:CE1:9042, V-B:GLY:544:C:9884, V-B:HIS:456:CD2:9040, V-A:HIS:456:CE1:4068, H-A:HIS:456:NE2:4069, V-B:GLY:544:CA:9886, H-B:GLU:543:O:9875, V-B:GLU:543:CG:9879, V-B:GLU:543:C:9874, V-A:ARG:545:CG:4920, V-A:GLY:453:CA:4042, V-A:GLY:453:C:4040, V-A:GLU:543:CG:4905, V-B:ARG:545:CG:9894, V-B:GLU:543:CB:9878, H-A:HIS:456:ND1:4065, V-B:ARG:545:CA:9891, H-A:ARG:545:N:4918"]

$$$$
RR8_A_Rahimova_2017
     RDKit          3D

 42 46  0  0  0  0  0  0  0  0999 V2000
  127.3570  126.2260   55.5930 O   0  0  0  0  0  0  0  0  0  0  0  0
  128.4340  126.6600   55.1720 C   0  0  0  0  0  0  0  0  0  0  0  0
  129.3260  125.9300   54.4330 O   0  0  0  0  0  0  0  0  0  0  0  0
  130.2590  125.1500   55.1290 C   0  0  1  0  0  0  0  0  0  0  0  0
  131.3260  125.9200   55.6000 O   0  0  0  0  0  0  0  0  0  0  0  0
  131.7550  125.4970   56.8910 C   0  0  2  0  0  0  0  0  0  0  0  0
  133.2580  125.1720   56.8270 C   0  0  0  0  0  0  0  0  0  0  0  0
  133.4750  123.8940   57.4080 O   0  0  0  0  0  0  0  0  0  0  0  0
  134.1210  123.9370   58.6740 C   0  0  0  0  0  0  0  0  0  0  0  0
  133.2250  123.3110   59.7320 C   0  0  0  0  0  0  0  0  0  0  0  0
  132.7420  124.0910   60.7860 C   0  0  0  0  0  0  0  0  0  0  0  0
  131.9160  123.5210   61.7530 C   0  0  0  0  0  0  0  0  0  0  0  0
  131.5720  122.1740   61.6610 C   0  0  0  0  0  0  0  0  0  0  0  0
  132.0450  121.3910   60.6100 C   0  0  0  0  0  0  0  0  0  0  0  0
  132.8690  121.9600   59.6430 C   0  0  0  0  0  0  0  0  0  0  0  0
  130.8360  124.3110   57.2110 C   0  0  1  0  0  0  0  0  0  0  0  0
  130.4310  124.2680   58.5780 O   0  0  0  0  0  0  0  0  0  0  0  0
  129.8190  125.4500   59.0780 C   0  0  0  0  0  0  0  0  0  0  0  0
  128.5850  125.0910   59.8940 C   0  0  0  0  0  0  0  0  0  0  0  0
  128.5020  123.8390   60.5100 C   0  0  0  0  0  0  0  0  0  0  0  0
  127.3730  123.5000   61.2500 C   0  0  0  0  0  0  0  0  0  0  0  0
  126.3260  124.4120   61.3700 C   0  0  0  0  0  0  0  0  0  0  0  0
  126.3970  125.6590   60.7530 C   0  0  0  0  0  0  0  0  0  0  0  0
  127.5260  125.9980   60.0110 C   0  0  0  0  0  0  0  0  0  0  0  0
  129.5970  124.5960   56.3820 C   0  0  2  0  0  0  0  0  0  0  0  0
  128.8570  123.3990   56.1580 O   0  0  0  0  0  0  0  0  0  0  0  0
  128.0880  122.9330   57.2620 C   0  0  0  0  0  0  0  0  0  0  0  0
  126.6160  123.2490   57.0380 C   0  0  0  0  0  0  0  0  0  0  0  0
  125.8150  123.6620   58.1070 C   0  0  0  0  0  0  0  0  0  0  0  0
  124.4710  123.9590   57.8960 C   0  0  0  0  0  0  0  0  0  0  0  0
  123.9330  123.8470   56.6160 C   0  0  0  0  0  0  0  0  0  0  0  0
  124.7250  123.4420   55.5440 C   0  0  0  0  0  0  0  0  0  0  0  0
  126.0700  123.1440   55.7550 C   0  0  0  0  0  0  0  0  0  0  0  0
  128.8970  128.0680   55.4130 C   0  0  0  0  0  0  0  0  0  0  0  0
  129.8140  128.3840   56.4280 C   0  0  0  0  0  0  0  0  0  0  0  0
  130.2230  129.6990   56.6270 C   0  0  0  0  0  0  0  0  0  0  0  0
  129.7270  130.7320   55.8210 C   0  0  0  0  0  0  0  0  0  0  0  0
  130.1650  132.1330   56.0330 N   0  0  0  0  0  0  0  0  0  0  0  0
  131.2270  132.4990   55.5390 O   0  0  0  0  0  0  0  0  0  0  0  0
  129.4490  132.8780   56.6960 O   0  0  0  0  0  0  0  0  0  0  0  0
  128.8100  130.4160   54.8100 C   0  0  0  0  0  0  0  0  0  0  0  0
  128.4000  129.1020   54.6090 C   0  0  0  0  0  0  0  0  0  0  0  0
  1  2  2  0
  2  3  1  0
  4  3  1  1
  4  5  1  0
  5  6  1  0
  6  7  1  6
  7  8  1  0
  8  9  1  0
  9 10  1  0
 10 11  2  0
 11 12  1  0
 12 13  2  0
 13 14  1  0
 14 15  2  0
  6 16  1  0
 16 17  1  1
 17 18  1  0
 18 19  1  0
 19 20  2  0
 20 21  1  0
 21 22  2  0
 22 23  1  0
 23 24  2  0
 16 25  1  0
 25 26  1  6
 26 27  1  0
 27 28  1  0
 28 29  2  0
 29 30  1  0
 30 31  2  0
 31 32  1  0
 32 33  2  0
  2 34  1  0
 34 35  2  0
 35 36  1  0
 36 37  2  0
 37 38  1  0
 38 39  2  0
 38 40  1  0
 37 41  1  0
 41 42  2  0
 25  4  1  0
 33 28  1  0
 42 34  1  0
 15 10  1  0
 24 19  1  0
M  CHG  2  38   1  40  -1
M  END
>  <Binding energies>  (55) 
[-10.68]

>  <Ligand effiencies>  (55) 
[-0.2542857142857143]

>  <Interactions>  (55) 
["V-B:PRO:540:N:9856, V-B:TYR:539:CZ:9849, V-B:ILE:538:CA:9832, V-B:ALA:541:CB:9864, V-B:PRO:540:CB:9857, V-B:PRO:540:CA:9855, V-B:TYR:539:CE2:9848, V-A:LEU:475:CD2:4257, V-B:TYR:539:CE1:9847, V-B:TYR:539:CD2:9846, V-A:ASP:366:CG:3211, V-A:PRO:540:N:4882, H-A:TYR:539:N:4868, V-A:ILE:538:CA:4858, H-A:TYR:531:OH:4793, V-A:ASP:366:CB:3210, V-A:TYR:539:C:4865, V-B:TYR:531:CE2:9765, V-B:LEU:363:CD1:8161, V-B:TYR:531:CZ:9766, V-B:GLU:543:CD:9880, H-B:TYR:531:OH:9767, V-B:TYR:539:C:9839, V-B:ILE:538:CG2:9835, V-B:PRO:540:CD:9859, V-B:ILE:538:CB:9834, V-B:TYR:539:CG:9844, H-B:TYR:539:OH:9850, V-A:ILE:369:CB:3234, V-A:ILE:369:CG2:3235, V-A:ILE:369:CD1:3237, V-A:ASP:366:CA:3208, V-B:TYR:539:CA:9841, V-A:ASP:366:C:3206"]

$$$$
RR8_B_Rahimova_2017
     RDKit          3D

 42 46  0  0  0  0  0  0  0  0999 V2000
  133.3750  123.9880   57.4140 O   0  0  0  0  0  0  0  0  0  0  0  0
  132.6240  124.7280   58.0560 C   0  0  0  0  0  0  0  0  0  0  0  0
  131.7580  125.6250   57.4940 O   0  0  0  0  0  0  0  0  0  0  0  0
  130.8550  125.1580   56.5220 C   0  0  2  0  0  0  0  0  0  0  0  0
  130.6240  126.1100   55.5220 O   0  0  0  0  0  0  0  0  0  0  0  0
  129.5030  126.9350   55.8360 C   0  0  2  0  0  0  0  0  0  0  0  0
  129.9460  128.4090   55.8770 C   0  0  0  0  0  0  0  0  0  0  0  0
  129.6200  128.9600   57.1470 O   0  0  0  0  0  0  0  0  0  0  0  0
  130.7360  129.3200   57.9480 C   0  0  0  0  0  0  0  0  0  0  0  0
  131.4910  130.4550   57.2730 C   0  0  0  0  0  0  0  0  0  0  0  0
  130.7900  131.4130   56.5340 C   0  0  0  0  0  0  0  0  0  0  0  0
  131.4770  132.4410   55.8940 C   0  0  0  0  0  0  0  0  0  0  0  0
  132.8650  132.5090   55.9970 C   0  0  0  0  0  0  0  0  0  0  0  0
  133.5700  131.5620   56.7370 C   0  0  0  0  0  0  0  0  0  0  0  0
  132.8830  130.5320   57.3750 C   0  0  0  0  0  0  0  0  0  0  0  0
  128.9740  126.3690   57.1590 C   0  0  1  0  0  0  0  0  0  0  0  0
  127.5470  126.4620   57.1910 O   0  0  0  0  0  0  0  0  0  0  0  0
  126.8580  125.5950   58.0950 C   0  0  0  0  0  0  0  0  0  0  0  0
  125.9170  124.6360   57.3730 C   0  0  0  0  0  0  0  0  0  0  0  0
  124.6310  124.4080   57.8720 C   0  0  0  0  0  0  0  0  0  0  0  0
  123.7630  123.5580   57.1930 C   0  0  0  0  0  0  0  0  0  0  0  0
  124.1840  122.9350   56.0190 C   0  0  0  0  0  0  0  0  0  0  0  0
  125.4650  123.1550   55.5190 C   0  0  0  0  0  0  0  0  0  0  0  0
  126.3330  124.0090   56.1960 C   0  0  0  0  0  0  0  0  0  0  0  0
  129.4870  124.9330   57.1640 C   0  0  2  0  0  0  0  0  0  0  0  0
  129.5520  124.4330   58.4970 O   0  0  0  0  0  0  0  0  0  0  0  0
  129.0950  123.1010   58.6760 C   0  0  0  0  0  0  0  0  0  0  0  0
  129.6560  122.5780   59.9860 C   0  0  0  0  0  0  0  0  0  0  0  0
  129.3660  123.2290   61.1890 C   0  0  0  0  0  0  0  0  0  0  0  0
  129.9020  122.7520   62.3820 C   0  0  0  0  0  0  0  0  0  0  0  0
  130.7250  121.6280   62.3700 C   0  0  0  0  0  0  0  0  0  0  0  0
  131.0170  120.9730   61.1740 C   0  0  0  0  0  0  0  0  0  0  0  0
  130.4810  121.4490   59.9810 C   0  0  0  0  0  0  0  0  0  0  0  0
  132.5910  124.7630   59.5560 C   0  0  0  0  0  0  0  0  0  0  0  0
  131.7580  125.6480   60.2570 C   0  0  0  0  0  0  0  0  0  0  0  0
  131.7550  125.6650   61.6480 C   0  0  0  0  0  0  0  0  0  0  0  0
  132.5900  124.8070   62.3730 C   0  0  0  0  0  0  0  0  0  0  0  0
  132.6050  124.8450   63.8560 N   0  0  0  0  0  0  0  0  0  0  0  0
  133.6850  124.9440   64.4320 O   0  0  0  0  0  0  0  0  0  0  0  0
  131.5350  124.7810   64.4570 O   0  0  0  0  0  0  0  0  0  0  0  0
  133.4180  123.9190   61.6730 C   0  0  0  0  0  0  0  0  0  0  0  0
  133.4160  123.8960   60.2820 C   0  0  0  0  0  0  0  0  0  0  0  0
  1  2  2  0
  2  3  1  0
  4  3  1  1
  4  5  1  0
  5  6  1  0
  6  7  1  1
  7  8  1  0
  8  9  1  0
  9 10  1  0
 10 11  2  0
 11 12  1  0
 12 13  2  0
 13 14  1  0
 14 15  2  0
  6 16  1  0
 16 17  1  6
 17 18  1  0
 18 19  1  0
 19 20  2  0
 20 21  1  0
 21 22  2  0
 22 23  1  0
 23 24  2  0
 16 25  1  0
 25 26  1  1
 26 27  1  0
 27 28  1  0
 28 29  2  0
 29 30  1  0
 30 31  2  0
 31 32  1  0
 32 33  2  0
  2 34  1  0
 34 35  2  0
 35 36  1  0
 36 37  2  0
 37 38  1  0
 38 39  2  0
 38 40  1  0
 37 41  1  0
 41 42  2  0
 25  4  1  0
 33 28  1  0
 42 34  1  0
 15 10  1  0
 24 19  1  0
M  CHG  2  38   1  40  -1
M  END
>  <Binding energies>  (56) 
[-10.45]

>  <Ligand effiencies>  (56) 
[-0.24880952380952379]

>  <Interactions>  (56) 
["V-B:PRO:540:N:9856, V-B:LEU:363:CA:8157, V-B:TYR:539:CZ:9849, V-B:ILE:538:CA:9832, V-B:ALA:541:CB:9864, V-B:PRO:540:CB:9857, V-B:PRO:540:CA:9855, V-B:TYR:539:CE2:9848, V-A:LEU:475:CD2:4257, V-B:TYR:539:CD2:9846, V-A:ASP:366:CG:3211, V-A:PRO:540:N:4882, V-A:ILE:538:CA:4858, V-A:TYR:531:CE2:4791, V-A:LEU:363:CA:3183, H-A:TYR:531:OH:4793, V-A:ASP:366:CB:3210, V-A:TYR:539:C:4865, V-A:LEU:363:CD1:3187, V-A:ILE:538:CB:4860, V-A:ILE:538:CG2:4861, V-A:TYR:531:CZ:4792, V-A:PRO:540:CB:4883, V-B:TYR:531:CE2:9765, V-B:LEU:363:CD1:8161, H-B:TYR:531:OH:9767, V-B:TYR:539:C:9839, V-B:ILE:538:CG2:9835, V-B:PRO:540:CD:9859, V-B:ILE:538:CB:9834, V-B:PRO:540:CG:9858, V-A:ARG:545:CZ:4924, V-A:PRO:540:CD:4885, H-A:TYR:484:OH:4346, H-A:ARG:545:NE:4922, H-A:GLY:454:N:4048, V-A:ILE:538:C:4856, H-B:TYR:539:OH:9850, V-A:ILE:369:CD1:3237, V-A:PRO:540:CG:4884"]

$$$$
RR9_Rahimova_2017
     RDKit          3D

 36 40  0  0  0  0  0  0  0  0999 V2000
  124.1870  133.6210   60.4450 C   0  0  0  0  0  0  0  0  0  0  0  0
  124.3800  132.1770   59.9720 C   0  0  0  0  0  0  0  0  0  0  0  0
  124.3270  131.3140   61.1040 O   0  0  0  0  0  0  0  0  0  0  0  0
  125.3040  130.3510   61.2700 C   0  0  0  0  0  0  0  0  0  0  0  0
  125.7480  129.7080   60.1160 C   0  0  0  0  0  0  0  0  0  0  0  0
  126.7280  128.7240   60.1860 C   0  0  0  0  0  0  0  0  0  0  0  0
  127.2940  128.3530   61.4150 C   0  0  0  0  0  0  0  0  0  0  0  0
  128.3480  127.2890   61.4970 C   0  0  0  0  0  0  0  0  0  0  0  0
  128.5490  126.3710   60.4540 C   0  0  0  0  0  0  0  0  0  0  0  0
  129.5470  125.3830   60.5300 C   0  0  0  0  0  0  0  0  0  0  0  0
  129.7800  124.4940   59.3390 C   0  0  0  0  0  0  0  0  0  0  0  0
  130.8320  124.5680   58.7030 O   0  0  0  0  0  0  0  0  0  0  0  0
  128.7700  123.6600   59.0240 N   0  0  0  0  0  0  0  0  0  0  0  0
  128.7050  122.7970   57.8400 C   0  0  0  0  0  0  0  0  0  0  0  0
  127.9600  123.4520   56.6530 C   0  0  0  0  0  0  0  0  0  0  0  0
  126.4520  123.5760   56.8380 C   0  0  0  0  0  0  0  0  0  0  0  0
  125.5820  123.1090   55.8470 C   0  0  0  0  0  0  0  0  0  0  0  0
  124.2050  123.1920   56.0350 C   0  0  0  0  0  0  0  0  0  0  0  0
  123.7020  123.7460   57.2090 C   0  0  0  0  0  0  0  0  0  0  0  0
  124.5620  124.2180   58.2000 C   0  0  0  0  0  0  0  0  0  0  0  0
  125.9400  124.1340   58.0130 C   0  0  0  0  0  0  0  0  0  0  0  0
  130.3070  125.3490   61.7260 C   0  0  0  0  0  0  0  0  0  0  0  0
  131.3670  124.5680   62.3180 C   0  0  0  0  0  0  0  0  0  0  0  0
  132.0370  123.3360   61.8060 C   0  0  0  0  0  0  0  0  0  0  0  0
  131.2900  122.3450   61.1620 C   0  0  0  0  0  0  0  0  0  0  0  0
  131.9140  121.1890   60.7000 C   0  0  0  0  0  0  0  0  0  0  0  0
  133.2890  121.0220   60.8770 C   0  0  0  0  0  0  0  0  0  0  0  0
  133.9660  119.7530   60.3900 C   0  0  0  0  0  0  0  0  0  0  0  0
  134.0370  122.0070   61.5210 C   0  0  0  0  0  0  0  0  0  0  0  0
  133.4130  123.1630   61.9800 C   0  0  0  0  0  0  0  0  0  0  0  0
  131.7160  125.0720   63.4810 N   0  0  0  0  0  0  0  0  0  0  0  0
  130.9130  126.1160   63.7370 N   0  0  0  0  0  0  0  0  0  0  0  0
  130.0240  126.3270   62.7090 C   0  0  0  0  0  0  0  0  0  0  0  0
  129.0880  127.2730   62.6410 N   0  0  0  0  0  0  0  0  0  0  0  0
  126.8410  129.0030   62.5720 C   0  0  0  0  0  0  0  0  0  0  0  0
  125.8610  129.9900   62.5050 C   0  0  0  0  0  0  0  0  0  0  0  0
  1  2  1  0
  2  3  1  0
  3  4  1  0
  4  5  2  0
  5  6  1  0
  6  7  2  0
  7  8  1  0
  8  9  2  0
  9 10  1  0
 10 11  1  0
 11 12  2  0
 11 13  1  0
 13 14  1  0
 14 15  1  0
 15 16  1  0
 16 17  2  0
 17 18  1  0
 18 19  2  0
 19 20  1  0
 20 21  2  0
 10 22  2  0
 22 23  1  0
 23 24  1  0
 24 25  2  0
 25 26  1  0
 26 27  2  0
 27 28  1  0
 27 29  1  0
 29 30  2  0
 23 31  2  0
 31 32  1  0
 32 33  1  0
 33 34  2  0
  7 35  1  0
 35 36  2  0
 36  4  1  0
 34  8  1  0
 21 16  1  0
 33 22  1  0
 30 24  1  0
M  END
>  <Binding energies>  (57) 
[-8.25]

>  <Ligand effiencies>  (57) 
[-0.21710526315789475]

>  <Interactions>  (57) 
["V-B:PRO:540:N:9856, V-B:LEU:363:CA:8157, V-A:TRP:381:CZ2:3368, H-B:GLU:543:OE1:9881, V-B:TYR:539:CZ:9849, V-A:TRP:381:CH2:3370, V-B:ILE:538:CA:9832, V-B:ASP:366:CG:8185, V-B:PRO:540:CB:9857, V-B:PRO:540:CA:9855, V-B:TYR:539:CE2:9848, V-A:LEU:475:CD2:4257, V-B:TYR:539:CD2:9846, V-A:GLU:543:CD:4906, V-B:TYR:531:CE2:9765, V-B:LEU:363:CD1:8161, V-B:GLU:543:CD:9880, V-B:TYR:539:C:9839, V-B:ILE:538:CG2:9835, V-B:PRO:540:CD:9859, V-B:ILE:538:CB:9834, V-A:ARG:545:CZ:4924, H-A:GLU:543:OE2:4908, V-A:GLY:454:CA:4047, V-A:TYR:539:CE2:4874, V-B:TYR:539:CG:9844, H-A:ARG:545:NH2:4926, V-A:ILE:369:CG2:3235, V-A:ILE:369:CD1:3237, V-B:ILE:369:CD1:8211, V-B:ILE:369:CG2:8209, V-A:SER:385:C:3403, V-A:SER:385:CA:3405, V-A:SER:385:CB:3407"]

$$$$
