1a_Grossjean_2025
     RDKit          3D

 26 27  0  0  0  0  0  0  0  0999 V2000
  133.5890  120.9220   61.1320 C   0  0  0  0  0  0  0  0  0  0  0  0
  133.6160  122.4500   61.0390 C   0  0  0  0  0  0  0  0  0  0  0  0
  132.7390  122.8770   60.0040 O   0  0  0  0  0  0  0  0  0  0  0  0
  133.0660  123.9190   59.1950 C   0  0  0  0  0  0  0  0  0  0  0  0
  133.9660  123.8680   58.3520 O   0  0  0  0  0  0  0  0  0  0  0  0
  132.2320  125.1440   59.4390 C   0  0  0  0  0  0  0  0  0  0  0  0
  131.8790  125.4800   60.7520 C   0  0  0  0  0  0  0  0  0  0  0  0
  131.1040  126.6060   61.0110 C   0  0  0  0  0  0  0  0  0  0  0  0
  130.6640  127.4180   59.9650 C   0  0  0  0  0  0  0  0  0  0  0  0
  129.8850  128.5300   60.3410 N   0  0  0  0  0  0  0  0  0  0  0  0
  129.7560  129.1340   61.5410 C   0  0  0  0  0  0  0  0  0  0  0  0
  130.3340  128.7990   62.5760 O   0  0  0  0  0  0  0  0  0  0  0  0
  128.8030  130.3300   61.5740 C   0  0  0  0  0  0  0  0  0  0  0  0
  129.6760  131.9090   61.3530 S   0  0  0  0  0  0  0  0  0  0  0  0
  130.4270  131.8820   59.7400 C   0  0  0  0  0  0  0  0  0  0  0  0
  129.5670  132.1700   58.7310 N   0  0  0  0  0  0  0  0  0  0  0  0
  130.0330  132.1720   57.4600 C   0  0  0  0  0  0  0  0  0  0  0  0
  129.0120  132.4900   56.3840 C   0  0  0  0  0  0  0  0  0  0  0  0
  131.3630  131.9020   57.1460 C   0  0  0  0  0  0  0  0  0  0  0  0
  132.2630  131.6250   58.1810 C   0  0  0  0  0  0  0  0  0  0  0  0
  133.7190  131.3460   57.8140 C   0  0  0  0  0  0  0  0  0  0  0  0
  131.8000  131.6200   59.5170 C   0  0  0  0  0  0  0  0  0  0  0  0
  132.7340  131.3810   60.6210 C   0  0  0  0  0  0  0  0  0  0  0  0
  133.4730  131.1910   61.4900 N   0  0  0  0  0  0  0  0  0  0  0  0
  131.0200  127.0940   58.6470 C   0  0  0  0  0  0  0  0  0  0  0  0
  131.7950  125.9670   58.3900 C   0  0  0  0  0  0  0  0  0  0  0  0
  1  2  1  0
  2  3  1  0
  3  4  1  0
  4  5  2  0
  4  6  1  0
  6  7  2  0
  7  8  1  0
  8  9  2  0
  9 10  1  0
 10 11  1  0
 11 12  2  0
 11 13  1  0
 13 14  1  0
 14 15  1  0
 15 16  2  0
 16 17  1  0
 17 18  1  0
 17 19  2  0
 19 20  1  0
 20 21  1  0
 20 22  2  0
 22 23  1  0
 23 24  3  0
  9 25  1  0
 25 26  2  0
 26  6  1  0
 22 15  1  0
M  END
>  <Binding energies>  (1) 
[-6.76]

>  <Ligand effiencies>  (1) 
[-0.25037037037037035]

>  <Interactions>  (1) 
["V-A:PRO:540:CA:4881, V-A:TYR:531:CE2:4791, V-B:TYR:539:CE1:9847, V-A:ILE:369:CG2:3234, V-A:PRO:540:CB:4883, V-A:ILE:369:CD1:3236, V-A:LEU:363:CA:3182, V-A:PRO:540:N:4882, V-A:ASP:366:CG:3210, V-A:LEU:475:CD2:4256, V-A:LEU:363:CD1:3186, V-A:TYR:539:CE1:4873, H-A:ARG:545:NH2:4926, V-A:TYR:539:CD1:4871, V-A:ASP:366:CB:3209, V-B:TYR:539:CZ:9849, V-A:TYR:539:CZ:4875, H-B:TYR:539:OH:9850, V-A:MET:535:CE:4833, V-A:TYR:539:CG:4870, V-A:TYR:539:CE2:4874, V-A:TYR:539:CD2:4872, H-A:ALA:541:N:4889, V-A:LEU:363:CB:3184"]

$$$$
1aa_Ghoteimi_2023
     RDKit          3D

 40 43  0  0  0  0  0  0  0  0999 V2000
  131.7000  126.4750   73.8860 C   0  0  0  0  0  0  0  0  0  0  0  0
  130.3260  125.9290   73.4880 C   0  0  0  0  0  0  0  0  0  0  0  0
  129.3180  126.8570   73.8710 O   0  0  0  0  0  0  0  0  0  0  0  0
  129.0540  127.9550   73.1180 C   0  0  0  0  0  0  0  0  0  0  0  0
  128.7550  129.0530   73.5970 O   0  0  0  0  0  0  0  0  0  0  0  0
  129.1620  127.7030   71.6410 C   0  0  0  0  0  0  0  0  0  0  0  0
  128.0550  127.3110   70.8720 C   0  0  0  0  0  0  0  0  0  0  0  0
  128.1850  127.0850   69.5040 C   0  0  0  0  0  0  0  0  0  0  0  0
  129.4290  127.2500   68.8780 C   0  0  0  0  0  0  0  0  0  0  0  0
  129.6800  127.0500   67.5080 N   0  0  0  0  0  0  0  0  0  0  0  0
  130.0560  125.9350   66.8390 C   0  0  0  0  0  0  0  0  0  0  0  0
  130.2490  124.8360   67.3570 O   0  0  0  0  0  0  0  0  0  0  0  0
  130.2530  126.0590   65.3200 C   0  0  0  0  0  0  0  0  0  0  0  0
  131.2120  125.0980   64.8590 O   0  0  0  0  0  0  0  0  0  0  0  0
  131.2030  124.6770   63.5370 C   0  0  0  0  0  0  0  0  0  0  0  0
  131.1430  125.6270   62.5620 N   0  0  0  0  0  0  0  0  0  0  0  0
  131.1190  125.2530   61.2560 C   0  0  0  0  0  0  0  0  0  0  0  0
  131.0540  126.3600   60.2430 C   0  0  0  0  0  0  0  0  0  0  0  0
  131.3880  126.1300   58.9000 C   0  0  0  0  0  0  0  0  0  0  0  0
  131.3310  127.1550   57.9600 C   0  0  0  0  0  0  0  0  0  0  0  0
  130.9380  128.4390   58.3300 C   0  0  0  0  0  0  0  0  0  0  0  0
  130.9110  129.3920   57.3300 O   0  0  0  0  0  0  0  0  0  0  0  0
  131.5860  130.6290   57.5330 C   0  0  0  0  0  0  0  0  0  0  0  0
  130.5960  128.6830   59.6680 C   0  0  0  0  0  0  0  0  0  0  0  0
  130.6530  127.6570   60.6050 C   0  0  0  0  0  0  0  0  0  0  0  0
  131.1750  123.9010   60.8990 C   0  0  0  0  0  0  0  0  0  0  0  0
  131.2480  122.9040   61.8820 C   0  0  0  0  0  0  0  0  0  0  0  0
  131.3160  121.4810   61.4360 C   0  0  0  0  0  0  0  0  0  0  0  0
  132.5000  120.9690   60.8940 C   0  0  0  0  0  0  0  0  0  0  0  0
  132.5740  119.6400   60.4860 C   0  0  0  0  0  0  0  0  0  0  0  0
  131.4720  118.7960   60.6140 C   0  0  0  0  0  0  0  0  0  0  0  0
  131.6380  117.4940   60.1820 O   0  0  0  0  0  0  0  0  0  0  0  0
  132.8950  116.8540   60.3710 C   0  0  0  0  0  0  0  0  0  0  0  0
  130.2850  119.3030   61.1650 C   0  0  0  0  0  0  0  0  0  0  0  0
  130.2130  120.6320   61.5720 C   0  0  0  0  0  0  0  0  0  0  0  0
  131.2540  123.3050   63.2380 C   0  0  0  0  0  0  0  0  0  0  0  0
  131.2840  122.3350   64.3340 C   0  0  0  0  0  0  0  0  0  0  0  0
  131.3080  121.5690   65.2010 N   0  0  0  0  0  0  0  0  0  0  0  0
  130.5320  127.6380   69.6410 C   0  0  0  0  0  0  0  0  0  0  0  0
  130.4010  127.8630   71.0070 C   0  0  0  0  0  0  0  0  0  0  0  0
  1  2  1  0
  2  3  1  0
  3  4  1  0
  4  5  2  0
  4  6  1  0
  6  7  2  0
  7  8  1  0
  8  9  2  0
  9 10  1  0
 10 11  1  0
 11 12  2  0
 11 13  1  0
 13 14  1  0
 14 15  1  0
 15 16  2  0
 16 17  1  0
 17 18  1  0
 18 19  2  0
 19 20  1  0
 20 21  2  0
 21 22  1  0
 22 23  1  0
 21 24  1  0
 24 25  2  0
 17 26  2  0
 26 27  1  0
 27 28  1  0
 28 29  2  0
 29 30  1  0
 30 31  2  0
 31 32  1  0
 32 33  1  0
 31 34  1  0
 34 35  2  0
 27 36  2  0
 36 37  1  0
 37 38  3  0
  9 39  1  0
 39 40  2  0
 40  6  1  0
 36 15  1  0
 25 18  1  0
 35 28  1  0
M  END
>  <Binding energies>  (2) 
[-7.63]

>  <Ligand effiencies>  (2) 
[-0.18609756097560975]

>  <Interactions>  (2) 
["V-B:ALA:541:CB:9864, V-B:TYR:539:CE1:9847, V-A:ILE:369:CG2:3234, H-A:TYR:484:OH:4345, V-A:ASP:366:CG:3210, V-A:LEU:475:CD2:4256, H-A:ARG:545:NH2:4926, V-B:TYR:539:CD1:9845, V-B:TYR:539:CG:9844, V-B:TYR:539:C:9839, V-B:GLU:543:CD:9880, V-B:GLU:543:CG:9879, H-A:GLU:543:OE2:4908, V-B:GLU:543:CB:9878, V-A:HIS:456:CE1:4066, V-A:ASP:366:CB:3209, H-A:GLU:543:OE1:4907, H-B:GLU:543:OE2:9882, V-B:HIS:456:CE1:9040, V-A:GLU:543:CD:4906, V-A:GLU:543:CG:4905, V-B:GLU:543:C:9874, V-B:GLY:544:CA:9886, V-B:HIS:456:CD2:9039, V-A:GLU:543:C:4900, V-A:LYS:547:CE:4948, V-A:GLY:544:C:4910, V-A:HIS:456:CG:4063, V-B:GLY:544:C:9884, V-A:HIS:456:CD2:4065, H-A:LYS:547:NZ:4949, V-A:HIS:456:CB:4062, H-B:LYS:547:NZ:9923, V-A:GLY:544:CA:4912, H-A:HIS:456:NE2:4067, H-A:TYR:531:OH:4793, V-A:PRO:482:CB:4323, V-A:TYR:484:CZ:4344, V-A:TYR:484:CE2:4343, V-A:PRO:482:CG:4324, V-A:LEU:373:CD1:3277, V-A:SER:385:CA:3404, V-A:SER:385:CB:3406"]

$$$$
1b_Grossjean_2025
     RDKit          3D

 25 26  0  0  0  0  0  0  0  0999 V2000
  128.7160  122.7640   59.6690 C   0  0  0  0  0  0  0  0  0  0  0  0
  127.6370  122.7670   58.7440 O   0  0  0  0  0  0  0  0  0  0  0  0
  127.8330  123.1080   57.4450 C   0  0  0  0  0  0  0  0  0  0  0  0
  127.5250  122.3800   56.4950 O   0  0  0  0  0  0  0  0  0  0  0  0
  128.4560  124.4640   57.2740 C   0  0  0  0  0  0  0  0  0  0  0  0
  127.8130  125.6350   57.7040 C   0  0  0  0  0  0  0  0  0  0  0  0
  128.4170  126.8770   57.5300 C   0  0  0  0  0  0  0  0  0  0  0  0
  129.6700  126.9770   56.9270 C   0  0  0  0  0  0  0  0  0  0  0  0
  130.1840  128.2820   56.8020 N   0  0  0  0  0  0  0  0  0  0  0  0
  129.5410  129.4570   56.6250 C   0  0  0  0  0  0  0  0  0  0  0  0
  128.3220  129.6000   56.5430 O   0  0  0  0  0  0  0  0  0  0  0  0
  130.4420  130.6890   56.5350 C   0  0  0  0  0  0  0  0  0  0  0  0
  129.7550  132.1090   57.4410 S   0  0  0  0  0  0  0  0  0  0  0  0
  130.2540  131.9450   59.1420 C   0  0  0  0  0  0  0  0  0  0  0  0
  129.2340  132.0780   60.0250 N   0  0  0  0  0  0  0  0  0  0  0  0
  129.5010  131.9700   61.3480 C   0  0  0  0  0  0  0  0  0  0  0  0
  128.3100  132.1150   62.2760 C   0  0  0  0  0  0  0  0  0  0  0  0
  130.7850  131.7380   61.8390 C   0  0  0  0  0  0  0  0  0  0  0  0
  131.8460  131.6220   60.9360 C   0  0  0  0  0  0  0  0  0  0  0  0
  133.2470  131.3840   61.4990 C   0  0  0  0  0  0  0  0  0  0  0  0
  131.5910  131.7310   59.5500 C   0  0  0  0  0  0  0  0  0  0  0  0
  132.6940  131.6560   58.5890 C   0  0  0  0  0  0  0  0  0  0  0  0
  133.5670  131.5970   57.8320 N   0  0  0  0  0  0  0  0  0  0  0  0
  130.3200  125.8110   56.4950 C   0  0  0  0  0  0  0  0  0  0  0  0
  129.7150  124.5690   56.6700 C   0  0  0  0  0  0  0  0  0  0  0  0
  1  2  1  0
  2  3  1  0
  3  4  2  0
  3  5  1  0
  5  6  2  0
  6  7  1  0
  7  8  2  0
  8  9  1  0
  9 10  1  0
 10 11  2  0
 10 12  1  0
 12 13  1  0
 13 14  1  0
 14 15  2  0
 15 16  1  0
 16 17  1  0
 16 18  2  0
 18 19  1  0
 19 20  1  0
 19 21  2  0
 21 22  1  0
 22 23  3  0
  8 24  1  0
 24 25  2  0
 25  5  1  0
 21 14  1  0
M  END
>  <Binding energies>  (3) 
[-6.77]

>  <Ligand effiencies>  (3) 
[-0.2603846153846154]

>  <Interactions>  (3) 
["V-A:PRO:540:CA:4881, V-A:ARG:545:CZ:4924, V-B:TYR:539:CE1:9847, V-A:PRO:540:CB:4883, V-A:PRO:540:N:4882, V-B:PRO:540:CA:9855, V-B:TYR:539:CD1:9845, V-B:TYR:539:C:9839, V-A:ALA:541:CB:4890, V-B:TYR:539:CZ:9849, V-A:PRO:540:C:4879, H-A:TYR:531:OH:4793, V-B:MET:535:CE:9807, V-A:MET:535:CE:4833, H-B:TYR:539:N:9842, V-A:ASN:362:CB:3173"]

$$$$
1c_Grossjean_2025
     RDKit          3D

 23 24  0  0  0  0  0  0  0  0999 V2000
  132.9810  125.4610   65.7670 C   0  0  0  0  0  0  0  0  0  0  0  0
  133.6510  125.0710   64.5720 O   0  0  0  0  0  0  0  0  0  0  0  0
  132.9480  125.0500   63.3830 C   0  0  0  0  0  0  0  0  0  0  0  0
  133.5470  124.3760   62.3190 C   0  0  0  0  0  0  0  0  0  0  0  0
  132.9170  124.2980   61.0800 C   0  0  0  0  0  0  0  0  0  0  0  0
  131.6620  124.8960   60.8930 C   0  0  0  0  0  0  0  0  0  0  0  0
  130.9420  124.8870   59.6830 N   0  0  0  0  0  0  0  0  0  0  0  0
  131.3690  124.6030   58.4340 C   0  0  0  0  0  0  0  0  0  0  0  0
  132.5140  124.2690   58.1290 O   0  0  0  0  0  0  0  0  0  0  0  0
  130.3070  124.7090   57.3370 C   0  0  0  0  0  0  0  0  0  0  0  0
  129.1150  123.3400   57.4140 S   0  0  0  0  0  0  0  0  0  0  0  0
  128.4070  123.3010   59.0480 C   0  0  0  0  0  0  0  0  0  0  0  0
  129.2870  122.9200   60.0090 N   0  0  0  0  0  0  0  0  0  0  0  0
  128.8610  122.8530   61.2920 C   0  0  0  0  0  0  0  0  0  0  0  0
  129.9030  122.4300   62.3100 C   0  0  0  0  0  0  0  0  0  0  0  0
  127.5530  123.1500   61.6660 C   0  0  0  0  0  0  0  0  0  0  0  0
  126.6320  123.5200   60.6820 C   0  0  0  0  0  0  0  0  0  0  0  0
  125.1990  123.8240   61.1150 C   0  0  0  0  0  0  0  0  0  0  0  0
  127.0530  123.5950   59.3340 C   0  0  0  0  0  0  0  0  0  0  0  0
  126.0880  123.9270   58.2820 C   0  0  0  0  0  0  0  0  0  0  0  0
  125.3270  124.1900   57.4520 N   0  0  0  0  0  0  0  0  0  0  0  0
  131.0640  125.5820   61.9520 C   0  0  0  0  0  0  0  0  0  0  0  0
  131.6980  125.6570   63.1900 C   0  0  0  0  0  0  0  0  0  0  0  0
  1  2  1  0
  2  3  1  0
  3  4  2  0
  4  5  1  0
  5  6  2  0
  6  7  1  0
  7  8  1  0
  8  9  2  0
  8 10  1  0
 10 11  1  0
 11 12  1  0
 12 13  2  0
 13 14  1  0
 14 15  1  0
 14 16  2  0
 16 17  1  0
 17 18  1  0
 17 19  2  0
 19 20  1  0
 20 21  3  0
  6 22  1  0
 22 23  2  0
 23  3  1  0
 19 12  1  0
M  END
>  <Binding energies>  (4) 
[-6.17]

>  <Ligand effiencies>  (4) 
[-0.25708333333333333]

>  <Interactions>  (4) 
["V-A:ARG:545:CZ:4924, H-A:ARG:545:NE:4922, V-B:ALA:541:CB:9864, V-B:TYR:539:CE1:9847, H-A:GLY:454:N:4047, H-A:TYR:484:OH:4345, V-B:PRO:540:CA:9855, V-B:PRO:540:CB:9857, H-B:TYR:531:OH:9767, V-A:HIS:456:CE1:4066, V-B:TYR:539:CZ:9849, H-B:TYR:539:OH:9850, V-B:PRO:540:C:9853, V-A:ARG:545:CG:4920, V-A:ARG:545:CD:4921, V-B:ALA:541:CA:9862"]

$$$$
1d_Grossjean_2025
     RDKit          3D

 21 22  0  0  0  0  0  0  0  0999 V2000
  128.5690  122.7740   56.4810 C   0  0  0  0  0  0  0  0  0  0  0  0
  127.5900  123.0590   57.6030 C   0  0  0  0  0  0  0  0  0  0  0  0
  126.2950  123.5050   57.3460 C   0  0  0  0  0  0  0  0  0  0  0  0
  125.4310  123.7430   58.4210 C   0  0  0  0  0  0  0  0  0  0  0  0
  124.0120  124.2160   58.1130 C   0  0  0  0  0  0  0  0  0  0  0  0
  125.8950  123.5340   59.7400 C   0  0  0  0  0  0  0  0  0  0  0  0
  124.9940  123.7300   60.8780 C   0  0  0  0  0  0  0  0  0  0  0  0
  124.2800  123.8850   61.7750 N   0  0  0  0  0  0  0  0  0  0  0  0
  127.2330  123.1040   59.9080 C   0  0  0  0  0  0  0  0  0  0  0  0
  127.9800  122.7930   61.4920 S   0  0  0  0  0  0  0  0  0  0  0  0
  129.6840  123.4250   61.4220 C   0  0  0  0  0  0  0  0  0  0  0  0
  130.7190  122.3060   61.5500 C   0  0  0  0  0  0  0  0  0  0  0  0
  131.7960  122.5430   62.0980 O   0  0  0  0  0  0  0  0  0  0  0  0
  130.3400  121.1080   61.0550 N   0  0  0  0  0  0  0  0  0  0  0  0
  131.0460  119.8920   60.9960 C   0  0  0  0  0  0  0  0  0  0  0  0
  132.4140  119.9980   60.7310 C   0  0  0  0  0  0  0  0  0  0  0  0
  133.2060  118.8560   60.6570 C   0  0  0  0  0  0  0  0  0  0  0  0
  132.6320  117.6030   60.8550 C   0  0  0  0  0  0  0  0  0  0  0  0
  131.2710  117.4840   61.1290 C   0  0  0  0  0  0  0  0  0  0  0  0
  130.4760  118.6240   61.2030 C   0  0  0  0  0  0  0  0  0  0  0  0
  128.0560  122.8550   58.8580 N   0  0  0  0  0  0  0  0  0  0  0  0
  1  2  1  0
  2  3  2  0
  3  4  1  0
  4  5  1  0
  4  6  2  0
  6  7  1  0
  7  8  3  0
  6  9  1  0
  9 10  1  0
 10 11  1  0
 11 12  1  0
 12 13  2  0
 12 14  1  0
 14 15  1  0
 15 16  2  0
 16 17  1  0
 17 18  2  0
 18 19  1  0
 19 20  2  0
  9 21  2  0
 21  2  1  0
 20 15  1  0
M  END
>  <Binding energies>  (5) 
[-7.55]

>  <Ligand effiencies>  (5) 
[-0.3431818181818182]

>  <Interactions>  (5) 
["H-B:ARG:545:NH2:9900, V-B:ALA:541:CB:9864, V-B:TYR:539:CE1:9847, V-A:ILE:369:CG2:3234, V-A:LEU:475:CD2:4256, V-B:TYR:531:CE2:9765, V-B:PRO:540:CA:9855, V-B:ASP:366:CG:8184, V-B:PRO:540:CB:9857, V-B:LEU:363:CD1:8160, V-B:TYR:539:CD1:9845, V-B:LEU:363:CA:8156, V-B:ASP:366:CB:8183, V-B:PRO:540:N:9856, V-B:TYR:539:CG:9844, V-B:TYR:539:C:9839, V-B:TYR:539:CZ:9849, H-B:ALA:541:N:9863, V-A:PRO:482:CB:4323, V-B:TYR:539:CE2:9848, V-A:PRO:482:CG:4324, V-B:TYR:539:CD2:9846, H-B:TYR:539:O:9840, V-A:LEU:373:CD1:3277, V-A:SER:385:CA:3404, V-A:SER:385:CB:3406"]

$$$$
1e_Grossjean_2025
     RDKit          3D

 22 23  0  0  0  0  0  0  0  0999 V2000
  130.2040  126.1400   67.0010 C   0  0  0  0  0  0  0  0  0  0  0  0
  131.1170  125.7130   65.8670 C   0  0  0  0  0  0  0  0  0  0  0  0
  132.5080  125.7460   65.9960 C   0  0  0  0  0  0  0  0  0  0  0  0
  133.2840  125.3410   64.9100 C   0  0  0  0  0  0  0  0  0  0  0  0
  132.6600  124.9200   63.7330 C   0  0  0  0  0  0  0  0  0  0  0  0
  131.2620  124.9080   63.6730 C   0  0  0  0  0  0  0  0  0  0  0  0
  130.6910  124.4860   62.4590 N   0  0  0  0  0  0  0  0  0  0  0  0
  131.3010  124.2710   61.2730 C   0  0  0  0  0  0  0  0  0  0  0  0
  132.5040  124.4290   61.0580 O   0  0  0  0  0  0  0  0  0  0  0  0
  130.3900  123.8270   60.1270 C   0  0  0  0  0  0  0  0  0  0  0  0
  129.3060  122.4500   60.6130 S   0  0  0  0  0  0  0  0  0  0  0  0
  127.6110  122.9710   60.4440 C   0  0  0  0  0  0  0  0  0  0  0  0
  127.0000  123.2120   61.6320 N   0  0  0  0  0  0  0  0  0  0  0  0
  125.7070  123.6120   61.6320 C   0  0  0  0  0  0  0  0  0  0  0  0
  125.0940  123.8700   62.9950 C   0  0  0  0  0  0  0  0  0  0  0  0
  124.9710  123.7750   60.4600 C   0  0  0  0  0  0  0  0  0  0  0  0
  125.5830  123.5060   59.2310 C   0  0  0  0  0  0  0  0  0  0  0  0
  124.7490  123.6740   57.9620 C   0  0  0  0  0  0  0  0  0  0  0  0
  126.9320  123.0830   59.2080 C   0  0  0  0  0  0  0  0  0  0  0  0
  127.5690  122.7410   57.9340 C   0  0  0  0  0  0  0  0  0  0  0  0
  128.0700  122.4700   56.9260 N   0  0  0  0  0  0  0  0  0  0  0  0
  130.4960  125.3060   64.7310 N   0  0  0  0  0  0  0  0  0  0  0  0
  1  2  1  0
  2  3  2  0
  3  4  1  0
  4  5  2  0
  5  6  1  0
  6  7  1  0
  7  8  1  0
  8  9  2  0
  8 10  1  0
 10 11  1  0
 11 12  1  0
 12 13  2  0
 13 14  1  0
 14 15  1  0
 14 16  2  0
 16 17  1  0
 17 18  1  0
 17 19  2  0
 19 20  1  0
 20 21  3  0
  6 22  2  0
 22  2  1  0
 19 12  1  0
M  END
>  <Binding energies>  (6) 
[-7.11]

>  <Ligand effiencies>  (6) 
[-0.3091304347826087]

>  <Interactions>  (6) 
["V-A:ARG:545:CZ:4924, V-B:TYR:539:CE1:9847, V-B:ARG:545:CZ:9898, V-B:PRO:540:CA:9855, V-B:ASP:366:CG:8184, V-B:PRO:540:CB:9857, V-B:LEU:363:CD1:8160, V-B:PRO:540:N:9856, V-B:TYR:539:C:9839, V-B:GLU:543:CD:9880, V-B:GLU:543:CG:9879, V-B:GLU:543:CB:9878, V-A:HIS:456:CE1:4066, H-B:GLU:543:OE1:9881, H-B:ALA:541:N:9863, V-B:PRO:540:C:9853, H-B:TYR:539:N:9842, V-B:ASN:362:CB:8147, V-A:ARG:545:CG:4920, V-A:ARG:545:CD:4921, V-B:ALA:541:C:9860, V-B:ASN:362:CG:8148"]

$$$$
1f_Grossjean_2025
     RDKit          3D

 21 22  0  0  0  0  0  0  0  0999 V2000
  129.7430  125.9330   57.2740 C   0  0  0  0  0  0  0  0  0  0  0  0
  130.7000  125.2910   58.2600 C   0  0  0  0  0  0  0  0  0  0  0  0
  132.0420  125.0880   57.9470 C   0  0  0  0  0  0  0  0  0  0  0  0
  132.8750  124.4800   58.8920 C   0  0  0  0  0  0  0  0  0  0  0  0
  134.3380  124.2510   58.5200 C   0  0  0  0  0  0  0  0  0  0  0  0
  132.3370  124.0950   60.1420 C   0  0  0  0  0  0  0  0  0  0  0  0
  133.1810  123.4060   61.1230 C   0  0  0  0  0  0  0  0  0  0  0  0
  133.8480  122.8620   61.8960 N   0  0  0  0  0  0  0  0  0  0  0  0
  130.9700  124.3650   60.3840 C   0  0  0  0  0  0  0  0  0  0  0  0
  130.1210  123.9530   61.8950 S   0  0  0  0  0  0  0  0  0  0  0  0
  128.4510  124.6880   61.8360 C   0  0  0  0  0  0  0  0  0  0  0  0
  127.4310  123.9110   60.9910 C   0  0  0  0  0  0  0  0  0  0  0  0
  126.6640  123.1060   61.5210 O   0  0  0  0  0  0  0  0  0  0  0  0
  127.4840  124.1720   59.6670 N   0  0  0  0  0  0  0  0  0  0  0  0
  126.7040  123.6530   58.6170 C   0  0  0  0  0  0  0  0  0  0  0  0
  125.3210  123.8520   58.4470 C   0  0  0  0  0  0  0  0  0  0  0  0
  124.6700  123.2780   57.3510 C   0  0  0  0  0  0  0  0  0  0  0  0
  125.4190  122.5220   56.4490 C   0  0  0  0  0  0  0  0  0  0  0  0
  126.7530  122.3200   56.5870 N   0  0  0  0  0  0  0  0  0  0  0  0
  127.3710  122.8830   57.6570 C   0  0  0  0  0  0  0  0  0  0  0  0
  130.1660  124.9330   59.4510 N   0  0  0  0  0  0  0  0  0  0  0  0
  1  2  1  0
  2  3  2  0
  3  4  1  0
  4  5  1  0
  4  6  2  0
  6  7  1  0
  7  8  3  0
  6  9  1  0
  9 10  1  0
 10 11  1  0
 11 12  1  0
 12 13  2  0
 12 14  1  0
 14 15  1  0
 15 16  2  0
 16 17  1  0
 17 18  2  0
 18 19  1  0
 19 20  2  0
  9 21  2  0
 21  2  1  0
 20 15  1  0
M  END
>  <Binding energies>  (7) 
[-6.53]

>  <Ligand effiencies>  (7) 
[-0.2968181818181818]

>  <Interactions>  (7) 
["V-B:TYR:539:CE1:9847, V-A:ILE:369:CG2:3234, V-A:ILE:369:CD1:3236, H-A:GLY:454:N:4047, V-A:ASP:366:CG:3210, V-B:ILE:538:CA:9832, V-B:PRO:540:CA:9855, V-B:ILE:538:CG2:9835, V-B:PRO:540:CB:9857, V-B:PRO:540:CD:9859, V-B:ILE:538:CB:9834, V-B:LEU:363:CD1:8160, V-B:PRO:540:N:9856, V-B:TYR:539:C:9839, V-B:GLU:543:CD:9880, V-A:ASP:366:CA:3207, V-A:ASP:366:CB:3209, V-B:TYR:539:CZ:9849, H-B:ALA:541:N:9863, V-A:ILE:369:CB:3233, V-A:ASP:366:C:3205, H-B:TYR:539:N:9842"]

$$$$
1g_Grossjean_2025
     RDKit          3D

 22 23  0  0  0  0  0  0  0  0999 V2000
  134.3960  124.3800   61.7820 C   0  0  0  0  0  0  0  0  0  0  0  0
  133.4450  123.2000   61.7180 C   0  0  0  0  0  0  0  0  0  0  0  0
  133.8160  121.9940   61.1250 C   0  0  0  0  0  0  0  0  0  0  0  0
  132.8910  120.9460   61.0810 C   0  0  0  0  0  0  0  0  0  0  0  0
  133.3160  119.6390   60.4120 C   0  0  0  0  0  0  0  0  0  0  0  0
  131.6090  121.1300   61.6460 C   0  0  0  0  0  0  0  0  0  0  0  0
  130.6070  120.0650   61.5650 C   0  0  0  0  0  0  0  0  0  0  0  0
  129.8170  119.2220   61.4990 N   0  0  0  0  0  0  0  0  0  0  0  0
  131.3280  122.3780   62.2500 C   0  0  0  0  0  0  0  0  0  0  0  0
  129.7720  122.7770   63.0150 S   0  0  0  0  0  0  0  0  0  0  0  0
  128.8740  123.8720   61.8740 C   0  0  0  0  0  0  0  0  0  0  0  0
  128.3910  123.1280   60.6280 C   0  0  0  0  0  0  0  0  0  0  0  0
  127.6430  122.1560   60.7410 O   0  0  0  0  0  0  0  0  0  0  0  0
  128.8330  123.5940   59.4480 N   0  0  0  0  0  0  0  0  0  0  0  0
  128.4540  123.0740   58.1340 C   0  0  0  0  0  0  0  0  0  0  0  0
  126.9640  123.1830   57.8220 C   0  0  0  0  0  0  0  0  0  0  0  0
  126.4630  122.6650   56.6240 C   0  0  0  0  0  0  0  0  0  0  0  0
  125.1030  122.7630   56.3400 C   0  0  0  0  0  0  0  0  0  0  0  0
  124.2490  123.3740   57.2560 C   0  0  0  0  0  0  0  0  0  0  0  0
  124.7420  123.8880   58.4530 C   0  0  0  0  0  0  0  0  0  0  0  0
  126.1020  123.7920   58.7380 C   0  0  0  0  0  0  0  0  0  0  0  0
  132.2240  123.3980   62.2670 N   0  0  0  0  0  0  0  0  0  0  0  0
  1  2  1  0
  2  3  2  0
  3  4  1  0
  4  5  1  0
  4  6  2  0
  6  7  1  0
  7  8  3  0
  6  9  1  0
  9 10  1  0
 10 11  1  0
 11 12  1  0
 12 13  2  0
 12 14  1  0
 14 15  1  0
 15 16  1  0
 16 17  2  0
 17 18  1  0
 18 19  2  0
 19 20  1  0
 20 21  2  0
  9 22  2  0
 22  2  1  0
 21 16  1  0
M  END
>  <Binding energies>  (8) 
[-6.82]

>  <Ligand effiencies>  (8) 
[-0.2965217391304348]

>  <Interactions>  (8) 
["V-B:ALA:541:CB:9864, V-B:TYR:539:CE1:9847, V-A:ILE:369:CG2:3234, V-A:ILE:369:CD1:3236, V-A:LEU:475:CD2:4256, V-B:TYR:531:CE2:9765, V-A:GLY:453:C:4039, V-B:ILE:538:CA:9832, V-B:PRO:540:CA:9855, V-B:ILE:538:CG2:9835, V-B:PRO:540:CB:9857, V-B:PRO:540:CD:9859, V-B:ILE:538:CB:9834, V-B:LEU:363:CD1:8160, V-B:TYR:539:CD1:9845, V-B:LEU:363:CA:8156, V-B:PRO:540:N:9856, V-B:TYR:539:C:9839, H-B:ALA:541:N:9863, V-A:LEU:373:CD1:3277, V-A:SER:385:CA:3404, V-A:GLY:453:CA:4041"]

$$$$
1h_Grossjean_2025
     RDKit          3D

 28 29  0  0  0  0  0  0  0  0999 V2000
  131.0710  125.4860   56.2780 C   0  0  0  0  0  0  0  0  0  0  0  0
  131.7480  126.3520   57.1820 O   0  0  0  0  0  0  0  0  0  0  0  0
  131.5570  126.1950   58.5430 C   0  0  0  0  0  0  0  0  0  0  0  0
  130.7610  127.0450   59.3260 C   0  0  0  0  0  0  0  0  0  0  0  0
  130.6240  126.8340   60.6990 C   0  0  0  0  0  0  0  0  0  0  0  0
  129.7380  127.7530   61.5340 C   0  0  0  0  0  0  0  0  0  0  0  0
  129.0860  128.8120   60.7640 N   0  0  0  0  0  0  0  0  0  0  0  0
  128.3570  129.8160   61.2850 C   0  0  0  0  0  0  0  0  0  0  0  0
  128.1760  129.9730   62.4920 O   0  0  0  0  0  0  0  0  0  0  0  0
  127.7310  130.7910   60.2880 C   0  0  0  0  0  0  0  0  0  0  0  0
  128.5780  132.4000   60.2860 S   0  0  0  0  0  0  0  0  0  0  0  0
  130.3220  132.1060   60.0400 C   0  0  0  0  0  0  0  0  0  0  0  0
  131.0530  131.9160   61.1690 N   0  0  0  0  0  0  0  0  0  0  0  0
  132.3820  131.6840   61.0550 C   0  0  0  0  0  0  0  0  0  0  0  0
  133.1290  131.4780   62.3590 C   0  0  0  0  0  0  0  0  0  0  0  0
  133.0330  131.6340   59.8240 C   0  0  0  0  0  0  0  0  0  0  0  0
  132.2920  131.8300   58.6540 C   0  0  0  0  0  0  0  0  0  0  0  0
  133.0250  131.7690   57.3160 C   0  0  0  0  0  0  0  0  0  0  0  0
  130.9030  132.0740   58.7510 C   0  0  0  0  0  0  0  0  0  0  0  0
  130.1020  132.2850   57.5420 C   0  0  0  0  0  0  0  0  0  0  0  0
  129.4690  132.4530   56.5870 N   0  0  0  0  0  0  0  0  0  0  0  0
  131.2580  125.7420   61.2940 C   0  0  0  0  0  0  0  0  0  0  0  0
  132.0550  124.8720   60.5340 C   0  0  0  0  0  0  0  0  0  0  0  0
  132.7130  123.7730   61.0560 O   0  0  0  0  0  0  0  0  0  0  0  0
  132.1460  122.4760   60.8950 C   0  0  0  0  0  0  0  0  0  0  0  0
  132.2050  125.1150   59.1610 C   0  0  0  0  0  0  0  0  0  0  0  0
  132.9780  124.2680   58.4040 O   0  0  0  0  0  0  0  0  0  0  0  0
  134.3630  124.3170   58.7130 C   0  0  0  0  0  0  0  0  0  0  0  0
  1  2  1  0
  2  3  1  0
  3  4  2  0
  4  5  1  0
  5  6  1  0
  6  7  1  0
  7  8  1  0
  8  9  2  0
  8 10  1  0
 10 11  1  0
 11 12  1  0
 12 13  2  0
 13 14  1  0
 14 15  1  0
 14 16  2  0
 16 17  1  0
 17 18  1  0
 17 19  2  0
 19 20  1  0
 20 21  3  0
  5 22  2  0
 22 23  1  0
 23 24  1  0
 24 25  1  0
 23 26  2  0
 26 27  1  0
 27 28  1  0
 26  3  1  0
 19 12  1  0
M  END
>  <Binding energies>  (9) 
[-5.63]

>  <Ligand effiencies>  (9) 
[-0.19413793103448276]

>  <Interactions>  (9) 
["V-A:PRO:540:CA:4881, V-A:ARG:545:CZ:4924, V-A:TYR:531:CE2:4791, V-B:TYR:539:CE1:9847, V-A:ILE:369:CG2:3234, V-A:PRO:540:CB:4883, V-A:ILE:369:CD1:3236, V-A:PRO:540:N:4882, V-A:ASP:366:CG:3210, V-A:LEU:363:CD1:3186, V-B:TYR:539:CD1:9845, V-A:ASP:366:CA:3207, V-A:ASP:366:CB:3209, V-B:TYR:539:CZ:9849, V-A:PRO:540:C:4879, H-A:TYR:531:OH:4793, V-A:TYR:539:C:4865, H-B:TYR:539:OH:9850, V-A:ILE:369:CB:3233, V-A:ASP:366:C:3205, H-A:TYR:539:N:4868, H-A:ALA:541:N:4889, V-A:ASN:362:CB:3173, V-A:ASN:362:CG:3174"]

$$$$
1i_Grossjean_2025
     RDKit          3D

 20 21  0  0  0  0  0  0  0  0999 V2000
  125.0420  123.8510   62.3980 C   0  0  0  0  0  0  0  0  0  0  0  0
  125.6740  123.5200   61.0590 C   0  0  0  0  0  0  0  0  0  0  0  0
  124.9470  123.5890   59.8730 C   0  0  0  0  0  0  0  0  0  0  0  0
  125.5860  123.2820   58.6660 C   0  0  0  0  0  0  0  0  0  0  0  0
  124.7720  123.3800   57.3760 C   0  0  0  0  0  0  0  0  0  0  0  0
  126.9480  122.9040   58.6810 C   0  0  0  0  0  0  0  0  0  0  0  0
  127.6490  122.6270   57.4240 C   0  0  0  0  0  0  0  0  0  0  0  0
  128.2010  122.4110   56.4300 N   0  0  0  0  0  0  0  0  0  0  0  0
  127.6000  122.8380   59.9350 C   0  0  0  0  0  0  0  0  0  0  0  0
  129.3080  122.3810   60.1390 S   0  0  0  0  0  0  0  0  0  0  0  0
  129.5510  121.9260   61.8820 C   0  0  0  0  0  0  0  0  0  0  0  0
  130.8130  122.5590   62.4710 C   0  0  0  0  0  0  0  0  0  0  0  0
  131.9180  122.1870   62.0720 O   0  0  0  0  0  0  0  0  0  0  0  0
  130.6050  123.5080   63.4100 N   0  0  0  0  0  0  0  0  0  0  0  0
  131.5660  124.2310   64.1030 C   0  0  0  0  0  0  0  0  0  0  0  0
  131.2500  125.2100   65.0430 C   0  0  0  0  0  0  0  0  0  0  0  0
  132.4630  125.6790   65.4920 C   0  0  0  0  0  0  0  0  0  0  0  0
  133.4570  125.0190   64.8530 O   0  0  0  0  0  0  0  0  0  0  0  0
  132.8760  124.1040   63.9740 N   0  0  0  0  0  0  0  0  0  0  0  0
  126.9780  123.1570   61.0970 N   0  0  0  0  0  0  0  0  0  0  0  0
  1  2  1  0
  2  3  2  0
  3  4  1  0
  4  5  1  0
  4  6  2  0
  6  7  1  0
  7  8  3  0
  6  9  1  0
  9 10  1  0
 10 11  1  0
 11 12  1  0
 12 13  2  0
 12 14  1  0
 14 15  1  0
 15 16  1  0
 16 17  2  0
 17 18  1  0
 18 19  1  0
  9 20  2  0
 20  2  1  0
 19 15  2  0
M  END
>  <Binding energies>  (10) 
[-7.96]

>  <Ligand effiencies>  (10) 
[-0.379047619047619]

>  <Interactions>  (10) 
["V-A:ARG:545:CZ:4924, H-A:ARG:545:NE:4922, V-B:ALA:541:CB:9864, V-B:ARG:545:CZ:9898, H-A:GLY:454:N:4047, H-A:TYR:484:OH:4345, V-A:LEU:475:CD2:4256, V-B:PRO:540:CA:9855, V-B:PRO:540:CB:9857, V-B:LEU:363:CD1:8160, V-B:TYR:539:CD1:9845, V-B:PRO:540:N:9856, V-B:TYR:539:C:9839, V-B:GLU:543:CD:9880, H-B:GLU:543:OE1:9881, H-B:ALA:541:N:9863, V-B:PRO:540:C:9853, H-B:TYR:539:N:9842, V-B:TYR:539:CA:9841, V-B:ASN:362:CB:8147, V-A:ARG:545:CG:4920, V-A:ARG:545:CD:4921"]

$$$$
1k_Grossjean_2025
     RDKit          3D

 25 25  0  0  0  0  0  0  0  0999 V2000
  133.6350  124.3430   62.8180 C   0  0  0  0  0  0  0  0  0  0  0  0
  133.7480  125.3380   63.8230 O   0  0  0  0  0  0  0  0  0  0  0  0
  133.0830  125.0000   65.0330 C   0  0  0  0  0  0  0  0  0  0  0  0
  131.6050  125.4010   64.9340 C   0  0  0  0  0  0  0  0  0  0  0  0
  131.4250  126.2770   63.8290 O   0  0  0  0  0  0  0  0  0  0  0  0
  130.6480  125.7180   62.7780 C   0  0  0  0  0  0  0  0  0  0  0  0
  131.1120  126.3000   61.4360 C   0  0  0  0  0  0  0  0  0  0  0  0
  130.3510  127.4630   61.1350 O   0  0  0  0  0  0  0  0  0  0  0  0
  130.2460  128.3730   62.2210 C   0  0  0  0  0  0  0  0  0  0  0  0
  128.7770  128.8030   62.3940 C   0  0  0  0  0  0  0  0  0  0  0  0
  128.5680  130.2500   62.3270 N   0  0  0  0  0  0  0  0  0  0  0  0
  127.4510  130.8530   61.8830 C   0  0  0  0  0  0  0  0  0  0  0  0
  126.4650  130.2310   61.4830 O   0  0  0  0  0  0  0  0  0  0  0  0
  127.4760  132.3890   61.8970 C   0  0  0  0  0  0  0  0  0  0  0  0
  128.3210  133.1790   60.4830 S   0  0  0  0  0  0  0  0  0  0  0  0
  129.9560  132.4770   60.3090 C   0  0  0  0  0  0  0  0  0  0  0  0
  130.5910  132.1610   61.4680 N   0  0  0  0  0  0  0  0  0  0  0  0
  131.8360  131.6340   61.4080 C   0  0  0  0  0  0  0  0  0  0  0  0
  132.4820  131.3160   62.7420 C   0  0  0  0  0  0  0  0  0  0  0  0
  132.4930  131.3940   60.2030 C   0  0  0  0  0  0  0  0  0  0  0  0
  131.8470  131.7080   59.0030 C   0  0  0  0  0  0  0  0  0  0  0  0
  132.5840  131.4370   57.6930 C   0  0  0  0  0  0  0  0  0  0  0  0
  130.5480  132.2630   59.0430 C   0  0  0  0  0  0  0  0  0  0  0  0
  129.8480  132.6050   57.8020 C   0  0  0  0  0  0  0  0  0  0  0  0
  129.2970  132.8750   56.8210 N   0  0  0  0  0  0  0  0  0  0  0  0
  1  2  1  0
  2  3  1  0
  3  4  1  0
  4  5  1  0
  5  6  1  0
  6  7  1  0
  7  8  1  0
  8  9  1  0
  9 10  1  0
 10 11  1  0
 11 12  1  0
 12 13  2  0
 12 14  1  0
 14 15  1  0
 15 16  1  0
 16 17  2  0
 17 18  1  0
 18 19  1  0
 18 20  2  0
 20 21  1  0
 21 22  1  0
 21 23  2  0
 23 24  1  0
 24 25  3  0
 23 16  1  0
M  END
>  <Binding energies>  (11) 
[-5.36]

>  <Ligand effiencies>  (11) 
[-0.20615384615384616]

>  <Interactions>  (11) 
["V-A:PRO:540:CA:4881, V-A:ARG:545:CZ:4924, H-A:ARG:545:NE:4922, V-A:GLY:454:CA:4046, V-A:PRO:540:CB:4883, H-A:GLY:454:N:4047, V-A:PRO:540:N:4882, V-A:GLY:453:C:4039, H-A:ARG:545:NH2:4926, H-A:GLU:543:OE1:4907, V-A:GLU:543:CD:4906, V-A:PRO:540:C:4879, V-A:TYR:539:C:4865, H-A:TYR:539:N:4868, H-A:ARG:545:NH1:4925, H-A:ALA:541:N:4889, V-A:ASN:362:CB:3173, V-A:ALA:541:C:4886, V-A:GLY:453:CA:4041"]

$$$$
1l_Grossjean_2025
     RDKit          3D

 17 17  0  0  0  0  0  0  0  0999 V2000
  131.3250  117.2480   59.9610 C   0  0  0  0  0  0  0  0  0  0  0  0
  131.5850  118.3000   60.8800 O   0  0  0  0  0  0  0  0  0  0  0  0
  130.6050  119.2840   60.7640 N   0  0  0  0  0  0  0  0  0  0  0  0
  130.8900  120.5390   61.1620 C   0  0  0  0  0  0  0  0  0  0  0  0
  132.0320  120.9350   61.4120 O   0  0  0  0  0  0  0  0  0  0  0  0
  129.6800  121.4780   61.2720 C   0  0  0  0  0  0  0  0  0  0  0  0
  129.2760  122.3990   59.7490 S   0  0  0  0  0  0  0  0  0  0  0  0
  127.5730  122.9230   59.8520 C   0  0  0  0  0  0  0  0  0  0  0  0
  127.1110  123.1840   61.1020 N   0  0  0  0  0  0  0  0  0  0  0  0
  125.8270  123.5860   61.2530 C   0  0  0  0  0  0  0  0  0  0  0  0
  125.3850  123.8580   62.6790 C   0  0  0  0  0  0  0  0  0  0  0  0
  124.9570  123.7440   60.1770 C   0  0  0  0  0  0  0  0  0  0  0  0
  125.4220  123.4800   58.8840 C   0  0  0  0  0  0  0  0  0  0  0  0
  124.4510  123.6620   57.7180 C   0  0  0  0  0  0  0  0  0  0  0  0
  126.7580  123.0590   58.7040 C   0  0  0  0  0  0  0  0  0  0  0  0
  127.2720  122.7750   57.3600 C   0  0  0  0  0  0  0  0  0  0  0  0
  127.6760  122.5510   56.3000 N   0  0  0  0  0  0  0  0  0  0  0  0
  1  2  1  0
  2  3  1  0
  3  4  1  0
  4  5  2  0
  4  6  1  0
  6  7  1  0
  7  8  1  0
  8  9  2  0
  9 10  1  0
 10 11  1  0
 10 12  2  0
 12 13  1  0
 13 14  1  0
 13 15  2  0
 15 16  1  0
 16 17  3  0
 15  8  1  0
M  END
>  <Binding energies>  (12) 
[-6.64]

>  <Ligand effiencies>  (12) 
[-0.3688888888888889]

>  <Interactions>  (12) 
["V-B:ALA:541:CB:9864, V-B:TYR:539:CE1:9847, V-B:ARG:545:CZ:9898, V-A:LEU:475:CD2:4256, V-B:TYR:531:CE2:9765, V-B:PRO:540:CA:9855, V-B:ASP:366:CG:8184, V-B:PRO:540:CB:9857, V-B:LEU:363:CD1:8160, V-B:TYR:539:CD1:9845, V-B:PRO:540:N:9856, V-B:TYR:539:CG:9844, V-B:TYR:539:C:9839, V-B:GLU:543:CD:9880, H-B:ALA:541:N:9863, V-B:PRO:540:C:9853, H-B:TYR:539:N:9842, V-A:PRO:482:CG:4324, V-B:TYR:539:CB:9843, V-B:ASN:362:CB:8147, H-B:TYR:539:O:9840, V-A:LEU:373:CD1:3277"]

$$$$
1m_Grossjean_2025
     RDKit          3D

 20 20  0  0  0  0  0  0  0  0999 V2000
  131.0270  125.3040   64.3060 C   0  0  0  0  0  0  0  0  0  0  0  0
  131.7990  124.3530   63.5860 O   0  0  0  0  0  0  0  0  0  0  0  0
  133.0530  124.6490   63.1880 C   0  0  0  0  0  0  0  0  0  0  0  0
  133.9610  125.0560   63.9190 O   0  0  0  0  0  0  0  0  0  0  0  0
  133.2390  124.4060   61.6760 C   0  0  0  0  0  0  0  0  0  0  0  0
  131.9620  124.2480   60.9630 N   0  0  0  0  0  0  0  0  0  0  0  0
  131.8230  123.9970   59.6470 C   0  0  0  0  0  0  0  0  0  0  0  0
  132.7800  123.8870   58.8790 O   0  0  0  0  0  0  0  0  0  0  0  0
  130.3780  123.8620   59.1490 C   0  0  0  0  0  0  0  0  0  0  0  0
  129.4160  122.5340   59.9510 S   0  0  0  0  0  0  0  0  0  0  0  0
  127.6970  122.9970   59.9090 C   0  0  0  0  0  0  0  0  0  0  0  0
  127.1700  123.2360   61.1370 N   0  0  0  0  0  0  0  0  0  0  0  0
  125.8700  123.6020   61.2280 C   0  0  0  0  0  0  0  0  0  0  0  0
  125.3570  123.8720   62.6290 C   0  0  0  0  0  0  0  0  0  0  0  0
  125.0460  123.7330   60.1120 C   0  0  0  0  0  0  0  0  0  0  0  0
  125.5720  123.4630   58.8440 C   0  0  0  0  0  0  0  0  0  0  0  0
  124.6460  123.5970   57.6370 C   0  0  0  0  0  0  0  0  0  0  0  0
  126.9270  123.0780   58.7240 C   0  0  0  0  0  0  0  0  0  0  0  0
  127.4840  122.7420   57.4110 C   0  0  0  0  0  0  0  0  0  0  0  0
  127.9230  122.4780   56.3750 N   0  0  0  0  0  0  0  0  0  0  0  0
  1  2  1  0
  2  3  1  0
  3  4  2  0
  3  5  1  0
  5  6  1  0
  6  7  1  0
  7  8  2  0
  7  9  1  0
  9 10  1  0
 10 11  1  0
 11 12  2  0
 12 13  1  0
 13 14  1  0
 13 15  2  0
 15 16  1  0
 16 17  1  0
 16 18  2  0
 18 19  1  0
 19 20  3  0
 18 11  1  0
M  END
>  <Binding energies>  (13) 
[-6.53]

>  <Ligand effiencies>  (13) 
[-0.310952380952381]

>  <Interactions>  (13) 
["V-A:ARG:545:CZ:4924, H-A:ARG:545:NE:4922, V-B:TYR:539:CE1:9847, V-B:ARG:545:CZ:9898, H-A:GLY:454:N:4047, H-A:TYR:484:OH:4345, V-B:PRO:540:CA:9855, V-B:PRO:540:CB:9857, H-A:ARG:545:NH2:4926, V-B:LEU:363:CD1:8160, V-B:TYR:539:CD1:9845, V-B:PRO:540:N:9856, V-B:TYR:539:C:9839, V-B:GLU:543:CD:9880, V-B:TYR:539:CZ:9849, H-B:ALA:541:N:9863, H-B:TYR:539:OH:9850, H-A:ARG:545:NH1:4925, V-B:PRO:540:C:9853, H-B:TYR:539:N:9842, V-B:ASN:362:CB:8147"]

$$$$
1n_Grossjean_2025
     RDKit          3D

 27 28  0  0  0  0  0  0  0  0999 V2000
  133.6810  122.3660   61.5040 C   0  0  0  0  0  0  0  0  0  0  0  0
  133.6560  123.8340   61.0670 C   0  0  0  0  0  0  0  0  0  0  0  0
  132.5500  124.0510   60.2000 O   0  0  0  0  0  0  0  0  0  0  0  0
  132.7040  124.6920   59.0130 C   0  0  0  0  0  0  0  0  0  0  0  0
  133.4790  124.3110   58.1300 O   0  0  0  0  0  0  0  0  0  0  0  0
  131.8270  125.9030   58.8750 C   0  0  0  0  0  0  0  0  0  0  0  0
  131.3770  126.6250   59.9910 C   0  0  0  0  0  0  0  0  0  0  0  0
  130.5640  127.7420   59.8290 C   0  0  0  0  0  0  0  0  0  0  0  0
  130.1760  128.1570   58.5540 C   0  0  0  0  0  0  0  0  0  0  0  0
  129.3480  129.2950   58.5050 N   0  0  0  0  0  0  0  0  0  0  0  0
  128.3990  129.6350   57.6070 C   0  0  0  0  0  0  0  0  0  0  0  0
  128.0730  128.9660   56.6260 O   0  0  0  0  0  0  0  0  0  0  0  0
  127.6890  130.9700   57.8660 C   0  0  0  0  0  0  0  0  0  0  0  0
  127.5420  131.2960   59.3670 C   0  0  0  0  0  0  0  0  0  0  0  0
  128.5190  132.7240   59.9270 S   0  0  0  0  0  0  0  0  0  0  0  0
  130.2340  132.2490   59.8970 C   0  0  0  0  0  0  0  0  0  0  0  0
  130.7490  131.9950   61.1260 N   0  0  0  0  0  0  0  0  0  0  0  0
  132.0430  131.6090   61.2220 C   0  0  0  0  0  0  0  0  0  0  0  0
  132.5460  131.3320   62.6260 C   0  0  0  0  0  0  0  0  0  0  0  0
  132.8700  131.4670   60.1100 C   0  0  0  0  0  0  0  0  0  0  0  0
  132.3540  131.7470   58.8400 C   0  0  0  0  0  0  0  0  0  0  0  0
  133.2840  131.5980   57.6370 C   0  0  0  0  0  0  0  0  0  0  0  0
  131.0070  132.1570   58.7160 C   0  0  0  0  0  0  0  0  0  0  0  0
  130.4620  132.5040   57.4020 C   0  0  0  0  0  0  0  0  0  0  0  0
  130.0330  132.7790   56.3630 N   0  0  0  0  0  0  0  0  0  0  0  0
  130.6300  127.4460   57.4330 C   0  0  0  0  0  0  0  0  0  0  0  0
  131.4470  126.3310   57.5970 C   0  0  0  0  0  0  0  0  0  0  0  0
  1  2  1  0
  2  3  1  0
  3  4  1  0
  4  5  2  0
  4  6  1  0
  6  7  2  0
  7  8  1  0
  8  9  2  0
  9 10  1  0
 10 11  1  0
 11 12  2  0
 11 13  1  0
 13 14  1  0
 14 15  1  0
 15 16  1  0
 16 17  2  0
 17 18  1  0
 18 19  1  0
 18 20  2  0
 20 21  1  0
 21 22  1  0
 21 23  2  0
 23 24  1  0
 24 25  3  0
  9 26  1  0
 26 27  2  0
 27  6  1  0
 23 16  1  0
M  END
>  <Binding energies>  (14) 
[-7.05]

>  <Ligand effiencies>  (14) 
[-0.2517857142857143]

>  <Interactions>  (14) 
["V-A:PRO:540:CA:4881, V-A:ARG:545:CZ:4924, V-A:TYR:531:CE2:4791, V-B:TYR:539:CE1:9847, V-A:ILE:369:CG2:3234, V-A:PRO:540:CB:4883, V-A:ILE:369:CD1:3236, V-A:LEU:363:CA:3182, V-A:PRO:540:N:4882, V-A:ASP:366:CG:3210, V-A:LEU:363:CD1:3186, V-A:TYR:539:CE1:4873, V-A:ASP:366:CB:3209, V-A:TYR:539:CZ:4875, V-A:GLU:543:CD:4906, V-A:PRO:540:C:4879, V-A:TYR:539:C:4865, H-B:TYR:539:OH:9850, H-A:TYR:539:N:4868, H-A:ALA:541:N:4889, V-A:ASN:362:CB:3173, V-A:ALA:541:C:4886"]

$$$$
1q_Grossjean_2025
     RDKit          3D

 21 21  0  0  0  0  0  0  0  0999 V2000
  131.7990  125.3650   57.4790 C   0  0  0  0  0  0  0  0  0  0  0  0
  132.0630  124.3860   58.4740 O   0  0  0  0  0  0  0  0  0  0  0  0
  133.3370  124.1110   58.8480 C   0  0  0  0  0  0  0  0  0  0  0  0
  134.3250  124.1630   58.1150 O   0  0  0  0  0  0  0  0  0  0  0  0
  133.4780  123.6740   60.3220 C   0  0  0  0  0  0  0  0  0  0  0  0
  132.1890  123.3480   60.9510 N   0  0  0  0  0  0  0  0  0  0  0  0
  132.0230  122.7080   62.1240 C   0  0  0  0  0  0  0  0  0  0  0  0
  132.9640  122.3170   62.8180 O   0  0  0  0  0  0  0  0  0  0  0  0
  130.5710  122.4980   62.5750 C   0  0  0  0  0  0  0  0  0  0  0  0
  129.7490  121.5710   61.6570 C   0  0  0  0  0  0  0  0  0  0  0  0
  129.4280  122.2750   60.0120 S   0  0  0  0  0  0  0  0  0  0  0  0
  127.7240  122.7910   59.9390 C   0  0  0  0  0  0  0  0  0  0  0  0
  127.1970  123.0840   61.1550 N   0  0  0  0  0  0  0  0  0  0  0  0
  125.9070  123.4850   61.2270 C   0  0  0  0  0  0  0  0  0  0  0  0
  125.3850  123.7780   62.6210 C   0  0  0  0  0  0  0  0  0  0  0  0
  125.0980  123.6220   60.1010 C   0  0  0  0  0  0  0  0  0  0  0  0
  125.6380  123.3470   58.8400 C   0  0  0  0  0  0  0  0  0  0  0  0
  124.7350  123.5220   57.6190 C   0  0  0  0  0  0  0  0  0  0  0  0
  126.9840  122.9280   58.7390 C   0  0  0  0  0  0  0  0  0  0  0  0
  127.5810  122.6920   57.4240 C   0  0  0  0  0  0  0  0  0  0  0  0
  128.0500  122.5060   56.3820 N   0  0  0  0  0  0  0  0  0  0  0  0
  1  2  1  0
  2  3  1  0
  3  4  2  0
  3  5  1  0
  5  6  1  0
  6  7  1  0
  7  8  2  0
  7  9  1  0
  9 10  1  0
 10 11  1  0
 11 12  1  0
 12 13  2  0
 13 14  1  0
 14 15  1  0
 14 16  2  0
 16 17  1  0
 17 18  1  0
 17 19  2  0
 19 20  1  0
 20 21  3  0
 19 12  1  0
M  END
>  <Binding energies>  (15) 
[-6.39]

>  <Ligand effiencies>  (15) 
[-0.29045454545454547]

>  <Interactions>  (15) 
["V-B:ALA:541:CB:9864, V-B:TYR:539:CE1:9847, V-A:ILE:369:CG2:3234, V-B:ARG:545:CZ:9898, V-A:ILE:369:CD1:3236, H-A:GLY:454:N:4047, V-A:LEU:475:CD2:4256, V-B:PRO:540:CA:9855, V-B:PRO:540:CB:9857, V-B:LEU:363:CD1:8160, V-B:PRO:540:N:9856, V-B:TYR:539:C:9839, V-B:GLU:543:CD:9880, V-A:ASP:366:CA:3207, V-A:ASP:366:CB:3209, V-B:TYR:539:CZ:9849, H-B:ALA:541:N:9863, H-B:TYR:539:OH:9850, V-B:PRO:540:C:9853, H-B:TYR:539:N:9842, V-B:ASN:362:CB:8147"]

$$$$
2a_Grossjean_2025
     RDKit          3D

 29 30  0  0  0  0  0  0  0  0999 V2000
  133.9430  123.8930   60.3500 C   0  0  0  0  0  0  0  0  0  0  0  0
  133.8820  124.3130   58.8780 C   0  0  0  0  0  0  0  0  0  0  0  0
  132.5270  124.5470   58.5120 O   0  0  0  0  0  0  0  0  0  0  0  0
  132.2020  125.4980   57.5990 C   0  0  0  0  0  0  0  0  0  0  0  0
  132.5420  125.4490   56.4130 O   0  0  0  0  0  0  0  0  0  0  0  0
  131.3680  126.6080   58.1730 C   0  0  0  0  0  0  0  0  0  0  0  0
  130.6190  127.4700   57.3600 C   0  0  0  0  0  0  0  0  0  0  0  0
  129.8580  128.4900   57.9240 C   0  0  0  0  0  0  0  0  0  0  0  0
  129.8340  128.6740   59.3070 C   0  0  0  0  0  0  0  0  0  0  0  0
  129.0430  129.7430   59.7650 N   0  0  0  0  0  0  0  0  0  0  0  0
  127.8650  130.2130   59.3000 C   0  0  0  0  0  0  0  0  0  0  0  0
  127.2580  129.7770   58.3220 O   0  0  0  0  0  0  0  0  0  0  0  0
  127.2690  131.3900   60.0800 C   0  0  0  0  0  0  0  0  0  0  0  0
  128.3720  132.8410   60.1500 S   0  0  0  0  0  0  0  0  0  0  0  0
  130.0750  132.3140   59.9950 C   0  0  0  0  0  0  0  0  0  0  0  0
  130.6990  131.9920   61.1570 N   0  0  0  0  0  0  0  0  0  0  0  0
  131.9920  131.5970   61.1160 C   0  0  0  0  0  0  0  0  0  0  0  0
  132.6290  131.2810   62.4560 C   0  0  0  0  0  0  0  0  0  0  0  0
  132.7090  131.4970   59.9270 C   0  0  0  0  0  0  0  0  0  0  0  0
  132.0810  131.8160   58.7140 C   0  0  0  0  0  0  0  0  0  0  0  0
  132.8890  131.7000   57.4070 C   0  0  0  0  0  0  0  0  0  0  0  0
  132.1810  131.0420   56.4890 F   0  0  0  0  0  0  0  0  0  0  0  0
  133.1800  132.9160   56.9420 F   0  0  0  0  0  0  0  0  0  0  0  0
  134.0420  131.0460   57.5710 F   0  0  0  0  0  0  0  0  0  0  0  0
  130.7270  132.2360   58.7430 C   0  0  0  0  0  0  0  0  0  0  0  0
  130.0220  132.5840   57.5040 C   0  0  0  0  0  0  0  0  0  0  0  0
  129.4660  132.8590   56.5270 N   0  0  0  0  0  0  0  0  0  0  0  0
  130.5740  127.8100   60.1270 C   0  0  0  0  0  0  0  0  0  0  0  0
  131.3320  126.7880   59.5620 C   0  0  0  0  0  0  0  0  0  0  0  0
  1  2  1  0
  2  3  1  0
  3  4  1  0
  4  5  2  0
  4  6  1  0
  6  7  2  0
  7  8  1  0
  8  9  2  0
  9 10  1  0
 10 11  1  0
 11 12  2  0
 11 13  1  0
 13 14  1  0
 14 15  1  0
 15 16  2  0
 16 17  1  0
 17 18  1  0
 17 19  2  0
 19 20  1  0
 20 21  1  0
 21 22  1  0
 21 23  1  0
 21 24  1  0
 20 25  2  0
 25 26  1  0
 26 27  3  0
  9 28  1  0
 28 29  2  0
 29  6  1  0
 25 15  1  0
M  END
>  <Binding energies>  (16) 
[-6.65]

>  <Ligand effiencies>  (16) 
[-0.22166666666666668]

>  <Interactions>  (16) 
["V-A:PRO:540:CA:4881, V-A:ARG:545:CZ:4924, V-A:TYR:531:CE2:4791, V-A:ILE:538:CB:4860, V-A:ILE:369:CG2:3234, V-A:PRO:540:CD:4885, V-A:PRO:540:CB:4883, V-A:ILE:369:CD1:3236, V-A:LEU:363:CA:3182, V-A:PRO:540:N:4882, V-A:ASP:366:CG:3210, V-A:LEU:363:CD1:3186, V-A:TYR:539:CE1:4873, V-A:ASP:366:CA:3207, V-A:ASP:366:CB:3209, V-A:GLU:543:CD:4906, V-A:PRO:540:C:4879, H-A:TYR:531:OH:4793, V-A:TYR:531:CZ:4792, V-A:TYR:539:C:4865, H-B:TYR:539:OH:9850, V-A:ILE:369:CB:3233, H-A:TYR:539:N:4868, H-A:ALA:541:N:4889, V-A:ASN:362:CB:3173, V-A:LEU:363:CB:3184, V-A:LEU:363:CG:3185, V-A:LEU:363:C:3180, V-A:PRO:540:CG:4884"]

$$$$
2b_Grossjean_2025
     RDKit          3D

 28 29  0  0  0  0  0  0  0  0999 V2000
  124.5880  124.2380   57.4070 C   0  0  0  0  0  0  0  0  0  0  0  0
  125.1410  122.9750   57.7510 O   0  0  0  0  0  0  0  0  0  0  0  0
  126.4680  122.7280   57.6030 C   0  0  0  0  0  0  0  0  0  0  0  0
  126.9840  122.4020   56.5290 O   0  0  0  0  0  0  0  0  0  0  0  0
  127.2460  122.8890   58.8770 C   0  0  0  0  0  0  0  0  0  0  0  0
  126.6820  123.4650   60.0240 C   0  0  0  0  0  0  0  0  0  0  0  0
  127.4320  123.6010   61.1890 C   0  0  0  0  0  0  0  0  0  0  0  0
  128.7530  123.1590   61.2350 C   0  0  0  0  0  0  0  0  0  0  0  0
  129.4210  123.3500   62.4600 N   0  0  0  0  0  0  0  0  0  0  0  0
  130.2570  122.5230   63.1240 C   0  0  0  0  0  0  0  0  0  0  0  0
  130.5740  121.3890   62.7620 O   0  0  0  0  0  0  0  0  0  0  0  0
  130.8170  123.0780   64.4370 C   0  0  0  0  0  0  0  0  0  0  0  0
  131.7690  124.6170   64.2170 S   0  0  0  0  0  0  0  0  0  0  0  0
  131.7550  125.1030   62.4960 C   0  0  0  0  0  0  0  0  0  0  0  0
  130.8750  126.0820   62.1670 N   0  0  0  0  0  0  0  0  0  0  0  0
  130.8070  126.4950   60.8820 C   0  0  0  0  0  0  0  0  0  0  0  0
  129.7890  127.5820   60.5950 C   0  0  0  0  0  0  0  0  0  0  0  0
  131.6110  125.9620   59.8780 C   0  0  0  0  0  0  0  0  0  0  0  0
  132.5330  124.9540   60.1960 C   0  0  0  0  0  0  0  0  0  0  0  0
  133.4190  124.3780   59.0750 C   0  0  0  0  0  0  0  0  0  0  0  0
  133.2420  123.0590   58.9860 F   0  0  0  0  0  0  0  0  0  0  0  0
  133.1000  124.9370   57.9060 F   0  0  0  0  0  0  0  0  0  0  0  0
  134.7200  124.5960   59.2810 F   0  0  0  0  0  0  0  0  0  0  0  0
  132.6110  124.5060   61.5400 C   0  0  0  0  0  0  0  0  0  0  0  0
  133.5520  123.4510   61.9280 C   0  0  0  0  0  0  0  0  0  0  0  0
  134.2960  122.6190   62.2340 N   0  0  0  0  0  0  0  0  0  0  0  0
  129.3280  122.5880   60.0900 C   0  0  0  0  0  0  0  0  0  0  0  0
  128.5780  122.4550   58.9250 C   0  0  0  0  0  0  0  0  0  0  0  0
  1  2  1  0
  2  3  1  0
  3  4  2  0
  3  5  1  0
  5  6  2  0
  6  7  1  0
  7  8  2  0
  8  9  1  0
  9 10  1  0
 10 11  2  0
 10 12  1  0
 12 13  1  0
 13 14  1  0
 14 15  2  0
 15 16  1  0
 16 17  1  0
 16 18  2  0
 18 19  1  0
 19 20  1  0
 20 21  1  0
 20 22  1  0
 20 23  1  0
 19 24  2  0
 24 25  1  0
 25 26  3  0
  8 27  1  0
 27 28  2  0
 28  5  1  0
 24 14  1  0
M  END
>  <Binding energies>  (17) 
[-6.62]

>  <Ligand effiencies>  (17) 
[-0.22827586206896552]

>  <Interactions>  (17) 
["V-B:ALA:541:CB:9864, V-B:TYR:539:CE1:9847, V-A:ILE:369:CG2:3234, V-A:ILE:369:CD1:3236, H-A:GLY:454:N:4047, H-A:TYR:484:OH:4345, V-A:ASP:366:CG:3210, V-A:LEU:475:CD2:4256, V-B:TYR:531:CE2:9765, V-B:PRO:540:CA:9855, V-B:PRO:540:CB:9857, H-A:ARG:545:NH2:4926, V-B:PRO:540:CD:9859, V-B:LEU:363:CD1:8160, V-B:TYR:539:CD1:9845, V-B:PRO:540:N:9856, V-B:TYR:539:CG:9844, V-B:TYR:539:C:9839, V-A:ASP:366:CA:3207, V-A:ASP:366:CB:3209, H-B:GLU:543:OE1:9881, V-B:TYR:539:CZ:9849, V-B:TYR:531:CZ:9766, V-A:ILE:369:CB:3233, V-A:ASP:366:C:3205, H-B:TYR:539:N:9842, V-A:TYR:484:CZ:4344, V-A:TYR:484:CE2:4343, V-A:ILE:369:CG1:3235"]

$$$$
2c_Grossjean_2025
     RDKit          3D

 26 27  0  0  0  0  0  0  0  0999 V2000
  127.2730  128.9160   75.2750 C   0  0  0  0  0  0  0  0  0  0  0  0
  128.4860  128.3340   74.8080 O   0  0  0  0  0  0  0  0  0  0  0  0
  128.5900  127.9700   73.4790 C   0  0  0  0  0  0  0  0  0  0  0  0
  129.8740  127.9510   72.9370 C   0  0  0  0  0  0  0  0  0  0  0  0
  130.0800  127.5980   71.6060 C   0  0  0  0  0  0  0  0  0  0  0  0
  128.9870  127.2660   70.7930 C   0  0  0  0  0  0  0  0  0  0  0  0
  129.0970  126.8800   69.4450 N   0  0  0  0  0  0  0  0  0  0  0  0
  129.0720  127.6570   68.3410 C   0  0  0  0  0  0  0  0  0  0  0  0
  128.8880  128.8760   68.3460 O   0  0  0  0  0  0  0  0  0  0  0  0
  129.2560  126.9040   67.0150 C   0  0  0  0  0  0  0  0  0  0  0  0
  130.8980  126.1440   66.7640 S   0  0  0  0  0  0  0  0  0  0  0  0
  131.1260  125.7800   65.0280 C   0  0  0  0  0  0  0  0  0  0  0  0
  130.0330  125.9580   64.2420 N   0  0  0  0  0  0  0  0  0  0  0  0
  130.1290  125.6940   62.9210 C   0  0  0  0  0  0  0  0  0  0  0  0
  128.8620  125.9010   62.1140 C   0  0  0  0  0  0  0  0  0  0  0  0
  131.3090  125.2530   62.3260 C   0  0  0  0  0  0  0  0  0  0  0  0
  132.4530  125.0700   63.1170 C   0  0  0  0  0  0  0  0  0  0  0  0
  133.7510  124.5830   62.4450 C   0  0  0  0  0  0  0  0  0  0  0  0
  134.7710  125.3660   62.8010 F   0  0  0  0  0  0  0  0  0  0  0  0
  134.0170  123.3300   62.8150 F   0  0  0  0  0  0  0  0  0  0  0  0
  133.6790  124.6020   61.1110 F   0  0  0  0  0  0  0  0  0  0  0  0
  132.3650  125.3380   64.5060 C   0  0  0  0  0  0  0  0  0  0  0  0
  133.5290  125.1620   65.3820 C   0  0  0  0  0  0  0  0  0  0  0  0
  134.4470  125.0220   66.0720 N   0  0  0  0  0  0  0  0  0  0  0  0
  127.7000  127.2680   71.3350 C   0  0  0  0  0  0  0  0  0  0  0  0
  127.4990  127.6210   72.6660 C   0  0  0  0  0  0  0  0  0  0  0  0
  1  2  1  0
  2  3  1  0
  3  4  2  0
  4  5  1  0
  5  6  2  0
  6  7  1  0
  7  8  1  0
  8  9  2  0
  8 10  1  0
 10 11  1  0
 11 12  1  0
 12 13  2  0
 13 14  1  0
 14 15  1  0
 14 16  2  0
 16 17  1  0
 17 18  1  0
 18 19  1  0
 18 20  1  0
 18 21  1  0
 17 22  2  0
 22 23  1  0
 23 24  3  0
  6 25  1  0
 25 26  2  0
 26  3  1  0
 22 12  1  0
M  END
>  <Binding energies>  (18) 
[-6.58]

>  <Ligand effiencies>  (18) 
[-0.2437037037037037]

>  <Interactions>  (18) 
["V-A:ARG:545:CZ:4924, H-A:ARG:545:NE:4922, V-A:GLY:454:CA:4046, V-A:ILE:369:CD1:3236, H-A:GLY:454:N:4047, H-A:TYR:484:OH:4345, V-A:ASP:366:CG:3210, V-A:GLY:453:C:4039, V-B:GLU:543:CD:9880, V-B:GLU:543:CG:9879, V-B:GLU:543:CB:9878, V-A:HIS:456:CE1:4066, V-B:HIS:456:CE1:9040, V-A:GLU:543:CD:4906, V-A:GLU:543:CG:4905, V-B:GLU:543:C:9874, V-B:GLY:544:CA:9886, V-B:HIS:456:CD2:9039, V-B:LYS:547:CE:9922, V-A:LYS:547:CE:4948, V-A:GLY:544:C:4910, V-B:GLY:544:C:9884, H-A:LYS:547:NZ:4949, V-B:HIS:456:CG:9037, H-B:LYS:547:NZ:9923, V-A:GLY:544:CA:4912, H-B:HIS:456:NE2:9041, V-A:ARG:545:CG:4920, V-A:ARG:545:CD:4921, V-A:GLY:453:CA:4041, H-B:GLU:543:O:9875, H-A:ILE:455:N:4052"]

$$$$
2d_Ghoteimi_2023
     RDKit          3D

 38 42  0  0  0  0  0  0  0  0999 V2000
  132.2540  120.9380   61.1410 C   0  0  0  0  0  0  0  0  0  0  0  0
  132.2540  122.1250   60.3630 O   0  0  0  0  0  0  0  0  0  0  0  0
  133.3120  122.9620   60.3910 C   0  0  0  0  0  0  0  0  0  0  0  0
  133.5590  123.8320   59.5500 O   0  0  0  0  0  0  0  0  0  0  0  0
  134.1920  122.7080   61.6230 C   0  0  0  0  0  0  0  0  0  0  0  0
  134.3810  124.2230   62.6240 S   0  0  0  0  0  0  0  0  0  0  0  0
  132.7810  124.6770   63.2610 C   0  0  0  0  0  0  0  0  0  0  0  0
  131.7740  124.4630   62.3800 N   0  0  0  0  0  0  0  0  0  0  0  0
  130.4990  124.7710   62.7300 C   0  0  0  0  0  0  0  0  0  0  0  0
  129.4450  124.5250   61.7000 C   0  0  0  0  0  0  0  0  0  0  0  0
  129.4890  123.3820   60.8940 C   0  0  0  0  0  0  0  0  0  0  0  0
  128.5100  123.1460   59.9320 C   0  0  0  0  0  0  0  0  0  0  0  0
  127.4440  124.0410   59.7500 C   0  0  0  0  0  0  0  0  0  0  0  0
  126.4620  123.8280   58.7760 N   0  0  0  0  0  0  0  0  0  0  0  0
  125.6950  124.9480   58.1960 C   0  0  0  0  0  0  0  0  0  0  0  0
  124.4280  124.5020   57.4370 C   0  0  0  0  0  0  0  0  0  0  0  0
  124.7700  123.5540   56.4380 O   0  0  0  0  0  0  0  0  0  0  0  0
  125.3690  122.3980   57.0000 C   0  0  0  0  0  0  0  0  0  0  0  0
  126.6610  122.7820   57.7520 C   0  0  0  0  0  0  0  0  0  0  0  0
  127.4110  125.1910   60.5500 C   0  0  0  0  0  0  0  0  0  0  0  0
  128.3910  125.4280   61.5100 C   0  0  0  0  0  0  0  0  0  0  0  0
  130.2060  125.3010   63.9890 C   0  0  0  0  0  0  0  0  0  0  0  0
  131.2230  125.4990   64.9300 C   0  0  0  0  0  0  0  0  0  0  0  0
  130.8320  126.0430   66.2660 C   0  0  0  0  0  0  0  0  0  0  0  0
  129.6110  125.6830   66.8400 C   0  0  0  0  0  0  0  0  0  0  0  0
  129.2420  126.1740   68.0890 C   0  0  0  0  0  0  0  0  0  0  0  0
  130.0850  127.0440   68.7990 C   0  0  0  0  0  0  0  0  0  0  0  0
  129.7410  127.5390   70.0610 N   0  0  0  0  0  0  0  0  0  0  0  0
  130.7590  127.7500   71.1080 C   0  0  0  0  0  0  0  0  0  0  0  0
  130.2630  128.6230   72.2810 C   0  0  0  0  0  0  0  0  0  0  0  0
  129.0770  128.0710   72.8300 O   0  0  0  0  0  0  0  0  0  0  0  0
  128.0380  127.9960   71.8650 C   0  0  0  0  0  0  0  0  0  0  0  0
  128.4760  127.1030   70.6840 C   0  0  0  0  0  0  0  0  0  0  0  0
  131.3170  127.3850   68.2230 C   0  0  0  0  0  0  0  0  0  0  0  0
  131.6860  126.8930   66.9750 C   0  0  0  0  0  0  0  0  0  0  0  0
  132.5540  125.1750   64.5650 C   0  0  0  0  0  0  0  0  0  0  0  0
  133.6510  125.3470   65.5220 C   0  0  0  0  0  0  0  0  0  0  0  0
  134.5140  125.4840   66.2810 N   0  0  0  0  0  0  0  0  0  0  0  0
  1  2  1  0
  2  3  1  0
  3  4  2  0
  3  5  1  0
  5  6  1  0
  6  7  1  0
  7  8  2  0
  8  9  1  0
  9 10  1  0
 10 11  2  0
 11 12  1  0
 12 13  2  0
 13 14  1  0
 14 15  1  0
 15 16  1  0
 16 17  1  0
 17 18  1  0
 18 19  1  0
 13 20  1  0
 20 21  2  0
  9 22  2  0
 22 23  1  0
 23 24  1  0
 24 25  2  0
 25 26  1  0
 26 27  2  0
 27 28  1  0
 28 29  1  0
 29 30  1  0
 30 31  1  0
 31 32  1  0
 32 33  1  0
 27 34  1  0
 34 35  2  0
 23 36  2  0
 36 37  1  0
 37 38  3  0
 36  7  1  0
 21 10  1  0
 35 24  1  0
 19 14  1  0
 33 28  1  0
M  END
>  <Binding energies>  (19) 
[-5.58]

>  <Ligand effiencies>  (19) 
[-0.14684210526315788]

>  <Interactions>  (19) 
["V-A:ARG:545:CZ:4924, H-A:ARG:545:NE:4922, V-A:GLY:454:CA:4046, V-B:TYR:539:CE1:9847, V-A:ILE:369:CG2:3234, V-A:ILE:369:CD1:3236, H-A:GLY:454:N:4047, H-A:TYR:484:OH:4345, V-A:LEU:475:CD2:4256, V-B:TYR:531:CE2:9765, V-B:PRO:540:CA:9855, V-B:ILE:538:CG2:9835, V-B:ASP:366:CG:8184, V-B:PRO:540:CB:9857, V-B:PRO:540:CD:9859, V-B:ILE:538:CB:9834, V-B:LEU:363:CD1:8160, V-B:TYR:539:CD1:9845, V-B:ASP:366:CB:8183, V-B:PRO:540:N:9856, H-B:TYR:531:OH:9767, V-B:TYR:539:C:9839, V-B:GLU:543:CD:9880, V-B:GLU:543:CG:9879, V-B:GLU:543:CB:9878, V-A:HIS:456:CE1:4066, V-B:HIS:456:CE1:9040, V-A:GLU:543:CD:4906, V-A:GLU:543:CG:4905, V-B:GLU:543:C:9874, V-B:HIS:456:CD2:9039, V-A:GLU:543:C:4900, V-A:LYS:547:CE:4948, V-A:GLY:544:C:4910, V-B:GLY:544:C:9884, V-A:HIS:456:CD2:4065, H-A:LYS:547:NZ:4949, V-B:HIS:456:CG:9037, V-A:GLY:544:CA:4912, V-B:TYR:531:CZ:9766, V-B:PRO:540:CG:9858, V-A:ARG:545:CG:4920, V-A:ARG:545:CD:4921, H-A:ILE:455:N:4052"]

$$$$
2d_Grossjean_2025
     RDKit          3D

 24 25  0  0  0  0  0  0  0  0999 V2000
  132.5130  131.2580   62.6290 C   0  0  0  0  0  0  0  0  0  0  0  0
  131.7760  131.6120   61.3520 C   0  0  0  0  0  0  0  0  0  0  0  0
  132.3440  131.3960   60.0980 C   0  0  0  0  0  0  0  0  0  0  0  0
  131.6200  131.7350   58.9460 C   0  0  0  0  0  0  0  0  0  0  0  0
  132.2600  131.4790   57.5680 C   0  0  0  0  0  0  0  0  0  0  0  0
  131.5280  130.6020   56.8800 F   0  0  0  0  0  0  0  0  0  0  0  0
  132.3300  132.6190   56.8770 F   0  0  0  0  0  0  0  0  0  0  0  0
  133.4970  130.9870   57.6560 F   0  0  0  0  0  0  0  0  0  0  0  0
  130.3280  132.2990   59.0980 C   0  0  0  0  0  0  0  0  0  0  0  0
  129.5130  132.6280   57.9250 C   0  0  0  0  0  0  0  0  0  0  0  0
  128.8700  132.8860   56.9980 N   0  0  0  0  0  0  0  0  0  0  0  0
  129.8420  132.5060   60.4110 C   0  0  0  0  0  0  0  0  0  0  0  0
  128.2570  133.2310   60.7840 S   0  0  0  0  0  0  0  0  0  0  0  0
  126.9930  131.9170   60.7650 C   0  0  0  0  0  0  0  0  0  0  0  0
  127.1210  130.9470   61.9440 C   0  0  0  0  0  0  0  0  0  0  0  0
  127.8590  129.9670   61.8340 O   0  0  0  0  0  0  0  0  0  0  0  0
  126.3680  131.2390   63.0250 N   0  0  0  0  0  0  0  0  0  0  0  0
  126.2690  130.5540   64.2500 C   0  0  0  0  0  0  0  0  0  0  0  0
  124.9810  130.1840   64.6430 C   0  0  0  0  0  0  0  0  0  0  0  0
  124.7800  129.5070   65.8440 C   0  0  0  0  0  0  0  0  0  0  0  0
  125.8710  129.2080   66.6570 C   0  0  0  0  0  0  0  0  0  0  0  0
  127.1580  129.5830   66.2830 C   0  0  0  0  0  0  0  0  0  0  0  0
  127.3620  130.2590   65.0830 C   0  0  0  0  0  0  0  0  0  0  0  0
  130.5460  132.1520   61.5140 N   0  0  0  0  0  0  0  0  0  0  0  0
  1  2  1  0
  2  3  2  0
  3  4  1  0
  4  5  1  0
  5  6  1  0
  5  7  1  0
  5  8  1  0
  4  9  2  0
  9 10  1  0
 10 11  3  0
  9 12  1  0
 12 13  1  0
 13 14  1  0
 14 15  1  0
 15 16  2  0
 15 17  1  0
 17 18  1  0
 18 19  2  0
 19 20  1  0
 20 21  2  0
 21 22  1  0
 22 23  2  0
 12 24  2  0
 24  2  1  0
 23 18  1  0
M  END
>  <Binding energies>  (20) 
[-6.45]

>  <Ligand effiencies>  (20) 
[-0.258]

>  <Interactions>  (20) 
["V-A:PRO:540:CA:4881, V-A:ARG:545:CZ:4924, V-A:TYR:531:CE2:4791, V-A:ILE:538:CB:4860, V-A:PRO:540:CD:4885, V-A:PRO:540:CB:4883, V-B:ARG:545:CZ:9898, V-A:LEU:363:CA:3182, V-A:PRO:540:N:4882, V-A:ASP:366:CG:3210, V-A:LEU:363:CD1:3186, V-A:TYR:539:CE1:4873, V-A:TYR:539:CD1:4871, V-A:ASP:366:CB:3209, V-B:HIS:456:CE1:9040, V-A:GLU:543:CB:4904, V-A:GLU:543:CD:4906, V-A:PRO:540:C:4879, V-B:GLY:454:CA:9020, V-A:TYR:531:CZ:4792, V-A:TYR:539:C:4865, H-A:TYR:539:N:4868, V-A:TYR:539:CG:4870, H-A:ALA:541:N:4889, V-A:ASN:362:CB:3173, V-B:ARG:545:CG:9894, V-B:ARG:545:CD:9895, V-A:PRO:540:CG:4884"]

$$$$
2e_Grossjean_2025
     RDKit          3D

 25 26  0  0  0  0  0  0  0  0999 V2000
  126.8080  129.3450   63.8140 C   0  0  0  0  0  0  0  0  0  0  0  0
  126.9350  128.4400   62.6040 C   0  0  0  0  0  0  0  0  0  0  0  0
  126.3980  128.7970   61.3640 C   0  0  0  0  0  0  0  0  0  0  0  0
  126.5640  127.9190   60.2920 C   0  0  0  0  0  0  0  0  0  0  0  0
  127.2530  126.7190   60.4820 C   0  0  0  0  0  0  0  0  0  0  0  0
  127.7570  126.4190   61.7530 C   0  0  0  0  0  0  0  0  0  0  0  0
  128.4790  125.2200   61.8780 N   0  0  0  0  0  0  0  0  0  0  0  0
  129.6060  124.8540   61.2280 C   0  0  0  0  0  0  0  0  0  0  0  0
  130.2370  125.5710   60.4500 O   0  0  0  0  0  0  0  0  0  0  0  0
  130.0780  123.4170   61.4700 C   0  0  0  0  0  0  0  0  0  0  0  0
  129.1710  122.2170   60.4420 S   0  0  0  0  0  0  0  0  0  0  0  0
  127.5190  122.8630   60.3040 C   0  0  0  0  0  0  0  0  0  0  0  0
  126.9120  123.1210   61.4890 N   0  0  0  0  0  0  0  0  0  0  0  0
  125.6380  123.5720   61.4770 C   0  0  0  0  0  0  0  0  0  0  0  0
  125.0200  123.8420   62.8360 C   0  0  0  0  0  0  0  0  0  0  0  0
  124.9230  123.7760   60.2980 C   0  0  0  0  0  0  0  0  0  0  0  0
  125.5330  123.5040   59.0640 C   0  0  0  0  0  0  0  0  0  0  0  0
  124.7230  123.7140   57.7710 C   0  0  0  0  0  0  0  0  0  0  0  0
  125.3720  124.5430   56.9530 F   0  0  0  0  0  0  0  0  0  0  0  0
  124.5440  122.5470   57.1520 F   0  0  0  0  0  0  0  0  0  0  0  0
  123.5160  124.2380   57.9980 F   0  0  0  0  0  0  0  0  0  0  0  0
  126.8700  123.0360   59.0600 C   0  0  0  0  0  0  0  0  0  0  0  0
  127.5540  122.7060   57.8060 C   0  0  0  0  0  0  0  0  0  0  0  0
  128.0930  122.4450   56.8150 N   0  0  0  0  0  0  0  0  0  0  0  0
  127.6060  127.2770   62.8050 N   0  0  0  0  0  0  0  0  0  0  0  0
  1  2  1  0
  2  3  2  0
  3  4  1  0
  4  5  2  0
  5  6  1  0
  6  7  1  0
  7  8  1  0
  8  9  2  0
  8 10  1  0
 10 11  1  0
 11 12  1  0
 12 13  2  0
 13 14  1  0
 14 15  1  0
 14 16  2  0
 16 17  1  0
 17 18  1  0
 18 19  1  0
 18 20  1  0
 18 21  1  0
 17 22  2  0
 22 23  1  0
 23 24  3  0
  6 25  2  0
 25  2  1  0
 22 12  1  0
M  END
>  <Binding energies>  (21) 
[-6.31]

>  <Ligand effiencies>  (21) 
[-0.24269230769230768]

>  <Interactions>  (21) 
["H-B:ARG:545:NH2:9900, V-B:ARG:545:CZ:9898, V-B:TYR:531:CE2:9765, V-B:PRO:540:CA:9855, V-B:ASP:366:CG:8184, V-B:PRO:540:CB:9857, V-B:PRO:540:CD:9859, V-B:ILE:538:CB:9834, V-B:LEU:363:CD1:8160, V-B:LEU:363:CA:8156, V-B:ASP:366:CB:8183, V-B:PRO:540:N:9856, V-B:TYR:539:C:9839, V-B:GLU:543:CD:9880, H-B:GLU:543:OE1:9881, H-B:GLU:543:OE2:9882, H-B:ALA:541:N:9863, V-B:TYR:531:CZ:9766, V-B:PRO:540:CG:9858, V-B:PRO:540:C:9853, H-B:TYR:539:N:9842, V-B:LEU:363:CB:8158, V-B:ASN:362:CB:8147, V-B:ASN:362:CG:8148, V-B:LEU:363:C:8154"]

$$$$
2f_Grossjean_2025
     RDKit          3D

 24 25  0  0  0  0  0  0  0  0999 V2000
  125.2510  123.8730   62.6380 C   0  0  0  0  0  0  0  0  0  0  0  0
  125.8010  123.5930   61.2520 C   0  0  0  0  0  0  0  0  0  0  0  0
  125.0570  123.8580   60.1050 C   0  0  0  0  0  0  0  0  0  0  0  0
  125.6060  123.5740   58.8450 C   0  0  0  0  0  0  0  0  0  0  0  0
  124.7630  123.8620   57.5890 C   0  0  0  0  0  0  0  0  0  0  0  0
  125.4580  124.6150   56.7330 F   0  0  0  0  0  0  0  0  0  0  0  0
  124.4340  122.7180   56.9890 F   0  0  0  0  0  0  0  0  0  0  0  0
  123.6310  124.5130   57.8630 F   0  0  0  0  0  0  0  0  0  0  0  0
  126.9150  123.0290   58.7830 C   0  0  0  0  0  0  0  0  0  0  0  0
  127.5100  122.6630   57.4950 C   0  0  0  0  0  0  0  0  0  0  0  0
  127.9800  122.3750   56.4780 N   0  0  0  0  0  0  0  0  0  0  0  0
  127.6060  122.8180   60.0000 C   0  0  0  0  0  0  0  0  0  0  0  0
  129.2560  122.1540   60.1100 S   0  0  0  0  0  0  0  0  0  0  0  0
  130.3860  123.5180   60.5520 C   0  0  0  0  0  0  0  0  0  0  0  0
  130.8780  123.5100   62.0070 C   0  0  0  0  0  0  0  0  0  0  0  0
  130.9730  122.4530   62.6320 O   0  0  0  0  0  0  0  0  0  0  0  0
  131.1620  124.7310   62.5080 N   0  0  0  0  0  0  0  0  0  0  0  0
  131.6390  125.0860   63.7850 C   0  0  0  0  0  0  0  0  0  0  0  0
  130.8380  125.4450   64.8850 C   0  0  0  0  0  0  0  0  0  0  0  0
  131.4400  125.7700   66.1010 C   0  0  0  0  0  0  0  0  0  0  0  0
  132.8320  125.7250   66.1900 C   0  0  0  0  0  0  0  0  0  0  0  0
  133.6260  125.3750   65.1470 N   0  0  0  0  0  0  0  0  0  0  0  0
  133.0250  125.0600   63.9710 C   0  0  0  0  0  0  0  0  0  0  0  0
  127.0500  123.0770   61.2090 N   0  0  0  0  0  0  0  0  0  0  0  0
  1  2  1  0
  2  3  2  0
  3  4  1  0
  4  5  1  0
  5  6  1  0
  5  7  1  0
  5  8  1  0
  4  9  2  0
  9 10  1  0
 10 11  3  0
  9 12  1  0
 12 13  1  0
 13 14  1  0
 14 15  1  0
 15 16  2  0
 15 17  1  0
 17 18  1  0
 18 19  2  0
 19 20  1  0
 20 21  2  0
 21 22  1  0
 22 23  2  0
 12 24  2  0
 24  2  1  0
 23 18  1  0
M  END
>  <Binding energies>  (22) 
[-7.38]

>  <Ligand effiencies>  (22) 
[-0.2952]

>  <Interactions>  (22) 
["V-A:ARG:545:CZ:4924, H-A:ARG:545:NE:4922, V-B:TYR:539:CE1:9847, V-B:ARG:545:CZ:9898, H-A:GLY:454:N:4047, H-A:TYR:484:OH:4345, V-B:TYR:531:CE2:9765, V-B:PRO:540:CA:9855, V-B:ASP:366:CG:8184, V-B:PRO:540:CB:9857, V-B:PRO:540:CD:9859, V-B:ILE:538:CB:9834, V-B:LEU:363:CD1:8160, V-B:LEU:363:CA:8156, V-B:ASP:366:CB:8183, V-B:PRO:540:N:9856, V-B:TYR:539:C:9839, V-B:GLU:543:CD:9880, V-A:HIS:456:CE1:4066, H-B:ALA:541:N:9863, V-B:TYR:531:CZ:9766, V-B:PRO:540:CG:9858, V-B:PRO:540:C:9853, H-B:TYR:539:N:9842, V-B:ASN:362:CB:8147, V-A:ARG:545:CG:4920, V-A:ARG:545:CD:4921"]

$$$$
2g_Grossjean_2025
     RDKit          3D

 25 26  0  0  0  0  0  0  0  0999 V2000
  129.4920  126.5000   63.3570 C   0  0  0  0  0  0  0  0  0  0  0  0
  130.4140  125.8210   62.3620 C   0  0  0  0  0  0  0  0  0  0  0  0
  131.7180  125.4680   62.7000 C   0  0  0  0  0  0  0  0  0  0  0  0
  132.5340  124.8480   61.7410 C   0  0  0  0  0  0  0  0  0  0  0  0
  133.9780  124.4730   62.1300 C   0  0  0  0  0  0  0  0  0  0  0  0
  134.4070  125.2550   63.1220 F   0  0  0  0  0  0  0  0  0  0  0  0
  134.0220  123.2020   62.5320 F   0  0  0  0  0  0  0  0  0  0  0  0
  134.8370  124.6060   61.1170 F   0  0  0  0  0  0  0  0  0  0  0  0
  131.9960  124.5920   60.4540 C   0  0  0  0  0  0  0  0  0  0  0  0
  132.8240  123.9990   59.4000 C   0  0  0  0  0  0  0  0  0  0  0  0
  133.4780  123.5300   58.5690 N   0  0  0  0  0  0  0  0  0  0  0  0
  130.6500  124.9580   60.2110 C   0  0  0  0  0  0  0  0  0  0  0  0
  129.8110  124.6880   58.6650 S   0  0  0  0  0  0  0  0  0  0  0  0
  128.3890  123.5920   58.9970 C   0  0  0  0  0  0  0  0  0  0  0  0
  128.5130  122.7490   60.2740 C   0  0  0  0  0  0  0  0  0  0  0  0
  127.6210  122.7360   61.1240 O   0  0  0  0  0  0  0  0  0  0  0  0
  129.6530  122.0430   60.3920 N   0  0  0  0  0  0  0  0  0  0  0  0
  129.9950  121.1630   61.5100 C   0  0  0  0  0  0  0  0  0  0  0  0
  131.0290  120.0940   61.1740 C   0  0  0  0  0  0  0  0  0  0  0  0
  130.6500  118.7480   61.1320 C   0  0  0  0  0  0  0  0  0  0  0  0
  131.5840  117.7730   60.7880 C   0  0  0  0  0  0  0  0  0  0  0  0
  132.8890  118.1470   60.4790 C   0  0  0  0  0  0  0  0  0  0  0  0
  133.2700  119.4880   60.5060 C   0  0  0  0  0  0  0  0  0  0  0  0
  132.3370  120.4620   60.8490 C   0  0  0  0  0  0  0  0  0  0  0  0
  129.8830  125.5770   61.1420 N   0  0  0  0  0  0  0  0  0  0  0  0
  1  2  1  0
  2  3  2  0
  3  4  1  0
  4  5  1  0
  5  6  1  0
  5  7  1  0
  5  8  1  0
  4  9  2  0
  9 10  1  0
 10 11  3  0
  9 12  1  0
 12 13  1  0
 13 14  1  0
 14 15  1  0
 15 16  2  0
 15 17  1  0
 17 18  1  0
 18 19  1  0
 19 20  2  0
 20 21  1  0
 21 22  2  0
 22 23  1  0
 23 24  2  0
 12 25  2  0
 25  2  1  0
 24 19  1  0
M  END
>  <Binding energies>  (23) 
[-6.34]

>  <Ligand effiencies>  (23) 
[-0.24384615384615385]

>  <Interactions>  (23) 
["V-A:ARG:545:CZ:4924, V-A:GLY:454:CA:4046, V-B:ALA:541:CB:9864, V-B:TYR:539:CE1:9847, V-A:ILE:369:CG2:3234, V-A:ILE:369:CD1:3236, V-A:ASP:366:CG:3210, V-A:LEU:475:CD2:4256, V-A:GLY:453:C:4039, V-B:PRO:540:CA:9855, V-B:TYR:539:CD1:9845, V-B:TYR:539:C:9839, V-B:GLU:543:CD:9880, H-B:ALA:541:N:9863, H-B:TYR:539:OH:9850, V-A:PRO:482:CB:4323, V-A:PRO:482:CG:4324, H-B:TYR:539:O:9840, V-A:LEU:373:CD1:3277, V-A:SER:385:CA:3404, V-A:SER:385:CB:3406, V-A:GLY:453:CA:4041"]

$$$$
2h_Grossjean_2025
     RDKit          3D

 31 32  0  0  0  0  0  0  0  0999 V2000
  133.3120  124.5520   58.8950 C   0  0  0  0  0  0  0  0  0  0  0  0
  132.1260  124.3940   58.1240 O   0  0  0  0  0  0  0  0  0  0  0  0
  131.3270  125.4960   57.8750 C   0  0  0  0  0  0  0  0  0  0  0  0
  131.7410  126.8240   58.0680 C   0  0  0  0  0  0  0  0  0  0  0  0
  130.8820  127.8840   57.7870 C   0  0  0  0  0  0  0  0  0  0  0  0
  129.5930  127.6430   57.3080 C   0  0  0  0  0  0  0  0  0  0  0  0
  128.6770  128.8220   56.9870 C   0  0  0  0  0  0  0  0  0  0  0  0
  128.3350  129.6350   58.1550 N   0  0  0  0  0  0  0  0  0  0  0  0
  127.6150  130.7700   58.1200 C   0  0  0  0  0  0  0  0  0  0  0  0
  127.2310  131.2940   57.0730 O   0  0  0  0  0  0  0  0  0  0  0  0
  127.2830  131.3860   59.4860 C   0  0  0  0  0  0  0  0  0  0  0  0
  128.3400  132.7890   59.9770 S   0  0  0  0  0  0  0  0  0  0  0  0
  130.0260  132.2500   59.7950 C   0  0  0  0  0  0  0  0  0  0  0  0
  130.6010  131.8530   60.9570 N   0  0  0  0  0  0  0  0  0  0  0  0
  131.8880  131.4410   60.9360 C   0  0  0  0  0  0  0  0  0  0  0  0
  132.4660  131.0180   62.2730 C   0  0  0  0  0  0  0  0  0  0  0  0
  132.6470  131.4030   59.7680 C   0  0  0  0  0  0  0  0  0  0  0  0
  132.0630  131.7920   58.5520 C   0  0  0  0  0  0  0  0  0  0  0  0
  132.9160  131.7350   57.2700 C   0  0  0  0  0  0  0  0  0  0  0  0
  134.0770  131.1300   57.5220 F   0  0  0  0  0  0  0  0  0  0  0  0
  132.3190  131.0620   56.2830 F   0  0  0  0  0  0  0  0  0  0  0  0
  133.1580  132.9690   56.8250 F   0  0  0  0  0  0  0  0  0  0  0  0
  130.7110  132.2190   58.5560 C   0  0  0  0  0  0  0  0  0  0  0  0
  130.0380  132.5790   57.3050 C   0  0  0  0  0  0  0  0  0  0  0  0
  129.5080  132.8590   56.3160 N   0  0  0  0  0  0  0  0  0  0  0  0
  129.1580  126.3210   57.1320 C   0  0  0  0  0  0  0  0  0  0  0  0
  127.8890  126.0760   56.6640 O   0  0  0  0  0  0  0  0  0  0  0  0
  126.9070  125.9230   57.6810 C   0  0  0  0  0  0  0  0  0  0  0  0
  130.0330  125.2540   57.3980 C   0  0  0  0  0  0  0  0  0  0  0  0
  129.6150  123.9580   57.2090 O   0  0  0  0  0  0  0  0  0  0  0  0
  129.0100  123.3700   58.3530 C   0  0  0  0  0  0  0  0  0  0  0  0
  1  2  1  0
  2  3  1  0
  3  4  2  0
  4  5  1  0
  5  6  2  0
  6  7  1  0
  7  8  1  0
  8  9  1  0
  9 10  2  0
  9 11  1  0
 11 12  1  0
 12 13  1  0
 13 14  2  0
 14 15  1  0
 15 16  1  0
 15 17  2  0
 17 18  1  0
 18 19  1  0
 19 20  1  0
 19 21  1  0
 19 22  1  0
 18 23  2  0
 23 24  1  0
 24 25  3  0
  6 26  1  0
 26 27  1  0
 27 28  1  0
 26 29  2  0
 29 30  1  0
 30 31  1  0
 29  3  1  0
 23 13  1  0
M  END
>  <Binding energies>  (24) 
[-5.81]

>  <Ligand effiencies>  (24) 
[-0.1815625]

>  <Interactions>  (24) 
["V-A:PRO:540:CA:4881, V-A:ARG:545:CZ:4924, V-A:TYR:531:CE2:4791, V-A:ILE:538:CB:4860, V-B:TYR:539:CE1:9847, V-A:PRO:540:CD:4885, V-A:ILE:538:CG2:4861, V-A:PRO:540:CB:4883, V-A:LEU:363:CA:3182, V-A:PRO:540:N:4882, V-A:ASP:366:CG:3210, V-A:LEU:363:CD1:3186, V-A:TYR:539:CE1:4873, V-B:TYR:539:CD1:9845, V-A:TYR:539:CD1:4871, H-B:TYR:531:OH:9767, H-A:TYR:539:OH:4876, V-A:ASP:366:CA:3207, V-A:ASP:366:CB:3209, V-B:TYR:539:CZ:9849, V-A:TYR:539:CZ:4875, V-A:GLU:543:CD:4906, V-A:TYR:531:CZ:4792, V-A:TYR:539:C:4865, H-B:TYR:539:OH:9850, H-A:TYR:539:N:4868, V-B:MET:535:CE:9807, V-A:MET:535:CE:4833, H-A:ALA:541:N:4889, V-A:ASN:362:CB:3173, V-A:LEU:363:CB:3184, V-A:LEU:363:CG:3185, V-A:LEU:363:C:3180, V-A:PRO:540:CG:4884"]

$$$$
2i_Grossjean_2025
     RDKit          3D

 23 24  0  0  0  0  0  0  0  0999 V2000
  132.5220  131.3450   62.6470 C   0  0  0  0  0  0  0  0  0  0  0  0
  131.8840  131.6560   61.3050 C   0  0  0  0  0  0  0  0  0  0  0  0
  132.5740  131.4750   60.1100 C   0  0  0  0  0  0  0  0  0  0  0  0
  131.9390  131.7750   58.8950 C   0  0  0  0  0  0  0  0  0  0  0  0
  132.7170  131.5700   57.5820 C   0  0  0  0  0  0  0  0  0  0  0  0
  132.0530  130.7320   56.7840 F   0  0  0  0  0  0  0  0  0  0  0  0
  132.8700  132.7360   56.9530 F   0  0  0  0  0  0  0  0  0  0  0  0
  133.9340  131.0570   57.7770 F   0  0  0  0  0  0  0  0  0  0  0  0
  130.6050  132.2560   58.9290 C   0  0  0  0  0  0  0  0  0  0  0  0
  129.8940  132.5840   57.6890 C   0  0  0  0  0  0  0  0  0  0  0  0
  129.3310  132.8420   56.7120 N   0  0  0  0  0  0  0  0  0  0  0  0
  129.9810  132.4120   60.1880 C   0  0  0  0  0  0  0  0  0  0  0  0
  128.3090  133.0170   60.3540 S   0  0  0  0  0  0  0  0  0  0  0  0
  127.2200  131.5920   60.6570 C   0  0  0  0  0  0  0  0  0  0  0  0
  127.0630  131.2900   62.1490 C   0  0  0  0  0  0  0  0  0  0  0  0
  127.9430  131.6560   62.9300 O   0  0  0  0  0  0  0  0  0  0  0  0
  125.9530  130.6040   62.4960 N   0  0  0  0  0  0  0  0  0  0  0  0
  125.5960  130.1980   63.7710 C   0  0  0  0  0  0  0  0  0  0  0  0
  126.3940  129.7430   64.8300 C   0  0  0  0  0  0  0  0  0  0  0  0
  125.5080  129.4870   65.8510 C   0  0  0  0  0  0  0  0  0  0  0  0
  124.2530  129.7790   65.4320 O   0  0  0  0  0  0  0  0  0  0  0  0
  124.3270  130.2340   64.1140 N   0  0  0  0  0  0  0  0  0  0  0  0
  130.6130  132.1140   61.3520 N   0  0  0  0  0  0  0  0  0  0  0  0
  1  2  1  0
  2  3  2  0
  3  4  1  0
  4  5  1  0
  5  6  1  0
  5  7  1  0
  5  8  1  0
  4  9  2  0
  9 10  1  0
 10 11  3  0
  9 12  1  0
 12 13  1  0
 13 14  1  0
 14 15  1  0
 15 16  2  0
 15 17  1  0
 17 18  1  0
 18 19  1  0
 19 20  2  0
 20 21  1  0
 21 22  1  0
 12 23  2  0
 23  2  1  0
 22 18  2  0
M  END
>  <Binding energies>  (25) 
[-7.34]

>  <Ligand effiencies>  (25) 
[-0.30583333333333335]

>  <Interactions>  (25) 
["V-A:PRO:540:CA:4881, V-A:ARG:545:CZ:4924, V-A:TYR:531:CE2:4791, V-A:ILE:538:CB:4860, V-A:PRO:540:CD:4885, V-A:PRO:540:CB:4883, V-B:ARG:545:CZ:9898, V-A:LEU:363:CA:3182, V-A:PRO:540:N:4882, V-A:ASP:366:CG:3210, V-A:LEU:363:CD1:3186, V-A:TYR:539:CE1:4873, H-B:TYR:484:OH:9319, H-B:GLY:454:N:9021, H-B:ARG:545:NE:9896, V-A:ASP:366:CB:3209, V-B:HIS:456:CE1:9040, V-A:GLU:543:CD:4906, V-A:PRO:540:C:4879, V-A:TYR:531:CZ:4792, V-A:TYR:539:C:4865, H-A:TYR:539:N:4868, H-A:ALA:541:N:4889, V-A:ASN:362:CB:3173, V-A:ALA:541:C:4886, H-B:ASP:366:OD1:8185, V-B:ARG:545:CG:9894, V-B:ARG:545:CD:9895, V-A:LEU:363:CB:3184, V-A:PRO:540:CG:4884"]

$$$$
2k_Grossjean_2025
     RDKit          3D

 28 28  0  0  0  0  0  0  0  0999 V2000
  128.9390  132.1970   57.2210 C   0  0  0  0  0  0  0  0  0  0  0  0
  128.9130  132.5830   58.5860 O   0  0  0  0  0  0  0  0  0  0  0  0
  130.0810  132.2060   59.3050 C   0  0  0  0  0  0  0  0  0  0  0  0
  129.8340  132.3580   60.8110 C   0  0  0  0  0  0  0  0  0  0  0  0
  130.9980  131.9500   61.5140 O   0  0  0  0  0  0  0  0  0  0  0  0
  131.1030  130.5440   61.7060 C   0  0  0  0  0  0  0  0  0  0  0  0
  129.6880  129.9550   61.7630 C   0  0  0  0  0  0  0  0  0  0  0  0
  129.7720  128.5850   61.4040 O   0  0  0  0  0  0  0  0  0  0  0  0
  129.3940  127.6700   62.4220 C   0  0  0  0  0  0  0  0  0  0  0  0
  128.3980  126.6530   61.8350 C   0  0  0  0  0  0  0  0  0  0  0  0
  128.8960  125.2750   61.8780 N   0  0  0  0  0  0  0  0  0  0  0  0
  130.0060  124.8240   61.2620 C   0  0  0  0  0  0  0  0  0  0  0  0
  130.7570  125.5460   60.6030 O   0  0  0  0  0  0  0  0  0  0  0  0
  130.2840  123.3210   61.4080 C   0  0  0  0  0  0  0  0  0  0  0  0
  129.2760  122.2310   60.3440 S   0  0  0  0  0  0  0  0  0  0  0  0
  127.5980  122.8450   60.2840 C   0  0  0  0  0  0  0  0  0  0  0  0
  127.0360  123.1400   61.4830 N   0  0  0  0  0  0  0  0  0  0  0  0
  125.7670  123.6060   61.5130 C   0  0  0  0  0  0  0  0  0  0  0  0
  125.2070  123.9010   62.8910 C   0  0  0  0  0  0  0  0  0  0  0  0
  125.0140  123.8070   60.3610 C   0  0  0  0  0  0  0  0  0  0  0  0
  125.5770  123.5170   59.1090 C   0  0  0  0  0  0  0  0  0  0  0  0
  124.7310  123.7510   57.8420 C   0  0  0  0  0  0  0  0  0  0  0  0
  123.5250  124.2530   58.1120 F   0  0  0  0  0  0  0  0  0  0  0  0
  125.3510  124.6100   57.0310 F   0  0  0  0  0  0  0  0  0  0  0  0
  124.5500  122.5990   57.1950 F   0  0  0  0  0  0  0  0  0  0  0  0
  126.9050  123.0200   59.0620 C   0  0  0  0  0  0  0  0  0  0  0  0
  127.5420  122.6970   57.7820 C   0  0  0  0  0  0  0  0  0  0  0  0
  128.0450  122.4420   56.7710 N   0  0  0  0  0  0  0  0  0  0  0  0
  1  2  1  0
  2  3  1  0
  3  4  1  0
  4  5  1  0
  5  6  1  0
  6  7  1  0
  7  8  1  0
  8  9  1  0
  9 10  1  0
 10 11  1  0
 11 12  1  0
 12 13  2  0
 12 14  1  0
 14 15  1  0
 15 16  1  0
 16 17  2  0
 17 18  1  0
 18 19  1  0
 18 20  2  0
 20 21  1  0
 21 22  1  0
 22 23  1  0
 22 24  1  0
 22 25  1  0
 21 26  2  0
 26 27  1  0
 27 28  3  0
 26 16  1  0
M  END
>  <Binding energies>  (26) 
[-5.54]

>  <Ligand effiencies>  (26) 
[-0.1910344827586207]

>  <Interactions>  (26) 
["V-A:PRO:540:CA:4881, V-B:ARG:545:CZ:9898, V-A:PRO:540:N:4882, V-A:TYR:539:CE1:4873, V-B:TYR:531:CE2:9765, V-B:PRO:540:CA:9855, V-B:ASP:366:CG:8184, V-B:PRO:540:CB:9857, V-B:PRO:540:CD:9859, V-B:LEU:363:CD1:8160, V-B:LEU:363:CA:8156, V-A:TYR:539:CD1:4871, V-B:ASP:366:CB:8183, V-B:PRO:540:N:9856, V-B:TYR:539:C:9839, V-B:GLU:543:CD:9880, H-B:GLU:543:OE1:9881, H-B:GLU:543:OE2:9882, V-A:TYR:539:CZ:4875, V-A:GLU:543:CD:4906, H-B:ALA:541:N:9863, V-B:TYR:531:CZ:9766, V-A:PRO:540:C:4879, V-B:PRO:540:CG:9858, V-A:TYR:539:C:4865, V-B:PRO:540:C:9853, H-B:TYR:539:N:9842, V-B:LEU:363:CB:8158, V-B:ASN:362:CB:8147, H-A:ALA:541:N:4889, V-B:LEU:363:C:8154"]

$$$$
3aa_Grossjean_2025
     RDKit          3D

 34 36  0  0  0  0  0  0  0  0999 V2000
  133.3170  131.7560   57.4560 C   0  0  0  0  0  0  0  0  0  0  0  0
  132.3490  132.3520   56.4290 C   0  0  0  0  0  0  0  0  0  0  0  0
  131.3730  133.1410   57.0990 O   0  0  0  0  0  0  0  0  0  0  0  0
  130.1490  132.6340   57.3960 C   0  0  0  0  0  0  0  0  0  0  0  0
  129.1290  133.3240   57.4790 O   0  0  0  0  0  0  0  0  0  0  0  0
  130.1620  131.1500   57.6300 C   0  0  0  0  0  0  0  0  0  0  0  0
  129.7910  130.2370   56.6320 C   0  0  0  0  0  0  0  0  0  0  0  0
  129.8180  128.8670   56.8810 C   0  0  0  0  0  0  0  0  0  0  0  0
  130.2230  128.3830   58.1260 C   0  0  0  0  0  0  0  0  0  0  0  0
  130.2180  126.9810   58.2720 N   0  0  0  0  0  0  0  0  0  0  0  0
  129.3230  126.0720   57.8260 C   0  0  0  0  0  0  0  0  0  0  0  0
  128.2930  126.3300   57.2030 O   0  0  0  0  0  0  0  0  0  0  0  0
  129.6460  124.6140   58.1530 C   0  0  0  0  0  0  0  0  0  0  0  0
  128.8560  124.0790   59.7020 S   0  0  0  0  0  0  0  0  0  0  0  0
  130.1510  123.4930   60.7720 C   0  0  0  0  0  0  0  0  0  0  0  0
  130.4490  122.1830   60.5970 N   0  0  0  0  0  0  0  0  0  0  0  0
  131.4200  121.6070   61.3520 C   0  0  0  0  0  0  0  0  0  0  0  0
  131.7010  120.1580   61.0890 C   0  0  0  0  0  0  0  0  0  0  0  0
  132.9940  119.7320   60.7450 C   0  0  0  0  0  0  0  0  0  0  0  0
  133.2640  118.3880   60.5000 C   0  0  0  0  0  0  0  0  0  0  0  0
  132.2410  117.4510   60.5960 C   0  0  0  0  0  0  0  0  0  0  0  0
  130.9520  117.8470   60.9380 C   0  0  0  0  0  0  0  0  0  0  0  0
  130.6860  119.1910   61.1850 C   0  0  0  0  0  0  0  0  0  0  0  0
  132.1240  122.3490   62.3060 C   0  0  0  0  0  0  0  0  0  0  0  0
  131.8200  123.7030   62.5170 C   0  0  0  0  0  0  0  0  0  0  0  0
  132.6100  124.4840   63.5850 C   0  0  0  0  0  0  0  0  0  0  0  0
  131.8350  125.2830   64.3220 F   0  0  0  0  0  0  0  0  0  0  0  0
  133.2160  123.6380   64.4190 F   0  0  0  0  0  0  0  0  0  0  0  0
  133.5330  125.2480   62.9990 F   0  0  0  0  0  0  0  0  0  0  0  0
  130.7960  124.2950   61.7390 C   0  0  0  0  0  0  0  0  0  0  0  0
  130.3980  125.6890   61.9560 C   0  0  0  0  0  0  0  0  0  0  0  0
  130.0820  126.7890   62.1280 N   0  0  0  0  0  0  0  0  0  0  0  0
  130.5830  129.2900   59.1330 C   0  0  0  0  0  0  0  0  0  0  0  0
  130.5530  130.6580   58.8830 C   0  0  0  0  0  0  0  0  0  0  0  0
  1  2  1  0
  2  3  1  0
  3  4  1  0
  4  5  2  0
  4  6  1  0
  6  7  2  0
  7  8  1  0
  8  9  2  0
  9 10  1  0
 10 11  1  0
 11 12  2  0
 11 13  1  0
 13 14  1  0
 14 15  1  0
 15 16  2  0
 16 17  1  0
 17 18  1  0
 18 19  2  0
 19 20  1  0
 20 21  2  0
 21 22  1  0
 22 23  2  0
 17 24  2  0
 24 25  1  0
 25 26  1  0
 26 27  1  0
 26 28  1  0
 26 29  1  0
 25 30  2  0
 30 31  1  0
 31 32  3  0
  9 33  1  0
 33 34  2  0
 34  6  1  0
 30 15  1  0
 23 18  1  0
M  END
>  <Binding energies>  (27) 
[-7.37]

>  <Ligand effiencies>  (27) 
[-0.21057142857142858]

>  <Interactions>  (27) 
["V-A:PRO:540:CA:4881, V-A:ARG:545:CZ:4924, V-A:TYR:531:CE2:4791, V-A:GLY:454:CA:4046, V-A:ILE:538:CB:4860, V-B:TYR:539:CE1:9847, V-A:ILE:369:CG2:3234, V-A:PRO:540:CD:4885, V-A:ILE:538:CG2:4861, V-A:PRO:540:CB:4883, V-A:LEU:363:CA:3182, V-A:PRO:540:N:4882, V-A:LEU:475:CD2:4256, V-A:LEU:363:CD1:3186, V-A:GLY:453:C:4039, V-B:TYR:539:CD1:9845, V-A:TYR:539:C:4865, H-A:ASP:366:OD2:3212, H-A:TYR:539:N:4868, V-A:MET:535:CE:4833, V-A:PRO:482:CB:4323, V-A:TYR:484:CZ:4344, V-A:PRO:482:CG:4324, V-A:LEU:373:CD1:3277, V-A:SER:385:CA:3404, V-A:SER:385:CB:3406, V-A:GLY:453:CA:4041"]

$$$$
3ad_Grossjean_2025
     RDKit          3D

 29 31  0  0  0  0  0  0  0  0999 V2000
  130.5510  125.6840   62.5930 N   0  0  0  0  0  0  0  0  0  0  0  0
  130.7190  124.5860   62.2670 C   0  0  0  0  0  0  0  0  0  0  0  0
  130.9290  123.1950   61.8530 C   0  0  0  0  0  0  0  0  0  0  0  0
  129.8360  122.3850   61.4580 C   0  0  0  0  0  0  0  0  0  0  0  0
  128.3900  122.9110   61.3940 C   0  0  0  0  0  0  0  0  0  0  0  0
  127.6400  122.2580   60.5050 F   0  0  0  0  0  0  0  0  0  0  0  0
  127.8050  122.7810   62.5870 F   0  0  0  0  0  0  0  0  0  0  0  0
  128.3860  124.2000   61.0490 F   0  0  0  0  0  0  0  0  0  0  0  0
  130.0850  121.0470   61.1160 C   0  0  0  0  0  0  0  0  0  0  0  0
  131.3840  120.5320   61.1700 C   0  0  0  0  0  0  0  0  0  0  0  0
  131.7030  119.1060   60.8300 C   0  0  0  0  0  0  0  0  0  0  0  0
  130.6770  118.1650   60.6510 C   0  0  0  0  0  0  0  0  0  0  0  0
  130.9650  116.8410   60.3340 C   0  0  0  0  0  0  0  0  0  0  0  0
  132.2900  116.4380   60.1920 C   0  0  0  0  0  0  0  0  0  0  0  0
  133.3240  117.3520   60.3620 C   0  0  0  0  0  0  0  0  0  0  0  0
  133.0310  118.6760   60.6770 C   0  0  0  0  0  0  0  0  0  0  0  0
  132.4260  121.3110   61.5550 N   0  0  0  0  0  0  0  0  0  0  0  0
  132.2150  122.6110   61.8700 C   0  0  0  0  0  0  0  0  0  0  0  0
  133.6940  123.4810   62.3380 S   0  0  0  0  0  0  0  0  0  0  0  0
  134.3650  124.2530   60.8360 C   0  0  0  0  0  0  0  0  0  0  0  0
  133.4340  124.0810   59.6330 C   0  0  0  0  0  0  0  0  0  0  0  0
  133.6190  123.1370   58.8640 O   0  0  0  0  0  0  0  0  0  0  0  0
  132.4610  125.0100   59.5150 N   0  0  0  0  0  0  0  0  0  0  0  0
  131.4470  125.1340   58.5480 C   0  0  0  0  0  0  0  0  0  0  0  0
  130.3580  124.2700   58.6980 C   0  0  0  0  0  0  0  0  0  0  0  0
  129.3000  124.3070   57.7930 C   0  0  0  0  0  0  0  0  0  0  0  0
  129.3320  125.2060   56.7320 C   0  0  0  0  0  0  0  0  0  0  0  0
  130.4130  126.0670   56.5650 C   0  0  0  0  0  0  0  0  0  0  0  0
  131.4740  126.0330   57.4680 C   0  0  0  0  0  0  0  0  0  0  0  0
  1  2  3  0
  2  3  1  0
  3  4  2  0
  4  5  1  0
  5  6  1  0
  5  7  1  0
  5  8  1  0
  4  9  1  0
  9 10  2  0
 10 11  1  0
 11 12  2  0
 12 13  1  0
 13 14  2  0
 14 15  1  0
 15 16  2  0
 10 17  1  0
 17 18  2  0
 18 19  1  0
 19 20  1  0
 20 21  1  0
 21 22  2  0
 21 23  1  0
 23 24  1  0
 24 25  2  0
 25 26  1  0
 26 27  2  0
 27 28  1  0
 28 29  2  0
 18  3  1  0
 29 24  1  0
 16 11  1  0
M  END
>  <Binding energies>  (28) 
[-7.47]

>  <Ligand effiencies>  (28) 
[-0.249]

>  <Interactions>  (28) 
["V-B:ALA:541:CB:9864, V-B:TYR:539:CE1:9847, V-A:ILE:369:CG2:3234, V-A:ILE:369:CD1:3236, H-A:GLY:454:N:4047, V-A:ASP:366:CG:3210, V-A:LEU:475:CD2:4256, V-B:PRO:540:CA:9855, V-B:PRO:540:CB:9857, V-B:TYR:539:CD1:9845, V-B:PRO:540:N:9856, V-B:TYR:539:CG:9844, V-B:TYR:539:C:9839, V-B:GLU:543:CD:9880, V-A:ASP:366:CB:3209, V-B:TYR:539:CZ:9849, H-B:TYR:539:OH:9850, H-A:ASP:366:OD2:3212, H-A:ASP:366:OD1:3211, V-B:MET:535:CE:9807, V-B:PRO:540:C:9853, V-A:PRO:482:CB:4323, V-A:PRO:482:CG:4324, V-B:TYR:539:CB:9843, V-B:ALA:541:CA:9862, V-A:LEU:373:CD1:3277, V-A:SER:385:CA:3404, V-A:SER:385:CB:3406, V-B:ALA:541:C:9860, V-B:VAL:344:CG1:7972, V-A:VAL:384:C:3394"]

$$$$
3ai_Grossjean_2025
     RDKit          3D

 28 30  0  0  0  0  0  0  0  0999 V2000
  133.5560  123.3870   61.1180 N   0  0  0  0  0  0  0  0  0  0  0  0
  132.4790  123.3560   60.6970 C   0  0  0  0  0  0  0  0  0  0  0  0
  131.1140  123.3160   60.1650 C   0  0  0  0  0  0  0  0  0  0  0  0
  130.2130  122.2960   60.5590 C   0  0  0  0  0  0  0  0  0  0  0  0
  130.5840  121.2100   61.5870 C   0  0  0  0  0  0  0  0  0  0  0  0
  130.6850  121.6850   62.8300 F   0  0  0  0  0  0  0  0  0  0  0  0
  129.6530  120.2540   61.5960 F   0  0  0  0  0  0  0  0  0  0  0  0
  131.7600  120.6650   61.2730 F   0  0  0  0  0  0  0  0  0  0  0  0
  128.9330  122.2730   59.9850 C   0  0  0  0  0  0  0  0  0  0  0  0
  128.5630  123.2390   59.0430 C   0  0  0  0  0  0  0  0  0  0  0  0
  127.2140  123.2560   58.3900 C   0  0  0  0  0  0  0  0  0  0  0  0
  127.0380  122.7420   57.0950 C   0  0  0  0  0  0  0  0  0  0  0  0
  125.7870  122.7500   56.4840 C   0  0  0  0  0  0  0  0  0  0  0  0
  124.6910  123.2740   57.1630 C   0  0  0  0  0  0  0  0  0  0  0  0
  124.8380  123.7870   58.4470 C   0  0  0  0  0  0  0  0  0  0  0  0
  126.0900  123.7770   59.0550 C   0  0  0  0  0  0  0  0  0  0  0  0
  129.4320  124.2090   58.6620 N   0  0  0  0  0  0  0  0  0  0  0  0
  130.6650  124.2660   59.2200 C   0  0  0  0  0  0  0  0  0  0  0  0
  131.6560  125.6170   58.6160 S   0  0  0  0  0  0  0  0  0  0  0  0
  131.3740  127.0510   59.7100 C   0  0  0  0  0  0  0  0  0  0  0  0
  131.2680  126.7160   61.2050 C   0  0  0  0  0  0  0  0  0  0  0  0
  130.2840  127.0630   61.8610 O   0  0  0  0  0  0  0  0  0  0  0  0
  132.3220  126.0320   61.7050 N   0  0  0  0  0  0  0  0  0  0  0  0
  132.4960  125.5920   63.0110 C   0  0  0  0  0  0  0  0  0  0  0  0
  131.4450  125.4620   63.9180 C   0  0  0  0  0  0  0  0  0  0  0  0
  132.0270  125.0100   65.0790 C   0  0  0  0  0  0  0  0  0  0  0  0
  133.3600  124.8740   64.8830 O   0  0  0  0  0  0  0  0  0  0  0  0
  133.6450  125.2450   63.5670 N   0  0  0  0  0  0  0  0  0  0  0  0
  1  2  3  0
  2  3  1  0
  3  4  2  0
  4  5  1  0
  5  6  1  0
  5  7  1  0
  5  8  1  0
  4  9  1  0
  9 10  2  0
 10 11  1  0
 11 12  2  0
 12 13  1  0
 13 14  2  0
 14 15  1  0
 15 16  2  0
 10 17  1  0
 17 18  2  0
 18 19  1  0
 19 20  1  0
 20 21  1  0
 21 22  2  0
 21 23  1  0
 23 24  1  0
 24 25  1  0
 25 26  2  0
 26 27  1  0
 27 28  1  0
 18  3  1  0
 28 24  2  0
 16 11  1  0
M  END
>  <Binding energies>  (29) 
[-7.42]

>  <Ligand effiencies>  (29) 
[-0.2558620689655172]

>  <Interactions>  (29) 
["V-A:ARG:545:CZ:4924, H-A:ARG:545:NE:4922, V-B:ALA:541:CB:9864, V-B:TYR:539:CE1:9847, H-A:GLY:454:N:4047, H-A:TYR:484:OH:4345, V-A:ASP:366:CG:3210, V-A:LEU:475:CD2:4256, V-B:TYR:531:CE2:9765, V-B:ILE:538:CA:9832, V-B:PRO:540:CA:9855, V-B:ILE:538:CG2:9835, V-B:PRO:540:CB:9857, H-A:ARG:545:NH2:4926, V-B:PRO:540:CD:9859, V-B:ILE:538:CB:9834, V-B:LEU:363:CD1:8160, V-B:TYR:539:CD1:9845, V-B:PRO:540:N:9856, V-B:TYR:539:C:9839, V-A:ASP:366:CB:3209, H-A:ASP:366:OD2:3212, H-A:ASP:366:OD1:3211, H-A:ARG:545:NH1:4925, V-B:PRO:540:C:9853, V-B:ALA:541:CA:9862"]

$$$$
3aj_Grossjean_2025
     RDKit          3D

 28 30  0  0  0  0  0  0  0  0999 V2000
  129.9910  126.2530   62.2400 N   0  0  0  0  0  0  0  0  0  0  0  0
  130.2410  125.1510   61.9880 C   0  0  0  0  0  0  0  0  0  0  0  0
  130.5550  123.7550   61.6690 C   0  0  0  0  0  0  0  0  0  0  0  0
  129.5220  122.8250   61.3990 C   0  0  0  0  0  0  0  0  0  0  0  0
  128.0320  123.2180   61.3790 C   0  0  0  0  0  0  0  0  0  0  0  0
  127.3280  122.5320   60.4760 F   0  0  0  0  0  0  0  0  0  0  0  0
  127.4850  122.9920   62.5740 F   0  0  0  0  0  0  0  0  0  0  0  0
  127.9060  124.5120   61.0840 F   0  0  0  0  0  0  0  0  0  0  0  0
  129.8730  121.4900   61.1460 C   0  0  0  0  0  0  0  0  0  0  0  0
  131.2140  121.0940   61.1660 C   0  0  0  0  0  0  0  0  0  0  0  0
  131.6420  119.6810   60.9120 C   0  0  0  0  0  0  0  0  0  0  0  0
  130.7110  118.6320   60.9550 C   0  0  0  0  0  0  0  0  0  0  0  0
  131.1010  117.3160   60.7160 C   0  0  0  0  0  0  0  0  0  0  0  0
  132.4340  117.0330   60.4310 C   0  0  0  0  0  0  0  0  0  0  0  0
  133.3760  118.0550   60.3820 C   0  0  0  0  0  0  0  0  0  0  0  0
  132.9810  119.3680   60.6200 C   0  0  0  0  0  0  0  0  0  0  0  0
  132.2000  121.9890   61.4330 N   0  0  0  0  0  0  0  0  0  0  0  0
  131.8890  123.2880   61.6570 C   0  0  0  0  0  0  0  0  0  0  0  0
  133.3100  124.3140   61.9650 S   0  0  0  0  0  0  0  0  0  0  0  0
  134.3860  124.2380   60.4930 C   0  0  0  0  0  0  0  0  0  0  0  0
  133.6540  124.3450   59.1480 C   0  0  0  0  0  0  0  0  0  0  0  0
  134.1310  123.8420   58.1280 O   0  0  0  0  0  0  0  0  0  0  0  0
  132.4830  125.0190   59.1940 N   0  0  0  0  0  0  0  0  0  0  0  0
  131.6210  125.2570   58.1320 C   0  0  0  0  0  0  0  0  0  0  0  0
  131.7490  126.1470   57.1720 N   0  0  0  0  0  0  0  0  0  0  0  0
  130.7410  126.0940   56.3230 C   0  0  0  0  0  0  0  0  0  0  0  0
  129.7610  125.1410   56.5910 C   0  0  0  0  0  0  0  0  0  0  0  0
  130.1940  124.2760   58.0340 S   0  0  0  0  0  0  0  0  0  0  0  0
  1  2  3  0
  2  3  1  0
  3  4  2  0
  4  5  1  0
  5  6  1  0
  5  7  1  0
  5  8  1  0
  4  9  1  0
  9 10  2  0
 10 11  1  0
 11 12  2  0
 12 13  1  0
 13 14  2  0
 14 15  1  0
 15 16  2  0
 10 17  1  0
 17 18  2  0
 18 19  1  0
 19 20  1  0
 20 21  1  0
 21 22  2  0
 21 23  1  0
 23 24  1  0
 24 25  2  0
 25 26  1  0
 26 27  2  0
 27 28  1  0
 18  3  1  0
 28 24  1  0
 16 11  1  0
M  END
>  <Binding energies>  (30) 
[-6.91]

>  <Ligand effiencies>  (30) 
[-0.23827586206896553]

>  <Interactions>  (30) 
["V-B:ALA:541:CB:9864, V-B:TYR:539:CE1:9847, V-A:ILE:369:CG2:3234, V-A:ILE:369:CD1:3236, V-A:ASP:366:CG:3210, V-A:LEU:475:CD2:4256, V-B:PRO:540:CA:9855, V-B:PRO:540:CB:9857, V-B:TYR:539:CD1:9845, V-B:PRO:540:N:9856, V-B:TYR:539:C:9839, V-B:GLU:543:CD:9880, V-A:ASP:366:CA:3207, V-A:ASP:366:CB:3209, V-B:TYR:539:CZ:9849, H-A:TYR:531:OH:4793, H-B:TYR:539:OH:9850, V-A:ILE:369:CB:3233, H-A:ASP:366:OD1:3211, V-B:MET:535:CE:9807, V-B:PRO:540:C:9853, V-A:PRO:482:CB:4323, V-A:PRO:482:CG:4324, V-B:ALA:541:CA:9862, V-A:LEU:373:CD1:3277, V-A:SER:385:CA:3404, V-A:SER:385:CB:3406, V-B:ALA:541:C:9860"]

$$$$
3ak_Grossjean_2025
     RDKit          3D

 33 34  0  0  0  0  0  0  0  0999 V2000
  134.1450  123.8840   59.7210 C   0  0  0  0  0  0  0  0  0  0  0  0
  133.7870  124.0820   58.3620 O   0  0  0  0  0  0  0  0  0  0  0  0
  132.7060  124.9880   58.1890 C   0  0  0  0  0  0  0  0  0  0  0  0
  131.8650  125.0130   59.4710 C   0  0  0  0  0  0  0  0  0  0  0  0
  130.7040  125.8070   59.2470 O   0  0  0  0  0  0  0  0  0  0  0  0
  130.9400  127.0980   58.6910 C   0  0  0  0  0  0  0  0  0  0  0  0
  129.6850  127.7490   58.0820 C   0  0  0  0  0  0  0  0  0  0  0  0
  129.0250  126.8040   57.2510 O   0  0  0  0  0  0  0  0  0  0  0  0
  129.8730  126.1900   56.2900 C   0  0  0  0  0  0  0  0  0  0  0  0
  129.8380  124.6590   56.4520 C   0  0  0  0  0  0  0  0  0  0  0  0
  129.0220  124.2080   57.5800 N   0  0  0  0  0  0  0  0  0  0  0  0
  128.3370  123.0500   57.6470 C   0  0  0  0  0  0  0  0  0  0  0  0
  128.3440  122.2180   56.7390 O   0  0  0  0  0  0  0  0  0  0  0  0
  127.5100  122.7500   58.9080 C   0  0  0  0  0  0  0  0  0  0  0  0
  127.7430  123.8830   60.3280 S   0  0  0  0  0  0  0  0  0  0  0  0
  129.2840  123.4800   61.1350 C   0  0  0  0  0  0  0  0  0  0  0  0
  129.7730  122.2420   60.8810 N   0  0  0  0  0  0  0  0  0  0  0  0
  130.9370  121.8400   61.4540 C   0  0  0  0  0  0  0  0  0  0  0  0
  131.4040  120.4560   61.1170 C   0  0  0  0  0  0  0  0  0  0  0  0
  132.7330  120.2210   60.7310 C   0  0  0  0  0  0  0  0  0  0  0  0
  133.1730  118.9370   60.4200 C   0  0  0  0  0  0  0  0  0  0  0  0
  132.2880  117.8670   60.4930 C   0  0  0  0  0  0  0  0  0  0  0  0
  130.9670  118.0720   60.8750 C   0  0  0  0  0  0  0  0  0  0  0  0
  130.5300  119.3570   61.1860 C   0  0  0  0  0  0  0  0  0  0  0  0
  131.6530  122.6970   62.2960 C   0  0  0  0  0  0  0  0  0  0  0  0
  131.1710  123.9840   62.5750 C   0  0  0  0  0  0  0  0  0  0  0  0
  131.9880  124.8980   63.5090 C   0  0  0  0  0  0  0  0  0  0  0  0
  133.1740  124.3470   63.7640 F   0  0  0  0  0  0  0  0  0  0  0  0
  132.1770  126.0870   62.9350 F   0  0  0  0  0  0  0  0  0  0  0  0
  131.3850  125.1110   64.6810 F   0  0  0  0  0  0  0  0  0  0  0  0
  129.9520  124.3920   61.9820 C   0  0  0  0  0  0  0  0  0  0  0  0
  129.3990  125.7260   62.2370 C   0  0  0  0  0  0  0  0  0  0  0  0
  128.9620  126.7790   62.4400 N   0  0  0  0  0  0  0  0  0  0  0  0
  1  2  1  0
  2  3  1  0
  3  4  1  0
  4  5  1  0
  5  6  1  0
  6  7  1  0
  7  8  1  0
  8  9  1  0
  9 10  1  0
 10 11  1  0
 11 12  1  0
 12 13  2  0
 12 14  1  0
 14 15  1  0
 15 16  1  0
 16 17  2  0
 17 18  1  0
 18 19  1  0
 19 20  2  0
 20 21  1  0
 21 22  2  0
 22 23  1  0
 23 24  2  0
 18 25  2  0
 25 26  1  0
 26 27  1  0
 27 28  1  0
 27 29  1  0
 27 30  1  0
 26 31  2  0
 31 32  1  0
 32 33  3  0
 31 16  1  0
 24 19  1  0
M  END
>  <Binding energies>  (31) 
[-5.57]

>  <Ligand effiencies>  (31) 
[-0.1638235294117647]

>  <Interactions>  (31) 
["V-A:ARG:545:CZ:4924, V-A:GLY:454:CA:4046, V-B:ALA:541:CB:9864, V-B:TYR:539:CE1:9847, V-A:ILE:369:CG2:3234, V-A:ILE:369:CD1:3236, V-A:ASP:366:CG:3210, V-A:LEU:475:CD2:4256, V-B:PRO:540:CA:9855, V-B:TYR:539:CD1:9845, V-B:PRO:540:N:9856, V-B:TYR:539:C:9839, V-B:GLU:543:CD:9880, V-A:ASP:366:CA:3207, V-A:ASP:366:CB:3209, V-B:TYR:539:CZ:9849, H-B:TYR:539:OH:9850, V-A:ILE:369:CB:3233, V-B:MET:535:CE:9807, V-A:PRO:482:CB:4323, H-B:TYR:539:N:9842, V-A:PRO:482:CG:4324, V-A:ILE:369:CG1:3235, V-A:LEU:373:CD1:3277, V-A:SER:385:CA:3404, V-A:SER:385:CB:3406"]

$$$$
3bk_Grossjean_2025
     RDKit          3D

 30 31  0  0  0  0  0  0  0  0999 V2000
  131.4080  124.7280   75.6210 C   0  0  0  0  0  0  0  0  0  0  0  0
  131.0010  126.0580   75.3380 O   0  0  0  0  0  0  0  0  0  0  0  0
  131.6900  126.6390   74.2390 C   0  0  0  0  0  0  0  0  0  0  0  0
  130.7620  126.6910   73.0180 C   0  0  0  0  0  0  0  0  0  0  0  0
  129.5460  126.0220   73.3210 O   0  0  0  0  0  0  0  0  0  0  0  0
  128.5930  126.0540   72.2660 C   0  0  0  0  0  0  0  0  0  0  0  0
  128.4210  127.5000   71.7840 C   0  0  0  0  0  0  0  0  0  0  0  0
  129.3780  127.7760   70.7700 O   0  0  0  0  0  0  0  0  0  0  0  0
  129.0080  127.2980   69.4830 C   0  0  0  0  0  0  0  0  0  0  0  0
  130.2090  127.4060   68.5330 C   0  0  0  0  0  0  0  0  0  0  0  0
  130.0440  126.5870   67.3310 N   0  0  0  0  0  0  0  0  0  0  0  0
  131.0420  126.1170   66.5640 C   0  0  0  0  0  0  0  0  0  0  0  0
  132.2360  126.3100   66.8000 O   0  0  0  0  0  0  0  0  0  0  0  0
  130.6330  125.2760   65.3520 C   0  0  0  0  0  0  0  0  0  0  0  0
  132.0770  124.6020   64.4710 S   0  0  0  0  0  0  0  0  0  0  0  0
  131.5680  124.0640   62.8470 C   0  0  0  0  0  0  0  0  0  0  0  0
  131.7790  122.7540   62.5630 N   0  0  0  0  0  0  0  0  0  0  0  0
  131.4260  122.2560   61.3490 C   0  0  0  0  0  0  0  0  0  0  0  0
  131.6740  120.7950   61.1250 C   0  0  0  0  0  0  0  0  0  0  0  0
  132.9490  120.3300   60.7630 C   0  0  0  0  0  0  0  0  0  0  0  0
  133.1840  118.9740   60.5490 C   0  0  0  0  0  0  0  0  0  0  0  0
  132.1450  118.0620   60.6960 C   0  0  0  0  0  0  0  0  0  0  0  0
  130.8730  118.4950   61.0580 C   0  0  0  0  0  0  0  0  0  0  0  0
  130.6430  119.8510   61.2720 C   0  0  0  0  0  0  0  0  0  0  0  0
  130.8370  123.0770   60.3800 C   0  0  0  0  0  0  0  0  0  0  0  0
  130.6130  124.4310   60.6550 C   0  0  0  0  0  0  0  0  0  0  0  0
  129.9690  125.2920   59.5700 C   0  0  0  0  0  0  0  0  0  0  0  0
  130.9830  124.9480   61.9150 C   0  0  0  0  0  0  0  0  0  0  0  0
  130.7590  126.3620   62.2320 C   0  0  0  0  0  0  0  0  0  0  0  0
  130.5820  127.4780   62.4820 N   0  0  0  0  0  0  0  0  0  0  0  0
  1  2  1  0
  2  3  1  0
  3  4  1  0
  4  5  1  0
  5  6  1  0
  6  7  1  0
  7  8  1  0
  8  9  1  0
  9 10  1  0
 10 11  1  0
 11 12  1  0
 12 13  2  0
 12 14  1  0
 14 15  1  0
 15 16  1  0
 16 17  2  0
 17 18  1  0
 18 19  1  0
 19 20  2  0
 20 21  1  0
 21 22  2  0
 22 23  1  0
 23 24  2  0
 18 25  2  0
 25 26  1  0
 26 27  1  0
 26 28  2  0
 28 29  1  0
 29 30  3  0
 28 16  1  0
 24 19  1  0
M  END
>  <Binding energies>  (32) 
[-6.96]

>  <Ligand effiencies>  (32) 
[-0.22451612903225807]

>  <Interactions>  (32) 
["H-A:ARG:545:NE:4922, V-B:ALA:541:CB:9864, V-B:TYR:539:CE1:9847, V-A:ILE:369:CG2:3234, H-A:TYR:484:OH:4345, V-A:LEU:475:CD2:4256, H-A:ARG:545:NH2:4926, V-B:TYR:539:CD1:9845, V-B:GLU:543:CD:9880, V-B:GLU:543:CG:9879, H-A:GLU:543:OE2:4908, V-B:GLU:543:CB:9878, V-A:HIS:456:CE1:4066, H-B:GLU:543:OE1:9881, H-B:GLU:543:OE2:9882, V-B:HIS:456:CE1:9040, V-A:GLU:543:CD:4906, V-A:GLU:543:CG:4905, V-B:GLU:543:C:9874, V-B:GLY:544:CA:9886, V-B:HIS:456:CD2:9039, V-B:LYS:547:CE:9922, V-A:LYS:547:CE:4948, V-A:HIS:456:CG:4063, V-B:GLY:544:C:9884, V-A:HIS:456:CD2:4065, H-A:LYS:547:NZ:4949, H-B:LYS:547:NZ:9923, H-B:HIS:456:NE2:9041, V-A:PRO:482:CB:4323, V-A:PRO:482:CG:4324, V-A:LEU:373:CD1:3277, V-A:SER:385:CA:3404, V-A:SER:385:CB:3406, H-B:GLU:543:O:9875, V-A:LYS:547:CD:4947"]

$$$$
3cb_Grossjean_2025
     RDKit          3D

 30 32  0  0  0  0  0  0  0  0999 V2000
  130.6590  127.2480   73.0690 C   0  0  0  0  0  0  0  0  0  0  0  0
  129.8320  128.2660   72.5250 O   0  0  0  0  0  0  0  0  0  0  0  0
  128.7290  127.9570   71.7960 C   0  0  0  0  0  0  0  0  0  0  0  0
  127.5830  127.9810   72.2540 O   0  0  0  0  0  0  0  0  0  0  0  0
  129.0420  127.5790   70.3760 C   0  0  0  0  0  0  0  0  0  0  0  0
  130.3460  127.6340   69.8620 C   0  0  0  0  0  0  0  0  0  0  0  0
  130.6020  127.2740   68.5420 C   0  0  0  0  0  0  0  0  0  0  0  0
  129.5650  126.8590   67.7070 C   0  0  0  0  0  0  0  0  0  0  0  0
  129.9370  126.5160   66.3920 N   0  0  0  0  0  0  0  0  0  0  0  0
  130.4230  125.3540   65.9020 C   0  0  0  0  0  0  0  0  0  0  0  0
  130.6150  124.3340   66.5670 O   0  0  0  0  0  0  0  0  0  0  0  0
  130.7200  125.3730   64.3950 C   0  0  0  0  0  0  0  0  0  0  0  0
  132.4890  125.2670   63.9580 S   0  0  0  0  0  0  0  0  0  0  0  0
  132.6440  124.1430   62.5850 C   0  0  0  0  0  0  0  0  0  0  0  0
  133.2670  124.6860   61.5110 N   0  0  0  0  0  0  0  0  0  0  0  0
  133.4420  123.9230   60.4090 C   0  0  0  0  0  0  0  0  0  0  0  0
  134.1570  124.5920   59.2500 C   0  0  0  0  0  0  0  0  0  0  0  0
  133.0020  122.6050   60.3320 C   0  0  0  0  0  0  0  0  0  0  0  0
  132.3420  122.0280   61.4250 C   0  0  0  0  0  0  0  0  0  0  0  0
  131.8840  120.6110   61.2910 C   0  0  0  0  0  0  0  0  0  0  0  0
  132.7760  119.6200   60.8610 C   0  0  0  0  0  0  0  0  0  0  0  0
  132.3620  118.2960   60.7430 C   0  0  0  0  0  0  0  0  0  0  0  0
  131.0500  117.9550   61.0610 C   0  0  0  0  0  0  0  0  0  0  0  0
  130.1520  118.9240   61.4970 C   0  0  0  0  0  0  0  0  0  0  0  0
  130.5700  120.2480   61.6150 C   0  0  0  0  0  0  0  0  0  0  0  0
  132.1390  122.8200   62.5840 C   0  0  0  0  0  0  0  0  0  0  0  0
  131.3720  122.2980   63.7210 C   0  0  0  0  0  0  0  0  0  0  0  0
  130.7680  121.8870   64.6170 N   0  0  0  0  0  0  0  0  0  0  0  0
  128.2580  126.7970   68.2140 C   0  0  0  0  0  0  0  0  0  0  0  0
  128.0030  127.1560   69.5360 C   0  0  0  0  0  0  0  0  0  0  0  0
  1  2  1  0
  2  3  1  0
  3  4  2  0
  3  5  1  0
  5  6  2  0
  6  7  1  0
  7  8  2  0
  8  9  1  0
  9 10  1  0
 10 11  2  0
 10 12  1  0
 12 13  1  0
 13 14  1  0
 14 15  2  0
 15 16  1  0
 16 17  1  0
 16 18  2  0
 18 19  1  0
 19 20  1  0
 20 21  2  0
 21 22  1  0
 22 23  2  0
 23 24  1  0
 24 25  2  0
 19 26  2  0
 26 27  1  0
 27 28  3  0
  8 29  1  0
 29 30  2  0
 30  5  1  0
 26 14  1  0
 25 20  1  0
M  END
>  <Binding energies>  (33) 
[-8.24]

>  <Ligand effiencies>  (33) 
[-0.2658064516129032]

>  <Interactions>  (33) 
["H-A:ARG:545:NE:4922, V-B:ALA:541:CB:9864, V-B:TYR:539:CE1:9847, V-A:ILE:369:CG2:3234, V-A:ILE:369:CD1:3236, H-A:TYR:484:OH:4345, V-A:ASP:366:CG:3210, V-A:LEU:475:CD2:4256, H-A:ARG:545:NH2:4926, V-B:TYR:539:CD1:9845, V-B:GLU:543:CD:9880, V-B:GLU:543:CG:9879, H-A:GLU:543:OE2:4908, V-B:GLU:543:CB:9878, V-A:HIS:456:CE1:4066, V-A:ASP:366:CA:3207, V-A:ASP:366:CB:3209, H-B:GLU:543:OE1:9881, H-A:GLU:543:OE1:4907, H-B:GLU:543:OE2:9882, V-B:HIS:456:CE1:9040, V-A:GLU:543:CD:4906, V-A:GLU:543:CG:4905, V-B:GLU:543:C:9874, V-B:HIS:456:CD2:9039, V-A:GLU:543:C:4900, V-A:LYS:547:CE:4948, V-A:GLY:544:C:4910, V-A:HIS:456:CD2:4065, H-A:LYS:547:NZ:4949, H-B:HIS:456:NE2:9041, H-A:HIS:456:NE2:4067, V-A:ILE:369:CB:3233, V-A:PRO:482:CB:4323, V-A:PRO:482:CG:4324, V-A:LEU:373:CD1:3277, V-A:SER:385:CA:3404, V-A:SER:385:CB:3406"]

$$$$
3ch_Grossjean_2025
     RDKit          3D

 32 34  0  0  0  0  0  0  0  0999 V2000
  130.2440  126.5440   56.5220 C   0  0  0  0  0  0  0  0  0  0  0  0
  131.4520  126.2500   57.2150 O   0  0  0  0  0  0  0  0  0  0  0  0
  131.4330  126.1110   58.5910 C   0  0  0  0  0  0  0  0  0  0  0  0
  130.6980  126.9400   59.4540 C   0  0  0  0  0  0  0  0  0  0  0  0
  130.7200  126.7320   60.8410 C   0  0  0  0  0  0  0  0  0  0  0  0
  130.0140  127.5050   61.7830 N   0  0  0  0  0  0  0  0  0  0  0  0
  128.7020  127.8230   61.8280 C   0  0  0  0  0  0  0  0  0  0  0  0
  127.8510  127.4620   61.0150 O   0  0  0  0  0  0  0  0  0  0  0  0
  128.2700  128.6700   63.0250 C   0  0  0  0  0  0  0  0  0  0  0  0
  127.9520  130.3990   62.5630 S   0  0  0  0  0  0  0  0  0  0  0  0
  128.1700  130.4880   60.7990 C   0  0  0  0  0  0  0  0  0  0  0  0
  127.0760  130.1110   60.0910 N   0  0  0  0  0  0  0  0  0  0  0  0
  127.1410  130.1360   58.7400 C   0  0  0  0  0  0  0  0  0  0  0  0
  125.8860  129.6980   58.0110 C   0  0  0  0  0  0  0  0  0  0  0  0
  128.2850  130.5300   58.0510 C   0  0  0  0  0  0  0  0  0  0  0  0
  129.4240  130.9290   58.7650 C   0  0  0  0  0  0  0  0  0  0  0  0
  130.6320  131.3340   57.9830 C   0  0  0  0  0  0  0  0  0  0  0  0
  130.5620  132.4070   57.0870 C   0  0  0  0  0  0  0  0  0  0  0  0
  131.6810  132.7840   56.3480 C   0  0  0  0  0  0  0  0  0  0  0  0
  132.8760  132.0850   56.5020 C   0  0  0  0  0  0  0  0  0  0  0  0
  132.9600  131.0120   57.3850 C   0  0  0  0  0  0  0  0  0  0  0  0
  131.8380  130.6370   58.1210 C   0  0  0  0  0  0  0  0  0  0  0  0
  129.3640  130.9280   60.1830 C   0  0  0  0  0  0  0  0  0  0  0  0
  130.4910  131.4250   60.9790 C   0  0  0  0  0  0  0  0  0  0  0  0
  131.3800  131.8160   61.6080 N   0  0  0  0  0  0  0  0  0  0  0  0
  131.5000  125.6990   61.3620 C   0  0  0  0  0  0  0  0  0  0  0  0
  132.2450  124.8580   60.5200 C   0  0  0  0  0  0  0  0  0  0  0  0
  133.0320  123.8120   60.9710 O   0  0  0  0  0  0  0  0  0  0  0  0
  134.0300  124.0610   61.9550 C   0  0  0  0  0  0  0  0  0  0  0  0
  132.2050  125.0770   59.1370 C   0  0  0  0  0  0  0  0  0  0  0  0
  132.9160  124.2500   58.3000 O   0  0  0  0  0  0  0  0  0  0  0  0
  134.3180  124.2540   58.5340 C   0  0  0  0  0  0  0  0  0  0  0  0
  1  2  1  0
  2  3  1  0
  3  4  2  0
  4  5  1  0
  5  6  1  0
  6  7  1  0
  7  8  2  0
  7  9  1  0
  9 10  1  0
 10 11  1  0
 11 12  2  0
 12 13  1  0
 13 14  1  0
 13 15  2  0
 15 16  1  0
 16 17  1  0
 17 18  2  0
 18 19  1  0
 19 20  2  0
 20 21  1  0
 21 22  2  0
 16 23  2  0
 23 24  1  0
 24 25  3  0
  5 26  2  0
 26 27  1  0
 27 28  1  0
 28 29  1  0
 27 30  2  0
 30 31  1  0
 31 32  1  0
 30  3  1  0
 23 11  1  0
 22 17  1  0
M  END
>  <Binding energies>  (34) 
[-6.76]

>  <Ligand effiencies>  (34) 
[-0.20484848484848484]

>  <Interactions>  (34) 
["V-A:PRO:540:CA:4881, V-A:TYR:531:CE2:4791, V-A:ILE:538:CB:4860, V-A:ILE:369:CG2:3234, V-A:PRO:540:CD:4885, V-A:ILE:538:CG2:4861, V-A:ILE:369:CD1:3236, V-A:PRO:540:N:4882, V-A:ASP:366:CG:3210, V-A:LEU:363:CD1:3186, V-B:ASP:366:CB:8183, H-A:GLU:543:OE2:4908, V-A:ASP:366:CA:3207, V-A:ASP:366:CB:3209, H-A:GLU:543:OE1:4907, V-A:GLU:543:CD:4906, H-A:TYR:531:OH:4793, V-A:TYR:531:CZ:4792, V-A:TYR:539:C:4865, H-B:TYR:539:OH:9850, V-A:ILE:369:CB:3233, V-A:ASP:366:C:3205, V-B:MET:535:CE:9807, V-A:ILE:538:CA:4858, H-A:ALA:541:N:4889, V-A:GLY:453:CA:4041"]

$$$$
3ci_Grossjean_2025
     RDKit          3D

 25 27  0  0  0  0  0  0  0  0999 V2000
  132.3190  124.9010   64.5410 C   0  0  0  0  0  0  0  0  0  0  0  0
  131.6170  124.2800   63.3480 C   0  0  0  0  0  0  0  0  0  0  0  0
  131.8910  122.9800   62.9330 C   0  0  0  0  0  0  0  0  0  0  0  0
  131.2050  122.4450   61.8350 C   0  0  0  0  0  0  0  0  0  0  0  0
  131.5210  121.0400   61.4350 C   0  0  0  0  0  0  0  0  0  0  0  0
  132.8000  120.6950   60.9800 C   0  0  0  0  0  0  0  0  0  0  0  0
  133.0870  119.3870   60.6010 C   0  0  0  0  0  0  0  0  0  0  0  0
  132.0910  118.4170   60.6690 C   0  0  0  0  0  0  0  0  0  0  0  0
  130.8120  118.7450   61.1100 C   0  0  0  0  0  0  0  0  0  0  0  0
  130.5290  120.0540   61.4890 C   0  0  0  0  0  0  0  0  0  0  0  0
  130.2540  123.2610   61.1710 C   0  0  0  0  0  0  0  0  0  0  0  0
  129.5360  122.7700   59.9900 C   0  0  0  0  0  0  0  0  0  0  0  0
  128.9700  122.3800   59.0580 N   0  0  0  0  0  0  0  0  0  0  0  0
  130.0320  124.5700   61.6620 C   0  0  0  0  0  0  0  0  0  0  0  0
  128.8410  125.6770   60.9160 S   0  0  0  0  0  0  0  0  0  0  0  0
  127.1590  125.1900   61.4220 C   0  0  0  0  0  0  0  0  0  0  0  0
  126.5510  124.0950   60.5390 C   0  0  0  0  0  0  0  0  0  0  0  0
  126.0790  123.0870   61.0680 O   0  0  0  0  0  0  0  0  0  0  0  0
  126.5960  124.3230   59.2070 N   0  0  0  0  0  0  0  0  0  0  0  0
  126.0940  123.5130   58.1980 C   0  0  0  0  0  0  0  0  0  0  0  0
  124.7780  123.5900   57.7440 C   0  0  0  0  0  0  0  0  0  0  0  0
  124.6830  122.6340   56.7580 C   0  0  0  0  0  0  0  0  0  0  0  0
  125.8800  122.0150   56.6250 O   0  0  0  0  0  0  0  0  0  0  0  0
  126.7660  122.5800   57.5440 N   0  0  0  0  0  0  0  0  0  0  0  0
  130.7100  125.0670   62.7270 N   0  0  0  0  0  0  0  0  0  0  0  0
  1  2  1  0
  2  3  2  0
  3  4  1  0
  4  5  1  0
  5  6  2  0
  6  7  1  0
  7  8  2  0
  8  9  1  0
  9 10  2  0
  4 11  2  0
 11 12  1  0
 12 13  3  0
 11 14  1  0
 14 15  1  0
 15 16  1  0
 16 17  1  0
 17 18  2  0
 17 19  1  0
 19 20  1  0
 20 21  1  0
 21 22  2  0
 22 23  1  0
 23 24  1  0
 14 25  2  0
 25  2  1  0
 10  5  1  0
 24 20  2  0
M  END
>  <Binding energies>  (35) 
[-8.08]

>  <Ligand effiencies>  (35) 
[-0.3107692307692308]

>  <Interactions>  (35) 
["V-B:ALA:541:CB:9864, V-B:TYR:539:CE1:9847, V-A:ILE:369:CG2:3234, V-A:LEU:475:CD2:4256, V-B:PRO:540:CA:9855, V-B:ILE:538:CG2:9835, V-B:PRO:540:CB:9857, V-B:PRO:540:CD:9859, V-B:ILE:538:CB:9834, V-B:LEU:363:CD1:8160, V-B:TYR:539:CD1:9845, V-B:PRO:540:N:9856, H-B:ALA:541:N:9863, V-B:PRO:540:CG:9858, H-B:ASP:366:OD2:8186, V-A:PRO:482:CB:4323, H-B:TYR:539:N:9842, V-A:PRO:482:CG:4324, V-A:LEU:373:CD1:3277, V-A:SER:385:CA:3404, V-A:SER:385:CB:3406"]

$$$$
3ck_Grossjean_2025
     RDKit          3D

 30 31  0  0  0  0  0  0  0  0999 V2000
  127.6470  127.9920   73.4620 C   0  0  0  0  0  0  0  0  0  0  0  0
  128.3930  127.1410   72.6060 O   0  0  0  0  0  0  0  0  0  0  0  0
  129.2340  127.8430   71.7020 C   0  0  0  0  0  0  0  0  0  0  0  0
  129.3950  127.0290   70.4110 C   0  0  0  0  0  0  0  0  0  0  0  0
  130.2690  127.7180   69.5270 O   0  0  0  0  0  0  0  0  0  0  0  0
  129.7020  127.9920   68.2520 C   0  0  0  0  0  0  0  0  0  0  0  0
  129.4960  126.6710   67.5010 C   0  0  0  0  0  0  0  0  0  0  0  0
  130.6630  126.4050   66.7360 O   0  0  0  0  0  0  0  0  0  0  0  0
  131.0420  125.0380   66.6830 C   0  0  0  0  0  0  0  0  0  0  0  0
  130.5630  124.4220   65.3560 C   0  0  0  0  0  0  0  0  0  0  0  0
  131.3750  124.8080   64.1980 N   0  0  0  0  0  0  0  0  0  0  0  0
  132.7150  124.9340   64.1870 C   0  0  0  0  0  0  0  0  0  0  0  0
  133.4230  124.7050   65.1700 O   0  0  0  0  0  0  0  0  0  0  0  0
  133.3260  125.3820   62.8500 C   0  0  0  0  0  0  0  0  0  0  0  0
  132.1530  125.5110   61.4570 S   0  0  0  0  0  0  0  0  0  0  0  0
  131.1730  124.0190   61.3760 C   0  0  0  0  0  0  0  0  0  0  0  0
  129.8300  124.1950   61.4520 N   0  0  0  0  0  0  0  0  0  0  0  0
  129.0280  123.1090   61.4020 C   0  0  0  0  0  0  0  0  0  0  0  0
  127.5390  123.3840   61.4960 C   0  0  0  0  0  0  0  0  0  0  0  0
  129.5250  121.8140   61.2770 C   0  0  0  0  0  0  0  0  0  0  0  0
  130.9080  121.6070   61.2030 C   0  0  0  0  0  0  0  0  0  0  0  0
  131.3970  120.2000   61.0920 C   0  0  0  0  0  0  0  0  0  0  0  0
  130.5630  119.1360   61.4540 C   0  0  0  0  0  0  0  0  0  0  0  0
  131.0150  117.8210   61.3630 C   0  0  0  0  0  0  0  0  0  0  0  0
  132.3080  117.5670   60.9150 C   0  0  0  0  0  0  0  0  0  0  0  0
  133.1530  118.6160   60.5600 C   0  0  0  0  0  0  0  0  0  0  0  0
  132.6980  119.9280   60.6510 C   0  0  0  0  0  0  0  0  0  0  0  0
  131.7620  122.7400   61.2420 C   0  0  0  0  0  0  0  0  0  0  0  0
  133.2170  122.5870   61.1260 C   0  0  0  0  0  0  0  0  0  0  0  0
  134.3640  122.4660   61.0350 N   0  0  0  0  0  0  0  0  0  0  0  0
  1  2  1  0
  2  3  1  0
  3  4  1  0
  4  5  1  0
  5  6  1  0
  6  7  1  0
  7  8  1  0
  8  9  1  0
  9 10  1  0
 10 11  1  0
 11 12  1  0
 12 13  2  0
 12 14  1  0
 14 15  1  0
 15 16  1  0
 16 17  2  0
 17 18  1  0
 18 19  1  0
 18 20  2  0
 20 21  1  0
 21 22  1  0
 22 23  2  0
 23 24  1  0
 24 25  2  0
 25 26  1  0
 26 27  2  0
 21 28  2  0
 28 29  1  0
 29 30  3  0
 28 16  1  0
 27 22  1  0
M  END
>  <Binding energies>  (36) 
[-6.16]

>  <Ligand effiencies>  (36) 
[-0.19870967741935483]

>  <Interactions>  (36) 
["V-A:ARG:545:CZ:4924, V-B:ALA:541:CB:9864, V-B:TYR:539:CE1:9847, V-A:ILE:369:CG2:3234, V-A:ILE:369:CD1:3236, H-A:GLY:454:N:4047, H-A:TYR:484:OH:4345, V-A:LEU:475:CD2:4256, V-B:PRO:540:CA:9855, H-A:ARG:545:NH2:4926, V-B:TYR:539:CD1:9845, V-B:GLU:543:CD:9880, V-B:GLU:543:CG:9879, V-B:GLU:543:CB:9878, V-A:HIS:456:CE1:4066, H-B:GLU:543:OE1:9881, V-B:HIS:456:CE1:9040, V-A:GLU:543:CB:4904, V-A:GLU:543:CD:4906, V-A:GLU:543:CG:4905, V-B:HIS:456:CD2:9039, V-A:GLU:543:C:4900, V-B:LYS:547:CE:9922, V-A:HIS:456:CD2:4065, V-B:HIS:456:CG:9037, H-A:HIS:456:NE2:4067, V-A:PRO:482:CB:4323, V-A:TYR:484:CZ:4344, V-A:TYR:484:CE2:4343, V-A:PRO:482:CG:4324, V-A:LEU:373:CD1:3277, V-A:SER:385:CA:3404, V-A:SER:385:CB:3406"]

$$$$
4aa_Grossjean_2025
     RDKit          3D

 26 28  0  0  0  0  0  0  0  0999 V2000
  133.3470  131.8430   57.3970 C   0  0  0  0  0  0  0  0  0  0  0  0
  132.4530  132.4880   56.3340 C   0  0  0  0  0  0  0  0  0  0  0  0
  131.4190  133.2270   56.9710 O   0  0  0  0  0  0  0  0  0  0  0  0
  130.2020  132.6710   57.2050 C   0  0  0  0  0  0  0  0  0  0  0  0
  129.1340  133.2510   56.9800 O   0  0  0  0  0  0  0  0  0  0  0  0
  130.2830  131.2830   57.7700 C   0  0  0  0  0  0  0  0  0  0  0  0
  130.2350  130.1860   56.9000 C   0  0  0  0  0  0  0  0  0  0  0  0
  130.3020  128.8860   57.3930 C   0  0  0  0  0  0  0  0  0  0  0  0
  130.4280  128.6560   58.7640 C   0  0  0  0  0  0  0  0  0  0  0  0
  130.4790  127.3030   59.1540 N   0  0  0  0  0  0  0  0  0  0  0  0
  129.7620  126.2410   58.7170 C   0  0  0  0  0  0  0  0  0  0  0  0
  128.8610  126.3100   57.8810 O   0  0  0  0  0  0  0  0  0  0  0  0
  130.1080  124.9580   59.3330 C   0  0  0  0  0  0  0  0  0  0  0  0
  128.8690  123.7210   59.5700 S   0  0  0  0  0  0  0  0  0  0  0  0
  130.0210  122.6480   60.3300 C   0  0  0  0  0  0  0  0  0  0  0  0
  129.6730  121.4390   60.7750 N   0  0  0  0  0  0  0  0  0  0  0  0
  130.6600  120.7090   61.3490 C   0  0  0  0  0  0  0  0  0  0  0  0
  130.2410  119.3400   61.8530 C   0  0  0  0  0  0  0  0  0  0  0  0
  131.9740  121.1520   61.4820 C   0  0  0  0  0  0  0  0  0  0  0  0
  132.3370  122.4190   61.0130 C   0  0  0  0  0  0  0  0  0  0  0  0
  133.7840  122.8580   61.1810 C   0  0  0  0  0  0  0  0  0  0  0  0
  131.3280  123.2170   60.4090 C   0  0  0  0  0  0  0  0  0  0  0  0
  131.3480  124.5370   59.8370 C   0  0  0  0  0  0  0  0  0  0  0  0
  132.4890  125.2980   59.7940 N   0  0  0  0  0  0  0  0  0  0  0  0
  130.4720  129.7470   59.6440 C   0  0  0  0  0  0  0  0  0  0  0  0
  130.4010  131.0470   59.1480 C   0  0  0  0  0  0  0  0  0  0  0  0
  1  2  1  0
  2  3  1  0
  3  4  1  0
  4  5  2  0
  4  6  1  0
  6  7  2  0
  7  8  1  0
  8  9  2  0
  9 10  1  0
 10 11  1  0
 11 12  2  0
 11 13  1  0
 13 14  1  0
 14 15  1  0
 15 16  2  0
 16 17  1  0
 17 18  1  0
 17 19  2  0
 19 20  1  0
 20 21  1  0
 20 22  2  0
 22 23  1  0
 23 24  1  0
  9 25  1  0
 25 26  2  0
 26  6  1  0
 23 13  2  0
 22 15  1  0
M  END
>  <Binding energies>  (37) 
[-6.29]

>  <Ligand effiencies>  (37) 
[-0.21689655172413794]

>  <Interactions>  (37) 
["V-A:TYR:531:CE2:4791, V-A:ILE:538:CB:4860, V-B:ALA:541:CB:9864, V-B:TYR:539:CE1:9847, V-A:ILE:369:CG2:3234, V-A:PRO:540:CD:4885, V-A:ILE:538:CG2:4861, V-A:PRO:540:CB:4883, V-A:ILE:369:CD1:3236, V-A:LEU:363:CA:3182, V-A:PRO:540:N:4882, V-A:ASP:366:CG:3210, V-A:LEU:475:CD2:4256, V-A:LEU:363:CD1:3186, V-B:TYR:539:CD1:9845, V-A:ASP:366:CB:3209, V-A:TYR:539:C:4865, H-A:ASP:366:OD2:3212, H-A:TYR:539:N:4868, H-A:ASP:366:OD1:3211, V-A:MET:535:CE:4833, V-A:PRO:482:CB:4323, V-A:PRO:482:CG:4324, V-A:LEU:363:CB:3184"]

$$$$
4ab_Grossjean_2025
     RDKit          3D

 25 27  0  0  0  0  0  0  0  0999 V2000
  128.0780  127.3950   73.1040 C   0  0  0  0  0  0  0  0  0  0  0  0
  128.9520  126.4610   72.4860 O   0  0  0  0  0  0  0  0  0  0  0  0
  129.8240  126.8530   71.5220 C   0  0  0  0  0  0  0  0  0  0  0  0
  131.0470  126.8990   71.6890 O   0  0  0  0  0  0  0  0  0  0  0  0
  129.1520  127.2330   70.2340 C   0  0  0  0  0  0  0  0  0  0  0  0
  129.8730  127.9600   69.2770 C   0  0  0  0  0  0  0  0  0  0  0  0
  129.2770  128.3290   68.0730 C   0  0  0  0  0  0  0  0  0  0  0  0
  127.9570  127.9730   67.7990 C   0  0  0  0  0  0  0  0  0  0  0  0
  127.4540  128.4050   66.5560 N   0  0  0  0  0  0  0  0  0  0  0  0
  126.3250  129.0950   66.2630 C   0  0  0  0  0  0  0  0  0  0  0  0
  125.4870  129.4400   67.0970 O   0  0  0  0  0  0  0  0  0  0  0  0
  126.1320  129.4010   64.8440 C   0  0  0  0  0  0  0  0  0  0  0  0
  124.6400  130.1660   64.2930 S   0  0  0  0  0  0  0  0  0  0  0  0
  125.1770  130.1270   62.6300 C   0  0  0  0  0  0  0  0  0  0  0  0
  124.4280  130.6020   61.6340 N   0  0  0  0  0  0  0  0  0  0  0  0
  124.9610  130.5100   60.3910 C   0  0  0  0  0  0  0  0  0  0  0  0
  124.0900  131.0500   59.2720 C   0  0  0  0  0  0  0  0  0  0  0  0
  126.2140  129.9630   60.1240 C   0  0  0  0  0  0  0  0  0  0  0  0
  126.9980  129.4650   61.1710 C   0  0  0  0  0  0  0  0  0  0  0  0
  128.3580  128.8760   60.8280 C   0  0  0  0  0  0  0  0  0  0  0  0
  126.4710  129.5410   62.4890 C   0  0  0  0  0  0  0  0  0  0  0  0
  126.9890  129.1300   63.7660 C   0  0  0  0  0  0  0  0  0  0  0  0
  128.2170  128.5310   63.8990 N   0  0  0  0  0  0  0  0  0  0  0  0
  127.2260  127.2500   68.7540 C   0  0  0  0  0  0  0  0  0  0  0  0
  127.8220  126.8840   69.9570 C   0  0  0  0  0  0  0  0  0  0  0  0
  1  2  1  0
  2  3  1  0
  3  4  2  0
  3  5  1  0
  5  6  2  0
  6  7  1  0
  7  8  2  0
  8  9  1  0
  9 10  1  0
 10 11  2  0
 10 12  1  0
 12 13  1  0
 13 14  1  0
 14 15  2  0
 15 16  1  0
 16 17  1  0
 16 18  2  0
 18 19  1  0
 19 20  1  0
 19 21  2  0
 21 22  1  0
 22 23  1  0
  8 24  1  0
 24 25  2  0
 25  5  1  0
 22 12  2  0
 21 14  1  0
M  END
>  <Binding energies>  (38) 
[-6.19]

>  <Ligand effiencies>  (38) 
[-0.22107142857142859]

>  <Interactions>  (38) 
["V-B:ILE:369:CG2:8208, V-B:ARG:545:CZ:9898, V-A:TYR:539:CE1:4873, V-B:ASP:366:CG:8184, H-B:TYR:484:OH:9319, V-B:ASP:366:CB:8183, H-B:ARG:545:NE:9896, V-B:ILE:369:CB:8207, V-B:GLU:543:CD:9880, V-B:GLU:543:CG:9879, H-A:GLU:543:OE2:4908, V-A:HIS:456:CE1:4066, H-B:GLU:543:OE1:9881, H-A:GLU:543:OE1:4907, H-B:GLU:543:OE2:9882, V-B:HIS:456:CE1:9040, V-A:GLU:543:CB:4904, V-A:TYR:539:CZ:4875, V-A:GLU:543:CD:4906, V-A:GLU:543:CG:4905, V-B:GLU:543:C:9874, V-B:GLY:544:CA:9886, V-A:GLU:543:C:4900, V-B:LYS:547:CE:9922, V-B:GLY:544:C:9884, V-A:HIS:456:CD2:4065, H-A:HIS:456:NE2:4067, V-B:GLY:454:CA:9020, V-B:ASP:366:CA:8181, V-B:ARG:545:CG:9894"]

$$$$
4ac_Grossjean_2025
     RDKit          3D

 23 25  0  0  0  0  0  0  0  0999 V2000
  130.9410  127.2060   72.3660 C   0  0  0  0  0  0  0  0  0  0  0  0
  129.9110  126.5470   71.6370 O   0  0  0  0  0  0  0  0  0  0  0  0
  129.5530  127.0260   70.3920 C   0  0  0  0  0  0  0  0  0  0  0  0
  128.2110  126.8950   70.0360 C   0  0  0  0  0  0  0  0  0  0  0  0
  127.7570  127.3490   68.8010 C   0  0  0  0  0  0  0  0  0  0  0  0
  128.6420  127.9520   67.9060 C   0  0  0  0  0  0  0  0  0  0  0  0
  128.0960  128.3690   66.6780 N   0  0  0  0  0  0  0  0  0  0  0  0
  127.6470  129.5930   66.3100 C   0  0  0  0  0  0  0  0  0  0  0  0
  127.6200  130.5710   67.0600 O   0  0  0  0  0  0  0  0  0  0  0  0
  127.1690  129.6980   64.9290 C   0  0  0  0  0  0  0  0  0  0  0  0
  125.8850  130.8340   64.5140 S   0  0  0  0  0  0  0  0  0  0  0  0
  125.9310  130.3460   62.8350 C   0  0  0  0  0  0  0  0  0  0  0  0
  125.1260  130.8870   61.9200 N   0  0  0  0  0  0  0  0  0  0  0  0
  125.2630  130.4200   60.6550 C   0  0  0  0  0  0  0  0  0  0  0  0
  124.3380  131.0480   59.6300 C   0  0  0  0  0  0  0  0  0  0  0  0
  126.1760  129.4320   60.2890 C   0  0  0  0  0  0  0  0  0  0  0  0
  127.0190  128.8660   61.2510 C   0  0  0  0  0  0  0  0  0  0  0  0
  127.9980  127.7930   60.8020 C   0  0  0  0  0  0  0  0  0  0  0  0
  126.9050  129.3330   62.5880 C   0  0  0  0  0  0  0  0  0  0  0  0
  127.5980  128.9830   63.7990 C   0  0  0  0  0  0  0  0  0  0  0  0
  128.5870  128.0320   63.8280 N   0  0  0  0  0  0  0  0  0  0  0  0
  129.9950  128.0770   68.2510 C   0  0  0  0  0  0  0  0  0  0  0  0
  130.4460  127.6200   69.4870 C   0  0  0  0  0  0  0  0  0  0  0  0
  1  2  1  0
  2  3  1  0
  3  4  2  0
  4  5  1  0
  5  6  2  0
  6  7  1  0
  7  8  1  0
  8  9  2  0
  8 10  1  0
 10 11  1  0
 11 12  1  0
 12 13  2  0
 13 14  1  0
 14 15  1  0
 14 16  2  0
 16 17  1  0
 17 18  1  0
 17 19  2  0
 19 20  1  0
 20 21  1  0
  6 22  1  0
 22 23  2  0
 23  3  1  0
 20 10  2  0
 19 12  1  0
M  END
>  <Binding energies>  (39) 
[-5.82]

>  <Ligand effiencies>  (39) 
[-0.22384615384615386]

>  <Interactions>  (39) 
["V-B:ILE:369:CG2:8208, V-A:TYR:539:CE1:4873, V-B:ASP:366:CG:8184, H-B:TYR:484:OH:9319, V-B:GLU:543:CD:9880, V-B:GLU:543:CG:9879, H-A:GLU:543:OE2:4908, V-A:HIS:456:CE1:4066, H-B:GLU:543:OE1:9881, H-A:GLU:543:OE1:4907, H-B:GLU:543:OE2:9882, V-B:HIS:456:CE1:9040, V-A:GLU:543:CB:4904, V-A:GLU:543:CD:4906, V-A:GLU:543:CG:4905, V-B:GLU:543:C:9874, V-A:GLU:543:C:4900, V-A:GLY:544:C:4910, V-A:HIS:456:CG:4063, V-B:GLY:544:C:9884, V-A:HIS:456:CD2:4065, V-A:GLY:544:CA:4912, H-B:HIS:456:NE2:9041, H-A:HIS:456:NE2:4067"]

$$$$
4ad_Grossjean_2025
     RDKit          3D

 21 23  0  0  0  0  0  0  0  0999 V2000
  128.3030  128.0020   62.7430 C   0  0  0  0  0  0  0  0  0  0  0  0
  128.4560  126.5540   62.3160 C   0  0  0  0  0  0  0  0  0  0  0  0
  127.3850  125.8490   61.7720 C   0  0  0  0  0  0  0  0  0  0  0  0
  127.5490  124.5130   61.3870 C   0  0  0  0  0  0  0  0  0  0  0  0
  126.3490  123.7840   60.8000 C   0  0  0  0  0  0  0  0  0  0  0  0
  128.8280  123.9220   61.5720 C   0  0  0  0  0  0  0  0  0  0  0  0
  129.3380  122.6060   61.2950 C   0  0  0  0  0  0  0  0  0  0  0  0
  128.5590  121.6220   60.7390 N   0  0  0  0  0  0  0  0  0  0  0  0
  130.6870  122.4320   61.6420 C   0  0  0  0  0  0  0  0  0  0  0  0
  131.5130  121.2290   61.5140 C   0  0  0  0  0  0  0  0  0  0  0  0
  132.6950  121.2400   61.8640 O   0  0  0  0  0  0  0  0  0  0  0  0
  130.8810  120.1420   61.0070 N   0  0  0  0  0  0  0  0  0  0  0  0
  131.3930  118.8620   60.7210 C   0  0  0  0  0  0  0  0  0  0  0  0
  132.7850  118.7680   60.6220 C   0  0  0  0  0  0  0  0  0  0  0  0
  133.3880  117.5430   60.3520 C   0  0  0  0  0  0  0  0  0  0  0  0
  132.6000  116.4070   60.1900 C   0  0  0  0  0  0  0  0  0  0  0  0
  131.2140  116.4840   60.3000 C   0  0  0  0  0  0  0  0  0  0  0  0
  130.6080  117.7080   60.5680 C   0  0  0  0  0  0  0  0  0  0  0  0
  131.3650  123.9110   62.3230 S   0  0  0  0  0  0  0  0  0  0  0  0
  129.8420  124.7510   62.1410 C   0  0  0  0  0  0  0  0  0  0  0  0
  129.6880  126.0240   62.5080 N   0  0  0  0  0  0  0  0  0  0  0  0
  1  2  1  0
  2  3  2  0
  3  4  1  0
  4  5  1  0
  4  6  2  0
  6  7  1  0
  7  8  1  0
  7  9  2  0
  9 10  1  0
 10 11  2  0
 10 12  1  0
 12 13  1  0
 13 14  2  0
 14 15  1  0
 15 16  2  0
 16 17  1  0
 17 18  2  0
  9 19  1  0
 19 20  1  0
 20 21  2  0
 21  2  1  0
 20  6  1  0
 18 13  1  0
M  END
>  <Binding energies>  (40) 
[-6.42]

>  <Ligand effiencies>  (40) 
[-0.2675]

>  <Interactions>  (40) 
["V-B:ALA:541:CB:9864, V-B:TYR:539:CE1:9847, V-A:LEU:475:CD2:4256, V-B:PRO:540:CA:9855, V-B:TYR:539:CD1:9845, V-B:PRO:540:N:9856, V-B:TYR:539:C:9839, V-B:GLU:543:CD:9880, V-B:PRO:540:C:9853, V-A:PRO:482:CB:4323, V-A:PRO:482:CG:4324, V-B:TYR:539:CB:9843, H-B:TYR:539:O:9840, V-B:ALA:541:CA:9862, V-A:LEU:373:CD1:3277, V-A:SER:385:CA:3404, V-A:SER:385:CB:3406, V-B:VAL:344:CG1:7972, H-B:PRO:540:O:9854, V-A:VAL:384:C:3394"]

$$$$
4ae_Grossjean_2025
     RDKit          3D

 22 24  0  0  0  0  0  0  0  0999 V2000
  126.4410  123.0590   56.4830 C   0  0  0  0  0  0  0  0  0  0  0  0
  127.0310  123.3450   57.8500 C   0  0  0  0  0  0  0  0  0  0  0  0
  127.8430  122.4150   58.5050 C   0  0  0  0  0  0  0  0  0  0  0  0
  128.3440  122.7440   59.7650 C   0  0  0  0  0  0  0  0  0  0  0  0
  128.0240  123.9780   60.3340 C   0  0  0  0  0  0  0  0  0  0  0  0
  127.2120  124.8660   59.6210 C   0  0  0  0  0  0  0  0  0  0  0  0
  126.9090  126.0840   60.2540 N   0  0  0  0  0  0  0  0  0  0  0  0
  127.7590  127.0160   60.7530 C   0  0  0  0  0  0  0  0  0  0  0  0
  128.9860  126.9100   60.7220 O   0  0  0  0  0  0  0  0  0  0  0  0
  127.1210  128.1890   61.3530 C   0  0  0  0  0  0  0  0  0  0  0  0
  125.9430  129.1290   60.4370 S   0  0  0  0  0  0  0  0  0  0  0  0
  125.7420  130.2560   61.7590 C   0  0  0  0  0  0  0  0  0  0  0  0
  124.9110  131.2960   61.6790 N   0  0  0  0  0  0  0  0  0  0  0  0
  124.8530  132.0960   62.7710 C   0  0  0  0  0  0  0  0  0  0  0  0
  123.9070  133.2780   62.6560 C   0  0  0  0  0  0  0  0  0  0  0  0
  125.5950  131.8810   63.9310 C   0  0  0  0  0  0  0  0  0  0  0  0
  126.4650  130.7870   64.0110 C   0  0  0  0  0  0  0  0  0  0  0  0
  127.2570  130.5960   65.2960 C   0  0  0  0  0  0  0  0  0  0  0  0
  126.5550  129.9260   62.8840 C   0  0  0  0  0  0  0  0  0  0  0  0
  127.3310  128.7420   62.6270 C   0  0  0  0  0  0  0  0  0  0  0  0
  128.1940  128.2150   63.5550 N   0  0  0  0  0  0  0  0  0  0  0  0
  126.7130  124.5490   58.3900 N   0  0  0  0  0  0  0  0  0  0  0  0
  1  2  1  0
  2  3  2  0
  3  4  1  0
  4  5  2  0
  5  6  1  0
  6  7  1  0
  7  8  1  0
  8  9  2  0
  8 10  1  0
 10 11  1  0
 11 12  1  0
 12 13  2  0
 13 14  1  0
 14 15  1  0
 14 16  2  0
 16 17  1  0
 17 18  1  0
 17 19  2  0
 19 20  1  0
 20 21  1  0
  6 22  2  0
 22  2  1  0
 20 10  2  0
 19 12  1  0
M  END
>  <Binding energies>  (41) 
[-6.01]

>  <Ligand effiencies>  (41) 
[-0.2404]

>  <Interactions>  (41) 
["V-B:ILE:369:CD1:8210, V-B:PRO:540:CA:9855, V-B:ILE:538:CG2:9835, V-B:ASP:366:CG:8184, V-B:LEU:475:CD2:9230, V-B:ILE:538:CB:9834, V-B:TYR:539:CD1:9845, V-B:PRO:540:N:9856, V-B:TYR:539:C:9839, V-B:GLU:543:CD:9880, H-A:GLU:543:OE2:4908, H-B:GLU:543:OE1:9881, H-A:GLU:543:OE1:4907, H-B:GLU:543:OE2:9882, V-A:GLU:543:CB:4904, V-A:GLU:543:CD:4906, V-B:GLY:454:CA:9020, H-B:ASP:366:OD2:8186, V-B:TYR:484:CZ:9318, V-B:TYR:539:CA:9841, H-B:ASP:366:OD1:8185"]

$$$$
4af_Grossjean_2025
     RDKit          3D

 21 23  0  0  0  0  0  0  0  0999 V2000
  124.5340  123.6050   56.2670 C   0  0  0  0  0  0  0  0  0  0  0  0
  125.1650  123.5710   57.6470 C   0  0  0  0  0  0  0  0  0  0  0  0
  124.3770  123.5420   58.7960 C   0  0  0  0  0  0  0  0  0  0  0  0
  124.9800  123.5130   60.0590 C   0  0  0  0  0  0  0  0  0  0  0  0
  124.0790  123.4840   61.2820 C   0  0  0  0  0  0  0  0  0  0  0  0
  126.4000  123.5160   60.1150 C   0  0  0  0  0  0  0  0  0  0  0  0
  127.3270  123.4940   61.2150 C   0  0  0  0  0  0  0  0  0  0  0  0
  126.9110  123.4620   62.5220 N   0  0  0  0  0  0  0  0  0  0  0  0
  128.6760  123.5080   60.8250 C   0  0  0  0  0  0  0  0  0  0  0  0
  129.8690  123.5240   61.6730 C   0  0  0  0  0  0  0  0  0  0  0  0
  130.7540  122.6800   61.5250 O   0  0  0  0  0  0  0  0  0  0  0  0
  129.9180  124.5220   62.5880 N   0  0  0  0  0  0  0  0  0  0  0  0
  130.8880  124.7880   63.5730 C   0  0  0  0  0  0  0  0  0  0  0  0
  130.6210  125.1950   64.8930 C   0  0  0  0  0  0  0  0  0  0  0  0
  131.6800  125.4440   65.7670 C   0  0  0  0  0  0  0  0  0  0  0  0
  132.9850  125.2840   65.2990 C   0  0  0  0  0  0  0  0  0  0  0  0
  133.2700  124.9000   64.0290 N   0  0  0  0  0  0  0  0  0  0  0  0
  132.2290  124.6630   63.1910 C   0  0  0  0  0  0  0  0  0  0  0  0
  128.8300  123.5510   59.0670 S   0  0  0  0  0  0  0  0  0  0  0  0
  127.0920  123.5470   58.8670 C   0  0  0  0  0  0  0  0  0  0  0  0
  126.5200  123.5730   57.6630 N   0  0  0  0  0  0  0  0  0  0  0  0
  1  2  1  0
  2  3  2  0
  3  4  1  0
  4  5  1  0
  4  6  2  0
  6  7  1  0
  7  8  1  0
  7  9  2  0
  9 10  1  0
 10 11  2  0
 10 12  1  0
 12 13  1  0
 13 14  2  0
 14 15  1  0
 15 16  2  0
 16 17  1  0
 17 18  2  0
  9 19  1  0
 19 20  1  0
 20 21  2  0
 21  2  1  0
 20  6  1  0
 18 13  1  0
M  END
>  <Binding energies>  (42) 
[-6.55]

>  <Ligand effiencies>  (42) 
[-0.27291666666666664]

>  <Interactions>  (42) 
["V-A:ARG:545:CZ:4924, V-B:ALA:541:CB:9864, V-B:TYR:539:CE1:9847, H-A:GLY:454:N:4047, H-A:TYR:484:OH:4345, V-B:TYR:531:CE2:9765, V-B:PRO:540:CA:9855, V-B:ILE:538:CG2:9835, V-B:PRO:540:CB:9857, V-B:LEU:363:CD1:8160, V-B:LEU:363:CA:8156, V-B:GLU:543:CD:9880, V-A:HIS:456:CE1:4066, H-B:GLU:543:OE1:9881, H-B:GLU:543:OE2:9882, V-B:TYR:531:CZ:9766, V-B:ASN:362:CB:8147, V-A:ARG:545:CD:4921, H-B:ALA:541:O:9861, V-B:ALA:541:CA:9862, V-B:ASN:362:C:8143"]

$$$$
4ag_Grossjean_2025
     RDKit          3D

 22 24  0  0  0  0  0  0  0  0999 V2000
  124.6470  123.7460   56.4010 C   0  0  0  0  0  0  0  0  0  0  0  0
  125.3900  123.6010   57.7160 C   0  0  0  0  0  0  0  0  0  0  0  0
  124.7370  123.7910   58.9330 C   0  0  0  0  0  0  0  0  0  0  0  0
  125.4410  123.6520   60.1340 C   0  0  0  0  0  0  0  0  0  0  0  0
  124.6840  123.8690   61.4360 C   0  0  0  0  0  0  0  0  0  0  0  0
  126.8190  123.3170   60.0600 C   0  0  0  0  0  0  0  0  0  0  0  0
  127.8200  123.1010   61.0700 C   0  0  0  0  0  0  0  0  0  0  0  0
  127.5430  123.2010   62.4100 N   0  0  0  0  0  0  0  0  0  0  0  0
  129.0860  122.7860   60.5570 C   0  0  0  0  0  0  0  0  0  0  0  0
  130.3180  122.4970   61.2920 C   0  0  0  0  0  0  0  0  0  0  0  0
  131.2410  121.8640   60.7750 O   0  0  0  0  0  0  0  0  0  0  0  0
  130.3700  122.9460   62.5640 N   0  0  0  0  0  0  0  0  0  0  0  0
  131.5080  122.7950   63.4700 C   0  0  0  0  0  0  0  0  0  0  0  0
  131.6710  123.9460   64.4560 C   0  0  0  0  0  0  0  0  0  0  0  0
  132.8630  124.6770   64.4790 C   0  0  0  0  0  0  0  0  0  0  0  0
  133.0060  125.7460   65.3610 C   0  0  0  0  0  0  0  0  0  0  0  0
  131.9530  126.0860   66.2090 C   0  0  0  0  0  0  0  0  0  0  0  0
  130.7580  125.3720   66.1800 C   0  0  0  0  0  0  0  0  0  0  0  0
  130.6140  124.3040   65.2970 C   0  0  0  0  0  0  0  0  0  0  0  0
  129.0700  122.7370   58.7940 S   0  0  0  0  0  0  0  0  0  0  0  0
  127.3700  123.1480   58.7540 C   0  0  0  0  0  0  0  0  0  0  0  0
  126.7010  123.2790   57.6070 N   0  0  0  0  0  0  0  0  0  0  0  0
  1  2  1  0
  2  3  2  0
  3  4  1  0
  4  5  1  0
  4  6  2  0
  6  7  1  0
  7  8  1  0
  7  9  2  0
  9 10  1  0
 10 11  2  0
 10 12  1  0
 12 13  1  0
 13 14  1  0
 14 15  2  0
 15 16  1  0
 16 17  2  0
 17 18  1  0
 18 19  2  0
  9 20  1  0
 20 21  1  0
 21 22  2  0
 22  2  1  0
 21  6  1  0
 19 14  1  0
M  END
>  <Binding energies>  (43) 
[-6.82]

>  <Ligand effiencies>  (43) 
[-0.2728]

>  <Interactions>  (43) 
["V-A:ARG:545:CZ:4924, V-A:GLY:454:CA:4046, V-B:ALA:541:CB:9864, V-B:TYR:539:CE1:9847, V-A:LEU:475:CD2:4256, V-B:TYR:531:CE2:9765, V-B:PRO:540:CA:9855, V-B:ILE:538:CG2:9835, V-B:ASP:366:CG:8184, V-B:PRO:540:CB:9857, V-B:LEU:363:CD1:8160, V-B:TYR:539:CD1:9845, V-B:PRO:540:N:9856, V-B:TYR:539:CG:9844, V-B:TYR:539:C:9839, V-B:GLU:543:CD:9880, V-B:GLU:543:CB:9878, V-A:HIS:456:CE1:4066, H-B:GLU:543:OE1:9881, V-B:TYR:539:CZ:9849, V-B:TYR:531:CZ:9766, V-A:TYR:484:CZ:4344, V-A:TYR:484:CE2:4343, V-B:ASN:362:CB:8147, V-A:ARG:545:CG:4920, V-A:ARG:545:CD:4921, H-B:ALA:541:O:9861, V-B:ALA:541:CA:9862"]

$$$$
4ah_Grossjean_2025
     RDKit          3D

 28 30  0  0  0  0  0  0  0  0999 V2000
  129.9510  121.0550   61.4680 C   0  0  0  0  0  0  0  0  0  0  0  0
  131.3350  121.1380   61.7910 O   0  0  0  0  0  0  0  0  0  0  0  0
  131.9950  122.3460   61.6440 C   0  0  0  0  0  0  0  0  0  0  0  0
  132.2180  122.9710   60.4070 C   0  0  0  0  0  0  0  0  0  0  0  0
  132.8940  124.1890   60.3330 C   0  0  0  0  0  0  0  0  0  0  0  0
  133.0860  124.8760   58.9850 C   0  0  0  0  0  0  0  0  0  0  0  0
  132.0020  125.7950   58.6370 N   0  0  0  0  0  0  0  0  0  0  0  0
  131.6880  126.1950   57.3870 C   0  0  0  0  0  0  0  0  0  0  0  0
  132.3290  125.8430   56.3960 O   0  0  0  0  0  0  0  0  0  0  0  0
  130.5570  127.1160   57.2750 C   0  0  0  0  0  0  0  0  0  0  0  0
  128.9690  126.5150   56.7960 S   0  0  0  0  0  0  0  0  0  0  0  0
  128.2900  128.1260   56.8610 C   0  0  0  0  0  0  0  0  0  0  0  0
  127.0080  128.3640   56.5840 N   0  0  0  0  0  0  0  0  0  0  0  0
  126.6090  129.6550   56.6730 C   0  0  0  0  0  0  0  0  0  0  0  0
  125.1470  129.9040   56.3520 C   0  0  0  0  0  0  0  0  0  0  0  0
  127.4530  130.7040   57.0300 C   0  0  0  0  0  0  0  0  0  0  0  0
  128.8000  130.4530   57.3170 C   0  0  0  0  0  0  0  0  0  0  0  0
  129.6830  131.6310   57.7010 C   0  0  0  0  0  0  0  0  0  0  0  0
  129.2560  129.1100   57.2330 C   0  0  0  0  0  0  0  0  0  0  0  0
  130.5440  128.5070   57.4510 C   0  0  0  0  0  0  0  0  0  0  0  0
  131.6470  129.2410   57.8080 N   0  0  0  0  0  0  0  0  0  0  0  0
  133.3280  124.8070   61.5060 C   0  0  0  0  0  0  0  0  0  0  0  0
  133.1250  124.2030   62.7570 C   0  0  0  0  0  0  0  0  0  0  0  0
  133.5420  124.7500   63.9560 O   0  0  0  0  0  0  0  0  0  0  0  0
  132.5940  125.4100   64.7890 C   0  0  0  0  0  0  0  0  0  0  0  0
  132.4620  122.9680   62.8110 C   0  0  0  0  0  0  0  0  0  0  0  0
  132.2380  122.3740   64.0300 O   0  0  0  0  0  0  0  0  0  0  0  0
  130.9000  122.4890   64.4930 C   0  0  0  0  0  0  0  0  0  0  0  0
  1  2  1  0
  2  3  1  0
  3  4  2  0
  4  5  1  0
  5  6  1  0
  6  7  1  0
  7  8  1  0
  8  9  2  0
  8 10  1  0
 10 11  1  0
 11 12  1  0
 12 13  2  0
 13 14  1  0
 14 15  1  0
 14 16  2  0
 16 17  1  0
 17 18  1  0
 17 19  2  0
 19 20  1  0
 20 21  1  0
  5 22  2  0
 22 23  1  0
 23 24  1  0
 24 25  1  0
 23 26  2  0
 26 27  1  0
 27 28  1  0
 26  3  1  0
 20 10  2  0
 19 12  1  0
M  END
>  <Binding energies>  (44) 
[-6.27]

>  <Ligand effiencies>  (44) 
[-0.20225806451612902]

>  <Interactions>  (44) 
["V-A:ARG:545:CZ:4924, V-B:ALA:541:CB:9864, V-B:TYR:539:CE1:9847, H-A:GLY:454:N:4047, H-A:TYR:484:OH:4345, V-A:ASP:366:CG:3210, V-A:LEU:475:CD2:4256, V-A:TYR:539:CE1:4873, V-B:TYR:539:CD1:9845, H-B:TYR:531:OH:9767, V-A:ASP:366:CA:3207, V-A:ASP:366:CB:3209, V-A:TYR:539:CZ:4875, V-B:TYR:531:CE1:9764, V-B:TYR:531:CZ:9766, V-B:ASN:370:CB:8216, H-A:TYR:531:OH:4793, V-A:TYR:531:CZ:4792, H-B:TYR:539:OH:9850, H-A:ASP:366:OD2:3212, H-A:ASP:366:OD1:3211, V-B:MET:535:CE:9807, V-A:MET:535:CE:4833, V-A:TYR:484:CZ:4344, V-A:TYR:484:CE2:4343, V-B:ASN:370:CG:8217"]

$$$$
4ai_Grossjean_2025
     RDKit          3D

 20 22  0  0  0  0  0  0  0  0999 V2000
  124.3200  123.2430   56.6770 C   0  0  0  0  0  0  0  0  0  0  0  0
  125.2430  123.3400   57.8780 C   0  0  0  0  0  0  0  0  0  0  0  0
  124.7330  123.5440   59.1590 C   0  0  0  0  0  0  0  0  0  0  0  0
  125.6020  123.6250   60.2530 C   0  0  0  0  0  0  0  0  0  0  0  0
  124.9980  123.8460   61.6310 C   0  0  0  0  0  0  0  0  0  0  0  0
  126.9960  123.4920   60.0050 C   0  0  0  0  0  0  0  0  0  0  0  0
  128.1420  123.5220   60.8720 C   0  0  0  0  0  0  0  0  0  0  0  0
  128.0300  123.7130   62.2270 N   0  0  0  0  0  0  0  0  0  0  0  0
  129.3650  123.3330   60.2100 C   0  0  0  0  0  0  0  0  0  0  0  0
  130.7150  123.3160   60.7760 C   0  0  0  0  0  0  0  0  0  0  0  0
  131.5040  122.4120   60.4940 O   0  0  0  0  0  0  0  0  0  0  0  0
  131.0140  124.3550   61.5960 N   0  0  0  0  0  0  0  0  0  0  0  0
  132.2140  124.5920   62.2540 C   0  0  0  0  0  0  0  0  0  0  0  0
  133.4490  124.6100   61.6050 C   0  0  0  0  0  0  0  0  0  0  0  0
  134.3690  124.8710   62.5940 C   0  0  0  0  0  0  0  0  0  0  0  0
  133.7230  125.0040   63.7770 O   0  0  0  0  0  0  0  0  0  0  0  0
  132.3580  124.8260   63.5490 N   0  0  0  0  0  0  0  0  0  0  0  0
  129.1230  123.1360   58.4720 S   0  0  0  0  0  0  0  0  0  0  0  0
  127.3890  123.2870   58.6480 C   0  0  0  0  0  0  0  0  0  0  0  0
  126.5640  123.2110   57.6030 N   0  0  0  0  0  0  0  0  0  0  0  0
  1  2  1  0
  2  3  2  0
  3  4  1  0
  4  5  1  0
  4  6  2  0
  6  7  1  0
  7  8  1  0
  7  9  2  0
  9 10  1  0
 10 11  2  0
 10 12  1  0
 12 13  1  0
 13 14  1  0
 14 15  2  0
 15 16  1  0
 16 17  1  0
  9 18  1  0
 18 19  1  0
 19 20  2  0
 20  2  1  0
 19  6  1  0
 17 13  2  0
M  END
>  <Binding energies>  (45) 
[-6.26]

>  <Ligand effiencies>  (45) 
[-0.27217391304347827]

>  <Interactions>  (45) 
["V-A:ARG:545:CZ:4924, H-A:ARG:545:NE:4922, V-B:ALA:541:CB:9864, V-B:TYR:539:CE1:9847, V-A:ILE:369:CD1:3236, H-A:GLY:454:N:4047, V-B:TYR:531:CE2:9765, V-A:GLY:453:C:4039, V-B:PRO:540:CA:9855, V-B:ILE:538:CG2:9835, V-B:PRO:540:CB:9857, H-A:ARG:545:NH2:4926, V-B:PRO:540:CD:9859, V-B:LEU:363:CD1:8160, V-B:TYR:539:CD1:9845, V-B:PRO:540:N:9856, V-B:TYR:539:C:9839, V-B:GLU:543:CD:9880, H-B:GLU:543:OE1:9881, V-B:TYR:539:CZ:9849, H-B:GLU:543:OE2:9882, V-B:ASN:362:CB:8147, H-B:ALA:541:O:9861, V-A:GLY:453:CA:4041"]

$$$$
4aj_Grossjean_2025
     RDKit          3D

 20 22  0  0  0  0  0  0  0  0999 V2000
  135.0980  124.9950   62.1710 C   0  0  0  0  0  0  0  0  0  0  0  0
  133.9190  124.1080   61.8150 C   0  0  0  0  0  0  0  0  0  0  0  0
  134.0390  122.7210   61.8160 C   0  0  0  0  0  0  0  0  0  0  0  0
  132.9400  121.9220   61.4790 C   0  0  0  0  0  0  0  0  0  0  0  0
  133.1220  120.4120   61.4940 C   0  0  0  0  0  0  0  0  0  0  0  0
  131.7240  122.5750   61.1450 C   0  0  0  0  0  0  0  0  0  0  0  0
  130.4310  122.0780   60.7570 C   0  0  0  0  0  0  0  0  0  0  0  0
  130.1670  120.7370   60.6420 N   0  0  0  0  0  0  0  0  0  0  0  0
  129.4810  123.0840   60.5190 C   0  0  0  0  0  0  0  0  0  0  0  0
  128.0850  122.9380   60.1030 C   0  0  0  0  0  0  0  0  0  0  0  0
  127.1960  122.7490   60.9370 O   0  0  0  0  0  0  0  0  0  0  0  0
  127.8610  123.0400   58.7700 N   0  0  0  0  0  0  0  0  0  0  0  0
  126.6370  122.9520   58.1210 C   0  0  0  0  0  0  0  0  0  0  0  0
  126.3520  122.2880   57.0210 N   0  0  0  0  0  0  0  0  0  0  0  0
  125.0830  122.4220   56.6890 C   0  0  0  0  0  0  0  0  0  0  0  0
  124.3060  123.2130   57.5310 C   0  0  0  0  0  0  0  0  0  0  0  0
  125.3040  123.8080   58.8260 S   0  0  0  0  0  0  0  0  0  0  0  0
  130.1780  124.6870   60.7560 S   0  0  0  0  0  0  0  0  0  0  0  0
  131.7300  124.0030   61.1840 C   0  0  0  0  0  0  0  0  0  0  0  0
  132.7750  124.7660   61.5040 N   0  0  0  0  0  0  0  0  0  0  0  0
  1  2  1  0
  2  3  2  0
  3  4  1  0
  4  5  1  0
  4  6  2  0
  6  7  1  0
  7  8  1  0
  7  9  2  0
  9 10  1  0
 10 11  2  0
 10 12  1  0
 12 13  1  0
 13 14  2  0
 14 15  1  0
 15 16  2  0
 16 17  1  0
  9 18  1  0
 18 19  1  0
 19 20  2  0
 20  2  1  0
 19  6  1  0
 17 13  1  0
M  END
>  <Binding energies>  (46) 
[-5.92]

>  <Ligand effiencies>  (46) 
[-0.2573913043478261]

>  <Interactions>  (46) 
["V-A:ARG:545:CZ:4924, V-A:GLY:454:CA:4046, V-B:TYR:539:CE1:9847, V-A:ILE:369:CG2:3234, V-A:ILE:369:CD1:3236, V-A:LEU:475:CD2:4256, V-A:GLY:453:C:4039, V-B:PRO:540:CA:9855, V-B:ILE:538:CG2:9835, V-B:PRO:540:CB:9857, V-B:PRO:540:CD:9859, V-B:ILE:538:CB:9834, V-B:LEU:363:CD1:8160, V-B:TYR:539:CD1:9845, V-B:LEU:363:CA:8156, V-B:PRO:540:N:9856, V-B:TYR:539:CG:9844, V-B:TYR:539:C:9839, H-B:ALA:541:N:9863, V-B:PRO:540:CG:9858, H-B:TYR:539:N:9842, H-B:TYR:539:O:9840, V-A:SER:385:CA:3404, V-A:GLY:453:CA:4041"]

$$$$
4ak_Grossjean_2025
     RDKit          3D

 25 26  0  0  0  0  0  0  0  0999 V2000
  123.6400  130.2640   62.7530 C   0  0  0  0  0  0  0  0  0  0  0  0
  123.9900  129.9780   64.0980 O   0  0  0  0  0  0  0  0  0  0  0  0
  125.3190  130.3600   64.4310 C   0  0  0  0  0  0  0  0  0  0  0  0
  126.0940  129.1340   64.9290 C   0  0  0  0  0  0  0  0  0  0  0  0
  126.1420  129.1510   66.3500 O   0  0  0  0  0  0  0  0  0  0  0  0
  127.3160  129.7550   66.8770 C   0  0  0  0  0  0  0  0  0  0  0  0
  128.3820  128.6770   67.1050 C   0  0  0  0  0  0  0  0  0  0  0  0
  127.8160  127.6070   67.8510 O   0  0  0  0  0  0  0  0  0  0  0  0
  128.7780  126.7100   68.3900 C   0  0  0  0  0  0  0  0  0  0  0  0
  130.1880  127.1610   67.9670 C   0  0  0  0  0  0  0  0  0  0  0  0
  130.6650  126.5210   66.7410 N   0  0  0  0  0  0  0  0  0  0  0  0
  130.6870  125.1920   66.5130 C   0  0  0  0  0  0  0  0  0  0  0  0
  130.2720  124.3740   67.3350 O   0  0  0  0  0  0  0  0  0  0  0  0
  131.2240  124.7700   65.2210 C   0  0  0  0  0  0  0  0  0  0  0  0
  132.5030  125.7020   64.4420 S   0  0  0  0  0  0  0  0  0  0  0  0
  132.5500  124.5940   63.0890 C   0  0  0  0  0  0  0  0  0  0  0  0
  133.3850  124.7670   62.0640 N   0  0  0  0  0  0  0  0  0  0  0  0
  133.3180  123.8380   61.0790 C   0  0  0  0  0  0  0  0  0  0  0  0
  134.2770  124.0510   59.9220 C   0  0  0  0  0  0  0  0  0  0  0  0
  132.4470  122.7500   61.0970 C   0  0  0  0  0  0  0  0  0  0  0  0
  131.5720  122.5710   62.1750 C   0  0  0  0  0  0  0  0  0  0  0  0
  130.6380  121.3720   62.1470 C   0  0  0  0  0  0  0  0  0  0  0  0
  131.6120  123.5270   63.2260 C   0  0  0  0  0  0  0  0  0  0  0  0
  130.8730  123.6480   64.4540 C   0  0  0  0  0  0  0  0  0  0  0  0
  129.9130  122.7420   64.8250 N   0  0  0  0  0  0  0  0  0  0  0  0
  1  2  1  0
  2  3  1  0
  3  4  1  0
  4  5  1  0
  5  6  1  0
  6  7  1  0
  7  8  1  0
  8  9  1  0
  9 10  1  0
 10 11  1  0
 11 12  1  0
 12 13  2  0
 12 14  1  0
 14 15  1  0
 15 16  1  0
 16 17  2  0
 17 18  1  0
 18 19  1  0
 18 20  2  0
 20 21  1  0
 21 22  1  0
 21 23  2  0
 23 24  1  0
 24 25  1  0
 24 14  2  0
 23 16  1  0
M  END
>  <Binding energies>  (47) 
[-5.72]

>  <Ligand effiencies>  (47) 
[-0.20428571428571426]

>  <Interactions>  (47) 
["V-A:ARG:545:CZ:4924, H-B:ARG:545:NH2:9900, V-B:ALA:541:CB:9864, V-B:TYR:539:CE1:9847, V-A:ILE:369:CG2:3234, V-B:ARG:545:CZ:9898, V-B:GLY:453:CA:9015, V-A:ILE:369:CD1:3236, H-A:TYR:484:OH:4345, V-B:ILE:369:CD1:8210, V-B:GLY:453:C:9013, V-A:ASP:366:CG:3210, V-A:LEU:475:CD2:4256, H-B:TYR:484:OH:9319, H-B:GLY:454:N:9021, H-B:ARG:545:NE:9896, V-B:GLU:543:CD:9880, V-B:GLU:543:CG:9879, H-A:GLU:543:OE2:4908, V-B:GLU:543:CB:9878, V-A:HIS:456:CE1:4066, V-A:ASP:366:CA:3207, H-B:GLU:543:OE1:9881, V-B:HIS:456:CE1:9040, V-A:GLU:543:CB:4904, V-A:GLU:543:CD:4906, V-A:GLU:543:CG:4905, V-B:GLU:543:C:9874, H-A:HIS:456:NE2:4067, V-A:ILE:369:CB:3233, H-B:ARG:545:NH1:9899, V-B:TYR:484:CE2:9317, V-A:TYR:484:CZ:4344, V-A:TYR:484:CE2:4343, V-B:TYR:484:CZ:9318, V-A:ILE:369:CG1:3235"]

$$$$
4al_Grossjean_2025
     RDKit          3D

 16 17  0  0  0  0  0  0  0  0999 V2000
  132.1360  117.0080   60.2110 C   0  0  0  0  0  0  0  0  0  0  0  0
  132.0170  118.4170   60.0780 O   0  0  0  0  0  0  0  0  0  0  0  0
  133.0660  119.2340   60.3520 C   0  0  0  0  0  0  0  0  0  0  0  0
  134.2270  119.0070   60.0020 O   0  0  0  0  0  0  0  0  0  0  0  0
  132.6740  120.4370   61.1180 C   0  0  0  0  0  0  0  0  0  0  0  0
  133.9070  121.4020   61.9350 S   0  0  0  0  0  0  0  0  0  0  0  0
  132.6980  122.5150   62.5330 C   0  0  0  0  0  0  0  0  0  0  0  0
  133.0190  123.5650   63.2890 N   0  0  0  0  0  0  0  0  0  0  0  0
  131.9870  124.3500   63.6870 C   0  0  0  0  0  0  0  0  0  0  0  0
  132.3750  125.5400   64.5470 C   0  0  0  0  0  0  0  0  0  0  0  0
  130.6570  124.1110   63.3500 C   0  0  0  0  0  0  0  0  0  0  0  0
  130.3230  123.0080   62.5570 C   0  0  0  0  0  0  0  0  0  0  0  0
  128.8580  122.7880   62.2160 C   0  0  0  0  0  0  0  0  0  0  0  0
  131.3780  122.1620   62.1210 C   0  0  0  0  0  0  0  0  0  0  0  0
  131.3960  120.9730   61.3150 C   0  0  0  0  0  0  0  0  0  0  0  0
  130.2570  120.4200   60.7890 N   0  0  0  0  0  0  0  0  0  0  0  0
  1  2  1  0
  2  3  1  0
  3  4  2  0
  3  5  1  0
  5  6  1  0
  6  7  1  0
  7  8  2  0
  8  9  1  0
  9 10  1  0
  9 11  2  0
 11 12  1  0
 12 13  1  0
 12 14  2  0
 14 15  1  0
 15 16  1  0
 15  5  2  0
 14  7  1  0
M  END
>  <Binding energies>  (48) 
[-4.88]

>  <Ligand effiencies>  (48) 
[-0.2711111111111111]

>  <Interactions>  (48) 
["V-A:ARG:545:CZ:4924, V-A:GLY:454:CA:4046, V-B:ALA:541:CB:9864, V-B:TYR:539:CE1:9847, V-A:ILE:369:CG2:3234, V-A:ILE:369:CD1:3236, H-A:GLY:454:N:4047, H-A:TYR:484:OH:4345, V-A:LEU:475:CD2:4256, V-B:TYR:539:CD1:9845, V-B:TYR:539:C:9839, H-B:TYR:539:O:9840, V-B:ALA:541:CA:9862, V-A:LEU:373:CD1:3277, V-A:SER:385:CA:3404, V-A:SER:385:C:3402"]

$$$$
4bc_Grossjean_2025
     RDKit          3D

 26 28  0  0  0  0  0  0  0  0999 V2000
  129.1400  126.0410   72.5520 C   0  0  0  0  0  0  0  0  0  0  0  0
  130.0830  126.7130   71.7220 O   0  0  0  0  0  0  0  0  0  0  0  0
  129.6890  127.1490   70.4720 C   0  0  0  0  0  0  0  0  0  0  0  0
  128.3240  127.0890   70.1930 C   0  0  0  0  0  0  0  0  0  0  0  0
  127.8330  127.5070   68.9590 C   0  0  0  0  0  0  0  0  0  0  0  0
  128.7050  128.0000   67.9860 C   0  0  0  0  0  0  0  0  0  0  0  0
  128.1210  128.3830   66.7650 N   0  0  0  0  0  0  0  0  0  0  0  0
  127.6420  129.5940   66.3870 C   0  0  0  0  0  0  0  0  0  0  0  0
  127.6190  130.5830   67.1190 O   0  0  0  0  0  0  0  0  0  0  0  0
  127.1280  129.6670   65.0150 C   0  0  0  0  0  0  0  0  0  0  0  0
  125.8190  130.7770   64.6170 S   0  0  0  0  0  0  0  0  0  0  0  0
  125.8290  130.2620   62.9470 C   0  0  0  0  0  0  0  0  0  0  0  0
  124.9900  130.7850   62.0530 N   0  0  0  0  0  0  0  0  0  0  0  0
  125.0920  130.3060   60.7920 C   0  0  0  0  0  0  0  0  0  0  0  0
  124.1310  130.9180   59.7880 C   0  0  0  0  0  0  0  0  0  0  0  0
  126.0030  129.3250   60.4070 C   0  0  0  0  0  0  0  0  0  0  0  0
  126.8890  128.7710   61.3440 C   0  0  0  0  0  0  0  0  0  0  0  0
  127.8720  127.6930   60.8730 C   0  0  0  0  0  0  0  0  0  0  0  0
  127.7790  127.4380   59.5660 F   0  0  0  0  0  0  0  0  0  0  0  0
  129.1210  128.0870   61.1160 F   0  0  0  0  0  0  0  0  0  0  0  0
  127.6350  126.5520   61.5200 F   0  0  0  0  0  0  0  0  0  0  0  0
  126.8090  129.2560   62.6830 C   0  0  0  0  0  0  0  0  0  0  0  0
  127.5380  128.9390   63.8880 C   0  0  0  0  0  0  0  0  0  0  0  0
  128.5430  128.0060   63.9200 N   0  0  0  0  0  0  0  0  0  0  0  0
  130.0810  128.0510   68.2540 C   0  0  0  0  0  0  0  0  0  0  0  0
  130.5680  127.6320   69.4890 C   0  0  0  0  0  0  0  0  0  0  0  0
  1  2  1  0
  2  3  1  0
  3  4  2  0
  4  5  1  0
  5  6  2  0
  6  7  1  0
  7  8  1  0
  8  9  2  0
  8 10  1  0
 10 11  1  0
 11 12  1  0
 12 13  2  0
 13 14  1  0
 14 15  1  0
 14 16  2  0
 16 17  1  0
 17 18  1  0
 18 19  1  0
 18 20  1  0
 18 21  1  0
 17 22  2  0
 22 23  1  0
 23 24  1  0
  6 25  1  0
 25 26  2  0
 26  3  1  0
 23 10  2  0
 22 12  1  0
M  END
>  <Binding energies>  (49) 
[-5.39]

>  <Ligand effiencies>  (49) 
[-0.18586206896551724]

>  <Interactions>  (49) 
["V-B:ILE:369:CG2:8208, V-A:TYR:539:CE1:4873, V-B:ASP:366:CG:8184, H-B:TYR:484:OH:9319, V-B:ASP:366:CB:8183, V-B:GLU:543:CD:9880, V-B:GLU:543:CG:9879, H-A:GLU:543:OE2:4908, V-A:HIS:456:CE1:4066, H-B:GLU:543:OE1:9881, H-A:GLU:543:OE1:4907, H-B:GLU:543:OE2:9882, V-B:HIS:456:CE1:9040, V-A:GLU:543:CB:4904, V-A:GLU:543:CD:4906, V-A:GLU:543:CG:4905, V-B:GLU:543:C:9874, V-B:GLY:544:CA:9886, V-A:GLU:543:C:4900, V-B:LYS:547:CE:9922, V-A:GLY:544:C:4910, V-B:GLY:544:C:9884, V-A:HIS:456:CD2:4065, H-B:HIS:456:NE2:9041, H-A:HIS:456:NE2:4067, V-B:ASP:366:CA:8181"]

$$$$
4bf_Grossjean_2025
     RDKit          3D

 24 26  0  0  0  0  0  0  0  0999 V2000
  130.2150  120.7200   61.5080 C   0  0  0  0  0  0  0  0  0  0  0  0
  130.1210  122.1870   61.8870 C   0  0  0  0  0  0  0  0  0  0  0  0
  131.1380  122.8090   62.6070 C   0  0  0  0  0  0  0  0  0  0  0  0
  131.0370  124.1650   62.9530 C   0  0  0  0  0  0  0  0  0  0  0  0
  132.1800  124.8050   63.7480 C   0  0  0  0  0  0  0  0  0  0  0  0
  131.7670  125.3940   64.8740 F   0  0  0  0  0  0  0  0  0  0  0  0
  133.0710  123.8740   64.0890 F   0  0  0  0  0  0  0  0  0  0  0  0
  132.7790  125.7380   63.0070 F   0  0  0  0  0  0  0  0  0  0  0  0
  129.8620  124.8590   62.5380 C   0  0  0  0  0  0  0  0  0  0  0  0
  129.4150  126.2200   62.7050 C   0  0  0  0  0  0  0  0  0  0  0  0
  130.1550  127.1640   63.3710 N   0  0  0  0  0  0  0  0  0  0  0  0
  128.1640  126.4890   62.1260 C   0  0  0  0  0  0  0  0  0  0  0  0
  127.4050  127.7440   62.1330 C   0  0  0  0  0  0  0  0  0  0  0  0
  126.9170  128.1880   61.0930 O   0  0  0  0  0  0  0  0  0  0  0  0
  127.2790  128.3390   63.3450 N   0  0  0  0  0  0  0  0  0  0  0  0
  126.6630  129.5580   63.6850 C   0  0  0  0  0  0  0  0  0  0  0  0
  127.2310  130.8330   63.5150 C   0  0  0  0  0  0  0  0  0  0  0  0
  126.5160  131.9660   63.9100 C   0  0  0  0  0  0  0  0  0  0  0  0
  125.2500  131.7950   64.4710 C   0  0  0  0  0  0  0  0  0  0  0  0
  124.6830  130.5760   64.6520 N   0  0  0  0  0  0  0  0  0  0  0  0
  125.3910  129.4840   64.2640 C   0  0  0  0  0  0  0  0  0  0  0  0
  127.4970  125.0530   61.3540 S   0  0  0  0  0  0  0  0  0  0  0  0
  128.8940  124.1040   61.8050 C   0  0  0  0  0  0  0  0  0  0  0  0
  128.9960  122.8170   61.4770 N   0  0  0  0  0  0  0  0  0  0  0  0
  1  2  1  0
  2  3  2  0
  3  4  1  0
  4  5  1  0
  5  6  1  0
  5  7  1  0
  5  8  1  0
  4  9  2  0
  9 10  1  0
 10 11  1  0
 10 12  2  0
 12 13  1  0
 13 14  2  0
 13 15  1  0
 15 16  1  0
 16 17  2  0
 17 18  1  0
 18 19  2  0
 19 20  1  0
 20 21  2  0
 12 22  1  0
 22 23  1  0
 23 24  2  0
 24  2  1  0
 23  9  1  0
 21 16  1  0
M  END
>  <Binding energies>  (50) 
[-5.73]

>  <Ligand effiencies>  (50) 
[-0.21222222222222223]

>  <Interactions>  (50) 
["V-A:ARG:545:CZ:4924, H-B:ARG:545:NH2:9900, V-A:GLY:454:CA:4046, V-B:ALA:541:CB:9864, V-B:ARG:545:CZ:9898, V-A:LEU:475:CD2:4256, H-B:TYR:484:OH:9319, V-B:LEU:475:CD2:9230, V-B:TYR:539:CD1:9845, H-B:GLY:454:N:9021, V-B:GLU:543:CD:9880, H-A:GLU:543:OE2:4908, H-B:GLU:543:OE1:9881, H-A:GLU:543:OE1:4907, H-B:GLU:543:OE2:9882, V-A:GLU:543:CD:4906, V-B:GLY:454:CA:9020"]

$$$$
4bh_Grossjean_2025
     RDKit          3D

 31 33  0  0  0  0  0  0  0  0999 V2000
  126.3460  131.3650   59.9690 C   0  0  0  0  0  0  0  0  0  0  0  0
  127.4610  132.1560   59.5750 O   0  0  0  0  0  0  0  0  0  0  0  0
  128.7360  131.6300   59.6720 C   0  0  0  0  0  0  0  0  0  0  0  0
  129.2630  130.6840   58.7790 C   0  0  0  0  0  0  0  0  0  0  0  0
  130.5600  130.1920   58.9380 C   0  0  0  0  0  0  0  0  0  0  0  0
  131.1310  129.2000   57.9320 C   0  0  0  0  0  0  0  0  0  0  0  0
  131.3480  127.8640   58.4880 N   0  0  0  0  0  0  0  0  0  0  0  0
  131.1050  126.7020   57.8480 C   0  0  0  0  0  0  0  0  0  0  0  0
  130.6240  126.6580   56.7140 O   0  0  0  0  0  0  0  0  0  0  0  0
  131.4020  125.4810   58.5980 C   0  0  0  0  0  0  0  0  0  0  0  0
  133.0570  124.8860   58.6910 S   0  0  0  0  0  0  0  0  0  0  0  0
  132.5510  123.5030   59.6350 C   0  0  0  0  0  0  0  0  0  0  0  0
  133.4270  122.5940   60.0590 N   0  0  0  0  0  0  0  0  0  0  0  0
  132.9170  121.5700   60.7830 C   0  0  0  0  0  0  0  0  0  0  0  0
  133.9320  120.5440   61.2550 C   0  0  0  0  0  0  0  0  0  0  0  0
  131.5660  121.4360   61.0900 C   0  0  0  0  0  0  0  0  0  0  0  0
  130.6380  122.3900   60.6440 C   0  0  0  0  0  0  0  0  0  0  0  0
  129.1620  122.2030   61.0090 C   0  0  0  0  0  0  0  0  0  0  0  0
  128.3410  122.3610   59.9690 F   0  0  0  0  0  0  0  0  0  0  0  0
  128.9680  120.9740   61.4860 F   0  0  0  0  0  0  0  0  0  0  0  0
  128.8100  123.0950   61.9350 F   0  0  0  0  0  0  0  0  0  0  0  0
  131.1420  123.4810   59.8760 C   0  0  0  0  0  0  0  0  0  0  0  0
  130.5110  124.6210   59.2570 C   0  0  0  0  0  0  0  0  0  0  0  0
  129.1590  124.8450   59.3180 N   0  0  0  0  0  0  0  0  0  0  0  0
  131.3520  130.6700   59.9840 C   0  0  0  0  0  0  0  0  0  0  0  0
  130.8490  131.6100   60.8970 C   0  0  0  0  0  0  0  0  0  0  0  0
  131.5710  132.1150   61.9630 O   0  0  0  0  0  0  0  0  0  0  0  0
  132.9000  131.6530   62.1860 C   0  0  0  0  0  0  0  0  0  0  0  0
  129.5370  132.0770   60.7330 C   0  0  0  0  0  0  0  0  0  0  0  0
  129.0370  133.0120   61.6090 O   0  0  0  0  0  0  0  0  0  0  0  0
  128.2800  132.4570   62.6760 C   0  0  0  0  0  0  0  0  0  0  0  0
  1  2  1  0
  2  3  1  0
  3  4  2  0
  4  5  1  0
  5  6  1  0
  6  7  1  0
  7  8  1  0
  8  9  2  0
  8 10  1  0
 10 11  1  0
 11 12  1  0
 12 13  2  0
 13 14  1  0
 14 15  1  0
 14 16  2  0
 16 17  1  0
 17 18  1  0
 18 19  1  0
 18 20  1  0
 18 21  1  0
 17 22  2  0
 22 23  1  0
 23 24  1  0
  5 25  2  0
 25 26  1  0
 26 27  1  0
 27 28  1  0
 26 29  2  0
 29 30  1  0
 30 31  1  0
 29  3  1  0
 23 10  2  0
 22 12  1  0
M  END
>  <Binding energies>  (51) 
[-4.85]

>  <Ligand effiencies>  (51) 
[-0.1426470588235294]

>  <Interactions>  (51) 
["V-A:PRO:540:CA:4881, V-A:ARG:545:CZ:4924, V-B:ALA:541:CB:9864, V-B:TYR:539:CE1:9847, V-A:ILE:369:CG2:3234, V-A:PRO:540:CB:4883, V-A:ILE:369:CD1:3236, V-A:ASP:366:CG:3210, V-A:LEU:475:CD2:4256, V-A:TYR:539:CE1:4873, V-B:PRO:540:CA:9855, V-B:TYR:539:CD1:9845, V-B:PRO:540:N:9856, V-B:TYR:539:C:9839, V-A:ASP:366:CA:3207, V-A:ASP:366:CB:3209, V-A:ALA:541:CB:4890, V-B:TYR:539:CZ:9849, H-A:TYR:531:OH:4793, H-A:ASP:366:OD2:3212, H-A:ASP:366:OD1:3211, V-B:PRO:540:C:9853, H-A:ALA:541:N:4889, V-A:ASN:362:CB:3173, V-B:ALA:541:CA:9862, V-A:SER:385:CA:3404, V-A:SER:385:C:3402"]

$$$$
4bi_Grossjean_2025
     RDKit          3D

 23 25  0  0  0  0  0  0  0  0999 V2000
  124.3700  123.2480   56.5540 C   0  0  0  0  0  0  0  0  0  0  0  0
  125.2710  123.3270   57.7730 C   0  0  0  0  0  0  0  0  0  0  0  0
  124.7400  123.5050   59.0480 C   0  0  0  0  0  0  0  0  0  0  0  0
  125.5850  123.5730   60.1680 C   0  0  0  0  0  0  0  0  0  0  0  0
  124.9540  123.7610   61.5510 C   0  0  0  0  0  0  0  0  0  0  0  0
  123.7170  124.2610   61.4970 F   0  0  0  0  0  0  0  0  0  0  0  0
  124.8810  122.5870   62.1780 F   0  0  0  0  0  0  0  0  0  0  0  0
  125.6930  124.6020   62.2740 F   0  0  0  0  0  0  0  0  0  0  0  0
  126.9880  123.4570   59.9330 C   0  0  0  0  0  0  0  0  0  0  0  0
  128.1340  123.4820   60.8090 C   0  0  0  0  0  0  0  0  0  0  0  0
  128.0270  123.6500   62.1660 N   0  0  0  0  0  0  0  0  0  0  0  0
  129.3630  123.3130   60.1510 C   0  0  0  0  0  0  0  0  0  0  0  0
  130.7120  123.3000   60.7230 C   0  0  0  0  0  0  0  0  0  0  0  0
  131.5130  122.4100   60.4290 O   0  0  0  0  0  0  0  0  0  0  0  0
  130.9980  124.3270   61.5620 N   0  0  0  0  0  0  0  0  0  0  0  0
  132.1930  124.5670   62.2280 C   0  0  0  0  0  0  0  0  0  0  0  0
  133.4330  124.5650   61.5920 C   0  0  0  0  0  0  0  0  0  0  0  0
  134.3460  124.8390   62.5860 C   0  0  0  0  0  0  0  0  0  0  0  0
  133.6880  124.9980   63.7590 O   0  0  0  0  0  0  0  0  0  0  0  0
  132.3240  124.8220   63.5190 N   0  0  0  0  0  0  0  0  0  0  0  0
  129.1360  123.1410   58.4120 S   0  0  0  0  0  0  0  0  0  0  0  0
  127.4020  123.2770   58.5780 C   0  0  0  0  0  0  0  0  0  0  0  0
  126.5950  123.2120   57.5190 N   0  0  0  0  0  0  0  0  0  0  0  0
  1  2  1  0
  2  3  2  0
  3  4  1  0
  4  5  1  0
  5  6  1  0
  5  7  1  0
  5  8  1  0
  4  9  2  0
  9 10  1  0
 10 11  1  0
 10 12  2  0
 12 13  1  0
 13 14  2  0
 13 15  1  0
 15 16  1  0
 16 17  1  0
 17 18  2  0
 18 19  1  0
 19 20  1  0
 12 21  1  0
 21 22  1  0
 22 23  2  0
 23  2  1  0
 22  9  1  0
 20 16  2  0
M  END
>  <Binding energies>  (52) 
[-6.03]

>  <Ligand effiencies>  (52) 
[-0.23192307692307693]

>  <Interactions>  (52) 
["V-A:ARG:545:CZ:4924, H-A:ARG:545:NE:4922, V-B:ALA:541:CB:9864, V-B:TYR:539:CE1:9847, V-B:ARG:545:CZ:9898, V-A:ILE:369:CD1:3236, H-A:GLY:454:N:4047, V-B:TYR:531:CE2:9765, V-A:GLY:453:C:4039, V-B:PRO:540:CA:9855, V-B:ILE:538:CG2:9835, V-B:ASP:366:CG:8184, V-B:PRO:540:CB:9857, H-A:ARG:545:NH2:4926, V-B:PRO:540:CD:9859, V-B:ILE:538:CB:9834, V-B:LEU:363:CD1:8160, V-B:TYR:539:CD1:9845, V-B:PRO:540:N:9856, V-B:TYR:539:C:9839, V-B:GLU:543:CD:9880, H-B:GLU:543:OE1:9881, V-B:TYR:539:CZ:9849, V-B:PRO:540:C:9853, V-B:ASN:362:CB:8147, H-B:ALA:541:O:9861, V-B:ALA:541:CA:9862, V-A:GLY:453:CA:4041, V-B:ALA:541:C:9860, V-B:ASN:362:C:8143, V-B:ASN:362:CA:8145"]

$$$$
4bj_Grossjean_2025
     RDKit          3D

 23 25  0  0  0  0  0  0  0  0999 V2000
  133.5650  125.3700   64.6930 C   0  0  0  0  0  0  0  0  0  0  0  0
  132.7290  124.5460   63.7310 C   0  0  0  0  0  0  0  0  0  0  0  0
  133.2310  123.3760   63.1660 C   0  0  0  0  0  0  0  0  0  0  0  0
  132.4490  122.6270   62.2720 C   0  0  0  0  0  0  0  0  0  0  0  0
  133.0460  121.3480   61.6730 C   0  0  0  0  0  0  0  0  0  0  0  0
  133.5630  121.5330   60.4570 F   0  0  0  0  0  0  0  0  0  0  0  0
  134.0220  120.8940   62.4590 F   0  0  0  0  0  0  0  0  0  0  0  0
  132.0970  120.4170   61.5660 F   0  0  0  0  0  0  0  0  0  0  0  0
  131.1410  123.1150   61.9830 C   0  0  0  0  0  0  0  0  0  0  0  0
  130.0780  122.6320   61.1340 C   0  0  0  0  0  0  0  0  0  0  0  0
  130.1900  121.4890   60.3840 N   0  0  0  0  0  0  0  0  0  0  0  0
  128.9230  123.4300   61.1510 C   0  0  0  0  0  0  0  0  0  0  0  0
  127.6740  123.2440   60.4100 C   0  0  0  0  0  0  0  0  0  0  0  0
  126.6010  123.1150   61.0030 O   0  0  0  0  0  0  0  0  0  0  0  0
  127.7930  123.2390   59.0590 N   0  0  0  0  0  0  0  0  0  0  0  0
  126.7700  123.0930   58.1320 C   0  0  0  0  0  0  0  0  0  0  0  0
  126.7860  122.4030   57.0120 N   0  0  0  0  0  0  0  0  0  0  0  0
  125.6340  122.4800   56.3780 C   0  0  0  0  0  0  0  0  0  0  0  0
  124.6470  123.2490   56.9860 C   0  0  0  0  0  0  0  0  0  0  0  0
  125.2740  123.9050   58.4680 S   0  0  0  0  0  0  0  0  0  0  0  0
  129.1260  124.8250   62.2080 S   0  0  0  0  0  0  0  0  0  0  0  0
  130.7460  124.3240   62.6330 C   0  0  0  0  0  0  0  0  0  0  0  0
  131.4930  125.0340   63.4780 N   0  0  0  0  0  0  0  0  0  0  0  0
  1  2  1  0
  2  3  2  0
  3  4  1  0
  4  5  1  0
  5  6  1  0
  5  7  1  0
  5  8  1  0
  4  9  2  0
  9 10  1  0
 10 11  1  0
 10 12  2  0
 12 13  1  0
 13 14  2  0
 13 15  1  0
 15 16  1  0
 16 17  2  0
 17 18  1  0
 18 19  2  0
 19 20  1  0
 12 21  1  0
 21 22  1  0
 22 23  2  0
 23  2  1  0
 22  9  1  0
 20 16  1  0
M  END
>  <Binding energies>  (53) 
[-5.7]

>  <Ligand effiencies>  (53) 
[-0.21923076923076923]

>  <Interactions>  (53) 
["V-A:ARG:545:CZ:4924, V-A:GLY:454:CA:4046, V-B:TYR:539:CE1:9847, V-A:ILE:369:CG2:3234, V-A:ILE:369:CD1:3236, V-A:LEU:475:CD2:4256, V-B:TYR:531:CE2:9765, V-A:GLY:453:C:4039, V-B:ILE:538:CA:9832, V-B:PRO:540:CA:9855, V-B:ILE:538:CG2:9835, V-B:PRO:540:CB:9857, V-B:PRO:540:CD:9859, V-B:ILE:538:CB:9834, V-B:LEU:363:CD1:8160, V-B:TYR:539:CD1:9845, V-B:PRO:540:N:9856, V-B:TYR:539:C:9839, V-B:GLU:543:CD:9880, H-B:ALA:541:N:9863, V-A:ILE:369:CB:3233, H-B:TYR:539:N:9842, H-B:TYR:539:O:9840, V-A:ARG:545:CD:4921, V-A:SER:385:CA:3404, V-A:SER:385:C:3402, V-A:GLY:453:CA:4041"]

$$$$
4bk_Grossjean_2025
     RDKit          3D

 28 29  0  0  0  0  0  0  0  0999 V2000
  127.4770  128.2210   73.6980 C   0  0  0  0  0  0  0  0  0  0  0  0
  128.7420  128.8400   73.8720 O   0  0  0  0  0  0  0  0  0  0  0  0
  129.4470  129.0420   72.6540 C   0  0  0  0  0  0  0  0  0  0  0  0
  130.1360  127.7360   72.2400 C   0  0  0  0  0  0  0  0  0  0  0  0
  129.3050  127.0320   71.3270 O   0  0  0  0  0  0  0  0  0  0  0  0
  129.1800  127.6630   70.0600 C   0  0  0  0  0  0  0  0  0  0  0  0
  127.8570  127.2400   69.4080 C   0  0  0  0  0  0  0  0  0  0  0  0
  128.0060  127.2450   67.9950 O   0  0  0  0  0  0  0  0  0  0  0  0
  129.2830  127.6910   67.5540 C   0  0  0  0  0  0  0  0  0  0  0  0
  130.2450  126.4920   67.4810 C   0  0  0  0  0  0  0  0  0  0  0  0
  130.6180  126.1200   66.1160 N   0  0  0  0  0  0  0  0  0  0  0  0
  130.6180  124.8640   65.6220 C   0  0  0  0  0  0  0  0  0  0  0  0
  130.2740  123.8900   66.2950 O   0  0  0  0  0  0  0  0  0  0  0  0
  131.0440  124.7190   64.2290 C   0  0  0  0  0  0  0  0  0  0  0  0
  130.8930  126.0740   63.1140 S   0  0  0  0  0  0  0  0  0  0  0  0
  131.5900  125.1380   61.8140 C   0  0  0  0  0  0  0  0  0  0  0  0
  131.7570  125.6540   60.5970 N   0  0  0  0  0  0  0  0  0  0  0  0
  132.3090  124.8340   59.6730 C   0  0  0  0  0  0  0  0  0  0  0  0
  132.4920  125.4430   58.2950 C   0  0  0  0  0  0  0  0  0  0  0  0
  132.6940  123.5210   59.9350 C   0  0  0  0  0  0  0  0  0  0  0  0
  132.5190  122.9710   61.2140 C   0  0  0  0  0  0  0  0  0  0  0  0
  132.9550  121.5210   61.4530 C   0  0  0  0  0  0  0  0  0  0  0  0
  133.8400  121.3980   62.4440 F   0  0  0  0  0  0  0  0  0  0  0  0
  131.8940  120.7780   61.7700 F   0  0  0  0  0  0  0  0  0  0  0  0
  133.5200  121.0320   60.3510 F   0  0  0  0  0  0  0  0  0  0  0  0
  131.9410  123.8100   62.2130 C   0  0  0  0  0  0  0  0  0  0  0  0
  131.6200  123.6040   63.6030 C   0  0  0  0  0  0  0  0  0  0  0  0
  131.8550  122.4180   64.2500 N   0  0  0  0  0  0  0  0  0  0  0  0
  1  2  1  0
  2  3  1  0
  3  4  1  0
  4  5  1  0
  5  6  1  0
  6  7  1  0
  7  8  1  0
  8  9  1  0
  9 10  1  0
 10 11  1  0
 11 12  1  0
 12 13  2  0
 12 14  1  0
 14 15  1  0
 15 16  1  0
 16 17  2  0
 17 18  1  0
 18 19  1  0
 18 20  2  0
 20 21  1  0
 21 22  1  0
 22 23  1  0
 22 24  1  0
 22 25  1  0
 21 26  2  0
 26 27  1  0
 27 28  1  0
 27 14  2  0
 26 16  1  0
M  END
>  <Binding energies>  (54) 
[-4.97]

>  <Ligand effiencies>  (54) 
[-0.16032258064516128]

>  <Interactions>  (54) 
["V-A:GLY:454:CA:4046, V-B:TYR:539:CE1:9847, V-A:ILE:369:CG2:3234, V-A:ILE:369:CD1:3236, H-A:TYR:484:OH:4345, V-A:ASP:366:CG:3210, V-A:LEU:475:CD2:4256, V-B:TYR:539:CD1:9845, V-B:GLU:543:CD:9880, V-B:GLU:543:CG:9879, H-A:GLU:543:OE2:4908, V-B:GLU:543:CB:9878, V-A:HIS:456:CE1:4066, V-A:ASP:366:CA:3207, V-A:ASP:366:CB:3209, V-B:HIS:456:CE1:9040, V-A:GLU:543:CD:4906, V-A:GLU:543:CG:4905, V-B:GLU:543:C:9874, V-B:HIS:456:CD2:9039, V-B:LYS:547:CE:9922, V-A:LYS:547:CE:4948, V-A:GLY:544:C:4910, H-A:LYS:547:NZ:4949, V-B:HIS:456:CG:9037, V-A:GLY:544:CA:4912, H-A:HIS:456:NE2:4067, V-A:TYR:484:CZ:4344, V-A:TYR:484:CE2:4343, V-A:SER:385:C:3402"]

$$$$
4cd_Grossjean_2025
     RDKit          3D

 29 32  0  0  0  0  0  0  0  0999 V2000
  129.9910  126.8770   63.6540 N   0  0  0  0  0  0  0  0  0  0  0  0
  129.5450  125.9350   62.7620 C   0  0  0  0  0  0  0  0  0  0  0  0
  128.4390  126.1360   61.9200 C   0  0  0  0  0  0  0  0  0  0  0  0
  127.5630  127.3080   61.8270 C   0  0  0  0  0  0  0  0  0  0  0  0
  127.0710  127.6400   60.7480 O   0  0  0  0  0  0  0  0  0  0  0  0
  127.3440  127.9640   62.9930 N   0  0  0  0  0  0  0  0  0  0  0  0
  126.6070  129.1370   63.2370 C   0  0  0  0  0  0  0  0  0  0  0  0
  127.1090  129.9800   64.2330 C   0  0  0  0  0  0  0  0  0  0  0  0
  126.4570  131.1710   64.5390 C   0  0  0  0  0  0  0  0  0  0  0  0
  125.3050  131.5260   63.8420 C   0  0  0  0  0  0  0  0  0  0  0  0
  124.8010  130.7030   62.8390 C   0  0  0  0  0  0  0  0  0  0  0  0
  125.4500  129.5090   62.5300 C   0  0  0  0  0  0  0  0  0  0  0  0
  128.1530  124.7290   60.8990 S   0  0  0  0  0  0  0  0  0  0  0  0
  129.5050  123.8820   61.6100 C   0  0  0  0  0  0  0  0  0  0  0  0
  129.8340  122.6500   61.2260 N   0  0  0  0  0  0  0  0  0  0  0  0
  130.8930  122.0680   61.8470 C   0  0  0  0  0  0  0  0  0  0  0  0
  131.2380  120.6780   61.3940 C   0  0  0  0  0  0  0  0  0  0  0  0
  132.5040  120.3900   60.8590 C   0  0  0  0  0  0  0  0  0  0  0  0
  132.8310  119.1040   60.4380 C   0  0  0  0  0  0  0  0  0  0  0  0
  131.8920  118.0840   60.5470 C   0  0  0  0  0  0  0  0  0  0  0  0
  130.6320  118.3410   61.0760 C   0  0  0  0  0  0  0  0  0  0  0  0
  130.3100  119.6270   61.4970 C   0  0  0  0  0  0  0  0  0  0  0  0
  131.6270  122.7300   62.8340 C   0  0  0  0  0  0  0  0  0  0  0  0
  131.2920  124.0310   63.2440 C   0  0  0  0  0  0  0  0  0  0  0  0
  132.1370  124.6980   64.3350 C   0  0  0  0  0  0  0  0  0  0  0  0
  133.2450  124.0140   64.6310 F   0  0  0  0  0  0  0  0  0  0  0  0
  132.5130  125.9130   63.9360 F   0  0  0  0  0  0  0  0  0  0  0  0
  131.4240  124.8030   65.4570 F   0  0  0  0  0  0  0  0  0  0  0  0
  130.1760  124.6470   62.6090 C   0  0  0  0  0  0  0  0  0  0  0  0
  1  2  1  0
  2  3  2  0
  3  4  1  0
  4  5  2  0
  4  6  1  0
  6  7  1  0
  7  8  2  0
  8  9  1  0
  9 10  2  0
 10 11  1  0
 11 12  2  0
  3 13  1  0
 13 14  1  0
 14 15  2  0
 15 16  1  0
 16 17  1  0
 17 18  2  0
 18 19  1  0
 19 20  2  0
 20 21  1  0
 21 22  2  0
 16 23  2  0
 23 24  1  0
 24 25  1  0
 25 26  1  0
 25 27  1  0
 25 28  1  0
 24 29  2  0
 29  2  1  0
 12  7  1  0
 29 14  1  0
 22 17  1  0
M  END
>  <Binding energies>  (55) 
[-7.53]

>  <Ligand effiencies>  (55) 
[-0.2353125]

>  <Interactions>  (55) 
["V-A:ARG:545:CZ:4924, H-B:ARG:545:NH2:9900, V-A:GLY:454:CA:4046, V-B:ALA:541:CB:9864, V-B:TYR:539:CE1:9847, V-A:ILE:369:CG2:3234, V-B:ARG:545:CZ:9898, V-A:LEU:475:CD2:4256, V-A:GLY:453:C:4039, V-B:TYR:539:CD1:9845, V-B:GLU:543:CD:9880, H-A:GLU:543:OE2:4908, H-B:GLU:543:OE1:9881, H-A:GLU:543:OE1:4907, H-B:GLU:543:OE2:9882, V-A:GLU:543:CD:4906, V-B:GLY:454:CA:9020, V-A:PRO:482:CB:4323, V-A:TYR:484:CZ:4344, V-A:PRO:482:CG:4324, V-A:LEU:373:CD1:3277, V-A:SER:385:CA:3404"]

$$$$
4cg_Grossjean_2025
     RDKit          3D

 30 33  0  0  0  0  0  0  0  0999 V2000
  130.6500  127.6350   62.9780 N   0  0  0  0  0  0  0  0  0  0  0  0
  130.8140  126.8370   61.8750 C   0  0  0  0  0  0  0  0  0  0  0  0
  130.7560  127.3230   60.5610 C   0  0  0  0  0  0  0  0  0  0  0  0
  130.5710  128.7010   60.1050 C   0  0  0  0  0  0  0  0  0  0  0  0
  129.7550  128.9820   59.2250 O   0  0  0  0  0  0  0  0  0  0  0  0
  131.3710  129.6260   60.6770 N   0  0  0  0  0  0  0  0  0  0  0  0
  131.3450  131.0590   60.3930 C   0  0  0  0  0  0  0  0  0  0  0  0
  131.6330  131.3940   58.9330 C   0  0  0  0  0  0  0  0  0  0  0  0
  130.5820  131.7480   58.0830 C   0  0  0  0  0  0  0  0  0  0  0  0
  130.8440  132.0840   56.7570 C   0  0  0  0  0  0  0  0  0  0  0  0
  132.1560  132.0750   56.2900 C   0  0  0  0  0  0  0  0  0  0  0  0
  133.2090  131.7390   57.1370 C   0  0  0  0  0  0  0  0  0  0  0  0
  132.9480  131.4040   58.4630 C   0  0  0  0  0  0  0  0  0  0  0  0
  131.0280  126.0380   59.3880 S   0  0  0  0  0  0  0  0  0  0  0  0
  131.1960  124.8540   60.6640 C   0  0  0  0  0  0  0  0  0  0  0  0
  131.4330  123.5730   60.3950 N   0  0  0  0  0  0  0  0  0  0  0  0
  131.5520  122.7270   61.4510 C   0  0  0  0  0  0  0  0  0  0  0  0
  131.8180  121.2870   61.1140 C   0  0  0  0  0  0  0  0  0  0  0  0
  130.8020  120.3220   61.2190 C   0  0  0  0  0  0  0  0  0  0  0  0
  131.0440  118.9870   60.9100 C   0  0  0  0  0  0  0  0  0  0  0  0
  132.3100  118.5940   60.4890 C   0  0  0  0  0  0  0  0  0  0  0  0
  133.3350  119.5270   60.3790 C   0  0  0  0  0  0  0  0  0  0  0  0
  133.0890  120.8610   60.6890 C   0  0  0  0  0  0  0  0  0  0  0  0
  131.4140  123.1700   62.7710 C   0  0  0  0  0  0  0  0  0  0  0  0
  131.1630  124.5190   63.0660 C   0  0  0  0  0  0  0  0  0  0  0  0
  131.0230  124.9360   64.5350 C   0  0  0  0  0  0  0  0  0  0  0  0
  130.0610  125.8400   64.7320 F   0  0  0  0  0  0  0  0  0  0  0  0
  130.7280  123.8700   65.2800 F   0  0  0  0  0  0  0  0  0  0  0  0
  132.1650  125.4690   64.9630 F   0  0  0  0  0  0  0  0  0  0  0  0
  131.0510  125.4170   61.9660 C   0  0  0  0  0  0  0  0  0  0  0  0
  1  2  1  0
  2  3  2  0
  3  4  1  0
  4  5  2  0
  4  6  1  0
  6  7  1  0
  7  8  1  0
  8  9  2  0
  9 10  1  0
 10 11  2  0
 11 12  1  0
 12 13  2  0
  3 14  1  0
 14 15  1  0
 15 16  2  0
 16 17  1  0
 17 18  1  0
 18 19  2  0
 19 20  1  0
 20 21  2  0
 21 22  1  0
 22 23  2  0
 17 24  2  0
 24 25  1  0
 25 26  1  0
 26 27  1  0
 26 28  1  0
 26 29  1  0
 25 30  2  0
 30  2  1  0
 13  8  1  0
 30 15  1  0
 23 18  1  0
M  END
>  <Binding energies>  (56) 
[-7.45]

>  <Ligand effiencies>  (56) 
[-0.22575757575757577]

>  <Interactions>  (56) 
["V-A:PRO:540:CA:4881, V-A:ARG:545:CZ:4924, V-A:TYR:531:CE2:4791, V-A:ILE:538:CB:4860, V-B:ALA:541:CB:9864, V-B:TYR:539:CE1:9847, V-A:ILE:369:CG2:3234, V-A:ILE:538:CG2:4861, V-A:PRO:540:CB:4883, V-A:LEU:363:CA:3182, V-A:ASP:366:CG:3210, V-A:LEU:475:CD2:4256, V-A:LEU:363:CD1:3186, V-B:TYR:539:CD1:9845, V-B:GLU:543:CD:9880, H-A:GLU:543:OE2:4908, V-B:GLU:543:CB:9878, H-A:GLU:543:OE1:4907, V-A:GLU:543:CD:4906, H-A:ASP:366:OD2:3212, H-A:ASP:366:OD1:3211, V-A:TYR:484:CZ:4344, V-A:TYR:484:CE2:4343, V-A:LEU:373:CD1:3277, V-A:SER:385:CA:3404"]

$$$$
4ch_Grossjean_2025
     RDKit          3D

 36 39  0  0  0  0  0  0  0  0999 V2000
  125.1420  129.7500   65.5840 C   0  0  0  0  0  0  0  0  0  0  0  0
  124.6140  130.4610   64.4700 O   0  0  0  0  0  0  0  0  0  0  0  0
  125.3440  130.5220   63.2970 C   0  0  0  0  0  0  0  0  0  0  0  0
  125.3690  129.4990   62.3350 C   0  0  0  0  0  0  0  0  0  0  0  0
  126.1280  129.6290   61.1710 C   0  0  0  0  0  0  0  0  0  0  0  0
  126.1660  128.4970   60.1520 C   0  0  0  0  0  0  0  0  0  0  0  0
  127.0610  127.3960   60.5100 N   0  0  0  0  0  0  0  0  0  0  0  0
  127.7870  127.3120   61.6450 C   0  0  0  0  0  0  0  0  0  0  0  0
  127.7400  128.1730   62.5270 O   0  0  0  0  0  0  0  0  0  0  0  0
  128.6140  126.1140   61.7910 C   0  0  0  0  0  0  0  0  0  0  0  0
  128.2990  124.6980   60.7920 S   0  0  0  0  0  0  0  0  0  0  0  0
  129.6310  123.8340   61.5220 C   0  0  0  0  0  0  0  0  0  0  0  0
  129.9320  122.5890   61.1620 N   0  0  0  0  0  0  0  0  0  0  0  0
  130.9880  122.0000   61.7800 C   0  0  0  0  0  0  0  0  0  0  0  0
  131.2970  120.5930   61.3560 C   0  0  0  0  0  0  0  0  0  0  0  0
  130.3390  119.5740   61.4900 C   0  0  0  0  0  0  0  0  0  0  0  0
  130.6200  118.2670   61.1000 C   0  0  0  0  0  0  0  0  0  0  0  0
  131.8670  117.9590   60.5680 C   0  0  0  0  0  0  0  0  0  0  0  0
  132.8350  118.9470   60.4270 C   0  0  0  0  0  0  0  0  0  0  0  0
  132.5510  120.2520   60.8210 C   0  0  0  0  0  0  0  0  0  0  0  0
  131.7250  122.6580   62.7700 C   0  0  0  0  0  0  0  0  0  0  0  0
  131.4160  123.9720   63.1590 C   0  0  0  0  0  0  0  0  0  0  0  0
  132.2650  124.6340   64.2490 C   0  0  0  0  0  0  0  0  0  0  0  0
  132.8230  125.7820   63.8550 F   0  0  0  0  0  0  0  0  0  0  0  0
  131.5070  124.9030   65.3110 F   0  0  0  0  0  0  0  0  0  0  0  0
  133.2530  123.8160   64.6110 F   0  0  0  0  0  0  0  0  0  0  0  0
  130.3190  124.6030   62.5070 C   0  0  0  0  0  0  0  0  0  0  0  0
  129.7200  125.9100   62.6300 C   0  0  0  0  0  0  0  0  0  0  0  0
  130.1870  126.8620   63.5000 N   0  0  0  0  0  0  0  0  0  0  0  0
  126.8850  130.7840   60.9690 C   0  0  0  0  0  0  0  0  0  0  0  0
  126.8790  131.8230   61.9150 C   0  0  0  0  0  0  0  0  0  0  0  0
  127.6030  132.9940   61.7780 O   0  0  0  0  0  0  0  0  0  0  0  0
  128.9500  132.9340   61.3220 C   0  0  0  0  0  0  0  0  0  0  0  0
  126.0990  131.6810   63.0710 C   0  0  0  0  0  0  0  0  0  0  0  0
  126.0960  132.6830   64.0110 O   0  0  0  0  0  0  0  0  0  0  0  0
  127.2370  132.6850   64.8590 C   0  0  0  0  0  0  0  0  0  0  0  0
  1  2  1  0
  2  3  1  0
  3  4  2  0
  4  5  1  0
  5  6  1  0
  6  7  1  0
  7  8  1  0
  8  9  2  0
  8 10  1  0
 10 11  1  0
 11 12  1  0
 12 13  2  0
 13 14  1  0
 14 15  1  0
 15 16  2  0
 16 17  1  0
 17 18  2  0
 18 19  1  0
 19 20  2  0
 14 21  2  0
 21 22  1  0
 22 23  1  0
 23 24  1  0
 23 25  1  0
 23 26  1  0
 22 27  2  0
 27 28  1  0
 28 29  1  0
  5 30  2  0
 30 31  1  0
 31 32  1  0
 32 33  1  0
 31 34  2  0
 34 35  1  0
 35 36  1  0
 34  3  1  0
 28 10  2  0
 27 12  1  0
 20 15  1  0
M  END
>  <Binding energies>  (57) 
[-6.7]

>  <Ligand effiencies>  (57) 
[-0.1717948717948718]

>  <Interactions>  (57) 
["V-A:PRO:540:CA:4881, V-A:ARG:545:CZ:4924, H-B:ARG:545:NH2:9900, V-A:GLY:454:CA:4046, V-B:ALA:541:CB:9864, V-B:TYR:539:CE1:9847, V-A:ILE:369:CG2:3234, V-B:ARG:545:CZ:9898, V-A:LEU:475:CD2:4256, V-A:GLY:453:C:4039, V-B:ASP:366:CG:8184, H-B:TYR:484:OH:9319, V-B:LEU:475:CD2:9230, V-B:TYR:539:CD1:9845, H-B:GLY:454:N:9021, V-B:GLU:543:CD:9880, H-A:GLU:543:OE2:4908, V-A:ALA:541:CB:4890, H-A:GLU:543:OE1:4907, H-B:GLU:543:OE2:9882, V-A:GLU:543:CD:4906, V-A:PRO:540:C:4879, H-B:ASP:366:OD2:8186, V-A:PRO:482:CB:4323, V-B:TYR:484:CE2:9317, V-A:TYR:484:CZ:4344, V-B:TYR:484:CZ:9318, V-A:PRO:482:CG:4324, V-A:LEU:373:CD1:3277, V-A:SER:385:CA:3404, V-A:SER:385:CB:3406, V-B:ARG:545:CD:9895"]

$$$$
4cj_Grossjean_2025
     RDKit          3D

 28 31  0  0  0  0  0  0  0  0999 V2000
  130.1280  126.8740   63.6150 N   0  0  0  0  0  0  0  0  0  0  0  0
  129.6360  125.9130   62.7690 C   0  0  0  0  0  0  0  0  0  0  0  0
  128.4940  126.1010   61.9730 C   0  0  0  0  0  0  0  0  0  0  0  0
  127.6380  127.2850   61.8690 C   0  0  0  0  0  0  0  0  0  0  0  0
  127.2280  127.6730   60.7720 O   0  0  0  0  0  0  0  0  0  0  0  0
  127.3520  127.9010   63.0420 N   0  0  0  0  0  0  0  0  0  0  0  0
  126.5680  129.0340   63.2190 C   0  0  0  0  0  0  0  0  0  0  0  0
  125.8780  129.6880   62.3090 N   0  0  0  0  0  0  0  0  0  0  0  0
  125.2440  130.7200   62.8310 C   0  0  0  0  0  0  0  0  0  0  0  0
  125.4140  130.9190   64.1990 C   0  0  0  0  0  0  0  0  0  0  0  0
  126.4620  129.6810   64.8250 S   0  0  0  0  0  0  0  0  0  0  0  0
  128.1550  124.6710   61.0000 S   0  0  0  0  0  0  0  0  0  0  0  0
  129.5370  123.8350   61.6660 C   0  0  0  0  0  0  0  0  0  0  0  0
  129.8480  122.5980   61.2890 N   0  0  0  0  0  0  0  0  0  0  0  0
  130.9450  122.0320   61.8550 C   0  0  0  0  0  0  0  0  0  0  0  0
  131.2750  120.6400   61.3970 C   0  0  0  0  0  0  0  0  0  0  0  0
  130.3280  119.6070   61.4980 C   0  0  0  0  0  0  0  0  0  0  0  0
  130.6300  118.3130   61.0820 C   0  0  0  0  0  0  0  0  0  0  0  0
  131.8880  118.0320   60.5580 C   0  0  0  0  0  0  0  0  0  0  0  0
  132.8440  119.0350   60.4490 C   0  0  0  0  0  0  0  0  0  0  0  0
  132.5380  120.3280   60.8660 C   0  0  0  0  0  0  0  0  0  0  0  0
  131.7100  122.7020   62.8150 C   0  0  0  0  0  0  0  0  0  0  0  0
  131.3900  124.0070   63.2220 C   0  0  0  0  0  0  0  0  0  0  0  0
  132.2730  124.6850   64.2760 C   0  0  0  0  0  0  0  0  0  0  0  0
  131.6040  125.0280   65.3780 F   0  0  0  0  0  0  0  0  0  0  0  0
  133.2500  123.8560   64.6440 F   0  0  0  0  0  0  0  0  0  0  0  0
  132.8070  125.7970   63.7710 F   0  0  0  0  0  0  0  0  0  0  0  0
  130.2530  124.6170   62.6200 C   0  0  0  0  0  0  0  0  0  0  0  0
  1  2  1  0
  2  3  2  0
  3  4  1  0
  4  5  2  0
  4  6  1  0
  6  7  1  0
  7  8  2  0
  8  9  1  0
  9 10  2  0
 10 11  1  0
  3 12  1  0
 12 13  1  0
 13 14  2  0
 14 15  1  0
 15 16  1  0
 16 17  2  0
 17 18  1  0
 18 19  2  0
 19 20  1  0
 20 21  2  0
 15 22  2  0
 22 23  1  0
 23 24  1  0
 24 25  1  0
 24 26  1  0
 24 27  1  0
 23 28  2  0
 28  2  1  0
 11  7  1  0
 28 13  1  0
 21 16  1  0
M  END
>  <Binding energies>  (58) 
[-6.96]

>  <Ligand effiencies>  (58) 
[-0.22451612903225807]

>  <Interactions>  (58) 
["V-A:ARG:545:CZ:4924, H-B:ARG:545:NH2:9900, V-A:GLY:454:CA:4046, V-B:ALA:541:CB:9864, V-B:TYR:539:CE1:9847, V-A:ILE:369:CG2:3234, V-B:ARG:545:CZ:9898, V-A:LEU:475:CD2:4256, V-A:GLY:453:C:4039, V-B:TYR:539:CD1:9845, V-B:GLU:543:CD:9880, H-A:GLU:543:OE2:4908, H-B:GLU:543:OE1:9881, H-A:GLU:543:OE1:4907, H-B:GLU:543:OE2:9882, V-A:GLU:543:CD:4906, V-B:GLY:454:CA:9020, V-A:PRO:482:CB:4323, V-A:TYR:484:CZ:4344, V-A:PRO:482:CG:4324, V-A:LEU:373:CD1:3277, V-A:SER:385:CA:3404"]

$$$$
4ck_Grossjean_2025
     RDKit          3D

 33 35  0  0  0  0  0  0  0  0999 V2000
  131.4350  132.2910   56.7000 C   0  0  0  0  0  0  0  0  0  0  0  0
  130.3590  133.1610   57.0110 O   0  0  0  0  0  0  0  0  0  0  0  0
  129.1070  132.4970   57.1150 C   0  0  0  0  0  0  0  0  0  0  0  0
  129.1360  131.5610   58.3290 C   0  0  0  0  0  0  0  0  0  0  0  0
  129.1740  132.3420   59.5160 O   0  0  0  0  0  0  0  0  0  0  0  0
  128.4430  131.7710   60.5940 C   0  0  0  0  0  0  0  0  0  0  0  0
  129.4210  131.0820   61.5540 C   0  0  0  0  0  0  0  0  0  0  0  0
  128.7100  130.1100   62.3090 O   0  0  0  0  0  0  0  0  0  0  0  0
  127.3420  130.4340   62.5220 C   0  0  0  0  0  0  0  0  0  0  0  0
  126.5730  129.1720   62.9400 C   0  0  0  0  0  0  0  0  0  0  0  0
  127.3980  127.9670   62.8450 N   0  0  0  0  0  0  0  0  0  0  0  0
  127.6990  127.3030   61.7090 C   0  0  0  0  0  0  0  0  0  0  0  0
  127.3160  127.6760   60.5990 O   0  0  0  0  0  0  0  0  0  0  0  0
  128.5250  126.1060   61.8690 C   0  0  0  0  0  0  0  0  0  0  0  0
  128.2110  124.6780   60.8860 S   0  0  0  0  0  0  0  0  0  0  0  0
  129.5610  123.8330   61.6060 C   0  0  0  0  0  0  0  0  0  0  0  0
  129.8740  122.5910   61.2470 N   0  0  0  0  0  0  0  0  0  0  0  0
  130.9400  122.0150   61.8620 C   0  0  0  0  0  0  0  0  0  0  0  0
  131.2780  120.6200   61.4210 C   0  0  0  0  0  0  0  0  0  0  0  0
  130.3280  119.5890   61.5020 C   0  0  0  0  0  0  0  0  0  0  0  0
  130.6360  118.2920   61.0960 C   0  0  0  0  0  0  0  0  0  0  0  0
  131.9050  118.0080   60.6030 C   0  0  0  0  0  0  0  0  0  0  0  0
  132.8640  119.0110   60.5080 C   0  0  0  0  0  0  0  0  0  0  0  0
  132.5510  120.3060   60.9130 C   0  0  0  0  0  0  0  0  0  0  0  0
  131.6900  122.6920   62.8290 C   0  0  0  0  0  0  0  0  0  0  0  0
  131.3670  124.0020   63.2160 C   0  0  0  0  0  0  0  0  0  0  0  0
  132.2300  124.6850   64.2850 C   0  0  0  0  0  0  0  0  0  0  0  0
  132.7390  125.8500   63.8810 F   0  0  0  0  0  0  0  0  0  0  0  0
  131.4960  124.9240   65.3710 F   0  0  0  0  0  0  0  0  0  0  0  0
  133.2520  123.8940   64.6100 F   0  0  0  0  0  0  0  0  0  0  0  0
  130.2500  124.6150   62.5790 C   0  0  0  0  0  0  0  0  0  0  0  0
  129.6380  125.9160   62.7020 C   0  0  0  0  0  0  0  0  0  0  0  0
  130.1040  126.8780   63.5620 N   0  0  0  0  0  0  0  0  0  0  0  0
  1  2  1  0
  2  3  1  0
  3  4  1  0
  4  5  1  0
  5  6  1  0
  6  7  1  0
  7  8  1  0
  8  9  1  0
  9 10  1  0
 10 11  1  0
 11 12  1  0
 12 13  2  0
 12 14  1  0
 14 15  1  0
 15 16  1  0
 16 17  2  0
 17 18  1  0
 18 19  1  0
 19 20  2  0
 20 21  1  0
 21 22  2  0
 22 23  1  0
 23 24  2  0
 18 25  2  0
 25 26  1  0
 26 27  1  0
 27 28  1  0
 27 29  1  0
 27 30  1  0
 26 31  2  0
 31 32  1  0
 32 33  1  0
 32 14  2  0
 31 16  1  0
 24 19  1  0
M  END
>  <Binding energies>  (59) 
[-6.34]

>  <Ligand effiencies>  (59) 
[-0.1761111111111111]

>  <Interactions>  (59) 
["V-A:ARG:545:CZ:4924, V-A:GLY:454:CA:4046, V-A:ILE:538:CB:4860, V-B:ALA:541:CB:9864, V-B:TYR:539:CE1:9847, V-A:PRO:540:N:4882, V-A:LEU:475:CD2:4256, V-A:TYR:539:CE1:4873, V-A:GLY:453:C:4039, V-B:TYR:539:CD1:9845, V-A:TYR:539:CD1:4871, V-B:GLU:543:CD:9880, H-A:GLU:543:OE2:4908, H-B:GLU:543:OE1:9881, H-A:GLU:543:OE1:4907, H-B:GLU:543:OE2:9882, V-A:TYR:539:CZ:4875, V-A:GLU:543:CD:4906, H-A:TYR:539:N:4868, V-A:TYR:539:CG:4870, V-A:PRO:482:CB:4323, V-A:TYR:539:CE2:4874, V-A:TYR:539:CD2:4872, V-A:TYR:484:CZ:4344, V-A:PRO:482:CG:4324, V-A:LEU:373:CD1:3277, V-A:SER:385:CA:3404, V-A:SER:385:CB:3406"]

$$$$
4dd_Grossjean_2025
     RDKit          3D

 26 29  0  0  0  0  0  0  0  0999 V2000
  132.4590  124.6660   64.1410 C   0  0  0  0  0  0  0  0  0  0  0  0
  131.6010  123.9850   63.0850 C   0  0  0  0  0  0  0  0  0  0  0  0
  131.9620  122.6970   62.6710 C   0  0  0  0  0  0  0  0  0  0  0  0
  131.2130  122.0160   61.7030 C   0  0  0  0  0  0  0  0  0  0  0  0
  131.5790  120.6380   61.2370 C   0  0  0  0  0  0  0  0  0  0  0  0
  130.6230  119.6100   61.2100 C   0  0  0  0  0  0  0  0  0  0  0  0
  130.9550  118.3290   60.7750 C   0  0  0  0  0  0  0  0  0  0  0  0
  132.2540  118.0580   60.3610 C   0  0  0  0  0  0  0  0  0  0  0  0
  133.2210  119.0570   60.3760 C   0  0  0  0  0  0  0  0  0  0  0  0
  132.8840  120.3370   60.8090 C   0  0  0  0  0  0  0  0  0  0  0  0
  130.1180  122.5740   61.1180 N   0  0  0  0  0  0  0  0  0  0  0  0
  129.7700  123.7970   61.5150 C   0  0  0  0  0  0  0  0  0  0  0  0
  128.3760  124.6250   60.8600 S   0  0  0  0  0  0  0  0  0  0  0  0
  128.6720  126.0330   61.8820 C   0  0  0  0  0  0  0  0  0  0  0  0
  127.7740  127.1890   61.8300 C   0  0  0  0  0  0  0  0  0  0  0  0
  127.2820  127.5540   60.7610 O   0  0  0  0  0  0  0  0  0  0  0  0
  127.5350  127.7920   63.0190 N   0  0  0  0  0  0  0  0  0  0  0  0
  126.7750  128.9410   63.3050 C   0  0  0  0  0  0  0  0  0  0  0  0
  127.0740  129.5880   64.5080 C   0  0  0  0  0  0  0  0  0  0  0  0
  126.3860  130.7420   64.8740 C   0  0  0  0  0  0  0  0  0  0  0  0
  125.4020  131.2550   64.0330 C   0  0  0  0  0  0  0  0  0  0  0  0
  125.1030  130.6280   62.8270 C   0  0  0  0  0  0  0  0  0  0  0  0
  125.7890  129.4730   62.4570 C   0  0  0  0  0  0  0  0  0  0  0  0
  129.8100  125.8460   62.6820 C   0  0  0  0  0  0  0  0  0  0  0  0
  130.2800  126.7810   63.5710 N   0  0  0  0  0  0  0  0  0  0  0  0
  130.4540  124.5740   62.4930 C   0  0  0  0  0  0  0  0  0  0  0  0
  1  2  1  0
  2  3  2  0
  3  4  1  0
  4  5  1  0
  5  6  2  0
  6  7  1  0
  7  8  2  0
  8  9  1  0
  9 10  2  0
  4 11  2  0
 11 12  1  0
 12 13  1  0
 13 14  1  0
 14 15  1  0
 15 16  2  0
 15 17  1  0
 17 18  1  0
 18 19  2  0
 19 20  1  0
 20 21  2  0
 21 22  1  0
 22 23  2  0
 14 24  2  0
 24 25  1  0
 24 26  1  0
 26  2  1  0
 10  5  1  0
 26 12  2  0
 23 18  1  0
M  END
>  <Binding energies>  (60) 
[-7.81]

>  <Ligand effiencies>  (60) 
[-0.2693103448275862]

>  <Interactions>  (60) 
["V-B:ALA:541:CB:9864, V-B:TYR:539:CE1:9847, V-A:ILE:369:CG2:3234, V-B:ARG:545:CZ:9898, V-A:LEU:475:CD2:4256, V-B:TYR:539:CD1:9845, V-B:GLU:543:CD:9880, H-A:GLU:543:OE2:4908, H-B:GLU:543:OE1:9881, H-A:GLU:543:OE1:4907, H-B:GLU:543:OE2:9882, V-A:GLU:543:CD:4906, V-B:GLY:454:CA:9020, V-A:PRO:482:CB:4323, V-A:PRO:482:CG:4324, V-B:TYR:539:CB:9843, V-A:LEU:373:CD1:3277, V-A:SER:385:CA:3404, V-A:SER:385:CB:3406"]

$$$$
4dg_Grossjean_2025
     RDKit          3D

 27 30  0  0  0  0  0  0  0  0999 V2000
  130.7140  124.9760   64.5300 C   0  0  0  0  0  0  0  0  0  0  0  0
  130.9550  124.5520   63.0890 C   0  0  0  0  0  0  0  0  0  0  0  0
  131.2160  123.2010   62.8330 C   0  0  0  0  0  0  0  0  0  0  0  0
  131.4470  122.7460   61.5290 C   0  0  0  0  0  0  0  0  0  0  0  0
  131.7280  121.3020   61.2230 C   0  0  0  0  0  0  0  0  0  0  0  0
  132.9830  120.8990   60.7380 C   0  0  0  0  0  0  0  0  0  0  0  0
  133.2480  119.5630   60.4490 C   0  0  0  0  0  0  0  0  0  0  0  0
  132.2580  118.6060   60.6430 C   0  0  0  0  0  0  0  0  0  0  0  0
  131.0040  118.9770   61.1190 C   0  0  0  0  0  0  0  0  0  0  0  0
  130.7440  120.3140   61.4050 C   0  0  0  0  0  0  0  0  0  0  0  0
  131.4090  123.5860   60.4590 N   0  0  0  0  0  0  0  0  0  0  0  0
  131.1610  124.8730   60.7010 C   0  0  0  0  0  0  0  0  0  0  0  0
  131.0910  126.0590   59.4190 S   0  0  0  0  0  0  0  0  0  0  0  0
  130.7410  127.3480   60.5700 C   0  0  0  0  0  0  0  0  0  0  0  0
  130.5950  128.7270   60.1080 C   0  0  0  0  0  0  0  0  0  0  0  0
  129.8460  129.0140   59.1710 O   0  0  0  0  0  0  0  0  0  0  0  0
  131.3530  129.6450   60.7420 N   0  0  0  0  0  0  0  0  0  0  0  0
  131.3540  131.0810   60.4640 C   0  0  0  0  0  0  0  0  0  0  0  0
  131.6010  131.4130   58.9970 C   0  0  0  0  0  0  0  0  0  0  0  0
  130.5380  131.8330   58.1920 C   0  0  0  0  0  0  0  0  0  0  0  0
  130.7650  132.1670   56.8600 C   0  0  0  0  0  0  0  0  0  0  0  0
  132.0560  132.0920   56.3400 C   0  0  0  0  0  0  0  0  0  0  0  0
  133.1230  131.6910   57.1410 C   0  0  0  0  0  0  0  0  0  0  0  0
  132.8960  131.3580   58.4740 C   0  0  0  0  0  0  0  0  0  0  0  0
  130.7010  126.8600   61.8850 C   0  0  0  0  0  0  0  0  0  0  0  0
  130.4630  127.6450   62.9840 N   0  0  0  0  0  0  0  0  0  0  0  0
  130.9270  125.4420   61.9850 C   0  0  0  0  0  0  0  0  0  0  0  0
  1  2  1  0
  2  3  2  0
  3  4  1  0
  4  5  1  0
  5  6  2  0
  6  7  1  0
  7  8  2  0
  8  9  1  0
  9 10  2  0
  4 11  2  0
 11 12  1  0
 12 13  1  0
 13 14  1  0
 14 15  1  0
 15 16  2  0
 15 17  1  0
 17 18  1  0
 18 19  1  0
 19 20  2  0
 20 21  1  0
 21 22  2  0
 22 23  1  0
 23 24  2  0
 14 25  2  0
 25 26  1  0
 25 27  1  0
 27  2  1  0
 10  5  1  0
 27 12  2  0
 24 19  1  0
M  END
>  <Binding energies>  (61) 
[-7.88]

>  <Ligand effiencies>  (61) 
[-0.26266666666666666]

>  <Interactions>  (61) 
["V-A:PRO:540:CA:4881, V-A:TYR:531:CE2:4791, V-A:ILE:538:CB:4860, V-B:ALA:541:CB:9864, V-B:TYR:539:CE1:9847, V-A:ILE:369:CG2:3234, V-A:ILE:538:CG2:4861, V-A:PRO:540:CB:4883, V-A:PRO:540:N:4882, V-A:ASP:366:CG:3210, V-A:LEU:475:CD2:4256, V-A:LEU:363:CD1:3186, V-B:TYR:539:CD1:9845, V-B:GLU:543:CD:9880, H-A:GLU:543:OE2:4908, H-B:GLU:543:OE1:9881, H-A:GLU:543:OE1:4907, H-B:GLU:543:OE2:9882, V-A:GLU:543:CD:4906, H-A:ASP:366:OD2:3212, V-A:PRO:482:CB:4323, V-A:LEU:373:CD1:3277, V-A:SER:385:CA:3404"]

$$$$
4dj_Grossjean_2025
     RDKit          3D

 25 28  0  0  0  0  0  0  0  0999 V2000
  133.9480  123.8430   60.0800 C   0  0  0  0  0  0  0  0  0  0  0  0
  133.0470  122.8980   60.8610 C   0  0  0  0  0  0  0  0  0  0  0  0
  132.9960  121.5570   60.4640 C   0  0  0  0  0  0  0  0  0  0  0  0
  132.1850  120.6370   61.1400 C   0  0  0  0  0  0  0  0  0  0  0  0
  132.1140  119.1900   60.7400 C   0  0  0  0  0  0  0  0  0  0  0  0
  130.8820  118.5180   60.6840 C   0  0  0  0  0  0  0  0  0  0  0  0
  130.8090  117.1780   60.3140 C   0  0  0  0  0  0  0  0  0  0  0  0
  131.9730  116.4860   59.9980 C   0  0  0  0  0  0  0  0  0  0  0  0
  133.2070  117.1250   60.0490 C   0  0  0  0  0  0  0  0  0  0  0  0
  133.2750  118.4650   60.4180 C   0  0  0  0  0  0  0  0  0  0  0  0
  131.4300  120.9970   62.2140 N   0  0  0  0  0  0  0  0  0  0  0  0
  131.4780  122.2730   62.5920 C   0  0  0  0  0  0  0  0  0  0  0  0
  130.5530  122.8740   63.9510 S   0  0  0  0  0  0  0  0  0  0  0  0
  131.1880  124.5050   63.7230 C   0  0  0  0  0  0  0  0  0  0  0  0
  130.7670  125.5930   64.6060 C   0  0  0  0  0  0  0  0  0  0  0  0
  130.0800  126.5240   64.1770 O   0  0  0  0  0  0  0  0  0  0  0  0
  131.1890  125.4980   65.8910 N   0  0  0  0  0  0  0  0  0  0  0  0
  130.9330  126.3910   66.9220 C   0  0  0  0  0  0  0  0  0  0  0  0
  131.7590  127.2640   67.4590 N   0  0  0  0  0  0  0  0  0  0  0  0
  131.1770  127.9530   68.4210 C   0  0  0  0  0  0  0  0  0  0  0  0
  129.8460  127.6440   68.6820 C   0  0  0  0  0  0  0  0  0  0  0  0
  129.3370  126.3800   67.6020 S   0  0  0  0  0  0  0  0  0  0  0  0
  132.0720  124.5550   62.6340 C   0  0  0  0  0  0  0  0  0  0  0  0
  132.7130  125.6970   62.2240 N   0  0  0  0  0  0  0  0  0  0  0  0
  132.2570  123.2920   61.9720 C   0  0  0  0  0  0  0  0  0  0  0  0
  1  2  1  0
  2  3  2  0
  3  4  1  0
  4  5  1  0
  5  6  2  0
  6  7  1  0
  7  8  2  0
  8  9  1  0
  9 10  2  0
  4 11  2  0
 11 12  1  0
 12 13  1  0
 13 14  1  0
 14 15  1  0
 15 16  2  0
 15 17  1  0
 17 18  1  0
 18 19  2  0
 19 20  1  0
 20 21  2  0
 21 22  1  0
 14 23  2  0
 23 24  1  0
 23 25  1  0
 25  2  1  0
 10  5  1  0
 25 12  2  0
 22 18  1  0
M  END
>  <Binding energies>  (62) 
[-7.47]

>  <Ligand effiencies>  (62) 
[-0.2667857142857143]

>  <Interactions>  (62) 
["V-A:ARG:545:CZ:4924, H-A:ARG:545:NE:4922, V-B:ALA:541:CB:9864, V-B:TYR:539:CE1:9847, V-A:ILE:369:CG2:3234, V-A:ILE:369:CD1:3236, H-A:TYR:484:OH:4345, V-A:ASP:366:CG:3210, V-A:LEU:475:CD2:4256, V-B:TYR:539:CD1:9845, V-B:TYR:539:CG:9844, V-B:GLU:543:CD:9880, V-B:GLU:543:CG:9879, V-B:GLU:543:CB:9878, V-A:HIS:456:CE1:4066, V-A:GLU:543:CB:4904, V-A:GLU:543:CD:4906, V-A:GLU:543:CG:4905, V-A:GLU:543:C:4900, V-A:ILE:369:CB:3233, H-A:ASP:366:OD1:3211, V-A:PRO:482:CB:4323, V-A:PRO:482:CG:4324, V-B:TYR:539:CB:9843, V-A:ARG:545:CG:4920, V-A:LEU:373:CD1:3277, V-A:SER:385:CA:3404, V-A:SER:385:CB:3406, V-B:VAL:344:CG1:7972, V-A:VAL:384:C:3394"]

$$$$
4ea_Grossjean_2025
     RDKit          3D

 31 34  0  0  0  0  0  0  0  0999 V2000
  131.5640  117.2070   60.1150 C   0  0  0  0  0  0  0  0  0  0  0  0
  132.7450  118.1040   60.5010 C   0  0  0  0  0  0  0  0  0  0  0  0
  132.3000  119.4490   60.6080 O   0  0  0  0  0  0  0  0  0  0  0  0
  133.1830  120.4710   60.7560 C   0  0  0  0  0  0  0  0  0  0  0  0
  134.4000  120.3040   60.8830 O   0  0  0  0  0  0  0  0  0  0  0  0
  132.5310  121.8230   60.7490 C   0  0  0  0  0  0  0  0  0  0  0  0
  133.3340  122.9680   60.6770 C   0  0  0  0  0  0  0  0  0  0  0  0
  132.7610  124.2370   60.6690 C   0  0  0  0  0  0  0  0  0  0  0  0
  131.3750  124.3870   60.7330 C   0  0  0  0  0  0  0  0  0  0  0  0
  130.9080  125.7160   60.7180 N   0  0  0  0  0  0  0  0  0  0  0  0
  129.9720  126.3090   59.9370 C   0  0  0  0  0  0  0  0  0  0  0  0
  129.3380  125.7310   59.0530 O   0  0  0  0  0  0  0  0  0  0  0  0
  129.7420  127.7310   60.2080 C   0  0  0  0  0  0  0  0  0  0  0  0
  128.7190  128.2290   61.5580 S   0  0  0  0  0  0  0  0  0  0  0  0
  128.9680  129.9190   61.1860 C   0  0  0  0  0  0  0  0  0  0  0  0
  128.4070  130.8900   61.9100 N   0  0  0  0  0  0  0  0  0  0  0  0
  128.6800  132.1590   61.5170 C   0  0  0  0  0  0  0  0  0  0  0  0
  128.0320  133.2470   62.3530 C   0  0  0  0  0  0  0  0  0  0  0  0
  129.4920  132.4760   60.4300 C   0  0  0  0  0  0  0  0  0  0  0  0
  130.0780  131.4550   59.6750 C   0  0  0  0  0  0  0  0  0  0  0  0
  130.9380  131.8080   58.5230 C   0  0  0  0  0  0  0  0  0  0  0  0
  132.3170  131.5850   58.5810 C   0  0  0  0  0  0  0  0  0  0  0  0
  133.1260  131.9150   57.4970 C   0  0  0  0  0  0  0  0  0  0  0  0
  132.5560  132.4720   56.3550 C   0  0  0  0  0  0  0  0  0  0  0  0
  131.1830  132.7030   56.2880 C   0  0  0  0  0  0  0  0  0  0  0  0
  130.3760  132.3730   57.3730 C   0  0  0  0  0  0  0  0  0  0  0  0
  129.8160  130.1090   60.0540 C   0  0  0  0  0  0  0  0  0  0  0  0
  130.2440  128.8440   59.5150 C   0  0  0  0  0  0  0  0  0  0  0  0
  131.0670  128.7550   58.4220 N   0  0  0  0  0  0  0  0  0  0  0  0
  130.5620  123.2450   60.8060 C   0  0  0  0  0  0  0  0  0  0  0  0
  131.1380  121.9780   60.8140 C   0  0  0  0  0  0  0  0  0  0  0  0
  1  2  1  0
  2  3  1  0
  3  4  1  0
  4  5  2  0
  4  6  1  0
  6  7  2  0
  7  8  1  0
  8  9  2  0
  9 10  1  0
 10 11  1  0
 11 12  2  0
 11 13  1  0
 13 14  1  0
 14 15  1  0
 15 16  2  0
 16 17  1  0
 17 18  1  0
 17 19  2  0
 19 20  1  0
 20 21  1  0
 21 22  2  0
 22 23  1  0
 23 24  2  0
 24 25  1  0
 25 26  2  0
 20 27  2  0
 27 28  1  0
 28 29  1  0
  9 30  1  0
 30 31  2  0
 31  6  1  0
 28 13  2  0
 27 15  1  0
 26 21  1  0
M  END
>  <Binding energies>  (63) 
[-6.91]

>  <Ligand effiencies>  (63) 
[-0.20323529411764707]

>  <Interactions>  (63) 
["V-A:PRO:540:CA:4881, V-A:TYR:531:CE2:4791, V-A:ILE:538:CB:4860, V-B:TYR:539:CE1:9847, V-A:ILE:369:CG2:3234, V-A:PRO:540:CD:4885, V-A:ILE:538:CG2:4861, V-A:PRO:540:CB:4883, V-A:ILE:369:CD1:3236, V-A:LEU:363:CA:3182, V-A:PRO:540:N:4882, V-A:ASP:366:CG:3210, V-A:LEU:475:CD2:4256, V-A:LEU:363:CD1:3186, V-B:TYR:539:CD1:9845, V-A:ALA:541:CB:4890, H-A:TYR:531:OH:4793, V-A:TYR:539:C:4865, H-A:ASP:366:OD2:3212, H-A:ASP:366:OD1:3211, V-A:PRO:482:CG:4324, V-B:TYR:539:CB:9843, V-A:ILE:538:CA:4858, V-A:LEU:373:CD1:3277, V-A:SER:385:CA:3404, V-A:SER:385:CB:3406"]

$$$$
4eb_Grossjean_2025
     RDKit          3D

 30 33  0  0  0  0  0  0  0  0999 V2000
  132.0620  117.4740   60.4570 C   0  0  0  0  0  0  0  0  0  0  0  0
  131.8670  118.7960   60.9390 O   0  0  0  0  0  0  0  0  0  0  0  0
  132.8320  119.7420   60.7940 C   0  0  0  0  0  0  0  0  0  0  0  0
  134.0320  119.4760   60.6820 O   0  0  0  0  0  0  0  0  0  0  0  0
  132.2920  121.1430   60.7830 C   0  0  0  0  0  0  0  0  0  0  0  0
  133.1880  122.2210   60.7920 C   0  0  0  0  0  0  0  0  0  0  0  0
  132.7190  123.5310   60.7820 C   0  0  0  0  0  0  0  0  0  0  0  0
  131.3480  123.7920   60.7640 C   0  0  0  0  0  0  0  0  0  0  0  0
  130.9890  125.1540   60.7560 N   0  0  0  0  0  0  0  0  0  0  0  0
  130.7390  125.9900   59.7180 C   0  0  0  0  0  0  0  0  0  0  0  0
  130.7910  125.6590   58.5330 O   0  0  0  0  0  0  0  0  0  0  0  0
  130.3890  127.3630   60.0920 C   0  0  0  0  0  0  0  0  0  0  0  0
  129.4460  127.6770   61.5500 S   0  0  0  0  0  0  0  0  0  0  0  0
  129.4830  129.4020   61.2600 C   0  0  0  0  0  0  0  0  0  0  0  0
  128.8920  130.2680   62.0850 N   0  0  0  0  0  0  0  0  0  0  0  0
  128.9950  131.5760   61.7470 C   0  0  0  0  0  0  0  0  0  0  0  0
  128.3150  132.5440   62.6990 C   0  0  0  0  0  0  0  0  0  0  0  0
  129.6670  132.0350   60.6170 C   0  0  0  0  0  0  0  0  0  0  0  0
  130.2850  131.1230   59.7550 C   0  0  0  0  0  0  0  0  0  0  0  0
  130.9960  131.6250   58.5560 C   0  0  0  0  0  0  0  0  0  0  0  0
  130.2730  132.0920   57.4550 C   0  0  0  0  0  0  0  0  0  0  0  0
  130.9400  132.5670   56.3280 C   0  0  0  0  0  0  0  0  0  0  0  0
  132.3330  132.5710   56.3030 C   0  0  0  0  0  0  0  0  0  0  0  0
  133.0630  132.1060   57.3950 C   0  0  0  0  0  0  0  0  0  0  0  0
  132.3940  131.6320   58.5200 C   0  0  0  0  0  0  0  0  0  0  0  0
  130.2010  129.7400   60.0740 C   0  0  0  0  0  0  0  0  0  0  0  0
  130.7060  128.5580   59.4270 C   0  0  0  0  0  0  0  0  0  0  0  0
  131.4330  128.6130   58.2640 N   0  0  0  0  0  0  0  0  0  0  0  0
  130.4440  122.7190   60.7550 C   0  0  0  0  0  0  0  0  0  0  0  0
  130.9150  121.4090   60.7640 C   0  0  0  0  0  0  0  0  0  0  0  0
  1  2  1  0
  2  3  1  0
  3  4  2  0
  3  5  1  0
  5  6  2  0
  6  7  1  0
  7  8  2  0
  8  9  1  0
  9 10  1  0
 10 11  2  0
 10 12  1  0
 12 13  1  0
 13 14  1  0
 14 15  2  0
 15 16  1  0
 16 17  1  0
 16 18  2  0
 18 19  1  0
 19 20  1  0
 20 21  2  0
 21 22  1  0
 22 23  2  0
 23 24  1  0
 24 25  2  0
 19 26  2  0
 26 27  1  0
 27 28  1  0
  8 29  1  0
 29 30  2  0
 30  5  1  0
 27 12  2  0
 26 14  1  0
 25 20  1  0
M  END
>  <Binding energies>  (64) 
[-6.67]

>  <Ligand effiencies>  (64) 
[-0.20212121212121212]

>  <Interactions>  (64) 
["V-A:PRO:540:CA:4881, V-A:ILE:538:CB:4860, V-B:TYR:539:CE1:9847, V-A:ILE:369:CG2:3234, V-A:PRO:540:CD:4885, V-A:ILE:538:CG2:4861, V-A:PRO:540:CB:4883, V-A:ILE:369:CD1:3236, V-A:PRO:540:N:4882, V-A:ASP:366:CG:3210, V-A:LEU:475:CD2:4256, V-A:LEU:363:CD1:3186, V-B:TYR:539:CD1:9845, V-A:ASP:366:CB:3209, V-A:ALA:541:CB:4890, H-A:TYR:531:OH:4793, H-A:ASP:366:OD2:3212, V-A:ILE:538:CA:4858, V-A:LEU:373:CD1:3277, V-A:SER:385:CA:3404, V-A:PRO:540:CG:4884"]

$$$$
8b_Ghoteimi_2023
     RDKit          3D

 34 38  0  0  0  0  0  0  0  0999 V2000
  132.0530  116.4530   59.6710 C   0  0  0  0  0  0  0  0  0  0  0  0
  132.9560  117.2080   60.4720 O   0  0  0  0  0  0  0  0  0  0  0  0
  132.7330  118.5600   60.6460 C   0  0  0  0  0  0  0  0  0  0  0  0
  131.4210  118.9450   60.9160 C   0  0  0  0  0  0  0  0  0  0  0  0
  131.1020  120.2860   61.1050 C   0  0  0  0  0  0  0  0  0  0  0  0
  132.0890  121.2790   61.0290 C   0  0  0  0  0  0  0  0  0  0  0  0
  131.7510  122.7230   61.2300 C   0  0  0  0  0  0  0  0  0  0  0  0
  131.7630  123.3130   62.4980 C   0  0  0  0  0  0  0  0  0  0  0  0
  131.4440  124.6640   62.6590 C   0  0  0  0  0  0  0  0  0  0  0  0
  131.4570  125.2560   64.0170 C   0  0  0  0  0  0  0  0  0  0  0  0
  130.2580  125.5800   64.6530 C   0  0  0  0  0  0  0  0  0  0  0  0
  130.2710  126.1270   65.9340 C   0  0  0  0  0  0  0  0  0  0  0  0
  131.4780  126.3600   66.5940 C   0  0  0  0  0  0  0  0  0  0  0  0
  131.3950  126.9040   67.8610 O   0  0  0  0  0  0  0  0  0  0  0  0
  130.1970  127.5630   68.2560 C   0  0  0  0  0  0  0  0  0  0  0  0
  132.6830  126.0370   65.9490 C   0  0  0  0  0  0  0  0  0  0  0  0
  132.6680  125.4890   64.6690 C   0  0  0  0  0  0  0  0  0  0  0  0
  131.1170  125.4170   61.4990 C   0  0  0  0  0  0  0  0  0  0  0  0
  130.7540  126.7960   61.2990 C   0  0  0  0  0  0  0  0  0  0  0  0
  130.6630  127.6880   62.3370 N   0  0  0  0  0  0  0  0  0  0  0  0
  130.5090  127.1310   59.9590 C   0  0  0  0  0  0  0  0  0  0  0  0
  130.1260  128.4290   59.3990 C   0  0  0  0  0  0  0  0  0  0  0  0
  128.9510  128.8020   59.4220 O   0  0  0  0  0  0  0  0  0  0  0  0
  131.1420  129.1570   58.8700 N   0  0  0  0  0  0  0  0  0  0  0  0
  131.0660  130.4120   58.2820 C   0  0  0  0  0  0  0  0  0  0  0  0
  132.0960  130.9580   57.5180 C   0  0  0  0  0  0  0  0  0  0  0  0
  131.6350  132.1950   57.1280 C   0  0  0  0  0  0  0  0  0  0  0  0
  130.3920  132.3830   57.6300 O   0  0  0  0  0  0  0  0  0  0  0  0
  130.0410  131.2450   58.3590 N   0  0  0  0  0  0  0  0  0  0  0  0
  130.7260  125.7340   58.9030 S   0  0  0  0  0  0  0  0  0  0  0  0
  131.1420  124.7130   60.2600 C   0  0  0  0  0  0  0  0  0  0  0  0
  131.4430  123.4250   60.1060 N   0  0  0  0  0  0  0  0  0  0  0  0
  133.4070  120.8850   60.7610 C   0  0  0  0  0  0  0  0  0  0  0  0
  133.7290  119.5440   60.5700 C   0  0  0  0  0  0  0  0  0  0  0  0
  1  2  1  0
  2  3  1  0
  3  4  2  0
  4  5  1  0
  5  6  2  0
  6  7  1  0
  7  8  2  0
  8  9  1  0
  9 10  1  0
 10 11  2  0
 11 12  1  0
 12 13  2  0
 13 14  1  0
 14 15  1  0
 13 16  1  0
 16 17  2  0
  9 18  2  0
 18 19  1  0
 19 20  1  0
 19 21  2  0
 21 22  1  0
 22 23  2  0
 22 24  1  0
 24 25  1  0
 25 26  1  0
 26 27  2  0
 27 28  1  0
 28 29  1  0
 21 30  1  0
 30 31  1  0
 31 32  2  0
  6 33  1  0
 33 34  2  0
 34  3  1  0
 32  7  1  0
 17 10  1  0
 31 18  1  0
 29 25  2  0
M  END
>  <Binding energies>  (65) 
[-6.67]

>  <Ligand effiencies>  (65) 
[-0.18027027027027026]

>  <Interactions>  (65) 
["V-A:PRO:540:CA:4881, V-A:ARG:545:CZ:4924, V-B:TYR:539:CE1:9847, V-A:ILE:369:CG2:3234, V-A:PRO:540:CD:4885, V-A:PRO:540:CB:4883, V-A:PRO:540:N:4882, V-A:ASP:366:CG:3210, V-A:LEU:475:CD2:4256, V-B:TYR:539:CD1:9845, V-B:GLU:543:CD:9880, V-B:GLU:543:CG:9879, H-A:GLU:543:OE2:4908, V-B:GLU:543:CB:9878, V-A:HIS:456:CE1:4066, H-A:GLU:543:OE1:4907, V-A:GLU:543:CD:4906, V-A:GLU:543:CG:4905, H-A:HIS:456:NE2:4067, H-A:TYR:531:OH:4793, H-A:ASP:366:OD2:3212, H-A:ASP:366:OD1:3211, V-A:ARG:545:CG:4920, V-A:ARG:545:CD:4921, V-A:LEU:373:CD1:3277, V-A:SER:385:CA:3404, V-A:SER:385:CB:3406, V-A:SER:385:C:3402"]

$$$$
9d_Ghoteimi_2023
     RDKit          3D

 38 43  0  0  0  0  0  0  0  0999 V2000
  134.3270  124.0410   59.4430 C   0  0  0  0  0  0  0  0  0  0  0  0
  133.4700  122.9760   59.8310 O   0  0  0  0  0  0  0  0  0  0  0  0
  133.4640  122.5180   61.1100 C   0  0  0  0  0  0  0  0  0  0  0  0
  134.0350  121.4870   61.4760 O   0  0  0  0  0  0  0  0  0  0  0  0
  132.6920  123.3830   62.0280 C   0  0  0  0  0  0  0  0  0  0  0  0
  132.9230  123.2410   63.7710 S   0  0  0  0  0  0  0  0  0  0  0  0
  131.7670  124.5180   64.0680 C   0  0  0  0  0  0  0  0  0  0  0  0
  131.4970  124.9400   65.3020 N   0  0  0  0  0  0  0  0  0  0  0  0
  130.5970  125.9510   65.4250 C   0  0  0  0  0  0  0  0  0  0  0  0
  130.3280  126.4260   66.8180 C   0  0  0  0  0  0  0  0  0  0  0  0
  129.1270  126.1020   67.4580 C   0  0  0  0  0  0  0  0  0  0  0  0
  128.8660  126.5420   68.7530 C   0  0  0  0  0  0  0  0  0  0  0  0
  129.8040  127.3110   69.4610 C   0  0  0  0  0  0  0  0  0  0  0  0
  129.5490  127.7740   70.7560 N   0  0  0  0  0  0  0  0  0  0  0  0
  128.3000  127.4270   71.4640 C   0  0  0  0  0  0  0  0  0  0  0  0
  128.0310  128.2900   72.7150 C   0  0  0  0  0  0  0  0  0  0  0  0
  129.1440  128.2350   73.5910 O   0  0  0  0  0  0  0  0  0  0  0  0
  130.3180  128.7300   72.9700 C   0  0  0  0  0  0  0  0  0  0  0  0
  130.6590  127.8830   71.7250 C   0  0  0  0  0  0  0  0  0  0  0  0
  130.9990  127.6450   68.8080 C   0  0  0  0  0  0  0  0  0  0  0  0
  131.2580  127.2080   67.5120 C   0  0  0  0  0  0  0  0  0  0  0  0
  129.9480  126.5100   64.3220 C   0  0  0  0  0  0  0  0  0  0  0  0
  130.2140  126.0570   63.0250 C   0  0  0  0  0  0  0  0  0  0  0  0
  129.4760  126.6680   61.8880 C   0  0  0  0  0  0  0  0  0  0  0  0
  128.1100  126.4320   61.7170 C   0  0  0  0  0  0  0  0  0  0  0  0
  127.4180  127.0220   60.6620 C   0  0  0  0  0  0  0  0  0  0  0  0
  128.0720  127.8760   59.7590 C   0  0  0  0  0  0  0  0  0  0  0  0
  127.4040  128.4720   58.6880 N   0  0  0  0  0  0  0  0  0  0  0  0
  125.9290  128.4160   58.6420 C   0  0  0  0  0  0  0  0  0  0  0  0
  125.3120  129.4230   57.6480 C   0  0  0  0  0  0  0  0  0  0  0  0
  125.8680  129.2330   56.3550 O   0  0  0  0  0  0  0  0  0  0  0  0
  127.2760  129.4210   56.3560 C   0  0  0  0  0  0  0  0  0  0  0  0
  127.9400  128.4100   57.3150 C   0  0  0  0  0  0  0  0  0  0  0  0
  129.4440  128.1040   59.9410 C   0  0  0  0  0  0  0  0  0  0  0  0
  130.1350  127.5130   60.9950 C   0  0  0  0  0  0  0  0  0  0  0  0
  131.1850  125.0280   62.8700 C   0  0  0  0  0  0  0  0  0  0  0  0
  131.7490  124.3710   61.7190 C   0  0  0  0  0  0  0  0  0  0  0  0
  131.4090  124.7010   60.4320 N   0  0  0  0  0  0  0  0  0  0  0  0
  1  2  1  0
  2  3  1  0
  3  4  2  0
  3  5  1  0
  5  6  1  0
  6  7  1  0
  7  8  2  0
  8  9  1  0
  9 10  1  0
 10 11  2  0
 11 12  1  0
 12 13  2  0
 13 14  1  0
 14 15  1  0
 15 16  1  0
 16 17  1  0
 17 18  1  0
 18 19  1  0
 13 20  1  0
 20 21  2  0
  9 22  2  0
 22 23  1  0
 23 24  1  0
 24 25  2  0
 25 26  1  0
 26 27  2  0
 27 28  1  0
 28 29  1  0
 29 30  1  0
 30 31  1  0
 31 32  1  0
 32 33  1  0
 27 34  1  0
 34 35  2  0
 23 36  2  0
 36 37  1  0
 37 38  1  0
 37  5  2  0
 36  7  1  0
 21 10  1  0
 35 24  1  0
 19 14  1  0
 33 28  1  0
M  END
>  <Binding energies>  (66) 
[-5.62]

>  <Ligand effiencies>  (66) 
[-0.1405]

>  <Interactions>  (66) 
["V-A:GLY:454:CA:4046, V-A:ILE:369:CG2:3234, V-A:ILE:369:CD1:3236, H-A:TYR:484:OH:4345, V-A:ASP:366:CG:3210, V-A:LEU:475:CD2:4256, V-B:ASP:366:CG:8184, V-B:ASP:366:CB:8183, H-B:TYR:531:OH:9767, H-A:TYR:539:OH:4876, V-B:GLU:543:CD:9880, V-B:GLU:543:CG:9879, V-B:GLU:543:CB:9878, V-A:HIS:456:CE1:4066, V-A:ASP:366:CA:3207, V-A:ASP:366:CB:3209, V-B:HIS:456:CE1:9040, V-A:GLU:543:CD:4906, V-A:GLU:543:CG:4905, V-B:GLU:543:C:9874, V-B:HIS:456:CD2:9039, V-A:GLU:543:C:4900, V-A:LYS:547:CE:4948, V-A:GLY:544:C:4910, V-B:GLY:544:C:9884, H-A:LYS:547:NZ:4949, V-B:HIS:456:CG:9037, V-A:GLY:544:CA:4912, V-A:ILE:369:CB:3233, H-A:ASP:366:OD1:3211, V-A:MET:535:CE:4833, V-A:ILE:369:CG1:3235, V-A:ARG:545:CG:4920"]

$$$$
RR10_Rahimova_2017
     RDKit          3D

 34 38  0  0  0  0  0  0  0  0999 V2000
  132.0780  132.7150   56.7150 C   0  0  0  0  0  0  0  0  0  0  0  0
  131.3240  132.1940   57.9510 C   0  0  1  0  0  0  0  0  0  0  0  0
  130.1760  131.2340   57.5640 C   0  0  0  0  0  0  0  0  0  0  0  0
  129.4110  130.7510   58.8180 C   0  0  0  0  0  0  0  0  0  0  0  0
  130.3440  130.0440   59.8350 C   0  0  1  0  0  0  0  0  0  0  0  0
  130.8280  128.7660   59.2960 N   0  0  0  0  0  0  0  0  0  0  0  0
  130.2150  127.5760   59.4410 C   0  0  0  0  0  0  0  0  0  0  0  0
  129.1450  127.4410   60.0390 O   0  0  0  0  0  0  0  0  0  0  0  0
  130.9240  126.3510   58.8280 C   0  0  1  0  0  0  0  0  0  0  0  0
  131.6880  126.7850   57.5490 C   0  0  0  0  0  0  0  0  0  0  0  0
  132.4760  125.5790   56.9830 C   0  0  0  0  0  0  0  0  0  0  0  0
  133.3680  124.9020   58.0490 C   0  0  0  0  0  0  0  0  0  0  0  0
  132.5770  124.5760   59.2660 N   0  0  0  0  0  0  0  0  0  0  0  0
  133.4160  123.5350   60.4290 S   0  0  0  0  0  0  0  0  0  0  0  0
  134.7440  124.1090   60.6800 O   0  0  0  0  0  0  0  0  0  0  0  0
  133.2850  122.1470   59.9680 O   0  0  0  0  0  0  0  0  0  0  0  0
  132.4880  123.6990   61.9550 C   0  0  0  0  0  0  0  0  0  0  0  0
  131.5920  122.6900   62.3230 C   0  0  0  0  0  0  0  0  0  0  0  0
  130.8370  122.7590   63.4970 C   0  0  0  0  0  0  0  0  0  0  0  0
  131.0230  123.8910   64.2940 C   0  0  0  0  0  0  0  0  0  0  0  0
  130.4820  124.3180   65.4830 N   0  0  0  0  0  0  0  0  0  0  0  0
  131.0520  125.5350   65.7960 C   0  0  0  0  0  0  0  0  0  0  0  0
  130.7040  126.3240   67.0260 C   0  0  0  0  0  0  0  0  0  0  0  0
  131.6070  127.2610   67.5470 C   0  0  0  0  0  0  0  0  0  0  0  0
  131.2840  127.9950   68.6850 C   0  0  0  0  0  0  0  0  0  0  0  0
  130.0550  127.7960   69.3090 C   0  0  0  0  0  0  0  0  0  0  0  0
  129.1470  126.8700   68.8040 C   0  0  0  0  0  0  0  0  0  0  0  0
  129.4710  126.1350   67.6660 C   0  0  0  0  0  0  0  0  0  0  0  0
  131.9280  125.9150   64.8920 N   0  0  0  0  0  0  0  0  0  0  0  0
  131.9300  124.9220   63.9490 C   0  0  0  0  0  0  0  0  0  0  0  0
  132.6760  124.8240   62.7660 C   0  0  0  0  0  0  0  0  0  0  0  0
  131.9040  125.7550   59.8680 C   0  0  0  0  0  0  0  0  0  0  0  0
  131.5010  131.0130   60.2010 C   0  0  0  0  0  0  0  0  0  0  0  0
  132.2730  131.4910   58.9500 C   0  0  0  0  0  0  0  0  0  0  0  0
  2  1  1  6
  2  3  1  0
  3  4  1  0
  4  5  1  0
  5  6  1  6
  6  7  1  0
  7  8  2  0
  9  7  1  1
  9 10  1  0
 10 11  1  0
 11 12  1  0
 12 13  1  0
 13 14  1  0
 14 15  2  0
 14 16  2  0
 14 17  1  0
 17 18  2  0
 18 19  1  0
 19 20  2  0
 20 21  1  0
 21 22  1  0
 22 23  1  0
 23 24  2  0
 24 25  1  0
 25 26  2  0
 26 27  1  0
 27 28  2  0
 22 29  2  0
 29 30  1  0
 30 31  2  0
 13 32  1  0
  5 33  1  0
 33 34  1  0
 34  2  1  0
 32  9  1  0
 31 17  1  0
 30 20  1  0
 28 23  1  0
M  END
>  <Binding energies>  (67) 
[-8.95]

>  <Ligand effiencies>  (67) 
[-0.2486111111111111]

>  <Interactions>  (67) 
["V-A:PRO:540:CA:4881, H-A:ARG:545:NE:4922, V-A:ILE:538:CB:4860, V-B:ALA:541:CB:9864, V-A:ILE:369:CG2:3234, V-A:PRO:540:CD:4885, V-A:ILE:538:CG2:4861, V-A:PRO:540:CB:4883, V-A:ILE:369:CD1:3236, H-A:TYR:484:OH:4345, V-A:PRO:540:N:4882, V-A:ASP:366:CG:3210, V-A:LEU:475:CD2:4256, V-A:LEU:363:CD1:3186, H-A:ARG:545:NH2:4926, V-B:GLU:543:CD:9880, V-B:GLU:543:CG:9879, V-B:GLU:543:CB:9878, V-A:HIS:456:CE1:4066, V-A:ASP:366:CA:3207, V-A:ASP:366:CB:3209, H-B:GLU:543:OE1:9881, V-A:GLU:543:CB:4904, V-A:GLU:543:CD:4906, V-A:GLU:543:CG:4905, V-B:GLU:543:C:9874, V-A:GLU:543:C:4900, V-A:GLY:544:C:4910, H-A:TYR:531:OH:4793, V-A:TYR:531:CZ:4792, V-A:TYR:539:C:4865, H-A:ASP:366:OD2:3212, V-A:ASP:366:C:3205, H-A:ASP:366:OD1:3211, V-A:TYR:484:CZ:4344, V-A:TYR:484:CE2:4343, V-A:ARG:545:CG:4920, V-A:ARG:545:CD:4921"]

$$$$
RR12_Rahimova_2017
     RDKit          3D

 26 28  0  0  0  0  0  0  0  0999 V2000
  127.8910  126.4920   61.9470 C   0  0  0  0  0  0  0  0  0  0  0  0
  129.2130  125.7250   61.8030 C   0  0  0  0  0  0  0  0  0  0  0  0
  130.3950  126.4530   62.4690 C   0  0  0  0  0  0  0  0  0  0  0  0
  131.5980  125.6250   62.4360 N   0  0  0  0  0  0  0  0  0  0  0  0
  132.2930  125.1030   63.5150 C   0  0  0  0  0  0  0  0  0  0  0  0
  131.9210  125.3570   64.9660 C   0  0  0  0  0  0  0  0  0  0  0  0
  130.6310  124.6260   65.3780 C   0  0  0  0  0  0  0  0  0  0  0  0
  130.5980  123.1610   64.9020 C   0  0  0  0  0  0  0  0  0  0  0  0
  129.9660  122.9790   63.5960 N   0  0  0  0  0  0  0  0  0  0  0  0
  130.5110  122.3150   62.5600 C   0  0  0  0  0  0  0  0  0  0  0  0
  131.6240  121.7850   62.6080 O   0  0  0  0  0  0  0  0  0  0  0  0
  129.6540  122.2470   61.2900 C   0  0  0  0  0  0  0  0  0  0  0  0
  128.3660  122.8050   61.5540 O   0  0  0  0  0  0  0  0  0  0  0  0
  127.5150  123.0730   60.4980 C   0  0  0  0  0  0  0  0  0  0  0  0
  127.9910  122.7590   59.2230 C   0  0  0  0  0  0  0  0  0  0  0  0
  127.2050  122.9900   58.0980 C   0  0  0  0  0  0  0  0  0  0  0  0
  125.9330  123.5360   58.2460 C   0  0  0  0  0  0  0  0  0  0  0  0
  125.4430  123.8570   59.5100 C   0  0  0  0  0  0  0  0  0  0  0  0
  126.2310  123.6270   60.6350 C   0  0  0  0  0  0  0  0  0  0  0  0
  133.3230  124.3730   63.1660 N   0  0  0  0  0  0  0  0  0  0  0  0
  133.3110  124.3810   61.7990 C   0  0  0  0  0  0  0  0  0  0  0  0
  134.1870  123.7460   60.9040 C   0  0  0  0  0  0  0  0  0  0  0  0
  133.9570  123.9020   59.5370 C   0  0  0  0  0  0  0  0  0  0  0  0
  132.8900  124.6670   59.0650 C   0  0  0  0  0  0  0  0  0  0  0  0
  132.0020  125.3120   59.9280 C   0  0  0  0  0  0  0  0  0  0  0  0
  132.2340  125.1550   61.3010 C   0  0  0  0  0  0  0  0  0  0  0  0
  1  2  1  0
  2  3  1  0
  3  4  1  0
  4  5  1  0
  5  6  1  0
  6  7  1  0
  7  8  1  0
  8  9  1  0
  9 10  1  0
 10 11  2  0
 10 12  1  0
 12 13  1  0
 13 14  1  0
 14 15  2  0
 15 16  1  0
 16 17  2  0
 17 18  1  0
 18 19  2  0
  5 20  2  0
 20 21  1  0
 21 22  2  0
 22 23  1  0
 23 24  2  0
 24 25  1  0
 25 26  2  0
 26  4  1  0
 19 14  1  0
 26 21  1  0
M  END
>  <Binding energies>  (68) 
[-5.81]

>  <Ligand effiencies>  (68) 
[-0.21518518518518517]

>  <Interactions>  (68) 
["V-A:ARG:545:CZ:4924, V-B:ALA:541:CB:9864, V-B:TYR:539:CE1:9847, V-A:ILE:369:CG2:3234, V-A:ILE:369:CD1:3236, H-A:GLY:454:N:4047, V-A:ASP:366:CG:3210, V-A:LEU:475:CD2:4256, V-B:PRO:540:CA:9855, V-B:PRO:540:CB:9857, V-B:TYR:539:CD1:9845, V-B:PRO:540:N:9856, V-B:TYR:539:C:9839, V-B:GLU:543:CD:9880, V-B:GLU:543:CB:9878, V-A:ASP:366:CA:3207, V-A:ASP:366:CB:3209, H-B:GLU:543:OE1:9881, H-B:ALA:541:N:9863, V-A:ILE:369:CB:3233, V-B:PRO:540:C:9853, V-A:TYR:484:CZ:4344, V-A:TYR:484:CE2:4343"]

$$$$
RR13_Rahimova_2017
     RDKit          3D

 48 54  0  0  0  0  0  0  0  0999 V2000
  132.9250  125.3430   64.1070 Cl  0  0  0  0  0  0  0  0  0  0  0  0
  131.6010  124.3770   63.5490 C   0  0  0  0  0  0  0  0  0  0  0  0
  131.1010  123.3990   64.4120 C   0  0  0  0  0  0  0  0  0  0  0  0
  130.0520  122.5750   64.0140 C   0  0  0  0  0  0  0  0  0  0  0  0
  129.4960  122.7220   62.7460 C   0  0  0  0  0  0  0  0  0  0  0  0
  129.9890  123.6960   61.8800 C   0  0  0  0  0  0  0  0  0  0  0  0
  131.0390  124.5450   62.2670 C   0  0  0  0  0  0  0  0  0  0  0  0
  131.5840  125.5990   61.2790 C   0  0  1  0  0  0  0  0  0  0  0  0
  132.2990  124.9290   60.0960 C   0  0  0  0  0  0  0  0  0  0  0  0
  132.1220  125.1940   58.8200 N   0  0  0  0  0  0  0  0  0  0  0  0
  132.9610  124.3240   58.1300 N   0  0  0  0  0  0  0  0  0  0  0  0
  133.6360  123.5110   59.0200 N   0  0  0  0  0  0  0  0  0  0  0  0
  133.1920  123.8870   60.2240 N   0  0  0  0  0  0  0  0  0  0  0  0
  133.7200  123.2650   61.4330 C   0  0  0  0  0  0  0  0  0  0  0  0
  134.2750  121.8640   61.1130 C   0  0  0  0  0  0  0  0  0  0  0  0
  133.1720  120.8240   60.9870 C   0  0  0  0  0  0  0  0  0  0  0  0
  131.8460  121.1790   61.2470 C   0  0  0  0  0  0  0  0  0  0  0  0
  130.8380  120.2240   61.1400 C   0  0  0  0  0  0  0  0  0  0  0  0
  131.1600  118.9180   60.7730 C   0  0  0  0  0  0  0  0  0  0  0  0
  132.4800  118.5590   60.5140 C   0  0  0  0  0  0  0  0  0  0  0  0
  133.4890  119.5130   60.6220 C   0  0  0  0  0  0  0  0  0  0  0  0
  130.5630  126.5810   60.8400 N   0  0  0  0  0  0  0  0  0  0  0  0
  131.0590  127.9580   61.0190 C   0  0  0  0  0  0  0  0  0  0  0  0
  130.0540  128.9820   60.4410 C   0  0  0  0  0  0  0  0  0  0  0  0
  128.7600  128.8890   61.1360 N   0  0  0  0  0  0  0  0  0  0  0  0
  127.7920  129.9090   60.6700 C   0  0  1  0  0  0  0  0  0  0  0  0
  126.5410  130.0930   61.5570 C   0  0  0  0  0  0  0  0  0  0  0  0
  126.6780  129.8140   62.9230 C   0  0  0  0  0  0  0  0  0  0  0  0
  125.6060  129.9690   63.8020 C   0  0  0  0  0  0  0  0  0  0  0  0
  124.3730  130.4030   63.3220 C   0  0  0  0  0  0  0  0  0  0  0  0
  124.2110  130.6690   61.9660 C   0  0  0  0  0  0  0  0  0  0  0  0
  125.2780  130.5130   61.0770 C   0  0  0  0  0  0  0  0  0  0  0  0
  124.9570  130.8040   59.4000 Cl  0  0  0  0  0  0  0  0  0  0  0  0
  128.4390  131.2660   60.3850 C   0  0  0  0  0  0  0  0  0  0  0  0
  129.0040  132.0430   61.2790 N   0  0  0  0  0  0  0  0  0  0  0  0
  129.4680  133.1540   60.5810 N   0  0  0  0  0  0  0  0  0  0  0  0
  129.1830  133.0210   59.2380 N   0  0  0  0  0  0  0  0  0  0  0  0
  128.5660  131.8380   59.1370 N   0  0  0  0  0  0  0  0  0  0  0  0
  128.0930  131.3700   57.8390 C   0  0  0  0  0  0  0  0  0  0  0  0
  128.9010  132.0260   56.7040 C   0  0  0  0  0  0  0  0  0  0  0  0
  130.4010  131.8740   56.9050 C   0  0  0  0  0  0  0  0  0  0  0  0
  131.2710  132.8620   56.4360 C   0  0  0  0  0  0  0  0  0  0  0  0
  132.6440  132.7270   56.6270 C   0  0  0  0  0  0  0  0  0  0  0  0
  133.1420  131.6030   57.2840 C   0  0  0  0  0  0  0  0  0  0  0  0
  132.2780  130.6150   57.7540 C   0  0  0  0  0  0  0  0  0  0  0  0
  130.9050  130.7500   57.5650 C   0  0  0  0  0  0  0  0  0  0  0  0
  128.2660  127.5120   60.9500 C   0  0  0  0  0  0  0  0  0  0  0  0
  129.2690  126.4940   61.5390 C   0  0  0  0  0  0  0  0  0  0  0  0
  1  2  1  0
  2  3  2  0
  3  4  1  0
  4  5  2  0
  5  6  1  0
  6  7  2  0
  7  8  1  0
  8  9  1  0
  9 10  2  0
 10 11  1  0
 11 12  2  0
 12 13  1  0
 13 14  1  0
 14 15  1  0
 15 16  1  0
 16 17  2  0
 17 18  1  0
 18 19  2  0
 19 20  1  0
 20 21  2  0
  8 22  1  6
 22 23  1  0
 23 24  1  0
 24 25  1  0
 26 25  1  1
 26 27  1  0
 27 28  2  0
 28 29  1  0
 29 30  2  0
 30 31  1  0
 31 32  2  0
 32 33  1  0
 26 34  1  0
 34 35  2  0
 35 36  1  0
 36 37  2  0
 37 38  1  0
 38 39  1  0
 39 40  1  0
 40 41  1  0
 41 42  2  0
 42 43  1  0
 43 44  2  0
 44 45  1  0
 45 46  2  0
 25 47  1  0
 47 48  1  0
  7  2  1  0
 13  9  1  0
 21 16  1  0
 48 22  1  0
 32 27  1  0
 38 34  1  0
 46 41  1  0
M  END
>  <Binding energies>  (69) 
[-12.62]

>  <Ligand effiencies>  (69) 
[-0.26291666666666663]

>  <Interactions>  (69) 
["V-A:ARG:545:CZ:4924, V-A:TYR:531:CE2:4791, V-A:ILE:538:CB:4860, V-B:ALA:541:CB:9864, V-B:TYR:539:CE1:9847, V-A:ILE:369:CG2:3234, V-A:PRO:540:CD:4885, V-A:ILE:538:CG2:4861, V-A:PRO:540:CB:4883, V-B:ARG:545:CZ:9898, V-A:ILE:369:CD1:3236, V-A:LEU:363:CA:3182, V-A:PRO:540:N:4882, V-B:ILE:369:CD1:8210, V-A:ASP:366:CG:3210, V-A:LEU:475:CD2:4256, V-A:LEU:363:CD1:3186, V-A:TYR:539:CE1:4873, V-B:ASP:366:CG:8184, V-B:TYR:539:CD1:9845, V-A:TYR:539:CD1:4871, V-A:ASP:366:CB:3209, V-A:TYR:539:CZ:4875, H-B:TYR:539:OH:9850, V-A:ILE:369:CB:3233, V-A:MET:535:CE:4833, V-A:TYR:539:CE2:4874, V-A:TYR:484:CZ:4344, V-A:TYR:484:CE2:4343, V-A:ILE:369:CG1:3235, V-A:ILE:538:CA:4858, H-A:ALA:541:N:4889, V-A:LEU:373:CD1:3277, V-A:SER:385:CA:3404, V-A:SER:385:CB:3406, V-A:SER:385:C:3402, V-A:PRO:540:CG:4884, V-A:ILE:538:C:4856"]

$$$$
RR14_Rahimova_2017
     RDKit          3D

 39 43  0  0  0  0  0  0  0  0999 V2000
  132.8230  125.7170   65.7770 C   0  0  0  0  0  0  0  0  0  0  0  0
  133.2730  125.0020   64.6310 O   0  0  0  0  0  0  0  0  0  0  0  0
  132.3450  124.5450   63.7160 C   0  0  0  0  0  0  0  0  0  0  0  0
  131.6790  123.3630   64.0410 C   0  0  0  0  0  0  0  0  0  0  0  0
  130.7440  122.8130   63.1690 C   0  0  0  0  0  0  0  0  0  0  0  0
  130.4690  123.4430   61.9540 C   0  0  0  0  0  0  0  0  0  0  0  0
  129.4950  122.8100   60.9680 C   0  0  0  0  0  0  0  0  0  0  0  0
  128.1260  123.3050   61.1080 N   0  0  0  0  0  0  0  0  0  0  0  0
  127.3380  122.8460   62.0870 N   0  0  0  0  0  0  0  0  0  0  0  0
  126.1330  123.4950   61.9020 N   0  0  0  0  0  0  0  0  0  0  0  0
  126.2090  124.3390   60.7990 N   0  0  0  0  0  0  0  0  0  0  0  0
  127.4270  124.2020   60.3290 C   0  0  0  0  0  0  0  0  0  0  0  0
  127.9790  124.9130   59.1010 C   0  0  0  0  0  0  0  0  0  0  0  0
  128.3740  126.3020   59.3860 N   0  0  0  0  0  0  0  0  0  0  0  0
  129.3720  126.7960   58.4270 C   0  0  0  0  0  0  0  0  0  0  0  0
  129.0300  128.1870   57.8500 C   0  0  0  0  0  0  0  0  0  0  0  0
  129.9930  129.3020   58.3090 C   0  0  0  0  0  0  0  0  0  0  0  0
  130.0340  130.4470   57.3940 N   0  0  0  0  0  0  0  0  0  0  0  0
  131.3820  131.0300   57.3650 C   0  0  0  0  0  0  0  0  0  0  0  0
  131.4460  132.2710   56.4500 C   0  0  0  0  0  0  0  0  0  0  0  0
  130.4570  133.2180   56.8390 O   0  0  0  0  0  0  0  0  0  0  0  0
  129.1400  132.6860   56.7580 C   0  0  0  0  0  0  0  0  0  0  0  0
  129.0050  131.4580   57.6840 C   0  0  0  0  0  0  0  0  0  0  0  0
  127.1910  127.1740   59.3930 C   0  0  0  0  0  0  0  0  0  0  0  0
  126.8820  127.8760   60.7130 C   0  0  0  0  0  0  0  0  0  0  0  0
  126.0890  128.9740   60.7530 C   0  0  0  0  0  0  0  0  0  0  0  0
  125.8070  129.6950   62.0110 C   0  0  0  0  0  0  0  0  0  0  0  0
  124.9750  130.8240   62.0920 C   0  0  0  0  0  0  0  0  0  0  0  0
  124.2870  131.3980   60.8600 C   0  0  0  0  0  0  0  0  0  0  0  0
  124.7720  131.4320   63.3340 C   0  0  0  0  0  0  0  0  0  0  0  0
  125.3840  130.9290   64.4810 C   0  0  0  0  0  0  0  0  0  0  0  0
  126.2130  129.8050   64.4110 C   0  0  0  0  0  0  0  0  0  0  0  0
  126.8650  129.2780   65.6830 C   0  0  0  0  0  0  0  0  0  0  0  0
  126.4230  129.1870   63.1690 C   0  0  0  0  0  0  0  0  0  0  0  0
  127.2530  128.0520   63.0500 N   0  0  0  0  0  0  0  0  0  0  0  0
  127.5400  127.3600   61.9190 C   0  0  0  0  0  0  0  0  0  0  0  0
  128.2970  126.3910   61.9560 O   0  0  0  0  0  0  0  0  0  0  0  0
  131.1070  124.6420   61.6320 C   0  0  0  0  0  0  0  0  0  0  0  0
  132.0430  125.1900   62.5050 C   0  0  0  0  0  0  0  0  0  0  0  0
  1  2  1  0
  2  3  1  0
  3  4  2  0
  4  5  1  0
  5  6  2  0
  6  7  1  0
  7  8  1  0
  8  9  1  0
  9 10  2  0
 10 11  1  0
 11 12  2  0
 12 13  1  0
 13 14  1  0
 14 15  1  0
 15 16  1  0
 16 17  1  0
 17 18  1  0
 18 19  1  0
 19 20  1  0
 20 21  1  0
 21 22  1  0
 22 23  1  0
 14 24  1  0
 24 25  1  0
 25 26  2  0
 26 27  1  0
 27 28  2  0
 28 29  1  0
 28 30  1  0
 30 31  2  0
 31 32  1  0
 32 33  1  0
 32 34  2  0
 34 35  1  0
 35 36  1  0
 36 37  2  0
  6 38  1  0
 38 39  2  0
 39  3  1  0
 12  8  1  0
 23 18  1  0
 36 25  1  0
 34 27  1  0
M  END
>  <Binding energies>  (70) 
[-9.83]

>  <Ligand effiencies>  (70) 
[-0.24575]

>  <Interactions>  (70) 
["V-A:ARG:545:CZ:4924, H-A:ARG:545:NE:4922, V-A:ILE:538:CB:4860, V-B:ALA:541:CB:9864, V-B:ILE:369:CG2:8208, V-A:ILE:538:CG2:4861, V-B:ARG:545:CZ:9898, H-A:GLY:454:N:4047, H-A:TYR:484:OH:4345, V-B:ILE:369:CD1:8210, V-A:LEU:475:CD2:4256, V-A:TYR:539:CE1:4873, V-B:ASP:366:CG:8184, V-A:TYR:539:CD1:4871, V-B:GLU:543:CD:9880, H-A:GLU:543:OE2:4908, V-A:HIS:456:CE1:4066, H-B:GLU:543:OE1:9881, H-B:GLU:543:OE2:9882, V-A:TYR:539:CZ:4875, V-A:GLU:543:CD:4906, H-B:ALA:541:N:9863, V-B:GLY:454:CA:9020, H-A:TYR:531:OH:4793, H-A:TYR:539:N:4868, V-A:TYR:539:CG:4870, V-A:TYR:539:CE2:4874, V-A:TYR:539:CD2:4872, V-A:ARG:545:CG:4920, V-A:ARG:545:CD:4921"]

$$$$
RR15_Rahimova_2017
     RDKit          3D

 45 49  0  0  0  0  0  0  0  0999 V2000
  124.2090  132.9750   61.9510 C   0  0  0  0  0  0  0  0  0  0  0  0
  124.9020  132.1980   62.9210 O   0  0  0  0  0  0  0  0  0  0  0  0
  125.5180  131.0190   62.5370 C   0  0  0  0  0  0  0  0  0  0  0  0
  126.0600  130.8050   61.2610 C   0  0  0  0  0  0  0  0  0  0  0  0
  126.6650  129.5930   60.9380 C   0  0  0  0  0  0  0  0  0  0  0  0
  126.7420  128.5600   61.8780 C   0  0  0  0  0  0  0  0  0  0  0  0
  127.3890  127.2480   61.5270 C   0  0  0  0  0  0  0  0  0  0  0  0
  128.1920  127.0960   60.4830 N   0  0  0  0  0  0  0  0  0  0  0  0
  128.5760  125.7710   60.4850 N   0  0  0  0  0  0  0  0  0  0  0  0
  127.9820  125.2740   61.5710 N   0  0  0  0  0  0  0  0  0  0  0  0
  127.9890  123.8430   61.8710 C   0  0  0  0  0  0  0  0  0  0  0  0
  128.5400  122.9440   60.7360 C   0  0  0  0  0  0  0  0  0  0  0  0
  127.7750  122.1310   60.2140 O   0  0  0  0  0  0  0  0  0  0  0  0
  129.8360  123.0930   60.3230 N   0  0  0  0  0  0  0  0  0  0  0  0
  130.1620  123.7330   59.0330 C   0  0  0  0  0  0  0  0  0  0  0  0
  129.1860  123.3630   57.8960 C   0  0  0  0  0  0  0  0  0  0  0  0
  127.9940  124.3340   57.7210 C   0  0  0  0  0  0  0  0  0  0  0  0
  126.6840  123.6910   57.8550 N   0  0  0  0  0  0  0  0  0  0  0  0
  125.6560  124.5670   58.4370 C   0  0  0  0  0  0  0  0  0  0  0  0
  124.2780  123.8720   58.4760 C   0  0  0  0  0  0  0  0  0  0  0  0
  123.9220  123.4120   57.1770 O   0  0  0  0  0  0  0  0  0  0  0  0
  124.8640  122.4820   56.6530 C   0  0  0  0  0  0  0  0  0  0  0  0
  126.2580  123.1410   56.5610 C   0  0  0  0  0  0  0  0  0  0  0  0
  131.0150  122.8110   61.1980 C   0  0  2  0  0  0  0  0  0  0  0  0
  131.3080  121.2920   61.4020 C   0  0  0  0  0  0  0  0  0  0  0  0
  132.4210  120.9000   61.7520 O   0  0  0  0  0  0  0  0  0  0  0  0
  130.2630  120.4670   61.2100 N   0  0  0  0  0  0  0  0  0  0  0  0
  130.2720  119.0270   61.4410 C   0  0  0  0  0  0  0  0  0  0  0  0
  131.0240  118.2880   60.3190 C   0  0  2  0  0  0  0  0  0  0  0  0
  131.0120  116.7520   60.4160 C   0  0  0  0  0  0  0  0  0  0  0  0
  132.3670  116.3970   60.9780 C   0  0  0  0  0  0  0  0  0  0  0  0
  133.2370  117.4830   60.3690 C   0  0  0  0  0  0  0  0  0  0  0  0
  132.4080  118.6350   60.4700 O   0  0  0  0  0  0  0  0  0  0  0  0
  130.9860  123.6930   62.4410 C   0  0  0  0  0  0  0  0  0  0  0  0
  130.7060  123.0880   63.6730 C   0  0  0  0  0  0  0  0  0  0  0  0
  130.6650  123.8440   64.8410 C   0  0  0  0  0  0  0  0  0  0  0  0
  130.9060  125.2130   64.7860 C   0  0  0  0  0  0  0  0  0  0  0  0
  130.8680  125.9470   65.9210 F   0  0  0  0  0  0  0  0  0  0  0  0
  131.1880  125.8320   63.5710 C   0  0  0  0  0  0  0  0  0  0  0  0
  131.2280  125.0760   62.4030 C   0  0  0  0  0  0  0  0  0  0  0  0
  127.2030  126.1430   62.2260 N   0  0  0  0  0  0  0  0  0  0  0  0
  126.2020  128.7770   63.1520 C   0  0  0  0  0  0  0  0  0  0  0  0
  125.5920  129.9960   63.4940 C   0  0  0  0  0  0  0  0  0  0  0  0
  125.0470  130.2590   64.7380 O   0  0  0  0  0  0  0  0  0  0  0  0
  125.4560  129.4870   65.8630 C   0  0  0  0  0  0  0  0  0  0  0  0
  1  2  1  0
  2  3  1  0
  3  4  2  0
  4  5  1  0
  5  6  2  0
  6  7  1  0
  7  8  1  0
  8  9  2  0
  9 10  1  0
 10 11  1  0
 11 12  1  0
 12 13  2  0
 12 14  1  0
 14 15  1  0
 15 16  1  0
 16 17  1  0
 17 18  1  0
 18 19  1  0
 19 20  1  0
 20 21  1  0
 21 22  1  0
 22 23  1  0
 24 14  1  1
 24 25  1  0
 25 26  2  0
 25 27  1  0
 27 28  1  0
 29 28  1  1
 29 30  1  0
 30 31  1  0
 31 32  1  0
 32 33  1  0
 24 34  1  0
 34 35  2  0
 35 36  1  0
 36 37  2  0
 37 38  1  0
 37 39  1  0
 39 40  2  0
 10 41  1  0
  6 42  1  0
 42 43  2  0
 43 44  1  0
 44 45  1  0
 43  3  1  0
 41  7  2  0
 23 18  1  0
 33 29  1  0
 40 34  1  0
M  END
>  <Binding energies>  (71) 
[-8.09]

>  <Ligand effiencies>  (71) 
[-0.1758695652173913]

>  <Interactions>  (71) 
["H-B:ARG:545:NH2:9900, V-B:ALA:541:CB:9864, V-B:TYR:539:CE1:9847, V-B:ILE:369:CG2:8208, V-B:ARG:545:CZ:9898, V-B:ILE:369:CD1:8210, V-A:LEU:475:CD2:4256, V-B:PRO:540:CA:9855, V-B:ILE:538:CG2:9835, V-B:ASP:366:CG:8184, V-B:PRO:540:CB:9857, H-B:TYR:484:OH:9319, V-B:PRO:540:CD:9859, V-B:ILE:538:CB:9834, V-B:LEU:363:CD1:8160, V-B:TYR:539:CD1:9845, V-B:LEU:363:CA:8156, H-B:GLY:454:N:9021, V-B:PRO:540:N:9856, V-B:TYR:539:CG:9844, V-B:GLU:543:CD:9880, V-B:GLU:543:CB:9878, V-A:HIS:456:CE1:4066, V-B:TYR:539:CZ:9849, V-B:HIS:456:CE1:9040, V-A:GLU:543:CD:4906, H-B:ALA:541:N:9863, V-B:PRO:540:CG:9858, V-A:PRO:482:CB:4323, V-A:TYR:484:CZ:4344, V-A:TYR:484:CE2:4343, V-A:PRO:482:CG:4324, V-B:TYR:539:CB:9843, H-B:TYR:539:O:9840, V-A:LEU:373:CD1:3277, V-A:SER:385:CA:3404, V-A:SER:385:CB:3406, V-B:VAL:344:CG1:7972, V-B:ARG:545:CG:9894, V-B:ARG:545:CD:9895"]

$$$$
RR17_Rahimova_2017
     RDKit          3D

 38 41  0  0  0  0  0  0  0  0999 V2000
  131.3170  124.9910   74.2670 C   0  0  0  0  0  0  0  0  0  0  0  0
  131.0790  126.4900   74.4730 C   0  0  0  0  0  0  0  0  0  0  0  0
  129.8030  126.8290   73.9390 O   0  0  0  0  0  0  0  0  0  0  0  0
  129.6700  127.0340   72.5780 C   0  0  0  0  0  0  0  0  0  0  0  0
  130.8270  127.3920   71.8870 C   0  0  0  0  0  0  0  0  0  0  0  0
  130.7910  127.6200   70.5150 C   0  0  0  0  0  0  0  0  0  0  0  0
  129.5900  127.4950   69.8020 C   0  0  0  0  0  0  0  0  0  0  0  0
  129.5820  127.7460   68.3220 C   0  0  0  0  0  0  0  0  0  0  0  0
  128.6850  128.3850   67.7640 O   0  0  0  0  0  0  0  0  0  0  0  0
  130.7510  127.1520   67.5040 C   0  0  0  0  0  0  0  0  0  0  0  0
  130.2220  125.7350   66.4760 S   0  0  0  0  0  0  0  0  0  0  0  0
  131.6990  125.4740   65.5340 C   0  0  0  0  0  0  0  0  0  0  0  0
  132.9170  125.7490   65.9380 N   0  0  0  0  0  0  0  0  0  0  0  0
  133.7930  125.3950   64.9200 N   0  0  0  0  0  0  0  0  0  0  0  0
  133.0710  124.9160   63.9390 C   0  0  0  0  0  0  0  0  0  0  0  0
  133.6350  124.3960   62.6250 C   0  0  0  0  0  0  0  0  0  0  0  0
  132.6370  123.7690   61.7610 N   0  0  0  0  0  0  0  0  0  0  0  0
  132.6190  122.3960   61.4580 C   0  0  0  0  0  0  0  0  0  0  0  0
  133.8420  121.7250   61.4450 C   0  0  0  0  0  0  0  0  0  0  0  0
  133.8970  120.3660   61.1480 C   0  0  0  0  0  0  0  0  0  0  0  0
  132.7250  119.6600   60.8640 C   0  0  0  0  0  0  0  0  0  0  0  0
  132.8030  118.1700   60.5330 C   0  0  0  0  0  0  0  0  0  0  0  0
  132.6270  117.4030   61.6120 F   0  0  0  0  0  0  0  0  0  0  0  0
  131.8690  117.8420   59.6390 F   0  0  0  0  0  0  0  0  0  0  0  0
  134.0020  117.8990   60.0180 F   0  0  0  0  0  0  0  0  0  0  0  0
  131.4960  120.3290   60.8840 C   0  0  0  0  0  0  0  0  0  0  0  0
  131.4430  121.6870   61.1820 C   0  0  0  0  0  0  0  0  0  0  0  0
  131.7290  124.9490   64.2580 N   0  0  0  0  0  0  0  0  0  0  0  0
  130.6480  124.5150   63.4760 C   0  0  0  0  0  0  0  0  0  0  0  0
  130.2030  123.1980   63.5880 C   0  0  0  0  0  0  0  0  0  0  0  0
  129.1330  122.7670   62.8090 C   0  0  0  0  0  0  0  0  0  0  0  0
  128.5040  123.6520   61.9170 C   0  0  0  0  0  0  0  0  0  0  0  0
  127.4380  123.3130   61.1070 O   0  0  0  0  0  0  0  0  0  0  0  0
  126.1750  123.9310   61.3270 C   0  0  0  0  0  0  0  0  0  0  0  0
  128.9650  124.9660   61.8170 C   0  0  0  0  0  0  0  0  0  0  0  0
  130.0340  125.4040   62.5940 C   0  0  0  0  0  0  0  0  0  0  0  0
  128.4270  127.1330   70.4980 C   0  0  0  0  0  0  0  0  0  0  0  0
  128.4660  126.9050   71.8710 C   0  0  0  0  0  0  0  0  0  0  0  0
  1  2  1  0
  2  3  1  0
  3  4  1  0
  4  5  2  0
  5  6  1  0
  6  7  2  0
  7  8  1  0
  8  9  2  0
  8 10  1  0
 10 11  1  0
 11 12  1  0
 12 13  2  0
 13 14  1  0
 14 15  2  0
 15 16  1  0
 16 17  1  0
 17 18  1  0
 18 19  2  0
 19 20  1  0
 20 21  2  0
 21 22  1  0
 22 23  1  0
 22 24  1  0
 22 25  1  0
 21 26  1  0
 26 27  2  0
 15 28  1  0
 28 29  1  0
 29 30  2  0
 30 31  1  0
 31 32  2  0
 32 33  1  0
 33 34  1  0
 32 35  1  0
 35 36  2  0
  7 37  1  0
 37 38  2  0
 38  4  1  0
 28 12  1  0
 36 29  1  0
 27 18  1  0
M  END
>  <Binding energies>  (72) 
[-8.78]

>  <Ligand effiencies>  (72) 
[-0.2251282051282051]

>  <Interactions>  (72) 
["V-A:ARG:545:CZ:4924, H-A:ARG:545:NE:4922, V-B:ALA:541:CB:9864, V-B:TYR:539:CE1:9847, V-A:ILE:369:CG2:3234, V-A:ILE:369:CD1:3236, H-A:GLY:454:N:4047, H-A:TYR:484:OH:4345, V-A:LEU:475:CD2:4256, V-B:PRO:540:CA:9855, H-A:ARG:545:NH2:4926, V-B:TYR:539:CD1:9845, V-B:TYR:539:CG:9844, V-B:GLU:543:CD:9880, V-A:HIS:456:CE1:4066, V-B:HIS:456:CE1:9040, V-A:GLU:543:CD:4906, V-A:GLU:543:CG:4905, V-B:GLU:543:C:9874, V-B:GLY:544:CA:9886, V-A:GLU:543:C:4900, V-A:LYS:547:CE:4948, V-A:GLY:544:C:4910, V-A:HIS:456:CG:4063, V-B:GLY:544:C:9884, V-A:HIS:456:CD2:4065, H-A:LYS:547:NZ:4949, V-A:HIS:456:CB:4062, H-B:LYS:547:NZ:9923, V-A:GLY:544:CA:4912, H-B:HIS:456:NE2:9041, H-B:ALA:541:N:9863, V-B:TYR:539:CB:9843, V-A:ARG:545:CG:4920, V-B:ALA:541:CA:9862, V-A:LEU:373:CD1:3277, V-A:SER:385:CA:3404, V-A:SER:385:CB:3406, V-A:SER:385:C:3402, V-A:GLY:453:CA:4041, V-A:LEU:475:CG:4254, V-A:VAL:384:C:3394, V-A:LEU:373:CG:3276"]

$$$$
RR19_Rahimova_2017
     RDKit          3D

 46 51  0  0  0  0  0  0  0  0999 V2000
  133.4030  124.0440   58.9440 O   0  0  0  0  0  0  0  0  0  0  0  0
  132.4490  124.4260   59.6270 C   0  0  0  0  0  0  0  0  0  0  0  0
  131.5550  125.3870   59.2800 N   0  0  0  0  0  0  0  0  0  0  0  0
  131.2860  126.0310   58.0980 C   0  0  0  0  0  0  0  0  0  0  0  0
  131.8940  125.5980   56.5780 S   0  0  0  0  0  0  0  0  0  0  0  0
  130.4420  127.0830   58.3530 N   0  0  0  0  0  0  0  0  0  0  0  0
  129.7640  127.9410   57.5490 C   0  0  0  0  0  0  0  0  0  0  0  0
  129.6190  127.8390   56.3280 O   0  0  0  0  0  0  0  0  0  0  0  0
  129.1570  129.1550   58.2950 C   0  0  2  0  0  0  0  0  0  0  0  0
  128.3550  130.1410   57.3950 C   0  0  0  0  0  0  0  0  0  0  0  0
  126.8480  130.1160   57.5910 C   0  0  0  0  0  0  0  0  0  0  0  0
  126.2690  130.5260   58.8110 C   0  0  0  0  0  0  0  0  0  0  0  0
  124.8880  130.5720   58.9440 C   0  0  0  0  0  0  0  0  0  0  0  0
  124.0690  130.2330   57.8740 C   0  0  0  0  0  0  0  0  0  0  0  0
  124.6250  129.8560   56.6580 C   0  0  0  0  0  0  0  0  0  0  0  0
  126.0030  129.8060   56.5030 C   0  0  0  0  0  0  0  0  0  0  0  0
  130.1880  129.8660   59.1000 N   0  0  0  0  0  0  0  0  0  0  0  0
  130.1330  129.8870   60.4630 C   0  0  0  0  0  0  0  0  0  0  0  0
  129.2690  129.3840   61.1830 O   0  0  0  0  0  0  0  0  0  0  0  0
  131.3360  130.6390   60.8960 C   0  0  0  0  0  0  0  0  0  0  0  0
  131.7940  130.9760   62.1700 C   0  0  0  0  0  0  0  0  0  0  0  0
  132.9870  131.6980   62.2850 C   0  0  0  0  0  0  0  0  0  0  0  0
  133.7000  132.0700   61.1360 C   0  0  0  0  0  0  0  0  0  0  0  0
  133.2240  131.7210   59.8670 C   0  0  0  0  0  0  0  0  0  0  0  0
  132.0320  131.0020   59.7750 C   0  0  0  0  0  0  0  0  0  0  0  0
  131.2930  130.4900   58.5940 C   0  0  0  0  0  0  0  0  0  0  0  0
  131.6180  130.5990   57.4110 O   0  0  0  0  0  0  0  0  0  0  0  0
  132.2060  123.7970   61.0250 C   0  0  2  0  0  0  0  0  0  0  0  0
  133.2290  124.2500   62.1060 C   0  0  0  0  0  0  0  0  0  0  0  0
  132.6050  124.5500   63.4570 C   0  0  0  0  0  0  0  0  0  0  0  0
  133.2790  125.3780   64.3810 C   0  0  0  0  0  0  0  0  0  0  0  0
  132.6620  125.7340   65.5730 C   0  0  0  0  0  0  0  0  0  0  0  0
  131.3720  125.3020   65.8510 C   0  0  0  0  0  0  0  0  0  0  0  0
  130.6810  124.5190   64.9340 C   0  0  0  0  0  0  0  0  0  0  0  0
  131.2800  124.1510   63.7360 C   0  0  0  0  0  0  0  0  0  0  0  0
  132.0700  122.3130   60.9890 N   0  0  0  0  0  0  0  0  0  0  0  0
  133.1540  121.4970   60.8590 C   0  0  0  0  0  0  0  0  0  0  0  0
  134.3320  121.8340   60.7400 O   0  0  0  0  0  0  0  0  0  0  0  0
  132.6120  120.1150   60.8930 C   0  0  0  0  0  0  0  0  0  0  0  0
  133.2530  118.8790   60.7960 C   0  0  0  0  0  0  0  0  0  0  0  0
  132.4780  117.7160   60.8630 C   0  0  0  0  0  0  0  0  0  0  0  0
  131.0890  117.8010   61.0260 C   0  0  0  0  0  0  0  0  0  0  0  0
  130.4650  119.0500   61.1240 C   0  0  0  0  0  0  0  0  0  0  0  0
  131.2560  120.1980   61.0520 C   0  0  0  0  0  0  0  0  0  0  0  0
  130.8920  121.6340   61.1260 C   0  0  0  0  0  0  0  0  0  0  0  0
  129.7680  122.1120   61.2770 O   0  0  0  0  0  0  0  0  0  0  0  0
  1  2  2  0
  2  3  1  0
  3  4  1  0
  4  5  2  0
  4  6  1  0
  6  7  1  0
  7  8  2  0
  7  9  1  0
  9 10  1  6
 10 11  1  0
 11 12  2  0
 12 13  1  0
 13 14  2  0
 14 15  1  0
 15 16  2  0
  9 17  1  0
 17 18  1  0
 18 19  2  0
 18 20  1  0
 20 21  2  0
 21 22  1  0
 22 23  2  0
 23 24  1  0
 24 25  2  0
 25 26  1  0
 26 27  2  0
  2 28  1  0
 28 29  1  1
 29 30  1  0
 30 31  2  0
 31 32  1  0
 32 33  2  0
 33 34  1  0
 34 35  2  0
 28 36  1  0
 36 37  1  0
 37 38  2  0
 37 39  1  0
 39 40  2  0
 40 41  1  0
 41 42  2  0
 42 43  1  0
 43 44  2  0
 44 45  1  0
 45 46  2  0
 16 11  1  0
 26 17  1  0
 35 30  1  0
 45 36  1  0
 25 20  1  0
 44 39  1  0
M  END
>  <Binding energies>  (73) 
[-11.65]

>  <Ligand effiencies>  (73) 
[-0.24270833333333333]

>  <Interactions>  (73) 
["V-A:PRO:540:CA:4881, V-A:ARG:545:CZ:4924, V-B:ALA:541:CB:9864, V-B:TYR:539:CE1:9847, V-A:ILE:369:CG2:3234, V-A:PRO:540:CB:4883, V-A:LEU:363:CA:3182, V-A:ASP:366:CG:3210, V-A:LEU:475:CD2:4256, V-A:TYR:539:CE1:4873, V-B:ASP:366:CG:8184, V-B:TYR:539:CD1:9845, V-B:ASP:366:CB:8183, V-B:GLU:543:CD:9880, V-B:GLU:543:CB:9878, V-A:HIS:456:CE1:4066, V-B:TYR:539:CZ:9849, V-A:TYR:539:CZ:4875, V-A:GLU:543:CD:4906, V-B:TYR:531:CE1:9764, V-B:TYR:531:CZ:9766, V-B:ASN:370:CB:8216, V-A:PRO:540:C:4879, H-A:TYR:531:OH:4793, V-A:TYR:531:CZ:4792, V-A:TYR:531:CE1:4790, H-B:TYR:539:OH:9850, H-A:ASP:366:OD2:3212, V-B:ASP:366:CA:8181, V-A:MET:535:CE:4833, V-A:PRO:482:CB:4323, V-A:TYR:484:CZ:4344, V-A:PRO:482:CG:4324, V-A:ARG:545:CG:4920, V-A:ARG:545:CD:4921, V-A:ASN:362:CB:3173, V-A:ALA:541:C:4886, V-B:ASP:366:C:8179, V-A:LEU:373:CD1:3277, V-A:SER:385:CA:3404, V-A:SER:385:CB:3406, V-A:ASN:362:C:3169, V-A:ASN:362:CG:3174"]

$$$$
RR1_Rahimova_2017
     RDKit          3D

 41 44  0  0  0  0  0  0  0  0999 V2000
  133.5630  131.2910   57.1160 C   0  0  0  0  0  0  0  0  0  0  0  0
  132.3190  131.9320   56.8570 O   0  0  0  0  0  0  0  0  0  0  0  0
  131.3040  131.8350   57.7890 C   0  0  0  0  0  0  0  0  0  0  0  0
  129.9640  132.1680   57.5360 C   0  0  0  0  0  0  0  0  0  0  0  0
  129.0090  132.0450   58.5420 C   0  0  0  0  0  0  0  0  0  0  0  0
  129.3720  131.5860   59.8080 C   0  0  0  0  0  0  0  0  0  0  0  0
  128.3450  131.5400   60.7700 N   0  0  0  0  0  0  0  0  0  0  0  0
  127.9200  132.5050   61.6130 C   0  0  0  0  0  0  0  0  0  0  0  0
  128.4380  133.6170   61.7260 O   0  0  0  0  0  0  0  0  0  0  0  0
  126.7010  132.1180   62.4660 C   0  0  0  0  0  0  0  0  0  0  0  0
  125.9230  130.5200   62.0420 S   0  0  0  0  0  0  0  0  0  0  0  0
  127.1420  129.4630   62.7490 C   0  0  0  0  0  0  0  0  0  0  0  0
  128.0130  128.7760   62.0540 N   0  0  0  0  0  0  0  0  0  0  0  0
  128.7290  128.1430   62.9780 C   0  0  0  0  0  0  0  0  0  0  0  0
  129.8720  127.2340   62.6260 C   0  0  0  0  0  0  0  0  0  0  0  0
  130.5650  127.3620   61.4120 C   0  0  0  0  0  0  0  0  0  0  0  0
  131.6210  126.5000   61.1110 C   0  0  0  0  0  0  0  0  0  0  0  0
  131.9650  125.5200   62.0410 C   0  0  0  0  0  0  0  0  0  0  0  0
  131.3170  125.3680   63.2230 N   0  0  0  0  0  0  0  0  0  0  0  0
  130.2930  126.2170   63.4970 C   0  0  0  0  0  0  0  0  0  0  0  0
  128.3700  128.3730   64.2270 N   0  0  0  0  0  0  0  0  0  0  0  0
  127.3480  129.2210   64.0830 N   0  0  0  0  0  0  0  0  0  0  0  0
  126.6570  129.7590   65.2550 C   0  0  0  0  0  0  0  0  0  0  0  0
  127.4670  129.7190   66.5620 C   0  0  0  0  0  0  0  0  0  0  0  0
  127.6290  130.7410   67.2380 O   0  0  0  0  0  0  0  0  0  0  0  0
  127.9650  128.5090   66.8840 N   0  0  0  0  0  0  0  0  0  0  0  0
  128.5800  128.3630   68.1200 N   0  0  0  0  0  0  0  0  0  0  0  0
  128.1310  127.3850   68.9360 C   0  0  0  0  0  0  0  0  0  0  0  0
  127.2810  126.5480   68.6110 O   0  0  0  0  0  0  0  0  0  0  0  0
  128.7610  127.3380   70.3130 C   0  0  0  0  0  0  0  0  0  0  0  0
  130.1530  127.2920   70.4430 C   0  0  0  0  0  0  0  0  0  0  0  0
  130.7520  127.2370   71.6970 C   0  0  0  0  0  0  0  0  0  0  0  0
  129.9730  127.2180   72.8650 C   0  0  0  0  0  0  0  0  0  0  0  0
  130.5050  127.1500   74.1400 O   0  0  0  0  0  0  0  0  0  0  0  0
  131.6830  126.3850   74.3690 C   0  0  0  0  0  0  0  0  0  0  0  0
  128.5770  127.2570   72.7560 C   0  0  0  0  0  0  0  0  0  0  0  0
  127.8540  127.2160   73.9360 O   0  0  0  0  0  0  0  0  0  0  0  0
  126.8330  128.1800   74.1700 C   0  0  0  0  0  0  0  0  0  0  0  0
  127.9840  127.3190   71.4820 C   0  0  0  0  0  0  0  0  0  0  0  0
  130.7110  131.2520   60.0640 C   0  0  0  0  0  0  0  0  0  0  0  0
  131.6630  131.3750   59.0560 C   0  0  0  0  0  0  0  0  0  0  0  0
  1  2  1  0
  2  3  1  0
  3  4  2  0
  4  5  1  0
  5  6  2  0
  6  7  1  0
  7  8  1  0
  8  9  2  0
  8 10  1  0
 10 11  1  0
 11 12  1  0
 12 13  2  0
 13 14  1  0
 14 15  1  0
 15 16  2  0
 16 17  1  0
 17 18  2  0
 18 19  1  0
 19 20  2  0
 14 21  2  0
 21 22  1  0
 22 23  1  0
 23 24  1  0
 24 25  2  0
 24 26  1  0
 26 27  1  0
 27 28  1  0
 28 29  2  0
 28 30  1  0
 30 31  2  0
 31 32  1  0
 32 33  2  0
 33 34  1  0
 34 35  1  0
 33 36  1  0
 36 37  1  0
 37 38  1  0
 36 39  2  0
  6 40  1  0
 40 41  2  0
 41  3  1  0
 22 12  1  0
 39 30  1  0
 20 15  1  0
M  END
>  <Binding energies>  (74) 
[-8.28]

>  <Ligand effiencies>  (74) 
[-0.18818181818181817]

>  <Interactions>  (74) 
["V-A:PRO:540:CA:4881, V-A:TYR:531:CE2:4791, V-A:PRO:540:CB:4883, V-A:LEU:363:CA:3182, V-A:PRO:540:N:4882, V-A:ASP:366:CG:3210, V-A:LEU:363:CD1:3186, V-A:TYR:539:CE1:4873, H-A:ARG:545:NH2:4926, H-B:TYR:484:OH:9319, V-A:TYR:539:CD1:4871, V-B:GLU:543:CD:9880, V-B:GLU:543:CG:9879, H-A:GLU:543:OE2:4908, V-A:HIS:456:CE1:4066, V-A:ASP:366:CB:3209, V-A:ALA:541:CB:4890, H-B:GLU:543:OE2:9882, V-B:HIS:456:CE1:9040, V-A:GLU:543:CB:4904, V-A:GLU:543:CD:4906, V-A:GLU:543:CG:4905, V-B:GLU:543:C:9874, V-B:GLY:544:CA:9886, V-B:HIS:456:CD2:9039, V-B:LYS:547:CE:9922, V-A:LYS:547:CE:4948, V-A:GLY:544:C:4910, V-A:HIS:456:CG:4063, V-B:GLY:544:C:9884, V-A:HIS:456:CD2:4065, H-A:LYS:547:NZ:4949, V-B:HIS:456:CG:9037, H-B:LYS:547:NZ:9923, V-A:GLY:544:CA:4912, H-B:HIS:456:NE2:9041, V-B:HIS:456:CB:9036, H-A:TYR:531:OH:4793, V-A:TYR:531:CZ:4792, V-B:TYR:484:CZ:9318, H-A:ALA:541:N:4889, H-A:GLU:543:O:4901"]

$$$$
RR22_Rahimova_2017
     RDKit          3D

 31 36  0  0  0  0  0  0  0  0999 V2000
  123.8900  129.7370   56.2760 O   0  0  0  0  0  0  0  0  0  0  0  0
  124.8000  129.8760   57.0910 C   0  0  0  0  0  0  0  0  0  0  0  0
  124.7070  129.8520   58.4710 N   0  0  0  0  0  0  0  0  0  0  0  0
  125.8810  129.9710   59.2820 C   0  0  1  0  0  0  0  0  0  0  0  0
  125.6270  131.0790   60.1500 O   0  0  0  0  0  0  0  0  0  0  0  0
  125.6390  130.8590   61.5270 C   0  0  0  0  0  0  0  0  0  0  0  0
  125.0370  131.8380   62.3190 C   0  0  0  0  0  0  0  0  0  0  0  0
  125.0450  131.7070   63.7080 C   0  0  0  0  0  0  0  0  0  0  0  0
  125.6610  130.6050   64.3020 C   0  0  0  0  0  0  0  0  0  0  0  0
  126.2630  129.6260   63.5100 C   0  0  0  0  0  0  0  0  0  0  0  0
  126.2410  129.7310   62.1160 C   0  0  0  0  0  0  0  0  0  0  0  0
  126.9010  128.7500   61.1730 C   0  0  1  0  0  0  0  0  0  0  0  0
  127.0210  127.2730   61.4890 C   0  0  0  0  0  0  0  0  0  0  0  0
  126.9870  126.6980   60.0690 C   0  0  0  0  0  0  0  0  0  0  0  0
  127.4530  125.3350   59.7490 C   0  0  0  0  0  0  0  0  0  0  0  0
  127.6760  124.9510   58.4180 C   0  0  0  0  0  0  0  0  0  0  0  0
  128.1160  123.6640   58.1210 C   0  0  0  0  0  0  0  0  0  0  0  0
  128.3360  122.7540   59.1510 C   0  0  0  0  0  0  0  0  0  0  0  0
  128.1190  123.1190   60.4780 C   0  0  0  0  0  0  0  0  0  0  0  0
  127.6800  124.4060   60.7760 C   0  0  0  0  0  0  0  0  0  0  0  0
  126.4900  127.5400   59.2430 N   0  0  0  0  0  0  0  0  0  0  0  0
  126.1380  128.6930   59.9630 N   0  0  0  0  0  0  0  0  0  0  0  0
  127.0120  130.3820   58.3520 C   0  0  0  0  0  0  0  0  0  0  0  0
  128.1750  130.9150   58.7960 C   0  0  0  0  0  0  0  0  0  0  0  0
  129.3530  131.3350   58.0120 C   0  0  0  0  0  0  0  0  0  0  0  0
  130.5630  130.6270   58.0050 C   0  0  0  0  0  0  0  0  0  0  0  0
  131.6360  131.0860   57.2390 C   0  0  0  0  0  0  0  0  0  0  0  0
  131.4710  132.2560   56.4980 C   0  0  0  0  0  0  0  0  0  0  0  0
  130.3150  132.9660   56.4910 N   0  0  0  0  0  0  0  0  0  0  0  0
  129.2830  132.5020   57.2420 C   0  0  0  0  0  0  0  0  0  0  0  0
  126.5440  130.1600   56.6600 S   0  0  0  0  0  0  0  0  0  0  0  0
  1  2  2  0
  2  3  1  0
  4  3  1  6
  4  5  1  0
  5  6  1  0
  6  7  2  0
  7  8  1  0
  8  9  2  0
  9 10  1  0
 10 11  2  0
 11 12  1  0
 12 13  1  1
 13 14  1  0
 14 15  1  0
 15 16  2  0
 16 17  1  0
 17 18  2  0
 18 19  1  0
 19 20  2  0
 14 21  2  0
 21 22  1  0
  4 23  1  0
 23 24  2  0
 24 25  1  0
 25 26  2  0
 26 27  1  0
 27 28  2  0
 28 29  1  0
 29 30  2  0
 23 31  1  0
 31  2  1  0
 22  4  1  0
 30 25  1  0
 11  6  1  0
 22 12  1  0
 20 15  1  0
M  END
>  <Binding energies>  (75) 
[-8.86]

>  <Ligand effiencies>  (75) 
[-0.276875]

>  <Interactions>  (75) 
["V-A:ILE:538:CB:4860, V-B:TYR:539:CE1:9847, V-A:ILE:538:CG2:4861, V-B:ARG:545:CZ:9898, V-A:TYR:539:CE1:4873, V-B:PRO:540:CA:9855, V-B:ASP:366:CG:8184, V-B:TYR:539:CD1:9845, V-A:TYR:539:CD1:4871, V-B:ASP:366:CB:8183, V-B:PRO:540:N:9856, H-B:TYR:531:OH:9767, H-A:TYR:539:OH:4876, V-B:TYR:539:C:9839, V-A:TYR:539:CZ:4875, V-B:TYR:531:CE1:9764, V-B:TYR:531:CZ:9766, V-B:ASN:370:CB:8216, V-B:GLY:454:CA:9020, V-A:TYR:539:C:4865, H-A:TYR:539:N:4868, V-B:ASP:366:CA:8181, H-B:ASP:366:OD2:8186, V-A:TYR:539:CG:4870, V-B:ASP:366:C:8179, H-B:ASP:366:OD1:8185, H-B:ASP:366:O:8180, H-B:ASN:370:ND2:8219"]

$$$$
RR24_Rahimova_2017
     RDKit          3D

 43 49  0  0  0  0  0  0  0  0999 V2000
  124.6190  123.8800   56.5360 C   0  0  0  0  0  0  0  0  0  0  0  0
  126.1340  124.0470   56.7200 C   0  0  2  0  0  0  0  0  0  0  0  0
  126.8970  122.6910   56.7870 C   0  0  0  0  0  0  0  0  0  0  0  0
  126.3200  121.6250   57.0250 O   0  0  0  0  0  0  0  0  0  0  0  0
  128.2390  122.8350   56.5830 O   0  0  0  0  0  0  0  0  0  0  0  0
  128.9830  123.5880   57.4630 C   0  0  0  0  0  0  0  0  0  0  0  0
  129.7330  124.6630   56.9810 C   0  0  0  0  0  0  0  0  0  0  0  0
  130.4810  125.4370   57.8630 C   0  0  0  0  0  0  0  0  0  0  0  0
  130.4790  125.1450   59.2300 C   0  0  0  0  0  0  0  0  0  0  0  0
  131.3210  125.9880   60.1940 C   0  0  1  0  0  0  0  0  0  0  0  0
  131.0060  127.4970   60.0670 C   0  0  0  0  0  0  0  0  0  0  0  0
  130.7130  128.2720   61.1280 C   0  0  0  0  0  0  0  0  0  0  0  0
  130.6710  127.7750   62.4080 N   0  0  0  0  0  0  0  0  0  0  0  0
  130.9270  126.4490   62.6690 C   0  0  0  0  0  0  0  0  0  0  0  0
  130.8540  126.1210   63.9840 N   0  0  0  0  0  0  0  0  0  0  0  0
  131.0000  124.8410   64.4240 C   0  0  0  0  0  0  0  0  0  0  0  0
  130.6150  124.5470   65.5580 O   0  0  0  0  0  0  0  0  0  0  0  0
  131.4300  123.9540   63.4500 N   0  0  0  0  0  0  0  0  0  0  0  0
  131.6920  122.5700   63.8960 C   0  0  0  0  0  0  0  0  0  0  0  0
  131.5370  124.1810   62.0890 C   0  0  0  0  0  0  0  0  0  0  0  0
  131.8790  123.3240   61.2680 O   0  0  0  0  0  0  0  0  0  0  0  0
  131.2290  125.5580   61.6880 C   0  0  0  0  0  0  0  0  0  0  0  0
  130.4610  129.6420   60.7150 C   0  0  0  0  0  0  0  0  0  0  0  0
  130.1210  130.8000   61.4160 C   0  0  0  0  0  0  0  0  0  0  0  0
  129.9420  131.9940   60.7130 C   0  0  0  0  0  0  0  0  0  0  0  0
  130.1040  132.0250   59.3250 C   0  0  0  0  0  0  0  0  0  0  0  0
  130.4450  130.8620   58.6290 C   0  0  0  0  0  0  0  0  0  0  0  0
  130.6210  129.6720   59.3360 C   0  0  0  0  0  0  0  0  0  0  0  0
  130.9790  128.3180   58.8620 C   0  0  0  0  0  0  0  0  0  0  0  0
  131.2120  127.9200   57.7210 O   0  0  0  0  0  0  0  0  0  0  0  0
  129.7130  124.0780   59.7120 C   0  0  0  0  0  0  0  0  0  0  0  0
  128.9620  123.3050   58.8310 C   0  0  0  0  0  0  0  0  0  0  0  0
  126.4650  124.9420   57.8670 N   0  0  0  0  0  0  0  0  0  0  0  0
  126.3090  124.5350   59.1580 C   0  0  0  0  0  0  0  0  0  0  0  0
  125.8920  123.4450   59.5530 O   0  0  0  0  0  0  0  0  0  0  0  0
  126.7480  125.6830   59.9900 C   0  0  0  0  0  0  0  0  0  0  0  0
  126.8050  125.8370   61.3760 C   0  0  0  0  0  0  0  0  0  0  0  0
  127.2720  127.0500   61.8950 C   0  0  0  0  0  0  0  0  0  0  0  0
  127.6740  128.0790   61.0340 C   0  0  0  0  0  0  0  0  0  0  0  0
  127.6100  127.9040   59.6480 C   0  0  0  0  0  0  0  0  0  0  0  0
  127.1400  126.6890   59.1490 C   0  0  0  0  0  0  0  0  0  0  0  0
  126.9620  126.2120   57.7550 C   0  0  0  0  0  0  0  0  0  0  0  0
  127.2140  126.8280   56.7190 O   0  0  0  0  0  0  0  0  0  0  0  0
  2  1  1  1
  2  3  1  0
  3  4  2  0
  3  5  1  0
  5  6  1  0
  6  7  2  0
  7  8  1  0
  8  9  2  0
 10  9  1  6
 10 11  1  0
 11 12  2  0
 12 13  1  0
 13 14  1  0
 14 15  1  0
 15 16  1  0
 16 17  2  0
 16 18  1  0
 18 19  1  0
 18 20  1  0
 20 21  2  0
 20 22  1  0
 12 23  1  0
 23 24  2  0
 24 25  1  0
 25 26  2  0
 26 27  1  0
 27 28  2  0
 28 29  1  0
 29 30  2  0
  9 31  1  0
 31 32  2  0
  2 33  1  0
 33 34  1  0
 34 35  2  0
 34 36  1  0
 36 37  2  0
 37 38  1  0
 38 39  2  0
 39 40  1  0
 40 41  2  0
 41 42  1  0
 42 43  2  0
 32  6  1  0
 42 33  1  0
 22 10  1  0
 28 23  1  0
 41 36  1  0
 29 11  1  0
 22 14  2  0
M  END
>  <Binding energies>  (76) 
[-9.42]

>  <Ligand effiencies>  (76) 
[-0.20933333333333334]

>  <Interactions>  (76) 
["V-A:PRO:540:CA:4881, V-A:ARG:545:CZ:4924, V-B:TYR:539:CE1:9847, H-A:TYR:484:OH:4345, V-A:PRO:540:N:4882, V-A:ASP:366:CG:3210, V-A:LEU:475:CD2:4256, V-B:TYR:531:CE2:9765, V-B:ILE:538:CA:9832, V-B:ASP:366:CG:8184, V-B:LEU:363:CD1:8160, V-B:TYR:539:CD1:9845, V-B:PRO:540:N:9856, H-B:TYR:531:OH:9767, V-B:TYR:539:C:9839, V-B:GLU:543:CD:9880, H-A:GLU:543:OE2:4908, H-A:GLU:543:OE1:4907, V-B:TYR:539:CZ:9849, H-B:GLU:543:OE2:9882, V-A:GLU:543:CD:4906, V-B:TYR:531:CZ:9766, H-A:TYR:531:OH:4793, V-A:TYR:539:C:4865, V-B:MET:535:CE:9807, H-B:TYR:539:N:9842"]

$$$$
RR25_Rahimova_2017
     RDKit          3D

 39 44  0  0  0  0  0  0  0  0999 V2000
  127.8190  122.7960   59.8260 O   0  0  0  0  0  0  0  0  0  0  0  0
  128.4480  123.5000   60.6170 C   0  0  0  0  0  0  0  0  0  0  0  0
  128.9630  122.8630   61.7190 O   0  0  0  0  0  0  0  0  0  0  0  0
  129.8870  123.4800   62.5430 C   0  0  0  0  0  0  0  0  0  0  0  0
  130.7450  122.6450   63.2590 C   0  0  0  0  0  0  0  0  0  0  0  0
  131.6950  123.1990   64.1140 C   0  0  0  0  0  0  0  0  0  0  0  0
  131.7990  124.5890   64.2690 C   0  0  0  0  0  0  0  0  0  0  0  0
  132.8170  125.1770   65.1750 N   0  0  0  0  0  0  0  0  0  0  0  0
  133.9510  125.3640   64.7410 O   0  0  0  0  0  0  0  0  0  0  0  0
  132.4900  125.4550   66.3240 O   0  0  0  0  0  0  0  0  0  0  0  0
  130.9170  125.4120   63.5490 C   0  0  0  0  0  0  0  0  0  0  0  0
  129.9530  124.8720   62.6930 C   0  0  0  0  0  0  0  0  0  0  0  0
  128.9860  125.7180   61.8850 C   0  0  0  0  0  0  0  0  0  0  0  0
  128.7060  125.0320   60.5180 C   0  0  2  0  0  0  0  0  0  0  0  0
  127.6410  125.8210   59.7020 C   0  0  0  0  0  0  0  0  0  0  0  0
  126.7800  125.1430   59.1350 O   0  0  0  0  0  0  0  0  0  0  0  0
  127.5810  127.1870   59.7140 N   0  0  0  0  0  0  0  0  0  0  0  0
  128.7290  128.0360   60.0990 C   0  0  0  0  0  0  0  0  0  0  0  0
  128.2060  129.2660   60.8700 C   0  0  0  0  0  0  0  0  0  0  0  0
  127.1960  129.9930   60.0970 N   0  0  0  0  0  0  0  0  0  0  0  0
  126.7950  131.2360   60.7700 C   0  0  0  0  0  0  0  0  0  0  0  0
  127.6300  132.4630   60.3170 C   0  0  0  0  0  0  0  0  0  0  0  0
  129.0410  132.1860   59.9200 N   0  0  0  0  0  0  0  0  0  0  0  0
  129.2830  132.1890   58.5630 C   0  0  0  0  0  0  0  0  0  0  0  0
  128.3980  132.3690   57.7180 O   0  0  0  0  0  0  0  0  0  0  0  0
  130.7340  131.9710   58.1790 C   0  0  0  0  0  0  0  0  0  0  0  0
  131.0960  131.9800   56.8260 C   0  0  0  0  0  0  0  0  0  0  0  0
  132.4220  131.7910   56.4380 C   0  0  0  0  0  0  0  0  0  0  0  0
  133.4240  131.5910   57.3860 C   0  0  0  0  0  0  0  0  0  0  0  0
  133.1050  131.5730   58.7650 C   0  0  0  0  0  0  0  0  0  0  0  0
  134.0720  131.3760   59.7790 C   0  0  0  0  0  0  0  0  0  0  0  0
  133.6900  131.3730   61.1190 C   0  0  0  0  0  0  0  0  0  0  0  0
  132.3590  131.5610   61.4840 C   0  0  0  0  0  0  0  0  0  0  0  0
  131.3670  131.7600   60.5150 C   0  0  0  0  0  0  0  0  0  0  0  0
  131.7480  131.7650   59.1490 C   0  0  0  0  0  0  0  0  0  0  0  0
  129.9300  131.9700   60.9530 C   0  0  0  0  0  0  0  0  0  0  0  0
  129.6000  131.9620   62.1440 O   0  0  0  0  0  0  0  0  0  0  0  0
  126.0470  129.1230   59.8380 C   0  0  0  0  0  0  0  0  0  0  0  0
  126.4530  127.8640   59.0350 C   0  0  0  0  0  0  0  0  0  0  0  0
  1  2  2  0
  2  3  1  0
  3  4  1  0
  4  5  2  0
  5  6  1  0
  6  7  2  0
  7  8  1  0
  8  9  2  0
  8 10  1  0
  7 11  1  0
 11 12  2  0
 12 13  1  0
 13 14  1  0
 14 15  1  1
 15 16  2  0
 15 17  1  0
 17 18  1  0
 18 19  1  0
 19 20  1  0
 20 21  1  0
 21 22  1  0
 22 23  1  0
 23 24  1  0
 24 25  2  0
 24 26  1  0
 26 27  2  0
 27 28  1  0
 28 29  2  0
 29 30  1  0
 30 31  2  0
 31 32  1  0
 32 33  2  0
 33 34  1  0
 34 35  2  0
 34 36  1  0
 36 37  2  0
 20 38  1  0
 38 39  1  0
 14  2  1  0
 39 17  1  0
 12  4  1  0
 36 23  1  0
 35 26  1  0
 35 30  1  0
M  CHG  2   8   1  10  -1
M  END
>  <Binding energies>  (77) 
[-9.67]

>  <Ligand effiencies>  (77) 
[-0.24794871794871795]

>  <Interactions>  (77) 
["V-A:PRO:540:CA:4881, V-A:ARG:545:CZ:4924, V-A:TYR:531:CE2:4791, H-A:ARG:545:NE:4922, V-B:ALA:541:CB:9864, V-A:ILE:538:CG2:4861, V-A:PRO:540:CB:4883, V-A:LEU:363:CA:3182, H-A:GLY:454:N:4047, H-A:TYR:484:OH:4345, V-A:PRO:540:N:4882, V-A:ASP:366:CG:3210, V-A:LEU:475:CD2:4256, V-A:LEU:363:CD1:3186, V-A:TYR:539:CE1:4873, V-B:ASP:366:CG:8184, H-A:ARG:545:NH2:4926, V-A:TYR:539:CD1:4871, V-B:ASP:366:CB:8183, V-B:GLU:543:CD:9880, V-A:PRO:540:C:4879, V-A:TYR:531:CZ:4792, V-A:TYR:539:C:4865, H-A:ARG:545:NH1:4925, V-A:TYR:484:CZ:4344, V-A:ARG:545:CD:4921, H-A:ALA:541:N:4889, V-A:ASN:362:CB:3173, V-A:ASN:362:C:3169, V-A:LEU:363:CB:3184, V-A:ASN:362:CA:3171"]

$$$$
RR27_Rahimova_2017
     RDKit          3D

 39 44  0  0  0  0  0  0  0  0999 V2000
  125.9490  128.9620   60.1650 O   0  0  0  0  0  0  0  0  0  0  0  0
  126.8220  129.1430   61.0190 C   0  0  0  0  0  0  0  0  0  0  0  0
  127.3200  130.5960   61.2700 C   0  0  0  0  0  0  0  0  0  0  0  0
  126.2300  131.5170   61.8500 C   0  0  0  0  0  0  0  0  0  0  0  0
  126.0290  131.6470   63.2330 C   0  0  0  0  0  0  0  0  0  0  0  0
  125.0360  132.4910   63.7230 C   0  0  0  0  0  0  0  0  0  0  0  0
  124.2400  133.2070   62.8340 C   0  0  0  0  0  0  0  0  0  0  0  0
  124.4250  133.0870   61.4600 C   0  0  0  0  0  0  0  0  0  0  0  0
  125.4180  132.2440   60.9700 C   0  0  0  0  0  0  0  0  0  0  0  0
  128.0660  131.1640   60.0470 C   0  0  0  0  0  0  0  0  0  0  0  0
  129.1880  131.9920   60.1870 C   0  0  0  0  0  0  0  0  0  0  0  0
  129.8320  132.4970   59.0600 C   0  0  0  0  0  0  0  0  0  0  0  0
  129.3540  132.1810   57.7920 C   0  0  0  0  0  0  0  0  0  0  0  0
  128.2330  131.3690   57.6380 C   0  0  0  0  0  0  0  0  0  0  0  0
  127.5900  130.8660   58.7640 C   0  0  0  0  0  0  0  0  0  0  0  0
  127.2410  128.1360   61.8380 N   0  0  0  0  0  0  0  0  0  0  0  0
  128.4380  128.2260   62.6870 C   0  0  0  0  0  0  0  0  0  0  0  0
  129.6340  127.7670   61.8240 C   0  0  0  0  0  0  0  0  0  0  0  0
  129.4230  126.3480   61.2060 C   0  0  0  0  0  0  0  0  0  0  0  0
  130.5360  125.8890   60.2460 C   0  0  0  0  0  0  0  0  0  0  0  0
  130.6260  126.5550   59.0580 N   0  0  0  0  0  0  0  0  0  0  0  0
  131.6100  126.2070   58.1840 C   0  0  0  0  0  0  0  0  0  0  0  0
  131.8040  126.8030   56.9650 O   0  0  0  0  0  0  0  0  0  0  0  0
  132.4950  125.1710   58.5410 C   0  0  0  0  0  0  0  0  0  0  0  0
  133.5640  124.5920   57.9230 N   0  0  0  0  0  0  0  0  0  0  0  0
  134.0420  123.6060   58.7660 N   0  0  0  0  0  0  0  0  0  0  0  0
  133.2860  123.5860   59.8850 N   0  0  0  0  0  0  0  0  0  0  0  0
  133.5560  122.6160   60.9440 C   0  0  0  0  0  0  0  0  0  0  0  0
  132.5460  121.4780   61.0030 C   0  0  0  0  0  0  0  0  0  0  0  0
  131.2110  121.7370   61.3300 C   0  0  0  0  0  0  0  0  0  0  0  0
  130.2840  120.6950   61.3730 C   0  0  0  0  0  0  0  0  0  0  0  0
  130.6840  119.3910   61.0850 C   0  0  0  0  0  0  0  0  0  0  0  0
  132.0130  119.1270   60.7480 C   0  0  0  0  0  0  0  0  0  0  0  0
  132.5050  117.5170   60.3650 Cl  0  0  0  0  0  0  0  0  0  0  0  0
  132.9420  120.1670   60.7120 C   0  0  0  0  0  0  0  0  0  0  0  0
  132.2950  124.5490   59.7920 C   0  0  0  0  0  0  0  0  0  0  0  0
  131.3340  124.8650   60.6640 N   0  0  0  0  0  0  0  0  0  0  0  0
  127.9890  126.1780   60.6160 C   0  0  0  0  0  0  0  0  0  0  0  0
  126.8790  126.7420   61.5390 C   0  0  0  0  0  0  0  0  0  0  0  0
  1  2  2  0
  2  3  1  0
  3  4  1  0
  4  5  2  0
  5  6  1  0
  6  7  2  0
  7  8  1  0
  8  9  2  0
  3 10  1  0
 10 11  2  0
 11 12  1  0
 12 13  2  0
 13 14  1  0
 14 15  2  0
  2 16  1  0
 16 17  1  0
 17 18  1  0
 18 19  1  0
 19 20  1  0
 20 21  2  0
 21 22  1  0
 22 23  1  0
 22 24  2  0
 24 25  1  0
 25 26  2  0
 26 27  1  0
 27 28  1  0
 28 29  1  0
 29 30  2  0
 30 31  1  0
 31 32  2  0
 32 33  1  0
 33 34  1  0
 33 35  2  0
 27 36  1  0
 36 37  2  0
 19 38  1  0
 38 39  1  0
  9  4  1  0
 15 10  1  0
 39 16  1  0
 37 20  1  0
 36 24  1  0
 35 29  1  0
M  END
>  <Binding energies>  (78) 
[-10.13]

>  <Ligand effiencies>  (78) 
[-0.25325000000000003]

>  <Interactions>  (78) 
["V-A:PRO:540:CA:4881, V-B:ALA:541:CB:9864, V-B:TYR:539:CE1:9847, V-A:ILE:369:CG2:3234, V-B:ILE:369:CG2:8208, V-A:ILE:369:CD1:3236, V-A:PRO:540:N:4882, V-B:ILE:369:CD1:8210, V-A:ASP:366:CG:3210, V-A:LEU:475:CD2:4256, V-A:TYR:539:CE1:4873, V-B:LEU:475:CD2:9230, V-B:TYR:539:CD1:9845, V-A:TYR:539:CD1:4871, V-A:ASP:366:CB:3209, V-A:TYR:539:CZ:4875, V-A:GLU:543:CD:4906, V-B:GLY:454:CA:9020, H-A:TYR:531:OH:4793, V-A:TYR:539:C:4865, H-B:TYR:539:OH:9850, H-A:ASP:366:OD2:3212, V-A:LEU:373:CD1:3277, V-A:SER:385:CA:3404, V-A:SER:385:CB:3406"]

$$$$
RR28_Rahimova_2017
     RDKit          3D

 46 49  0  0  0  0  0  0  0  0999 V2000
  124.2550  132.8460   60.5500 C   0  0  0  0  0  0  0  0  0  0  0  0
  125.2780  131.8260   61.0380 C   0  0  0  0  0  0  0  0  0  0  0  0
  124.8970  130.8290   61.6490 O   0  0  0  0  0  0  0  0  0  0  0  0
  126.5690  132.0940   60.7590 N   0  0  0  0  0  0  0  0  0  0  0  0
  127.7670  131.2980   61.1110 C   0  0  0  0  0  0  0  0  0  0  0  0
  127.6090  130.8060   62.5780 C   0  0  0  0  0  0  0  0  0  0  0  0
  127.4110  131.7450   63.6020 C   0  0  0  0  0  0  0  0  0  0  0  0
  127.2710  131.3410   64.9260 C   0  0  0  0  0  0  0  0  0  0  0  0
  127.3260  129.9860   65.2580 C   0  0  0  0  0  0  0  0  0  0  0  0
  127.1740  129.5620   66.7180 C   0  0  0  0  0  0  0  0  0  0  0  0
  127.8130  128.4200   66.9830 F   0  0  0  0  0  0  0  0  0  0  0  0
  127.6600  130.5030   67.5270 F   0  0  0  0  0  0  0  0  0  0  0  0
  125.8800  129.3880   66.9920 F   0  0  0  0  0  0  0  0  0  0  0  0
  127.5240  129.0410   64.2480 C   0  0  0  0  0  0  0  0  0  0  0  0
  127.6650  129.4460   62.9240 C   0  0  0  0  0  0  0  0  0  0  0  0
  129.0750  132.1320   60.8620 C   0  0  0  0  0  0  0  0  0  0  0  0
  129.3190  132.4560   59.3660 C   0  0  0  0  0  0  0  0  0  0  0  0
  129.3960  131.1630   58.6660 N   0  0  0  0  0  0  0  0  0  0  0  0
  130.6010  130.5650   58.4580 C   0  0  0  0  0  0  0  0  0  0  0  0
  131.6660  131.1430   58.6860 O   0  0  0  0  0  0  0  0  0  0  0  0
  130.6390  129.1830   57.7620 C   0  0  0  0  0  0  0  0  0  0  0  0
  131.0020  127.9760   58.6690 C   0  0  0  0  0  0  0  0  0  0  0  0
  129.8820  126.9230   58.8390 C   0  0  0  0  0  0  0  0  0  0  0  0
  128.7120  127.3160   58.8290 O   0  0  0  0  0  0  0  0  0  0  0  0
  130.1970  125.5970   58.8560 N   0  0  0  0  0  0  0  0  0  0  0  0
  131.5350  125.0890   59.1840 C   0  0  0  0  0  0  0  0  0  0  0  0
  131.6010  124.9800   60.7230 C   0  0  0  0  0  0  0  0  0  0  0  0
  130.4840  124.0850   61.3650 C   0  0  0  0  0  0  0  0  0  0  0  0
  130.4020  124.3770   62.8120 N   0  0  0  0  0  0  0  0  0  0  0  0
  131.4100  124.4470   63.7050 C   0  0  0  0  0  0  0  0  0  0  0  0
  131.0160  124.7500   65.1470 C   0  0  0  0  0  0  0  0  0  0  0  0
  132.5960  124.2820   63.4200 O   0  0  0  0  0  0  0  0  0  0  0  0
  130.9300  122.5950   61.2090 C   0  0  0  0  0  0  0  0  0  0  0  0
  130.0440  121.5160   61.3590 C   0  0  0  0  0  0  0  0  0  0  0  0
  130.4820  120.2020   61.2100 C   0  0  0  0  0  0  0  0  0  0  0  0
  131.8200  119.9340   60.9110 C   0  0  0  0  0  0  0  0  0  0  0  0
  132.3150  118.4990   60.7410 C   0  0  0  0  0  0  0  0  0  0  0  0
  131.7910  117.9480   59.6440 F   0  0  0  0  0  0  0  0  0  0  0  0
  133.6420  118.5060   60.6220 F   0  0  0  0  0  0  0  0  0  0  0  0
  131.9920  117.7290   61.7820 F   0  0  0  0  0  0  0  0  0  0  0  0
  132.7140  120.9960   60.7670 C   0  0  0  0  0  0  0  0  0  0  0  0
  132.2730  122.3070   60.9160 C   0  0  0  0  0  0  0  0  0  0  0  0
  129.1070  124.3980   60.6620 C   0  0  0  0  0  0  0  0  0  0  0  0
  129.1570  124.5950   59.1230 C   0  0  0  0  0  0  0  0  0  0  0  0
  128.1320  130.4140   58.6860 C   0  0  0  0  0  0  0  0  0  0  0  0
  127.8400  130.0540   60.1660 C   0  0  0  0  0  0  0  0  0  0  0  0
  1  2  1  0
  2  3  2  0
  2  4  1  0
  4  5  1  0
  5  6  1  0
  6  7  2  0
  7  8  1  0
  8  9  2  0
  9 10  1  0
 10 11  1  0
 10 12  1  0
 10 13  1  0
  9 14  1  0
 14 15  2  0
  5 16  1  0
 16 17  1  0
 17 18  1  0
 18 19  1  0
 19 20  2  0
 19 21  1  0
 21 22  1  0
 22 23  1  0
 23 24  2  0
 23 25  1  0
 25 26  1  0
 26 27  1  0
 27 28  1  0
 28 29  1  0
 29 30  1  0
 30 31  1  0
 30 32  2  0
 28 33  1  0
 33 34  2  0
 34 35  1  0
 35 36  2  0
 36 37  1  0
 37 38  1  0
 37 39  1  0
 37 40  1  0
 36 41  1  0
 41 42  2  0
 28 43  1  0
 43 44  1  0
 18 45  1  0
 45 46  1  0
 46  5  1  0
 15  6  1  0
 44 25  1  0
 42 33  1  0
M  END
>  <Binding energies>  (79) 
[-7.53]

>  <Ligand effiencies>  (79) 
[-0.15687500000000001]

>  <Interactions>  (79) 
["V-A:PRO:540:CA:4881, V-B:ALA:541:CB:9864, V-B:TYR:539:CE1:9847, V-A:ILE:369:CG2:3234, V-B:ILE:369:CG2:8208, H-A:GLY:454:N:4047, H-A:TYR:484:OH:4345, V-A:PRO:540:N:4882, V-B:ILE:369:CD1:8210, V-A:ASP:366:CG:3210, V-A:LEU:475:CD2:4256, V-A:TYR:539:CE1:4873, V-B:TYR:539:CD1:9845, V-A:TYR:539:CD1:4871, V-B:TYR:539:CG:9844, V-B:ILE:369:CB:8207, V-B:GLU:543:CD:9880, V-A:ASP:366:CB:3209, V-A:ALA:541:CB:4890, H-B:GLU:543:OE1:9881, V-B:HIS:456:CE1:9040, V-A:GLU:543:CB:4904, V-A:GLU:543:CD:4906, V-A:GLU:543:CG:4905, V-A:TYR:539:C:4865, V-A:PRO:482:CB:4323, V-B:TYR:484:CE2:9317, V-B:TYR:484:CZ:9318, V-A:PRO:482:CG:4324, V-B:TYR:539:CB:9843, V-A:LEU:373:CD1:3277, V-A:SER:385:CA:3404, V-A:SER:385:CB:3406, V-A:SER:385:C:3402, V-A:LEU:475:CG:4254, V-B:ARG:545:CG:9894, V-B:ARG:545:CD:9895, V-A:GLU:543:CA:4902"]

$$$$
RR29_Rahimova_2017
     RDKit          3D

 18 19  0  0  0  0  0  0  0  0999 V2000
  134.8740  124.9870   61.8810 C   0  0  0  0  0  0  0  0  0  0  0  0
  133.7200  124.3300   62.6230 C   0  0  0  0  0  0  0  0  0  0  0  0
  132.8760  123.3990   61.7230 C   0  0  0  0  0  0  0  0  0  0  0  0
  133.7270  122.2590   61.1260 C   0  0  0  0  0  0  0  0  0  0  0  0
  132.9450  120.9600   61.0020 C   0  0  0  0  0  0  0  0  0  0  0  0
  131.5560  120.9500   61.2350 C   0  0  0  0  0  0  0  0  0  0  0  0
  130.8160  119.7640   61.1260 C   0  0  0  0  0  0  0  0  0  0  0  0
  131.5070  118.6040   60.7930 C   0  0  0  0  0  0  0  0  0  0  0  0
  132.8550  118.6080   60.5680 C   0  0  0  0  0  0  0  0  0  0  0  0
  133.6120  119.7710   60.6590 C   0  0  0  0  0  0  0  0  0  0  0  0
  133.2570  117.3540   60.2290 O   0  0  0  0  0  0  0  0  0  0  0  0
  132.1490  116.5250   60.4600 C   0  0  0  0  0  0  0  0  0  0  0  0
  131.0220  117.3490   60.6010 O   0  0  0  0  0  0  0  0  0  0  0  0
  133.5530  124.6020   63.8640 N   0  0  0  0  0  0  0  0  0  0  0  0
  132.4600  124.0760   64.5170 N   0  0  0  0  0  0  0  0  0  0  0  0
  131.3940  124.7980   64.8990 C   0  0  0  0  0  0  0  0  0  0  0  0
  131.2420  126.1060   64.6840 N   0  0  0  0  0  0  0  0  0  0  0  0
  130.4180  124.1680   65.5360 N   0  0  0  0  0  0  0  0  0  0  0  0
  1  2  1  0
  2  3  1  0
  3  4  1  0
  4  5  1  0
  5  6  2  0
  6  7  1  0
  7  8  2  0
  8  9  1  0
  9 10  2  0
  9 11  1  0
 11 12  1  0
 12 13  1  0
  2 14  2  0
 14 15  1  0
 15 16  1  0
 16 17  1  0
 16 18  2  0
 10  5  1  0
 13  8  1  0
M  CHG  1  18   1
M  END
>  <Binding energies>  (80) 
[-7.42]

>  <Ligand effiencies>  (80) 
[-0.3226086956521739]

>  <Interactions>  (80) 
["V-A:ARG:545:CZ:4924, V-A:GLY:454:CA:4046, V-B:TYR:539:CE1:9847, V-A:ILE:369:CG2:3234, V-A:ILE:369:CD1:3236, H-A:GLY:454:N:4047, H-A:TYR:484:OH:4345, V-A:ASP:366:CG:3210, V-A:LEU:475:CD2:4256, V-A:GLY:453:C:4039, V-B:TYR:539:CD1:9845, V-B:GLU:543:CD:9880, V-B:GLU:543:CG:9879, H-A:GLU:543:OE2:4908, V-B:GLU:543:CB:9878, H-B:GLU:543:OE1:9881, H-B:GLU:543:OE2:9882, V-A:GLU:543:CD:4906, V-A:TYR:484:CZ:4344, V-A:TYR:484:CE2:4343, V-A:PRO:482:CG:4324, V-A:LEU:373:CD1:3277, V-A:SER:385:CA:3404, V-A:SER:385:CB:3406, V-A:SER:385:C:3402, V-A:GLY:453:CA:4041"]

$$$$
RR30_Rahimova_2017
     RDKit          3D

 18 19  0  0  0  0  0  0  0  0999 V2000
  131.3890  116.5570   59.3220 C   0  0  0  0  0  0  0  0  0  0  0  0
  131.9420  117.2040   60.6000 C   0  0  0  0  0  0  0  0  0  0  0  0
  131.2270  118.4910   60.9480 C   0  0  0  0  0  0  0  0  0  0  0  0
  130.0270  118.6400   61.4540 N   0  0  0  0  0  0  0  0  0  0  0  0
  129.8330  120.0130   61.5770 N   0  0  0  0  0  0  0  0  0  0  0  0
  130.9250  120.5750   61.1260 C   0  0  0  0  0  0  0  0  0  0  0  0
  131.2890  122.2990   61.0360 S   0  0  0  0  0  0  0  0  0  0  0  0
  129.7770  122.9780   61.7890 C   0  0  0  0  0  0  0  0  0  0  0  0
  128.5630  122.8510   60.8640 C   0  0  0  0  0  0  0  0  0  0  0  0
  127.4400  122.7310   61.3580 O   0  0  0  0  0  0  0  0  0  0  0  0
  128.8280  122.8470   59.5390 N   0  0  0  0  0  0  0  0  0  0  0  0
  127.9000  122.7410   58.5130 C   0  0  0  0  0  0  0  0  0  0  0  0
  128.0100  122.0830   57.3810 N   0  0  0  0  0  0  0  0  0  0  0  0
  126.8750  122.2020   56.5890 N   0  0  0  0  0  0  0  0  0  0  0  0
  125.9360  122.9420   57.1330 C   0  0  0  0  0  0  0  0  0  0  0  0
  124.6110  123.2220   56.4620 C   0  0  0  0  0  0  0  0  0  0  0  0
  126.3820  123.5630   58.6990 S   0  0  0  0  0  0  0  0  0  0  0  0
  131.8520  119.6720   60.7160 O   0  0  0  0  0  0  0  0  0  0  0  0
  1  2  1  0
  2  3  1  0
  3  4  2  0
  4  5  1  0
  5  6  2  0
  6  7  1  0
  7  8  1  0
  8  9  1  0
  9 10  2  0
  9 11  1  0
 11 12  1  0
 12 13  2  0
 13 14  1  0
 14 15  2  0
 15 16  1  0
 15 17  1  0
  6 18  1  0
 18  3  1  0
 17 12  1  0
M  END
>  <Binding energies>  (81) 
[-7.16]

>  <Ligand effiencies>  (81) 
[-0.3768421052631579]

>  <Interactions>  (81) 
["V-B:ALA:541:CB:9864, V-B:TYR:539:CE1:9847, V-A:LEU:475:CD2:4256, V-B:TYR:531:CE2:9765, V-B:PRO:540:CA:9855, V-B:ILE:538:CG2:9835, V-B:PRO:540:CB:9857, V-B:PRO:540:CD:9859, V-B:ILE:538:CB:9834, V-B:LEU:363:CD1:8160, V-B:TYR:539:CD1:9845, V-B:PRO:540:N:9856, V-B:TYR:539:CG:9844, V-B:TYR:539:C:9839, H-B:ALA:541:N:9863, V-A:PRO:482:CB:4323, H-B:TYR:539:N:9842, V-A:PRO:482:CG:4324, V-B:TYR:539:CB:9843, V-A:LEU:373:CD1:3277, V-B:VAL:344:CG1:7972"]

$$$$
RR31_Rahimova_2017
     RDKit          3D

 18 19  0  0  0  0  0  0  0  0999 V2000
  133.0590  116.9790   60.1150 C   0  0  0  0  0  0  0  0  0  0  0  0
  132.7400  118.4120   60.5170 C   0  0  0  0  0  0  0  0  0  0  0  0
  133.7820  119.3330   60.6420 C   0  0  0  0  0  0  0  0  0  0  0  0
  133.5220  120.6520   61.0050 C   0  0  0  0  0  0  0  0  0  0  0  0
  132.2120  121.0950   61.2460 C   0  0  0  0  0  0  0  0  0  0  0  0
  131.9360  122.4120   61.6210 N   0  0  0  0  0  0  0  0  0  0  0  0
  131.6990  123.4740   60.6250 C   0  0  0  0  0  0  0  0  0  0  0  0
  131.8210  124.9090   61.1910 C   0  0  0  0  0  0  0  0  0  0  0  0
  130.9240  125.0990   62.3340 N   0  0  0  0  0  0  0  0  0  0  0  0
  130.9920  126.4610   62.8710 C   0  0  0  0  0  0  0  0  0  0  0  0
  130.2050  127.4820   62.0260 C   0  0  0  0  0  0  0  0  0  0  0  0
  128.7550  127.6460   62.5100 C   0  0  0  0  0  0  0  0  0  0  0  0
  128.7400  128.0640   63.9850 N   0  0  0  0  0  0  0  0  0  0  0  0
  131.3220  124.1420   63.3660 C   0  0  0  0  0  0  0  0  0  0  0  0
  131.1750  122.6910   62.8550 C   0  0  0  0  0  0  0  0  0  0  0  0
  131.1750  120.1570   61.1260 C   0  0  0  0  0  0  0  0  0  0  0  0
  131.4220  118.8280   60.7630 C   0  0  0  0  0  0  0  0  0  0  0  0
  130.2520  117.8580   60.6530 C   0  0  0  0  0  0  0  0  0  0  0  0
  1  2  1  0
  2  3  2  0
  3  4  1  0
  4  5  2  0
  5  6  1  0
  6  7  1  0
  7  8  1  0
  8  9  1  0
  9 10  1  0
 10 11  1  0
 11 12  1  0
 12 13  1  0
  9 14  1  0
 14 15  1  0
  5 16  1  0
 16 17  2  0
 17 18  1  0
 17  2  1  0
 15  6  1  0
M  CHG  1  13   1
M  END
>  <Binding energies>  (82) 
[-7.23]

>  <Ligand effiencies>  (82) 
[-0.3442857142857143]

>  <Interactions>  (82) 
["V-A:ARG:545:CZ:4924, V-B:TYR:539:CE1:9847, V-A:ILE:369:CG2:3234, V-A:LEU:475:CD2:4256, V-B:TYR:539:CD1:9845, V-B:TYR:539:C:9839, V-B:GLU:543:CD:9880, H-A:GLU:543:OE2:4908, H-B:GLU:543:OE1:9881, H-A:GLU:543:OE1:4907, H-B:GLU:543:OE2:9882, V-A:GLU:543:CD:4906, V-A:PRO:482:CB:4323, V-A:PRO:482:CG:4324, V-B:TYR:539:CB:9843, V-A:LEU:373:CD1:3277, V-A:SER:385:CA:3404, V-A:SER:385:CB:3406, V-A:SER:385:C:3402"]

$$$$
RR32_Rahimova_2017
     RDKit          3D

 18 20  0  0  0  0  0  0  0  0999 V2000
  125.3650  124.0000   61.4930 C   0  0  0  0  0  0  0  0  0  0  0  0
  126.2850  123.5420   60.3670 C   0  0  0  0  0  0  0  0  0  0  0  0
  127.5920  123.1760   60.6890 C   0  0  0  0  0  0  0  0  0  0  0  0
  128.4590  122.7490   59.6880 C   0  0  0  0  0  0  0  0  0  0  0  0
  129.7550  122.3870   60.0120 N   0  0  0  0  0  0  0  0  0  0  0  0
  130.7230  123.4740   60.2400 C   0  0  0  0  0  0  0  0  0  0  0  0
  132.1760  122.9720   60.4160 C   0  0  0  0  0  0  0  0  0  0  0  0
  132.2540  122.0350   61.5360 N   0  0  0  0  0  0  0  0  0  0  0  0
  133.6290  121.5860   61.7220 C   0  0  0  0  0  0  0  0  0  0  0  0
  131.3860  120.8990   61.2360 C   0  0  0  0  0  0  0  0  0  0  0  0
  129.9220  121.3700   61.0680 C   0  0  0  0  0  0  0  0  0  0  0  0
  128.0890  122.6720   58.3830 N   0  0  0  0  0  0  0  0  0  0  0  0
  126.8210  123.0260   58.0360 C   0  0  0  0  0  0  0  0  0  0  0  0
  126.4640  122.9380   56.6690 C   0  0  0  0  0  0  0  0  0  0  0  0
  125.1830  123.2860   56.2560 C   0  0  0  0  0  0  0  0  0  0  0  0
  124.2390  123.7220   57.1790 C   0  0  0  0  0  0  0  0  0  0  0  0
  124.5580  123.8200   58.5300 C   0  0  0  0  0  0  0  0  0  0  0  0
  125.8590  123.4750   58.9990 C   0  0  0  0  0  0  0  0  0  0  0  0
  1  2  1  0
  2  3  2  0
  3  4  1  0
  4  5  1  0
  5  6  1  0
  6  7  1  0
  7  8  1  0
  8  9  1  0
  8 10  1  0
 10 11  1  0
  4 12  2  0
 12 13  1  0
 13 14  2  0
 14 15  1  0
 15 16  2  0
 16 17  1  0
 17 18  2  0
 18  2  1  0
 11  5  1  0
 18 13  1  0
M  END
>  <Binding energies>  (83) 
[-6.65]

>  <Ligand effiencies>  (83) 
[-0.36944444444444446]

>  <Interactions>  (83) 
["V-A:GLY:454:CA:4046, V-B:ALA:541:CB:9864, V-B:TYR:539:CE1:9847, V-A:ILE:369:CG2:3234, V-A:ILE:369:CD1:3236, V-A:LEU:475:CD2:4256, V-B:TYR:531:CE2:9765, V-B:PRO:540:CA:9855, V-B:ILE:538:CG2:9835, V-B:ASP:366:CG:8184, V-B:PRO:540:CB:9857, V-B:ILE:538:CB:9834, V-B:LEU:363:CD1:8160, V-B:TYR:539:CD1:9845, V-B:LEU:363:CA:8156, V-B:PRO:540:N:9856, V-B:TYR:539:C:9839, V-B:TYR:531:CZ:9766"]

$$$$
RR5_Rahimova_2017
     RDKit          3D

 45 50  0  0  0  0  0  0  0  0999 V2000
  128.2330  122.6180   62.2910 O   0  0  0  0  0  0  0  0  0  0  0  0
  128.4390  123.0210   61.1470 C   0  0  0  0  0  0  0  0  0  0  0  0
  127.2490  123.4020   60.2460 C   0  0  0  0  0  0  0  0  0  0  0  0
  126.2420  124.4080   60.9090 C   0  0  2  0  0  0  0  0  0  0  0  0
  126.8640  125.4400   61.7630 N   0  0  0  0  0  0  0  0  0  0  0  0
  127.3780  126.6130   61.2290 C   0  0  0  0  0  0  0  0  0  0  0  0
  127.3460  126.9600   60.0450 O   0  0  0  0  0  0  0  0  0  0  0  0
  127.9410  127.3210   62.2230 O   0  0  0  0  0  0  0  0  0  0  0  0
  127.3160  128.4880   62.7510 C   0  0  0  0  0  0  0  0  0  0  0  0
  126.9600  129.4780   61.6210 C   0  0  0  0  0  0  0  0  0  0  0  0
  125.8320  130.4300   61.9780 C   0  0  0  0  0  0  0  0  0  0  0  0
  124.5200  130.1470   62.3710 C   0  0  0  0  0  0  0  0  0  0  0  0
  123.6460  131.1910   62.6780 C   0  0  0  0  0  0  0  0  0  0  0  0
  124.0780  132.5150   62.5910 C   0  0  0  0  0  0  0  0  0  0  0  0
  125.3860  132.8010   62.1960 C   0  0  0  0  0  0  0  0  0  0  0  0
  126.2590  131.7550   61.8890 C   0  0  0  0  0  0  0  0  0  0  0  0
  127.6620  131.7640   61.4460 C   0  0  0  0  0  0  0  0  0  0  0  0
  128.5390  132.8200   61.1920 C   0  0  0  0  0  0  0  0  0  0  0  0
  129.8360  132.5500   60.7520 C   0  0  0  0  0  0  0  0  0  0  0  0
  130.2530  131.2300   60.5700 C   0  0  0  0  0  0  0  0  0  0  0  0
  129.3750  130.1770   60.8290 C   0  0  0  0  0  0  0  0  0  0  0  0
  128.0770  130.4430   61.2720 C   0  0  0  0  0  0  0  0  0  0  0  0
  125.1570  123.6500   61.7130 C   0  0  0  0  0  0  0  0  0  0  0  0
  124.1360  123.1940   61.2380 O   0  0  0  0  0  0  0  0  0  0  0  0
  125.5340  123.5610   63.0220 O   0  0  0  0  0  0  0  0  0  0  0  0
  129.6620  123.1950   60.5990 N   0  0  0  0  0  0  0  0  0  0  0  0
  131.0520  122.9650   61.0950 C   0  0  0  0  0  0  0  0  0  0  0  0
  131.9120  123.6990   60.0120 C   0  0  0  0  0  0  0  0  0  0  0  0
  131.3140  124.4720   59.0020 C   0  0  0  0  0  0  0  0  0  0  0  0
  132.0890  125.1220   58.0450 C   0  0  0  0  0  0  0  0  0  0  0  0
  133.4740  125.0010   58.0750 C   0  0  0  0  0  0  0  0  0  0  0  0
  134.0920  124.2440   59.0630 C   0  0  0  0  0  0  0  0  0  0  0  0
  133.3180  123.6030   60.0260 C   0  0  0  0  0  0  0  0  0  0  0  0
  131.1620  123.6350   62.5060 C   0  0  0  0  0  0  0  0  0  0  0  0
  131.8000  124.8720   62.6880 C   0  0  0  0  0  0  0  0  0  0  0  0
  131.9020  125.4410   63.9550 C   0  0  0  0  0  0  0  0  0  0  0  0
  131.3700  124.7780   65.0570 C   0  0  0  0  0  0  0  0  0  0  0  0
  130.7300  123.5530   64.9010 C   0  0  0  0  0  0  0  0  0  0  0  0
  130.6210  122.9910   63.6330 C   0  0  0  0  0  0  0  0  0  0  0  0
  131.2640  121.4130   61.0910 C   0  0  0  0  0  0  0  0  0  0  0  0
  130.2070  120.5370   61.3970 C   0  0  0  0  0  0  0  0  0  0  0  0
  130.3920  119.1570   61.4030 C   0  0  0  0  0  0  0  0  0  0  0  0
  131.6390  118.6270   61.0960 C   0  0  0  0  0  0  0  0  0  0  0  0
  132.6990  119.4660   60.7750 C   0  0  0  0  0  0  0  0  0  0  0  0
  132.5110  120.8450   60.7710 C   0  0  0  0  0  0  0  0  0  0  0  0
  1  2  2  0
  2  3  1  0
  4  3  1  1
  4  5  1  0
  5  6  1  0
  6  7  2  0
  6  8  1  0
  8  9  1  0
  9 10  1  0
 10 11  1  0
 11 12  2  0
 12 13  1  0
 13 14  2  0
 14 15  1  0
 15 16  2  0
 16 17  1  0
 17 18  2  0
 18 19  1  0
 19 20  2  0
 20 21  1  0
 21 22  2  0
  4 23  1  0
 23 24  2  0
 23 25  1  0
  2 26  1  0
 26 27  1  0
 27 28  1  0
 28 29  2  0
 29 30  1  0
 30 31  2  0
 31 32  1  0
 32 33  2  0
 27 34  1  0
 34 35  2  0
 35 36  1  0
 36 37  2  0
 37 38  1  0
 38 39  2  0
 27 40  1  0
 40 41  2  0
 41 42  1  0
 42 43  2  0
 43 44  1  0
 44 45  2  0
 22 10  1  0
 33 28  1  0
 39 34  1  0
 45 40  1  0
 16 11  1  0
 22 17  1  0
M  END
>  <Binding energies>  (84) 
[-10.8]

>  <Ligand effiencies>  (84) 
[-0.225]

>  <Interactions>  (84) 
["V-A:PRO:540:CA:4881, V-A:ARG:545:CZ:4924, H-B:ARG:545:NH2:9900, V-B:ALA:541:CB:9864, V-B:TYR:539:CE1:9847, V-A:ILE:369:CG2:3234, V-B:ARG:545:CZ:9898, V-B:GLY:453:CA:9015, V-A:ILE:369:CD1:3236, V-A:PRO:540:N:4882, V-B:ILE:369:CD1:8210, V-B:GLY:453:C:9013, V-A:ASP:366:CG:3210, V-A:LEU:475:CD2:4256, V-B:PRO:540:CA:9855, V-B:ASP:366:CG:8184, V-B:PRO:540:CB:9857, V-B:LEU:475:CD2:9230, V-B:TYR:539:CD1:9845, V-B:GLU:543:CD:9880, V-B:GLU:543:CB:9878, V-A:ASP:366:CA:3207, V-A:ASP:366:CB:3209, V-A:ALA:541:CB:4890, H-B:GLU:543:OE1:9881, V-B:TYR:539:CZ:9849, H-B:GLU:543:OE2:9882, H-B:ALA:541:N:9863, V-A:PRO:540:C:4879, V-B:GLY:454:CA:9020, V-A:TYR:539:C:4865, V-A:ILE:369:CB:3233, V-A:ASP:366:C:3205, V-A:PRO:482:CB:4323, V-A:TYR:484:CZ:4344, V-A:TYR:484:CE2:4343, V-A:PRO:482:CG:4324, V-B:ASN:362:CB:8147, H-B:ALA:541:O:9861, V-A:LEU:373:CD1:3277, V-A:SER:385:CA:3404"]

$$$$
