1a_Ghoteimi_2023
     RDKit          3D

 40 43  0  0  0  0  0  0  0  0999 V2000
  130.5070  124.7930   66.7340 C   0  0  0  0  0  0  0  0  0  0  0  0
  130.9720  126.1230   66.1340 C   0  0  0  0  0  0  0  0  0  0  0  0
  132.2920  125.9740   65.6240 O   0  0  0  0  0  0  0  0  0  0  0  0
  132.5310  125.2520   64.4990 C   0  0  0  0  0  0  0  0  0  0  0  0
  133.6170  124.7200   64.2490 O   0  0  0  0  0  0  0  0  0  0  0  0
  131.3390  125.1600   63.5900 C   0  0  0  0  0  0  0  0  0  0  0  0
  130.6680  123.9490   63.3650 C   0  0  0  0  0  0  0  0  0  0  0  0
  129.5680  123.8950   62.5140 C   0  0  0  0  0  0  0  0  0  0  0  0
  129.1140  125.0570   61.8730 C   0  0  0  0  0  0  0  0  0  0  0  0
  128.0180  125.1160   60.9910 N   0  0  0  0  0  0  0  0  0  0  0  0
  127.0460  124.2080   60.7560 C   0  0  0  0  0  0  0  0  0  0  0  0
  126.9360  123.1170   61.3150 O   0  0  0  0  0  0  0  0  0  0  0  0
  126.0110  124.6100   59.7060 C   0  0  0  0  0  0  0  0  0  0  0  0
  126.7480  124.7430   58.0510 S   0  0  0  0  0  0  0  0  0  0  0  0
  128.3010  125.5830   58.2660 C   0  0  0  0  0  0  0  0  0  0  0  0
  129.2800  124.8030   58.7820 N   0  0  0  0  0  0  0  0  0  0  0  0
  130.5180  125.3230   58.9920 C   0  0  0  0  0  0  0  0  0  0  0  0
  131.5550  124.3900   59.5470 C   0  0  0  0  0  0  0  0  0  0  0  0
  131.1990  123.1450   60.0920 C   0  0  0  0  0  0  0  0  0  0  0  0
  132.1630  122.2820   60.6050 C   0  0  0  0  0  0  0  0  0  0  0  0
  133.5100  122.6340   60.5920 C   0  0  0  0  0  0  0  0  0  0  0  0
  134.3960  121.7150   61.1200 O   0  0  0  0  0  0  0  0  0  0  0  0
  134.0040  120.3510   61.2200 C   0  0  0  0  0  0  0  0  0  0  0  0
  133.8810  123.8750   60.0550 C   0  0  0  0  0  0  0  0  0  0  0  0
  132.9150  124.7360   59.5430 C   0  0  0  0  0  0  0  0  0  0  0  0
  130.7900  126.6610   58.6800 C   0  0  0  0  0  0  0  0  0  0  0  0
  129.7860  127.4940   58.1680 C   0  0  0  0  0  0  0  0  0  0  0  0
  130.1410  128.9180   57.8890 C   0  0  0  0  0  0  0  0  0  0  0  0
  129.9330  129.4740   56.6220 C   0  0  0  0  0  0  0  0  0  0  0  0
  130.2520  130.8060   56.3730 C   0  0  0  0  0  0  0  0  0  0  0  0
  130.7760  131.6100   57.3850 C   0  0  0  0  0  0  0  0  0  0  0  0
  131.0610  132.9180   57.0470 O   0  0  0  0  0  0  0  0  0  0  0  0
  132.3240  133.2260   56.4660 C   0  0  0  0  0  0  0  0  0  0  0  0
  130.9780  131.0590   58.6600 C   0  0  0  0  0  0  0  0  0  0  0  0
  130.6590  129.7260   58.9060 C   0  0  0  0  0  0  0  0  0  0  0  0
  128.5010  126.9430   57.9480 C   0  0  0  0  0  0  0  0  0  0  0  0
  127.4140  127.7620   57.4010 C   0  0  0  0  0  0  0  0  0  0  0  0
  126.5570  128.4080   56.9680 N   0  0  0  0  0  0  0  0  0  0  0  0
  129.7810  126.2630   62.0910 C   0  0  0  0  0  0  0  0  0  0  0  0
  130.8820  126.3160   62.9430 C   0  0  0  0  0  0  0  0  0  0  0  0
  1  2  1  0
  2  3  1  0
  3  4  1  0
  4  5  2  0
  4  6  1  0
  6  7  2  0
  7  8  1  0
  8  9  2  0
  9 10  1  0
 10 11  1  0
 11 12  2  0
 11 13  1  0
 13 14  1  0
 14 15  1  0
 15 16  2  0
 16 17  1  0
 17 18  1  0
 18 19  2  0
 19 20  1  0
 20 21  2  0
 21 22  1  0
 22 23  1  0
 21 24  1  0
 24 25  2  0
 17 26  2  0
 26 27  1  0
 27 28  1  0
 28 29  2  0
 29 30  1  0
 30 31  2  0
 31 32  1  0
 32 33  1  0
 31 34  1  0
 34 35  2  0
 27 36  2  0
 36 37  1  0
 37 38  3  0
  9 39  1  0
 39 40  2  0
 40  6  1  0
 36 15  1  0
 25 18  1  0
 35 28  1  0
M  END
>  <Binding energies>  (1) 
[-7.18]

>  <Ligand effiencies>  (1) 
[-0.17512195121951218]

>  <Interactions>  (1) 
["V-A:PRO:540:CA:4881, V-A:ARG:545:CZ:4924, H-A:ARG:545:NE:4922, V-A:ILE:538:CB:4860, V-B:TYR:539:CE1:9847, V-A:ILE:369:CG2:3234, V-A:PRO:540:CD:4885, V-A:ILE:538:CG2:4861, V-A:PRO:540:CB:4883, V-A:ILE:369:CD1:3236, H-A:GLY:454:N:4047, H-A:TYR:484:OH:4345, V-A:PRO:540:N:4882, V-A:ASP:366:CG:3210, V-A:LEU:475:CD2:4256, V-A:LEU:363:CD1:3186, V-B:ASP:366:CG:8184, V-B:TYR:539:CD1:9845, H-B:TYR:531:OH:9767, V-B:GLU:543:CD:9880, V-B:GLU:543:CG:9879, V-B:GLU:543:CB:9878, V-A:HIS:456:CE1:4066, V-A:ASP:366:CB:3209, V-A:GLU:543:CD:4906, H-B:ALA:541:N:9863, V-A:ILE:369:CB:3233, H-A:TYR:539:N:4868, V-A:MET:535:CE:4833, V-A:TYR:484:CZ:4344, V-A:TYR:484:CE2:4343, V-A:ILE:538:CA:4858, V-A:SER:385:CA:3404, V-A:SER:385:CB:3406, V-A:SER:385:C:3402, V-A:PRO:540:CG:4884"]

$$$$
1b_Ghoteimi_2023
     RDKit          3D

 34 37  0  0  0  0  0  0  0  0999 V2000
  134.3780  124.2570   59.4630 C   0  0  0  0  0  0  0  0  0  0  0  0
  133.3210  124.1890   58.5130 O   0  0  0  0  0  0  0  0  0  0  0  0
  132.3010  125.1180   58.5740 C   0  0  0  0  0  0  0  0  0  0  0  0
  131.6940  125.3000   59.8150 C   0  0  0  0  0  0  0  0  0  0  0  0
  130.6560  126.2140   59.9710 C   0  0  0  0  0  0  0  0  0  0  0  0
  130.1960  126.9790   58.8900 C   0  0  0  0  0  0  0  0  0  0  0  0
  129.0730  127.9640   59.0620 C   0  0  0  0  0  0  0  0  0  0  0  0
  128.4050  128.1530   60.2760 C   0  0  0  0  0  0  0  0  0  0  0  0
  127.3680  129.0870   60.3850 C   0  0  0  0  0  0  0  0  0  0  0  0
  126.6960  129.2310   61.7110 C   0  0  0  0  0  0  0  0  0  0  0  0
  125.3320  129.5290   61.7820 C   0  0  0  0  0  0  0  0  0  0  0  0
  124.7030  129.6720   63.0160 C   0  0  0  0  0  0  0  0  0  0  0  0
  125.4250  129.5260   64.2010 C   0  0  0  0  0  0  0  0  0  0  0  0
  124.7180  129.6860   65.3780 O   0  0  0  0  0  0  0  0  0  0  0  0
  125.2930  129.2360   66.5990 C   0  0  0  0  0  0  0  0  0  0  0  0
  126.7950  129.2350   64.1340 C   0  0  0  0  0  0  0  0  0  0  0  0
  127.4210  129.0930   62.8990 C   0  0  0  0  0  0  0  0  0  0  0  0
  127.0200  129.8450   59.2400 C   0  0  0  0  0  0  0  0  0  0  0  0
  126.0080  130.9020   59.3250 C   0  0  0  0  0  0  0  0  0  0  0  0
  125.2080  131.7360   59.3940 N   0  0  0  0  0  0  0  0  0  0  0  0
  127.7200  129.5910   58.0390 C   0  0  0  0  0  0  0  0  0  0  0  0
  127.4140  130.4390   56.5030 S   0  0  0  0  0  0  0  0  0  0  0  0
  128.0560  132.1390   56.6620 C   0  0  0  0  0  0  0  0  0  0  0  0
  129.3570  132.2690   57.4680 C   0  0  0  0  0  0  0  0  0  0  0  0
  130.3740  132.7370   56.9510 O   0  0  0  0  0  0  0  0  0  0  0  0
  129.2740  131.8340   58.7450 N   0  0  0  0  0  0  0  0  0  0  0  0
  130.2840  131.8320   59.7000 C   0  0  0  0  0  0  0  0  0  0  0  0
  131.5490  131.2930   59.4680 C   0  0  0  0  0  0  0  0  0  0  0  0
  132.2410  131.4870   60.6420 C   0  0  0  0  0  0  0  0  0  0  0  0
  131.4350  132.1130   61.5330 O   0  0  0  0  0  0  0  0  0  0  0  0
  130.1980  132.3270   60.9240 N   0  0  0  0  0  0  0  0  0  0  0  0
  128.7300  128.6900   57.9660 N   0  0  0  0  0  0  0  0  0  0  0  0
  130.8130  126.7880   57.6430 C   0  0  0  0  0  0  0  0  0  0  0  0
  131.8500  125.8730   57.4830 C   0  0  0  0  0  0  0  0  0  0  0  0
  1  2  1  0
  2  3  1  0
  3  4  2  0
  4  5  1  0
  5  6  2  0
  6  7  1  0
  7  8  2  0
  8  9  1  0
  9 10  1  0
 10 11  2  0
 11 12  1  0
 12 13  2  0
 13 14  1  0
 14 15  1  0
 13 16  1  0
 16 17  2  0
  9 18  2  0
 18 19  1  0
 19 20  3  0
 18 21  1  0
 21 22  1  0
 22 23  1  0
 23 24  1  0
 24 25  2  0
 24 26  1  0
 26 27  1  0
 27 28  1  0
 28 29  2  0
 29 30  1  0
 30 31  1  0
 21 32  2  0
  6 33  1  0
 33 34  2  0
 34  3  1  0
 32  7  1  0
 17 10  1  0
 31 27  2  0
M  END
>  <Binding energies>  (2) 
[-7.88]

>  <Ligand effiencies>  (2) 
[-0.22514285714285714]

>  <Interactions>  (2) 
["V-A:PRO:540:CA:4881, V-A:ILE:369:CG2:3234, V-A:PRO:540:CB:4883, V-B:ARG:545:CZ:9898, V-A:ILE:369:CD1:3236, V-A:ASP:366:CG:3210, V-A:TYR:539:CE1:4873, V-B:ASP:366:CG:8184, H-B:TYR:484:OH:9319, H-B:GLY:454:N:9021, V-A:TYR:539:CD1:4871, H-B:ARG:545:NE:9896, H-A:TYR:539:OH:4876, V-A:ASP:366:CA:3207, V-A:ASP:366:CB:3209, V-B:HIS:456:CE1:9040, V-A:TYR:539:CZ:4875, H-B:TYR:539:OH:9850, V-A:ILE:369:CB:3233, H-A:TYR:539:N:4868, V-A:MET:535:CE:4833, V-A:TYR:539:CG:4870, V-A:TYR:539:CE2:4874, V-A:TYR:539:CD2:4872, V-A:ILE:369:CG1:3235, H-A:ALA:541:N:4889, V-B:ARG:545:CG:9894, V-B:ARG:545:CD:9895"]

$$$$
1c_Ghoteimi_2023
     RDKit          3D

 34 37  0  0  0  0  0  0  0  0999 V2000
  124.1570  132.1990   61.8560 C   0  0  0  0  0  0  0  0  0  0  0  0
  124.7480  132.2050   60.5610 O   0  0  0  0  0  0  0  0  0  0  0  0
  125.1660  131.0120   60.0040 C   0  0  0  0  0  0  0  0  0  0  0  0
  126.0090  130.2210   60.7790 C   0  0  0  0  0  0  0  0  0  0  0  0
  126.4820  129.0040   60.2960 C   0  0  0  0  0  0  0  0  0  0  0  0
  126.1250  128.5410   59.0200 C   0  0  0  0  0  0  0  0  0  0  0  0
  126.6360  127.2320   58.4930 C   0  0  0  0  0  0  0  0  0  0  0  0
  128.0000  126.9300   58.4110 C   0  0  0  0  0  0  0  0  0  0  0  0
  128.4280  125.6840   57.9370 C   0  0  0  0  0  0  0  0  0  0  0  0
  129.8950  125.4050   57.9410 C   0  0  0  0  0  0  0  0  0  0  0  0
  130.5290  124.9460   59.0990 C   0  0  0  0  0  0  0  0  0  0  0  0
  131.8990  124.7080   59.1060 C   0  0  0  0  0  0  0  0  0  0  0  0
  132.6630  124.9270   57.9590 C   0  0  0  0  0  0  0  0  0  0  0  0
  134.0160  124.6630   58.0590 O   0  0  0  0  0  0  0  0  0  0  0  0
  134.5380  124.1670   59.2870 C   0  0  0  0  0  0  0  0  0  0  0  0
  132.0310  125.3940   56.7970 C   0  0  0  0  0  0  0  0  0  0  0  0
  130.6590  125.6320   56.7920 C   0  0  0  0  0  0  0  0  0  0  0  0
  127.4510  124.7510   57.5160 C   0  0  0  0  0  0  0  0  0  0  0  0
  127.8360  123.4420   56.9790 C   0  0  0  0  0  0  0  0  0  0  0  0
  128.1410  122.4090   56.5550 N   0  0  0  0  0  0  0  0  0  0  0  0
  126.0940  125.1140   57.6420 C   0  0  0  0  0  0  0  0  0  0  0  0
  124.7610  123.9820   57.3120 S   0  0  0  0  0  0  0  0  0  0  0  0
  124.1130  123.5330   58.9550 C   0  0  0  0  0  0  0  0  0  0  0  0
  125.1890  123.6150   60.0430 C   0  0  0  0  0  0  0  0  0  0  0  0
  124.9000  124.0700   61.1510 O   0  0  0  0  0  0  0  0  0  0  0  0
  126.3980  123.1240   59.6950 N   0  0  0  0  0  0  0  0  0  0  0  0
  127.4890  122.9390   60.5300 C   0  0  0  0  0  0  0  0  0  0  0  0
  127.5540  123.1350   61.8290 N   0  0  0  0  0  0  0  0  0  0  0  0
  128.7410  122.8180   62.3070 C   0  0  0  0  0  0  0  0  0  0  0  0
  129.6710  122.3480   61.3840 C   0  0  0  0  0  0  0  0  0  0  0  0
  128.9410  122.3280   59.8060 S   0  0  0  0  0  0  0  0  0  0  0  0
  125.7010  126.3170   58.1250 N   0  0  0  0  0  0  0  0  0  0  0  0
  125.2700  129.3430   58.2500 C   0  0  0  0  0  0  0  0  0  0  0  0
  124.7960  130.5610   58.7280 C   0  0  0  0  0  0  0  0  0  0  0  0
  1  2  1  0
  2  3  1  0
  3  4  2  0
  4  5  1  0
  5  6  2  0
  6  7  1  0
  7  8  2  0
  8  9  1  0
  9 10  1  0
 10 11  2  0
 11 12  1  0
 12 13  2  0
 13 14  1  0
 14 15  1  0
 13 16  1  0
 16 17  2  0
  9 18  2  0
 18 19  1  0
 19 20  3  0
 18 21  1  0
 21 22  1  0
 22 23  1  0
 23 24  1  0
 24 25  2  0
 24 26  1  0
 26 27  1  0
 27 28  2  0
 28 29  1  0
 29 30  2  0
 30 31  1  0
 21 32  2  0
  6 33  1  0
 33 34  2  0
 34  3  1  0
 32  7  1  0
 17 10  1  0
 31 27  1  0
M  END
>  <Binding energies>  (3) 
[-7.22]

>  <Ligand effiencies>  (3) 
[-0.20628571428571427]

>  <Interactions>  (3) 
["H-B:ARG:545:NH2:9900, V-B:ALA:541:CB:9864, V-B:TYR:539:CE1:9847, V-A:ILE:369:CG2:3234, V-B:ILE:369:CG2:8208, V-A:ILE:369:CD1:3236, V-B:ILE:369:CD1:8210, V-A:ASP:366:CG:3210, V-A:TYR:539:CE1:4873, V-B:PRO:540:CA:9855, V-B:ASP:366:CG:8184, V-B:PRO:540:CB:9857, V-B:TYR:539:CD1:9845, V-B:LEU:363:CA:8156, V-B:ASP:366:CB:8183, V-B:PRO:540:N:9856, H-B:TYR:531:OH:9767, V-B:TYR:539:C:9839, V-A:ASP:366:CA:3207, V-A:ASP:366:CB:3209, V-B:TYR:539:CZ:9849, V-A:TYR:539:CZ:4875, H-B:ALA:541:N:9863, H-B:TYR:539:OH:9850, V-A:ILE:369:CB:3233, V-B:PRO:540:C:9853, H-B:TYR:539:N:9842, V-B:LEU:363:CB:8158, V-A:ILE:369:CG1:3235, V-B:ALA:541:CA:9862"]

$$$$
1d_Ghoteimi_2023
     RDKit          3D

 30 32  0  0  0  0  0  0  0  0999 V2000
  124.6580  122.7840   56.6310 C   0  0  0  0  0  0  0  0  0  0  0  0
  125.8580  122.0390   56.4910 O   0  0  0  0  0  0  0  0  0  0  0  0
  126.9930  122.4470   57.0950 C   0  0  0  0  0  0  0  0  0  0  0  0
  128.1390  122.1080   56.7990 O   0  0  0  0  0  0  0  0  0  0  0  0
  126.7220  123.4150   58.2440 C   0  0  0  0  0  0  0  0  0  0  0  0
  127.5410  122.7500   59.7250 S   0  0  0  0  0  0  0  0  0  0  0  0
  128.2310  124.1340   60.6050 C   0  0  0  0  0  0  0  0  0  0  0  0
  127.5770  125.3000   60.3870 N   0  0  0  0  0  0  0  0  0  0  0  0
  128.0010  126.4380   60.9940 C   0  0  0  0  0  0  0  0  0  0  0  0
  127.2170  127.6850   60.7050 C   0  0  0  0  0  0  0  0  0  0  0  0
  126.8290  128.0150   59.3970 C   0  0  0  0  0  0  0  0  0  0  0  0
  126.1080  129.1750   59.1310 C   0  0  0  0  0  0  0  0  0  0  0  0
  125.7540  130.0430   60.1610 C   0  0  0  0  0  0  0  0  0  0  0  0
  125.0430  131.1720   59.8030 O   0  0  0  0  0  0  0  0  0  0  0  0
  123.6340  131.0760   59.6260 C   0  0  0  0  0  0  0  0  0  0  0  0
  126.1360  129.7280   61.4720 C   0  0  0  0  0  0  0  0  0  0  0  0
  126.8550  128.5660   61.7350 C   0  0  0  0  0  0  0  0  0  0  0  0
  129.1050  126.4180   61.8540 C   0  0  0  0  0  0  0  0  0  0  0  0
  129.8090  125.2300   62.0850 C   0  0  0  0  0  0  0  0  0  0  0  0
  130.9830  125.2810   63.0090 C   0  0  0  0  0  0  0  0  0  0  0  0
  132.2720  125.0390   62.5230 C   0  0  0  0  0  0  0  0  0  0  0  0
  133.3700  125.0860   63.3780 C   0  0  0  0  0  0  0  0  0  0  0  0
  133.2040  125.3800   64.7310 C   0  0  0  0  0  0  0  0  0  0  0  0
  134.3480  125.3980   65.5040 O   0  0  0  0  0  0  0  0  0  0  0  0
  134.2300  125.3400   66.9220 C   0  0  0  0  0  0  0  0  0  0  0  0
  131.9140  125.6370   65.2200 C   0  0  0  0  0  0  0  0  0  0  0  0
  130.8180  125.5900   64.3630 C   0  0  0  0  0  0  0  0  0  0  0  0
  129.3770  124.0510   61.4270 C   0  0  0  0  0  0  0  0  0  0  0  0
  130.1380  122.8040   61.5500 C   0  0  0  0  0  0  0  0  0  0  0  0
  130.7390  121.8200   61.6480 N   0  0  0  0  0  0  0  0  0  0  0  0
  1  2  1  0
  2  3  1  0
  3  4  2  0
  3  5  1  0
  5  6  1  0
  6  7  1  0
  7  8  2  0
  8  9  1  0
  9 10  1  0
 10 11  2  0
 11 12  1  0
 12 13  2  0
 13 14  1  0
 14 15  1  0
 13 16  1  0
 16 17  2  0
  9 18  2  0
 18 19  1  0
 19 20  1  0
 20 21  2  0
 21 22  1  0
 22 23  2  0
 23 24  1  0
 24 25  1  0
 23 26  1  0
 26 27  2  0
 19 28  2  0
 28 29  1  0
 29 30  3  0
 28  7  1  0
 17 10  1  0
 27 20  1  0
M  END
>  <Binding energies>  (4) 
[-6.82]

>  <Ligand effiencies>  (4) 
[-0.22733333333333333]

>  <Interactions>  (4) 
["V-A:ARG:545:CZ:4924, H-A:ARG:545:NE:4922, V-B:ILE:369:CG2:8208, H-A:GLY:454:N:4047, H-A:TYR:484:OH:4345, V-B:ILE:369:CD1:8210, V-B:TYR:531:CE2:9765, V-B:PRO:540:CA:9855, V-B:ILE:538:CG2:9835, V-B:ASP:366:CG:8184, V-B:PRO:540:CB:9857, V-B:PRO:540:CD:9859, V-B:ILE:538:CB:9834, V-B:LEU:363:CD1:8160, V-B:ASP:366:CB:8183, V-B:PRO:540:N:9856, V-B:ILE:369:CB:8207, H-A:TYR:539:OH:4876, V-B:TYR:539:C:9839, V-B:GLU:543:CD:9880, V-A:HIS:456:CE1:4066, V-B:ASP:366:CA:8181, H-B:TYR:539:N:9842, V-A:TYR:484:CZ:4344, V-B:TYR:539:CA:9841, V-A:ARG:545:CG:4920, V-A:ARG:545:CD:4921, V-A:ARG:545:CB:4919, V-A:ILE:455:C:4049"]

$$$$
1j_Grossjean_2025
     RDKit          3D

 20 21  0  0  0  0  0  0  0  0999 V2000
  124.6950  123.8400   62.1670 C   0  0  0  0  0  0  0  0  0  0  0  0
  125.4000  123.6020   60.8440 C   0  0  0  0  0  0  0  0  0  0  0  0
  124.6950  123.5370   59.6440 C   0  0  0  0  0  0  0  0  0  0  0  0
  125.3990  123.3280   58.4540 C   0  0  0  0  0  0  0  0  0  0  0  0
  124.6060  123.2780   57.1490 C   0  0  0  0  0  0  0  0  0  0  0  0
  126.8040  123.1820   58.4980 C   0  0  0  0  0  0  0  0  0  0  0  0
  127.5660  123.0160   57.2580 C   0  0  0  0  0  0  0  0  0  0  0  0
  128.1660  122.8860   56.2770 N   0  0  0  0  0  0  0  0  0  0  0  0
  127.4340  123.2360   59.7640 C   0  0  0  0  0  0  0  0  0  0  0  0
  129.1890  123.0680   60.0060 S   0  0  0  0  0  0  0  0  0  0  0  0
  129.4660  122.6030   61.7410 C   0  0  0  0  0  0  0  0  0  0  0  0
  130.4990  121.4830   61.8770 C   0  0  0  0  0  0  0  0  0  0  0  0
  131.4510  121.6290   62.6450 O   0  0  0  0  0  0  0  0  0  0  0  0
  130.2750  120.3880   61.1180 N   0  0  0  0  0  0  0  0  0  0  0  0
  131.0630  119.2470   61.0570 C   0  0  0  0  0  0  0  0  0  0  0  0
  130.7430  118.0250   61.4250 N   0  0  0  0  0  0  0  0  0  0  0  0
  131.7380  117.1840   61.2240 C   0  0  0  0  0  0  0  0  0  0  0  0
  132.8990  117.7220   60.6780 C   0  0  0  0  0  0  0  0  0  0  0  0
  132.6640  119.4250   60.4170 S   0  0  0  0  0  0  0  0  0  0  0  0
  126.7450  123.4600   60.9110 N   0  0  0  0  0  0  0  0  0  0  0  0
  1  2  1  0
  2  3  2  0
  3  4  1  0
  4  5  1  0
  4  6  2  0
  6  7  1  0
  7  8  3  0
  6  9  1  0
  9 10  1  0
 10 11  1  0
 11 12  1  0
 12 13  2  0
 12 14  1  0
 14 15  1  0
 15 16  2  0
 16 17  1  0
 17 18  2  0
 18 19  1  0
  9 20  2  0
 20  2  1  0
 19 15  1  0
M  END
>  <Binding energies>  (5) 
[-7.29]

>  <Ligand effiencies>  (5) 
[-0.34714285714285714]

>  <Interactions>  (5) 
["V-B:ALA:541:CB:9864, V-B:TYR:539:CE1:9847, V-A:ILE:369:CG2:3234, V-B:ARG:545:CZ:9898, V-A:LEU:475:CD2:4256, V-B:TYR:531:CE2:9765, V-B:PRO:540:CA:9855, V-B:PRO:540:CB:9857, V-B:PRO:540:CD:9859, V-B:LEU:363:CD1:8160, V-B:TYR:539:CD1:9845, V-B:PRO:540:N:9856, V-B:TYR:539:C:9839, H-B:ALA:541:N:9863, V-A:PRO:482:CB:4323, H-B:TYR:539:N:9842, V-A:PRO:482:CG:4324, V-B:ASN:362:CB:8147, H-B:TYR:539:O:9840, V-A:LEU:373:CD1:3277, V-A:SER:385:CA:3404, V-A:SER:385:CB:3406"]

$$$$
1o_Grossjean_2025
     RDKit          3D

 26 27  0  0  0  0  0  0  0  0999 V2000
  126.6390  128.2930   73.9120 C   0  0  0  0  0  0  0  0  0  0  0  0
  127.5920  127.5400   73.1760 O   0  0  0  0  0  0  0  0  0  0  0  0
  128.7370  128.1130   72.7240 C   0  0  0  0  0  0  0  0  0  0  0  0
  129.4600  128.8300   73.4220 O   0  0  0  0  0  0  0  0  0  0  0  0
  129.0410  127.7840   71.2900 C   0  0  0  0  0  0  0  0  0  0  0  0
  130.3240  127.9420   70.7480 C   0  0  0  0  0  0  0  0  0  0  0  0
  130.5730  127.6250   69.4150 C   0  0  0  0  0  0  0  0  0  0  0  0
  129.5460  127.1510   68.5970 C   0  0  0  0  0  0  0  0  0  0  0  0
  129.9100  126.8530   67.2690 N   0  0  0  0  0  0  0  0  0  0  0  0
  130.2710  125.6760   66.7130 C   0  0  0  0  0  0  0  0  0  0  0  0
  130.3030  124.5940   67.3010 O   0  0  0  0  0  0  0  0  0  0  0  0
  130.6340  125.7320   65.2220 C   0  0  0  0  0  0  0  0  0  0  0  0
  132.1030  126.1240   64.9660 C   0  0  0  0  0  0  0  0  0  0  0  0
  133.2210  124.7050   64.7650 S   0  0  0  0  0  0  0  0  0  0  0  0
  132.8370  123.8980   63.2240 C   0  0  0  0  0  0  0  0  0  0  0  0
  133.6190  124.3050   62.1920 N   0  0  0  0  0  0  0  0  0  0  0  0
  133.4240  123.7530   60.9710 C   0  0  0  0  0  0  0  0  0  0  0  0
  134.3460  124.2460   59.8700 C   0  0  0  0  0  0  0  0  0  0  0  0
  132.4450  122.7930   60.7270 C   0  0  0  0  0  0  0  0  0  0  0  0
  131.6160  122.3860   61.7780 C   0  0  0  0  0  0  0  0  0  0  0  0
  130.5400  121.3430   61.4820 C   0  0  0  0  0  0  0  0  0  0  0  0
  131.7980  122.9510   63.0610 C   0  0  0  0  0  0  0  0  0  0  0  0
  130.9010  122.5800   64.1580 C   0  0  0  0  0  0  0  0  0  0  0  0
  130.1930  122.2850   65.0250 N   0  0  0  0  0  0  0  0  0  0  0  0
  128.2610  126.9850   69.1340 C   0  0  0  0  0  0  0  0  0  0  0  0
  128.0150  127.3010   70.4670 C   0  0  0  0  0  0  0  0  0  0  0  0
  1  2  1  0
  2  3  1  0
  3  4  2  0
  3  5  1  0
  5  6  2  0
  6  7  1  0
  7  8  2  0
  8  9  1  0
  9 10  1  0
 10 11  2  0
 10 12  1  0
 12 13  1  0
 13 14  1  0
 14 15  1  0
 15 16  2  0
 16 17  1  0
 17 18  1  0
 17 19  2  0
 19 20  1  0
 20 21  1  0
 20 22  2  0
 22 23  1  0
 23 24  3  0
  8 25  1  0
 25 26  2  0
 26  5  1  0
 22 15  1  0
M  END
>  <Binding energies>  (6) 
[-7.14]

>  <Ligand effiencies>  (6) 
[-0.2644444444444444]

>  <Interactions>  (6) 
["V-A:ARG:545:CZ:4924, V-A:GLY:454:CA:4046, V-B:ALA:541:CB:9864, V-B:TYR:539:CE1:9847, V-A:ILE:369:CG2:3234, V-A:ILE:369:CD1:3236, H-A:GLY:454:N:4047, H-A:TYR:484:OH:4345, V-A:ASP:366:CG:3210, V-A:LEU:475:CD2:4256, V-B:TYR:539:CD1:9845, V-B:GLU:543:CD:9880, V-B:GLU:543:CG:9879, H-A:GLU:543:OE2:4908, V-B:GLU:543:CB:9878, V-A:HIS:456:CE1:4066, V-A:ASP:366:CA:3207, V-A:ASP:366:CB:3209, H-A:GLU:543:OE1:4907, H-B:GLU:543:OE2:9882, V-B:HIS:456:CE1:9040, V-A:GLU:543:CD:4906, V-A:GLU:543:CG:4905, V-B:GLU:543:C:9874, V-B:HIS:456:CD2:9039, V-A:GLU:543:C:4900, V-B:LYS:547:CE:9922, V-A:GLY:544:C:4910, V-B:GLY:544:C:9884, H-A:LYS:547:NZ:4949, V-B:HIS:456:CG:9037, H-B:LYS:547:NZ:9923, V-A:GLY:544:CA:4912, V-B:HIS:456:CB:9036, H-A:HIS:456:NE2:4067, V-A:ILE:369:CB:3233, V-A:TYR:484:CZ:4344, V-A:TYR:484:CE2:4343, V-A:ILE:369:CG1:3235, V-A:ARG:545:CD:4921"]

$$$$
1p_Grossjean_2025
     RDKit          3D

 21 22  0  0  0  0  0  0  0  0999 V2000
  124.7840  123.8550   62.2560 C   0  0  0  0  0  0  0  0  0  0  0  0
  125.4460  123.5740   60.9200 C   0  0  0  0  0  0  0  0  0  0  0  0
  124.7580  123.7350   59.7180 C   0  0  0  0  0  0  0  0  0  0  0  0
  125.4140  123.4490   58.5160 C   0  0  0  0  0  0  0  0  0  0  0  0
  124.6360  123.6180   57.2120 C   0  0  0  0  0  0  0  0  0  0  0  0
  126.7580  123.0140   58.5490 C   0  0  0  0  0  0  0  0  0  0  0  0
  127.4510  122.6630   57.3090 C   0  0  0  0  0  0  0  0  0  0  0  0
  127.9980  122.3860   56.3270 N   0  0  0  0  0  0  0  0  0  0  0  0
  127.3850  122.9010   59.8130 C   0  0  0  0  0  0  0  0  0  0  0  0
  129.0700  122.3780   60.0330 S   0  0  0  0  0  0  0  0  0  0  0  0
  129.2230  121.8030   61.7490 C   0  0  0  0  0  0  0  0  0  0  0  0
  130.6800  121.6750   62.2340 C   0  0  0  0  0  0  0  0  0  0  0  0
  131.6060  122.7730   61.6900 C   0  0  0  0  0  0  0  0  0  0  0  0
  131.8490  123.7620   62.3840 O   0  0  0  0  0  0  0  0  0  0  0  0
  132.1110  122.5520   60.4550 N   0  0  0  0  0  0  0  0  0  0  0  0
  132.9670  123.3770   59.7370 C   0  0  0  0  0  0  0  0  0  0  0  0
  134.1980  123.8100   60.2300 C   0  0  0  0  0  0  0  0  0  0  0  0
  134.7280  124.5940   59.2310 C   0  0  0  0  0  0  0  0  0  0  0  0
  133.8620  124.6330   58.1920 O   0  0  0  0  0  0  0  0  0  0  0  0
  132.7490  123.8590   58.5250 N   0  0  0  0  0  0  0  0  0  0  0  0
  126.7330  123.1610   60.9750 N   0  0  0  0  0  0  0  0  0  0  0  0
  1  2  1  0
  2  3  2  0
  3  4  1  0
  4  5  1  0
  4  6  2  0
  6  7  1  0
  7  8  3  0
  6  9  1  0
  9 10  1  0
 10 11  1  0
 11 12  1  0
 12 13  1  0
 13 14  2  0
 13 15  1  0
 15 16  1  0
 16 17  1  0
 17 18  2  0
 18 19  1  0
 19 20  1  0
  9 21  2  0
 21  2  1  0
 20 16  2  0
M  END
>  <Binding energies>  (7) 
[-6.61]

>  <Ligand effiencies>  (7) 
[-0.3004545454545455]

>  <Interactions>  (7) 
["V-B:ALA:541:CB:9864, V-B:TYR:539:CE1:9847, V-A:ILE:369:CG2:3234, V-B:ARG:545:CZ:9898, V-A:ILE:369:CD1:3236, V-A:ASP:366:CG:3210, V-A:LEU:475:CD2:4256, V-B:TYR:531:CE2:9765, V-B:PRO:540:CA:9855, V-B:ASP:366:CG:8184, V-B:PRO:540:CB:9857, V-B:LEU:363:CD1:8160, V-B:TYR:539:CD1:9845, V-B:PRO:540:N:9856, V-B:TYR:539:C:9839, V-A:ASP:366:CA:3207, V-A:ASP:366:CB:3209, H-B:ALA:541:N:9863, H-B:TYR:539:OH:9850, V-A:ILE:369:CB:3233, V-A:ASP:366:C:3205, V-B:PRO:540:C:9853, H-B:TYR:539:N:9842, V-B:ASN:362:CB:8147, V-A:ILE:369:CG1:3235, V-B:ALA:541:CA:9862"]

$$$$
2a_Ghoteimi_2023
     RDKit          3D

 48 53  0  0  0  0  0  0  0  0999 V2000
  127.6640  123.1430   61.0570 C   0  0  0  0  0  0  0  0  0  0  0  0
  128.6890  123.3890   59.9460 C   0  0  0  0  0  0  0  0  0  0  0  0
  129.6910  124.2810   60.4180 O   0  0  0  0  0  0  0  0  0  0  0  0
  129.7860  125.5480   59.9390 C   0  0  0  0  0  0  0  0  0  0  0  0
  130.7250  125.9420   59.2400 O   0  0  0  0  0  0  0  0  0  0  0  0
  128.6300  126.4200   60.3390 C   0  0  0  0  0  0  0  0  0  0  0  0
  127.8910  127.1510   59.3970 C   0  0  0  0  0  0  0  0  0  0  0  0
  126.8250  127.9490   59.8000 C   0  0  0  0  0  0  0  0  0  0  0  0
  126.4710  128.0300   61.1480 C   0  0  0  0  0  0  0  0  0  0  0  0
  125.3800  128.8700   61.4440 N   0  0  0  0  0  0  0  0  0  0  0  0
  125.0040  130.0340   60.8710 C   0  0  0  0  0  0  0  0  0  0  0  0
  125.6160  130.6120   59.9720 O   0  0  0  0  0  0  0  0  0  0  0  0
  123.7300  130.6640   61.4500 C   0  0  0  0  0  0  0  0  0  0  0  0
  123.7940  130.9830   63.2420 S   0  0  0  0  0  0  0  0  0  0  0  0
  125.4150  130.4710   63.7630 C   0  0  0  0  0  0  0  0  0  0  0  0
  126.3800  130.6870   62.8400 N   0  0  0  0  0  0  0  0  0  0  0  0
  127.6600  130.3300   63.1170 C   0  0  0  0  0  0  0  0  0  0  0  0
  128.6710  130.5900   62.0470 C   0  0  0  0  0  0  0  0  0  0  0  0
  129.2890  129.5370   61.3620 C   0  0  0  0  0  0  0  0  0  0  0  0
  130.2390  129.7850   60.3750 C   0  0  0  0  0  0  0  0  0  0  0  0
  130.6010  131.0940   60.0290 C   0  0  0  0  0  0  0  0  0  0  0  0
  131.5790  131.3270   59.0560 N   0  0  0  0  0  0  0  0  0  0  0  0
  132.9900  131.5580   59.4230 C   0  0  0  0  0  0  0  0  0  0  0  0
  133.9700  131.4340   58.2370 C   0  0  0  0  0  0  0  0  0  0  0  0
  133.5710  132.2970   57.1850 O   0  0  0  0  0  0  0  0  0  0  0  0
  132.2750  131.9710   56.7100 C   0  0  0  0  0  0  0  0  0  0  0  0
  131.2420  132.1100   57.8480 C   0  0  0  0  0  0  0  0  0  0  0  0
  129.9870  132.1460   60.7280 C   0  0  0  0  0  0  0  0  0  0  0  0
  129.0360  131.8990   61.7130 C   0  0  0  0  0  0  0  0  0  0  0  0
  128.0000  129.7550   64.3440 C   0  0  0  0  0  0  0  0  0  0  0  0
  127.0170  129.5220   65.3160 C   0  0  0  0  0  0  0  0  0  0  0  0
  127.4490  128.8990   66.6030 C   0  0  0  0  0  0  0  0  0  0  0  0
  126.6130  127.9930   67.2610 C   0  0  0  0  0  0  0  0  0  0  0  0
  126.9970  127.4220   68.4700 C   0  0  0  0  0  0  0  0  0  0  0  0
  128.2320  127.7370   69.0580 C   0  0  0  0  0  0  0  0  0  0  0  0
  128.6290  127.1890   70.2810 N   0  0  0  0  0  0  0  0  0  0  0  0
  127.6430  127.0660   71.3730 C   0  0  0  0  0  0  0  0  0  0  0  0
  128.0940  126.1100   72.4970 C   0  0  0  0  0  0  0  0  0  0  0  0
  129.3570  126.5150   73.0020 O   0  0  0  0  0  0  0  0  0  0  0  0
  130.3540  126.5040   71.9920 C   0  0  0  0  0  0  0  0  0  0  0  0
  129.9610  127.4670   70.8520 C   0  0  0  0  0  0  0  0  0  0  0  0
  129.0600  128.6560   68.3980 C   0  0  0  0  0  0  0  0  0  0  0  0
  128.6750  129.2290   67.1890 C   0  0  0  0  0  0  0  0  0  0  0  0
  125.6820  129.8940   65.0250 C   0  0  0  0  0  0  0  0  0  0  0  0
  124.6200  129.7270   66.0220 C   0  0  0  0  0  0  0  0  0  0  0  0
  123.7830  129.5920   66.8110 N   0  0  0  0  0  0  0  0  0  0  0  0
  127.2100  127.3090   62.0970 C   0  0  0  0  0  0  0  0  0  0  0  0
  128.2760  126.5090   61.6920 C   0  0  0  0  0  0  0  0  0  0  0  0
  1  2  1  0
  2  3  1  0
  3  4  1  0
  4  5  2  0
  4  6  1  0
  6  7  2  0
  7  8  1  0
  8  9  2  0
  9 10  1  0
 10 11  1  0
 11 12  2  0
 11 13  1  0
 13 14  1  0
 14 15  1  0
 15 16  2  0
 16 17  1  0
 17 18  1  0
 18 19  2  0
 19 20  1  0
 20 21  2  0
 21 22  1  0
 22 23  1  0
 23 24  1  0
 24 25  1  0
 25 26  1  0
 26 27  1  0
 21 28  1  0
 28 29  2  0
 17 30  2  0
 30 31  1  0
 31 32  1  0
 32 33  2  0
 33 34  1  0
 34 35  2  0
 35 36  1  0
 36 37  1  0
 37 38  1  0
 38 39  1  0
 39 40  1  0
 40 41  1  0
 35 42  1  0
 42 43  2  0
 31 44  2  0
 44 45  1  0
 45 46  3  0
  9 47  1  0
 47 48  2  0
 48  6  1  0
 44 15  1  0
 29 18  1  0
 43 32  1  0
 27 22  1  0
 41 36  1  0
M  END
>  <Binding energies>  (8) 
[-4.87]

>  <Ligand effiencies>  (8) 
[-0.09938775510204081]

>  <Interactions>  (8) 
["V-A:PRO:540:CA:4881, V-A:TYR:531:CE2:4791, V-A:PRO:540:CB:4883, V-B:ARG:545:CZ:9898, V-A:LEU:363:CA:3182, V-A:PRO:540:N:4882, V-B:ILE:369:CD1:8210, V-A:ASP:366:CG:3210, V-A:LEU:363:CD1:3186, V-B:PRO:540:CA:9855, V-B:ASP:366:CG:8184, H-B:TYR:484:OH:9319, H-B:GLY:454:N:9021, H-B:ARG:545:NE:9896, V-B:GLU:543:CD:9880, V-B:GLU:543:CG:9879, V-A:HIS:456:CE1:4066, V-A:ASP:366:CB:3209, V-A:ALA:541:CB:4890, V-B:HIS:456:CE1:9040, V-A:GLU:543:CB:4904, V-A:GLU:543:CD:4906, V-A:GLU:543:CG:4905, V-B:GLU:543:C:9874, V-B:GLY:544:CA:9886, V-B:HIS:456:CD2:9039, V-A:GLU:543:C:4900, V-B:LYS:547:CE:9922, V-A:HIS:456:CG:4063, V-B:GLY:544:C:9884, V-A:HIS:456:CD2:4065, H-B:LYS:547:NZ:9923, V-A:PRO:540:C:4879, V-B:GLY:454:CA:9020, H-B:ASP:366:OD2:8186, V-B:PRO:540:C:9853, H-B:ASP:366:OD1:8185, V-B:ARG:545:CG:9894, V-B:ARG:545:CD:9895, V-A:LEU:363:CB:3184, H-B:ILE:455:N:9026"]

$$$$
2aa_Ghoteimi_2023
     RDKit          3D

 48 53  0  0  0  0  0  0  0  0999 V2000
  130.7360  126.6120   59.1660 C   0  0  0  0  0  0  0  0  0  0  0  0
  131.1940  127.6530   58.1380 C   0  0  0  0  0  0  0  0  0  0  0  0
  130.0900  128.4710   57.7740 O   0  0  0  0  0  0  0  0  0  0  0  0
  128.8550  127.9390   57.5780 C   0  0  0  0  0  0  0  0  0  0  0  0
  128.6130  127.0800   56.7240 O   0  0  0  0  0  0  0  0  0  0  0  0
  127.8170  128.4890   58.5130 C   0  0  0  0  0  0  0  0  0  0  0  0
  127.3780  127.7730   59.6360 C   0  0  0  0  0  0  0  0  0  0  0  0
  126.4170  128.3110   60.4870 C   0  0  0  0  0  0  0  0  0  0  0  0
  125.8690  129.5690   60.2290 C   0  0  0  0  0  0  0  0  0  0  0  0
  124.9080  130.0180   61.1550 N   0  0  0  0  0  0  0  0  0  0  0  0
  124.7080  131.2530   61.6640 C   0  0  0  0  0  0  0  0  0  0  0  0
  125.3550  132.2580   61.3610 O   0  0  0  0  0  0  0  0  0  0  0  0
  123.5550  131.3490   62.6720 C   0  0  0  0  0  0  0  0  0  0  0  0
  123.8910  130.6190   63.8570 O   0  0  0  0  0  0  0  0  0  0  0  0
  125.2100  130.2670   64.1090 C   0  0  0  0  0  0  0  0  0  0  0  0
  126.1240  130.4580   63.1170 N   0  0  0  0  0  0  0  0  0  0  0  0
  127.4230  130.1290   63.3320 C   0  0  0  0  0  0  0  0  0  0  0  0
  128.3690  130.3620   62.1960 C   0  0  0  0  0  0  0  0  0  0  0  0
  129.2920  129.3810   61.8230 C   0  0  0  0  0  0  0  0  0  0  0  0
  130.1710  129.5900   60.7630 C   0  0  0  0  0  0  0  0  0  0  0  0
  130.1480  130.7850   60.0260 C   0  0  0  0  0  0  0  0  0  0  0  0
  131.0320  131.0160   58.9660 N   0  0  0  0  0  0  0  0  0  0  0  0
  130.5670  131.5980   57.6900 C   0  0  0  0  0  0  0  0  0  0  0  0
  131.5800  131.4520   56.5350 C   0  0  0  0  0  0  0  0  0  0  0  0
  132.8330  131.9970   56.9150 O   0  0  0  0  0  0  0  0  0  0  0  0
  133.3680  131.3300   58.0470 C   0  0  0  0  0  0  0  0  0  0  0  0
  132.4080  131.4730   59.2480 C   0  0  0  0  0  0  0  0  0  0  0  0
  129.2340  131.7740   60.4180 C   0  0  0  0  0  0  0  0  0  0  0  0
  128.3590  131.5650   61.4800 C   0  0  0  0  0  0  0  0  0  0  0  0
  127.8380  129.5810   64.5490 C   0  0  0  0  0  0  0  0  0  0  0  0
  126.9160  129.3640   65.5810 C   0  0  0  0  0  0  0  0  0  0  0  0
  127.4140  128.7510   66.8500 C   0  0  0  0  0  0  0  0  0  0  0  0
  126.6440  127.8000   67.5240 C   0  0  0  0  0  0  0  0  0  0  0  0
  127.0930  127.2400   68.7170 C   0  0  0  0  0  0  0  0  0  0  0  0
  128.3200  127.6270   69.2790 C   0  0  0  0  0  0  0  0  0  0  0  0
  128.7920  127.0750   70.4730 N   0  0  0  0  0  0  0  0  0  0  0  0
  127.8720  126.6990   71.5630 C   0  0  0  0  0  0  0  0  0  0  0  0
  128.5220  125.7960   72.6330 C   0  0  0  0  0  0  0  0  0  0  0  0
  129.6890  126.4190   73.1480 O   0  0  0  0  0  0  0  0  0  0  0  0
  130.6490  126.6550   72.1300 C   0  0  0  0  0  0  0  0  0  0  0  0
  130.0550  127.5810   71.0480 C   0  0  0  0  0  0  0  0  0  0  0  0
  129.0890  128.5760   68.5920 C   0  0  0  0  0  0  0  0  0  0  0  0
  128.6410  129.1350   67.3990 C   0  0  0  0  0  0  0  0  0  0  0  0
  125.5680  129.7310   65.3590 C   0  0  0  0  0  0  0  0  0  0  0  0
  124.5460  129.5860   66.3980 C   0  0  0  0  0  0  0  0  0  0  0  0
  123.7380  129.4720   67.2190 N   0  0  0  0  0  0  0  0  0  0  0  0
  126.3080  130.2950   59.1120 C   0  0  0  0  0  0  0  0  0  0  0  0
  127.2720  129.7550   58.2650 C   0  0  0  0  0  0  0  0  0  0  0  0
  1  2  1  0
  2  3  1  0
  3  4  1  0
  4  5  2  0
  4  6  1  0
  6  7  2  0
  7  8  1  0
  8  9  2  0
  9 10  1  0
 10 11  1  0
 11 12  2  0
 11 13  1  0
 13 14  1  0
 14 15  1  0
 15 16  2  0
 16 17  1  0
 17 18  1  0
 18 19  2  0
 19 20  1  0
 20 21  2  0
 21 22  1  0
 22 23  1  0
 23 24  1  0
 24 25  1  0
 25 26  1  0
 26 27  1  0
 21 28  1  0
 28 29  2  0
 17 30  2  0
 30 31  1  0
 31 32  1  0
 32 33  2  0
 33 34  1  0
 34 35  2  0
 35 36  1  0
 36 37  1  0
 37 38  1  0
 38 39  1  0
 39 40  1  0
 40 41  1  0
 35 42  1  0
 42 43  2  0
 31 44  2  0
 44 45  1  0
 45 46  3  0
  9 47  1  0
 47 48  2  0
 48  6  1  0
 44 15  1  0
 29 18  1  0
 43 32  1  0
 27 22  1  0
 41 36  1  0
M  END
>  <Binding energies>  (9) 
[-7.54]

>  <Ligand effiencies>  (9) 
[-0.15387755102040818]

>  <Interactions>  (9) 
["V-A:PRO:540:CA:4881, V-A:TYR:531:CE2:4791, V-A:PRO:540:CB:4883, V-B:ARG:545:CZ:9898, V-B:GLY:453:CA:9015, V-A:LEU:363:CA:3182, V-B:ILE:369:CD1:8210, V-B:GLY:453:C:9013, V-A:ASP:366:CG:3210, V-A:LEU:363:CD1:3186, V-A:TYR:539:CE1:4873, V-B:ASP:366:CG:8184, H-B:TYR:484:OH:9319, H-B:GLY:454:N:9021, H-B:ARG:545:NE:9896, V-B:GLU:543:CD:9880, V-B:GLU:543:CG:9879, V-A:HIS:456:CE1:4066, V-A:ASP:366:CB:3209, V-B:HIS:456:CE1:9040, V-A:GLU:543:CB:4904, V-A:GLU:543:CD:4906, V-A:GLU:543:CG:4905, V-B:GLU:543:C:9874, V-B:GLY:544:CA:9886, V-A:GLU:543:C:4900, V-B:LYS:547:CE:9922, V-A:GLY:544:C:4910, V-A:HIS:456:CG:4063, V-B:GLY:544:C:9884, V-A:HIS:456:CD2:4065, H-B:LYS:547:NZ:9923, V-B:GLY:454:CA:9020, H-A:TYR:531:OH:4793, V-A:TYR:531:CZ:4792, H-B:ASP:366:OD2:8186, H-B:ASP:366:OD1:8185, V-B:ARG:545:CG:9894, V-B:ARG:545:CD:9895, H-B:ILE:455:N:9026"]

$$$$
2b_Ghoteimi_2023
     RDKit          3D

 42 47  0  0  0  0  0  0  0  0999 V2000
  134.4730  125.7240   66.5520 N   0  0  0  0  0  0  0  0  0  0  0  0
  133.6150  125.5780   65.7890 C   0  0  0  0  0  0  0  0  0  0  0  0
  132.5240  125.3960   64.8260 C   0  0  0  0  0  0  0  0  0  0  0  0
  131.1870  125.6940   65.1890 C   0  0  0  0  0  0  0  0  0  0  0  0
  130.7850  126.2020   66.5350 C   0  0  0  0  0  0  0  0  0  0  0  0
  129.6110  125.7450   67.1380 C   0  0  0  0  0  0  0  0  0  0  0  0
  129.2310  126.2160   68.3910 C   0  0  0  0  0  0  0  0  0  0  0  0
  130.0060  127.1710   69.0690 C   0  0  0  0  0  0  0  0  0  0  0  0
  129.6530  127.6480   70.3320 N   0  0  0  0  0  0  0  0  0  0  0  0
  128.4200  127.1460   70.9710 C   0  0  0  0  0  0  0  0  0  0  0  0
  127.9510  128.0130   72.1590 C   0  0  0  0  0  0  0  0  0  0  0  0
  128.9990  128.1510   73.1070 O   0  0  0  0  0  0  0  0  0  0  0  0
  130.1430  128.7680   72.5380 C   0  0  0  0  0  0  0  0  0  0  0  0
  130.6710  127.9150   71.3670 C   0  0  0  0  0  0  0  0  0  0  0  0
  131.1800  127.6250   68.4530 C   0  0  0  0  0  0  0  0  0  0  0  0
  131.5630  127.1520   67.2020 C   0  0  0  0  0  0  0  0  0  0  0  0
  130.1800  125.5090   64.2340 C   0  0  0  0  0  0  0  0  0  0  0  0
  130.4990  125.0720   62.9450 C   0  0  0  0  0  0  0  0  0  0  0  0
  129.4650  124.8880   61.8800 C   0  0  0  0  0  0  0  0  0  0  0  0
  128.7290  123.7000   61.7970 C   0  0  0  0  0  0  0  0  0  0  0  0
  127.7540  123.5280   60.8180 C   0  0  0  0  0  0  0  0  0  0  0  0
  127.4860  124.5330   59.8760 C   0  0  0  0  0  0  0  0  0  0  0  0
  126.4880  124.3870   58.9060 N   0  0  0  0  0  0  0  0  0  0  0  0
  126.8490  123.9600   57.5380 C   0  0  0  0  0  0  0  0  0  0  0  0
  125.7370  124.2160   56.4970 C   0  0  0  0  0  0  0  0  0  0  0  0
  124.5270  123.6070   56.9190 O   0  0  0  0  0  0  0  0  0  0  0  0
  124.0850  124.1320   58.1600 C   0  0  0  0  0  0  0  0  0  0  0  0
  125.1470  123.8770   59.2510 C   0  0  0  0  0  0  0  0  0  0  0  0
  128.2200  125.7250   59.9680 C   0  0  0  0  0  0  0  0  0  0  0  0
  129.1930  125.8970   60.9490 C   0  0  0  0  0  0  0  0  0  0  0  0
  131.7800  124.7890   62.5990 N   0  0  0  0  0  0  0  0  0  0  0  0
  132.7670  124.9280   63.5160 C   0  0  0  0  0  0  0  0  0  0  0  0
  134.3810  124.5090   62.8940 S   0  0  0  0  0  0  0  0  0  0  0  0
  134.2460  122.9020   62.0550 C   0  0  0  0  0  0  0  0  0  0  0  0
  133.5810  123.0230   60.6830 C   0  0  0  0  0  0  0  0  0  0  0  0
  133.0550  122.0290   60.1780 O   0  0  0  0  0  0  0  0  0  0  0  0
  133.6320  124.2480   60.1180 N   0  0  0  0  0  0  0  0  0  0  0  0
  133.1020  124.6340   58.8950 C   0  0  0  0  0  0  0  0  0  0  0  0
  131.7890  125.0760   58.7400 C   0  0  0  0  0  0  0  0  0  0  0  0
  131.6620  125.3560   57.3990 C   0  0  0  0  0  0  0  0  0  0  0  0
  132.8380  125.0970   56.7790 O   0  0  0  0  0  0  0  0  0  0  0  0
  133.7450  124.6410   57.7390 N   0  0  0  0  0  0  0  0  0  0  0  0
  1  2  3  0
  2  3  1  0
  3  4  2  0
  4  5  1  0
  5  6  2  0
  6  7  1  0
  7  8  2  0
  8  9  1  0
  9 10  1  0
 10 11  1  0
 11 12  1  0
 12 13  1  0
 13 14  1  0
  8 15  1  0
 15 16  2  0
  4 17  1  0
 17 18  2  0
 18 19  1  0
 19 20  2  0
 20 21  1  0
 21 22  2  0
 22 23  1  0
 23 24  1  0
 24 25  1  0
 25 26  1  0
 26 27  1  0
 27 28  1  0
 22 29  1  0
 29 30  2  0
 18 31  1  0
 31 32  2  0
 32 33  1  0
 33 34  1  0
 34 35  1  0
 35 36  2  0
 35 37  1  0
 37 38  1  0
 38 39  1  0
 39 40  2  0
 40 41  1  0
 41 42  1  0
 32  3  1  0
 42 38  2  0
 16  5  1  0
 30 19  1  0
 14  9  1  0
 28 23  1  0
M  END
>  <Binding energies>  (10) 
[-7.62]

>  <Ligand effiencies>  (10) 
[-0.1772093023255814]

>  <Interactions>  (10) 
["V-A:ARG:545:CZ:4924, H-A:ARG:545:NE:4922, V-A:GLY:454:CA:4046, V-B:TYR:539:CE1:9847, V-A:ILE:369:CG2:3234, V-A:ILE:369:CD1:3236, H-A:GLY:454:N:4047, H-A:TYR:484:OH:4345, V-A:ASP:366:CG:3210, V-B:TYR:531:CE2:9765, V-A:GLY:453:C:4039, V-B:PRO:540:CA:9855, V-B:ASP:366:CG:8184, V-B:PRO:540:CB:9857, V-B:LEU:363:CD1:8160, V-B:LEU:363:CA:8156, V-B:ASP:366:CB:8183, H-B:TYR:531:OH:9767, V-B:GLU:543:CD:9880, V-B:GLU:543:CG:9879, V-B:GLU:543:CB:9878, V-A:HIS:456:CE1:4066, V-A:ASP:366:CA:3207, V-A:ASP:366:CB:3209, V-B:TYR:539:CZ:9849, V-B:HIS:456:CE1:9040, V-A:GLU:543:CD:4906, V-A:GLU:543:CG:4905, V-B:GLU:543:C:9874, V-B:HIS:456:CD2:9039, V-A:GLU:543:C:4900, V-A:LYS:547:CE:4948, V-A:GLY:544:C:4910, V-B:GLY:544:C:9884, H-A:LYS:547:NZ:4949, V-B:HIS:456:CG:9037, V-A:GLY:544:CA:4912, V-B:TYR:531:CZ:9766, H-B:TYR:539:OH:9850, H-A:ASP:366:OD1:3211, V-B:MET:535:CE:9807, V-A:ARG:545:CG:4920, V-A:ARG:545:CD:4921"]

$$$$
2c_Ghoteimi_2023
     RDKit          3D

 42 47  0  0  0  0  0  0  0  0999 V2000
  134.6240  125.5400   66.1620 N   0  0  0  0  0  0  0  0  0  0  0  0
  133.7520  125.3660   65.4230 C   0  0  0  0  0  0  0  0  0  0  0  0
  132.6420  125.1490   64.4890 C   0  0  0  0  0  0  0  0  0  0  0  0
  131.3080  125.4320   64.8750 C   0  0  0  0  0  0  0  0  0  0  0  0
  130.9250  125.9550   66.2210 C   0  0  0  0  0  0  0  0  0  0  0  0
  131.7380  126.8870   66.8700 C   0  0  0  0  0  0  0  0  0  0  0  0
  131.3860  127.3830   68.1220 C   0  0  0  0  0  0  0  0  0  0  0  0
  130.2170  126.9500   68.7670 C   0  0  0  0  0  0  0  0  0  0  0  0
  129.8340  127.4500   70.0140 N   0  0  0  0  0  0  0  0  0  0  0  0
  128.5600  127.0020   70.6110 C   0  0  0  0  0  0  0  0  0  0  0  0
  128.0800  127.9020   71.7700 C   0  0  0  0  0  0  0  0  0  0  0  0
  129.0940  128.0040   72.7580 O   0  0  0  0  0  0  0  0  0  0  0  0
  130.2850  128.5680   72.2310 C   0  0  0  0  0  0  0  0  0  0  0  0
  130.8220  127.6860   71.0840 C   0  0  0  0  0  0  0  0  0  0  0  0
  129.4090  126.0120   68.1090 C   0  0  0  0  0  0  0  0  0  0  0  0
  129.7610  125.5180   66.8560 C   0  0  0  0  0  0  0  0  0  0  0  0
  130.2840  125.2110   63.9460 C   0  0  0  0  0  0  0  0  0  0  0  0
  130.5810  124.7470   62.6610 C   0  0  0  0  0  0  0  0  0  0  0  0
  129.5270  124.5120   61.6280 C   0  0  0  0  0  0  0  0  0  0  0  0
  129.6760  123.5030   60.6710 C   0  0  0  0  0  0  0  0  0  0  0  0
  128.6940  123.2760   59.7090 C   0  0  0  0  0  0  0  0  0  0  0  0
  127.5300  124.0580   59.6620 C   0  0  0  0  0  0  0  0  0  0  0  0
  126.5230  123.8270   58.7190 N   0  0  0  0  0  0  0  0  0  0  0  0
  126.7370  122.8390   57.6420 C   0  0  0  0  0  0  0  0  0  0  0  0
  125.7320  122.9640   56.4780 C   0  0  0  0  0  0  0  0  0  0  0  0
  124.4050  122.8910   56.9720 O   0  0  0  0  0  0  0  0  0  0  0  0
  124.1340  123.9380   57.8910 C   0  0  0  0  0  0  0  0  0  0  0  0
  125.0940  123.8460   59.0960 C   0  0  0  0  0  0  0  0  0  0  0  0
  127.3780  125.0600   60.6320 C   0  0  0  0  0  0  0  0  0  0  0  0
  128.3600  125.2860   61.5940 C   0  0  0  0  0  0  0  0  0  0  0  0
  131.8600  124.4790   62.2920 N   0  0  0  0  0  0  0  0  0  0  0  0
  132.8650  124.6550   63.1830 C   0  0  0  0  0  0  0  0  0  0  0  0
  134.4700  124.2450   62.5370 S   0  0  0  0  0  0  0  0  0  0  0  0
  134.2750  123.9200   60.7580 C   0  0  0  0  0  0  0  0  0  0  0  0
  133.2060  122.8610   60.4820 C   0  0  0  0  0  0  0  0  0  0  0  0
  132.3030  123.1090   59.6810 O   0  0  0  0  0  0  0  0  0  0  0  0
  133.3420  121.7040   61.1650 N   0  0  0  0  0  0  0  0  0  0  0  0
  132.5200  120.5900   61.0800 C   0  0  0  0  0  0  0  0  0  0  0  0
  131.2260  120.5220   61.3030 N   0  0  0  0  0  0  0  0  0  0  0  0
  130.7660  119.3000   61.1230 C   0  0  0  0  0  0  0  0  0  0  0  0
  131.7010  118.3410   60.7450 C   0  0  0  0  0  0  0  0  0  0  0  0
  133.2640  119.0920   60.6200 S   0  0  0  0  0  0  0  0  0  0  0  0
  1  2  3  0
  2  3  1  0
  3  4  2  0
  4  5  1  0
  5  6  2  0
  6  7  1  0
  7  8  2  0
  8  9  1  0
  9 10  1  0
 10 11  1  0
 11 12  1  0
 12 13  1  0
 13 14  1  0
  8 15  1  0
 15 16  2  0
  4 17  1  0
 17 18  2  0
 18 19  1  0
 19 20  2  0
 20 21  1  0
 21 22  2  0
 22 23  1  0
 23 24  1  0
 24 25  1  0
 25 26  1  0
 26 27  1  0
 27 28  1  0
 22 29  1  0
 29 30  2  0
 18 31  1  0
 31 32  2  0
 32 33  1  0
 33 34  1  0
 34 35  1  0
 35 36  2  0
 35 37  1  0
 37 38  1  0
 38 39  2  0
 39 40  1  0
 40 41  2  0
 41 42  1  0
 32  3  1  0
 42 38  1  0
 16  5  1  0
 30 19  1  0
 14  9  1  0
 28 23  1  0
M  END
>  <Binding energies>  (11) 
[-7.35]

>  <Ligand effiencies>  (11) 
[-0.17093023255813952]

>  <Interactions>  (11) 
["V-A:ARG:545:CZ:4924, H-A:ARG:545:NE:4922, V-A:GLY:454:CA:4046, V-B:TYR:539:CE1:9847, V-A:ILE:369:CG2:3234, V-A:ILE:369:CD1:3236, H-A:GLY:454:N:4047, H-A:TYR:484:OH:4345, V-A:LEU:475:CD2:4256, V-B:TYR:531:CE2:9765, V-A:GLY:453:C:4039, V-B:PRO:540:CA:9855, V-B:ILE:538:CG2:9835, V-B:PRO:540:CB:9857, V-B:PRO:540:CD:9859, V-B:ILE:538:CB:9834, V-B:LEU:363:CD1:8160, V-B:TYR:539:CD1:9845, V-B:LEU:363:CA:8156, V-B:ASP:366:CB:8183, V-B:PRO:540:N:9856, V-B:TYR:539:C:9839, V-B:GLU:543:CD:9880, V-B:GLU:543:CG:9879, V-B:GLU:543:CB:9878, V-A:HIS:456:CE1:4066, V-B:HIS:456:CE1:9040, V-A:GLU:543:CD:4906, V-A:GLU:543:CG:4905, V-B:GLU:543:C:9874, V-B:HIS:456:CD2:9039, V-A:GLU:543:C:4900, V-A:LYS:547:CE:4948, V-A:GLY:544:C:4910, V-B:GLY:544:C:9884, V-A:HIS:456:CD2:4065, V-B:HIS:456:CG:9037, V-A:GLY:544:CA:4912, H-B:TYR:539:OH:9850, V-A:ILE:369:CB:3233, V-A:ARG:545:CG:4920, V-A:ARG:545:CD:4921, V-A:LEU:373:CD1:3277, V-A:SER:385:CA:3404, V-A:SER:385:CB:3406, V-A:GLY:453:CA:4041, H-A:SER:385:O:3403, V-B:GLU:543:CA:9876, H-A:ILE:455:N:4052"]

$$$$
2j_Grossjean_2025
     RDKit          3D

 23 24  0  0  0  0  0  0  0  0999 V2000
  125.3250  123.8770   62.8220 C   0  0  0  0  0  0  0  0  0  0  0  0
  126.0040  123.5910   61.4950 C   0  0  0  0  0  0  0  0  0  0  0  0
  125.3600  123.8210   60.2820 C   0  0  0  0  0  0  0  0  0  0  0  0
  126.0310  123.5440   59.0810 C   0  0  0  0  0  0  0  0  0  0  0  0
  125.3040  123.8040   57.7480 C   0  0  0  0  0  0  0  0  0  0  0  0
  125.2030  122.6690   57.0550 F   0  0  0  0  0  0  0  0  0  0  0  0
  124.0800  124.2800   57.9800 F   0  0  0  0  0  0  0  0  0  0  0  0
  125.9400  124.6900   56.9780 F   0  0  0  0  0  0  0  0  0  0  0  0
  127.3520  123.0350   59.1470 C   0  0  0  0  0  0  0  0  0  0  0  0
  128.1010  122.7270   57.9240 C   0  0  0  0  0  0  0  0  0  0  0  0
  128.6910  122.4860   56.9580 N   0  0  0  0  0  0  0  0  0  0  0  0
  127.9300  122.8320   60.4230 C   0  0  0  0  0  0  0  0  0  0  0  0
  129.5880  122.1970   60.6250 S   0  0  0  0  0  0  0  0  0  0  0  0
  130.7630  123.4510   60.0110 C   0  0  0  0  0  0  0  0  0  0  0  0
  131.6870  124.0480   61.0820 C   0  0  0  0  0  0  0  0  0  0  0  0
  132.8440  124.3730   60.8050 O   0  0  0  0  0  0  0  0  0  0  0  0
  131.1320  124.1650   62.3090 N   0  0  0  0  0  0  0  0  0  0  0  0
  131.7400  124.6710   63.4510 C   0  0  0  0  0  0  0  0  0  0  0  0
  133.0180  124.6530   63.7590 N   0  0  0  0  0  0  0  0  0  0  0  0
  133.2450  125.2270   64.9250 C   0  0  0  0  0  0  0  0  0  0  0  0
  132.1300  125.7260   65.5910 C   0  0  0  0  0  0  0  0  0  0  0  0
  130.7140  125.4230   64.6290 S   0  0  0  0  0  0  0  0  0  0  0  0
  127.2640  123.1080   61.5730 N   0  0  0  0  0  0  0  0  0  0  0  0
  1  2  1  0
  2  3  2  0
  3  4  1  0
  4  5  1  0
  5  6  1  0
  5  7  1  0
  5  8  1  0
  4  9  2  0
  9 10  1  0
 10 11  3  0
  9 12  1  0
 12 13  1  0
 13 14  1  0
 14 15  1  0
 15 16  2  0
 15 17  1  0
 17 18  1  0
 18 19  2  0
 19 20  1  0
 20 21  2  0
 21 22  1  0
 12 23  2  0
 23  2  1  0
 22 18  1  0
M  END
>  <Binding energies>  (12) 
[-6.15]

>  <Ligand effiencies>  (12) 
[-0.25625000000000003]

>  <Interactions>  (12) 
["V-A:ARG:545:CZ:4924, V-A:GLY:454:CA:4046, V-B:TYR:539:CE1:9847, V-B:ARG:545:CZ:9898, H-A:GLY:454:N:4047, H-A:TYR:484:OH:4345, V-B:TYR:531:CE2:9765, V-B:PRO:540:CA:9855, V-B:ASP:366:CG:8184, V-B:PRO:540:CB:9857, V-B:PRO:540:CD:9859, V-B:ILE:538:CB:9834, V-B:LEU:363:CD1:8160, V-B:TYR:539:CD1:9845, V-B:LEU:363:CA:8156, V-B:ASP:366:CB:8183, V-B:PRO:540:N:9856, V-B:TYR:539:C:9839, V-B:GLU:543:CD:9880, V-A:HIS:456:CE1:4066, H-B:GLU:543:OE1:9881, H-B:ALA:541:N:9863, V-B:TYR:531:CZ:9766, V-B:PRO:540:CG:9858, V-B:PRO:540:C:9853, H-B:TYR:539:N:9842, V-B:ASN:362:CB:8147, V-A:ARG:545:CD:4921"]

$$$$
3ab_Grossjean_2025
     RDKit          3D

 33 35  0  0  0  0  0  0  0  0999 V2000
  132.3630  132.4040   56.3040 C   0  0  0  0  0  0  0  0  0  0  0  0
  131.0350  132.9090   56.3040 O   0  0  0  0  0  0  0  0  0  0  0  0
  130.1360  132.5110   57.2400 C   0  0  0  0  0  0  0  0  0  0  0  0
  129.3580  133.2830   57.8080 O   0  0  0  0  0  0  0  0  0  0  0  0
  130.1800  131.0360   57.5150 C   0  0  0  0  0  0  0  0  0  0  0  0
  130.8460  130.5080   58.6320 C   0  0  0  0  0  0  0  0  0  0  0  0
  130.8700  129.1350   58.8630 C   0  0  0  0  0  0  0  0  0  0  0  0
  130.2240  128.2610   57.9740 C   0  0  0  0  0  0  0  0  0  0  0  0
  130.1790  126.8610   58.1110 N   0  0  0  0  0  0  0  0  0  0  0  0
  130.7310  125.8970   57.3450 C   0  0  0  0  0  0  0  0  0  0  0  0
  131.3970  126.0850   56.3280 O   0  0  0  0  0  0  0  0  0  0  0  0
  130.4810  124.4620   57.8150 C   0  0  0  0  0  0  0  0  0  0  0  0
  129.4270  124.4000   59.2960 S   0  0  0  0  0  0  0  0  0  0  0  0
  130.3940  123.6890   60.6110 C   0  0  0  0  0  0  0  0  0  0  0  0
  130.6810  122.3790   60.4240 N   0  0  0  0  0  0  0  0  0  0  0  0
  131.4180  121.7100   61.3480 C   0  0  0  0  0  0  0  0  0  0  0  0
  131.6940  120.2630   61.0660 C   0  0  0  0  0  0  0  0  0  0  0  0
  130.6730  119.3040   61.1640 C   0  0  0  0  0  0  0  0  0  0  0  0
  130.9230  117.9600   60.9020 C   0  0  0  0  0  0  0  0  0  0  0  0
  132.2030  117.5540   60.5380 C   0  0  0  0  0  0  0  0  0  0  0  0
  133.2330  118.4820   60.4370 C   0  0  0  0  0  0  0  0  0  0  0  0
  132.9790  119.8250   60.6990 C   0  0  0  0  0  0  0  0  0  0  0  0
  131.8690  122.3530   62.5060 C   0  0  0  0  0  0  0  0  0  0  0  0
  131.5690  123.7040   62.7320 C   0  0  0  0  0  0  0  0  0  0  0  0
  132.0800  124.3730   64.0220 C   0  0  0  0  0  0  0  0  0  0  0  0
  133.1820  123.7940   64.5030 F   0  0  0  0  0  0  0  0  0  0  0  0
  132.3700  125.6540   63.7920 F   0  0  0  0  0  0  0  0  0  0  0  0
  131.1440  124.3060   64.9700 F   0  0  0  0  0  0  0  0  0  0  0  0
  130.8020  124.3980   61.7630 C   0  0  0  0  0  0  0  0  0  0  0  0
  130.4120  125.7940   61.9760 C   0  0  0  0  0  0  0  0  0  0  0  0
  130.1050  126.8970   62.1470 N   0  0  0  0  0  0  0  0  0  0  0  0
  129.5560  128.7840   56.8660 C   0  0  0  0  0  0  0  0  0  0  0  0
  129.5350  130.1560   56.6370 C   0  0  0  0  0  0  0  0  0  0  0  0
  1  2  1  0
  2  3  1  0
  3  4  2  0
  3  5  1  0
  5  6  2  0
  6  7  1  0
  7  8  2  0
  8  9  1  0
  9 10  1  0
 10 11  2  0
 10 12  1  0
 12 13  1  0
 13 14  1  0
 14 15  2  0
 15 16  1  0
 16 17  1  0
 17 18  2  0
 18 19  1  0
 19 20  2  0
 20 21  1  0
 21 22  2  0
 16 23  2  0
 23 24  1  0
 24 25  1  0
 25 26  1  0
 25 27  1  0
 25 28  1  0
 24 29  2  0
 29 30  1  0
 30 31  3  0
  8 32  1  0
 32 33  2  0
 33  5  1  0
 29 14  1  0
 22 17  1  0
M  END
>  <Binding energies>  (13) 
[-7.66]

>  <Ligand effiencies>  (13) 
[-0.22529411764705884]

>  <Interactions>  (13) 
["V-A:ARG:545:CZ:4924, V-A:TYR:531:CE2:4791, V-A:GLY:454:CA:4046, V-A:ILE:538:CB:4860, V-B:TYR:539:CE1:9847, V-A:ILE:369:CG2:3234, V-A:PRO:540:CD:4885, V-A:ILE:538:CG2:4861, V-A:PRO:540:N:4882, V-A:ASP:366:CG:3210, V-A:LEU:475:CD2:4256, V-A:LEU:363:CD1:3186, V-A:GLY:453:C:4039, H-A:ARG:545:NH2:4926, V-B:TYR:539:CD1:9845, V-B:GLU:543:CD:9880, V-B:TYR:539:CZ:9849, H-A:TYR:531:OH:4793, V-A:TYR:539:C:4865, H-B:TYR:539:OH:9850, H-A:TYR:539:N:4868, V-A:MET:535:CE:4833, V-A:PRO:482:CB:4323, V-A:TYR:484:CZ:4344, V-A:PRO:482:CG:4324, V-A:LEU:373:CD1:3277, V-A:SER:385:CA:3404, V-A:SER:385:CB:3406"]

$$$$
3ac_Grossjean_2025
     RDKit          3D

 31 33  0  0  0  0  0  0  0  0999 V2000
  132.8750  131.5490   57.0820 C   0  0  0  0  0  0  0  0  0  0  0  0
  132.1310  132.1330   58.1470 O   0  0  0  0  0  0  0  0  0  0  0  0
  131.7610  131.3480   59.2220 C   0  0  0  0  0  0  0  0  0  0  0  0
  130.9240  130.2670   58.9440 C   0  0  0  0  0  0  0  0  0  0  0  0
  130.5020  129.4180   59.9620 C   0  0  0  0  0  0  0  0  0  0  0  0
  130.9050  129.6440   61.2800 C   0  0  0  0  0  0  0  0  0  0  0  0
  130.4440  128.7210   62.2370 N   0  0  0  0  0  0  0  0  0  0  0  0
  130.5830  127.3780   62.2600 C   0  0  0  0  0  0  0  0  0  0  0  0
  131.2030  126.7120   61.4290 O   0  0  0  0  0  0  0  0  0  0  0  0
  129.9050  126.6650   63.4300 C   0  0  0  0  0  0  0  0  0  0  0  0
  130.5660  124.9900   63.6920 S   0  0  0  0  0  0  0  0  0  0  0  0
  129.9050  123.9120   62.4360 C   0  0  0  0  0  0  0  0  0  0  0  0
  130.6630  122.8100   62.2260 N   0  0  0  0  0  0  0  0  0  0  0  0
  130.2820  121.8910   61.3010 C   0  0  0  0  0  0  0  0  0  0  0  0
  131.1810  120.7040   61.1260 C   0  0  0  0  0  0  0  0  0  0  0  0
  130.6650  119.3980   61.1800 C   0  0  0  0  0  0  0  0  0  0  0  0
  131.4940  118.2920   61.0130 C   0  0  0  0  0  0  0  0  0  0  0  0
  132.8540  118.4760   60.7890 C   0  0  0  0  0  0  0  0  0  0  0  0
  133.3910  119.7580   60.7360 C   0  0  0  0  0  0  0  0  0  0  0  0
  132.5590  120.8610   60.9040 C   0  0  0  0  0  0  0  0  0  0  0  0
  129.1200  122.0760   60.5450 C   0  0  0  0  0  0  0  0  0  0  0  0
  128.3290  123.2200   60.7260 C   0  0  0  0  0  0  0  0  0  0  0  0
  127.0600  123.3860   59.8670 C   0  0  0  0  0  0  0  0  0  0  0  0
  126.9750  124.5900   59.2960 F   0  0  0  0  0  0  0  0  0  0  0  0
  127.0430  122.4810   58.8880 F   0  0  0  0  0  0  0  0  0  0  0  0
  125.9750  123.2220   60.6250 F   0  0  0  0  0  0  0  0  0  0  0  0
  128.7340  124.1780   61.6880 C   0  0  0  0  0  0  0  0  0  0  0  0
  127.9830  125.4240   61.8590 C   0  0  0  0  0  0  0  0  0  0  0  0
  127.3890  126.4080   61.9920 N   0  0  0  0  0  0  0  0  0  0  0  0
  131.7530  130.7250   61.5670 C   0  0  0  0  0  0  0  0  0  0  0  0
  132.1740  131.5720   60.5450 C   0  0  0  0  0  0  0  0  0  0  0  0
  1  2  1  0
  2  3  1  0
  3  4  2  0
  4  5  1  0
  5  6  2  0
  6  7  1  0
  7  8  1  0
  8  9  2  0
  8 10  1  0
 10 11  1  0
 11 12  1  0
 12 13  2  0
 13 14  1  0
 14 15  1  0
 15 16  2  0
 16 17  1  0
 17 18  2  0
 18 19  1  0
 19 20  2  0
 14 21  2  0
 21 22  1  0
 22 23  1  0
 23 24  1  0
 23 25  1  0
 23 26  1  0
 22 27  2  0
 27 28  1  0
 28 29  3  0
  6 30  1  0
 30 31  2  0
 31  3  1  0
 27 12  1  0
 20 15  1  0
M  END
>  <Binding energies>  (14) 
[-6.87]

>  <Ligand effiencies>  (14) 
[-0.2146875]

>  <Interactions>  (14) 
["V-A:PRO:540:CA:4881, H-B:ARG:545:NH2:9900, V-A:TYR:531:CE2:4791, V-B:ALA:541:CB:9864, V-B:TYR:539:CE1:9847, V-A:ILE:369:CG2:3234, V-A:PRO:540:CB:4883, V-A:LEU:475:CD2:4256, V-A:LEU:363:CD1:3186, V-B:PRO:540:CA:9855, V-B:PRO:540:CB:9857, H-A:ARG:545:NH2:4926, V-B:PRO:540:CD:9859, V-B:TYR:539:CD1:9845, V-B:PRO:540:N:9856, V-B:TYR:539:C:9839, V-B:GLU:543:CD:9880, H-A:GLU:543:OE2:4908, H-A:GLU:543:OE1:4907, V-A:GLU:543:CD:4906, V-A:TYR:531:CZ:4792, V-B:PRO:540:C:9853, V-A:PRO:482:CB:4323, V-A:PRO:482:CG:4324, V-A:LEU:373:CD1:3277, V-A:SER:385:CA:3404, V-A:SER:385:CB:3406"]

$$$$
3af_Grossjean_2025
     RDKit          3D

 29 31  0  0  0  0  0  0  0  0999 V2000
  133.3840  123.9540   61.4110 N   0  0  0  0  0  0  0  0  0  0  0  0
  132.3440  123.8350   60.9180 C   0  0  0  0  0  0  0  0  0  0  0  0
  131.0270  123.6820   60.2930 C   0  0  0  0  0  0  0  0  0  0  0  0
  130.2830  122.4890   60.4590 C   0  0  0  0  0  0  0  0  0  0  0  0
  130.7750  121.3150   61.3290 C   0  0  0  0  0  0  0  0  0  0  0  0
  131.0290  121.6750   62.5890 F   0  0  0  0  0  0  0  0  0  0  0  0
  129.8500  120.3550   61.3630 F   0  0  0  0  0  0  0  0  0  0  0  0
  131.9030  120.8120   60.8240 F   0  0  0  0  0  0  0  0  0  0  0  0
  129.0520  122.3680   59.7970 C   0  0  0  0  0  0  0  0  0  0  0  0
  128.5780  123.4080   58.9910 C   0  0  0  0  0  0  0  0  0  0  0  0
  127.2790  123.3250   58.2460 C   0  0  0  0  0  0  0  0  0  0  0  0
  126.0960  123.8300   58.8090 C   0  0  0  0  0  0  0  0  0  0  0  0
  124.8870  123.7570   58.1210 C   0  0  0  0  0  0  0  0  0  0  0  0
  124.8460  123.1780   56.8580 C   0  0  0  0  0  0  0  0  0  0  0  0
  126.0050  122.6740   56.2760 C   0  0  0  0  0  0  0  0  0  0  0  0
  127.2110  122.7490   56.9670 C   0  0  0  0  0  0  0  0  0  0  0  0
  129.2960  124.5490   58.8320 N   0  0  0  0  0  0  0  0  0  0  0  0
  130.4770  124.6980   59.4790 C   0  0  0  0  0  0  0  0  0  0  0  0
  131.2640  126.2640   59.1600 S   0  0  0  0  0  0  0  0  0  0  0  0
  130.0520  127.5800   59.4870 C   0  0  0  0  0  0  0  0  0  0  0  0
  130.1170  128.6870   58.4360 C   0  0  0  0  0  0  0  0  0  0  0  0
  129.3530  128.6440   57.4720 O   0  0  0  0  0  0  0  0  0  0  0  0
  131.0420  129.6450   58.6610 N   0  0  0  0  0  0  0  0  0  0  0  0
  131.3620  130.7830   57.8950 C   0  0  0  0  0  0  0  0  0  0  0  0
  132.6160  131.0620   57.3220 C   0  0  0  0  0  0  0  0  0  0  0  0
  132.7940  132.2350   56.5850 C   0  0  0  0  0  0  0  0  0  0  0  0
  131.7110  133.1030   56.4390 C   0  0  0  0  0  0  0  0  0  0  0  0
  130.4930  132.8570   56.9810 N   0  0  0  0  0  0  0  0  0  0  0  0
  130.3360  131.7130   57.6940 C   0  0  0  0  0  0  0  0  0  0  0  0
  1  2  3  0
  2  3  1  0
  3  4  2  0
  4  5  1  0
  5  6  1  0
  5  7  1  0
  5  8  1  0
  4  9  1  0
  9 10  2  0
 10 11  1  0
 11 12  2  0
 12 13  1  0
 13 14  2  0
 14 15  1  0
 15 16  2  0
 10 17  1  0
 17 18  2  0
 18 19  1  0
 19 20  1  0
 20 21  1  0
 21 22  2  0
 21 23  1  0
 23 24  1  0
 24 25  2  0
 25 26  1  0
 26 27  2  0
 27 28  1  0
 28 29  2  0
 18  3  1  0
 29 24  1  0
 16 11  1  0
M  END
>  <Binding energies>  (15) 
[-7.8]

>  <Ligand effiencies>  (15) 
[-0.26]

>  <Interactions>  (15) 
["V-A:TYR:531:CE2:4791, V-A:ILE:538:CB:4860, V-B:ALA:541:CB:9864, V-B:TYR:539:CE1:9847, V-A:PRO:540:CD:4885, V-A:ILE:538:CG2:4861, V-A:PRO:540:CB:4883, V-A:PRO:540:N:4882, V-A:ASP:366:CG:3210, V-A:LEU:475:CD2:4256, V-A:LEU:363:CD1:3186, V-B:TYR:531:CE2:9765, V-B:ILE:538:CA:9832, V-B:PRO:540:CA:9855, V-B:ILE:538:CG2:9835, V-B:PRO:540:CB:9857, V-B:PRO:540:CD:9859, V-B:ILE:538:CB:9834, V-B:LEU:363:CD1:8160, V-B:TYR:539:CD1:9845, V-B:PRO:540:N:9856, V-B:TYR:539:C:9839, V-A:TYR:531:CZ:4792, H-A:ASP:366:OD2:3212, H-A:TYR:539:N:4868, V-A:ILE:538:CA:4858, V-A:ILE:538:C:4856"]

$$$$
3ag_Grossjean_2025
     RDKit          3D

 30 32  0  0  0  0  0  0  0  0999 V2000
  127.6190  126.2330   62.0610 N   0  0  0  0  0  0  0  0  0  0  0  0
  128.2210  125.2660   61.8530 C   0  0  0  0  0  0  0  0  0  0  0  0
  128.9820  124.0420   61.5870 C   0  0  0  0  0  0  0  0  0  0  0  0
  128.6350  123.1940   60.5070 C   0  0  0  0  0  0  0  0  0  0  0  0
  127.4960  123.5250   59.5220 C   0  0  0  0  0  0  0  0  0  0  0  0
  126.2990  123.5670   60.1110 F   0  0  0  0  0  0  0  0  0  0  0  0
  127.7110  124.7170   58.9640 F   0  0  0  0  0  0  0  0  0  0  0  0
  127.4360  122.6020   58.5620 F   0  0  0  0  0  0  0  0  0  0  0  0
  129.3590  122.0070   60.3260 C   0  0  0  0  0  0  0  0  0  0  0  0
  130.3930  121.6680   61.2060 C   0  0  0  0  0  0  0  0  0  0  0  0
  131.1970  120.4120   61.0620 C   0  0  0  0  0  0  0  0  0  0  0  0
  132.5720  120.4690   60.7860 C   0  0  0  0  0  0  0  0  0  0  0  0
  133.3260  119.3060   60.6510 C   0  0  0  0  0  0  0  0  0  0  0  0
  132.7110  118.0650   60.7900 C   0  0  0  0  0  0  0  0  0  0  0  0
  131.3490  117.9810   61.0610 C   0  0  0  0  0  0  0  0  0  0  0  0
  130.5990  119.1460   61.1940 C   0  0  0  0  0  0  0  0  0  0  0  0
  130.7310  122.4890   62.2340 N   0  0  0  0  0  0  0  0  0  0  0  0
  130.0580  123.6510   62.4150 C   0  0  0  0  0  0  0  0  0  0  0  0
  130.6370  124.5990   63.8050 S   0  0  0  0  0  0  0  0  0  0  0  0
  132.3490  124.0840   64.1350 C   0  0  0  0  0  0  0  0  0  0  0  0
  133.2960  124.4620   62.9950 C   0  0  0  0  0  0  0  0  0  0  0  0
  134.2780  125.1710   63.2210 O   0  0  0  0  0  0  0  0  0  0  0  0
  132.9920  123.9740   61.7800 N   0  0  0  0  0  0  0  0  0  0  0  0
  133.7760  124.1800   60.5620 C   0  0  0  0  0  0  0  0  0  0  0  0
  132.9490  124.6140   59.3560 C   0  0  0  0  0  0  0  0  0  0  0  0
  131.5610  124.7190   59.4680 C   0  0  0  0  0  0  0  0  0  0  0  0
  130.8050  125.1440   58.3780 C   0  0  0  0  0  0  0  0  0  0  0  0
  131.4430  125.4710   57.1820 C   0  0  0  0  0  0  0  0  0  0  0  0
  132.8290  125.3830   57.0690 C   0  0  0  0  0  0  0  0  0  0  0  0
  133.5840  124.9590   58.1590 C   0  0  0  0  0  0  0  0  0  0  0  0
  1  2  3  0
  2  3  1  0
  3  4  2  0
  4  5  1  0
  5  6  1  0
  5  7  1  0
  5  8  1  0
  4  9  1  0
  9 10  2  0
 10 11  1  0
 11 12  2  0
 12 13  1  0
 13 14  2  0
 14 15  1  0
 15 16  2  0
 10 17  1  0
 17 18  2  0
 18 19  1  0
 19 20  1  0
 20 21  1  0
 21 22  2  0
 21 23  1  0
 23 24  1  0
 24 25  1  0
 25 26  2  0
 26 27  1  0
 27 28  2  0
 28 29  1  0
 29 30  2  0
 18  3  1  0
 30 25  1  0
 16 11  1  0
M  END
>  <Binding energies>  (16) 
[-7.09]

>  <Ligand effiencies>  (16) 
[-0.22870967741935483]

>  <Interactions>  (16) 
["H-B:ARG:545:NH2:9900, H-A:ARG:545:NE:4922, V-A:GLY:454:CA:4046, V-B:ALA:541:CB:9864, V-B:TYR:539:CE1:9847, V-A:ILE:369:CG2:3234, V-A:ILE:369:CD1:3236, H-A:GLY:454:N:4047, V-A:ASP:366:CG:3210, V-A:LEU:475:CD2:4256, V-B:PRO:540:CA:9855, V-B:PRO:540:CB:9857, H-A:ARG:545:NH2:4926, V-B:TYR:539:CD1:9845, V-B:PRO:540:N:9856, V-B:TYR:539:C:9839, V-B:GLU:543:CD:9880, V-A:ASP:366:CA:3207, V-A:ASP:366:CB:3209, V-B:TYR:539:CZ:9849, V-A:ASP:366:C:3205, H-A:ARG:545:NH1:4925, V-A:PRO:482:CB:4323, V-A:PRO:482:CG:4324, V-A:LEU:373:CD1:3277, V-A:SER:385:CA:3404, V-A:SER:385:CB:3406"]

$$$$
3bc_Grossjean_2025
     RDKit          3D

 28 30  0  0  0  0  0  0  0  0999 V2000
  127.1780  128.9360   74.8520 C   0  0  0  0  0  0  0  0  0  0  0  0
  128.4370  128.3430   74.5580 O   0  0  0  0  0  0  0  0  0  0  0  0
  128.7270  127.9890   73.2530 C   0  0  0  0  0  0  0  0  0  0  0  0
  127.6460  127.6060   72.4590 C   0  0  0  0  0  0  0  0  0  0  0  0
  127.8380  127.2320   71.1320 C   0  0  0  0  0  0  0  0  0  0  0  0
  129.1210  127.2290   70.5820 C   0  0  0  0  0  0  0  0  0  0  0  0
  129.2160  126.8480   69.2300 N   0  0  0  0  0  0  0  0  0  0  0  0
  130.0700  127.2840   68.2800 C   0  0  0  0  0  0  0  0  0  0  0  0
  130.9740  128.1010   68.4700 O   0  0  0  0  0  0  0  0  0  0  0  0
  129.8710  126.6480   66.8970 C   0  0  0  0  0  0  0  0  0  0  0  0
  130.6700  125.0240   66.6670 S   0  0  0  0  0  0  0  0  0  0  0  0
  131.2170  124.9200   64.9780 C   0  0  0  0  0  0  0  0  0  0  0  0
  130.2060  124.7730   64.0860 N   0  0  0  0  0  0  0  0  0  0  0  0
  130.4830  124.6840   62.7590 C   0  0  0  0  0  0  0  0  0  0  0  0
  129.3120  124.5010   61.8400 C   0  0  0  0  0  0  0  0  0  0  0  0
  129.0500  123.2550   61.2510 C   0  0  0  0  0  0  0  0  0  0  0  0
  127.9640  123.0770   60.3980 C   0  0  0  0  0  0  0  0  0  0  0  0
  127.1240  124.1500   60.1200 C   0  0  0  0  0  0  0  0  0  0  0  0
  127.3620  125.3970   60.6880 C   0  0  0  0  0  0  0  0  0  0  0  0
  128.4500  125.5700   61.5400 C   0  0  0  0  0  0  0  0  0  0  0  0
  131.8010  124.7400   62.2940 C   0  0  0  0  0  0  0  0  0  0  0  0
  132.8540  124.9150   63.2000 C   0  0  0  0  0  0  0  0  0  0  0  0
  134.2760  124.9890   62.6460 C   0  0  0  0  0  0  0  0  0  0  0  0
  132.5690  125.0200   64.5780 C   0  0  0  0  0  0  0  0  0  0  0  0
  133.6490  125.2520   65.5390 C   0  0  0  0  0  0  0  0  0  0  0  0
  134.5050  125.4350   66.2960 N   0  0  0  0  0  0  0  0  0  0  0  0
  130.2120  127.6260   71.3690 C   0  0  0  0  0  0  0  0  0  0  0  0
  130.0150  127.9990   72.6970 C   0  0  0  0  0  0  0  0  0  0  0  0
  1  2  1  0
  2  3  1  0
  3  4  2  0
  4  5  1  0
  5  6  2  0
  6  7  1  0
  7  8  1  0
  8  9  2  0
  8 10  1  0
 10 11  1  0
 11 12  1  0
 12 13  2  0
 13 14  1  0
 14 15  1  0
 15 16  2  0
 16 17  1  0
 17 18  2  0
 18 19  1  0
 19 20  2  0
 14 21  2  0
 21 22  1  0
 22 23  1  0
 22 24  2  0
 24 25  1  0
 25 26  3  0
  6 27  1  0
 27 28  2  0
 28  3  1  0
 24 12  1  0
 20 15  1  0
M  END
>  <Binding energies>  (17) 
[-8.08]

>  <Ligand effiencies>  (17) 
[-0.2786206896551724]

>  <Interactions>  (17) 
["V-A:ARG:545:CZ:4924, H-A:ARG:545:NE:4922, V-A:GLY:454:CA:4046, H-A:GLY:454:N:4047, H-A:TYR:484:OH:4345, V-A:GLY:453:C:4039, V-B:PRO:540:CA:9855, V-B:GLU:543:CD:9880, V-B:GLU:543:CG:9879, V-B:GLU:543:CB:9878, V-A:HIS:456:CE1:4066, V-B:HIS:456:CE1:9040, V-A:GLU:543:CD:4906, V-A:GLU:543:CG:4905, V-B:GLU:543:C:9874, V-B:GLY:544:CA:9886, V-B:HIS:456:CD2:9039, V-A:LYS:547:CE:4948, V-A:GLY:544:C:4910, V-B:GLY:544:C:9884, H-A:LYS:547:NZ:4949, V-B:HIS:456:CG:9037, H-B:LYS:547:NZ:9923, V-A:GLY:544:CA:4912, V-B:HIS:456:CB:9036, H-A:HIS:456:NE2:4067, V-A:ARG:545:CG:4920, V-A:ARG:545:CD:4921, V-A:GLY:453:CA:4041, H-B:GLU:543:O:9875, H-A:ILE:455:N:4052"]

$$$$
3bd_Grossjean_2025
     RDKit          3D

 26 28  0  0  0  0  0  0  0  0999 V2000
  134.2850  123.7880   59.9930 C   0  0  0  0  0  0  0  0  0  0  0  0
  133.2100  122.9150   60.6360 C   0  0  0  0  0  0  0  0  0  0  0  0
  133.2320  121.5400   60.3780 C   0  0  0  0  0  0  0  0  0  0  0  0
  132.2610  120.7070   60.9450 C   0  0  0  0  0  0  0  0  0  0  0  0
  132.2290  119.2250   60.7140 C   0  0  0  0  0  0  0  0  0  0  0  0
  131.0190  118.5160   60.7700 C   0  0  0  0  0  0  0  0  0  0  0  0
  130.9830  117.1400   60.5570 C   0  0  0  0  0  0  0  0  0  0  0  0
  132.1610  116.4520   60.2860 C   0  0  0  0  0  0  0  0  0  0  0  0
  133.3740  117.1310   60.2280 C   0  0  0  0  0  0  0  0  0  0  0  0
  133.4060  118.5060   60.4410 C   0  0  0  0  0  0  0  0  0  0  0  0
  131.2990  121.2140   61.7600 N   0  0  0  0  0  0  0  0  0  0  0  0
  131.2620  122.5450   62.0210 C   0  0  0  0  0  0  0  0  0  0  0  0
  129.9430  123.0870   63.0950 S   0  0  0  0  0  0  0  0  0  0  0  0
  128.9700  124.3380   62.2060 C   0  0  0  0  0  0  0  0  0  0  0  0
  128.0790  123.7140   61.1310 C   0  0  0  0  0  0  0  0  0  0  0  0
  127.0990  123.0540   61.4750 O   0  0  0  0  0  0  0  0  0  0  0  0
  128.4600  123.9350   59.8540 N   0  0  0  0  0  0  0  0  0  0  0  0
  127.8400  123.5200   58.6600 C   0  0  0  0  0  0  0  0  0  0  0  0
  126.4430  123.5470   58.6520 C   0  0  0  0  0  0  0  0  0  0  0  0
  125.7410  123.1470   57.5180 C   0  0  0  0  0  0  0  0  0  0  0  0
  126.4360  122.7090   56.3940 C   0  0  0  0  0  0  0  0  0  0  0  0
  127.8280  122.6650   56.3950 C   0  0  0  0  0  0  0  0  0  0  0  0
  128.5330  123.0660   57.5260 C   0  0  0  0  0  0  0  0  0  0  0  0
  132.2050  123.4430   61.4750 C   0  0  0  0  0  0  0  0  0  0  0  0
  132.1550  124.8790   61.7660 C   0  0  0  0  0  0  0  0  0  0  0  0
  132.1180  126.0130   61.9950 N   0  0  0  0  0  0  0  0  0  0  0  0
  1  2  1  0
  2  3  2  0
  3  4  1  0
  4  5  1  0
  5  6  2  0
  6  7  1  0
  7  8  2  0
  8  9  1  0
  9 10  2  0
  4 11  2  0
 11 12  1  0
 12 13  1  0
 13 14  1  0
 14 15  1  0
 15 16  2  0
 15 17  1  0
 17 18  1  0
 18 19  2  0
 19 20  1  0
 20 21  2  0
 21 22  1  0
 22 23  2  0
 12 24  2  0
 24 25  1  0
 25 26  3  0
 24  2  1  0
 10  5  1  0
 23 18  1  0
M  END
>  <Binding energies>  (18) 
[-8.15]

>  <Ligand effiencies>  (18) 
[-0.30185185185185187]

>  <Interactions>  (18) 
["V-B:TYR:539:CE1:9847, V-A:ILE:369:CG2:3234, V-A:ILE:369:CD1:3236, V-A:LEU:475:CD2:4256, V-B:ILE:538:CA:9832, V-B:PRO:540:CA:9855, V-B:ILE:538:CG2:9835, V-B:PRO:540:CB:9857, H-A:ARG:545:NH2:4926, V-B:PRO:540:CD:9859, V-B:ILE:538:CB:9834, V-B:TYR:539:CD1:9845, V-B:PRO:540:N:9856, V-B:GLU:543:CD:9880, V-B:TYR:539:CZ:9849, H-B:ALA:541:N:9863, V-A:ILE:369:CB:3233, V-A:PRO:482:CB:4323, V-A:PRO:482:CG:4324, V-B:TYR:539:CB:9843, V-B:TYR:539:CD2:9846, V-A:ILE:369:CG1:3235, V-A:LEU:373:CD1:3277, V-A:SER:385:CA:3404, V-A:SER:385:CB:3406, V-A:VAL:384:C:3394"]

$$$$
3be_Grossjean_2025
     RDKit          3D

 27 29  0  0  0  0  0  0  0  0999 V2000
  133.8620  124.2360   59.4370 C   0  0  0  0  0  0  0  0  0  0  0  0
  132.7130  124.6540   58.5400 C   0  0  0  0  0  0  0  0  0  0  0  0
  132.9280  125.3820   57.3670 C   0  0  0  0  0  0  0  0  0  0  0  0
  131.8230  125.7340   56.5920 C   0  0  0  0  0  0  0  0  0  0  0  0
  130.5430  125.3540   57.0030 C   0  0  0  0  0  0  0  0  0  0  0  0
  130.3980  124.6220   58.1860 C   0  0  0  0  0  0  0  0  0  0  0  0
  129.0830  124.2780   58.5510 N   0  0  0  0  0  0  0  0  0  0  0  0
  128.3310  123.2400   58.1250 C   0  0  0  0  0  0  0  0  0  0  0  0
  128.7020  122.3980   57.3040 O   0  0  0  0  0  0  0  0  0  0  0  0
  126.9280  123.1630   58.7480 C   0  0  0  0  0  0  0  0  0  0  0  0
  126.8870  123.1990   60.5720 S   0  0  0  0  0  0  0  0  0  0  0  0
  128.5650  123.2380   61.1630 C   0  0  0  0  0  0  0  0  0  0  0  0
  129.2360  122.0760   60.9680 N   0  0  0  0  0  0  0  0  0  0  0  0
  130.5310  121.9670   61.3680 C   0  0  0  0  0  0  0  0  0  0  0  0
  131.1970  120.6440   61.1280 C   0  0  0  0  0  0  0  0  0  0  0  0
  132.5530  120.5780   60.7710 C   0  0  0  0  0  0  0  0  0  0  0  0
  133.1770  119.3550   60.5450 C   0  0  0  0  0  0  0  0  0  0  0  0
  132.4500  118.1760   60.6720 C   0  0  0  0  0  0  0  0  0  0  0  0
  131.1050  118.2130   61.0230 C   0  0  0  0  0  0  0  0  0  0  0  0
  130.4850  119.4390   61.2480 C   0  0  0  0  0  0  0  0  0  0  0  0
  131.1840  123.0390   61.9850 C   0  0  0  0  0  0  0  0  0  0  0  0
  130.5130  124.2520   62.1720 C   0  0  0  0  0  0  0  0  0  0  0  0
  131.2720  125.4010   62.8340 C   0  0  0  0  0  0  0  0  0  0  0  0
  129.1730  124.3730   61.7440 C   0  0  0  0  0  0  0  0  0  0  0  0
  128.4700  125.6500   61.8810 C   0  0  0  0  0  0  0  0  0  0  0  0
  127.9160  126.6610   61.9890 N   0  0  0  0  0  0  0  0  0  0  0  0
  131.4760  124.2770   58.9510 N   0  0  0  0  0  0  0  0  0  0  0  0
  1  2  1  0
  2  3  2  0
  3  4  1  0
  4  5  2  0
  5  6  1  0
  6  7  1  0
  7  8  1  0
  8  9  2  0
  8 10  1  0
 10 11  1  0
 11 12  1  0
 12 13  2  0
 13 14  1  0
 14 15  1  0
 15 16  2  0
 16 17  1  0
 17 18  2  0
 18 19  1  0
 19 20  2  0
 14 21  2  0
 21 22  1  0
 22 23  1  0
 22 24  2  0
 24 25  1  0
 25 26  3  0
  6 27  2  0
 27  2  1  0
 24 12  1  0
 20 15  1  0
M  END
>  <Binding energies>  (19) 
[-7.51]

>  <Ligand effiencies>  (19) 
[-0.2682142857142857]

>  <Interactions>  (19) 
["H-B:ARG:545:NH2:9900, V-B:ALA:541:CB:9864, V-B:TYR:539:CE1:9847, V-A:ILE:369:CG2:3234, V-A:ILE:369:CD1:3236, V-A:ASP:366:CG:3210, V-A:LEU:475:CD2:4256, V-B:PRO:540:CA:9855, V-B:PRO:540:CB:9857, V-B:TYR:539:CD1:9845, V-B:PRO:540:N:9856, V-B:TYR:539:C:9839, V-B:GLU:543:CD:9880, V-A:ASP:366:CA:3207, V-A:ASP:366:CB:3209, V-B:TYR:539:CZ:9849, H-B:ALA:541:N:9863, V-A:TYR:531:CZ:4792, V-A:TYR:531:CE1:4790, H-B:TYR:539:OH:9850, V-A:ILE:369:CB:3233, V-A:ASP:366:C:3205, V-A:PRO:482:CB:4323, H-B:TYR:539:N:9842, V-A:PRO:482:CG:4324, V-A:LEU:373:CD1:3277, V-A:SER:385:CA:3404, V-A:SER:385:CB:3406"]

$$$$
3bf_Grossjean_2025
     RDKit          3D

 26 28  0  0  0  0  0  0  0  0999 V2000
  128.0860  122.9010   61.4510 C   0  0  0  0  0  0  0  0  0  0  0  0
  129.5590  122.4980   61.4560 C   0  0  0  0  0  0  0  0  0  0  0  0
  129.8780  121.1640   61.1800 C   0  0  0  0  0  0  0  0  0  0  0  0
  131.2160  120.7550   61.1600 C   0  0  0  0  0  0  0  0  0  0  0  0
  131.6260  119.3470   60.8490 C   0  0  0  0  0  0  0  0  0  0  0  0
  130.6650  118.3300   60.7340 C   0  0  0  0  0  0  0  0  0  0  0  0
  131.0370  117.0200   60.4460 C   0  0  0  0  0  0  0  0  0  0  0  0
  132.3810  116.7080   60.2700 C   0  0  0  0  0  0  0  0  0  0  0  0
  133.3530  117.6960   60.3800 C   0  0  0  0  0  0  0  0  0  0  0  0
  132.9770  119.0060   60.6690 C   0  0  0  0  0  0  0  0  0  0  0  0
  132.2190  121.6390   61.4070 N   0  0  0  0  0  0  0  0  0  0  0  0
  131.9250  122.9300   61.7010 C   0  0  0  0  0  0  0  0  0  0  0  0
  133.3610  123.9380   62.0020 S   0  0  0  0  0  0  0  0  0  0  0  0
  134.3760  123.9420   60.4860 C   0  0  0  0  0  0  0  0  0  0  0  0
  133.6050  124.2060   59.1840 C   0  0  0  0  0  0  0  0  0  0  0  0
  134.0760  123.8740   58.0950 O   0  0  0  0  0  0  0  0  0  0  0  0
  132.3970  124.7860   59.3540 N   0  0  0  0  0  0  0  0  0  0  0  0
  131.4550  125.1660   58.3790 C   0  0  0  0  0  0  0  0  0  0  0  0
  130.1200  124.8200   58.6110 C   0  0  0  0  0  0  0  0  0  0  0  0
  129.1360  125.1810   57.6880 C   0  0  0  0  0  0  0  0  0  0  0  0
  129.5200  125.8910   56.5500 C   0  0  0  0  0  0  0  0  0  0  0  0
  130.8050  126.2500   56.3040 N   0  0  0  0  0  0  0  0  0  0  0  0
  131.7510  125.8910   57.2110 C   0  0  0  0  0  0  0  0  0  0  0  0
  130.5990  123.4160   61.7200 C   0  0  0  0  0  0  0  0  0  0  0  0
  130.2890  124.8270   61.9620 C   0  0  0  0  0  0  0  0  0  0  0  0
  130.0440  125.9420   62.1550 N   0  0  0  0  0  0  0  0  0  0  0  0
  1  2  1  0
  2  3  2  0
  3  4  1  0
  4  5  1  0
  5  6  2  0
  6  7  1  0
  7  8  2  0
  8  9  1  0
  9 10  2  0
  4 11  2  0
 11 12  1  0
 12 13  1  0
 13 14  1  0
 14 15  1  0
 15 16  2  0
 15 17  1  0
 17 18  1  0
 18 19  2  0
 19 20  1  0
 20 21  2  0
 21 22  1  0
 22 23  2  0
 12 24  2  0
 24 25  1  0
 25 26  3  0
 24  2  1  0
 10  5  1  0
 23 18  1  0
M  END
>  <Binding energies>  (20) 
[-7.85]

>  <Ligand effiencies>  (20) 
[-0.29074074074074074]

>  <Interactions>  (20) 
["V-B:ALA:541:CB:9864, V-B:TYR:539:CE1:9847, V-A:ILE:369:CG2:3234, V-A:ILE:369:CD1:3236, V-A:ASP:366:CG:3210, V-A:LEU:475:CD2:4256, V-B:PRO:540:CA:9855, V-B:TYR:539:CD1:9845, V-A:ASP:366:CA:3207, V-A:ASP:366:CB:3209, H-A:TYR:531:OH:4793, H-B:TYR:539:OH:9850, V-A:ILE:369:CB:3233, H-A:ASP:366:OD1:3211, V-B:MET:535:CE:9807, V-B:PRO:540:C:9853, V-A:PRO:482:CB:4323, V-A:PRO:482:CG:4324, V-B:TYR:539:CB:9843, V-A:ILE:369:CG1:3235, V-A:LEU:373:CD1:3277, V-A:SER:385:CA:3404, V-A:SER:385:CB:3406, V-A:VAL:384:C:3394"]

$$$$
3bg_Grossjean_2025
     RDKit          3D

 27 29  0  0  0  0  0  0  0  0999 V2000
  128.5370  122.8330   61.9850 C   0  0  0  0  0  0  0  0  0  0  0  0
  129.9470  122.3920   61.5960 C   0  0  0  0  0  0  0  0  0  0  0  0
  130.1770  121.0310   61.3750 C   0  0  0  0  0  0  0  0  0  0  0  0
  131.4540  120.5850   61.0090 C   0  0  0  0  0  0  0  0  0  0  0  0
  131.7660  119.1370   60.7450 C   0  0  0  0  0  0  0  0  0  0  0  0
  130.7420  118.1780   60.6700 C   0  0  0  0  0  0  0  0  0  0  0  0
  131.0250  116.8410   60.4080 C   0  0  0  0  0  0  0  0  0  0  0  0
  132.3420  116.4380   60.2190 C   0  0  0  0  0  0  0  0  0  0  0  0
  133.3770  117.3620   60.3000 C   0  0  0  0  0  0  0  0  0  0  0  0
  133.0890  118.6980   60.5640 C   0  0  0  0  0  0  0  0  0  0  0  0
  132.4750  121.4690   60.8490 N   0  0  0  0  0  0  0  0  0  0  0  0
  132.2680  122.7940   61.0570 C   0  0  0  0  0  0  0  0  0  0  0  0
  133.6810  123.8510   60.7790 S   0  0  0  0  0  0  0  0  0  0  0  0
  133.9950  123.9250   58.9850 C   0  0  0  0  0  0  0  0  0  0  0  0
  132.9130  124.7220   58.2500 C   0  0  0  0  0  0  0  0  0  0  0  0
  133.2340  125.6440   57.5000 O   0  0  0  0  0  0  0  0  0  0  0  0
  131.6400  124.3700   58.4950 N   0  0  0  0  0  0  0  0  0  0  0  0
  130.4540  125.1030   58.0490 C   0  0  0  0  0  0  0  0  0  0  0  0
  129.2730  124.1720   57.8010 C   0  0  0  0  0  0  0  0  0  0  0  0
  128.3950  123.8610   58.8450 C   0  0  0  0  0  0  0  0  0  0  0  0
  127.3220  123.0040   58.6210 C   0  0  0  0  0  0  0  0  0  0  0  0
  127.1220  122.4680   57.3500 C   0  0  0  0  0  0  0  0  0  0  0  0
  127.9790  122.7890   56.3000 C   0  0  0  0  0  0  0  0  0  0  0  0
  129.0530  123.6470   56.5250 C   0  0  0  0  0  0  0  0  0  0  0  0
  131.0120  123.3060   61.4430 C   0  0  0  0  0  0  0  0  0  0  0  0
  130.8000  124.7390   61.6610 C   0  0  0  0  0  0  0  0  0  0  0  0
  130.6310  125.8710   61.8330 N   0  0  0  0  0  0  0  0  0  0  0  0
  1  2  1  0
  2  3  2  0
  3  4  1  0
  4  5  1  0
  5  6  2  0
  6  7  1  0
  7  8  2  0
  8  9  1  0
  9 10  2  0
  4 11  2  0
 11 12  1  0
 12 13  1  0
 13 14  1  0
 14 15  1  0
 15 16  2  0
 15 17  1  0
 17 18  1  0
 18 19  1  0
 19 20  2  0
 20 21  1  0
 21 22  2  0
 22 23  1  0
 23 24  2  0
 12 25  2  0
 25 26  1  0
 26 27  3  0
 25  2  1  0
 10  5  1  0
 24 19  1  0
M  END
>  <Binding energies>  (21) 
[-7.69]

>  <Ligand effiencies>  (21) 
[-0.27464285714285713]

>  <Interactions>  (21) 
["V-B:ALA:541:CB:9864, V-B:TYR:539:CE1:9847, V-A:ILE:369:CG2:3234, V-A:ILE:369:CD1:3236, V-A:ASP:366:CG:3210, V-A:LEU:475:CD2:4256, V-B:ILE:538:CA:9832, V-B:PRO:540:CA:9855, V-B:PRO:540:CD:9859, V-B:TYR:539:CD1:9845, V-B:PRO:540:N:9856, V-B:TYR:539:C:9839, V-A:ASP:366:CA:3207, V-A:ASP:366:CB:3209, V-B:TYR:539:CZ:9849, H-A:TYR:531:OH:4793, H-B:TYR:539:OH:9850, V-A:ILE:369:CB:3233, V-B:MET:535:CE:9807, V-A:PRO:482:CB:4323, V-B:TYR:539:CE2:9848, V-A:PRO:482:CG:4324, V-B:TYR:539:CB:9843, V-B:TYR:539:CA:9841, V-B:TYR:539:CD2:9846, V-B:ALA:541:CA:9862, V-A:LEU:373:CD1:3277, V-A:SER:385:CA:3404, V-A:SER:385:CB:3406, V-B:VAL:344:CG1:7972, V-A:VAL:384:C:3394"]

$$$$
3ca_Grossjean_2025
     RDKit          3D

 31 33  0  0  0  0  0  0  0  0999 V2000
  131.6830  126.5250   73.6960 C   0  0  0  0  0  0  0  0  0  0  0  0
  130.2930  126.4240   73.0610 C   0  0  0  0  0  0  0  0  0  0  0  0
  129.8600  127.7190   72.6610 O   0  0  0  0  0  0  0  0  0  0  0  0
  128.7660  127.8810   71.8750 C   0  0  0  0  0  0  0  0  0  0  0  0
  127.6760  128.2800   72.2980 O   0  0  0  0  0  0  0  0  0  0  0  0
  129.0140  127.5320   70.4340 C   0  0  0  0  0  0  0  0  0  0  0  0
  130.3120  127.6330   69.9200 C   0  0  0  0  0  0  0  0  0  0  0  0
  130.5730  127.3170   68.5890 C   0  0  0  0  0  0  0  0  0  0  0  0
  129.5420  126.9020   67.7450 C   0  0  0  0  0  0  0  0  0  0  0  0
  129.9150  126.6070   66.4200 N   0  0  0  0  0  0  0  0  0  0  0  0
  130.4120  125.4640   65.8990 C   0  0  0  0  0  0  0  0  0  0  0  0
  130.6160  124.4250   66.5260 O   0  0  0  0  0  0  0  0  0  0  0  0
  130.7110  125.5060   64.3970 C   0  0  0  0  0  0  0  0  0  0  0  0
  132.4790  125.2820   64.0100 S   0  0  0  0  0  0  0  0  0  0  0  0
  132.6600  124.1960   62.6020 C   0  0  0  0  0  0  0  0  0  0  0  0
  133.3540  124.7040   61.5530 N   0  0  0  0  0  0  0  0  0  0  0  0
  133.5480  123.9310   60.4620 C   0  0  0  0  0  0  0  0  0  0  0  0
  134.3470  124.5630   59.3400 C   0  0  0  0  0  0  0  0  0  0  0  0
  133.0490  122.6340   60.3650 C   0  0  0  0  0  0  0  0  0  0  0  0
  132.3140  122.0930   61.4270 C   0  0  0  0  0  0  0  0  0  0  0  0
  131.7870  120.7030   61.2730 C   0  0  0  0  0  0  0  0  0  0  0  0
  130.4670  120.4070   61.6350 C   0  0  0  0  0  0  0  0  0  0  0  0
  129.9710  119.1130   61.5040 C   0  0  0  0  0  0  0  0  0  0  0  0
  130.7960  118.1050   61.0120 C   0  0  0  0  0  0  0  0  0  0  0  0
  132.1140  118.3810   60.6530 C   0  0  0  0  0  0  0  0  0  0  0  0
  132.6070  119.6770   60.7870 C   0  0  0  0  0  0  0  0  0  0  0  0
  132.1180  122.8880   62.5850 C   0  0  0  0  0  0  0  0  0  0  0  0
  131.4010  122.3570   63.7490 C   0  0  0  0  0  0  0  0  0  0  0  0
  130.8350  121.9370   64.6680 N   0  0  0  0  0  0  0  0  0  0  0  0
  128.2390  126.7910   68.2550 C   0  0  0  0  0  0  0  0  0  0  0  0
  127.9810  127.1050   69.5870 C   0  0  0  0  0  0  0  0  0  0  0  0
  1  2  1  0
  2  3  1  0
  3  4  1  0
  4  5  2  0
  4  6  1  0
  6  7  2  0
  7  8  1  0
  8  9  2  0
  9 10  1  0
 10 11  1  0
 11 12  2  0
 11 13  1  0
 13 14  1  0
 14 15  1  0
 15 16  2  0
 16 17  1  0
 17 18  1  0
 17 19  2  0
 19 20  1  0
 20 21  1  0
 21 22  2  0
 22 23  1  0
 23 24  2  0
 24 25  1  0
 25 26  2  0
 20 27  2  0
 27 28  1  0
 28 29  3  0
  9 30  1  0
 30 31  2  0
 31  6  1  0
 27 15  1  0
 26 21  1  0
M  END
>  <Binding energies>  (22) 
[-8.15]

>  <Ligand effiencies>  (22) 
[-0.2546875]

>  <Interactions>  (22) 
["H-A:ARG:545:NE:4922, V-B:ALA:541:CB:9864, V-B:TYR:539:CE1:9847, V-A:ILE:369:CG2:3234, V-A:ILE:369:CD1:3236, H-A:TYR:484:OH:4345, V-A:ASP:366:CG:3210, V-A:LEU:475:CD2:4256, H-A:ARG:545:NH2:4926, V-B:TYR:539:CD1:9845, V-B:TYR:539:C:9839, V-B:GLU:543:CD:9880, V-B:GLU:543:CG:9879, H-A:GLU:543:OE2:4908, V-B:GLU:543:CB:9878, V-A:HIS:456:CE1:4066, V-A:ASP:366:CA:3207, V-A:ASP:366:CB:3209, H-B:GLU:543:OE1:9881, H-A:GLU:543:OE1:4907, H-B:GLU:543:OE2:9882, V-B:HIS:456:CE1:9040, V-A:GLU:543:CD:4906, V-A:GLU:543:CG:4905, V-B:GLU:543:C:9874, V-B:HIS:456:CD2:9039, V-A:GLU:543:C:4900, V-A:LYS:547:CE:4948, V-A:GLY:544:C:4910, V-A:HIS:456:CG:4063, V-A:HIS:456:CD2:4065, H-A:LYS:547:NZ:4949, V-A:HIS:456:CB:4062, H-B:HIS:456:NE2:9041, H-A:HIS:456:NE2:4067, V-A:ILE:369:CB:3233, V-A:PRO:482:CB:4323, V-A:PRO:482:CG:4324, V-A:LEU:373:CD1:3277"]

$$$$
3ce_Grossjean_2025
     RDKit          3D

 27 29  0  0  0  0  0  0  0  0999 V2000
  128.7560  122.7850   57.6400 C   0  0  0  0  0  0  0  0  0  0  0  0
  128.0640  123.2830   58.8950 C   0  0  0  0  0  0  0  0  0  0  0  0
  126.6760  123.2230   59.0370 C   0  0  0  0  0  0  0  0  0  0  0  0
  126.1090  123.6900   60.2220 C   0  0  0  0  0  0  0  0  0  0  0  0
  126.9340  124.2010   61.2270 C   0  0  0  0  0  0  0  0  0  0  0  0
  128.3170  124.2410   61.0160 C   0  0  0  0  0  0  0  0  0  0  0  0
  129.0980  124.7470   62.0690 N   0  0  0  0  0  0  0  0  0  0  0  0
  130.1960  125.5320   61.9920 C   0  0  0  0  0  0  0  0  0  0  0  0
  130.6960  125.9470   60.9450 O   0  0  0  0  0  0  0  0  0  0  0  0
  130.8280  125.9190   63.3280 C   0  0  0  0  0  0  0  0  0  0  0  0
  132.5440  125.3360   63.4610 S   0  0  0  0  0  0  0  0  0  0  0  0
  132.7420  124.1200   62.1800 C   0  0  0  0  0  0  0  0  0  0  0  0
  133.4070  124.5730   61.0890 N   0  0  0  0  0  0  0  0  0  0  0  0
  133.6240  123.7180   60.0630 C   0  0  0  0  0  0  0  0  0  0  0  0
  134.3850  124.2850   58.8800 C   0  0  0  0  0  0  0  0  0  0  0  0
  133.1800  122.3980   60.0800 C   0  0  0  0  0  0  0  0  0  0  0  0
  132.4690  121.9190   61.1880 C   0  0  0  0  0  0  0  0  0  0  0  0
  131.9920  120.5040   61.1490 C   0  0  0  0  0  0  0  0  0  0  0  0
  130.6660  120.2000   61.4830 C   0  0  0  0  0  0  0  0  0  0  0  0
  130.2160  118.8830   61.4550 C   0  0  0  0  0  0  0  0  0  0  0  0
  131.0920  117.8610   61.0990 C   0  0  0  0  0  0  0  0  0  0  0  0
  132.4160  118.1460   60.7750 C   0  0  0  0  0  0  0  0  0  0  0  0
  132.8630  119.4640   60.8020 C   0  0  0  0  0  0  0  0  0  0  0  0
  132.2430  122.7990   62.2760 C   0  0  0  0  0  0  0  0  0  0  0  0
  131.5180  122.3500   63.4690 C   0  0  0  0  0  0  0  0  0  0  0  0
  130.9460  121.9950   64.4090 N   0  0  0  0  0  0  0  0  0  0  0  0
  128.8790  123.7790   59.8610 N   0  0  0  0  0  0  0  0  0  0  0  0
  1  2  1  0
  2  3  2  0
  3  4  1  0
  4  5  2  0
  5  6  1  0
  6  7  1  0
  7  8  1  0
  8  9  2  0
  8 10  1  0
 10 11  1  0
 11 12  1  0
 12 13  2  0
 13 14  1  0
 14 15  1  0
 14 16  2  0
 16 17  1  0
 17 18  1  0
 18 19  2  0
 19 20  1  0
 20 21  2  0
 21 22  1  0
 22 23  2  0
 17 24  2  0
 24 25  1  0
 25 26  3  0
  6 27  2  0
 27  2  1  0
 24 12  1  0
 23 18  1  0
M  END
>  <Binding energies>  (23) 
[-7.79]

>  <Ligand effiencies>  (23) 
[-0.2782142857142857]

>  <Interactions>  (23) 
["V-B:ALA:541:CB:9864, V-B:TYR:539:CE1:9847, V-A:ILE:369:CG2:3234, V-A:ILE:369:CD1:3236, H-A:TYR:484:OH:4345, V-A:ASP:366:CG:3210, V-A:LEU:475:CD2:4256, V-B:PRO:540:CA:9855, V-B:PRO:540:CB:9857, H-A:ARG:545:NH2:4926, V-B:TYR:539:CD1:9845, V-B:PRO:540:N:9856, V-B:TYR:539:CG:9844, V-B:TYR:539:C:9839, V-B:GLU:543:CD:9880, V-A:ASP:366:CA:3207, V-A:ASP:366:CB:3209, H-B:GLU:543:OE1:9881, V-B:TYR:539:CZ:9849, H-B:GLU:543:OE2:9882, V-A:ILE:369:CB:3233, V-A:ASP:366:C:3205, V-A:PRO:482:CB:4323, V-B:TYR:539:CE2:9848, V-A:PRO:482:CG:4324, V-A:LEU:373:CD1:3277, V-A:SER:385:CA:3404, V-A:SER:385:CB:3406"]

$$$$
3cj_Grossjean_2025
     RDKit          3D

 25 27  0  0  0  0  0  0  0  0999 V2000
  131.8700  125.3620   57.0900 C   0  0  0  0  0  0  0  0  0  0  0  0
  130.7460  124.8660   57.9790 C   0  0  0  0  0  0  0  0  0  0  0  0
  129.4740  124.6110   57.4700 C   0  0  0  0  0  0  0  0  0  0  0  0
  128.4710  124.1310   58.3230 C   0  0  0  0  0  0  0  0  0  0  0  0
  127.1430  123.8100   57.7220 C   0  0  0  0  0  0  0  0  0  0  0  0
  126.0090  124.5550   58.0660 C   0  0  0  0  0  0  0  0  0  0  0  0
  124.7670  124.2470   57.5140 C   0  0  0  0  0  0  0  0  0  0  0  0
  124.6560  123.1860   56.6210 C   0  0  0  0  0  0  0  0  0  0  0  0
  125.7730  122.4290   56.2770 C   0  0  0  0  0  0  0  0  0  0  0  0
  127.0130  122.7400   56.8290 C   0  0  0  0  0  0  0  0  0  0  0  0
  128.7800  123.9520   59.6940 C   0  0  0  0  0  0  0  0  0  0  0  0
  127.7650  123.4800   60.6410 C   0  0  0  0  0  0  0  0  0  0  0  0
  126.9630  123.1060   61.3880 N   0  0  0  0  0  0  0  0  0  0  0  0
  130.0970  124.2310   60.1220 C   0  0  0  0  0  0  0  0  0  0  0  0
  130.6540  123.9220   61.7850 S   0  0  0  0  0  0  0  0  0  0  0  0
  130.0760  122.2370   62.1650 C   0  0  0  0  0  0  0  0  0  0  0  0
  131.0610  121.1720   61.6740 C   0  0  0  0  0  0  0  0  0  0  0  0
  132.2720  121.3570   61.8060 O   0  0  0  0  0  0  0  0  0  0  0  0
  130.4980  120.0600   61.1520 N   0  0  0  0  0  0  0  0  0  0  0  0
  131.1550  118.9040   60.7640 C   0  0  0  0  0  0  0  0  0  0  0  0
  130.6260  117.7440   60.4390 N   0  0  0  0  0  0  0  0  0  0  0  0
  131.5520  116.8730   60.0890 C   0  0  0  0  0  0  0  0  0  0  0  0
  132.8680  117.3220   60.1270 C   0  0  0  0  0  0  0  0  0  0  0  0
  132.8850  118.9800   60.6530 S   0  0  0  0  0  0  0  0  0  0  0  0
  131.0640  124.6700   59.2780 N   0  0  0  0  0  0  0  0  0  0  0  0
  1  2  1  0
  2  3  2  0
  3  4  1  0
  4  5  1  0
  5  6  2  0
  6  7  1  0
  7  8  2  0
  8  9  1  0
  9 10  2  0
  4 11  2  0
 11 12  1  0
 12 13  3  0
 11 14  1  0
 14 15  1  0
 15 16  1  0
 16 17  1  0
 17 18  2  0
 17 19  1  0
 19 20  1  0
 20 21  2  0
 21 22  1  0
 22 23  2  0
 23 24  1  0
 14 25  2  0
 25  2  1  0
 10  5  1  0
 24 20  1  0
M  END
>  <Binding energies>  (24) 
[-8.34]

>  <Ligand effiencies>  (24) 
[-0.32076923076923075]

>  <Interactions>  (24) 
["V-B:ALA:541:CB:9864, V-B:TYR:539:CE1:9847, V-A:LEU:475:CD2:4256, V-B:TYR:531:CE2:9765, V-B:ILE:538:CA:9832, V-B:PRO:540:CA:9855, V-B:ILE:538:CG2:9835, V-B:PRO:540:CD:9859, V-B:ILE:538:CB:9834, V-B:LEU:363:CD1:8160, V-B:TYR:539:CD1:9845, V-B:PRO:540:N:9856, V-B:TYR:539:C:9839, V-B:TYR:539:CZ:9849, H-B:ALA:541:N:9863, V-B:TYR:531:CZ:9766, V-B:ILE:538:C:9830, V-A:PRO:482:CG:4324, V-B:TYR:539:CB:9843, H-B:TYR:539:O:9840, V-A:LEU:373:CD1:3277, V-A:SER:385:CA:3404, V-A:SER:385:CB:3406"]

$$$$
4ba_Grossjean_2025
     RDKit          3D

 28 30  0  0  0  0  0  0  0  0999 V2000
  131.4550  126.3330   73.8610 C   0  0  0  0  0  0  0  0  0  0  0  0
  131.1200  126.8880   72.4640 C   0  0  0  0  0  0  0  0  0  0  0  0
  129.7220  126.5140   71.9290 C   0  0  0  0  0  0  0  0  0  0  0  0
  128.9710  125.8260   72.6230 O   0  0  0  0  0  0  0  0  0  0  0  0
  129.3380  127.0190   70.5680 C   0  0  0  0  0  0  0  0  0  0  0  0
  128.0130  126.8840   70.1340 C   0  0  0  0  0  0  0  0  0  0  0  0
  127.6290  127.3420   68.8770 C   0  0  0  0  0  0  0  0  0  0  0  0
  128.5590  127.9460   68.0300 C   0  0  0  0  0  0  0  0  0  0  0  0
  128.0660  128.3640   66.7790 N   0  0  0  0  0  0  0  0  0  0  0  0
  127.6440  129.5860   66.3720 C   0  0  0  0  0  0  0  0  0  0  0  0
  127.5870  130.5770   67.1020 O   0  0  0  0  0  0  0  0  0  0  0  0
  127.2200  129.6670   64.9720 C   0  0  0  0  0  0  0  0  0  0  0  0
  125.9320  130.7730   64.4990 S   0  0  0  0  0  0  0  0  0  0  0  0
  126.0200  130.2380   62.8370 C   0  0  0  0  0  0  0  0  0  0  0  0
  125.2210  130.7470   61.9010 N   0  0  0  0  0  0  0  0  0  0  0  0
  125.3810  130.2540   60.6510 C   0  0  0  0  0  0  0  0  0  0  0  0
  124.4530  130.8400   59.6020 C   0  0  0  0  0  0  0  0  0  0  0  0
  126.3160  129.2770   60.3180 C   0  0  0  0  0  0  0  0  0  0  0  0
  127.1620  128.7380   61.3000 C   0  0  0  0  0  0  0  0  0  0  0  0
  128.1770  127.6680   60.8850 C   0  0  0  0  0  0  0  0  0  0  0  0
  127.9900  126.5020   61.5070 F   0  0  0  0  0  0  0  0  0  0  0  0
  128.0840  127.4400   59.5750 F   0  0  0  0  0  0  0  0  0  0  0  0
  129.4110  128.0810   61.1740 F   0  0  0  0  0  0  0  0  0  0  0  0
  127.0140  129.2330   62.6310 C   0  0  0  0  0  0  0  0  0  0  0  0
  127.6770  128.9200   63.8740 C   0  0  0  0  0  0  0  0  0  0  0  0
  128.6690  127.9770   63.9660 N   0  0  0  0  0  0  0  0  0  0  0  0
  129.8900  128.0790   68.4540 C   0  0  0  0  0  0  0  0  0  0  0  0
  130.2720  127.6200   69.7120 C   0  0  0  0  0  0  0  0  0  0  0  0
  1  2  1  0
  2  3  1  0
  3  4  2  0
  3  5  1  0
  5  6  2  0
  6  7  1  0
  7  8  2  0
  8  9  1  0
  9 10  1  0
 10 11  2  0
 10 12  1  0
 12 13  1  0
 13 14  1  0
 14 15  2  0
 15 16  1  0
 16 17  1  0
 16 18  2  0
 18 19  1  0
 19 20  1  0
 20 21  1  0
 20 22  1  0
 20 23  1  0
 19 24  2  0
 24 25  1  0
 25 26  1  0
  8 27  1  0
 27 28  2  0
 28  5  1  0
 25 12  2  0
 24 14  1  0
M  END
>  <Binding energies>  (25) 
[-6.4]

>  <Ligand effiencies>  (25) 
[-0.2064516129032258]

>  <Interactions>  (25) 
["V-A:TYR:539:CE1:4873, V-B:ASP:366:CG:8184, H-B:TYR:484:OH:9319, V-B:ASP:366:CB:8183, V-B:GLU:543:CD:9880, V-B:GLU:543:CG:9879, H-A:GLU:543:OE2:4908, V-A:HIS:456:CE1:4066, H-B:GLU:543:OE1:9881, H-A:GLU:543:OE1:4907, H-B:GLU:543:OE2:9882, V-B:HIS:456:CE1:9040, V-A:GLU:543:CB:4904, V-A:GLU:543:CD:4906, V-A:GLU:543:CG:4905, V-B:GLU:543:C:9874, V-B:GLY:544:CA:9886, V-A:GLU:543:C:4900, V-A:LYS:547:CE:4948, V-A:GLY:544:C:4910, V-A:HIS:456:CG:4063, V-B:GLY:544:C:9884, V-A:HIS:456:CD2:4065, V-A:HIS:456:CB:4062, H-B:LYS:547:NZ:9923, H-B:HIS:456:NE2:9041, H-A:HIS:456:NE2:4067"]

$$$$
4bb_Grossjean_2025
     RDKit          3D

 27 29  0  0  0  0  0  0  0  0999 V2000
  131.0740  126.8980   72.4540 C   0  0  0  0  0  0  0  0  0  0  0  0
  129.6980  126.5200   71.9010 C   0  0  0  0  0  0  0  0  0  0  0  0
  128.9670  125.8130   72.5970 O   0  0  0  0  0  0  0  0  0  0  0  0
  129.3170  127.0200   70.5400 C   0  0  0  0  0  0  0  0  0  0  0  0
  127.9920  126.8900   70.1060 C   0  0  0  0  0  0  0  0  0  0  0  0
  127.6120  127.3460   68.8470 C   0  0  0  0  0  0  0  0  0  0  0  0
  128.5460  127.9460   68.0010 C   0  0  0  0  0  0  0  0  0  0  0  0
  128.0560  128.3680   66.7490 N   0  0  0  0  0  0  0  0  0  0  0  0
  127.6220  129.5890   66.3500 C   0  0  0  0  0  0  0  0  0  0  0  0
  127.5630  130.5760   67.0820 O   0  0  0  0  0  0  0  0  0  0  0  0
  127.1830  129.6690   64.9540 C   0  0  0  0  0  0  0  0  0  0  0  0
  125.8860  130.7690   64.4950 S   0  0  0  0  0  0  0  0  0  0  0  0
  125.9640  130.2420   62.8290 C   0  0  0  0  0  0  0  0  0  0  0  0
  125.1610  130.7550   61.8990 N   0  0  0  0  0  0  0  0  0  0  0  0
  125.3150  130.2670   60.6470 C   0  0  0  0  0  0  0  0  0  0  0  0
  124.3910  130.8660   59.6020 C   0  0  0  0  0  0  0  0  0  0  0  0
  126.2440  129.2880   60.3060 C   0  0  0  0  0  0  0  0  0  0  0  0
  127.0930  128.7440   61.2820 C   0  0  0  0  0  0  0  0  0  0  0  0
  128.0990  127.6680   60.8590 C   0  0  0  0  0  0  0  0  0  0  0  0
  129.3630  128.0000   61.1320 F   0  0  0  0  0  0  0  0  0  0  0  0
  127.8370  126.5290   61.5010 F   0  0  0  0  0  0  0  0  0  0  0  0
  128.0160  127.4630   59.5450 F   0  0  0  0  0  0  0  0  0  0  0  0
  126.9570  129.2370   62.6150 C   0  0  0  0  0  0  0  0  0  0  0  0
  127.6330  128.9270   63.8490 C   0  0  0  0  0  0  0  0  0  0  0  0
  128.6340  127.9920   63.9310 N   0  0  0  0  0  0  0  0  0  0  0  0
  129.8780  128.0730   68.4260 C   0  0  0  0  0  0  0  0  0  0  0  0
  130.2560  127.6150   69.6860 C   0  0  0  0  0  0  0  0  0  0  0  0
  1  2  1  0
  2  3  2  0
  2  4  1  0
  4  5  2  0
  5  6  1  0
  6  7  2  0
  7  8  1  0
  8  9  1  0
  9 10  2  0
  9 11  1  0
 11 12  1  0
 12 13  1  0
 13 14  2  0
 14 15  1  0
 15 16  1  0
 15 17  2  0
 17 18  1  0
 18 19  1  0
 19 20  1  0
 19 21  1  0
 19 22  1  0
 18 23  2  0
 23 24  1  0
 24 25  1  0
  7 26  1  0
 26 27  2  0
 27  4  1  0
 24 11  2  0
 23 13  1  0
M  END
>  <Binding energies>  (26) 
[-6.32]

>  <Ligand effiencies>  (26) 
[-0.21066666666666667]

>  <Interactions>  (26) 
["V-A:TYR:539:CE1:4873, V-B:ASP:366:CG:8184, H-B:TYR:484:OH:9319, V-B:ASP:366:CB:8183, V-B:GLU:543:CD:9880, V-B:GLU:543:CG:9879, H-A:GLU:543:OE2:4908, V-A:HIS:456:CE1:4066, H-B:GLU:543:OE1:9881, H-A:GLU:543:OE1:4907, H-B:GLU:543:OE2:9882, V-B:HIS:456:CE1:9040, V-A:GLU:543:CB:4904, V-A:GLU:543:CD:4906, V-A:GLU:543:CG:4905, V-B:GLU:543:C:9874, V-B:GLY:544:CA:9886, V-A:GLU:543:C:4900, V-A:GLY:544:C:4910, V-A:HIS:456:CG:4063, V-B:GLY:544:C:9884, V-A:HIS:456:CD2:4065, H-B:LYS:547:NZ:9923, H-B:HIS:456:NE2:9041, H-A:HIS:456:NE2:4067, V-B:ASP:366:CA:8181"]

$$$$
4bd_Grossjean_2025
     RDKit          3D

 24 26  0  0  0  0  0  0  0  0999 V2000
  128.4440  128.1570   62.4500 C   0  0  0  0  0  0  0  0  0  0  0  0
  128.5330  126.6810   62.1100 C   0  0  0  0  0  0  0  0  0  0  0  0
  127.4110  125.9710   61.6900 C   0  0  0  0  0  0  0  0  0  0  0  0
  127.5070  124.6060   61.3810 C   0  0  0  0  0  0  0  0  0  0  0  0
  126.2450  123.8660   60.9260 C   0  0  0  0  0  0  0  0  0  0  0  0
  126.0050  122.7590   61.6320 F   0  0  0  0  0  0  0  0  0  0  0  0
  125.1830  124.6610   61.0570 F   0  0  0  0  0  0  0  0  0  0  0  0
  126.3690  123.5050   59.6490 F   0  0  0  0  0  0  0  0  0  0  0  0
  128.7900  123.9950   61.5150 C   0  0  0  0  0  0  0  0  0  0  0  0
  129.2650  122.6510   61.2940 C   0  0  0  0  0  0  0  0  0  0  0  0
  128.4470  121.6400   60.8610 N   0  0  0  0  0  0  0  0  0  0  0  0
  130.6330  122.4750   61.5620 C   0  0  0  0  0  0  0  0  0  0  0  0
  131.4330  121.2500   61.4610 C   0  0  0  0  0  0  0  0  0  0  0  0
  132.5960  121.2240   61.8660 O   0  0  0  0  0  0  0  0  0  0  0  0
  130.7970  120.1840   60.9150 N   0  0  0  0  0  0  0  0  0  0  0  0
  131.2870  118.8930   60.6420 C   0  0  0  0  0  0  0  0  0  0  0  0
  132.6790  118.7580   60.6250 C   0  0  0  0  0  0  0  0  0  0  0  0
  133.2610  117.5190   60.3740 C   0  0  0  0  0  0  0  0  0  0  0  0
  132.4510  116.4090   60.1480 C   0  0  0  0  0  0  0  0  0  0  0  0
  131.0640  116.5270   60.1760 C   0  0  0  0  0  0  0  0  0  0  0  0
  130.4780  117.7650   60.4260 C   0  0  0  0  0  0  0  0  0  0  0  0
  131.3780  123.9800   62.0920 S   0  0  0  0  0  0  0  0  0  0  0  0
  129.8590  124.8340   61.9560 C   0  0  0  0  0  0  0  0  0  0  0  0
  129.7620  126.1300   62.2470 N   0  0  0  0  0  0  0  0  0  0  0  0
  1  2  1  0
  2  3  2  0
  3  4  1  0
  4  5  1  0
  5  6  1  0
  5  7  1  0
  5  8  1  0
  4  9  2  0
  9 10  1  0
 10 11  1  0
 10 12  2  0
 12 13  1  0
 13 14  2  0
 13 15  1  0
 15 16  1  0
 16 17  2  0
 17 18  1  0
 18 19  2  0
 19 20  1  0
 20 21  2  0
 12 22  1  0
 22 23  1  0
 23 24  2  0
 24  2  1  0
 23  9  1  0
 21 16  1  0
M  END
>  <Binding energies>  (27) 
[-5.7]

>  <Ligand effiencies>  (27) 
[-0.2111111111111111]

>  <Interactions>  (27) 
["V-B:ALA:541:CB:9864, V-B:TYR:539:CE1:9847, V-A:LEU:475:CD2:4256, V-B:PRO:540:CA:9855, V-B:ASP:366:CG:8184, V-B:PRO:540:CB:9857, V-B:TYR:539:CD1:9845, V-B:PRO:540:N:9856, V-B:TYR:539:CG:9844, V-B:TYR:539:C:9839, V-B:GLU:543:CD:9880, V-B:PRO:540:C:9853, V-A:PRO:482:CB:4323, V-A:PRO:482:CG:4324, V-B:TYR:539:CB:9843, H-B:TYR:539:O:9840, V-B:ALA:541:CA:9862, V-A:LEU:373:CD1:3277, V-A:SER:385:CA:3404, V-A:SER:385:CB:3406, V-B:ALA:541:C:9860, V-B:VAL:344:CG1:7972, H-B:PRO:540:O:9854"]

$$$$
4be_Grossjean_2025
     RDKit          3D

 25 27  0  0  0  0  0  0  0  0999 V2000
  123.5220  130.9740   62.3550 C   0  0  0  0  0  0  0  0  0  0  0  0
  124.8250  130.7090   63.0850 C   0  0  0  0  0  0  0  0  0  0  0  0
  125.3380  131.6150   64.0160 C   0  0  0  0  0  0  0  0  0  0  0  0
  126.5440  131.3070   64.6470 C   0  0  0  0  0  0  0  0  0  0  0  0
  127.2010  130.1150   64.3350 C   0  0  0  0  0  0  0  0  0  0  0  0
  126.6290  129.2490   63.3970 C   0  0  0  0  0  0  0  0  0  0  0  0
  127.3430  128.0690   63.1220 N   0  0  0  0  0  0  0  0  0  0  0  0
  127.6440  127.5150   61.9200 C   0  0  0  0  0  0  0  0  0  0  0  0
  127.3160  128.0050   60.8380 O   0  0  0  0  0  0  0  0  0  0  0  0
  128.3840  126.2510   61.9780 C   0  0  0  0  0  0  0  0  0  0  0  0
  127.7550  124.8200   61.1630 S   0  0  0  0  0  0  0  0  0  0  0  0
  129.1030  123.8560   61.7180 C   0  0  0  0  0  0  0  0  0  0  0  0
  129.2130  122.5670   61.4020 N   0  0  0  0  0  0  0  0  0  0  0  0
  130.3010  121.9260   61.8880 C   0  0  0  0  0  0  0  0  0  0  0  0
  130.4060  120.4580   61.5190 C   0  0  0  0  0  0  0  0  0  0  0  0
  131.2730  122.5390   62.6740 C   0  0  0  0  0  0  0  0  0  0  0  0
  131.1640  123.8980   63.0100 C   0  0  0  0  0  0  0  0  0  0  0  0
  132.2600  124.5290   63.8740 C   0  0  0  0  0  0  0  0  0  0  0  0
  132.8500  125.5740   63.2880 F   0  0  0  0  0  0  0  0  0  0  0  0
  131.7380  124.9610   65.0220 F   0  0  0  0  0  0  0  0  0  0  0  0
  133.2070  123.6280   64.1330 F   0  0  0  0  0  0  0  0  0  0  0  0
  130.0250  124.6020   62.5170 C   0  0  0  0  0  0  0  0  0  0  0  0
  129.5790  125.9670   62.6550 C   0  0  0  0  0  0  0  0  0  0  0  0
  130.2710  126.9020   63.3810 N   0  0  0  0  0  0  0  0  0  0  0  0
  125.4520  129.5460   62.7720 N   0  0  0  0  0  0  0  0  0  0  0  0
  1  2  1  0
  2  3  2  0
  3  4  1  0
  4  5  2  0
  5  6  1  0
  6  7  1  0
  7  8  1  0
  8  9  2  0
  8 10  1  0
 10 11  1  0
 11 12  1  0
 12 13  2  0
 13 14  1  0
 14 15  1  0
 14 16  2  0
 16 17  1  0
 17 18  1  0
 18 19  1  0
 18 20  1  0
 18 21  1  0
 17 22  2  0
 22 23  1  0
 23 24  1  0
  6 25  2  0
 25  2  1  0
 23 10  2  0
 22 12  1  0
M  END
>  <Binding energies>  (28) 
[-5.73]

>  <Ligand effiencies>  (28) 
[-0.20464285714285715]

>  <Interactions>  (28) 
["V-A:ARG:545:CZ:4924, H-B:ARG:545:NH2:9900, V-A:GLY:454:CA:4046, V-B:ALA:541:CB:9864, V-B:GLY:453:CA:9015, V-B:ILE:369:CD1:8210, V-B:GLY:453:C:9013, V-A:LEU:475:CD2:4256, V-A:GLY:453:C:4039, V-B:TYR:539:CD1:9845, V-B:GLU:543:CD:9880, H-A:GLU:543:OE2:4908, H-B:GLU:543:OE1:9881, H-A:GLU:543:OE1:4907, H-B:GLU:543:OE2:9882, V-A:GLU:543:CD:4906, V-B:GLY:454:CA:9020, V-B:TYR:484:CZ:9318"]

$$$$
4bg_Grossjean_2025
     RDKit          3D

 25 27  0  0  0  0  0  0  0  0999 V2000
  133.0760  121.6130   60.8080 C   0  0  0  0  0  0  0  0  0  0  0  0
  132.5040  122.9570   61.2200 C   0  0  0  0  0  0  0  0  0  0  0  0
  132.1790  123.2210   62.5480 C   0  0  0  0  0  0  0  0  0  0  0  0
  131.6450  124.4670   62.9150 C   0  0  0  0  0  0  0  0  0  0  0  0
  131.3030  124.7120   64.3880 C   0  0  0  0  0  0  0  0  0  0  0  0
  130.2480  125.5140   64.5520 F   0  0  0  0  0  0  0  0  0  0  0  0
  131.0200  123.5530   64.9840 F   0  0  0  0  0  0  0  0  0  0  0  0
  132.3380  125.2830   65.0040 F   0  0  0  0  0  0  0  0  0  0  0  0
  131.4590  125.4280   61.8770 C   0  0  0  0  0  0  0  0  0  0  0  0
  130.9440  126.7750   61.8670 C   0  0  0  0  0  0  0  0  0  0  0  0
  130.4900  127.4050   62.9980 N   0  0  0  0  0  0  0  0  0  0  0  0
  130.9570  127.3830   60.6020 C   0  0  0  0  0  0  0  0  0  0  0  0
  130.4860  128.7160   60.2260 C   0  0  0  0  0  0  0  0  0  0  0  0
  129.4390  128.8730   59.5950 O   0  0  0  0  0  0  0  0  0  0  0  0
  131.2440  129.7500   60.6450 N   0  0  0  0  0  0  0  0  0  0  0  0
  130.9770  131.1630   60.3750 C   0  0  0  0  0  0  0  0  0  0  0  0
  131.3260  131.5890   58.9550 C   0  0  0  0  0  0  0  0  0  0  0  0
  132.6140  131.3730   58.4540 C   0  0  0  0  0  0  0  0  0  0  0  0
  132.9190  131.7280   57.1430 C   0  0  0  0  0  0  0  0  0  0  0  0
  131.9330  132.2850   56.3310 C   0  0  0  0  0  0  0  0  0  0  0  0
  130.6440  132.4870   56.8170 C   0  0  0  0  0  0  0  0  0  0  0  0
  130.3380  132.1330   58.1290 C   0  0  0  0  0  0  0  0  0  0  0  0
  131.5760  126.2870   59.3700 S   0  0  0  0  0  0  0  0  0  0  0  0
  131.8400  125.0320   60.5570 C   0  0  0  0  0  0  0  0  0  0  0  0
  132.3440  123.8470   60.2140 N   0  0  0  0  0  0  0  0  0  0  0  0
  1  2  1  0
  2  3  2  0
  3  4  1  0
  4  5  1  0
  5  6  1  0
  5  7  1  0
  5  8  1  0
  4  9  2  0
  9 10  1  0
 10 11  1  0
 10 12  2  0
 12 13  1  0
 13 14  2  0
 13 15  1  0
 15 16  1  0
 16 17  1  0
 17 18  2  0
 18 19  1  0
 19 20  2  0
 20 21  1  0
 21 22  2  0
 12 23  1  0
 23 24  1  0
 24 25  2  0
 25  2  1  0
 24  9  1  0
 22 17  1  0
M  END
>  <Binding energies>  (29) 
[-5.89]

>  <Ligand effiencies>  (29) 
[-0.21035714285714285]

>  <Interactions>  (29) 
["V-A:PRO:540:CA:4881, V-A:ARG:545:CZ:4924, V-A:TYR:531:CE2:4791, V-A:ILE:538:CB:4860, V-B:TYR:539:CE1:9847, V-A:ILE:369:CG2:3234, V-A:ILE:538:CG2:4861, V-A:PRO:540:CB:4883, V-A:PRO:540:N:4882, V-A:ASP:366:CG:3210, V-A:LEU:363:CD1:3186, V-B:TYR:539:CD1:9845, V-B:GLU:543:CD:9880, H-A:GLU:543:OE2:4908, V-B:GLU:543:CB:9878, V-A:ASP:366:CB:3209, H-B:GLU:543:OE1:9881, H-A:GLU:543:OE1:4907, H-B:GLU:543:OE2:9882, V-A:GLU:543:CD:4906, V-A:TYR:539:C:4865, H-A:ASP:366:OD2:3212, H-A:ASP:366:OD1:3211, V-A:TYR:484:CZ:4344, V-A:TYR:484:CE2:4343"]

$$$$
4ca_Grossjean_2025
     RDKit          3D

 34 37  0  0  0  0  0  0  0  0999 V2000
  126.4910  133.3680   61.5070 C   0  0  0  0  0  0  0  0  0  0  0  0
  124.9910  133.4220   61.2030 C   0  0  0  0  0  0  0  0  0  0  0  0
  124.4760  132.1000   61.1280 O   0  0  0  0  0  0  0  0  0  0  0  0
  124.5040  131.4000   59.9640 C   0  0  0  0  0  0  0  0  0  0  0  0
  123.9480  131.7810   58.9290 O   0  0  0  0  0  0  0  0  0  0  0  0
  125.2820  130.1200   60.0610 C   0  0  0  0  0  0  0  0  0  0  0  0
  125.6600  129.6430   61.3230 C   0  0  0  0  0  0  0  0  0  0  0  0
  126.3780  128.4560   61.4450 C   0  0  0  0  0  0  0  0  0  0  0  0
  126.7380  127.7280   60.3120 C   0  0  0  0  0  0  0  0  0  0  0  0
  127.4540  126.5390   60.5520 N   0  0  0  0  0  0  0  0  0  0  0  0
  127.0200  125.3310   60.9910 C   0  0  0  0  0  0  0  0  0  0  0  0
  125.8410  125.0620   61.2180 O   0  0  0  0  0  0  0  0  0  0  0  0
  128.0640  124.3190   61.1700 C   0  0  0  0  0  0  0  0  0  0  0  0
  127.9370  122.7620   60.3560 S   0  0  0  0  0  0  0  0  0  0  0  0
  129.4690  122.2420   61.0160 C   0  0  0  0  0  0  0  0  0  0  0  0
  129.9720  121.0410   60.7380 N   0  0  0  0  0  0  0  0  0  0  0  0
  131.1750  120.7300   61.2850 C   0  0  0  0  0  0  0  0  0  0  0  0
  131.7210  119.3730   60.9450 C   0  0  0  0  0  0  0  0  0  0  0  0
  133.0910  119.1890   60.6990 C   0  0  0  0  0  0  0  0  0  0  0  0
  133.6010  117.9340   60.3790 C   0  0  0  0  0  0  0  0  0  0  0  0
  132.7460  116.8400   60.2980 C   0  0  0  0  0  0  0  0  0  0  0  0
  131.3840  116.9940   60.5340 C   0  0  0  0  0  0  0  0  0  0  0  0
  130.8770  118.2510   60.8550 C   0  0  0  0  0  0  0  0  0  0  0  0
  131.8570  121.6170   62.1260 C   0  0  0  0  0  0  0  0  0  0  0  0
  131.3330  122.8830   62.4280 C   0  0  0  0  0  0  0  0  0  0  0  0
  132.1340  123.8060   63.3540 C   0  0  0  0  0  0  0  0  0  0  0  0
  132.5000  124.9470   62.7660 F   0  0  0  0  0  0  0  0  0  0  0  0
  131.4000  124.1240   64.4190 F   0  0  0  0  0  0  0  0  0  0  0  0
  133.2470  123.1900   63.7530 F   0  0  0  0  0  0  0  0  0  0  0  0
  130.0790  123.2260   61.8460 C   0  0  0  0  0  0  0  0  0  0  0  0
  129.2530  124.4070   61.9140 C   0  0  0  0  0  0  0  0  0  0  0  0
  129.6020  125.5140   62.6440 N   0  0  0  0  0  0  0  0  0  0  0  0
  126.3590  128.1940   59.0450 C   0  0  0  0  0  0  0  0  0  0  0  0
  125.6390  129.3800   58.9240 C   0  0  0  0  0  0  0  0  0  0  0  0
  1  2  1  0
  2  3  1  0
  3  4  1  0
  4  5  2  0
  4  6  1  0
  6  7  2  0
  7  8  1  0
  8  9  2  0
  9 10  1  0
 10 11  1  0
 11 12  2  0
 11 13  1  0
 13 14  1  0
 14 15  1  0
 15 16  2  0
 16 17  1  0
 17 18  1  0
 18 19  2  0
 19 20  1  0
 20 21  2  0
 21 22  1  0
 22 23  2  0
 17 24  2  0
 24 25  1  0
 25 26  1  0
 26 27  1  0
 26 28  1  0
 26 29  1  0
 25 30  2  0
 30 31  1  0
 31 32  1  0
  9 33  1  0
 33 34  2  0
 34  6  1  0
 31 13  2  0
 30 15  1  0
 23 18  1  0
M  END
>  <Binding energies>  (30) 
[-7.15]

>  <Ligand effiencies>  (30) 
[-0.19324324324324324]

>  <Interactions>  (30) 
["V-A:ARG:545:CZ:4924, H-B:ARG:545:NH2:9900, V-A:GLY:454:CA:4046, V-B:ALA:541:CB:9864, V-B:TYR:539:CE1:9847, V-A:ILE:369:CG2:3234, V-B:ILE:369:CG2:8208, V-A:LEU:475:CD2:4256, V-A:TYR:539:CE1:4873, V-A:GLY:453:C:4039, V-B:PRO:540:CA:9855, V-B:ASP:366:CG:8184, V-B:LEU:475:CD2:9230, V-B:TYR:539:CD1:9845, V-A:TYR:539:CD1:4871, V-B:ASP:366:CB:8183, V-B:PRO:540:N:9856, H-A:TYR:539:OH:4876, V-B:TYR:539:C:9839, V-B:GLU:543:CD:9880, H-B:GLU:543:OE1:9881, H-B:GLU:543:OE2:9882, V-B:PRO:540:C:9853, V-A:PRO:482:CB:4323, V-A:PRO:482:CG:4324, V-A:LEU:373:CD1:3277, V-A:SER:385:CA:3404, V-A:SER:385:CB:3406, V-A:VAL:384:C:3394"]

$$$$
4cb_Grossjean_2025
     RDKit          3D

 33 36  0  0  0  0  0  0  0  0999 V2000
  123.8930  132.2880   61.9950 C   0  0  0  0  0  0  0  0  0  0  0  0
  124.7960  132.2470   60.8990 O   0  0  0  0  0  0  0  0  0  0  0  0
  124.5840  131.4110   59.8500 C   0  0  0  0  0  0  0  0  0  0  0  0
  123.8410  131.6820   58.9020 O   0  0  0  0  0  0  0  0  0  0  0  0
  125.3460  130.1200   59.9570 C   0  0  0  0  0  0  0  0  0  0  0  0
  125.7740  129.6810   61.2170 C   0  0  0  0  0  0  0  0  0  0  0  0
  126.4740  128.4850   61.3490 C   0  0  0  0  0  0  0  0  0  0  0  0
  126.7680  127.7090   60.2280 C   0  0  0  0  0  0  0  0  0  0  0  0
  127.4670  126.5130   60.4790 N   0  0  0  0  0  0  0  0  0  0  0  0
  127.0290  125.3350   60.9850 C   0  0  0  0  0  0  0  0  0  0  0  0
  125.8550  125.1030   61.2800 O   0  0  0  0  0  0  0  0  0  0  0  0
  128.0570  124.3040   61.1520 C   0  0  0  0  0  0  0  0  0  0  0  0
  127.9030  122.7560   60.3250 S   0  0  0  0  0  0  0  0  0  0  0  0
  129.4290  122.2050   60.9750 C   0  0  0  0  0  0  0  0  0  0  0  0
  129.9120  120.9990   60.6880 N   0  0  0  0  0  0  0  0  0  0  0  0
  131.1110  120.6630   61.2320 C   0  0  0  0  0  0  0  0  0  0  0  0
  131.6320  119.2990   60.8860 C   0  0  0  0  0  0  0  0  0  0  0  0
  130.7570  118.2090   60.7500 C   0  0  0  0  0  0  0  0  0  0  0  0
  131.2350  116.9400   60.4330 C   0  0  0  0  0  0  0  0  0  0  0  0
  132.5990  116.7430   60.2450 C   0  0  0  0  0  0  0  0  0  0  0  0
  133.4880  117.8050   60.3760 C   0  0  0  0  0  0  0  0  0  0  0  0
  133.0060  119.0710   60.6950 C   0  0  0  0  0  0  0  0  0  0  0  0
  131.8070  121.5330   62.0790 C   0  0  0  0  0  0  0  0  0  0  0  0
  131.3040  122.8050   62.3910 C   0  0  0  0  0  0  0  0  0  0  0  0
  132.1200  123.7080   63.3250 C   0  0  0  0  0  0  0  0  0  0  0  0
  133.2370  123.1280   63.7690 F   0  0  0  0  0  0  0  0  0  0  0  0
  132.4770  124.8180   62.6790 F   0  0  0  0  0  0  0  0  0  0  0  0
  131.3890  124.0350   64.3900 F   0  0  0  0  0  0  0  0  0  0  0  0
  130.0560  123.1740   61.8130 C   0  0  0  0  0  0  0  0  0  0  0  0
  129.2500  124.3680   61.8910 C   0  0  0  0  0  0  0  0  0  0  0  0
  129.6210  125.4650   62.6260 N   0  0  0  0  0  0  0  0  0  0  0  0
  126.3400  128.1400   58.9630 C   0  0  0  0  0  0  0  0  0  0  0  0
  125.6380  129.3350   58.8320 C   0  0  0  0  0  0  0  0  0  0  0  0
  1  2  1  0
  2  3  1  0
  3  4  2  0
  3  5  1  0
  5  6  2  0
  6  7  1  0
  7  8  2  0
  8  9  1  0
  9 10  1  0
 10 11  2  0
 10 12  1  0
 12 13  1  0
 13 14  1  0
 14 15  2  0
 15 16  1  0
 16 17  1  0
 17 18  2  0
 18 19  1  0
 19 20  2  0
 20 21  1  0
 21 22  2  0
 16 23  2  0
 23 24  1  0
 24 25  1  0
 25 26  1  0
 25 27  1  0
 25 28  1  0
 24 29  2  0
 29 30  1  0
 30 31  1  0
  8 32  1  0
 32 33  2  0
 33  5  1  0
 30 12  2  0
 29 14  1  0
 22 17  1  0
M  END
>  <Binding energies>  (31) 
[-7.14]

>  <Ligand effiencies>  (31) 
[-0.19833333333333333]

>  <Interactions>  (31) 
["H-B:ARG:545:NH2:9900, V-A:GLY:454:CA:4046, V-B:ALA:541:CB:9864, V-B:TYR:539:CE1:9847, V-B:ILE:369:CG2:8208, V-B:ILE:369:CD1:8210, V-A:LEU:475:CD2:4256, V-A:TYR:539:CE1:4873, V-B:PRO:540:CA:9855, V-B:ASP:366:CG:8184, V-B:TYR:539:CD1:9845, V-B:ASP:366:CB:8183, V-B:PRO:540:N:9856, H-A:TYR:539:OH:4876, V-B:TYR:539:C:9839, V-B:GLU:543:CD:9880, H-B:GLU:543:OE1:9881, H-B:GLU:543:OE2:9882, V-A:TYR:539:CZ:4875, V-B:PRO:540:C:9853, V-A:PRO:482:CB:4323, V-A:PRO:482:CG:4324, V-B:TYR:539:CB:9843, V-A:LEU:373:CD1:3277, V-A:SER:385:CA:3404, V-A:SER:385:CB:3406, V-A:VAL:384:C:3394"]

$$$$
4cc_Grossjean_2025
     RDKit          3D

 31 34  0  0  0  0  0  0  0  0999 V2000
  123.9840  133.3400   62.2910 C   0  0  0  0  0  0  0  0  0  0  0  0
  123.9700  132.4220   63.3790 O   0  0  0  0  0  0  0  0  0  0  0  0
  124.8230  131.3360   63.3570 C   0  0  0  0  0  0  0  0  0  0  0  0
  124.8850  130.6180   62.1630 C   0  0  0  0  0  0  0  0  0  0  0  0
  125.7180  129.5090   62.0440 C   0  0  0  0  0  0  0  0  0  0  0  0
  126.4950  129.0950   63.1280 C   0  0  0  0  0  0  0  0  0  0  0  0
  127.3170  127.9740   62.9090 N   0  0  0  0  0  0  0  0  0  0  0  0
  127.6330  127.3560   61.7450 C   0  0  0  0  0  0  0  0  0  0  0  0
  127.2510  127.7380   60.6380 O   0  0  0  0  0  0  0  0  0  0  0  0
  128.4860  126.1700   61.8730 C   0  0  0  0  0  0  0  0  0  0  0  0
  128.2010  124.7590   60.8560 S   0  0  0  0  0  0  0  0  0  0  0  0
  129.5400  123.9060   61.5880 C   0  0  0  0  0  0  0  0  0  0  0  0
  129.8670  122.6730   61.2110 N   0  0  0  0  0  0  0  0  0  0  0  0
  130.9290  122.0950   61.8300 C   0  0  0  0  0  0  0  0  0  0  0  0
  131.2730  120.7030   61.3860 C   0  0  0  0  0  0  0  0  0  0  0  0
  130.3400  119.6600   61.5040 C   0  0  0  0  0  0  0  0  0  0  0  0
  130.6520  118.3660   61.0960 C   0  0  0  0  0  0  0  0  0  0  0  0
  131.9080  118.0950   60.5630 C   0  0  0  0  0  0  0  0  0  0  0  0
  132.8520  119.1080   60.4380 C   0  0  0  0  0  0  0  0  0  0  0  0
  132.5360  120.4010   60.8480 C   0  0  0  0  0  0  0  0  0  0  0  0
  131.6450  122.7510   62.8360 C   0  0  0  0  0  0  0  0  0  0  0  0
  131.3070  124.0520   63.2430 C   0  0  0  0  0  0  0  0  0  0  0  0
  132.1380  124.7140   64.3480 C   0  0  0  0  0  0  0  0  0  0  0  0
  132.4900  125.9690   64.0590 F   0  0  0  0  0  0  0  0  0  0  0  0
  131.4380  124.7470   65.4810 F   0  0  0  0  0  0  0  0  0  0  0  0
  133.2590  124.0210   64.5450 F   0  0  0  0  0  0  0  0  0  0  0  0
  130.2010  124.6710   62.5940 C   0  0  0  0  0  0  0  0  0  0  0  0
  129.5720  125.9610   62.7380 C   0  0  0  0  0  0  0  0  0  0  0  0
  130.0040  126.9000   63.6410 N   0  0  0  0  0  0  0  0  0  0  0  0
  126.4470  129.8190   64.3280 C   0  0  0  0  0  0  0  0  0  0  0  0
  125.6140  130.9280   64.4420 C   0  0  0  0  0  0  0  0  0  0  0  0
  1  2  1  0
  2  3  1  0
  3  4  2  0
  4  5  1  0
  5  6  2  0
  6  7  1  0
  7  8  1  0
  8  9  2  0
  8 10  1  0
 10 11  1  0
 11 12  1  0
 12 13  2  0
 13 14  1  0
 14 15  1  0
 15 16  2  0
 16 17  1  0
 17 18  2  0
 18 19  1  0
 19 20  2  0
 14 21  2  0
 21 22  1  0
 22 23  1  0
 23 24  1  0
 23 25  1  0
 23 26  1  0
 22 27  2  0
 27 28  1  0
 28 29  1  0
  6 30  1  0
 30 31  2  0
 31  3  1  0
 28 10  2  0
 27 12  1  0
 20 15  1  0
M  END
>  <Binding energies>  (32) 
[-7.49]

>  <Ligand effiencies>  (32) 
[-0.22029411764705883]

>  <Interactions>  (32) 
["V-A:ARG:545:CZ:4924, V-A:GLY:454:CA:4046, V-B:ALA:541:CB:9864, V-B:TYR:539:CE1:9847, V-A:ILE:369:CG2:3234, V-B:ILE:369:CG2:8208, V-B:ARG:545:CZ:9898, V-B:ILE:369:CD1:8210, V-A:LEU:475:CD2:4256, V-A:GLY:453:C:4039, V-B:ASP:366:CG:8184, V-B:LEU:475:CD2:9230, V-B:TYR:539:CD1:9845, H-B:GLY:454:N:9021, V-B:GLU:543:CD:9880, H-A:GLU:543:OE2:4908, H-B:GLU:543:OE1:9881, H-A:GLU:543:OE1:4907, H-B:GLU:543:OE2:9882, V-A:GLU:543:CD:4906, V-B:GLY:454:CA:9020, V-A:PRO:482:CB:4323, V-A:TYR:484:CZ:4344, V-A:PRO:482:CG:4324, V-A:LEU:373:CD1:3277, V-A:SER:385:CA:3404"]

$$$$
4ce_Grossjean_2025
     RDKit          3D

 30 33  0  0  0  0  0  0  0  0999 V2000
  123.9660  131.0160   61.4370 C   0  0  0  0  0  0  0  0  0  0  0  0
  124.9240  130.5630   62.5230 C   0  0  0  0  0  0  0  0  0  0  0  0
  125.0080  131.2310   63.7470 C   0  0  0  0  0  0  0  0  0  0  0  0
  125.9060  130.7540   64.7030 C   0  0  0  0  0  0  0  0  0  0  0  0
  126.6870  129.6330   64.4170 C   0  0  0  0  0  0  0  0  0  0  0  0
  126.5560  129.0140   63.1680 C   0  0  0  0  0  0  0  0  0  0  0  0
  127.3520  127.8750   62.9480 N   0  0  0  0  0  0  0  0  0  0  0  0
  127.5950  127.2220   61.7850 C   0  0  0  0  0  0  0  0  0  0  0  0
  127.1380  127.5700   60.6950 O   0  0  0  0  0  0  0  0  0  0  0  0
  128.4600  126.0440   61.8930 C   0  0  0  0  0  0  0  0  0  0  0  0
  128.0850  124.5820   60.9850 S   0  0  0  0  0  0  0  0  0  0  0  0
  129.5090  123.7800   61.6020 C   0  0  0  0  0  0  0  0  0  0  0  0
  129.8120  122.5340   61.2470 N   0  0  0  0  0  0  0  0  0  0  0  0
  130.9480  121.9990   61.7670 C   0  0  0  0  0  0  0  0  0  0  0  0
  131.2640  120.5950   61.3430 C   0  0  0  0  0  0  0  0  0  0  0  0
  132.5130  120.2790   60.7830 C   0  0  0  0  0  0  0  0  0  0  0  0
  132.8100  118.9800   60.3800 C   0  0  0  0  0  0  0  0  0  0  0  0
  131.8620  117.9750   60.5350 C   0  0  0  0  0  0  0  0  0  0  0  0
  130.6170  118.2610   61.0860 C   0  0  0  0  0  0  0  0  0  0  0  0
  130.3220  119.5620   61.4850 C   0  0  0  0  0  0  0  0  0  0  0  0
  131.7610  122.7090   62.6560 C   0  0  0  0  0  0  0  0  0  0  0  0
  131.4480  124.0230   63.0410 C   0  0  0  0  0  0  0  0  0  0  0  0
  132.3830  124.7440   64.0170 C   0  0  0  0  0  0  0  0  0  0  0  0
  133.0990  125.7100   63.4390 F   0  0  0  0  0  0  0  0  0  0  0  0
  131.6690  125.3060   64.9940 F   0  0  0  0  0  0  0  0  0  0  0  0
  133.2410  123.8720   64.5470 F   0  0  0  0  0  0  0  0  0  0  0  0
  130.2670  124.5990   62.4900 C   0  0  0  0  0  0  0  0  0  0  0  0
  129.6410  125.8900   62.6390 C   0  0  0  0  0  0  0  0  0  0  0  0
  130.1580  126.8770   63.4380 N   0  0  0  0  0  0  0  0  0  0  0  0
  125.6770  129.4720   62.2290 N   0  0  0  0  0  0  0  0  0  0  0  0
  1  2  1  0
  2  3  2  0
  3  4  1  0
  4  5  2  0
  5  6  1  0
  6  7  1  0
  7  8  1  0
  8  9  2  0
  8 10  1  0
 10 11  1  0
 11 12  1  0
 12 13  2  0
 13 14  1  0
 14 15  1  0
 15 16  2  0
 16 17  1  0
 17 18  2  0
 18 19  1  0
 19 20  2  0
 14 21  2  0
 21 22  1  0
 22 23  1  0
 23 24  1  0
 23 25  1  0
 23 26  1  0
 22 27  2  0
 27 28  1  0
 28 29  1  0
  6 30  2  0
 30  2  1  0
 28 10  2  0
 27 12  1  0
 20 15  1  0
M  END
>  <Binding energies>  (33) 
[-7.7]

>  <Ligand effiencies>  (33) 
[-0.23333333333333334]

>  <Interactions>  (33) 
["V-A:ARG:545:CZ:4924, H-B:ARG:545:NH2:9900, V-A:GLY:454:CA:4046, V-B:ALA:541:CB:9864, V-B:TYR:539:CE1:9847, V-A:ILE:369:CG2:3234, V-B:ARG:545:CZ:9898, V-B:ILE:369:CD1:8210, V-A:LEU:475:CD2:4256, V-A:GLY:453:C:4039, V-B:TYR:539:CD1:9845, V-B:GLU:543:CD:9880, H-A:GLU:543:OE2:4908, H-B:GLU:543:OE1:9881, H-A:GLU:543:OE1:4907, H-B:GLU:543:OE2:9882, V-A:GLU:543:CD:4906, V-B:GLY:454:CA:9020, V-A:PRO:482:CB:4323, V-A:TYR:484:CZ:4344, V-A:PRO:482:CG:4324, V-A:LEU:373:CD1:3277, V-A:SER:385:CA:3404"]

$$$$
4cf_Grossjean_2025
     RDKit          3D

 29 32  0  0  0  0  0  0  0  0999 V2000
  129.9620  126.8910   63.6830 N   0  0  0  0  0  0  0  0  0  0  0  0
  129.5070  125.9440   62.8010 C   0  0  0  0  0  0  0  0  0  0  0  0
  128.3760  126.1280   61.9890 C   0  0  0  0  0  0  0  0  0  0  0  0
  127.4690  127.2780   61.9330 C   0  0  0  0  0  0  0  0  0  0  0  0
  126.8690  127.5530   60.8930 O   0  0  0  0  0  0  0  0  0  0  0  0
  127.3460  127.9770   63.0870 N   0  0  0  0  0  0  0  0  0  0  0  0
  126.6070  129.1450   63.3550 C   0  0  0  0  0  0  0  0  0  0  0  0
  126.6450  130.3290   62.5930 C   0  0  0  0  0  0  0  0  0  0  0  0
  125.8700  131.4240   62.9800 C   0  0  0  0  0  0  0  0  0  0  0  0
  125.0740  131.3110   64.1200 C   0  0  0  0  0  0  0  0  0  0  0  0
  125.0240  130.1840   64.8760 N   0  0  0  0  0  0  0  0  0  0  0  0
  125.7850  129.1280   64.4880 C   0  0  0  0  0  0  0  0  0  0  0  0
  128.0830  124.7160   60.9770 S   0  0  0  0  0  0  0  0  0  0  0  0
  129.4680  123.8890   61.6510 C   0  0  0  0  0  0  0  0  0  0  0  0
  129.8020  122.6600   61.2610 N   0  0  0  0  0  0  0  0  0  0  0  0
  130.8840  122.0940   61.8560 C   0  0  0  0  0  0  0  0  0  0  0  0
  131.2320  120.7060   61.4020 C   0  0  0  0  0  0  0  0  0  0  0  0
  132.5000  120.4210   60.8720 C   0  0  0  0  0  0  0  0  0  0  0  0
  132.8320  119.1360   60.4490 C   0  0  0  0  0  0  0  0  0  0  0  0
  131.8950  118.1140   60.5540 C   0  0  0  0  0  0  0  0  0  0  0  0
  130.6310  118.3670   61.0780 C   0  0  0  0  0  0  0  0  0  0  0  0
  130.3050  119.6530   61.5000 C   0  0  0  0  0  0  0  0  0  0  0  0
  131.6390  122.7710   62.8190 C   0  0  0  0  0  0  0  0  0  0  0  0
  131.2980  124.0680   63.2330 C   0  0  0  0  0  0  0  0  0  0  0  0
  132.1660  124.7500   64.2970 C   0  0  0  0  0  0  0  0  0  0  0  0
  131.5180  124.9620   65.4450 F   0  0  0  0  0  0  0  0  0  0  0  0
  133.2240  123.9880   64.5710 F   0  0  0  0  0  0  0  0  0  0  0  0
  132.5800  125.9350   63.8490 F   0  0  0  0  0  0  0  0  0  0  0  0
  130.1540  124.6660   62.6300 C   0  0  0  0  0  0  0  0  0  0  0  0
  1  2  1  0
  2  3  2  0
  3  4  1  0
  4  5  2  0
  4  6  1  0
  6  7  1  0
  7  8  2  0
  8  9  1  0
  9 10  2  0
 10 11  1  0
 11 12  2  0
  3 13  1  0
 13 14  1  0
 14 15  2  0
 15 16  1  0
 16 17  1  0
 17 18  2  0
 18 19  1  0
 19 20  2  0
 20 21  1  0
 21 22  2  0
 16 23  2  0
 23 24  1  0
 24 25  1  0
 25 26  1  0
 25 27  1  0
 25 28  1  0
 24 29  2  0
 29  2  1  0
 12  7  1  0
 29 14  1  0
 22 17  1  0
M  END
>  <Binding energies>  (34) 
[-7.51]

>  <Ligand effiencies>  (34) 
[-0.2346875]

>  <Interactions>  (34) 
["V-A:ARG:545:CZ:4924, H-B:ARG:545:NH2:9900, V-A:GLY:454:CA:4046, V-B:ALA:541:CB:9864, V-B:TYR:539:CE1:9847, V-A:ILE:369:CG2:3234, V-B:ARG:545:CZ:9898, V-A:LEU:475:CD2:4256, V-A:GLY:453:C:4039, H-B:TYR:484:OH:9319, V-B:TYR:539:CD1:9845, H-B:GLY:454:N:9021, V-B:GLU:543:CD:9880, H-A:GLU:543:OE2:4908, H-B:GLU:543:OE1:9881, H-A:GLU:543:OE1:4907, H-B:GLU:543:OE2:9882, V-A:GLU:543:CD:4906, V-B:GLY:454:CA:9020, V-A:PRO:482:CB:4323, V-A:TYR:484:CZ:4344, V-A:PRO:482:CG:4324, V-A:LEU:373:CD1:3277, V-A:SER:385:CA:3404"]

$$$$
4ci_Grossjean_2025
     RDKit          3D

 28 31  0  0  0  0  0  0  0  0999 V2000
  132.4400  125.8470   62.1610 N   0  0  0  0  0  0  0  0  0  0  0  0
  131.8750  124.6720   62.5850 C   0  0  0  0  0  0  0  0  0  0  0  0
  131.0360  124.5820   63.7080 C   0  0  0  0  0  0  0  0  0  0  0  0
  130.5980  125.6530   64.6080 C   0  0  0  0  0  0  0  0  0  0  0  0
  129.8450  126.5430   64.2060 O   0  0  0  0  0  0  0  0  0  0  0  0
  131.0850  125.5890   65.8720 N   0  0  0  0  0  0  0  0  0  0  0  0
  130.8380  126.4670   66.9190 C   0  0  0  0  0  0  0  0  0  0  0  0
  129.5880  126.6020   67.5230 C   0  0  0  0  0  0  0  0  0  0  0  0
  129.7620  127.5560   68.4970 C   0  0  0  0  0  0  0  0  0  0  0  0
  131.0510  127.9750   68.4830 O   0  0  0  0  0  0  0  0  0  0  0  0
  131.7220  127.2770   67.4780 N   0  0  0  0  0  0  0  0  0  0  0  0
  130.4800  122.9290   63.9570 S   0  0  0  0  0  0  0  0  0  0  0  0
  131.3790  122.3690   62.5660 C   0  0  0  0  0  0  0  0  0  0  0  0
  131.3640  121.0910   62.1970 N   0  0  0  0  0  0  0  0  0  0  0  0
  132.0900  120.7500   61.1010 C   0  0  0  0  0  0  0  0  0  0  0  0
  132.0570  119.3000   60.7120 C   0  0  0  0  0  0  0  0  0  0  0  0
  130.8430  118.5960   60.6570 C   0  0  0  0  0  0  0  0  0  0  0  0
  130.8050  117.2520   60.2960 C   0  0  0  0  0  0  0  0  0  0  0  0
  131.9880  116.5880   59.9860 C   0  0  0  0  0  0  0  0  0  0  0  0
  133.2050  117.2580   60.0370 C   0  0  0  0  0  0  0  0  0  0  0  0
  133.2370  118.6020   60.4000 C   0  0  0  0  0  0  0  0  0  0  0  0
  132.8420  121.6930   60.3920 C   0  0  0  0  0  0  0  0  0  0  0  0
  132.8650  123.0450   60.7730 C   0  0  0  0  0  0  0  0  0  0  0  0
  133.7100  124.0240   59.9500 C   0  0  0  0  0  0  0  0  0  0  0  0
  134.7810  124.4730   60.6080 F   0  0  0  0  0  0  0  0  0  0  0  0
  134.1460  123.4220   58.8440 F   0  0  0  0  0  0  0  0  0  0  0  0
  132.9740  125.0840   59.6140 F   0  0  0  0  0  0  0  0  0  0  0  0
  132.0960  123.4140   61.9130 C   0  0  0  0  0  0  0  0  0  0  0  0
  1  2  1  0
  2  3  2  0
  3  4  1  0
  4  5  2  0
  4  6  1  0
  6  7  1  0
  7  8  1  0
  8  9  2  0
  9 10  1  0
 10 11  1  0
  3 12  1  0
 12 13  1  0
 13 14  2  0
 14 15  1  0
 15 16  1  0
 16 17  2  0
 17 18  1  0
 18 19  2  0
 19 20  1  0
 20 21  2  0
 15 22  2  0
 22 23  1  0
 23 24  1  0
 24 25  1  0
 24 26  1  0
 24 27  1  0
 23 28  2  0
 28  2  1  0
 11  7  2  0
 28 13  1  0
 21 16  1  0
M  END
>  <Binding energies>  (35) 
[-7.1]

>  <Ligand effiencies>  (35) 
[-0.22903225806451613]

>  <Interactions>  (35) 
["V-A:ARG:545:CZ:4924, H-A:ARG:545:NE:4922, V-B:ALA:541:CB:9864, V-B:TYR:539:CE1:9847, V-A:ILE:369:CG2:3234, V-A:ILE:369:CD1:3236, H-A:TYR:484:OH:4345, V-A:ASP:366:CG:3210, V-A:LEU:475:CD2:4256, V-B:TYR:539:CD1:9845, V-B:TYR:539:CG:9844, V-B:GLU:543:CD:9880, V-B:GLU:543:CG:9879, H-A:GLU:543:OE2:4908, V-B:GLU:543:CB:9878, V-A:HIS:456:CE1:4066, V-A:ASP:366:CA:3207, V-A:ASP:366:CB:3209, V-B:TYR:539:CZ:9849, V-A:GLU:543:CD:4906, V-A:GLU:543:CG:4905, H-A:ASP:366:OD2:3212, V-A:ILE:369:CB:3233, H-A:ASP:366:OD1:3211, V-A:PRO:482:CB:4323, V-A:PRO:482:CG:4324, V-B:TYR:539:CB:9843, V-A:ILE:369:CG1:3235, V-A:LEU:373:CD1:3277, V-A:SER:385:CA:3404, V-A:SER:385:CB:3406, V-B:VAL:344:CG1:7972, V-A:VAL:384:C:3394"]

$$$$
8a_Ghoteimi_2023
     RDKit          3D

 40 44  0  0  0  0  0  0  0  0999 V2000
  131.8270  126.7860   74.2070 C   0  0  0  0  0  0  0  0  0  0  0  0
  130.3430  126.4780   73.9840 C   0  0  0  0  0  0  0  0  0  0  0  0
  129.5640  127.6040   74.3670 O   0  0  0  0  0  0  0  0  0  0  0  0
  128.9820  128.4030   73.4350 C   0  0  0  0  0  0  0  0  0  0  0  0
  128.4150  129.4650   73.7090 O   0  0  0  0  0  0  0  0  0  0  0  0
  129.0940  127.8640   72.0380 C   0  0  0  0  0  0  0  0  0  0  0  0
  130.3490  127.8230   71.4190 C   0  0  0  0  0  0  0  0  0  0  0  0
  130.4850  127.3300   70.1250 C   0  0  0  0  0  0  0  0  0  0  0  0
  129.3710  126.8690   69.4210 C   0  0  0  0  0  0  0  0  0  0  0  0
  129.6280  126.3980   68.1180 N   0  0  0  0  0  0  0  0  0  0  0  0
  129.5060  127.0220   66.9200 C   0  0  0  0  0  0  0  0  0  0  0  0
  129.1220  128.1820   66.7790 O   0  0  0  0  0  0  0  0  0  0  0  0
  129.8780  126.2130   65.7550 C   0  0  0  0  0  0  0  0  0  0  0  0
  130.6960  124.6660   65.9680 S   0  0  0  0  0  0  0  0  0  0  0  0
  130.7690  124.4130   64.2400 C   0  0  0  0  0  0  0  0  0  0  0  0
  131.3450  123.3320   63.7140 N   0  0  0  0  0  0  0  0  0  0  0  0
  131.3530  123.2360   62.3580 C   0  0  0  0  0  0  0  0  0  0  0  0
  132.0220  122.0260   61.7890 C   0  0  0  0  0  0  0  0  0  0  0  0
  131.2720  120.9390   61.3170 C   0  0  0  0  0  0  0  0  0  0  0  0
  131.9000  119.8100   60.7990 C   0  0  0  0  0  0  0  0  0  0  0  0
  133.2900  119.7390   60.7380 C   0  0  0  0  0  0  0  0  0  0  0  0
  133.8270  118.5790   60.2110 O   0  0  0  0  0  0  0  0  0  0  0  0
  133.0860  117.3680   60.3050 C   0  0  0  0  0  0  0  0  0  0  0  0
  134.0500  120.8220   61.2020 C   0  0  0  0  0  0  0  0  0  0  0  0
  133.4180  121.9500   61.7220 C   0  0  0  0  0  0  0  0  0  0  0  0
  130.7820  124.2110   61.5370 C   0  0  0  0  0  0  0  0  0  0  0  0
  130.1620  125.3390   62.0850 C   0  0  0  0  0  0  0  0  0  0  0  0
  129.5430  126.3300   61.1680 C   0  0  0  0  0  0  0  0  0  0  0  0
  128.1690  126.2970   60.9230 C   0  0  0  0  0  0  0  0  0  0  0  0
  127.5810  127.2360   60.0800 C   0  0  0  0  0  0  0  0  0  0  0  0
  128.3540  128.2260   59.4730 C   0  0  0  0  0  0  0  0  0  0  0  0
  127.6850  129.1150   58.6530 O   0  0  0  0  0  0  0  0  0  0  0  0
  128.2630  130.3880   58.3920 C   0  0  0  0  0  0  0  0  0  0  0  0
  129.7340  128.2660   59.7240 C   0  0  0  0  0  0  0  0  0  0  0  0
  130.3190  127.3260   60.5690 C   0  0  0  0  0  0  0  0  0  0  0  0
  130.1620  125.4720   63.5030 C   0  0  0  0  0  0  0  0  0  0  0  0
  129.6770  126.4970   64.3950 C   0  0  0  0  0  0  0  0  0  0  0  0
  129.0890  127.6510   63.9410 N   0  0  0  0  0  0  0  0  0  0  0  0
  128.1100  126.9020   70.0350 C   0  0  0  0  0  0  0  0  0  0  0  0
  127.9760  127.3960   71.3300 C   0  0  0  0  0  0  0  0  0  0  0  0
  1  2  1  0
  2  3  1  0
  3  4  1  0
  4  5  2  0
  4  6  1  0
  6  7  2  0
  7  8  1  0
  8  9  2  0
  9 10  1  0
 10 11  1  0
 11 12  2  0
 11 13  1  0
 13 14  1  0
 14 15  1  0
 15 16  2  0
 16 17  1  0
 17 18  1  0
 18 19  2  0
 19 20  1  0
 20 21  2  0
 21 22  1  0
 22 23  1  0
 21 24  1  0
 24 25  2  0
 17 26  2  0
 26 27  1  0
 27 28  1  0
 28 29  2  0
 29 30  1  0
 30 31  2  0
 31 32  1  0
 32 33  1  0
 31 34  1  0
 34 35  2  0
 27 36  2  0
 36 37  1  0
 37 38  1  0
  9 39  1  0
 39 40  2  0
 40  6  1  0
 37 13  2  0
 36 15  1  0
 25 18  1  0
 35 28  1  0
M  END
>  <Binding energies>  (36) 
[-4.83]

>  <Ligand effiencies>  (36) 
[-0.11232558139534884]

>  <Interactions>  (36) 
["V-B:TYR:539:CE1:9847, V-A:ILE:369:CG2:3234, V-A:ILE:369:CD1:3236, H-A:TYR:484:OH:4345, V-A:LEU:475:CD2:4256, V-B:TYR:539:CD1:9845, V-B:GLU:543:CD:9880, V-B:GLU:543:CG:9879, H-A:GLU:543:OE2:4908, V-B:GLU:543:CB:9878, V-A:HIS:456:CE1:4066, H-B:GLU:543:OE1:9881, H-A:GLU:543:OE1:4907, H-B:GLU:543:OE2:9882, V-B:HIS:456:CE1:9040, V-A:GLU:543:CD:4906, V-A:GLU:543:CG:4905, V-B:GLU:543:C:9874, V-B:GLY:544:CA:9886, V-B:HIS:456:CD2:9039, V-A:GLU:543:C:4900, V-A:LYS:547:CE:4948, V-A:GLY:544:C:4910, V-B:GLY:544:C:9884, V-A:HIS:456:CD2:4065, H-A:LYS:547:NZ:4949, H-B:LYS:547:NZ:9923, V-A:GLY:544:CA:4912, H-B:HIS:456:NE2:9041, V-A:TYR:484:CZ:4344, V-A:TYR:484:CE2:4343, V-A:LEU:373:CD1:3277, V-A:SER:385:CA:3404, V-A:SER:385:CB:3406, V-A:SER:385:C:3402, H-B:GLU:543:O:9875, V-A:LYS:547:CD:4947"]

$$$$
8c_Ghoteimi_2023
     RDKit          3D

 34 38  0  0  0  0  0  0  0  0999 V2000
  132.3110  116.3900   59.5960 C   0  0  0  0  0  0  0  0  0  0  0  0
  133.0620  117.2100   60.4840 O   0  0  0  0  0  0  0  0  0  0  0  0
  132.6800  118.5240   60.6750 C   0  0  0  0  0  0  0  0  0  0  0  0
  133.6800  119.4870   60.5610 C   0  0  0  0  0  0  0  0  0  0  0  0
  133.3870  120.8360   60.7400 C   0  0  0  0  0  0  0  0  0  0  0  0
  132.0830  121.2570   61.0380 C   0  0  0  0  0  0  0  0  0  0  0  0
  131.7620  122.7050   61.2350 C   0  0  0  0  0  0  0  0  0  0  0  0
  131.7630  123.2940   62.5030 C   0  0  0  0  0  0  0  0  0  0  0  0
  131.4610  124.6510   62.6600 C   0  0  0  0  0  0  0  0  0  0  0  0
  131.4620  125.2420   64.0170 C   0  0  0  0  0  0  0  0  0  0  0  0
  130.2560  125.5490   64.6520 C   0  0  0  0  0  0  0  0  0  0  0  0
  130.2580  126.0950   65.9310 C   0  0  0  0  0  0  0  0  0  0  0  0
  131.4600  126.3470   66.5940 C   0  0  0  0  0  0  0  0  0  0  0  0
  131.3660  126.8880   67.8610 O   0  0  0  0  0  0  0  0  0  0  0  0
  130.1020  127.3460   68.3280 C   0  0  0  0  0  0  0  0  0  0  0  0
  132.6720  126.0420   65.9530 C   0  0  0  0  0  0  0  0  0  0  0  0
  132.6690  125.4940   64.6730 C   0  0  0  0  0  0  0  0  0  0  0  0
  131.1630  125.4080   61.4950 C   0  0  0  0  0  0  0  0  0  0  0  0
  130.8210  126.7910   61.2910 C   0  0  0  0  0  0  0  0  0  0  0  0
  130.7250  127.6850   62.3280 N   0  0  0  0  0  0  0  0  0  0  0  0
  130.6000  127.1300   59.9470 C   0  0  0  0  0  0  0  0  0  0  0  0
  130.2420  128.4330   59.3820 C   0  0  0  0  0  0  0  0  0  0  0  0
  129.1460  128.9440   59.6210 O   0  0  0  0  0  0  0  0  0  0  0  0
  131.1890  129.0060   58.5990 N   0  0  0  0  0  0  0  0  0  0  0  0
  131.1060  130.2300   57.9500 C   0  0  0  0  0  0  0  0  0  0  0  0
  130.0260  130.8400   57.5100 N   0  0  0  0  0  0  0  0  0  0  0  0
  130.3180  131.9930   56.9430 C   0  0  0  0  0  0  0  0  0  0  0  0
  131.6640  132.3420   56.9130 C   0  0  0  0  0  0  0  0  0  0  0  0
  132.5910  131.0810   57.6710 S   0  0  0  0  0  0  0  0  0  0  0  0
  130.8160  125.7320   58.8930 S   0  0  0  0  0  0  0  0  0  0  0  0
  131.1970  124.7050   60.2560 C   0  0  0  0  0  0  0  0  0  0  0  0
  131.4820  123.4110   60.1060 N   0  0  0  0  0  0  0  0  0  0  0  0
  131.0820  120.2830   61.1490 C   0  0  0  0  0  0  0  0  0  0  0  0
  131.3720  118.9330   60.9710 C   0  0  0  0  0  0  0  0  0  0  0  0
  1  2  1  0
  2  3  1  0
  3  4  2  0
  4  5  1  0
  5  6  2  0
  6  7  1  0
  7  8  2  0
  8  9  1  0
  9 10  1  0
 10 11  2  0
 11 12  1  0
 12 13  2  0
 13 14  1  0
 14 15  1  0
 13 16  1  0
 16 17  2  0
  9 18  2  0
 18 19  1  0
 19 20  1  0
 19 21  2  0
 21 22  1  0
 22 23  2  0
 22 24  1  0
 24 25  1  0
 25 26  2  0
 26 27  1  0
 27 28  2  0
 28 29  1  0
 21 30  1  0
 30 31  1  0
 31 32  2  0
  6 33  1  0
 33 34  2  0
 34  3  1  0
 32  7  1  0
 17 10  1  0
 31 18  1  0
 29 25  1  0
M  END
>  <Binding energies>  (37) 
[-6.79]

>  <Ligand effiencies>  (37) 
[-0.18351351351351353]

>  <Interactions>  (37) 
["V-A:ARG:545:CZ:4924, V-B:TYR:539:CE1:9847, V-A:ILE:369:CG2:3234, V-A:PRO:540:CD:4885, V-A:PRO:540:N:4882, V-A:ASP:366:CG:3210, V-A:LEU:475:CD2:4256, V-B:TYR:539:CD1:9845, V-B:GLU:543:CD:9880, V-B:GLU:543:CG:9879, H-A:GLU:543:OE2:4908, V-B:GLU:543:CB:9878, V-A:HIS:456:CE1:4066, H-A:GLU:543:OE1:4907, V-A:GLU:543:CD:4906, V-A:GLU:543:CG:4905, H-A:HIS:456:NE2:4067, H-A:TYR:531:OH:4793, H-A:ASP:366:OD2:3212, H-A:ASP:366:OD1:3211, V-A:ARG:545:CG:4920, V-A:ARG:545:CD:4921, V-A:LEU:373:CD1:3277, V-A:SER:385:CA:3404, V-A:SER:385:CB:3406, V-A:SER:385:C:3402"]

$$$$
8d_Ghoteimi_2023
     RDKit          3D

 30 33  0  0  0  0  0  0  0  0999 V2000
  123.8880  123.5240   57.9140 C   0  0  0  0  0  0  0  0  0  0  0  0
  124.8020  123.4980   56.8260 O   0  0  0  0  0  0  0  0  0  0  0  0
  126.0440  122.9690   56.9730 C   0  0  0  0  0  0  0  0  0  0  0  0
  126.4670  122.0090   56.3240 O   0  0  0  0  0  0  0  0  0  0  0  0
  126.8490  123.6650   58.0000 C   0  0  0  0  0  0  0  0  0  0  0  0
  128.1480  122.8070   58.8320 S   0  0  0  0  0  0  0  0  0  0  0  0
  128.5320  124.2260   59.7790 C   0  0  0  0  0  0  0  0  0  0  0  0
  129.5140  124.2260   60.6800 N   0  0  0  0  0  0  0  0  0  0  0  0
  129.7310  125.3840   61.3610 C   0  0  0  0  0  0  0  0  0  0  0  0
  130.8350  125.3550   62.3690 C   0  0  0  0  0  0  0  0  0  0  0  0
  132.1630  125.1220   61.9830 C   0  0  0  0  0  0  0  0  0  0  0  0
  133.1870  125.0960   62.9250 C   0  0  0  0  0  0  0  0  0  0  0  0
  132.9120  125.3000   64.2770 C   0  0  0  0  0  0  0  0  0  0  0  0
  133.9890  125.2570   65.1400 O   0  0  0  0  0  0  0  0  0  0  0  0
  133.7620  125.3730   66.5410 C   0  0  0  0  0  0  0  0  0  0  0  0
  131.5880  125.5350   64.6740 C   0  0  0  0  0  0  0  0  0  0  0  0
  130.5660  125.5620   63.7280 C   0  0  0  0  0  0  0  0  0  0  0  0
  128.9620  126.5310   61.1440 C   0  0  0  0  0  0  0  0  0  0  0  0
  127.9340  126.5320   60.1960 C   0  0  0  0  0  0  0  0  0  0  0  0
  127.1430  127.7670   59.9830 C   0  0  0  0  0  0  0  0  0  0  0  0
  127.1160  128.3750   58.7270 C   0  0  0  0  0  0  0  0  0  0  0  0
  126.3800  129.5400   58.5290 C   0  0  0  0  0  0  0  0  0  0  0  0
  125.6580  130.1100   59.5790 C   0  0  0  0  0  0  0  0  0  0  0  0
  124.9590  131.2650   59.2910 O   0  0  0  0  0  0  0  0  0  0  0  0
  123.6460  131.4310   59.8140 C   0  0  0  0  0  0  0  0  0  0  0  0
  125.6840  129.4930   60.8410 C   0  0  0  0  0  0  0  0  0  0  0  0
  126.4210  128.3290   61.0370 C   0  0  0  0  0  0  0  0  0  0  0  0
  127.6930  125.3350   59.4720 C   0  0  0  0  0  0  0  0  0  0  0  0
  126.7410  124.9860   58.4530 C   0  0  0  0  0  0  0  0  0  0  0  0
  125.8090  125.8720   57.9770 N   0  0  0  0  0  0  0  0  0  0  0  0
  1  2  1  0
  2  3  1  0
  3  4  2  0
  3  5  1  0
  5  6  1  0
  6  7  1  0
  7  8  2  0
  8  9  1  0
  9 10  1  0
 10 11  2  0
 11 12  1  0
 12 13  2  0
 13 14  1  0
 14 15  1  0
 13 16  1  0
 16 17  2  0
  9 18  2  0
 18 19  1  0
 19 20  1  0
 20 21  2  0
 21 22  1  0
 22 23  2  0
 23 24  1  0
 24 25  1  0
 23 26  1  0
 26 27  2  0
 19 28  2  0
 28 29  1  0
 29 30  1  0
 29  5  2  0
 28  7  1  0
 17 10  1  0
 27 20  1  0
M  END
>  <Binding energies>  (38) 
[-7.12]

>  <Ligand effiencies>  (38) 
[-0.2225]

>  <Interactions>  (38) 
["V-A:ARG:545:CZ:4924, H-A:ARG:545:NE:4922, V-B:TYR:539:CE1:9847, V-B:ILE:369:CG2:8208, H-A:GLY:454:N:4047, H-A:TYR:484:OH:4345, V-B:ILE:369:CD1:8210, V-A:TYR:539:CE1:4873, V-B:PRO:540:CA:9855, V-B:ASP:366:CG:8184, V-B:PRO:540:CB:9857, V-B:PRO:540:CD:9859, V-B:LEU:363:CD1:8160, V-B:TYR:539:CD1:9845, V-B:LEU:363:CA:8156, V-B:ASP:366:CB:8183, V-B:PRO:540:N:9856, H-B:TYR:531:OH:9767, V-B:ILE:369:CB:8207, H-A:TYR:539:OH:4876, V-B:TYR:539:C:9839, V-B:GLU:543:CD:9880, V-A:HIS:456:CE1:4066, V-B:TYR:531:CZ:9766, V-B:ASP:366:CA:8181, H-B:ASP:366:OD2:8186, H-B:TYR:539:N:9842, V-A:TYR:484:CZ:4344, V-B:LEU:363:CB:8158, V-A:ARG:545:CG:4920, V-A:ARG:545:CD:4921"]

$$$$
9a_Ghoteimi_2023
     RDKit          3D

 48 54  0  0  0  0  0  0  0  0999 V2000
  128.4310  132.5530   73.7700 C   0  0  0  0  0  0  0  0  0  0  0  0
  128.2650  131.3680   74.7280 C   0  0  0  0  0  0  0  0  0  0  0  0
  127.4740  130.3630   74.1040 O   0  0  0  0  0  0  0  0  0  0  0  0
  127.7600  129.0460   74.2660 C   0  0  0  0  0  0  0  0  0  0  0  0
  127.7500  128.4770   75.3630 O   0  0  0  0  0  0  0  0  0  0  0  0
  128.0970  128.3490   72.9800 C   0  0  0  0  0  0  0  0  0  0  0  0
  128.8070  129.0420   71.9900 C   0  0  0  0  0  0  0  0  0  0  0  0
  129.1320  128.4230   70.7870 C   0  0  0  0  0  0  0  0  0  0  0  0
  128.7580  127.1010   70.5460 C   0  0  0  0  0  0  0  0  0  0  0  0
  129.1400  126.5800   69.2950 N   0  0  0  0  0  0  0  0  0  0  0  0
  130.2330  126.8370   68.5330 C   0  0  0  0  0  0  0  0  0  0  0  0
  131.1250  127.6250   68.8460 O   0  0  0  0  0  0  0  0  0  0  0  0
  130.3040  126.0930   67.2720 C   0  0  0  0  0  0  0  0  0  0  0  0
  131.0850  124.5120   67.2130 S   0  0  0  0  0  0  0  0  0  0  0  0
  130.7390  124.3550   65.5060 C   0  0  0  0  0  0  0  0  0  0  0  0
  131.0900  123.2680   64.8200 N   0  0  0  0  0  0  0  0  0  0  0  0
  130.7630  123.2400   63.5000 C   0  0  0  0  0  0  0  0  0  0  0  0
  131.1570  122.0070   62.7530 C   0  0  0  0  0  0  0  0  0  0  0  0
  132.4640  121.8500   62.2790 C   0  0  0  0  0  0  0  0  0  0  0  0
  132.8390  120.7040   61.5820 C   0  0  0  0  0  0  0  0  0  0  0  0
  131.9240  119.6660   61.3460 C   0  0  0  0  0  0  0  0  0  0  0  0
  132.2820  118.5180   60.6310 N   0  0  0  0  0  0  0  0  0  0  0  0
  131.3250  117.8380   59.7340 C   0  0  0  0  0  0  0  0  0  0  0  0
  131.7600  116.4160   59.3230 C   0  0  0  0  0  0  0  0  0  0  0  0
  133.0580  116.4490   58.7520 O   0  0  0  0  0  0  0  0  0  0  0  0
  134.0170  116.9500   59.6710 C   0  0  0  0  0  0  0  0  0  0  0  0
  133.6490  118.3890   60.0850 C   0  0  0  0  0  0  0  0  0  0  0  0
  130.6120  119.8350   61.8110 C   0  0  0  0  0  0  0  0  0  0  0  0
  130.2370  120.9820   62.5040 C   0  0  0  0  0  0  0  0  0  0  0  0
  130.1160  124.3050   62.8690 C   0  0  0  0  0  0  0  0  0  0  0  0
  129.7640  125.4560   63.5830 C   0  0  0  0  0  0  0  0  0  0  0  0
  129.1090  126.5730   62.8550 C   0  0  0  0  0  0  0  0  0  0  0  0
  129.8620  127.6470   62.3740 C   0  0  0  0  0  0  0  0  0  0  0  0
  129.2490  128.6860   61.6810 C   0  0  0  0  0  0  0  0  0  0  0  0
  127.8670  128.6710   61.4330 C   0  0  0  0  0  0  0  0  0  0  0  0
  127.2280  129.7080   60.7500 N   0  0  0  0  0  0  0  0  0  0  0  0
  126.5370  129.4130   59.4780 C   0  0  0  0  0  0  0  0  0  0  0  0
  125.5720  130.5320   59.0340 C   0  0  0  0  0  0  0  0  0  0  0  0
  126.2620  131.7700   58.9610 O   0  0  0  0  0  0  0  0  0  0  0  0
  126.8110  132.1400   60.2150 C   0  0  0  0  0  0  0  0  0  0  0  0
  127.8110  131.0630   60.6910 C   0  0  0  0  0  0  0  0  0  0  0  0
  127.1220  127.5870   61.9180 C   0  0  0  0  0  0  0  0  0  0  0  0
  127.7340  126.5500   62.6150 C   0  0  0  0  0  0  0  0  0  0  0  0
  130.0630  125.4920   64.9740 C   0  0  0  0  0  0  0  0  0  0  0  0
  129.8060  126.4600   66.0120 C   0  0  0  0  0  0  0  0  0  0  0  0
  129.1220  127.6260   65.7800 N   0  0  0  0  0  0  0  0  0  0  0  0
  128.0500  126.3970   71.5330 C   0  0  0  0  0  0  0  0  0  0  0  0
  127.7240  127.0180   72.7360 C   0  0  0  0  0  0  0  0  0  0  0  0
  1  2  1  0
  2  3  1  0
  3  4  1  0
  4  5  2  0
  4  6  1  0
  6  7  2  0
  7  8  1  0
  8  9  2  0
  9 10  1  0
 10 11  1  0
 11 12  2  0
 11 13  1  0
 13 14  1  0
 14 15  1  0
 15 16  2  0
 16 17  1  0
 17 18  1  0
 18 19  2  0
 19 20  1  0
 20 21  2  0
 21 22  1  0
 22 23  1  0
 23 24  1  0
 24 25  1  0
 25 26  1  0
 26 27  1  0
 21 28  1  0
 28 29  2  0
 17 30  2  0
 30 31  1  0
 31 32  1  0
 32 33  2  0
 33 34  1  0
 34 35  2  0
 35 36  1  0
 36 37  1  0
 37 38  1  0
 38 39  1  0
 39 40  1  0
 40 41  1  0
 35 42  1  0
 42 43  2  0
 31 44  2  0
 44 45  1  0
 45 46  1  0
  9 47  1  0
 47 48  2  0
 48  6  1  0
 45 13  2  0
 44 15  1  0
 29 18  1  0
 43 32  1  0
 27 22  1  0
 41 36  1  0
M  END
>  <Binding energies>  (39) 
[8.82]

>  <Ligand effiencies>  (39) 
[0.17294117647058824]

>  <Interactions>  (39) 
["V-B:ALA:541:CB:9864, V-A:ILE:369:CG2:3234, H-A:TYR:484:OH:4345, V-A:LEU:475:CD2:4256, V-A:TYR:539:CE1:4873, V-B:ASP:366:CG:8184, V-B:TYR:539:CD1:9845, V-A:TYR:539:CD1:4871, V-B:TYR:539:CG:9844, H-A:TYR:539:OH:4876, V-B:GLU:543:CD:9880, V-B:GLU:543:CG:9879, H-A:GLU:543:OE2:4908, V-B:GLU:543:CB:9878, V-A:HIS:456:CE1:4066, H-B:GLU:543:OE1:9881, H-A:GLU:543:OE1:4907, H-B:GLU:543:OE2:9882, V-B:HIS:456:CE1:9040, V-A:TYR:539:CZ:4875, V-A:GLU:543:CD:4906, V-A:GLU:543:CG:4905, V-B:GLU:543:C:9874, V-B:GLY:544:CA:9886, V-B:HIS:456:CD2:9039, V-A:GLU:543:C:4900, V-B:LYS:547:CE:9922, V-A:LYS:547:CE:4948, V-B:GLY:544:C:9884, H-A:LYS:547:NZ:4949, V-B:HIS:456:CG:9037, H-B:LYS:547:NZ:9923, V-B:TYR:484:CB:9312, H-A:HIS:456:NE2:4067, V-A:TYR:484:CZ:4344, V-A:TYR:484:CE2:4343, V-B:TYR:539:CB:9843, V-B:ALA:541:CA:9862, V-A:LEU:373:CD1:3277, V-A:SER:385:CA:3404, V-A:SER:385:CB:3406, V-A:LEU:373:CD2:3278, H-B:GLU:543:O:9875, V-A:VAL:384:C:3394, V-A:LEU:373:CG:3276, V-A:TYR:484:CE1:4342"]

$$$$
9b_Ghoteimi_2023
     RDKit          3D

 42 48  0  0  0  0  0  0  0  0999 V2000
  130.7790  124.1370   60.5670 N   0  0  0  0  0  0  0  0  0  0  0  0
  131.0930  123.8240   61.8650 C   0  0  0  0  0  0  0  0  0  0  0  0
  131.7360  122.6340   62.2400 C   0  0  0  0  0  0  0  0  0  0  0  0
  132.2080  121.5420   61.3850 C   0  0  0  0  0  0  0  0  0  0  0  0
  133.1690  121.7050   60.6290 O   0  0  0  0  0  0  0  0  0  0  0  0
  131.5180  120.3790   61.4890 N   0  0  0  0  0  0  0  0  0  0  0  0
  131.7390  119.1970   60.7940 C   0  0  0  0  0  0  0  0  0  0  0  0
  130.7560  118.2260   60.6130 C   0  0  0  0  0  0  0  0  0  0  0  0
  131.3650  117.2320   59.8830 C   0  0  0  0  0  0  0  0  0  0  0  0
  132.6500  117.5870   59.6380 O   0  0  0  0  0  0  0  0  0  0  0  0
  132.8740  118.8340   60.2210 N   0  0  0  0  0  0  0  0  0  0  0  0
  131.9530  122.5500   63.9880 S   0  0  0  0  0  0  0  0  0  0  0  0
  131.1680  124.0950   64.2060 C   0  0  0  0  0  0  0  0  0  0  0  0
  130.9820  124.6200   65.4160 N   0  0  0  0  0  0  0  0  0  0  0  0
  130.3440  125.8180   65.4770 C   0  0  0  0  0  0  0  0  0  0  0  0
  130.1300  126.3740   66.8480 C   0  0  0  0  0  0  0  0  0  0  0  0
  131.1270  127.1160   67.4920 C   0  0  0  0  0  0  0  0  0  0  0  0
  130.9270  127.6190   68.7740 C   0  0  0  0  0  0  0  0  0  0  0  0
  129.7280  127.3860   69.4660 C   0  0  0  0  0  0  0  0  0  0  0  0
  129.5120  127.8880   70.7540 N   0  0  0  0  0  0  0  0  0  0  0  0
  130.6350  128.1560   71.6740 C   0  0  0  0  0  0  0  0  0  0  0  0
  130.2500  129.0160   72.8940 C   0  0  0  0  0  0  0  0  0  0  0  0
  129.1620  128.4220   73.5830 O   0  0  0  0  0  0  0  0  0  0  0  0
  128.0170  128.3150   72.7520 C   0  0  0  0  0  0  0  0  0  0  0  0
  128.3330  127.4360   71.5230 C   0  0  0  0  0  0  0  0  0  0  0  0
  128.7260  126.6590   68.8080 C   0  0  0  0  0  0  0  0  0  0  0  0
  128.9240  126.1600   67.5240 C   0  0  0  0  0  0  0  0  0  0  0  0
  129.9210  126.4980   64.3330 C   0  0  0  0  0  0  0  0  0  0  0  0
  130.1330  125.9600   63.0580 C   0  0  0  0  0  0  0  0  0  0  0  0
  129.6900  126.7370   61.8720 C   0  0  0  0  0  0  0  0  0  0  0  0
  130.6280  127.3640   61.0510 C   0  0  0  0  0  0  0  0  0  0  0  0
  130.2190  128.0760   59.9280 C   0  0  0  0  0  0  0  0  0  0  0  0
  128.8590  128.1810   59.5950 C   0  0  0  0  0  0  0  0  0  0  0  0
  128.4270  128.8770   58.4630 N   0  0  0  0  0  0  0  0  0  0  0  0
  127.1110  128.5570   57.8770 C   0  0  0  0  0  0  0  0  0  0  0  0
  126.9390  129.0950   56.4400 C   0  0  0  0  0  0  0  0  0  0  0  0
  127.1720  130.4950   56.4150 O   0  0  0  0  0  0  0  0  0  0  0  0
  128.4840  130.8170   56.8510 C   0  0  0  0  0  0  0  0  0  0  0  0
  128.6980  130.3190   58.2960 C   0  0  0  0  0  0  0  0  0  0  0  0
  127.9270  127.5300   60.4170 C   0  0  0  0  0  0  0  0  0  0  0  0
  128.3370  126.8180   61.5410 C   0  0  0  0  0  0  0  0  0  0  0  0
  130.7680  124.6890   62.9720 C   0  0  0  0  0  0  0  0  0  0  0  0
  1  2  1  0
  2  3  2  0
  3  4  1  0
  4  5  2  0
  4  6  1  0
  6  7  1  0
  7  8  1  0
  8  9  2  0
  9 10  1  0
 10 11  1  0
  3 12  1  0
 12 13  1  0
 13 14  2  0
 14 15  1  0
 15 16  1  0
 16 17  2  0
 17 18  1  0
 18 19  2  0
 19 20  1  0
 20 21  1  0
 21 22  1  0
 22 23  1  0
 23 24  1  0
 24 25  1  0
 19 26  1  0
 26 27  2  0
 15 28  2  0
 28 29  1  0
 29 30  1  0
 30 31  2  0
 31 32  1  0
 32 33  2  0
 33 34  1  0
 34 35  1  0
 35 36  1  0
 36 37  1  0
 37 38  1  0
 38 39  1  0
 33 40  1  0
 40 41  2  0
 29 42  2  0
 42  2  1  0
 11  7  2  0
 42 13  1  0
 27 16  1  0
 41 30  1  0
 25 20  1  0
 39 34  1  0
M  END
>  <Binding energies>  (40) 
[-5.71]

>  <Ligand effiencies>  (40) 
[-0.12688888888888888]

>  <Interactions>  (40) 
["V-A:GLY:454:CA:4046, V-B:TYR:539:CE1:9847, H-A:TYR:484:OH:4345, V-A:LEU:475:CD2:4256, V-B:TYR:539:CD1:9845, V-B:TYR:539:CG:9844, H-A:TYR:539:OH:4876, V-B:GLU:543:CD:9880, V-B:GLU:543:CG:9879, V-B:GLU:543:CB:9878, V-A:HIS:456:CE1:4066, V-B:HIS:456:CE1:9040, V-A:GLU:543:CD:4906, V-A:GLU:543:CG:4905, V-B:GLU:543:C:9874, V-B:HIS:456:CD2:9039, V-A:GLU:543:C:4900, V-A:LYS:547:CE:4948, V-A:GLY:544:C:4910, V-B:GLY:544:C:9884, H-A:LYS:547:NZ:4949, V-B:HIS:456:CG:9037, V-A:GLY:544:CA:4912, V-A:MET:535:CE:4833, V-A:PRO:482:CB:4323, V-A:TYR:484:CZ:4344, V-A:PRO:482:CG:4324, V-B:TYR:539:CB:9843, V-A:ARG:545:CG:4920, V-A:LEU:373:CD1:3277, V-B:GLU:543:CA:9876"]

$$$$
9c_Ghoteimi_2023
     RDKit          3D

 42 48  0  0  0  0  0  0  0  0999 V2000
  130.6850  124.0760   60.5890 N   0  0  0  0  0  0  0  0  0  0  0  0
  130.9740  123.7590   61.8920 C   0  0  0  0  0  0  0  0  0  0  0  0
  131.5700  122.5490   62.2790 C   0  0  0  0  0  0  0  0  0  0  0  0
  132.0080  121.4340   61.4330 C   0  0  0  0  0  0  0  0  0  0  0  0
  132.9630  121.5640   60.6630 O   0  0  0  0  0  0  0  0  0  0  0  0
  131.2930  120.2900   61.5620 N   0  0  0  0  0  0  0  0  0  0  0  0
  131.4880  119.1020   60.8720 C   0  0  0  0  0  0  0  0  0  0  0  0
  130.5740  118.2870   60.3920 N   0  0  0  0  0  0  0  0  0  0  0  0
  131.1200  117.2440   59.7950 C   0  0  0  0  0  0  0  0  0  0  0  0
  132.5110  117.1990   59.7860 C   0  0  0  0  0  0  0  0  0  0  0  0
  133.1280  118.6030   60.6040 S   0  0  0  0  0  0  0  0  0  0  0  0
  131.7680  122.4660   64.0290 S   0  0  0  0  0  0  0  0  0  0  0  0
  131.0360  124.0400   64.2320 C   0  0  0  0  0  0  0  0  0  0  0  0
  130.8590  124.5770   65.4380 N   0  0  0  0  0  0  0  0  0  0  0  0
  130.2640  125.7980   65.4870 C   0  0  0  0  0  0  0  0  0  0  0  0
  130.0590  126.3680   66.8530 C   0  0  0  0  0  0  0  0  0  0  0  0
  131.0700  127.0900   67.4970 C   0  0  0  0  0  0  0  0  0  0  0  0
  130.8770  127.6100   68.7730 C   0  0  0  0  0  0  0  0  0  0  0  0
  129.6660  127.4180   69.4580 C   0  0  0  0  0  0  0  0  0  0  0  0
  129.4530  127.9410   70.7380 N   0  0  0  0  0  0  0  0  0  0  0  0
  130.5830  128.2680   71.6330 C   0  0  0  0  0  0  0  0  0  0  0  0
  130.1890  129.1470   72.8390 C   0  0  0  0  0  0  0  0  0  0  0  0
  129.1330  128.5320   73.5600 O   0  0  0  0  0  0  0  0  0  0  0  0
  127.9790  128.3680   72.7510 C   0  0  0  0  0  0  0  0  0  0  0  0
  128.3040  127.4690   71.5380 C   0  0  0  0  0  0  0  0  0  0  0  0
  128.6500  126.7110   68.8000 C   0  0  0  0  0  0  0  0  0  0  0  0
  128.8430  126.1940   67.5220 C   0  0  0  0  0  0  0  0  0  0  0  0
  129.8770  126.4870   64.3350 C   0  0  0  0  0  0  0  0  0  0  0  0
  130.0810  125.9350   63.0650 C   0  0  0  0  0  0  0  0  0  0  0  0
  129.6810  126.7200   61.8710 C   0  0  0  0  0  0  0  0  0  0  0  0
  130.6480  127.3330   61.0730 C   0  0  0  0  0  0  0  0  0  0  0  0
  130.2770  128.0560   59.9430 C   0  0  0  0  0  0  0  0  0  0  0  0
  128.9280  128.1860   59.5800 C   0  0  0  0  0  0  0  0  0  0  0  0
  128.5330  128.8970   58.4430 N   0  0  0  0  0  0  0  0  0  0  0  0
  127.1580  128.7310   57.9320 C   0  0  0  0  0  0  0  0  0  0  0  0
  126.9790  129.2470   56.4870 C   0  0  0  0  0  0  0  0  0  0  0  0
  127.3870  130.6040   56.4020 O   0  0  0  0  0  0  0  0  0  0  0  0
  128.7500  130.7660   56.7610 C   0  0  0  0  0  0  0  0  0  0  0  0
  128.9770  130.2850   58.2110 C   0  0  0  0  0  0  0  0  0  0  0  0
  127.9660  127.5480   60.3780 C   0  0  0  0  0  0  0  0  0  0  0  0
  128.3360  126.8250   61.5080 C   0  0  0  0  0  0  0  0  0  0  0  0
  130.6700  124.6410   62.9910 C   0  0  0  0  0  0  0  0  0  0  0  0
  1  2  1  0
  2  3  2  0
  3  4  1  0
  4  5  2  0
  4  6  1  0
  6  7  1  0
  7  8  2  0
  8  9  1  0
  9 10  2  0
 10 11  1  0
  3 12  1  0
 12 13  1  0
 13 14  2  0
 14 15  1  0
 15 16  1  0
 16 17  2  0
 17 18  1  0
 18 19  2  0
 19 20  1  0
 20 21  1  0
 21 22  1  0
 22 23  1  0
 23 24  1  0
 24 25  1  0
 19 26  1  0
 26 27  2  0
 15 28  2  0
 28 29  1  0
 29 30  1  0
 30 31  2  0
 31 32  1  0
 32 33  2  0
 33 34  1  0
 34 35  1  0
 35 36  1  0
 36 37  1  0
 37 38  1  0
 38 39  1  0
 33 40  1  0
 40 41  2  0
 29 42  2  0
 42  2  1  0
 11  7  1  0
 42 13  1  0
 27 16  1  0
 41 30  1  0
 25 20  1  0
 39 34  1  0
M  END
>  <Binding energies>  (41) 
[-5.75]

>  <Ligand effiencies>  (41) 
[-0.12777777777777777]

>  <Interactions>  (41) 
["V-A:GLY:454:CA:4046, V-B:TYR:539:CE1:9847, H-A:TYR:484:OH:4345, V-A:LEU:475:CD2:4256, V-B:TYR:539:CD1:9845, V-B:TYR:539:CG:9844, H-A:TYR:539:OH:4876, V-B:GLU:543:CD:9880, V-B:GLU:543:CG:9879, V-B:GLU:543:CB:9878, V-A:HIS:456:CE1:4066, V-B:HIS:456:CE1:9040, V-A:GLU:543:CD:4906, V-A:GLU:543:CG:4905, V-B:GLU:543:C:9874, V-B:HIS:456:CD2:9039, V-A:GLU:543:C:4900, V-A:LYS:547:CE:4948, V-A:GLY:544:C:4910, V-B:GLY:544:C:9884, H-A:LYS:547:NZ:4949, V-B:HIS:456:CG:9037, V-A:GLY:544:CA:4912, V-A:MET:535:CE:4833, V-A:TYR:484:CZ:4344, V-A:PRO:482:CG:4324, V-B:TYR:539:CB:9843, H-B:TYR:539:O:9840, V-A:ARG:545:CG:4920, V-A:LEU:373:CD1:3277, V-A:SER:385:CA:3404, V-A:SER:385:CB:3406, V-B:GLU:543:CA:9876"]

$$$$
RR11_Rahimova_2017
     RDKit          3D

 33 38  0  0  0  0  0  0  0  0999 V2000
  134.5650  124.0720   57.7490 N   0  0  0  0  0  0  0  0  0  0  0  0
  133.4090  124.8290   57.9250 C   0  0  0  0  0  0  0  0  0  0  0  0
  132.7930  125.4220   56.8240 C   0  0  0  0  0  0  0  0  0  0  0  0
  131.6370  126.1760   57.0010 C   0  0  0  0  0  0  0  0  0  0  0  0
  131.0850  126.3450   58.2770 C   0  0  0  0  0  0  0  0  0  0  0  0
  129.8360  127.1530   58.4650 C   0  0  0  0  0  0  0  0  0  0  0  0
  129.6540  128.0270   59.4320 N   0  0  0  0  0  0  0  0  0  0  0  0
  128.4000  128.5390   59.2250 C   0  0  0  0  0  0  0  0  0  0  0  0
  127.7080  129.5120   59.9600 C   0  0  0  0  0  0  0  0  0  0  0  0
  126.4280  129.8850   59.5320 C   0  0  0  0  0  0  0  0  0  0  0  0
  125.6510  130.9350   60.3140 C   0  0  0  0  0  0  0  0  0  0  0  0
  125.6580  130.6840   61.8150 C   0  0  0  0  0  0  0  0  0  0  0  0
  124.6830  131.2860   62.6190 C   0  0  0  0  0  0  0  0  0  0  0  0
  124.6430  131.0790   64.0000 C   0  0  0  0  0  0  0  0  0  0  0  0
  125.6090  130.2390   64.5700 C   0  0  0  0  0  0  0  0  0  0  0  0
  125.7870  129.8850   65.8820 N   0  0  0  0  0  0  0  0  0  0  0  0
  126.8300  129.0840   65.8880 C   0  0  0  0  0  0  0  0  0  0  0  0
  127.4110  128.4560   67.1220 C   0  0  0  0  0  0  0  0  0  0  0  0
  128.7110  128.7720   67.5360 C   0  0  0  0  0  0  0  0  0  0  0  0
  129.2540  128.1820   68.6750 C   0  0  0  0  0  0  0  0  0  0  0  0
  128.4990  127.2690   69.4070 C   0  0  0  0  0  0  0  0  0  0  0  0
  129.0430  126.6730   70.5450 N   0  0  0  0  0  0  0  0  0  0  0  0
  127.2040  126.9480   69.0100 C   0  0  0  0  0  0  0  0  0  0  0  0
  126.6620  127.5390   67.8720 C   0  0  0  0  0  0  0  0  0  0  0  0
  127.3420  128.8930   64.6220 N   0  0  0  0  0  0  0  0  0  0  0  0
  126.5800  129.6260   63.7430 C   0  0  0  0  0  0  0  0  0  0  0  0
  126.6230  129.8250   62.3600 C   0  0  0  0  0  0  0  0  0  0  0  0
  125.8460  129.2790   58.4130 C   0  0  0  0  0  0  0  0  0  0  0  0
  126.5070  128.3030   57.6630 C   0  0  0  0  0  0  0  0  0  0  0  0
  127.7900  127.9530   58.0910 C   0  0  0  0  0  0  0  0  0  0  0  0
  128.7380  127.0690   57.6330 N   0  0  0  0  0  0  0  0  0  0  0  0
  131.7150  125.7450   59.3760 C   0  0  0  0  0  0  0  0  0  0  0  0
  132.8720  124.9890   59.2020 C   0  0  0  0  0  0  0  0  0  0  0  0
  1  2  1  0
  2  3  2  0
  3  4  1  0
  4  5  2  0
  5  6  1  0
  6  7  2  0
  7  8  1  0
  8  9  2  0
  9 10  1  0
 10 11  1  0
 11 12  1  0
 12 13  2  0
 13 14  1  0
 14 15  2  0
 15 16  1  0
 16 17  2  0
 17 18  1  0
 18 19  2  0
 19 20  1  0
 20 21  2  0
 21 22  1  0
 21 23  1  0
 23 24  2  0
 17 25  1  0
 25 26  1  0
 26 27  2  0
 10 28  2  0
 28 29  1  0
 29 30  2  0
 30 31  1  0
  5 32  1  0
 32 33  2  0
 33  2  1  0
 31  6  1  0
 30  8  1  0
 27 12  1  0
 26 15  1  0
 24 18  1  0
M  END
>  <Binding energies>  (42) 
[-6.24]

>  <Ligand effiencies>  (42) 
[-0.16]

>  <Interactions>  (42) 
["V-A:ILE:369:CG2:3234, V-B:GLY:453:C:9013, V-A:ASP:366:CG:3210, V-A:TYR:539:CE1:4873, V-B:ASP:366:CG:8184, H-B:TYR:484:OH:9319, V-B:ASP:366:CB:8183, V-B:GLU:543:CD:9880, V-B:GLU:543:CG:9879, H-A:GLU:543:OE2:4908, V-B:GLU:543:CB:9878, V-A:HIS:456:CE1:4066, V-A:ASP:366:CA:3207, V-A:ASP:366:CB:3209, H-A:GLU:543:OE1:4907, V-B:TYR:539:CZ:9849, H-B:GLU:543:OE2:9882, V-B:HIS:456:CE1:9040, V-A:GLU:543:CB:4904, V-A:GLU:543:CD:4906, V-A:GLU:543:CG:4905, V-B:GLU:543:C:9874, V-A:GLU:543:C:4900, V-B:GLY:544:C:9884, V-A:HIS:456:CD2:4065, V-B:GLY:454:CA:9020, V-A:TYR:531:CZ:4792, V-A:TYR:531:CE1:4790, H-B:TYR:539:OH:9850, V-A:ILE:369:CB:3233, V-A:ASP:366:C:3205, H-A:ASP:366:O:3206, V-B:ARG:545:CG:9894, H-B:GLU:543:O:9875, V-A:ILE:369:CA:3231, V-A:ASN:370:CB:3242, V-A:ILE:369:C:3229, H-A:GLU:543:O:4901"]

$$$$
RR16_Rahimova_2017
     RDKit          3D

 44 49  0  0  0  0  0  0  0  0999 V2000
  132.9810  121.7160   62.9990 O   0  0  0  0  0  0  0  0  0  0  0  0
  133.4190  122.2780   61.7160 S   0  0  0  0  0  0  0  0  0  0  0  0
  134.3180  121.5270   60.8320 O   0  0  0  0  0  0  0  0  0  0  0  0
  134.1600  123.8450   62.0470 N   0  0  0  0  0  0  0  0  0  0  0  0
  133.4850  124.8370   62.9170 C   0  0  0  0  0  0  0  0  0  0  0  0
  132.5520  125.7220   62.0500 C   0  0  0  0  0  0  0  0  0  0  0  0
  131.0530  125.3640   62.0330 C   0  0  0  0  0  0  0  0  0  0  0  0
  130.3050  125.7440   63.3220 C   0  0  0  0  0  0  0  0  0  0  0  0
  131.1900  126.1030   64.5310 C   0  0  0  0  0  0  0  0  0  0  0  0
  132.0870  124.9890   65.1050 C   0  0  0  0  0  0  0  0  0  0  0  0
  132.8030  124.0840   64.0820 C   0  0  0  0  0  0  0  0  0  0  0  0
  131.9390  122.6720   60.7900 C   0  0  0  0  0  0  0  0  0  0  0  0
  131.9720  123.6470   59.7910 C   0  0  0  0  0  0  0  0  0  0  0  0
  130.7900  124.0300   59.1640 C   0  0  0  0  0  0  0  0  0  0  0  0
  129.5820  123.4370   59.5370 C   0  0  0  0  0  0  0  0  0  0  0  0
  128.0440  124.0270   58.8340 S   0  0  0  0  0  0  0  0  0  0  0  0
  127.0060  123.0370   59.1540 O   0  0  0  0  0  0  0  0  0  0  0  0
  128.3110  124.3950   57.4380 O   0  0  0  0  0  0  0  0  0  0  0  0
  127.6930  125.5120   59.7390 N   0  0  0  0  0  0  0  0  0  0  0  0
  126.9100  126.5230   58.9840 C   0  0  0  0  0  0  0  0  0  0  0  0
  126.9250  127.8780   59.7200 C   0  0  0  0  0  0  0  0  0  0  0  0
  126.4680  127.7360   61.1930 C   0  0  0  0  0  0  0  0  0  0  0  0
  126.5200  129.0630   61.9560 C   0  0  0  0  0  0  0  0  0  0  0  0
  126.1390  129.1060   63.3040 C   0  0  0  0  0  0  0  0  0  0  0  0
  126.1780  130.2910   64.0400 C   0  0  0  0  0  0  0  0  0  0  0  0
  125.8060  130.3130   65.3590 O   0  0  0  0  0  0  0  0  0  0  0  0
  126.6140  131.4570   63.3930 C   0  0  0  0  0  0  0  0  0  0  0  0
  126.7710  132.7330   63.8540 N   0  0  0  0  0  0  0  0  0  0  0  0
  127.2600  133.4920   62.8130 N   0  0  0  0  0  0  0  0  0  0  0  0
  127.3580  132.7070   61.7230 N   0  0  0  0  0  0  0  0  0  0  0  0
  127.9320  133.2320   60.4910 C   0  0  0  0  0  0  0  0  0  0  0  0
  129.2300  132.5380   60.1040 C   0  0  0  0  0  0  0  0  0  0  0  0
  129.4700  132.1900   58.7710 C   0  0  0  0  0  0  0  0  0  0  0  0
  130.6690  131.5730   58.4100 C   0  0  0  0  0  0  0  0  0  0  0  0
  131.6350  131.3040   59.3810 C   0  0  0  0  0  0  0  0  0  0  0  0
  131.4030  131.6510   60.7120 C   0  0  0  0  0  0  0  0  0  0  0  0
  132.5990  131.3280   61.9130 Cl  0  0  0  0  0  0  0  0  0  0  0  0
  130.2010  132.2640   61.0740 C   0  0  0  0  0  0  0  0  0  0  0  0
  126.9890  131.4080   62.0290 C   0  0  0  0  0  0  0  0  0  0  0  0
  126.9470  130.2210   61.2900 C   0  0  0  0  0  0  0  0  0  0  0  0
  127.2080  126.5900   61.9310 C   0  0  0  0  0  0  0  0  0  0  0  0
  127.1940  125.2790   61.1200 C   0  0  0  0  0  0  0  0  0  0  0  0
  129.5580  122.4320   60.5080 C   0  0  0  0  0  0  0  0  0  0  0  0
  130.7380  122.0520   61.1370 C   0  0  0  0  0  0  0  0  0  0  0  0
  1  2  2  0
  2  3  2  0
  2  4  1  0
  4  5  1  0
  5  6  1  0
  6  7  1  0
  7  8  1  0
  8  9  1  0
  9 10  1  0
 10 11  1  0
  2 12  1  0
 12 13  2  0
 13 14  1  0
 14 15  2  0
 15 16  1  0
 16 17  2  0
 16 18  2  0
 16 19  1  0
 19 20  1  0
 20 21  1  0
 21 22  1  0
 22 23  1  0
 23 24  2  0
 24 25  1  0
 25 26  1  0
 25 27  2  0
 27 28  1  0
 28 29  2  0
 29 30  1  0
 30 31  1  0
 31 32  1  0
 32 33  2  0
 33 34  1  0
 34 35  2  0
 35 36  1  0
 36 37  1  0
 36 38  2  0
 30 39  1  0
 39 40  2  0
 22 41  1  0
 41 42  1  0
 15 43  1  0
 43 44  2  0
 11  5  1  0
 44 12  1  0
 42 19  1  0
 40 23  1  0
 39 27  1  0
 38 32  1  0
M  END
>  <Binding energies>  (43) 
[-7.58]

>  <Ligand effiencies>  (43) 
[-0.15791666666666668]

>  <Interactions>  (43) 
["V-A:PRO:540:CA:4881, V-A:ARG:545:CZ:4924, V-A:GLY:454:CA:4046, V-B:TYR:539:CE1:9847, V-A:PRO:540:CB:4883, V-B:ARG:545:CZ:9898, V-A:ILE:369:CD1:3236, H-A:GLY:454:N:4047, V-A:PRO:540:N:4882, V-A:ASP:366:CG:3210, V-A:LEU:475:CD2:4256, V-A:TYR:539:CE1:4873, V-B:ASP:366:CG:8184, H-B:TYR:484:OH:9319, V-B:TYR:539:CD1:9845, V-A:TYR:539:CD1:4871, V-B:GLU:543:CD:9880, V-B:TYR:539:CZ:9849, V-A:GLU:543:CD:4906, V-A:PRO:540:C:4879, V-A:TYR:539:C:4865, H-A:ASP:366:OD1:3211, V-A:ASN:362:CB:3173"]

$$$$
RR18_Rahimova_2017
     RDKit          3D

 36 41  0  0  0  0  0  0  0  0999 V2000
  132.9440  125.6520   56.3070 C   0  0  0  0  0  0  0  0  0  0  0  0
  132.6830  125.2220   57.7290 C   0  0  0  0  0  0  0  0  0  0  0  0
  133.4340  124.5690   58.6930 C   0  0  0  0  0  0  0  0  0  0  0  0
  132.6280  124.4600   59.8260 C   0  0  0  0  0  0  0  0  0  0  0  0
  131.4150  125.0520   59.5140 C   0  0  0  0  0  0  0  0  0  0  0  0
  130.1180  125.2780   60.2870 C   0  0  1  0  0  0  0  0  0  0  0  0
  129.9750  124.2740   61.4690 C   0  0  0  0  0  0  0  0  0  0  0  0
  129.8340  122.8440   61.2110 C   0  0  0  0  0  0  0  0  0  0  0  0
  128.7500  122.3410   60.9090 O   0  0  0  0  0  0  0  0  0  0  0  0
  130.9890  122.1450   61.3160 N   0  0  0  0  0  0  0  0  0  0  0  0
  131.2380  120.7650   61.1610 C   0  0  0  0  0  0  0  0  0  0  0  0
  130.2490  119.7760   61.3180 C   0  0  0  0  0  0  0  0  0  0  0  0
  130.5630  118.4280   61.1570 C   0  0  0  0  0  0  0  0  0  0  0  0
  131.8640  118.0450   60.8440 C   0  0  0  0  0  0  0  0  0  0  0  0
  132.8550  119.0130   60.6970 C   0  0  0  0  0  0  0  0  0  0  0  0
  132.5560  120.3700   60.8540 C   0  0  0  0  0  0  0  0  0  0  0  0
  133.6790  121.3890   60.6870 C   0  0  0  0  0  0  0  0  0  0  0  0
  130.0870  124.7470   62.7380 C   0  0  0  0  0  0  0  0  0  0  0  0
  130.2000  126.0640   63.0680 N   0  0  0  0  0  0  0  0  0  0  0  0
  130.1190  126.9540   62.1500 C   0  0  0  0  0  0  0  0  0  0  0  0
  130.0940  128.6770   62.4380 S   0  0  0  0  0  0  0  0  0  0  0  0
  129.9330  129.0210   60.6870 C   0  0  0  0  0  0  0  0  0  0  0  0
  129.8420  130.2580   60.0860 C   0  0  0  0  0  0  0  0  0  0  0  0
  129.7880  131.4780   60.9040 C   0  0  0  0  0  0  0  0  0  0  0  0
  129.8370  131.6150   62.1250 O   0  0  0  0  0  0  0  0  0  0  0  0
  129.6480  132.5120   60.0680 N   0  0  0  0  0  0  0  0  0  0  0  0
  129.6340  132.1390   58.7580 C   0  0  0  0  0  0  0  0  0  0  0  0
  129.5180  132.9590   57.6370 C   0  0  0  0  0  0  0  0  0  0  0  0
  129.5570  132.3790   56.3720 C   0  0  0  0  0  0  0  0  0  0  0  0
  129.7190  131.0000   56.2510 C   0  0  0  0  0  0  0  0  0  0  0  0
  129.8330  130.1990   57.3900 C   0  0  0  0  0  0  0  0  0  0  0  0
  129.7720  130.7640   58.6780 C   0  0  0  0  0  0  0  0  0  0  0  0
  129.8980  127.7420   59.9770 C   0  0  0  0  0  0  0  0  0  0  0  0
  129.7430  127.5810   58.7700 O   0  0  0  0  0  0  0  0  0  0  0  0
  130.0370  126.6840   60.8220 N   0  0  0  0  0  0  0  0  0  0  0  0
  131.4560  125.5120   58.2350 O   0  0  0  0  0  0  0  0  0  0  0  0
  1  2  1  0
  2  3  2  0
  3  4  1  0
  4  5  2  0
  6  5  1  1
  6  7  1  0
  7  8  1  0
  8  9  2  0
  8 10  1  0
 10 11  1  0
 11 12  2  0
 12 13  1  0
 13 14  2  0
 14 15  1  0
 15 16  2  0
 16 17  1  0
  7 18  2  0
 18 19  1  0
 19 20  2  0
 20 21  1  0
 21 22  1  0
 22 23  2  0
 23 24  1  0
 24 25  2  0
 24 26  1  0
 26 27  1  0
 27 28  2  0
 28 29  1  0
 29 30  2  0
 30 31  1  0
 31 32  2  0
 22 33  1  0
 33 34  2  0
 33 35  1  0
  5 36  1  0
 36  2  1  0
 35  6  1  0
 16 11  1  0
 35 20  1  0
 32 23  1  0
 32 27  1  0
M  END
>  <Binding energies>  (44) 
[-8.45]

>  <Ligand effiencies>  (44) 
[-0.22236842105263155]

>  <Interactions>  (44) 
["V-A:PRO:540:CA:4881, V-B:ALA:541:CB:9864, V-B:TYR:539:CE1:9847, V-A:ILE:369:CG2:3234, V-A:ILE:369:CD1:3236, V-A:PRO:540:N:4882, V-A:ASP:366:CG:3210, V-A:LEU:475:CD2:4256, V-A:TYR:539:CE1:4873, V-B:TYR:539:CD1:9845, V-A:TYR:539:CD1:4871, V-B:TYR:539:C:9839, V-B:GLU:543:CD:9880, V-A:ASP:366:CA:3207, V-A:ASP:366:CB:3209, V-B:TYR:539:CZ:9849, V-A:GLU:543:CD:4906, H-B:ALA:541:N:9863, V-A:TYR:531:CZ:4792, V-A:TYR:531:CE1:4790, V-A:TYR:539:C:4865, V-A:ASP:366:C:3205, V-A:MET:535:CE:4833, V-A:TYR:539:CG:4870, V-A:TYR:539:CA:4867, V-A:PRO:482:CB:4323, V-A:PRO:482:CG:4324, H-A:ALA:541:N:4889, V-A:LEU:373:CD1:3277, V-A:SER:385:CA:3404, V-A:SER:385:CB:3406, H-A:TYR:539:O:4866, V-A:ASN:370:CB:3242"]

$$$$
RR20_Rahimova_2017
     RDKit          3D

 38 43  0  0  0  0  0  0  0  0999 V2000
  131.4580  116.4440   60.0420 C   0  0  0  0  0  0  0  0  0  0  0  0
  131.9330  117.8360   60.4160 C   0  0  0  0  0  0  0  0  0  0  0  0
  133.2870  118.1590   60.3130 C   0  0  0  0  0  0  0  0  0  0  0  0
  133.7240  119.4380   60.6470 C   0  0  0  0  0  0  0  0  0  0  0  0
  132.8130  120.4010   61.0980 C   0  0  0  0  0  0  0  0  0  0  0  0
  133.3050  121.7910   61.4350 C   0  0  0  0  0  0  0  0  0  0  0  0
  134.0620  121.9100   62.4020 O   0  0  0  0  0  0  0  0  0  0  0  0
  132.9130  122.8460   60.6630 N   0  0  0  0  0  0  0  0  0  0  0  0
  133.8500  123.5310   59.7580 C   0  0  0  0  0  0  0  0  0  0  0  0
  133.0260  124.5320   58.9660 C   0  0  0  0  0  0  0  0  0  0  0  0
  131.6200  124.0760   59.2120 C   0  0  0  0  0  0  0  0  0  0  0  0
  130.4310  124.5630   58.6690 C   0  0  0  0  0  0  0  0  0  0  0  0
  129.1930  124.1150   59.1470 C   0  0  0  0  0  0  0  0  0  0  0  0
  127.9110  124.6320   58.5570 C   0  0  0  0  0  0  0  0  0  0  0  0
  127.6320  125.9190   58.6900 N   0  0  0  0  0  0  0  0  0  0  0  0
  126.5040  126.2630   58.1220 C   0  0  0  0  0  0  0  0  0  0  0  0
  125.9220  127.5200   58.0690 N   0  0  0  0  0  0  0  0  0  0  0  0
  126.4940  128.6650   57.6230 C   0  0  0  0  0  0  0  0  0  0  0  0
  127.6390  128.7320   57.1720 O   0  0  0  0  0  0  0  0  0  0  0  0
  125.6500  129.9610   57.6580 C   0  0  0  0  0  0  0  0  0  0  0  0
  125.4380  130.4730   59.0250 N   0  0  0  0  0  0  0  0  0  0  0  0
  124.0290  130.8010   59.2900 C   0  0  0  0  0  0  0  0  0  0  0  0
  123.9040  131.5750   60.6220 C   0  0  0  0  0  0  0  0  0  0  0  0
  124.7150  130.9480   61.7560 C   0  0  0  0  0  0  0  0  0  0  0  0
  124.5200  131.3410   63.0840 C   0  0  0  0  0  0  0  0  0  0  0  0
  125.2860  130.7980   64.1130 C   0  0  0  0  0  0  0  0  0  0  0  0
  126.2600  129.8480   63.8220 C   0  0  0  0  0  0  0  0  0  0  0  0
  126.4580  129.4410   62.5050 C   0  0  0  0  0  0  0  0  0  0  0  0
  125.6970  129.9790   61.4620 C   0  0  0  0  0  0  0  0  0  0  0  0
  125.8750  129.4900   60.0240 C   0  0  0  0  0  0  0  0  0  0  0  0
  125.6670  124.9660   57.3620 S   0  0  0  0  0  0  0  0  0  0  0  0
  126.9410  123.8790   57.8610 C   0  0  0  0  0  0  0  0  0  0  0  0
  126.8550  122.4020   57.5470 C   0  0  0  0  0  0  0  0  0  0  0  0
  129.1770  123.2100   60.2190 C   0  0  0  0  0  0  0  0  0  0  0  0
  130.3650  122.7360   60.7760 C   0  0  0  0  0  0  0  0  0  0  0  0
  131.5960  123.1260   60.2330 C   0  0  0  0  0  0  0  0  0  0  0  0
  131.4520  120.0790   61.1700 C   0  0  0  0  0  0  0  0  0  0  0  0
  131.0140  118.8000   60.8360 C   0  0  0  0  0  0  0  0  0  0  0  0
  1  2  1  0
  2  3  2  0
  3  4  1  0
  4  5  2  0
  5  6  1  0
  6  7  2  0
  6  8  1  0
  8  9  1  0
  9 10  1  0
 10 11  1  0
 11 12  2  0
 12 13  1  0
 13 14  1  0
 14 15  1  0
 15 16  2  0
 16 17  1  0
 17 18  1  0
 18 19  2  0
 18 20  1  0
 20 21  1  0
 21 22  1  0
 22 23  1  0
 23 24  1  0
 24 25  2  0
 25 26  1  0
 26 27  2  0
 27 28  1  0
 28 29  2  0
 29 30  1  0
 16 31  1  0
 31 32  1  0
 32 33  1  0
 13 34  2  0
 34 35  1  0
 35 36  2  0
  5 37  1  0
 37 38  2  0
 38  2  1  0
 36  8  1  0
 36 11  1  0
 32 14  2  0
 30 21  1  0
 29 24  1  0
M  END
>  <Binding energies>  (45) 
[-9.79]

>  <Ligand effiencies>  (45) 
[-0.251025641025641]

>  <Interactions>  (45) 
["V-B:TYR:539:CE1:9847, V-A:ILE:369:CG2:3234, V-B:ILE:369:CG2:8208, V-A:ILE:369:CD1:3236, H-A:GLY:454:N:4047, V-B:ILE:369:CD1:8210, V-A:ASP:366:CG:3210, V-A:LEU:475:CD2:4256, V-A:TYR:539:CE1:4873, V-B:TYR:531:CE2:9765, V-B:PRO:540:CA:9855, V-B:ASP:366:CG:8184, V-B:PRO:540:CB:9857, V-B:PRO:540:CD:9859, V-B:TYR:539:CD1:9845, V-B:ASP:366:CB:8183, V-B:PRO:540:N:9856, H-B:TYR:531:OH:9767, V-B:ILE:369:CB:8207, H-A:TYR:539:OH:4876, V-B:TYR:539:C:9839, V-A:ASP:366:CA:3207, V-A:ASP:366:CB:3209, V-B:TYR:539:CZ:9849, V-A:TYR:539:CZ:4875, V-B:TYR:531:CZ:9766, V-B:GLY:454:CA:9020, V-A:ILE:369:CB:3233, V-B:ASP:366:CA:8181, H-B:ASP:366:OD2:8186, V-A:PRO:482:CG:4324, V-B:TYR:539:CA:9841, V-A:LEU:373:CD1:3277, V-A:SER:385:CA:3404, V-A:SER:385:CB:3406, V-A:SER:385:C:3402, H-B:ASP:366:OD1:8185"]

$$$$
RR21_Rahimova_2017
     RDKit          3D

 40 45  0  0  0  0  0  0  0  0999 V2000
  131.0390  126.9920   67.4970 C   0  0  0  0  0  0  0  0  0  0  0  0
  132.0940  126.5440   66.6520 O   0  0  0  0  0  0  0  0  0  0  0  0
  131.8130  125.6510   65.6350 C   0  0  0  0  0  0  0  0  0  0  0  0
  132.4270  125.6730   64.3710 C   0  0  0  0  0  0  0  0  0  0  0  0
  132.0880  124.7320   63.4000 C   0  0  0  0  0  0  0  0  0  0  0  0
  131.1330  123.7440   63.6660 C   0  0  0  0  0  0  0  0  0  0  0  0
  130.7740  122.7300   62.6230 C   0  0  0  0  0  0  0  0  0  0  0  0
  131.5030  121.6390   62.4910 N   0  0  0  0  0  0  0  0  0  0  0  0
  130.9530  120.9270   61.4960 N   0  0  0  0  0  0  0  0  0  0  0  0
  131.4840  119.6710   61.1020 C   0  0  0  0  0  0  0  0  0  0  0  0
  130.6670  118.5310   61.0520 C   0  0  0  0  0  0  0  0  0  0  0  0
  131.1990  117.3050   60.6590 C   0  0  0  0  0  0  0  0  0  0  0  0
  132.5460  117.2140   60.3170 C   0  0  0  0  0  0  0  0  0  0  0  0
  133.3680  118.3380   60.3660 C   0  0  0  0  0  0  0  0  0  0  0  0
  132.8390  119.5650   60.7590 C   0  0  0  0  0  0  0  0  0  0  0  0
  129.8480  121.5750   61.0030 C   0  0  0  0  0  0  0  0  0  0  0  0
  129.7030  122.7650   61.7010 C   0  0  0  0  0  0  0  0  0  0  0  0
  128.6530  123.7630   61.5660 C   0  0  0  0  0  0  0  0  0  0  0  0
  128.5380  124.7360   60.6340 C   0  0  0  0  0  0  0  0  0  0  0  0
  129.6440  125.0970   59.2900 S   0  0  0  0  0  0  0  0  0  0  0  0
  128.5790  126.3990   58.7800 C   0  0  0  0  0  0  0  0  0  0  0  0
  128.7190  127.1900   57.7620 N   0  0  0  0  0  0  0  0  0  0  0  0
  127.7700  128.2020   57.4520 C   0  0  0  0  0  0  0  0  0  0  0  0
  127.8190  128.9760   56.4960 O   0  0  0  0  0  0  0  0  0  0  0  0
  126.6180  128.2720   58.4170 C   0  0  0  0  0  0  0  0  0  0  0  0
  125.5400  129.3400   58.1950 C   0  0  0  0  0  0  0  0  0  0  0  0
  125.2440  130.2000   59.4220 C   0  0  0  0  0  0  0  0  0  0  0  0
  124.1500  131.0700   59.4200 C   0  0  0  0  0  0  0  0  0  0  0  0
  123.8710  131.8420   60.5450 C   0  0  0  0  0  0  0  0  0  0  0  0
  124.6840  131.7440   61.6760 C   0  0  0  0  0  0  0  0  0  0  0  0
  124.3680  132.5790   62.9040 C   0  0  0  0  0  0  0  0  0  0  0  0
  125.7710  130.8670   61.6850 C   0  0  0  0  0  0  0  0  0  0  0  0
  126.0500  130.0960   60.5600 C   0  0  0  0  0  0  0  0  0  0  0  0
  126.4940  127.4800   59.4320 N   0  0  0  0  0  0  0  0  0  0  0  0
  127.4980  126.5200   59.6130 N   0  0  0  0  0  0  0  0  0  0  0  0
  127.4060  125.6530   60.6520 C   0  0  0  0  0  0  0  0  0  0  0  0
  126.4910  125.6430   61.4830 O   0  0  0  0  0  0  0  0  0  0  0  0
  130.5170  123.7240   64.9220 C   0  0  0  0  0  0  0  0  0  0  0  0
  130.8540  124.6650   65.8950 C   0  0  0  0  0  0  0  0  0  0  0  0
  130.2410  124.6180   67.1010 F   0  0  0  0  0  0  0  0  0  0  0  0
  1  2  1  0
  2  3  1  0
  3  4  2  0
  4  5  1  0
  5  6  2  0
  6  7  1  0
  7  8  2  0
  8  9  1  0
  9 10  1  0
 10 11  2  0
 11 12  1  0
 12 13  2  0
 13 14  1  0
 14 15  2  0
  9 16  1  0
 16 17  2  0
 17 18  1  0
 18 19  2  0
 19 20  1  0
 20 21  1  0
 21 22  2  0
 22 23  1  0
 23 24  2  0
 23 25  1  0
 25 26  1  0
 26 27  1  0
 27 28  2  0
 28 29  1  0
 29 30  2  0
 30 31  1  0
 30 32  1  0
 32 33  2  0
 25 34  2  0
 34 35  1  0
 35 36  1  0
 36 37  2  0
  6 38  1  0
 38 39  2  0
 39 40  1  0
 39  3  1  0
 17  7  1  0
 36 19  1  0
 15 10  1  0
 35 21  1  0
 33 27  1  0
M  END
>  <Binding energies>  (46) 
[-8.87]

>  <Ligand effiencies>  (46) 
[-0.22174999999999997]

>  <Interactions>  (46) 
["V-A:ARG:545:CZ:4924, H-B:ARG:545:NH2:9900, H-A:ARG:545:NE:4922, V-B:ALA:541:CB:9864, V-B:TYR:539:CE1:9847, V-A:ILE:369:CG2:3234, V-B:ILE:369:CG2:8208, V-B:ILE:369:CD1:8210, V-A:LEU:475:CD2:4256, V-A:TYR:539:CE1:4873, V-B:ASP:366:CG:8184, V-B:LEU:475:CD2:9230, V-B:TYR:539:CD1:9845, V-B:ASP:366:CB:8183, V-B:ILE:369:CB:8207, V-B:GLU:543:CD:9880, V-B:GLU:543:CG:9879, V-B:GLU:543:CB:9878, V-A:HIS:456:CE1:4066, V-A:TYR:539:CZ:4875, V-A:GLU:543:CD:4906, V-A:GLU:543:CG:4905, V-B:GLY:454:CA:9020, V-B:ASP:366:CA:8181, V-A:PRO:482:CB:4323, V-A:TYR:484:CZ:4344, V-A:TYR:484:CE2:4343, V-A:PRO:482:CG:4324, V-A:ARG:545:CG:4920, V-A:LEU:373:CD1:3277, V-A:SER:385:CA:3404, V-A:SER:385:CB:3406, V-B:GLU:543:CA:9876"]

$$$$
RR23_Rahimova_2017
     RDKit          3D

 39 44  0  0  0  0  0  0  0  0999 V2000
  133.2500  131.5260   61.6340 C   0  0  0  0  0  0  0  0  0  0  0  0
  132.2220  131.5900   60.5190 C   0  0  0  0  0  0  0  0  0  0  0  0
  132.6220  131.4370   59.1910 C   0  0  0  0  0  0  0  0  0  0  0  0
  131.6770  131.4870   58.1700 C   0  0  0  0  0  0  0  0  0  0  0  0
  130.3260  131.7010   58.4670 C   0  0  0  0  0  0  0  0  0  0  0  0
  129.3130  131.7310   57.3450 C   0  0  0  0  0  0  0  0  0  0  0  0
  129.4040  132.6410   56.5170 O   0  0  0  0  0  0  0  0  0  0  0  0
  128.3570  130.7580   57.2800 N   0  0  0  0  0  0  0  0  0  0  0  0
  127.2810  130.8010   56.2760 C   0  0  0  0  0  0  0  0  0  0  0  0
  126.5130  129.4970   56.4150 C   0  0  0  0  0  0  0  0  0  0  0  0
  127.4410  128.6490   57.2320 C   0  0  0  0  0  0  0  0  0  0  0  0
  127.3090  127.3110   57.6050 C   0  0  0  0  0  0  0  0  0  0  0  0
  128.2120  126.7360   58.5130 C   0  0  0  0  0  0  0  0  0  0  0  0
  128.1030  125.2670   58.9500 C   0  0  2  0  0  0  0  0  0  0  0  0
  129.1090  124.9140   59.9290 N   0  0  0  0  0  0  0  0  0  0  0  0
  129.4690  123.6980   59.8200 C   0  0  0  0  0  0  0  0  0  0  0  0
  130.4050  123.0320   60.5490 N   0  0  0  0  0  0  0  0  0  0  0  0
  131.2720  123.5310   61.4620 C   0  0  0  0  0  0  0  0  0  0  0  0
  131.3310  124.7080   61.8270 O   0  0  0  0  0  0  0  0  0  0  0  0
  132.2530  122.5140   62.0690 C   0  0  0  0  0  0  0  0  0  0  0  0
  131.8890  121.1550   61.6080 N   0  0  0  0  0  0  0  0  0  0  0  0
  130.5390  120.8380   61.6950 N   0  0  0  0  0  0  0  0  0  0  0  0
  130.0910  119.6810   61.3250 N   0  0  0  0  0  0  0  0  0  0  0  0
  130.9750  118.7220   60.8240 C   0  0  0  0  0  0  0  0  0  0  0  0
  130.4600  117.4830   60.4360 C   0  0  0  0  0  0  0  0  0  0  0  0
  131.3180  116.5040   59.9320 C   0  0  0  0  0  0  0  0  0  0  0  0
  132.6860  116.7610   59.8180 C   0  0  0  0  0  0  0  0  0  0  0  0
  133.2030  117.9980   60.2060 C   0  0  0  0  0  0  0  0  0  0  0  0
  132.3420  118.9810   60.7090 C   0  0  0  0  0  0  0  0  0  0  0  0
  132.8820  120.3250   61.1390 C   0  0  0  0  0  0  0  0  0  0  0  0
  134.0760  120.6340   61.0840 O   0  0  0  0  0  0  0  0  0  0  0  0
  128.6710  122.7270   58.5490 S   0  0  0  0  0  0  0  0  0  0  0  0
  128.1000  124.2540   57.7820 C   0  0  2  0  0  0  0  0  0  0  0  0
  129.0070  124.5820   56.5780 C   0  0  0  0  0  0  0  0  0  0  0  0
  129.2120  127.5400   59.0710 C   0  0  0  0  0  0  0  0  0  0  0  0
  129.3310  128.8840   58.7150 C   0  0  0  0  0  0  0  0  0  0  0  0
  128.4770  129.4300   57.7470 C   0  0  0  0  0  0  0  0  0  0  0  0
  129.9280  131.8270   59.8050 C   0  0  0  0  0  0  0  0  0  0  0  0
  130.8730  131.7760   60.8260 C   0  0  0  0  0  0  0  0  0  0  0  0
  1  2  1  0
  2  3  2  0
  3  4  1  0
  4  5  2  0
  5  6  1  0
  6  7  2  0
  6  8  1  0
  8  9  1  0
  9 10  1  0
 10 11  1  0
 11 12  2  0
 12 13  1  0
 14 13  1  6
 14 15  1  0
 15 16  2  0
 16 17  1  0
 17 18  1  0
 18 19  2  0
 18 20  1  0
 20 21  1  0
 21 22  1  0
 22 23  2  0
 23 24  1  0
 24 25  2  0
 25 26  1  0
 26 27  2  0
 27 28  1  0
 28 29  2  0
 29 30  1  0
 30 31  2  0
 16 32  1  0
 32 33  1  0
 33 34  1  6
 13 35  2  0
 35 36  1  0
 36 37  2  0
  5 38  1  0
 38 39  2  0
 39  2  1  0
 37  8  1  0
 37 11  1  0
 33 14  1  0
 30 21  1  0
 29 24  1  0
M  END
>  <Binding energies>  (47) 
[-10.24]

>  <Ligand effiencies>  (47) 
[-0.256]

>  <Interactions>  (47) 
["V-A:PRO:540:CA:4881, V-B:TYR:539:CE1:9847, V-A:ILE:369:CG2:3234, V-A:PRO:540:CB:4883, V-A:ASP:366:CG:3210, V-A:LEU:475:CD2:4256, V-A:TYR:539:CE1:4873, V-B:TYR:539:CD1:9845, V-A:TYR:539:CZ:4875, V-A:PRO:540:C:4879, H-A:TYR:539:N:4868, V-B:MET:535:CE:9807, V-A:MET:535:CE:4833, V-A:PRO:482:CB:4323, V-A:TYR:539:CE2:4874, V-A:PRO:482:CG:4324, V-B:TYR:539:CB:9843, H-B:TYR:539:O:9840, V-A:ASN:362:CB:3173, V-A:LEU:373:CD1:3277, V-A:SER:385:CA:3404, V-A:SER:385:CB:3406, V-B:VAL:344:CG1:7972"]

$$$$
RR26_Rahimova_2017
     RDKit          3D

 38 44  0  0  0  0  0  0  0  0999 V2000
  133.6320  121.3200   60.8690 C   0  0  0  0  0  0  0  0  0  0  0  0
  132.5780  120.2270   60.9890 C   0  0  0  0  0  0  0  0  0  0  0  0
  133.0090  118.9020   61.1160 C   0  0  0  0  0  0  0  0  0  0  0  0
  132.0910  117.8660   61.2700 C   0  0  0  0  0  0  0  0  0  0  0  0
  130.7290  118.1470   61.3060 C   0  0  0  0  0  0  0  0  0  0  0  0
  130.2860  119.4620   61.1810 C   0  0  0  0  0  0  0  0  0  0  0  0
  131.1960  120.5180   61.0160 C   0  0  0  0  0  0  0  0  0  0  0  0
  130.6350  121.9030   60.8740 C   0  0  0  0  0  0  0  0  0  0  0  0
  131.4030  122.9590   60.6170 N   0  0  0  0  0  0  0  0  0  0  0  0
  130.5260  123.9250   60.5650 C   0  0  0  0  0  0  0  0  0  0  0  0
  130.5760  125.6280   60.2960 S   0  0  0  0  0  0  0  0  0  0  0  0
  128.7830  125.6860   60.4820 C   0  0  0  0  0  0  0  0  0  0  0  0
  127.9780  126.7700   60.4080 C   0  0  0  0  0  0  0  0  0  0  0  0
  128.3560  128.1510   60.1560 C   0  0  0  0  0  0  0  0  0  0  0  0
  129.2280  128.6390   59.1950 C   0  0  0  0  0  0  0  0  0  0  0  0
  129.2460  130.0070   59.2970 N   0  0  0  0  0  0  0  0  0  0  0  0
  129.9860  130.9350   58.5190 C   0  0  0  0  0  0  0  0  0  0  0  0
  131.3510  131.1470   58.7610 C   0  0  0  0  0  0  0  0  0  0  0  0
  132.0650  132.0630   57.9920 C   0  0  0  0  0  0  0  0  0  0  0  0
  131.4180  132.7670   56.9800 C   0  0  0  0  0  0  0  0  0  0  0  0
  130.0630  132.5630   56.7270 C   0  0  0  0  0  0  0  0  0  0  0  0
  129.3470  131.6500   57.4950 C   0  0  0  0  0  0  0  0  0  0  0  0
  128.4040  130.4130   60.2590 N   0  0  0  0  0  0  0  0  0  0  0  0
  127.8740  129.3240   60.7800 C   0  0  0  0  0  0  0  0  0  0  0  0
  126.8870  129.4380   61.9010 C   0  0  0  0  0  0  0  0  0  0  0  0
  125.5480  129.7670   61.6370 C   0  0  0  0  0  0  0  0  0  0  0  0
  124.6210  129.8790   62.6740 C   0  0  0  0  0  0  0  0  0  0  0  0
  125.0280  129.6630   63.9890 C   0  0  0  0  0  0  0  0  0  0  0  0
  126.3590  129.3160   64.2640 C   0  0  0  0  0  0  0  0  0  0  0  0
  127.2840  129.2110   63.2270 C   0  0  0  0  0  0  0  0  0  0  0  0
  126.8180  129.1370   65.5550 O   0  0  0  0  0  0  0  0  0  0  0  0
  125.7840  128.8960   66.5140 C   0  0  0  0  0  0  0  0  0  0  0  0
  124.6040  129.8750   66.3010 C   0  0  0  0  0  0  0  0  0  0  0  0
  124.0690  129.7370   64.9800 O   0  0  0  0  0  0  0  0  0  0  0  0
  128.2100  124.3710   60.7540 C   0  0  0  0  0  0  0  0  0  0  0  0
  127.0320  124.0590   60.9370 O   0  0  0  0  0  0  0  0  0  0  0  0
  129.2800  123.4640   60.7760 N   0  0  0  0  0  0  0  0  0  0  0  0
  129.3370  122.1440   60.9750 N   0  0  0  0  0  0  0  0  0  0  0  0
  1  2  1  0
  2  3  2  0
  3  4  1  0
  4  5  2  0
  5  6  1  0
  6  7  2  0
  7  8  1  0
  8  9  1  0
  9 10  2  0
 10 11  1  0
 11 12  1  0
 12 13  2  0
 13 14  1  0
 14 15  2  0
 15 16  1  0
 16 17  1  0
 17 18  2  0
 18 19  1  0
 19 20  2  0
 20 21  1  0
 21 22  2  0
 16 23  1  0
 23 24  2  0
 24 25  1  0
 25 26  2  0
 26 27  1  0
 27 28  2  0
 28 29  1  0
 29 30  2  0
 29 31  1  0
 31 32  1  0
 32 33  1  0
 33 34  1  0
 12 35  1  0
 35 36  2  0
 35 37  1  0
 37 38  1  0
  7  2  1  0
 38  8  2  0
 37 10  1  0
 24 14  1  0
 30 25  1  0
 22 17  1  0
 34 28  1  0
M  END
>  <Binding energies>  (48) 
[-8.63]

>  <Ligand effiencies>  (48) 
[-0.22710526315789475]

>  <Interactions>  (48) 
["V-A:PRO:540:CA:4881, H-B:ARG:545:NH2:9900, V-A:ILE:538:CB:4860, V-B:ALA:541:CB:9864, V-B:TYR:539:CE1:9847, V-A:ILE:369:CG2:3234, V-A:PRO:540:CD:4885, V-A:PRO:540:CB:4883, V-B:ARG:545:CZ:9898, V-A:ILE:369:CD1:3236, V-A:PRO:540:N:4882, V-A:LEU:475:CD2:4256, V-B:ASP:366:CG:8184, H-B:TYR:484:OH:9319, V-B:TYR:539:CD1:9845, H-B:GLY:454:N:9021, H-B:ARG:545:NE:9896, V-B:TYR:539:C:9839, V-B:HIS:456:CE1:9040, V-B:GLY:454:CA:9020, V-A:TYR:539:C:4865, H-B:ARG:545:NH1:9899, V-A:PRO:482:CB:4323, V-B:TYR:484:CZ:9318, V-A:PRO:482:CG:4324, V-A:SER:385:CA:3404, V-A:SER:385:CB:3406, V-A:LEU:475:CG:4254, V-B:ARG:545:CG:9894, V-B:ARG:545:CD:9895"]

$$$$
RR2_Rahimova_2017
     RDKit          3D

 46 50  0  0  0  0  0  0  0  0999 V2000
  130.6320  127.7200   68.7080 C   0  0  0  0  0  0  0  0  0  0  0  0
  129.2630  127.4500   68.9860 O   0  0  0  0  0  0  0  0  0  0  0  0
  128.2890  127.9950   68.1710 C   0  0  0  0  0  0  0  0  0  0  0  0
  127.0090  127.4500   67.9950 C   0  0  0  0  0  0  0  0  0  0  0  0
  126.0930  128.0680   67.1480 C   0  0  0  0  0  0  0  0  0  0  0  0
  126.4330  129.2400   66.4580 C   0  0  0  0  0  0  0  0  0  0  0  0
  125.4190  129.8890   65.5360 C   0  0  0  0  0  0  0  0  0  0  0  0
  124.2090  129.7160   65.7200 O   0  0  0  0  0  0  0  0  0  0  0  0
  125.9290  130.6330   64.5270 N   0  0  0  0  0  0  0  0  0  0  0  0
  125.0470  131.1750   63.5990 N   0  0  0  0  0  0  0  0  0  0  0  0
  125.3970  132.3190   62.9780 C   0  0  0  0  0  0  0  0  0  0  0  0
  126.3580  133.0270   63.2930 O   0  0  0  0  0  0  0  0  0  0  0  0
  124.5190  132.7190   61.7850 C   0  0  0  0  0  0  0  0  0  0  0  0
  124.7690  131.7220   60.2710 S   0  0  0  0  0  0  0  0  0  0  0  0
  125.6670  130.3500   60.9290 C   0  0  0  0  0  0  0  0  0  0  0  0
  125.1360  129.4750   61.7460 N   0  0  0  0  0  0  0  0  0  0  0  0
  126.1370  128.5880   62.1160 N   0  0  0  0  0  0  0  0  0  0  0  0
  127.2310  128.9430   61.4840 C   0  0  0  0  0  0  0  0  0  0  0  0
  128.5280  128.2120   61.6140 C   0  0  0  0  0  0  0  0  0  0  0  0
  129.1210  127.6440   60.4840 C   0  0  0  0  0  0  0  0  0  0  0  0
  130.3250  126.9550   60.5960 C   0  0  0  0  0  0  0  0  0  0  0  0
  130.9570  126.8430   61.8400 C   0  0  0  0  0  0  0  0  0  0  0  0
  132.1660  126.1510   62.0140 N   0  0  0  0  0  0  0  0  0  0  0  0
  132.4700  124.9500   63.2880 S   0  0  0  0  0  0  0  0  0  0  0  0
  131.2370  124.8810   64.0810 O   0  0  0  0  0  0  0  0  0  0  0  0
  133.7550  125.2720   63.9200 O   0  0  0  0  0  0  0  0  0  0  0  0
  132.6190  123.3850   62.4300 C   0  0  0  0  0  0  0  0  0  0  0  0
  131.4810  122.6720   62.0460 C   0  0  0  0  0  0  0  0  0  0  0  0
  131.6180  121.4500   61.3940 C   0  0  0  0  0  0  0  0  0  0  0  0
  132.8910  120.9440   61.1210 C   0  0  0  0  0  0  0  0  0  0  0  0
  133.0390  119.6040   60.4230 C   0  0  0  0  0  0  0  0  0  0  0  0
  134.0280  121.6560   61.5090 C   0  0  0  0  0  0  0  0  0  0  0  0
  133.8920  122.8780   62.1630 C   0  0  0  0  0  0  0  0  0  0  0  0
  130.3660  127.4130   62.9670 C   0  0  0  0  0  0  0  0  0  0  0  0
  129.1580  128.0970   62.8570 C   0  0  0  0  0  0  0  0  0  0  0  0
  127.0030  130.0670   60.7090 N   0  0  0  0  0  0  0  0  0  0  0  0
  127.9210  130.7870   59.9170 C   0  0  0  0  0  0  0  0  0  0  0  0
  127.7690  130.8190   58.5300 C   0  0  0  0  0  0  0  0  0  0  0  0
  128.6760  131.5350   57.7540 C   0  0  0  0  0  0  0  0  0  0  0  0
  129.7360  132.2200   58.3500 C   0  0  0  0  0  0  0  0  0  0  0  0
  130.5840  132.9010   57.4980 O   0  0  0  0  0  0  0  0  0  0  0  0
  131.8170  132.2980   57.1160 C   0  0  0  0  0  0  0  0  0  0  0  0
  129.8810  132.1820   59.7470 C   0  0  0  0  0  0  0  0  0  0  0  0
  128.9760  131.4690   60.5270 C   0  0  0  0  0  0  0  0  0  0  0  0
  127.7140  129.7820   66.6440 C   0  0  0  0  0  0  0  0  0  0  0  0
  128.6280  129.1630   67.4920 C   0  0  0  0  0  0  0  0  0  0  0  0
  1  2  1  0
  2  3  1  0
  3  4  2  0
  4  5  1  0
  5  6  2  0
  6  7  1  0
  7  8  2  0
  7  9  1  0
  9 10  1  0
 10 11  1  0
 11 12  2  0
 11 13  1  0
 13 14  1  0
 14 15  1  0
 15 16  2  0
 16 17  1  0
 17 18  2  0
 18 19  1  0
 19 20  2  0
 20 21  1  0
 21 22  2  0
 22 23  1  0
 23 24  1  0
 24 25  2  0
 24 26  2  0
 24 27  1  0
 27 28  2  0
 28 29  1  0
 29 30  2  0
 30 31  1  0
 30 32  1  0
 32 33  2  0
 22 34  1  0
 34 35  2  0
 18 36  1  0
 36 37  1  0
 37 38  2  0
 38 39  1  0
 39 40  2  0
 40 41  1  0
 41 42  1  0
 40 43  1  0
 43 44  2  0
  6 45  1  0
 45 46  2  0
 46  3  1  0
 36 15  1  0
 44 37  1  0
 35 19  1  0
 33 27  1  0
M  END
>  <Binding energies>  (49) 
[-9.38]

>  <Ligand effiencies>  (49) 
[-0.19142857142857145]

>  <Interactions>  (49) 
["V-A:PRO:540:CA:4881, V-A:ARG:545:CZ:4924, H-B:ARG:545:NH2:9900, H-A:ARG:545:NE:4922, V-A:GLY:454:CA:4046, V-B:TYR:539:CE1:9847, V-A:ILE:369:CG2:3234, V-B:ILE:369:CG2:8208, V-A:PRO:540:CD:4885, V-A:PRO:540:CB:4883, V-B:ARG:545:CZ:9898, V-A:ILE:369:CD1:3236, H-A:GLY:454:N:4047, H-A:TYR:484:OH:4345, V-A:PRO:540:N:4882, V-B:ILE:369:CD1:8210, V-A:ASP:366:CG:3210, V-A:LEU:475:CD2:4256, V-A:TYR:539:CE1:4873, H-A:ARG:545:NH2:4926, H-B:TYR:484:OH:9319, V-B:LEU:475:CD2:9230, V-B:TYR:539:CD1:9845, H-B:GLY:454:N:9021, H-B:ARG:545:NE:9896, V-B:GLU:543:CD:9880, V-B:GLU:543:CG:9879, V-A:HIS:456:CE1:4066, H-A:GLU:543:OE1:4907, V-B:HIS:456:CE1:9040, V-A:GLU:543:CB:4904, V-A:TYR:539:CZ:4875, V-A:GLU:543:CD:4906, V-A:GLU:543:CG:4905, V-A:GLU:543:C:4900, H-A:HIS:456:NE2:4067, V-B:GLY:454:CA:9020, V-A:TYR:539:C:4865, H-A:ASP:366:OD2:3212, H-A:TYR:539:N:4868, H-A:ASP:366:OD1:3211, H-A:ARG:545:NH1:4925, V-B:TYR:484:CE2:9317, V-B:TYR:484:CZ:9318, V-A:LEU:373:CD1:3277, V-A:SER:385:CA:3404, H-B:ASP:366:OD1:8185, V-B:ARG:545:CG:9894, V-B:ARG:545:CD:9895, V-A:GLU:543:CA:4902"]

$$$$
RR33_Rahimova_2017
     RDKit          3D

 18 19  0  0  0  0  0  0  0  0999 V2000
  131.8040  125.7070   65.7600 C   0  0  0  0  0  0  0  0  0  0  0  0
  133.2460  125.3710   65.3650 C   0  0  0  0  0  0  0  0  0  0  0  0
  133.2250  124.6170   64.1560 O   0  0  0  0  0  0  0  0  0  0  0  0
  132.0150  124.3500   63.5440 C   0  0  0  0  0  0  0  0  0  0  0  0
  131.5620  125.2960   62.6250 C   0  0  0  0  0  0  0  0  0  0  0  0
  130.3520  125.1140   61.9610 C   0  0  0  0  0  0  0  0  0  0  0  0
  129.5750  123.9780   62.2080 C   0  0  0  0  0  0  0  0  0  0  0  0
  128.2750  123.7850   61.4950 C   0  0  0  0  0  0  0  0  0  0  0  0
  128.0620  123.7890   60.1980 N   0  0  0  0  0  0  0  0  0  0  0  0
  126.7630  123.5770   60.0550 C   0  0  0  0  0  0  0  0  0  0  0  0
  126.1340  123.5020   58.6810 C   0  0  0  0  0  0  0  0  0  0  0  0
  124.7250  123.8600   58.7410 N   0  0  0  0  0  0  0  0  0  0  0  0
  124.1500  123.9090   57.4070 C   0  0  0  0  0  0  0  0  0  0  0  0
  126.1730  123.4410   61.3050 C   0  0  0  0  0  0  0  0  0  0  0  0
  124.7730  123.1880   61.8090 C   0  0  0  0  0  0  0  0  0  0  0  0
  127.1510  123.5770   62.2300 O   0  0  0  0  0  0  0  0  0  0  0  0
  130.0280  123.0260   63.1260 C   0  0  0  0  0  0  0  0  0  0  0  0
  131.2380  123.2080   63.7910 C   0  0  0  0  0  0  0  0  0  0  0  0
  1  2  1  0
  2  3  1  0
  3  4  1  0
  4  5  2  0
  5  6  1  0
  6  7  2  0
  7  8  1  0
  8  9  2  0
  9 10  1  0
 10 11  1  0
 11 12  1  0
 12 13  1  0
 10 14  2  0
 14 15  1  0
 14 16  1  0
  7 17  1  0
 17 18  2  0
 18  4  1  0
 16  8  1  0
M  END
>  <Binding energies>  (50) 
[-5.3]

>  <Ligand effiencies>  (50) 
[-0.2789473684210526]

>  <Interactions>  (50) 
["V-A:ARG:545:CZ:4924, V-B:ALA:541:CB:9864, H-A:GLY:454:N:4047, H-A:TYR:484:OH:4345, V-B:TYR:531:CE2:9765, V-B:PRO:540:CA:9855, V-B:PRO:540:CB:9857, V-B:LEU:363:CD1:8160, V-B:LEU:363:CA:8156, V-B:PRO:540:N:9856, V-A:HIS:456:CE1:4066, H-B:ALA:541:N:9863, V-B:TYR:531:CZ:9766, H-B:ASP:366:OD2:8186, V-B:PRO:540:C:9853, V-B:ASN:362:CB:8147, V-A:ARG:545:CG:4920, V-A:ARG:545:CD:4921"]

$$$$
RR3_Rahimova_2017
     RDKit          3D

 38 44  0  0  0  0  0  0  0  0999 V2000
  129.7500  130.9900   57.0800 C   0  0  0  0  0  0  0  0  0  0  0  0
  131.0640  130.7640   57.4770 C   0  0  0  0  0  0  0  0  0  0  0  0
  131.3990  129.5630   58.0960 C   0  0  0  0  0  0  0  0  0  0  0  0
  130.4300  128.5750   58.3240 C   0  0  0  0  0  0  0  0  0  0  0  0
  130.7930  127.2830   58.9890 C   0  0  0  0  0  0  0  0  0  0  0  0
  131.4330  126.2610   58.2760 C   0  0  0  0  0  0  0  0  0  0  0  0
  131.7670  125.0590   58.8930 C   0  0  0  0  0  0  0  0  0  0  0  0
  131.4600  124.8490   60.2400 C   0  0  0  0  0  0  0  0  0  0  0  0
  131.8110  123.5570   60.9090 C   0  0  0  0  0  0  0  0  0  0  0  0
  132.1240  122.4930   60.1770 N   0  0  0  0  0  0  0  0  0  0  0  0
  132.4260  121.5340   61.0190 C   0  0  0  0  0  0  0  0  0  0  0  0
  132.8310  120.1820   60.6440 C   0  0  0  0  0  0  0  0  0  0  0  0
  134.1260  119.7670   60.3840 C   0  0  0  0  0  0  0  0  0  0  0  0
  134.1410  118.4320   60.0720 N   0  0  0  0  0  0  0  0  0  0  0  0
  132.8610  117.9270   60.1130 C   0  0  0  0  0  0  0  0  0  0  0  0
  132.3810  116.6350   59.8720 C   0  0  0  0  0  0  0  0  0  0  0  0
  131.0060  116.4370   59.9960 C   0  0  0  0  0  0  0  0  0  0  0  0
  130.1440  117.4720   60.3430 C   0  0  0  0  0  0  0  0  0  0  0  0
  130.6220  118.7580   60.5840 C   0  0  0  0  0  0  0  0  0  0  0  0
  132.0010  119.0120   60.4720 C   0  0  0  0  0  0  0  0  0  0  0  0
  132.3050  121.9630   62.3120 N   0  0  0  0  0  0  0  0  0  0  0  0
  131.8840  123.2670   62.2820 C   0  0  0  0  0  0  0  0  0  0  0  0
  131.5850  124.0510   63.5180 C   0  0  0  0  0  0  0  0  0  0  0  0
  130.6680  123.5660   64.4500 C   0  0  0  0  0  0  0  0  0  0  0  0
  130.3770  124.2990   65.5960 C   0  0  0  0  0  0  0  0  0  0  0  0
  131.0000  125.5320   65.8400 C   0  0  0  0  0  0  0  0  0  0  0  0
  130.6700  126.3270   67.0640 C   0  0  0  0  0  0  0  0  0  0  0  0
  129.4450  126.1540   67.7260 C   0  0  0  0  0  0  0  0  0  0  0  0
  129.1400  126.8920   68.8680 C   0  0  0  0  0  0  0  0  0  0  0  0
  130.0610  127.8110   69.3610 C   0  0  0  0  0  0  0  0  0  0  0  0
  131.2820  127.9970   68.7220 C   0  0  0  0  0  0  0  0  0  0  0  0
  131.5820  127.2600   67.5800 C   0  0  0  0  0  0  0  0  0  0  0  0
  131.9330  126.0000   64.9040 C   0  0  0  0  0  0  0  0  0  0  0  0
  132.2260  125.2690   63.7570 C   0  0  0  0  0  0  0  0  0  0  0  0
  130.8340  125.8660   60.9630 C   0  0  0  0  0  0  0  0  0  0  0  0
  130.5000  127.0670   60.3420 C   0  0  0  0  0  0  0  0  0  0  0  0
  129.1120  128.8260   57.9150 C   0  0  0  0  0  0  0  0  0  0  0  0
  128.7720  130.0250   57.2960 C   0  0  0  0  0  0  0  0  0  0  0  0
  1  2  2  0
  2  3  1  0
  3  4  2  0
  4  5  1  0
  5  6  2  0
  6  7  1  0
  7  8  2  0
  8  9  1  0
  9 10  1  0
 10 11  2  0
 11 12  1  0
 12 13  2  0
 13 14  1  0
 14 15  1  0
 15 16  2  0
 16 17  1  0
 17 18  2  0
 18 19  1  0
 19 20  2  0
 11 21  1  0
 21 22  1  0
 22 23  1  0
 23 24  2  0
 24 25  1  0
 25 26  2  0
 26 27  1  0
 27 28  2  0
 28 29  1  0
 29 30  2  0
 30 31  1  0
 31 32  2  0
 26 33  1  0
 33 34  2  0
  8 35  1  0
 35 36  2  0
  4 37  1  0
 37 38  2  0
 38  1  1  0
 36  5  1  0
 22  9  2  0
 34 23  1  0
 20 12  1  0
 32 27  1  0
 20 15  1  0
M  END
>  <Binding energies>  (51) 
[-8.76]

>  <Ligand effiencies>  (51) 
[-0.219]

>  <Interactions>  (51) 
["V-A:ARG:545:CZ:4924, V-B:TYR:539:CE1:9847, V-A:ILE:369:CG2:3234, V-A:ASP:366:CG:3210, V-A:LEU:475:CD2:4256, V-B:TYR:539:CD1:9845, V-B:TYR:539:CG:9844, V-B:TYR:539:C:9839, V-B:GLU:543:CD:9880, V-B:GLU:543:CG:9879, V-B:GLU:543:CB:9878, V-A:HIS:456:CE1:4066, V-A:ASP:366:CB:3209, V-A:GLU:543:CB:4904, V-A:GLU:543:CD:4906, V-A:GLU:543:CG:4905, V-B:GLU:543:C:9874, V-A:GLU:543:C:4900, V-A:GLY:544:C:4910, V-A:MET:535:CE:4833, V-A:PRO:482:CB:4323, V-A:TYR:484:CZ:4344, V-A:TYR:484:CE2:4343, V-A:PRO:482:CG:4324, V-B:TYR:539:CB:9843, V-A:ARG:545:CG:4920, V-A:LEU:373:CD1:3277, V-A:SER:385:CA:3404, V-A:SER:385:CB:3406, V-A:SER:385:C:3402, H-A:SER:385:O:3403, V-B:VAL:344:CG1:7972, H-A:VAL:384:O:3395, V-A:VAL:384:C:3394"]

$$$$
RR4_Rahimova_2017
     RDKit          3D

 40 44  0  0  0  0  0  0  0  0999 V2000
  131.9440  133.2040   56.3670 C   0  0  0  0  0  0  0  0  0  0  0  0
  130.6930  132.9260   56.9840 O   0  0  0  0  0  0  0  0  0  0  0  0
  130.5290  131.7390   57.6730 C   0  0  0  0  0  0  0  0  0  0  0  0
  130.0150  130.6640   56.9510 C   0  0  0  0  0  0  0  0  0  0  0  0
  129.8180  129.4290   57.5620 C   0  0  0  0  0  0  0  0  0  0  0  0
  130.1270  129.2330   58.9160 C   0  0  0  0  0  0  0  0  0  0  0  0
  129.9110  127.9000   59.5720 C   0  0  0  0  0  0  0  0  0  0  0  0
  130.7130  127.4310   60.6180 C   0  0  0  0  0  0  0  0  0  0  0  0
  130.4690  126.1810   61.2000 C   0  0  0  0  0  0  0  0  0  0  0  0
  131.3500  125.7590   62.3310 C   0  0  0  0  0  0  0  0  0  0  0  0
  130.9970  126.0690   63.6480 C   0  0  0  0  0  0  0  0  0  0  0  0
  131.8050  125.6700   64.7090 C   0  0  0  0  0  0  0  0  0  0  0  0
  132.9770  124.9500   64.4760 C   0  0  0  0  0  0  0  0  0  0  0  0
  133.7150  124.5960   65.5890 O   0  0  0  0  0  0  0  0  0  0  0  0
  133.6380  125.4050   66.7590 C   0  0  0  0  0  0  0  0  0  0  0  0
  133.3320  124.6330   63.1560 C   0  0  0  0  0  0  0  0  0  0  0  0
  132.5220  125.0320   62.0970 C   0  0  0  0  0  0  0  0  0  0  0  0
  129.4110  125.3920   60.6860 C   0  0  0  0  0  0  0  0  0  0  0  0
  129.1120  124.0760   61.2590 C   0  0  0  0  0  0  0  0  0  0  0  0
  128.8760  123.0370   61.7110 N   0  0  0  0  0  0  0  0  0  0  0  0
  128.6590  125.9140   59.6080 C   0  0  0  0  0  0  0  0  0  0  0  0
  127.3060  125.0590   58.8310 S   0  0  0  0  0  0  0  0  0  0  0  0
  126.4080  126.2630   57.7960 C   0  0  0  0  0  0  0  0  0  0  0  0
  126.4040  127.6960   58.3440 C   0  0  0  0  0  0  0  0  0  0  0  0
  126.5650  128.6570   57.5870 O   0  0  0  0  0  0  0  0  0  0  0  0
  126.2290  127.7910   59.6820 N   0  0  0  0  0  0  0  0  0  0  0  0
  126.1760  128.9410   60.4730 C   0  0  0  0  0  0  0  0  0  0  0  0
  127.0830  129.1190   61.9520 S   0  0  0  0  0  0  0  0  0  0  0  0
  126.4420  130.7110   62.2180 C   0  0  0  0  0  0  0  0  0  0  0  0
  125.5550  131.0880   61.1990 C   0  0  0  0  0  0  0  0  0  0  0  0
  125.4170  130.0910   60.2030 C   0  0  0  0  0  0  0  0  0  0  0  0
  124.5690  130.2420   59.0250 C   0  0  0  0  0  0  0  0  0  0  0  0
  123.8950  130.3620   58.0910 N   0  0  0  0  0  0  0  0  0  0  0  0
  124.8850  132.4670   61.1870 C   0  0  0  0  0  0  0  0  0  0  0  0
  125.6100  133.4340   62.1500 C   0  0  0  0  0  0  0  0  0  0  0  0
  125.9030  132.7830   63.5130 C   0  0  0  0  0  0  0  0  0  0  0  0
  126.8710  131.5870   63.3880 C   0  0  0  0  0  0  0  0  0  0  0  0
  128.8970  127.1400   59.0850 N   0  0  0  0  0  0  0  0  0  0  0  0
  130.6470  130.3220   59.6330 C   0  0  0  0  0  0  0  0  0  0  0  0
  130.8460  131.5580   59.0260 C   0  0  0  0  0  0  0  0  0  0  0  0
  1  2  1  0
  2  3  1  0
  3  4  2  0
  4  5  1  0
  5  6  2  0
  6  7  1  0
  7  8  2  0
  8  9  1  0
  9 10  1  0
 10 11  2  0
 11 12  1  0
 12 13  2  0
 13 14  1  0
 14 15  1  0
 13 16  1  0
 16 17  2  0
  9 18  2  0
 18 19  1  0
 19 20  3  0
 18 21  1  0
 21 22  1  0
 22 23  1  0
 23 24  1  0
 24 25  2  0
 24 26  1  0
 26 27  1  0
 27 28  1  0
 28 29  1  0
 29 30  2  0
 30 31  1  0
 31 32  1  0
 32 33  3  0
 30 34  1  0
 34 35  1  0
 35 36  1  0
 36 37  1  0
 21 38  2  0
  6 39  1  0
 39 40  2  0
 40  3  1  0
 38  7  1  0
 17 10  1  0
 31 27  2  0
 37 29  1  0
M  END
>  <Binding energies>  (52) 
[-8.08]

>  <Ligand effiencies>  (52) 
[-0.19707317073170733]

>  <Interactions>  (52) 
["V-A:PRO:540:CA:4881, V-A:ARG:545:CZ:4924, V-A:GLY:454:CA:4046, V-A:ILE:538:CB:4860, V-B:ILE:369:CG2:8208, V-A:PRO:540:CD:4885, V-A:ILE:538:CG2:4861, V-A:PRO:540:CB:4883, H-A:GLY:454:N:4047, H-A:TYR:484:OH:4345, V-A:PRO:540:N:4882, V-A:ASP:366:CG:3210, V-A:LEU:363:CD1:3186, V-A:TYR:539:CE1:4873, V-B:ASP:366:CG:8184, V-B:LEU:475:CD2:9230, V-B:ASP:366:CB:8183, H-B:TYR:531:OH:9767, H-A:TYR:539:OH:4876, V-A:HIS:456:CE1:4066, H-A:TYR:539:N:4868, V-B:ASP:366:CA:8181, H-B:ASP:366:OD2:8186, V-A:MET:535:CE:4833, V-A:TYR:484:CZ:4344, V-A:ARG:545:CG:4920, V-A:ARG:545:CD:4921, V-A:ILE:538:CA:4858, H-B:ASP:366:OD1:8185, V-A:ILE:538:C:4856"]

$$$$
RR6_Rahimova_2017
     RDKit          3D

 38 41  0  0  0  0  0  0  0  0999 V2000
  130.6020  125.7060   66.4100 C   0  0  0  0  0  0  0  0  0  0  0  0
  131.9460  125.7580   65.9530 O   0  0  0  0  0  0  0  0  0  0  0  0
  132.2770  125.3320   64.7060 C   0  0  0  0  0  0  0  0  0  0  0  0
  133.4150  124.9670   64.3920 O   0  0  0  0  0  0  0  0  0  0  0  0
  131.1220  125.3470   63.7470 C   0  0  0  0  0  0  0  0  0  0  0  0
  130.5950  126.5430   63.2370 C   0  0  0  0  0  0  0  0  0  0  0  0
  129.5180  126.5240   62.3540 C   0  0  0  0  0  0  0  0  0  0  0  0
  128.9440  125.3030   61.9700 C   0  0  0  0  0  0  0  0  0  0  0  0
  127.8380  125.1710   61.1090 N   0  0  0  0  0  0  0  0  0  0  0  0
  127.1480  124.0620   60.7660 C   0  0  0  0  0  0  0  0  0  0  0  0
  127.3750  122.9240   61.1770 O   0  0  0  0  0  0  0  0  0  0  0  0
  126.0380  124.2670   59.7300 C   0  0  0  0  0  0  0  0  0  0  0  0
  126.6460  124.8230   58.1030 S   0  0  0  0  0  0  0  0  0  0  0  0
  128.1920  125.6580   58.3910 C   0  0  0  0  0  0  0  0  0  0  0  0
  129.1520  124.8780   58.9430 N   0  0  0  0  0  0  0  0  0  0  0  0
  130.3840  125.3950   59.1820 C   0  0  0  0  0  0  0  0  0  0  0  0
  131.4080  124.4500   59.7370 C   0  0  0  0  0  0  0  0  0  0  0  0
  132.7580  124.8230   59.8370 C   0  0  0  0  0  0  0  0  0  0  0  0
  133.7100  123.9410   60.3400 C   0  0  0  0  0  0  0  0  0  0  0  0
  133.3280  122.6670   60.7590 C   0  0  0  0  0  0  0  0  0  0  0  0
  134.3710  121.7050   61.2980 C   0  0  0  0  0  0  0  0  0  0  0  0
  131.9940  122.2780   60.6700 C   0  0  0  0  0  0  0  0  0  0  0  0
  131.0460  123.1630   60.1680 C   0  0  0  0  0  0  0  0  0  0  0  0
  130.6710  126.7300   58.8780 C   0  0  0  0  0  0  0  0  0  0  0  0
  129.6920  127.5590   58.3100 C   0  0  0  0  0  0  0  0  0  0  0  0
  130.0720  128.9680   57.9930 C   0  0  0  0  0  0  0  0  0  0  0  0
  129.9150  129.4620   56.6950 C   0  0  0  0  0  0  0  0  0  0  0  0
  130.2520  130.7800   56.3940 C   0  0  0  0  0  0  0  0  0  0  0  0
  130.7450  131.6280   57.3840 C   0  0  0  0  0  0  0  0  0  0  0  0
  131.0500  132.9180   56.9950 O   0  0  0  0  0  0  0  0  0  0  0  0
  132.3690  133.2150   56.5510 C   0  0  0  0  0  0  0  0  0  0  0  0
  130.8990  131.1380   58.6900 C   0  0  0  0  0  0  0  0  0  0  0  0
  130.5610  129.8210   58.9870 C   0  0  0  0  0  0  0  0  0  0  0  0
  128.4090  127.0120   58.0620 C   0  0  0  0  0  0  0  0  0  0  0  0
  127.3310  127.8300   57.4980 C   0  0  0  0  0  0  0  0  0  0  0  0
  126.4820  128.4760   57.0500 N   0  0  0  0  0  0  0  0  0  0  0  0
  129.4760  124.1110   62.4620 C   0  0  0  0  0  0  0  0  0  0  0  0
  130.5510  124.1320   63.3470 C   0  0  0  0  0  0  0  0  0  0  0  0
  1  2  1  0
  2  3  1  0
  3  4  2  0
  3  5  1  0
  5  6  2  0
  6  7  1  0
  7  8  2  0
  8  9  1  0
  9 10  1  0
 10 11  2  0
 10 12  1  0
 12 13  1  0
 13 14  1  0
 14 15  2  0
 15 16  1  0
 16 17  1  0
 17 18  2  0
 18 19  1  0
 19 20  2  0
 20 21  1  0
 20 22  1  0
 22 23  2  0
 16 24  2  0
 24 25  1  0
 25 26  1  0
 26 27  2  0
 27 28  1  0
 28 29  2  0
 29 30  1  0
 30 31  1  0
 29 32  1  0
 32 33  2  0
 25 34  2  0
 34 35  1  0
 35 36  3  0
  8 37  1  0
 37 38  2  0
 38  5  1  0
 34 14  1  0
 23 17  1  0
 33 26  1  0
M  END
>  <Binding energies>  (53) 
[-7.66]

>  <Ligand effiencies>  (53) 
[-0.19641025641025642]

>  <Interactions>  (53) 
["V-A:PRO:540:CA:4881, V-A:ARG:545:CZ:4924, H-A:ARG:545:NE:4922, V-A:ILE:538:CB:4860, V-B:TYR:539:CE1:9847, V-A:ILE:369:CG2:3234, V-A:PRO:540:CD:4885, V-A:ILE:538:CG2:4861, V-A:PRO:540:CB:4883, V-A:ILE:369:CD1:3236, H-A:GLY:454:N:4047, H-A:TYR:484:OH:4345, V-A:PRO:540:N:4882, V-A:ASP:366:CG:3210, V-A:LEU:363:CD1:3186, V-B:PRO:540:CA:9855, V-B:TYR:539:CD1:9845, H-B:TYR:531:OH:9767, V-B:GLU:543:CD:9880, V-B:GLU:543:CG:9879, V-B:GLU:543:CB:9878, V-A:HIS:456:CE1:4066, V-A:GLU:543:CD:4906, H-B:ALA:541:N:9863, V-A:ILE:369:CB:3233, H-A:TYR:539:N:4868, H-B:ASP:366:OD2:8186, V-A:MET:535:CE:4833, V-A:ILE:369:CG1:3235, V-A:ILE:538:CA:4858, V-A:SER:385:C:3402, V-A:PRO:540:CG:4884"]

$$$$
RR7_Rahimova_2017
     RDKit          3D

 47 53  0  0  0  0  0  0  0  0999 V2000
  130.7470  125.1440   62.3230 C   0  0  0  0  0  0  0  0  0  0  0  0
  130.7680  125.3610   60.9160 O   0  0  0  0  0  0  0  0  0  0  0  0
  130.4420  126.6100   60.4230 C   0  0  0  0  0  0  0  0  0  0  0  0
  131.0420  126.9810   59.2210 C   0  0  0  0  0  0  0  0  0  0  0  0
  130.7710  128.2180   58.6440 C   0  0  0  0  0  0  0  0  0  0  0  0
  129.8980  129.1220   59.2660 C   0  0  0  0  0  0  0  0  0  0  0  0
  129.5490  130.5020   58.6270 C   0  0  0  0  0  0  0  0  0  0  0  0
  128.5520  130.2410   57.6140 O   0  0  0  0  0  0  0  0  0  0  0  0
  128.6610  129.0820   56.7820 C   0  0  0  0  0  0  0  0  0  0  0  0
  127.2810  128.4140   56.6700 C   0  0  1  0  0  0  0  0  0  0  0  0
  127.5010  127.0060   56.6970 O   0  0  0  0  0  0  0  0  0  0  0  0
  126.8280  126.3910   57.7570 C   0  0  1  0  0  0  0  0  0  0  0  0
  127.5910  125.2580   58.2440 N   0  0  0  0  0  0  0  0  0  0  0  0
  128.5580  124.5310   57.5730 C   0  0  0  0  0  0  0  0  0  0  0  0
  129.0610  123.5190   58.2360 N   0  0  0  0  0  0  0  0  0  0  0  0
  128.3660  123.5250   59.4150 C   0  0  0  0  0  0  0  0  0  0  0  0
  128.4220  122.6870   60.5470 C   0  0  0  0  0  0  0  0  0  0  0  0
  129.3480  121.6270   60.5570 N   0  0  0  0  0  0  0  0  0  0  0  0
  130.4040  121.4260   61.3800 C   0  0  0  0  0  0  0  0  0  0  0  0
  130.7380  122.1970   62.2830 O   0  0  0  0  0  0  0  0  0  0  0  0
  131.2130  120.1740   61.1140 C   0  0  0  0  0  0  0  0  0  0  0  0
  132.5840  120.2800   60.8350 C   0  0  0  0  0  0  0  0  0  0  0  0
  133.3470  119.1410   60.5930 C   0  0  0  0  0  0  0  0  0  0  0  0
  132.7480  117.8870   60.6320 C   0  0  0  0  0  0  0  0  0  0  0  0
  131.3900  117.7600   60.9110 C   0  0  0  0  0  0  0  0  0  0  0  0
  130.6240  118.8980   61.1520 C   0  0  0  0  0  0  0  0  0  0  0  0
  127.5780  122.9240   61.5950 N   0  0  0  0  0  0  0  0  0  0  0  0
  126.7150  123.9690   61.4910 C   0  0  0  0  0  0  0  0  0  0  0  0
  126.5800  124.8380   60.4530 N   0  0  0  0  0  0  0  0  0  0  0  0
  127.4250  124.5850   59.4440 C   0  0  0  0  0  0  0  0  0  0  0  0
  126.5950  127.4970   58.7800 C   0  0  0  0  0  0  0  0  0  0  0  0
  126.3370  128.6720   57.8530 C   0  0  2  0  0  0  0  0  0  0  0  0
  124.9780  128.7470   57.4550 O   0  0  0  0  0  0  0  0  0  0  0  0
  128.9130  131.4830   59.6480 C   0  0  0  0  0  0  0  0  0  0  0  0
  127.5200  131.5160   59.8240 C   0  0  0  0  0  0  0  0  0  0  0  0
  126.9370  132.4000   60.7260 C   0  0  0  0  0  0  0  0  0  0  0  0
  127.7420  133.2630   61.4620 C   0  0  0  0  0  0  0  0  0  0  0  0
  129.1250  133.2480   61.3040 C   0  0  0  0  0  0  0  0  0  0  0  0
  129.7070  132.3640   60.4000 C   0  0  0  0  0  0  0  0  0  0  0  0
  130.7410  131.2750   57.9930 C   0  0  0  0  0  0  0  0  0  0  0  0
  130.5270  132.1590   56.9240 C   0  0  0  0  0  0  0  0  0  0  0  0
  131.5880  132.8480   56.3450 C   0  0  0  0  0  0  0  0  0  0  0  0
  132.8800  132.6520   56.8240 C   0  0  0  0  0  0  0  0  0  0  0  0
  133.1180  131.7700   57.8740 C   0  0  0  0  0  0  0  0  0  0  0  0
  132.0550  131.0830   58.4520 C   0  0  0  0  0  0  0  0  0  0  0  0
  129.2860  128.7380   60.4690 C   0  0  0  0  0  0  0  0  0  0  0  0
  129.5570  127.5010   61.0450 C   0  0  0  0  0  0  0  0  0  0  0  0
  1  2  1  0
  2  3  1  0
  3  4  2  0
  4  5  1  0
  5  6  2  0
  6  7  1  0
  7  8  1  0
  8  9  1  0
 10  9  1  1
 10 11  1  0
 11 12  1  0
 12 13  1  1
 13 14  1  0
 14 15  2  0
 15 16  1  0
 16 17  2  0
 17 18  1  0
 18 19  1  0
 19 20  2  0
 19 21  1  0
 21 22  2  0
 22 23  1  0
 23 24  2  0
 24 25  1  0
 25 26  2  0
 17 27  1  0
 27 28  2  0
 28 29  1  0
 29 30  2  0
 12 31  1  0
 31 32  1  0
 32 33  1  6
  7 34  1  0
 34 35  2  0
 35 36  1  0
 36 37  2  0
 37 38  1  0
 38 39  2  0
  7 40  1  0
 40 41  2  0
 41 42  1  0
 42 43  2  0
 43 44  1  0
 44 45  2  0
  6 46  1  0
 46 47  2  0
 47  3  1  0
 32 10  1  0
 39 34  1  0
 45 40  1  0
 30 13  1  0
 30 16  1  0
 26 21  1  0
M  END
>  <Binding energies>  (54) 
[-10.56]

>  <Ligand effiencies>  (54) 
[-0.21551020408163266]

>  <Interactions>  (54) 
["V-A:PRO:540:CA:4881, V-A:ILE:538:CB:4860, V-B:ALA:541:CB:9864, V-B:TYR:539:CE1:9847, V-A:ILE:369:CG2:3234, V-A:PRO:540:CD:4885, V-A:ILE:538:CG2:4861, V-A:PRO:540:CB:4883, V-A:LEU:363:CA:3182, V-A:PRO:540:N:4882, V-A:ASP:366:CG:3210, V-A:LEU:475:CD2:4256, V-A:LEU:363:CD1:3186, V-A:TYR:539:CE1:4873, V-B:PRO:540:CA:9855, V-B:ASP:366:CG:8184, V-B:TYR:539:CD1:9845, V-A:TYR:539:CD1:4871, V-B:ASP:366:CB:8183, H-B:TYR:531:OH:9767, V-B:TYR:539:C:9839, V-A:ALA:541:CB:4890, V-A:ALA:541:CA:4888, H-B:ALA:541:N:9863, V-A:PRO:540:C:4879, V-A:TYR:539:C:4865, H-B:ASP:366:OD2:8186, V-A:MET:535:CE:4833, V-A:PRO:482:CB:4323, V-A:PRO:482:CG:4324, H-B:TYR:539:O:9840, V-A:ILE:538:CA:4858, V-A:LEU:373:CD1:3277, V-A:SER:385:CA:3404, V-A:SER:385:CB:3406, V-A:PRO:540:CG:4884"]

$$$$
RR8_A_Rahimova_2017
     RDKit          3D

 42 46  0  0  0  0  0  0  0  0999 V2000
  128.2800  122.6810   61.2420 O   0  0  0  0  0  0  0  0  0  0  0  0
  128.6960  123.8350   61.3910 C   0  0  0  0  0  0  0  0  0  0  0  0
  128.2180  124.9230   60.7120 O   0  0  0  0  0  0  0  0  0  0  0  0
  128.8670  125.2830   59.5240 C   0  0  1  0  0  0  0  0  0  0  0  0
  129.7100  126.3820   59.7090 O   0  0  0  0  0  0  0  0  0  0  0  0
  130.9160  126.2580   58.9600 C   0  0  2  0  0  0  0  0  0  0  0  0
  131.0650  127.4980   58.0610 C   0  0  0  0  0  0  0  0  0  0  0  0
  130.8470  128.6620   58.8460 O   0  0  0  0  0  0  0  0  0  0  0  0
  130.0360  129.6430   58.2130 C   0  0  0  0  0  0  0  0  0  0  0  0
  130.9140  130.7360   57.6230 C   0  0  0  0  0  0  0  0  0  0  0  0
  132.3000  130.6830   57.7910 C   0  0  0  0  0  0  0  0  0  0  0  0
  133.1070  131.6790   57.2470 C   0  0  0  0  0  0  0  0  0  0  0  0
  132.5260  132.7250   56.5330 C   0  0  0  0  0  0  0  0  0  0  0  0
  131.1450  132.7830   56.3560 C   0  0  0  0  0  0  0  0  0  0  0  0
  130.3390  131.7860   56.8990 C   0  0  0  0  0  0  0  0  0  0  0  0
  130.7510  124.9230   58.2220 C   0  0  1  0  0  0  0  0  0  0  0  0
  131.9600  124.1720   58.1440 O   0  0  0  0  0  0  0  0  0  0  0  0
  133.0520  124.6800   58.9030 C   0  0  0  0  0  0  0  0  0  0  0  0
  133.3320  123.7640   60.0860 C   0  0  0  0  0  0  0  0  0  0  0  0
  134.0770  124.2400   61.1700 C   0  0  0  0  0  0  0  0  0  0  0  0
  134.3460  123.4050   62.2510 C   0  0  0  0  0  0  0  0  0  0  0  0
  133.8720  122.0940   62.2460 C   0  0  0  0  0  0  0  0  0  0  0  0
  133.1350  121.6100   61.1680 C   0  0  0  0  0  0  0  0  0  0  0  0
  132.8680  122.4440   60.0850 C   0  0  0  0  0  0  0  0  0  0  0  0
  129.7940  124.1480   59.1090 C   0  0  2  0  0  0  0  0  0  0  0  0
  129.1440  123.1190   58.3690 O   0  0  0  0  0  0  0  0  0  0  0  0
  128.6140  123.5080   57.1060 C   0  0  0  0  0  0  0  0  0  0  0  0
  127.0940  123.4880   57.1540 C   0  0  0  0  0  0  0  0  0  0  0  0
  126.3950  124.5460   57.7450 C   0  0  0  0  0  0  0  0  0  0  0  0
  125.0030  124.5280   57.7780 C   0  0  0  0  0  0  0  0  0  0  0  0
  124.3130  123.4550   57.2170 C   0  0  0  0  0  0  0  0  0  0  0  0
  125.0020  122.4000   56.6220 C   0  0  0  0  0  0  0  0  0  0  0  0
  126.3940  122.4170   56.5890 C   0  0  0  0  0  0  0  0  0  0  0  0
  129.7860  124.1910   62.3600 C   0  0  0  0  0  0  0  0  0  0  0  0
  130.4220  123.2210   63.1510 C   0  0  0  0  0  0  0  0  0  0  0  0
  131.4290  123.5830   64.0410 C   0  0  0  0  0  0  0  0  0  0  0  0
  131.8260  124.9210   64.1650 C   0  0  0  0  0  0  0  0  0  0  0  0
  132.9010  125.3050   65.1120 N   0  0  0  0  0  0  0  0  0  0  0  0
  134.0530  125.3810   64.6960 O   0  0  0  0  0  0  0  0  0  0  0  0
  132.6000  125.5350   66.2810 O   0  0  0  0  0  0  0  0  0  0  0  0
  131.1900  125.8880   63.3770 C   0  0  0  0  0  0  0  0  0  0  0  0
  130.1830  125.5280   62.4860 C   0  0  0  0  0  0  0  0  0  0  0  0
  1  2  2  0
  2  3  1  0
  4  3  1  1
  4  5  1  0
  5  6  1  0
  6  7  1  6
  7  8  1  0
  8  9  1  0
  9 10  1  0
 10 11  2  0
 11 12  1  0
 12 13  2  0
 13 14  1  0
 14 15  2  0
  6 16  1  0
 16 17  1  1
 17 18  1  0
 18 19  1  0
 19 20  2  0
 20 21  1  0
 21 22  2  0
 22 23  1  0
 23 24  2  0
 16 25  1  0
 25 26  1  6
 26 27  1  0
 27 28  1  0
 28 29  2  0
 29 30  1  0
 30 31  2  0
 31 32  1  0
 32 33  2  0
  2 34  1  0
 34 35  2  0
 35 36  1  0
 36 37  2  0
 37 38  1  0
 38 39  2  0
 38 40  1  0
 37 41  1  0
 41 42  2  0
 25  4  1  0
 33 28  1  0
 42 34  1  0
 15 10  1  0
 24 19  1  0
M  CHG  2  38   1  40  -1
M  END
>  <Binding energies>  (55) 
[-10.11]

>  <Ligand effiencies>  (55) 
[-0.24071428571428571]

>  <Interactions>  (55) 
["V-A:ARG:545:CZ:4924, V-A:TYR:531:CE2:4791, H-A:ARG:545:NE:4922, V-A:GLY:454:CA:4046, V-A:ILE:538:CB:4860, V-B:ALA:541:CB:9864, V-B:TYR:539:CE1:9847, V-A:ILE:369:CG2:3234, V-A:PRO:540:CD:4885, V-A:ILE:538:CG2:4861, V-A:PRO:540:CB:4883, V-A:ILE:369:CD1:3236, V-A:LEU:363:CA:3182, H-A:GLY:454:N:4047, H-A:TYR:484:OH:4345, V-A:PRO:540:N:4882, V-A:ASP:366:CG:3210, V-A:LEU:475:CD2:4256, V-A:LEU:363:CD1:3186, V-B:TYR:531:CE2:9765, V-A:GLY:453:C:4039, V-B:ILE:538:CA:9832, V-B:PRO:540:CA:9855, V-B:ILE:538:CG2:9835, V-B:ASP:366:CG:8184, V-B:PRO:540:CB:9857, H-A:ARG:545:NH2:4926, V-B:PRO:540:CD:9859, V-B:ILE:538:CB:9834, V-B:LEU:363:CD1:8160, V-B:TYR:539:CD1:9845, V-B:ASP:366:CB:8183, V-B:PRO:540:N:9856, V-B:TYR:539:C:9839, V-A:ASP:366:CA:3207, V-A:ASP:366:CB:3209, V-B:TYR:539:CZ:9849, H-B:ALA:541:N:9863, V-B:TYR:531:CZ:9766, V-B:PRO:540:CG:9858, H-B:TYR:539:OH:9850, V-B:ILE:538:C:9830, V-A:MET:535:CE:4833, H-A:ARG:545:NH1:4925, V-A:ARG:545:CD:4921, V-A:ILE:538:CA:4858, V-A:GLY:453:CA:4041, V-A:ILE:538:C:4856"]

$$$$
RR8_B_Rahimova_2017
     RDKit          3D

 42 46  0  0  0  0  0  0  0  0999 V2000
  128.9380  126.6640   56.4650 O   0  0  0  0  0  0  0  0  0  0  0  0
  128.2720  126.5550   57.5000 C   0  0  0  0  0  0  0  0  0  0  0  0
  128.2520  125.4390   58.2910 O   0  0  0  0  0  0  0  0  0  0  0  0
  129.1010  125.4050   59.4120 C   0  0  2  0  0  0  0  0  0  0  0  0
  130.0220  126.4590   59.4020 O   0  0  0  0  0  0  0  0  0  0  0  0
  131.2370  126.0840   58.7560 C   0  0  2  0  0  0  0  0  0  0  0  0
  131.5060  127.0350   57.5750 C   0  0  0  0  0  0  0  0  0  0  0  0
  130.5940  128.1250   57.6360 O   0  0  0  0  0  0  0  0  0  0  0  0
  131.0290  129.2240   58.4230 C   0  0  0  0  0  0  0  0  0  0  0  0
  130.3630  130.4950   57.9190 C   0  0  0  0  0  0  0  0  0  0  0  0
  129.2100  130.9720   58.5490 C   0  0  0  0  0  0  0  0  0  0  0  0
  128.5820  132.1220   58.0770 C   0  0  0  0  0  0  0  0  0  0  0  0
  129.1120  132.7930   56.9760 C   0  0  0  0  0  0  0  0  0  0  0  0
  130.2640  132.3270   56.3470 C   0  0  0  0  0  0  0  0  0  0  0  0
  130.8900  131.1750   56.8170 C   0  0  0  0  0  0  0  0  0  0  0  0
  131.0300  124.6110   58.3830 C   0  0  1  0  0  0  0  0  0  0  0  0
  132.2650  123.9010   58.5090 O   0  0  0  0  0  0  0  0  0  0  0  0
  133.2470  124.4530   59.3900 C   0  0  0  0  0  0  0  0  0  0  0  0
  133.1290  123.8990   60.8060 C   0  0  0  0  0  0  0  0  0  0  0  0
  132.8160  124.7520   61.8690 C   0  0  0  0  0  0  0  0  0  0  0  0
  132.6770  124.2380   63.1550 C   0  0  0  0  0  0  0  0  0  0  0  0
  132.8550  122.8730   63.3760 C   0  0  0  0  0  0  0  0  0  0  0  0
  133.1720  122.0180   62.3220 C   0  0  0  0  0  0  0  0  0  0  0  0
  133.3070  122.5320   61.0340 C   0  0  0  0  0  0  0  0  0  0  0  0
  129.9600  124.1420   59.3610 C   0  0  2  0  0  0  0  0  0  0  0  0
  129.2780  123.0030   58.8430 O   0  0  0  0  0  0  0  0  0  0  0  0
  128.0550  122.6750   59.4840 C   0  0  0  0  0  0  0  0  0  0  0  0
  126.9210  122.9430   58.5100 C   0  0  0  0  0  0  0  0  0  0  0  0
  126.9630  122.4170   57.2160 C   0  0  0  0  0  0  0  0  0  0  0  0
  125.9270  122.6850   56.3250 C   0  0  0  0  0  0  0  0  0  0  0  0
  124.8550  123.4760   56.7300 C   0  0  0  0  0  0  0  0  0  0  0  0
  124.8060  124.0030   58.0200 C   0  0  0  0  0  0  0  0  0  0  0  0
  125.8400  123.7350   58.9110 C   0  0  0  0  0  0  0  0  0  0  0  0
  127.3600  127.6340   58.0070 C   0  0  0  0  0  0  0  0  0  0  0  0
  126.7630  128.5640   57.1430 C   0  0  0  0  0  0  0  0  0  0  0  0
  125.9290  129.5580   57.6420 C   0  0  0  0  0  0  0  0  0  0  0  0
  125.6780  129.6560   59.0160 C   0  0  0  0  0  0  0  0  0  0  0  0
  124.8090  130.7340   59.5490 N   0  0  0  0  0  0  0  0  0  0  0  0
  123.8800  131.1380   58.8550 O   0  0  0  0  0  0  0  0  0  0  0  0
  125.0470  131.1810   60.6690 O   0  0  0  0  0  0  0  0  0  0  0  0
  126.2700  128.7230   59.8780 C   0  0  0  0  0  0  0  0  0  0  0  0
  127.0980  127.7240   59.3790 C   0  0  0  0  0  0  0  0  0  0  0  0
  1  2  2  0
  2  3  1  0
  4  3  1  6
  4  5  1  0
  5  6  1  0
  6  7  1  6
  7  8  1  0
  8  9  1  0
  9 10  1  0
 10 11  2  0
 11 12  1  0
 12 13  2  0
 13 14  1  0
 14 15  2  0
  6 16  1  0
 16 17  1  1
 17 18  1  0
 18 19  1  0
 19 20  2  0
 20 21  1  0
 21 22  2  0
 22 23  1  0
 23 24  2  0
 16 25  1  0
 25 26  1  6
 26 27  1  0
 27 28  1  0
 28 29  2  0
 29 30  1  0
 30 31  2  0
 31 32  1  0
 32 33  2  0
  2 34  1  0
 34 35  2  0
 35 36  1  0
 36 37  2  0
 37 38  1  0
 38 39  2  0
 38 40  1  0
 37 41  1  0
 41 42  2  0
 25  4  1  0
 33 28  1  0
 42 34  1  0
 15 10  1  0
 24 19  1  0
M  CHG  2  38   1  40  -1
M  END
>  <Binding energies>  (56) 
[-8.9]

>  <Ligand effiencies>  (56) 
[-0.2119047619047619]

>  <Interactions>  (56) 
["V-A:GLY:454:CA:4046, V-B:TYR:539:CE1:9847, V-A:ILE:369:CG2:3234, V-A:ILE:369:CD1:3236, V-A:ASP:366:CG:3210, V-A:LEU:475:CD2:4256, V-A:TYR:539:CE1:4873, V-B:TYR:531:CE2:9765, V-B:ILE:538:CA:9832, V-B:PRO:540:CA:9855, V-B:ILE:538:CG2:9835, V-B:ASP:366:CG:8184, V-B:PRO:540:CB:9857, V-B:PRO:540:CD:9859, V-B:ILE:538:CB:9834, V-B:LEU:363:CD1:8160, V-B:TYR:539:CD1:9845, V-A:TYR:539:CD1:4871, V-B:ASP:366:CB:8183, V-B:PRO:540:N:9856, H-A:TYR:539:OH:4876, V-B:TYR:539:C:9839, V-A:ASP:366:CA:3207, V-A:ASP:366:CB:3209, V-B:TYR:539:CZ:9849, V-A:TYR:539:CZ:4875, V-B:TYR:531:CZ:9766, H-A:TYR:531:OH:4793, V-A:TYR:531:CZ:4792, V-A:TYR:539:C:4865, H-B:TYR:539:OH:9850, V-A:MET:535:CE:4833, V-A:TYR:539:CG:4870, V-A:TYR:539:CA:4867, V-A:TYR:539:CE2:4874, V-A:TYR:539:CD2:4872, V-B:TYR:539:CA:9841, V-A:ILE:538:CA:4858"]

$$$$
RR9_Rahimova_2017
     RDKit          3D

 36 40  0  0  0  0  0  0  0  0999 V2000
  124.2010  133.5620   62.0250 C   0  0  0  0  0  0  0  0  0  0  0  0
  123.8960  132.0810   61.7830 C   0  0  0  0  0  0  0  0  0  0  0  0
  124.3400  131.3320   62.9100 O   0  0  0  0  0  0  0  0  0  0  0  0
  125.2590  130.3160   62.7290 C   0  0  0  0  0  0  0  0  0  0  0  0
  125.9430  129.8840   63.8640 C   0  0  0  0  0  0  0  0  0  0  0  0
  126.8880  128.8680   63.7790 C   0  0  0  0  0  0  0  0  0  0  0  0
  127.1780  128.2520   62.5520 C   0  0  0  0  0  0  0  0  0  0  0  0
  128.2000  127.1580   62.4530 C   0  0  0  0  0  0  0  0  0  0  0  0
  128.1280  126.1720   61.4570 C   0  0  0  0  0  0  0  0  0  0  0  0
  129.0960  125.1560   61.3600 C   0  0  0  0  0  0  0  0  0  0  0  0
  129.0200  124.1890   60.2100 C   0  0  0  0  0  0  0  0  0  0  0  0
  128.8100  122.9940   60.4150 O   0  0  0  0  0  0  0  0  0  0  0  0
  129.2190  124.7180   58.9860 N   0  0  0  0  0  0  0  0  0  0  0  0
  129.3230  123.9660   57.7310 C   0  0  0  0  0  0  0  0  0  0  0  0
  128.3610  122.7570   57.6680 C   0  0  0  0  0  0  0  0  0  0  0  0
  126.8900  123.1220   57.5010 C   0  0  0  0  0  0  0  0  0  0  0  0
  126.0830  122.3970   56.6180 C   0  0  0  0  0  0  0  0  0  0  0  0
  124.7320  122.7110   56.4930 C   0  0  0  0  0  0  0  0  0  0  0  0
  124.1940  123.7500   57.2480 C   0  0  0  0  0  0  0  0  0  0  0  0
  124.9920  124.4800   58.1270 C   0  0  0  0  0  0  0  0  0  0  0  0
  126.3440  124.1660   58.2520 C   0  0  0  0  0  0  0  0  0  0  0  0
  130.1190  125.1690   62.3400 C   0  0  0  0  0  0  0  0  0  0  0  0
  131.2750  124.3890   62.7150 C   0  0  0  0  0  0  0  0  0  0  0  0
  131.7790  123.1050   62.1430 C   0  0  0  0  0  0  0  0  0  0  0  0
  130.9250  122.0040   62.0250 C   0  0  0  0  0  0  0  0  0  0  0  0
  131.4010  120.8030   61.5060 C   0  0  0  0  0  0  0  0  0  0  0  0
  132.7330  120.6990   61.1010 C   0  0  0  0  0  0  0  0  0  0  0  0
  133.2570  119.3840   60.5520 C   0  0  0  0  0  0  0  0  0  0  0  0
  133.5890  121.7950   61.2190 C   0  0  0  0  0  0  0  0  0  0  0  0
  133.1100  122.9960   61.7350 C   0  0  0  0  0  0  0  0  0  0  0  0
  131.9010  124.9500   63.7250 N   0  0  0  0  0  0  0  0  0  0  0  0
  131.2030  126.0350   64.0940 N   0  0  0  0  0  0  0  0  0  0  0  0
  130.0980  126.2140   63.2950 C   0  0  0  0  0  0  0  0  0  0  0  0
  129.1920  127.1860   63.3870 N   0  0  0  0  0  0  0  0  0  0  0  0
  126.4870  128.6920   61.4140 C   0  0  0  0  0  0  0  0  0  0  0  0
  125.5390  129.7090   61.4970 C   0  0  0  0  0  0  0  0  0  0  0  0
  1  2  1  0
  2  3  1  0
  3  4  1  0
  4  5  2  0
  5  6  1  0
  6  7  2  0
  7  8  1  0
  8  9  2  0
  9 10  1  0
 10 11  1  0
 11 12  2  0
 11 13  1  0
 13 14  1  0
 14 15  1  0
 15 16  1  0
 16 17  2  0
 17 18  1  0
 18 19  2  0
 19 20  1  0
 20 21  2  0
 10 22  2  0
 22 23  1  0
 23 24  1  0
 24 25  2  0
 25 26  1  0
 26 27  2  0
 27 28  1  0
 27 29  1  0
 29 30  2  0
 23 31  2  0
 31 32  1  0
 32 33  1  0
 33 34  2  0
  7 35  1  0
 35 36  2  0
 36  4  1  0
 34  8  1  0
 21 16  1  0
 33 22  1  0
 30 24  1  0
M  END
>  <Binding energies>  (57) 
[-8.57]

>  <Ligand effiencies>  (57) 
[-0.22552631578947369]

>  <Interactions>  (57) 
["V-A:ARG:545:CZ:4924, V-B:ALA:541:CB:9864, V-B:TYR:539:CE1:9847, V-A:ILE:369:CG2:3234, V-B:ILE:369:CG2:8208, V-B:ARG:545:CZ:9898, V-A:ILE:369:CD1:3236, V-B:ILE:369:CD1:8210, V-A:LEU:475:CD2:4256, V-B:TYR:531:CE2:9765, V-B:ILE:538:CA:9832, V-B:PRO:540:CA:9855, V-B:ILE:538:CG2:9835, V-B:ASP:366:CG:8184, V-B:PRO:540:CB:9857, V-B:PRO:540:CD:9859, V-B:LEU:475:CD2:9230, V-B:ILE:538:CB:9834, V-B:LEU:363:CD1:8160, V-B:TYR:539:CD1:9845, V-B:LEU:363:CA:8156, H-B:GLY:454:N:9021, V-B:ASP:366:CB:8183, V-B:PRO:540:N:9856, V-B:TYR:539:CG:9844, V-B:TYR:539:C:9839, V-B:GLU:543:CD:9880, H-A:GLU:543:OE2:4908, V-B:TYR:539:CZ:9849, V-B:TYR:531:CZ:9766, V-B:ILE:538:C:9830, V-A:LEU:373:CD1:3277, V-A:SER:385:CA:3404, V-A:SER:385:CB:3406"]

$$$$
