1a_Ghoteimi_2023
     RDKit          3D

 67 70  0  0  0  0  0  0  0  0999 V2000
  130.5070  124.7930   66.7340 C   0  0  0  0  0  0  0  0  0  0  0  0
  130.9720  126.1230   66.1340 C   0  0  0  0  0  0  0  0  0  0  0  0
  132.2920  125.9740   65.6240 O   0  0  0  0  0  0  0  0  0  0  0  0
  132.5310  125.2520   64.4990 C   0  0  0  0  0  0  0  0  0  0  0  0
  133.6170  124.7200   64.2490 O   0  0  0  0  0  0  0  0  0  0  0  0
  131.3390  125.1600   63.5900 C   0  0  0  0  0  0  0  0  0  0  0  0
  130.6680  123.9490   63.3650 C   0  0  0  0  0  0  0  0  0  0  0  0
  129.5680  123.8950   62.5140 C   0  0  0  0  0  0  0  0  0  0  0  0
  129.1140  125.0570   61.8730 C   0  0  0  0  0  0  0  0  0  0  0  0
  128.0180  125.1160   60.9910 N   0  0  0  0  0  0  0  0  0  0  0  0
  127.0460  124.2080   60.7560 C   0  0  0  0  0  0  0  0  0  0  0  0
  126.9360  123.1170   61.3150 O   0  0  0  0  0  0  0  0  0  0  0  0
  126.0110  124.6100   59.7060 C   0  0  0  0  0  0  0  0  0  0  0  0
  126.7480  124.7430   58.0510 S   0  0  0  0  0  0  0  0  0  0  0  0
  128.3010  125.5830   58.2660 C   0  0  0  0  0  0  0  0  0  0  0  0
  129.2800  124.8030   58.7820 N   0  0  0  0  0  0  0  0  0  0  0  0
  130.5180  125.3230   58.9920 C   0  0  0  0  0  0  0  0  0  0  0  0
  131.5550  124.3900   59.5470 C   0  0  0  0  0  0  0  0  0  0  0  0
  131.1990  123.1450   60.0920 C   0  0  0  0  0  0  0  0  0  0  0  0
  132.1630  122.2820   60.6050 C   0  0  0  0  0  0  0  0  0  0  0  0
  133.5100  122.6340   60.5920 C   0  0  0  0  0  0  0  0  0  0  0  0
  134.3960  121.7150   61.1200 O   0  0  0  0  0  0  0  0  0  0  0  0
  134.0040  120.3510   61.2200 C   0  0  0  0  0  0  0  0  0  0  0  0
  133.8810  123.8750   60.0550 C   0  0  0  0  0  0  0  0  0  0  0  0
  132.9150  124.7360   59.5430 C   0  0  0  0  0  0  0  0  0  0  0  0
  130.7900  126.6610   58.6800 C   0  0  0  0  0  0  0  0  0  0  0  0
  129.7860  127.4940   58.1680 C   0  0  0  0  0  0  0  0  0  0  0  0
  130.1410  128.9180   57.8890 C   0  0  0  0  0  0  0  0  0  0  0  0
  129.9330  129.4740   56.6220 C   0  0  0  0  0  0  0  0  0  0  0  0
  130.2520  130.8060   56.3730 C   0  0  0  0  0  0  0  0  0  0  0  0
  130.7760  131.6100   57.3850 C   0  0  0  0  0  0  0  0  0  0  0  0
  131.0610  132.9180   57.0470 O   0  0  0  0  0  0  0  0  0  0  0  0
  132.3240  133.2260   56.4660 C   0  0  0  0  0  0  0  0  0  0  0  0
  130.9780  131.0590   58.6600 C   0  0  0  0  0  0  0  0  0  0  0  0
  130.6590  129.7260   58.9060 C   0  0  0  0  0  0  0  0  0  0  0  0
  128.5010  126.9430   57.9480 C   0  0  0  0  0  0  0  0  0  0  0  0
  127.4140  127.7620   57.4010 C   0  0  0  0  0  0  0  0  0  0  0  0
  126.5570  128.4080   56.9680 N   0  0  0  0  0  0  0  0  0  0  0  0
  129.7810  126.2630   62.0910 C   0  0  0  0  0  0  0  0  0  0  0  0
  130.8820  126.3160   62.9430 C   0  0  0  0  0  0  0  0  0  0  0  0
  130.5298  124.8581   67.8318 H   0  0  0  0  0  0  0  0  0  0  0  0
  129.4808  124.5792   66.4006 H   0  0  0  0  0  0  0  0  0  0  0  0
  131.1764  123.9863   66.4006 H   0  0  0  0  0  0  0  0  0  0  0  0
  130.2940  126.4150   65.3185 H   0  0  0  0  0  0  0  0  0  0  0  0
  130.9636  126.9007   66.9119 H   0  0  0  0  0  0  0  0  0  0  0  0
  131.0145  123.0331   63.8660 H   0  0  0  0  0  0  0  0  0  0  0  0
  129.0531  122.9380   62.3436 H   0  0  0  0  0  0  0  0  0  0  0  0
  127.9420  125.9880   60.4870 H   0  0  0  0  0  0  0  0  0  0  0  0
  125.2149  123.8513   59.6816 H   0  0  0  0  0  0  0  0  0  0  0  0
  125.6083  125.5958   59.9818 H   0  0  0  0  0  0  0  0  0  0  0  0
  130.1403  122.8472   60.1137 H   0  0  0  0  0  0  0  0  0  0  0  0
  131.8576  121.3122   61.0249 H   0  0  0  0  0  0  0  0  0  0  0  0
  133.9231  120.0695   62.2803 H   0  0  0  0  0  0  0  0  0  0  0  0
  133.0297  120.2125   60.7285 H   0  0  0  0  0  0  0  0  0  0  0  0
  134.7561  119.7164   60.7285 H   0  0  0  0  0  0  0  0  0  0  0  0
  134.9407  124.1694   60.0384 H   0  0  0  0  0  0  0  0  0  0  0  0
  133.2234  125.7065   59.1271 H   0  0  0  0  0  0  0  0  0  0  0  0
  131.8019  127.0621   58.8384 H   0  0  0  0  0  0  0  0  0  0  0  0
  129.5140  128.8536   55.8161 H   0  0  0  0  0  0  0  0  0  0  0  0
  130.0895  131.2277   55.3701 H   0  0  0  0  0  0  0  0  0  0  0  0
  133.0603  133.4056   57.2632 H   0  0  0  0  0  0  0  0  0  0  0  0
  132.6565  132.3826   55.8430 H   0  0  0  0  0  0  0  0  0  0  0  0
  132.2309  134.1278   55.8430 H   0  0  0  0  0  0  0  0  0  0  0  0
  131.3897  131.6822   59.4676 H   0  0  0  0  0  0  0  0  0  0  0  0
  130.8160  129.3046   59.9099 H   0  0  0  0  0  0  0  0  0  0  0  0
  129.4354  127.1776   61.5870 H   0  0  0  0  0  0  0  0  0  0  0  0
  131.3971  127.2736   63.1093 H   0  0  0  0  0  0  0  0  0  0  0  0
  1  2  1  0
  2  3  1  0
  3  4  1  0
  4  5  2  0
  4  6  1  0
  6  7  2  0
  7  8  1  0
  8  9  2  0
  9 10  1  0
 10 11  1  0
 11 12  2  0
 11 13  1  0
 13 14  1  0
 14 15  1  0
 15 16  2  0
 16 17  1  0
 17 18  1  0
 18 19  2  0
 19 20  1  0
 20 21  2  0
 21 22  1  0
 22 23  1  0
 21 24  1  0
 24 25  2  0
 17 26  2  0
 26 27  1  0
 27 28  1  0
 28 29  2  0
 29 30  1  0
 30 31  2  0
 31 32  1  0
 32 33  1  0
 31 34  1  0
 34 35  2  0
 27 36  2  0
 36 37  1  0
 37 38  3  0
  9 39  1  0
 39 40  2  0
 40  6  1  0
 36 15  1  0
 25 18  1  0
 35 28  1  0
  1 41  1  0
  1 42  1  0
  1 43  1  0
  2 44  1  0
  2 45  1  0
  7 46  1  0
  8 47  1  0
 10 48  1  0
 13 49  1  0
 13 50  1  0
 19 51  1  0
 20 52  1  0
 23 53  1  0
 23 54  1  0
 23 55  1  0
 24 56  1  0
 25 57  1  0
 26 58  1  0
 29 59  1  0
 30 60  1  0
 33 61  1  0
 33 62  1  0
 33 63  1  0
 34 64  1  0
 35 65  1  0
 39 66  1  0
 40 67  1  0
M  END
>  <Binding energies>  (1) 
[-7.18]

>  <Ligand effiencies>  (1) 
[-0.17512195121951218]

>  <Interactions>  (1) 
["V-A:PRO:540:CA:4881, V-A:ARG:545:CZ:4924, H-A:ARG:545:NE:4922, V-A:ILE:538:CB:4860, V-B:TYR:539:CE1:9847, V-A:ILE:369:CG2:3234, V-A:PRO:540:CD:4885, V-A:ILE:538:CG2:4861, V-A:PRO:540:CB:4883, V-A:ILE:369:CD1:3236, H-A:GLY:454:N:4047, H-A:TYR:484:OH:4345, V-A:PRO:540:N:4882, V-A:ASP:366:CG:3210, V-A:LEU:475:CD2:4256, V-A:LEU:363:CD1:3186, V-B:ASP:366:CG:8184, V-B:TYR:539:CD1:9845, H-B:TYR:531:OH:9767, V-B:GLU:543:CD:9880, V-B:GLU:543:CG:9879, V-B:GLU:543:CB:9878, V-A:HIS:456:CE1:4066, V-A:ASP:366:CB:3209, V-A:GLU:543:CD:4906, H-B:ALA:541:N:9863, V-A:ILE:369:CB:3233, H-A:TYR:539:N:4868, V-A:MET:535:CE:4833, V-A:TYR:484:CZ:4344, V-A:TYR:484:CE2:4343, V-A:ILE:538:CA:4858, V-A:SER:385:CA:3404, V-A:SER:385:CB:3406, V-A:SER:385:C:3402, V-A:PRO:540:CG:4884"]

$$$$
1a_Grossjean_2025
     RDKit          3D

 45 46  0  0  0  0  0  0  0  0999 V2000
  133.5890  120.9220   61.1320 C   0  0  0  0  0  0  0  0  0  0  0  0
  133.6160  122.4500   61.0390 C   0  0  0  0  0  0  0  0  0  0  0  0
  132.7390  122.8770   60.0040 O   0  0  0  0  0  0  0  0  0  0  0  0
  133.0660  123.9190   59.1950 C   0  0  0  0  0  0  0  0  0  0  0  0
  133.9660  123.8680   58.3520 O   0  0  0  0  0  0  0  0  0  0  0  0
  132.2320  125.1440   59.4390 C   0  0  0  0  0  0  0  0  0  0  0  0
  131.8790  125.4800   60.7520 C   0  0  0  0  0  0  0  0  0  0  0  0
  131.1040  126.6060   61.0110 C   0  0  0  0  0  0  0  0  0  0  0  0
  130.6640  127.4180   59.9650 C   0  0  0  0  0  0  0  0  0  0  0  0
  129.8850  128.5300   60.3410 N   0  0  0  0  0  0  0  0  0  0  0  0
  129.7560  129.1340   61.5410 C   0  0  0  0  0  0  0  0  0  0  0  0
  130.3340  128.7990   62.5760 O   0  0  0  0  0  0  0  0  0  0  0  0
  128.8030  130.3300   61.5740 C   0  0  0  0  0  0  0  0  0  0  0  0
  129.6760  131.9090   61.3530 S   0  0  0  0  0  0  0  0  0  0  0  0
  130.4270  131.8820   59.7400 C   0  0  0  0  0  0  0  0  0  0  0  0
  129.5670  132.1700   58.7310 N   0  0  0  0  0  0  0  0  0  0  0  0
  130.0330  132.1720   57.4600 C   0  0  0  0  0  0  0  0  0  0  0  0
  129.0120  132.4900   56.3840 C   0  0  0  0  0  0  0  0  0  0  0  0
  131.3630  131.9020   57.1460 C   0  0  0  0  0  0  0  0  0  0  0  0
  132.2630  131.6250   58.1810 C   0  0  0  0  0  0  0  0  0  0  0  0
  133.7190  131.3460   57.8140 C   0  0  0  0  0  0  0  0  0  0  0  0
  131.8000  131.6200   59.5170 C   0  0  0  0  0  0  0  0  0  0  0  0
  132.7340  131.3810   60.6210 C   0  0  0  0  0  0  0  0  0  0  0  0
  133.4730  131.1910   61.4900 N   0  0  0  0  0  0  0  0  0  0  0  0
  131.0200  127.0940   58.6470 C   0  0  0  0  0  0  0  0  0  0  0  0
  131.7950  125.9670   58.3900 C   0  0  0  0  0  0  0  0  0  0  0  0
  133.5836  120.6191   62.1894 H   0  0  0  0  0  0  0  0  0  0  0  0
  132.6840  120.5404   60.6367 H   0  0  0  0  0  0  0  0  0  0  0  0
  134.4800  120.5087   60.6367 H   0  0  0  0  0  0  0  0  0  0  0  0
  133.2903  122.8816   61.9970 H   0  0  0  0  0  0  0  0  0  0  0  0
  134.6392  122.7859   60.8148 H   0  0  0  0  0  0  0  0  0  0  0  0
  132.2176  124.8478   61.5861 H   0  0  0  0  0  0  0  0  0  0  0  0
  130.8362  126.8580   62.0477 H   0  0  0  0  0  0  0  0  0  0  0  0
  129.3710  128.9460   59.5780 H   0  0  0  0  0  0  0  0  0  0  0  0
  128.0647  130.2172   60.7664 H   0  0  0  0  0  0  0  0  0  0  0  0
  128.3170  130.3477   62.5607 H   0  0  0  0  0  0  0  0  0  0  0  0
  128.0629  132.7856   56.8550 H   0  0  0  0  0  0  0  0  0  0  0  0
  129.3835  133.3150   55.7584 H   0  0  0  0  0  0  0  0  0  0  0  0
  128.8493  131.6000   55.7584 H   0  0  0  0  0  0  0  0  0  0  0  0
  131.7010  131.9065   56.0992 H   0  0  0  0  0  0  0  0  0  0  0  0
  134.3133  131.2321   58.7326 H   0  0  0  0  0  0  0  0  0  0  0  0
  133.7772  130.4204   57.2225 H   0  0  0  0  0  0  0  0  0  0  0  0
  134.1152  132.1846   57.2225 H   0  0  0  0  0  0  0  0  0  0  0  0
  130.6859  127.7319   57.8154 H   0  0  0  0  0  0  0  0  0  0  0  0
  132.0678  125.7188   57.3537 H   0  0  0  0  0  0  0  0  0  0  0  0
  1  2  1  0
  2  3  1  0
  3  4  1  0
  4  5  2  0
  4  6  1  0
  6  7  2  0
  7  8  1  0
  8  9  2  0
  9 10  1  0
 10 11  1  0
 11 12  2  0
 11 13  1  0
 13 14  1  0
 14 15  1  0
 15 16  2  0
 16 17  1  0
 17 18  1  0
 17 19  2  0
 19 20  1  0
 20 21  1  0
 20 22  2  0
 22 23  1  0
 23 24  3  0
  9 25  1  0
 25 26  2  0
 26  6  1  0
 22 15  1  0
  1 27  1  0
  1 28  1  0
  1 29  1  0
  2 30  1  0
  2 31  1  0
  7 32  1  0
  8 33  1  0
 10 34  1  0
 13 35  1  0
 13 36  1  0
 18 37  1  0
 18 38  1  0
 18 39  1  0
 19 40  1  0
 21 41  1  0
 21 42  1  0
 21 43  1  0
 25 44  1  0
 26 45  1  0
M  END
>  <Binding energies>  (1) 
[-6.76]

>  <Ligand effiencies>  (1) 
[-0.25037037037037035]

>  <Interactions>  (1) 
["V-A:PRO:540:CA:4881, V-A:TYR:531:CE2:4791, V-B:TYR:539:CE1:9847, V-A:ILE:369:CG2:3234, V-A:PRO:540:CB:4883, V-A:ILE:369:CD1:3236, V-A:LEU:363:CA:3182, V-A:PRO:540:N:4882, V-A:ASP:366:CG:3210, V-A:LEU:475:CD2:4256, V-A:LEU:363:CD1:3186, V-A:TYR:539:CE1:4873, H-A:ARG:545:NH2:4926, V-A:TYR:539:CD1:4871, V-A:ASP:366:CB:3209, V-B:TYR:539:CZ:9849, V-A:TYR:539:CZ:4875, H-B:TYR:539:OH:9850, V-A:MET:535:CE:4833, V-A:TYR:539:CG:4870, V-A:TYR:539:CE2:4874, V-A:TYR:539:CD2:4872, H-A:ALA:541:N:4889, V-A:LEU:363:CB:3184"]

$$$$
1aa_Ghoteimi_2023
     RDKit          3D

 67 70  0  0  0  0  0  0  0  0999 V2000
  131.7000  126.4750   73.8860 C   0  0  0  0  0  0  0  0  0  0  0  0
  130.3260  125.9290   73.4880 C   0  0  0  0  0  0  0  0  0  0  0  0
  129.3180  126.8570   73.8710 O   0  0  0  0  0  0  0  0  0  0  0  0
  129.0540  127.9550   73.1180 C   0  0  0  0  0  0  0  0  0  0  0  0
  128.7550  129.0530   73.5970 O   0  0  0  0  0  0  0  0  0  0  0  0
  129.1620  127.7030   71.6410 C   0  0  0  0  0  0  0  0  0  0  0  0
  128.0550  127.3110   70.8720 C   0  0  0  0  0  0  0  0  0  0  0  0
  128.1850  127.0850   69.5040 C   0  0  0  0  0  0  0  0  0  0  0  0
  129.4290  127.2500   68.8780 C   0  0  0  0  0  0  0  0  0  0  0  0
  129.6800  127.0500   67.5080 N   0  0  0  0  0  0  0  0  0  0  0  0
  130.0560  125.9350   66.8390 C   0  0  0  0  0  0  0  0  0  0  0  0
  130.2490  124.8360   67.3570 O   0  0  0  0  0  0  0  0  0  0  0  0
  130.2530  126.0590   65.3200 C   0  0  0  0  0  0  0  0  0  0  0  0
  131.2120  125.0980   64.8590 O   0  0  0  0  0  0  0  0  0  0  0  0
  131.2030  124.6770   63.5370 C   0  0  0  0  0  0  0  0  0  0  0  0
  131.1430  125.6270   62.5620 N   0  0  0  0  0  0  0  0  0  0  0  0
  131.1190  125.2530   61.2560 C   0  0  0  0  0  0  0  0  0  0  0  0
  131.0540  126.3600   60.2430 C   0  0  0  0  0  0  0  0  0  0  0  0
  131.3880  126.1300   58.9000 C   0  0  0  0  0  0  0  0  0  0  0  0
  131.3310  127.1550   57.9600 C   0  0  0  0  0  0  0  0  0  0  0  0
  130.9380  128.4390   58.3300 C   0  0  0  0  0  0  0  0  0  0  0  0
  130.9110  129.3920   57.3300 O   0  0  0  0  0  0  0  0  0  0  0  0
  131.5860  130.6290   57.5330 C   0  0  0  0  0  0  0  0  0  0  0  0
  130.5960  128.6830   59.6680 C   0  0  0  0  0  0  0  0  0  0  0  0
  130.6530  127.6570   60.6050 C   0  0  0  0  0  0  0  0  0  0  0  0
  131.1750  123.9010   60.8990 C   0  0  0  0  0  0  0  0  0  0  0  0
  131.2480  122.9040   61.8820 C   0  0  0  0  0  0  0  0  0  0  0  0
  131.3160  121.4810   61.4360 C   0  0  0  0  0  0  0  0  0  0  0  0
  132.5000  120.9690   60.8940 C   0  0  0  0  0  0  0  0  0  0  0  0
  132.5740  119.6400   60.4860 C   0  0  0  0  0  0  0  0  0  0  0  0
  131.4720  118.7960   60.6140 C   0  0  0  0  0  0  0  0  0  0  0  0
  131.6380  117.4940   60.1820 O   0  0  0  0  0  0  0  0  0  0  0  0
  132.8950  116.8540   60.3710 C   0  0  0  0  0  0  0  0  0  0  0  0
  130.2850  119.3030   61.1650 C   0  0  0  0  0  0  0  0  0  0  0  0
  130.2130  120.6320   61.5720 C   0  0  0  0  0  0  0  0  0  0  0  0
  131.2540  123.3050   63.2380 C   0  0  0  0  0  0  0  0  0  0  0  0
  131.2840  122.3350   64.3340 C   0  0  0  0  0  0  0  0  0  0  0  0
  131.3080  121.5690   65.2010 N   0  0  0  0  0  0  0  0  0  0  0  0
  130.5320  127.6380   69.6410 C   0  0  0  0  0  0  0  0  0  0  0  0
  130.4010  127.8630   71.0070 C   0  0  0  0  0  0  0  0  0  0  0  0
  131.7785  126.5062   74.9828 H   0  0  0  0  0  0  0  0  0  0  0  0
  132.4860  125.8209   73.4806 H   0  0  0  0  0  0  0  0  0  0  0  0
  131.8226  127.4902   73.4806 H   0  0  0  0  0  0  0  0  0  0  0  0
  130.2922  125.7797   72.3987 H   0  0  0  0  0  0  0  0  0  0  0  0
  130.1521  124.9685   73.9952 H   0  0  0  0  0  0  0  0  0  0  0  0
  127.0752  127.1810   71.3547 H   0  0  0  0  0  0  0  0  0  0  0  0
  127.3100  126.7764   68.9132 H   0  0  0  0  0  0  0  0  0  0  0  0
  129.5490  127.8760   66.9410 H   0  0  0  0  0  0  0  0  0  0  0  0
  129.2920  125.8829   64.8146 H   0  0  0  0  0  0  0  0  0  0  0  0
  130.6222  127.0693   65.0900 H   0  0  0  0  0  0  0  0  0  0  0  0
  131.7000  125.1234   58.5847 H   0  0  0  0  0  0  0  0  0  0  0  0
  131.5993  126.9487   56.9134 H   0  0  0  0  0  0  0  0  0  0  0  0
  131.6890  130.8178   58.6118 H   0  0  0  0  0  0  0  0  0  0  0  0
  132.5837  130.5823   57.0720 H   0  0  0  0  0  0  0  0  0  0  0  0
  131.0069  131.4427   57.0720 H   0  0  0  0  0  0  0  0  0  0  0  0
  130.2812  129.6905   59.9777 H   0  0  0  0  0  0  0  0  0  0  0  0
  130.3788  127.8649   61.6498 H   0  0  0  0  0  0  0  0  0  0  0  0
  131.1616  123.6176   59.8362 H   0  0  0  0  0  0  0  0  0  0  0  0
  133.3792  121.6217   60.7895 H   0  0  0  0  0  0  0  0  0  0  0  0
  133.5106  119.2524   60.0587 H   0  0  0  0  0  0  0  0  0  0  0  0
  133.0961  116.7516   61.4476 H   0  0  0  0  0  0  0  0  0  0  0  0
  132.8727  115.8575   59.9057 H   0  0  0  0  0  0  0  0  0  0  0  0
  133.6877  117.4582   59.9057 H   0  0  0  0  0  0  0  0  0  0  0  0
  129.4084  118.6477   61.2756 H   0  0  0  0  0  0  0  0  0  0  0  0
  129.2787  121.0187   62.0052 H   0  0  0  0  0  0  0  0  0  0  0  0
  131.5119  127.7667   69.1580 H   0  0  0  0  0  0  0  0  0  0  0  0
  131.2785  128.1695   71.5953 H   0  0  0  0  0  0  0  0  0  0  0  0
  1  2  1  0
  2  3  1  0
  3  4  1  0
  4  5  2  0
  4  6  1  0
  6  7  2  0
  7  8  1  0
  8  9  2  0
  9 10  1  0
 10 11  1  0
 11 12  2  0
 11 13  1  0
 13 14  1  0
 14 15  1  0
 15 16  2  0
 16 17  1  0
 17 18  1  0
 18 19  2  0
 19 20  1  0
 20 21  2  0
 21 22  1  0
 22 23  1  0
 21 24  1  0
 24 25  2  0
 17 26  2  0
 26 27  1  0
 27 28  1  0
 28 29  2  0
 29 30  1  0
 30 31  2  0
 31 32  1  0
 32 33  1  0
 31 34  1  0
 34 35  2  0
 27 36  2  0
 36 37  1  0
 37 38  3  0
  9 39  1  0
 39 40  2  0
 40  6  1  0
 36 15  1  0
 25 18  1  0
 35 28  1  0
  1 41  1  0
  1 42  1  0
  1 43  1  0
  2 44  1  0
  2 45  1  0
  7 46  1  0
  8 47  1  0
 10 48  1  0
 13 49  1  0
 13 50  1  0
 19 51  1  0
 20 52  1  0
 23 53  1  0
 23 54  1  0
 23 55  1  0
 24 56  1  0
 25 57  1  0
 26 58  1  0
 29 59  1  0
 30 60  1  0
 33 61  1  0
 33 62  1  0
 33 63  1  0
 34 64  1  0
 35 65  1  0
 39 66  1  0
 40 67  1  0
M  END
>  <Binding energies>  (1) 
[-7.63]

>  <Ligand effiencies>  (1) 
[-0.18609756097560975]

>  <Interactions>  (1) 
["V-B:ALA:541:CB:9864, V-B:TYR:539:CE1:9847, V-A:ILE:369:CG2:3234, H-A:TYR:484:OH:4345, V-A:ASP:366:CG:3210, V-A:LEU:475:CD2:4256, H-A:ARG:545:NH2:4926, V-B:TYR:539:CD1:9845, V-B:TYR:539:CG:9844, V-B:TYR:539:C:9839, V-B:GLU:543:CD:9880, V-B:GLU:543:CG:9879, H-A:GLU:543:OE2:4908, V-B:GLU:543:CB:9878, V-A:HIS:456:CE1:4066, V-A:ASP:366:CB:3209, H-A:GLU:543:OE1:4907, H-B:GLU:543:OE2:9882, V-B:HIS:456:CE1:9040, V-A:GLU:543:CD:4906, V-A:GLU:543:CG:4905, V-B:GLU:543:C:9874, V-B:GLY:544:CA:9886, V-B:HIS:456:CD2:9039, V-A:GLU:543:C:4900, V-A:LYS:547:CE:4948, V-A:GLY:544:C:4910, V-A:HIS:456:CG:4063, V-B:GLY:544:C:9884, V-A:HIS:456:CD2:4065, H-A:LYS:547:NZ:4949, V-A:HIS:456:CB:4062, H-B:LYS:547:NZ:9923, V-A:GLY:544:CA:4912, H-A:HIS:456:NE2:4067, H-A:TYR:531:OH:4793, V-A:PRO:482:CB:4323, V-A:TYR:484:CZ:4344, V-A:TYR:484:CE2:4343, V-A:PRO:482:CG:4324, V-A:LEU:373:CD1:3277, V-A:SER:385:CA:3404, V-A:SER:385:CB:3406"]

$$$$
1b_Ghoteimi_2023
     RDKit          3D

 54 57  0  0  0  0  0  0  0  0999 V2000
  134.3780  124.2570   59.4630 C   0  0  0  0  0  0  0  0  0  0  0  0
  133.3210  124.1890   58.5130 O   0  0  0  0  0  0  0  0  0  0  0  0
  132.3010  125.1180   58.5740 C   0  0  0  0  0  0  0  0  0  0  0  0
  131.6940  125.3000   59.8150 C   0  0  0  0  0  0  0  0  0  0  0  0
  130.6560  126.2140   59.9710 C   0  0  0  0  0  0  0  0  0  0  0  0
  130.1960  126.9790   58.8900 C   0  0  0  0  0  0  0  0  0  0  0  0
  129.0730  127.9640   59.0620 C   0  0  0  0  0  0  0  0  0  0  0  0
  128.4050  128.1530   60.2760 C   0  0  0  0  0  0  0  0  0  0  0  0
  127.3680  129.0870   60.3850 C   0  0  0  0  0  0  0  0  0  0  0  0
  126.6960  129.2310   61.7110 C   0  0  0  0  0  0  0  0  0  0  0  0
  125.3320  129.5290   61.7820 C   0  0  0  0  0  0  0  0  0  0  0  0
  124.7030  129.6720   63.0160 C   0  0  0  0  0  0  0  0  0  0  0  0
  125.4250  129.5260   64.2010 C   0  0  0  0  0  0  0  0  0  0  0  0
  124.7180  129.6860   65.3780 O   0  0  0  0  0  0  0  0  0  0  0  0
  125.2930  129.2360   66.5990 C   0  0  0  0  0  0  0  0  0  0  0  0
  126.7950  129.2350   64.1340 C   0  0  0  0  0  0  0  0  0  0  0  0
  127.4210  129.0930   62.8990 C   0  0  0  0  0  0  0  0  0  0  0  0
  127.0200  129.8450   59.2400 C   0  0  0  0  0  0  0  0  0  0  0  0
  126.0080  130.9020   59.3250 C   0  0  0  0  0  0  0  0  0  0  0  0
  125.2080  131.7360   59.3940 N   0  0  0  0  0  0  0  0  0  0  0  0
  127.7200  129.5910   58.0390 C   0  0  0  0  0  0  0  0  0  0  0  0
  127.4140  130.4390   56.5030 S   0  0  0  0  0  0  0  0  0  0  0  0
  128.0560  132.1390   56.6620 C   0  0  0  0  0  0  0  0  0  0  0  0
  129.3570  132.2690   57.4680 C   0  0  0  0  0  0  0  0  0  0  0  0
  130.3740  132.7370   56.9510 O   0  0  0  0  0  0  0  0  0  0  0  0
  129.2740  131.8340   58.7450 N   0  0  0  0  0  0  0  0  0  0  0  0
  130.2840  131.8320   59.7000 C   0  0  0  0  0  0  0  0  0  0  0  0
  131.5490  131.2930   59.4680 C   0  0  0  0  0  0  0  0  0  0  0  0
  132.2410  131.4870   60.6420 C   0  0  0  0  0  0  0  0  0  0  0  0
  131.4350  132.1130   61.5330 O   0  0  0  0  0  0  0  0  0  0  0  0
  130.1980  132.3270   60.9240 N   0  0  0  0  0  0  0  0  0  0  0  0
  128.7300  128.6900   57.9660 N   0  0  0  0  0  0  0  0  0  0  0  0
  130.8130  126.7880   57.6430 C   0  0  0  0  0  0  0  0  0  0  0  0
  131.8500  125.8730   57.4830 C   0  0  0  0  0  0  0  0  0  0  0  0
  133.9594  124.2301   60.4799 H   0  0  0  0  0  0  0  0  0  0  0  0
  135.0536  123.4005   59.3218 H   0  0  0  0  0  0  0  0  0  0  0  0
  134.9383  125.1930   59.3218 H   0  0  0  0  0  0  0  0  0  0  0  0
  132.0388  124.7152   60.6805 H   0  0  0  0  0  0  0  0  0  0  0  0
  130.1887  126.3382   60.9590 H   0  0  0  0  0  0  0  0  0  0  0  0
  128.6979  127.5608   61.1555 H   0  0  0  0  0  0  0  0  0  0  0  0
  124.7512  129.6515   60.8559 H   0  0  0  0  0  0  0  0  0  0  0  0
  123.6281  129.9020   63.0570 H   0  0  0  0  0  0  0  0  0  0  0  0
  124.7402  129.6686   67.4460 H   0  0  0  0  0  0  0  0  0  0  0  0
  125.2381  128.1384   66.6476 H   0  0  0  0  0  0  0  0  0  0  0  0
  126.3452  129.5530   66.6476 H   0  0  0  0  0  0  0  0  0  0  0  0
  127.3768  129.1186   65.0603 H   0  0  0  0  0  0  0  0  0  0  0  0
  128.4973  128.8699   62.8569 H   0  0  0  0  0  0  0  0  0  0  0  0
  128.2407  132.5299   55.6505 H   0  0  0  0  0  0  0  0  0  0  0  0
  127.2931  132.7050   57.2165 H   0  0  0  0  0  0  0  0  0  0  0  0
  128.3820  131.4810   59.0570 H   0  0  0  0  0  0  0  0  0  0  0  0
  131.9146  130.8162   58.5466 H   0  0  0  0  0  0  0  0  0  0  0  0
  133.2817  131.1825   60.8271 H   0  0  0  0  0  0  0  0  0  0  0  0
  130.4705  127.3724   56.7763 H   0  0  0  0  0  0  0  0  0  0  0  0
  132.3174  125.7421   56.4959 H   0  0  0  0  0  0  0  0  0  0  0  0
  1  2  1  0
  2  3  1  0
  3  4  2  0
  4  5  1  0
  5  6  2  0
  6  7  1  0
  7  8  2  0
  8  9  1  0
  9 10  1  0
 10 11  2  0
 11 12  1  0
 12 13  2  0
 13 14  1  0
 14 15  1  0
 13 16  1  0
 16 17  2  0
  9 18  2  0
 18 19  1  0
 19 20  3  0
 18 21  1  0
 21 22  1  0
 22 23  1  0
 23 24  1  0
 24 25  2  0
 24 26  1  0
 26 27  1  0
 27 28  1  0
 28 29  2  0
 29 30  1  0
 30 31  1  0
 21 32  2  0
  6 33  1  0
 33 34  2  0
 34  3  1  0
 32  7  1  0
 17 10  1  0
 31 27  2  0
  1 35  1  0
  1 36  1  0
  1 37  1  0
  4 38  1  0
  5 39  1  0
  8 40  1  0
 11 41  1  0
 12 42  1  0
 15 43  1  0
 15 44  1  0
 15 45  1  0
 16 46  1  0
 17 47  1  0
 23 48  1  0
 23 49  1  0
 26 50  1  0
 28 51  1  0
 29 52  1  0
 33 53  1  0
 34 54  1  0
M  END
>  <Binding energies>  (1) 
[-7.88]

>  <Ligand effiencies>  (1) 
[-0.22514285714285714]

>  <Interactions>  (1) 
["V-A:PRO:540:CA:4881, V-A:ILE:369:CG2:3234, V-A:PRO:540:CB:4883, V-B:ARG:545:CZ:9898, V-A:ILE:369:CD1:3236, V-A:ASP:366:CG:3210, V-A:TYR:539:CE1:4873, V-B:ASP:366:CG:8184, H-B:TYR:484:OH:9319, H-B:GLY:454:N:9021, V-A:TYR:539:CD1:4871, H-B:ARG:545:NE:9896, H-A:TYR:539:OH:4876, V-A:ASP:366:CA:3207, V-A:ASP:366:CB:3209, V-B:HIS:456:CE1:9040, V-A:TYR:539:CZ:4875, H-B:TYR:539:OH:9850, V-A:ILE:369:CB:3233, H-A:TYR:539:N:4868, V-A:MET:535:CE:4833, V-A:TYR:539:CG:4870, V-A:TYR:539:CE2:4874, V-A:TYR:539:CD2:4872, V-A:ILE:369:CG1:3235, H-A:ALA:541:N:4889, V-B:ARG:545:CG:9894, V-B:ARG:545:CD:9895"]

$$$$
1b_Grossjean_2025
     RDKit          3D

 42 43  0  0  0  0  0  0  0  0999 V2000
  128.7160  122.7640   59.6690 C   0  0  0  0  0  0  0  0  0  0  0  0
  127.6370  122.7670   58.7440 O   0  0  0  0  0  0  0  0  0  0  0  0
  127.8330  123.1080   57.4450 C   0  0  0  0  0  0  0  0  0  0  0  0
  127.5250  122.3800   56.4950 O   0  0  0  0  0  0  0  0  0  0  0  0
  128.4560  124.4640   57.2740 C   0  0  0  0  0  0  0  0  0  0  0  0
  127.8130  125.6350   57.7040 C   0  0  0  0  0  0  0  0  0  0  0  0
  128.4170  126.8770   57.5300 C   0  0  0  0  0  0  0  0  0  0  0  0
  129.6700  126.9770   56.9270 C   0  0  0  0  0  0  0  0  0  0  0  0
  130.1840  128.2820   56.8020 N   0  0  0  0  0  0  0  0  0  0  0  0
  129.5410  129.4570   56.6250 C   0  0  0  0  0  0  0  0  0  0  0  0
  128.3220  129.6000   56.5430 O   0  0  0  0  0  0  0  0  0  0  0  0
  130.4420  130.6890   56.5350 C   0  0  0  0  0  0  0  0  0  0  0  0
  129.7550  132.1090   57.4410 S   0  0  0  0  0  0  0  0  0  0  0  0
  130.2540  131.9450   59.1420 C   0  0  0  0  0  0  0  0  0  0  0  0
  129.2340  132.0780   60.0250 N   0  0  0  0  0  0  0  0  0  0  0  0
  129.5010  131.9700   61.3480 C   0  0  0  0  0  0  0  0  0  0  0  0
  128.3100  132.1150   62.2760 C   0  0  0  0  0  0  0  0  0  0  0  0
  130.7850  131.7380   61.8390 C   0  0  0  0  0  0  0  0  0  0  0  0
  131.8460  131.6220   60.9360 C   0  0  0  0  0  0  0  0  0  0  0  0
  133.2470  131.3840   61.4990 C   0  0  0  0  0  0  0  0  0  0  0  0
  131.5910  131.7310   59.5500 C   0  0  0  0  0  0  0  0  0  0  0  0
  132.6940  131.6560   58.5890 C   0  0  0  0  0  0  0  0  0  0  0  0
  133.5670  131.5970   57.8320 N   0  0  0  0  0  0  0  0  0  0  0  0
  130.3200  125.8110   56.4950 C   0  0  0  0  0  0  0  0  0  0  0  0
  129.7150  124.5690   56.6700 C   0  0  0  0  0  0  0  0  0  0  0  0
  128.3194  122.7651   60.6950 H   0  0  0  0  0  0  0  0  0  0  0  0
  129.3294  121.8641   59.5140 H   0  0  0  0  0  0  0  0  0  0  0  0
  129.3344  123.6604   59.5140 H   0  0  0  0  0  0  0  0  0  0  0  0
  126.8244  125.5709   58.1821 H   0  0  0  0  0  0  0  0  0  0  0  0
  127.9015  127.7869   57.8710 H   0  0  0  0  0  0  0  0  0  0  0  0
  131.1920  128.3310   56.8410 H   0  0  0  0  0  0  0  0  0  0  0  0
  131.4259  130.4403   56.9593 H   0  0  0  0  0  0  0  0  0  0  0  0
  130.5235  130.9716   55.4750 H   0  0  0  0  0  0  0  0  0  0  0  0
  128.6520  132.0734   63.3207 H   0  0  0  0  0  0  0  0  0  0  0  0
  127.8157  133.0800   62.0902 H   0  0  0  0  0  0  0  0  0  0  0  0
  127.5986  131.2968   62.0902 H   0  0  0  0  0  0  0  0  0  0  0  0
  130.9608  131.6475   62.9211 H   0  0  0  0  0  0  0  0  0  0  0  0
  133.2065  131.3909   62.5982 H   0  0  0  0  0  0  0  0  0  0  0  0
  133.6210  130.4095   61.1520 H   0  0  0  0  0  0  0  0  0  0  0  0
  133.9218  132.1804   61.1520 H   0  0  0  0  0  0  0  0  0  0  0  0
  131.3087  125.8780   56.0175 H   0  0  0  0  0  0  0  0  0  0  0  0
  130.2322  123.6597   56.3298 H   0  0  0  0  0  0  0  0  0  0  0  0
  1  2  1  0
  2  3  1  0
  3  4  2  0
  3  5  1  0
  5  6  2  0
  6  7  1  0
  7  8  2  0
  8  9  1  0
  9 10  1  0
 10 11  2  0
 10 12  1  0
 12 13  1  0
 13 14  1  0
 14 15  2  0
 15 16  1  0
 16 17  1  0
 16 18  2  0
 18 19  1  0
 19 20  1  0
 19 21  2  0
 21 22  1  0
 22 23  3  0
  8 24  1  0
 24 25  2  0
 25  5  1  0
 21 14  1  0
  1 26  1  0
  1 27  1  0
  1 28  1  0
  6 29  1  0
  7 30  1  0
  9 31  1  0
 12 32  1  0
 12 33  1  0
 17 34  1  0
 17 35  1  0
 17 36  1  0
 18 37  1  0
 20 38  1  0
 20 39  1  0
 20 40  1  0
 24 41  1  0
 25 42  1  0
M  END
>  <Binding energies>  (1) 
[-6.77]

>  <Ligand effiencies>  (1) 
[-0.2603846153846154]

>  <Interactions>  (1) 
["V-A:PRO:540:CA:4881, V-A:ARG:545:CZ:4924, V-B:TYR:539:CE1:9847, V-A:PRO:540:CB:4883, V-A:PRO:540:N:4882, V-B:PRO:540:CA:9855, V-B:TYR:539:CD1:9845, V-B:TYR:539:C:9839, V-A:ALA:541:CB:4890, V-B:TYR:539:CZ:9849, V-A:PRO:540:C:4879, H-A:TYR:531:OH:4793, V-B:MET:535:CE:9807, V-A:MET:535:CE:4833, H-B:TYR:539:N:9842, V-A:ASN:362:CB:3173"]

$$$$
1c_Ghoteimi_2023
     RDKit          3D

 54 57  0  0  0  0  0  0  0  0999 V2000
  124.1570  132.1990   61.8560 C   0  0  0  0  0  0  0  0  0  0  0  0
  124.7480  132.2050   60.5610 O   0  0  0  0  0  0  0  0  0  0  0  0
  125.1660  131.0120   60.0040 C   0  0  0  0  0  0  0  0  0  0  0  0
  126.0090  130.2210   60.7790 C   0  0  0  0  0  0  0  0  0  0  0  0
  126.4820  129.0040   60.2960 C   0  0  0  0  0  0  0  0  0  0  0  0
  126.1250  128.5410   59.0200 C   0  0  0  0  0  0  0  0  0  0  0  0
  126.6360  127.2320   58.4930 C   0  0  0  0  0  0  0  0  0  0  0  0
  128.0000  126.9300   58.4110 C   0  0  0  0  0  0  0  0  0  0  0  0
  128.4280  125.6840   57.9370 C   0  0  0  0  0  0  0  0  0  0  0  0
  129.8950  125.4050   57.9410 C   0  0  0  0  0  0  0  0  0  0  0  0
  130.5290  124.9460   59.0990 C   0  0  0  0  0  0  0  0  0  0  0  0
  131.8990  124.7080   59.1060 C   0  0  0  0  0  0  0  0  0  0  0  0
  132.6630  124.9270   57.9590 C   0  0  0  0  0  0  0  0  0  0  0  0
  134.0160  124.6630   58.0590 O   0  0  0  0  0  0  0  0  0  0  0  0
  134.5380  124.1670   59.2870 C   0  0  0  0  0  0  0  0  0  0  0  0
  132.0310  125.3940   56.7970 C   0  0  0  0  0  0  0  0  0  0  0  0
  130.6590  125.6320   56.7920 C   0  0  0  0  0  0  0  0  0  0  0  0
  127.4510  124.7510   57.5160 C   0  0  0  0  0  0  0  0  0  0  0  0
  127.8360  123.4420   56.9790 C   0  0  0  0  0  0  0  0  0  0  0  0
  128.1410  122.4090   56.5550 N   0  0  0  0  0  0  0  0  0  0  0  0
  126.0940  125.1140   57.6420 C   0  0  0  0  0  0  0  0  0  0  0  0
  124.7610  123.9820   57.3120 S   0  0  0  0  0  0  0  0  0  0  0  0
  124.1130  123.5330   58.9550 C   0  0  0  0  0  0  0  0  0  0  0  0
  125.1890  123.6150   60.0430 C   0  0  0  0  0  0  0  0  0  0  0  0
  124.9000  124.0700   61.1510 O   0  0  0  0  0  0  0  0  0  0  0  0
  126.3980  123.1240   59.6950 N   0  0  0  0  0  0  0  0  0  0  0  0
  127.4890  122.9390   60.5300 C   0  0  0  0  0  0  0  0  0  0  0  0
  127.5540  123.1350   61.8290 N   0  0  0  0  0  0  0  0  0  0  0  0
  128.7410  122.8180   62.3070 C   0  0  0  0  0  0  0  0  0  0  0  0
  129.6710  122.3480   61.3840 C   0  0  0  0  0  0  0  0  0  0  0  0
  128.9410  122.3280   59.8060 S   0  0  0  0  0  0  0  0  0  0  0  0
  125.7010  126.3170   58.1250 N   0  0  0  0  0  0  0  0  0  0  0  0
  125.2700  129.3430   58.2500 C   0  0  0  0  0  0  0  0  0  0  0  0
  124.7960  130.5610   58.7280 C   0  0  0  0  0  0  0  0  0  0  0  0
  124.9482  132.2070   62.6202 H   0  0  0  0  0  0  0  0  0  0  0  0
  123.5239  133.0908   61.9743 H   0  0  0  0  0  0  0  0  0  0  0  0
  123.5422  131.2946   61.9743 H   0  0  0  0  0  0  0  0  0  0  0  0
  126.3044  130.5606   61.7827 H   0  0  0  0  0  0  0  0  0  0  0  0
  127.1472  128.3946   60.9254 H   0  0  0  0  0  0  0  0  0  0  0  0
  128.7432  127.6789   58.7220 H   0  0  0  0  0  0  0  0  0  0  0  0
  129.9399  124.7718   60.0115 H   0  0  0  0  0  0  0  0  0  0  0  0
  132.3846  124.3440   60.0234 H   0  0  0  0  0  0  0  0  0  0  0  0
  134.0239  124.6555   60.1279 H   0  0  0  0  0  0  0  0  0  0  0  0
  134.3781  123.0800   59.3410 H   0  0  0  0  0  0  0  0  0  0  0  0
  135.6154  124.3822   59.3410 H   0  0  0  0  0  0  0  0  0  0  0  0
  132.6215  125.5729   55.8863 H   0  0  0  0  0  0  0  0  0  0  0  0
  130.1725  126.0014   55.8772 H   0  0  0  0  0  0  0  0  0  0  0  0
  123.2946  124.2211   59.2134 H   0  0  0  0  0  0  0  0  0  0  0  0
  123.7601  122.4923   58.9063 H   0  0  0  0  0  0  0  0  0  0  0  0
  126.5080  122.7870   58.7500 H   0  0  0  0  0  0  0  0  0  0  0  0
  128.9830  122.9192   63.3753 H   0  0  0  0  0  0  0  0  0  0  0  0
  130.7011  122.0392   61.6155 H   0  0  0  0  0  0  0  0  0  0  0  0
  124.9681  129.0025   57.2485 H   0  0  0  0  0  0  0  0  0  0  0  0
  124.1286  131.1725   58.1030 H   0  0  0  0  0  0  0  0  0  0  0  0
  1  2  1  0
  2  3  1  0
  3  4  2  0
  4  5  1  0
  5  6  2  0
  6  7  1  0
  7  8  2  0
  8  9  1  0
  9 10  1  0
 10 11  2  0
 11 12  1  0
 12 13  2  0
 13 14  1  0
 14 15  1  0
 13 16  1  0
 16 17  2  0
  9 18  2  0
 18 19  1  0
 19 20  3  0
 18 21  1  0
 21 22  1  0
 22 23  1  0
 23 24  1  0
 24 25  2  0
 24 26  1  0
 26 27  1  0
 27 28  2  0
 28 29  1  0
 29 30  2  0
 30 31  1  0
 21 32  2  0
  6 33  1  0
 33 34  2  0
 34  3  1  0
 32  7  1  0
 17 10  1  0
 31 27  1  0
  1 35  1  0
  1 36  1  0
  1 37  1  0
  4 38  1  0
  5 39  1  0
  8 40  1  0
 11 41  1  0
 12 42  1  0
 15 43  1  0
 15 44  1  0
 15 45  1  0
 16 46  1  0
 17 47  1  0
 23 48  1  0
 23 49  1  0
 26 50  1  0
 29 51  1  0
 30 52  1  0
 33 53  1  0
 34 54  1  0
M  END
>  <Binding energies>  (1) 
[-7.22]

>  <Ligand effiencies>  (1) 
[-0.20628571428571427]

>  <Interactions>  (1) 
["H-B:ARG:545:NH2:9900, V-B:ALA:541:CB:9864, V-B:TYR:539:CE1:9847, V-A:ILE:369:CG2:3234, V-B:ILE:369:CG2:8208, V-A:ILE:369:CD1:3236, V-B:ILE:369:CD1:8210, V-A:ASP:366:CG:3210, V-A:TYR:539:CE1:4873, V-B:PRO:540:CA:9855, V-B:ASP:366:CG:8184, V-B:PRO:540:CB:9857, V-B:TYR:539:CD1:9845, V-B:LEU:363:CA:8156, V-B:ASP:366:CB:8183, V-B:PRO:540:N:9856, H-B:TYR:531:OH:9767, V-B:TYR:539:C:9839, V-A:ASP:366:CA:3207, V-A:ASP:366:CB:3209, V-B:TYR:539:CZ:9849, V-A:TYR:539:CZ:4875, H-B:ALA:541:N:9863, H-B:TYR:539:OH:9850, V-A:ILE:369:CB:3233, V-B:PRO:540:C:9853, H-B:TYR:539:N:9842, V-B:LEU:363:CB:8158, V-A:ILE:369:CG1:3235, V-B:ALA:541:CA:9862"]

$$$$
1c_Grossjean_2025
     RDKit          3D

 40 41  0  0  0  0  0  0  0  0999 V2000
  132.9810  125.4610   65.7670 C   0  0  0  0  0  0  0  0  0  0  0  0
  133.6510  125.0710   64.5720 O   0  0  0  0  0  0  0  0  0  0  0  0
  132.9480  125.0500   63.3830 C   0  0  0  0  0  0  0  0  0  0  0  0
  133.5470  124.3760   62.3190 C   0  0  0  0  0  0  0  0  0  0  0  0
  132.9170  124.2980   61.0800 C   0  0  0  0  0  0  0  0  0  0  0  0
  131.6620  124.8960   60.8930 C   0  0  0  0  0  0  0  0  0  0  0  0
  130.9420  124.8870   59.6830 N   0  0  0  0  0  0  0  0  0  0  0  0
  131.3690  124.6030   58.4340 C   0  0  0  0  0  0  0  0  0  0  0  0
  132.5140  124.2690   58.1290 O   0  0  0  0  0  0  0  0  0  0  0  0
  130.3070  124.7090   57.3370 C   0  0  0  0  0  0  0  0  0  0  0  0
  129.1150  123.3400   57.4140 S   0  0  0  0  0  0  0  0  0  0  0  0
  128.4070  123.3010   59.0480 C   0  0  0  0  0  0  0  0  0  0  0  0
  129.2870  122.9200   60.0090 N   0  0  0  0  0  0  0  0  0  0  0  0
  128.8610  122.8530   61.2920 C   0  0  0  0  0  0  0  0  0  0  0  0
  129.9030  122.4300   62.3100 C   0  0  0  0  0  0  0  0  0  0  0  0
  127.5530  123.1500   61.6660 C   0  0  0  0  0  0  0  0  0  0  0  0
  126.6320  123.5200   60.6820 C   0  0  0  0  0  0  0  0  0  0  0  0
  125.1990  123.8240   61.1150 C   0  0  0  0  0  0  0  0  0  0  0  0
  127.0530  123.5950   59.3340 C   0  0  0  0  0  0  0  0  0  0  0  0
  126.0880  123.9270   58.2820 C   0  0  0  0  0  0  0  0  0  0  0  0
  125.3270  124.1900   57.4520 N   0  0  0  0  0  0  0  0  0  0  0  0
  131.0640  125.5820   61.9520 C   0  0  0  0  0  0  0  0  0  0  0  0
  131.6980  125.6570   63.1900 C   0  0  0  0  0  0  0  0  0  0  0  0
  133.5605  125.1237   66.6390 H   0  0  0  0  0  0  0  0  0  0  0  0
  132.8844  126.5565   65.7924 H   0  0  0  0  0  0  0  0  0  0  0  0
  131.9807  125.0040   65.7924 H   0  0  0  0  0  0  0  0  0  0  0  0
  134.5288  123.9005   62.4605 H   0  0  0  0  0  0  0  0  0  0  0  0
  133.4032  123.7676   60.2480 H   0  0  0  0  0  0  0  0  0  0  0  0
  129.9560  125.0760   59.7840 H   0  0  0  0  0  0  0  0  0  0  0  0
  129.7657  125.6591   57.4566 H   0  0  0  0  0  0  0  0  0  0  0  0
  130.8167  124.6630   56.3633 H   0  0  0  0  0  0  0  0  0  0  0  0
  129.5100  122.5895   63.3249 H   0  0  0  0  0  0  0  0  0  0  0  0
  130.1395  121.3647   62.1716 H   0  0  0  0  0  0  0  0  0  0  0  0
  130.8151  123.0290   62.1716 H   0  0  0  0  0  0  0  0  0  0  0  0
  127.2487  123.0942   62.7216 H   0  0  0  0  0  0  0  0  0  0  0  0
  125.1426  123.8360   62.2135 H   0  0  0  0  0  0  0  0  0  0  0  0
  124.8976  124.8061   60.7217 H   0  0  0  0  0  0  0  0  0  0  0  0
  124.5249  123.0489   60.7217 H   0  0  0  0  0  0  0  0  0  0  0  0
  130.0867  126.0659   61.8078 H   0  0  0  0  0  0  0  0  0  0  0  0
  131.2164  126.1946   64.0201 H   0  0  0  0  0  0  0  0  0  0  0  0
  1  2  1  0
  2  3  1  0
  3  4  2  0
  4  5  1  0
  5  6  2  0
  6  7  1  0
  7  8  1  0
  8  9  2  0
  8 10  1  0
 10 11  1  0
 11 12  1  0
 12 13  2  0
 13 14  1  0
 14 15  1  0
 14 16  2  0
 16 17  1  0
 17 18  1  0
 17 19  2  0
 19 20  1  0
 20 21  3  0
  6 22  1  0
 22 23  2  0
 23  3  1  0
 19 12  1  0
  1 24  1  0
  1 25  1  0
  1 26  1  0
  4 27  1  0
  5 28  1  0
  7 29  1  0
 10 30  1  0
 10 31  1  0
 15 32  1  0
 15 33  1  0
 15 34  1  0
 16 35  1  0
 18 36  1  0
 18 37  1  0
 18 38  1  0
 22 39  1  0
 23 40  1  0
M  END
>  <Binding energies>  (1) 
[-6.17]

>  <Ligand effiencies>  (1) 
[-0.25708333333333333]

>  <Interactions>  (1) 
["V-A:ARG:545:CZ:4924, H-A:ARG:545:NE:4922, V-B:ALA:541:CB:9864, V-B:TYR:539:CE1:9847, H-A:GLY:454:N:4047, H-A:TYR:484:OH:4345, V-B:PRO:540:CA:9855, V-B:PRO:540:CB:9857, H-B:TYR:531:OH:9767, V-A:HIS:456:CE1:4066, V-B:TYR:539:CZ:9849, H-B:TYR:539:OH:9850, V-B:PRO:540:C:9853, V-A:ARG:545:CG:4920, V-A:ARG:545:CD:4921, V-B:ALA:541:CA:9862"]

$$$$
1d_Ghoteimi_2023
     RDKit          3D

 50 52  0  0  0  0  0  0  0  0999 V2000
  124.6580  122.7840   56.6310 C   0  0  0  0  0  0  0  0  0  0  0  0
  125.8580  122.0390   56.4910 O   0  0  0  0  0  0  0  0  0  0  0  0
  126.9930  122.4470   57.0950 C   0  0  0  0  0  0  0  0  0  0  0  0
  128.1390  122.1080   56.7990 O   0  0  0  0  0  0  0  0  0  0  0  0
  126.7220  123.4150   58.2440 C   0  0  0  0  0  0  0  0  0  0  0  0
  127.5410  122.7500   59.7250 S   0  0  0  0  0  0  0  0  0  0  0  0
  128.2310  124.1340   60.6050 C   0  0  0  0  0  0  0  0  0  0  0  0
  127.5770  125.3000   60.3870 N   0  0  0  0  0  0  0  0  0  0  0  0
  128.0010  126.4380   60.9940 C   0  0  0  0  0  0  0  0  0  0  0  0
  127.2170  127.6850   60.7050 C   0  0  0  0  0  0  0  0  0  0  0  0
  126.8290  128.0150   59.3970 C   0  0  0  0  0  0  0  0  0  0  0  0
  126.1080  129.1750   59.1310 C   0  0  0  0  0  0  0  0  0  0  0  0
  125.7540  130.0430   60.1610 C   0  0  0  0  0  0  0  0  0  0  0  0
  125.0430  131.1720   59.8030 O   0  0  0  0  0  0  0  0  0  0  0  0
  123.6340  131.0760   59.6260 C   0  0  0  0  0  0  0  0  0  0  0  0
  126.1360  129.7280   61.4720 C   0  0  0  0  0  0  0  0  0  0  0  0
  126.8550  128.5660   61.7350 C   0  0  0  0  0  0  0  0  0  0  0  0
  129.1050  126.4180   61.8540 C   0  0  0  0  0  0  0  0  0  0  0  0
  129.8090  125.2300   62.0850 C   0  0  0  0  0  0  0  0  0  0  0  0
  130.9830  125.2810   63.0090 C   0  0  0  0  0  0  0  0  0  0  0  0
  132.2720  125.0390   62.5230 C   0  0  0  0  0  0  0  0  0  0  0  0
  133.3700  125.0860   63.3780 C   0  0  0  0  0  0  0  0  0  0  0  0
  133.2040  125.3800   64.7310 C   0  0  0  0  0  0  0  0  0  0  0  0
  134.3480  125.3980   65.5040 O   0  0  0  0  0  0  0  0  0  0  0  0
  134.2300  125.3400   66.9220 C   0  0  0  0  0  0  0  0  0  0  0  0
  131.9140  125.6370   65.2200 C   0  0  0  0  0  0  0  0  0  0  0  0
  130.8180  125.5900   64.3630 C   0  0  0  0  0  0  0  0  0  0  0  0
  129.3770  124.0510   61.4270 C   0  0  0  0  0  0  0  0  0  0  0  0
  130.1380  122.8040   61.5500 C   0  0  0  0  0  0  0  0  0  0  0  0
  130.7390  121.8200   61.6480 N   0  0  0  0  0  0  0  0  0  0  0  0
  124.4349  122.9225   57.6992 H   0  0  0  0  0  0  0  0  0  0  0  0
  124.7783  123.7665   56.1511 H   0  0  0  0  0  0  0  0  0  0  0  0
  123.8308  122.2404   56.1511 H   0  0  0  0  0  0  0  0  0  0  0  0
  127.1304  124.4075   58.0029 H   0  0  0  0  0  0  0  0  0  0  0  0
  125.6404  123.5205   58.4143 H   0  0  0  0  0  0  0  0  0  0  0  0
  127.0997  127.3449   58.5677 H   0  0  0  0  0  0  0  0  0  0  0  0
  125.8147  129.4088   58.0969 H   0  0  0  0  0  0  0  0  0  0  0  0
  123.1424  131.0425   60.6094 H   0  0  0  0  0  0  0  0  0  0  0  0
  123.2743  131.9517   59.0659 H   0  0  0  0  0  0  0  0  0  0  0  0
  123.3964  130.1596   59.0659 H   0  0  0  0  0  0  0  0  0  0  0  0
  125.8660  130.4029   62.2976 H   0  0  0  0  0  0  0  0  0  0  0  0
  127.1451  128.3338   62.7703 H   0  0  0  0  0  0  0  0  0  0  0  0
  129.4228  127.3451   62.3535 H   0  0  0  0  0  0  0  0  0  0  0  0
  132.4195  124.8098   61.4573 H   0  0  0  0  0  0  0  0  0  0  0  0
  134.3775  124.8894   62.9826 H   0  0  0  0  0  0  0  0  0  0  0  0
  135.1264  125.7806   67.3828 H   0  0  0  0  0  0  0  0  0  0  0  0
  133.3400  125.9033   67.2392 H   0  0  0  0  0  0  0  0  0  0  0  0
  134.1324  124.2913   67.2392 H   0  0  0  0  0  0  0  0  0  0  0  0
  131.7684  125.8763   66.2837 H   0  0  0  0  0  0  0  0  0  0  0  0
  129.8115  125.7981   64.7549 H   0  0  0  0  0  0  0  0  0  0  0  0
  1  2  1  0
  2  3  1  0
  3  4  2  0
  3  5  1  0
  5  6  1  0
  6  7  1  0
  7  8  2  0
  8  9  1  0
  9 10  1  0
 10 11  2  0
 11 12  1  0
 12 13  2  0
 13 14  1  0
 14 15  1  0
 13 16  1  0
 16 17  2  0
  9 18  2  0
 18 19  1  0
 19 20  1  0
 20 21  2  0
 21 22  1  0
 22 23  2  0
 23 24  1  0
 24 25  1  0
 23 26  1  0
 26 27  2  0
 19 28  2  0
 28 29  1  0
 29 30  3  0
 28  7  1  0
 17 10  1  0
 27 20  1  0
  1 31  1  0
  1 32  1  0
  1 33  1  0
  5 34  1  0
  5 35  1  0
 11 36  1  0
 12 37  1  0
 15 38  1  0
 15 39  1  0
 15 40  1  0
 16 41  1  0
 17 42  1  0
 18 43  1  0
 21 44  1  0
 22 45  1  0
 25 46  1  0
 25 47  1  0
 25 48  1  0
 26 49  1  0
 27 50  1  0
M  END
>  <Binding energies>  (1) 
[-6.82]

>  <Ligand effiencies>  (1) 
[-0.22733333333333333]

>  <Interactions>  (1) 
["V-A:ARG:545:CZ:4924, H-A:ARG:545:NE:4922, V-B:ILE:369:CG2:8208, H-A:GLY:454:N:4047, H-A:TYR:484:OH:4345, V-B:ILE:369:CD1:8210, V-B:TYR:531:CE2:9765, V-B:PRO:540:CA:9855, V-B:ILE:538:CG2:9835, V-B:ASP:366:CG:8184, V-B:PRO:540:CB:9857, V-B:PRO:540:CD:9859, V-B:ILE:538:CB:9834, V-B:LEU:363:CD1:8160, V-B:ASP:366:CB:8183, V-B:PRO:540:N:9856, V-B:ILE:369:CB:8207, H-A:TYR:539:OH:4876, V-B:TYR:539:C:9839, V-B:GLU:543:CD:9880, V-A:HIS:456:CE1:4066, V-B:ASP:366:CA:8181, H-B:TYR:539:N:9842, V-A:TYR:484:CZ:4344, V-B:TYR:539:CA:9841, V-A:ARG:545:CG:4920, V-A:ARG:545:CD:4921, V-A:ARG:545:CB:4919, V-A:ILE:455:C:4049"]

$$$$
1d_Grossjean_2025
     RDKit          3D

 36 37  0  0  0  0  0  0  0  0999 V2000
  128.5690  122.7740   56.4810 C   0  0  0  0  0  0  0  0  0  0  0  0
  127.5900  123.0590   57.6030 C   0  0  0  0  0  0  0  0  0  0  0  0
  126.2950  123.5050   57.3460 C   0  0  0  0  0  0  0  0  0  0  0  0
  125.4310  123.7430   58.4210 C   0  0  0  0  0  0  0  0  0  0  0  0
  124.0120  124.2160   58.1130 C   0  0  0  0  0  0  0  0  0  0  0  0
  125.8950  123.5340   59.7400 C   0  0  0  0  0  0  0  0  0  0  0  0
  124.9940  123.7300   60.8780 C   0  0  0  0  0  0  0  0  0  0  0  0
  124.2800  123.8850   61.7750 N   0  0  0  0  0  0  0  0  0  0  0  0
  127.2330  123.1040   59.9080 C   0  0  0  0  0  0  0  0  0  0  0  0
  127.9800  122.7930   61.4920 S   0  0  0  0  0  0  0  0  0  0  0  0
  129.6840  123.4250   61.4220 C   0  0  0  0  0  0  0  0  0  0  0  0
  130.7190  122.3060   61.5500 C   0  0  0  0  0  0  0  0  0  0  0  0
  131.7960  122.5430   62.0980 O   0  0  0  0  0  0  0  0  0  0  0  0
  130.3400  121.1080   61.0550 N   0  0  0  0  0  0  0  0  0  0  0  0
  131.0460  119.8920   60.9960 C   0  0  0  0  0  0  0  0  0  0  0  0
  132.4140  119.9980   60.7310 C   0  0  0  0  0  0  0  0  0  0  0  0
  133.2060  118.8560   60.6570 C   0  0  0  0  0  0  0  0  0  0  0  0
  132.6320  117.6030   60.8550 C   0  0  0  0  0  0  0  0  0  0  0  0
  131.2710  117.4840   61.1290 C   0  0  0  0  0  0  0  0  0  0  0  0
  130.4760  118.6240   61.2030 C   0  0  0  0  0  0  0  0  0  0  0  0
  128.0560  122.8550   58.8580 N   0  0  0  0  0  0  0  0  0  0  0  0
  129.5427  122.4905   56.9071 H   0  0  0  0  0  0  0  0  0  0  0  0
  128.1863  121.9500   55.8609 H   0  0  0  0  0  0  0  0  0  0  0  0
  128.6884  123.6747   55.8609 H   0  0  0  0  0  0  0  0  0  0  0  0
  125.9564  123.6678   56.3121 H   0  0  0  0  0  0  0  0  0  0  0  0
  123.4729  124.3957   59.0548 H   0  0  0  0  0  0  0  0  0  0  0  0
  124.0545  125.1486   57.5312 H   0  0  0  0  0  0  0  0  0  0  0  0
  123.4865  123.4444   57.5312 H   0  0  0  0  0  0  0  0  0  0  0  0
  129.8329  123.9374   60.4601 H   0  0  0  0  0  0  0  0  0  0  0  0
  129.8244  124.1143   62.2677 H   0  0  0  0  0  0  0  0  0  0  0  0
  129.4050  121.0590   60.6780 H   0  0  0  0  0  0  0  0  0  0  0  0
  132.8671  120.9889   60.5802 H   0  0  0  0  0  0  0  0  0  0  0  0
  134.2815  118.9430   60.4429 H   0  0  0  0  0  0  0  0  0  0  0  0
  133.2576  116.7003   60.7947 H   0  0  0  0  0  0  0  0  0  0  0  0
  130.8256  116.4906   61.2866 H   0  0  0  0  0  0  0  0  0  0  0  0
  129.4022  118.5327   61.4234 H   0  0  0  0  0  0  0  0  0  0  0  0
  1  2  1  0
  2  3  2  0
  3  4  1  0
  4  5  1  0
  4  6  2  0
  6  7  1  0
  7  8  3  0
  6  9  1  0
  9 10  1  0
 10 11  1  0
 11 12  1  0
 12 13  2  0
 12 14  1  0
 14 15  1  0
 15 16  2  0
 16 17  1  0
 17 18  2  0
 18 19  1  0
 19 20  2  0
  9 21  2  0
 21  2  1  0
 20 15  1  0
  1 22  1  0
  1 23  1  0
  1 24  1  0
  3 25  1  0
  5 26  1  0
  5 27  1  0
  5 28  1  0
 11 29  1  0
 11 30  1  0
 14 31  1  0
 16 32  1  0
 17 33  1  0
 18 34  1  0
 19 35  1  0
 20 36  1  0
M  END
>  <Binding energies>  (1) 
[-7.55]

>  <Ligand effiencies>  (1) 
[-0.3431818181818182]

>  <Interactions>  (1) 
["H-B:ARG:545:NH2:9900, V-B:ALA:541:CB:9864, V-B:TYR:539:CE1:9847, V-A:ILE:369:CG2:3234, V-A:LEU:475:CD2:4256, V-B:TYR:531:CE2:9765, V-B:PRO:540:CA:9855, V-B:ASP:366:CG:8184, V-B:PRO:540:CB:9857, V-B:LEU:363:CD1:8160, V-B:TYR:539:CD1:9845, V-B:LEU:363:CA:8156, V-B:ASP:366:CB:8183, V-B:PRO:540:N:9856, V-B:TYR:539:CG:9844, V-B:TYR:539:C:9839, V-B:TYR:539:CZ:9849, H-B:ALA:541:N:9863, V-A:PRO:482:CB:4323, V-B:TYR:539:CE2:9848, V-A:PRO:482:CG:4324, V-B:TYR:539:CD2:9846, H-B:TYR:539:O:9840, V-A:LEU:373:CD1:3277, V-A:SER:385:CA:3404, V-A:SER:385:CB:3406"]

$$$$
1e_Grossjean_2025
     RDKit          3D

 38 39  0  0  0  0  0  0  0  0999 V2000
  130.2040  126.1400   67.0010 C   0  0  0  0  0  0  0  0  0  0  0  0
  131.1170  125.7130   65.8670 C   0  0  0  0  0  0  0  0  0  0  0  0
  132.5080  125.7460   65.9960 C   0  0  0  0  0  0  0  0  0  0  0  0
  133.2840  125.3410   64.9100 C   0  0  0  0  0  0  0  0  0  0  0  0
  132.6600  124.9200   63.7330 C   0  0  0  0  0  0  0  0  0  0  0  0
  131.2620  124.9080   63.6730 C   0  0  0  0  0  0  0  0  0  0  0  0
  130.6910  124.4860   62.4590 N   0  0  0  0  0  0  0  0  0  0  0  0
  131.3010  124.2710   61.2730 C   0  0  0  0  0  0  0  0  0  0  0  0
  132.5040  124.4290   61.0580 O   0  0  0  0  0  0  0  0  0  0  0  0
  130.3900  123.8270   60.1270 C   0  0  0  0  0  0  0  0  0  0  0  0
  129.3060  122.4500   60.6130 S   0  0  0  0  0  0  0  0  0  0  0  0
  127.6110  122.9710   60.4440 C   0  0  0  0  0  0  0  0  0  0  0  0
  127.0000  123.2120   61.6320 N   0  0  0  0  0  0  0  0  0  0  0  0
  125.7070  123.6120   61.6320 C   0  0  0  0  0  0  0  0  0  0  0  0
  125.0940  123.8700   62.9950 C   0  0  0  0  0  0  0  0  0  0  0  0
  124.9710  123.7750   60.4600 C   0  0  0  0  0  0  0  0  0  0  0  0
  125.5830  123.5060   59.2310 C   0  0  0  0  0  0  0  0  0  0  0  0
  124.7490  123.6740   57.9620 C   0  0  0  0  0  0  0  0  0  0  0  0
  126.9320  123.0830   59.2080 C   0  0  0  0  0  0  0  0  0  0  0  0
  127.5690  122.7410   57.9340 C   0  0  0  0  0  0  0  0  0  0  0  0
  128.0700  122.4700   56.9260 N   0  0  0  0  0  0  0  0  0  0  0  0
  130.4960  125.3060   64.7310 N   0  0  0  0  0  0  0  0  0  0  0  0
  130.6855  125.9148   67.9640 H   0  0  0  0  0  0  0  0  0  0  0  0
  130.0128  127.2210   66.9306 H   0  0  0  0  0  0  0  0  0  0  0  0
  129.2518  125.5938   66.9306 H   0  0  0  0  0  0  0  0  0  0  0  0
  132.9794  126.0831   66.9310 H   0  0  0  0  0  0  0  0  0  0  0  0
  134.3817  125.3530   64.9799 H   0  0  0  0  0  0  0  0  0  0  0  0
  133.2587  124.6027   62.8665 H   0  0  0  0  0  0  0  0  0  0  0  0
  129.6870  124.3830   62.4770 H   0  0  0  0  0  0  0  0  0  0  0  0
  129.7658  124.6788   59.8191 H   0  0  0  0  0  0  0  0  0  0  0  0
  131.0279  123.4818   59.3000 H   0  0  0  0  0  0  0  0  0  0  0  0
  125.8049  123.5708   63.7793 H   0  0  0  0  0  0  0  0  0  0  0  0
  124.8647  124.9410   63.0971 H   0  0  0  0  0  0  0  0  0  0  0  0
  124.1679  123.2853   63.0971 H   0  0  0  0  0  0  0  0  0  0  0  0
  123.9241  124.1103   60.5006 H   0  0  0  0  0  0  0  0  0  0  0  0
  123.7044  123.8844   58.2350 H   0  0  0  0  0  0  0  0  0  0  0  0
  125.1484  124.5097   57.3687 H   0  0  0  0  0  0  0  0  0  0  0  0
  124.7937  122.7488   57.3687 H   0  0  0  0  0  0  0  0  0  0  0  0
  1  2  1  0
  2  3  2  0
  3  4  1  0
  4  5  2  0
  5  6  1  0
  6  7  1  0
  7  8  1  0
  8  9  2  0
  8 10  1  0
 10 11  1  0
 11 12  1  0
 12 13  2  0
 13 14  1  0
 14 15  1  0
 14 16  2  0
 16 17  1  0
 17 18  1  0
 17 19  2  0
 19 20  1  0
 20 21  3  0
  6 22  2  0
 22  2  1  0
 19 12  1  0
  1 23  1  0
  1 24  1  0
  1 25  1  0
  3 26  1  0
  4 27  1  0
  5 28  1  0
  7 29  1  0
 10 30  1  0
 10 31  1  0
 15 32  1  0
 15 33  1  0
 15 34  1  0
 16 35  1  0
 18 36  1  0
 18 37  1  0
 18 38  1  0
M  END
>  <Binding energies>  (1) 
[-7.11]

>  <Ligand effiencies>  (1) 
[-0.3091304347826087]

>  <Interactions>  (1) 
["V-A:ARG:545:CZ:4924, V-B:TYR:539:CE1:9847, V-B:ARG:545:CZ:9898, V-B:PRO:540:CA:9855, V-B:ASP:366:CG:8184, V-B:PRO:540:CB:9857, V-B:LEU:363:CD1:8160, V-B:PRO:540:N:9856, V-B:TYR:539:C:9839, V-B:GLU:543:CD:9880, V-B:GLU:543:CG:9879, V-B:GLU:543:CB:9878, V-A:HIS:456:CE1:4066, H-B:GLU:543:OE1:9881, H-B:ALA:541:N:9863, V-B:PRO:540:C:9853, H-B:TYR:539:N:9842, V-B:ASN:362:CB:8147, V-A:ARG:545:CG:4920, V-A:ARG:545:CD:4921, V-B:ALA:541:C:9860, V-B:ASN:362:CG:8148"]

$$$$
1f_Grossjean_2025
     RDKit          3D

 35 36  0  0  0  0  0  0  0  0999 V2000
  129.7430  125.9330   57.2740 C   0  0  0  0  0  0  0  0  0  0  0  0
  130.7000  125.2910   58.2600 C   0  0  0  0  0  0  0  0  0  0  0  0
  132.0420  125.0880   57.9470 C   0  0  0  0  0  0  0  0  0  0  0  0
  132.8750  124.4800   58.8920 C   0  0  0  0  0  0  0  0  0  0  0  0
  134.3380  124.2510   58.5200 C   0  0  0  0  0  0  0  0  0  0  0  0
  132.3370  124.0950   60.1420 C   0  0  0  0  0  0  0  0  0  0  0  0
  133.1810  123.4060   61.1230 C   0  0  0  0  0  0  0  0  0  0  0  0
  133.8480  122.8620   61.8960 N   0  0  0  0  0  0  0  0  0  0  0  0
  130.9700  124.3650   60.3840 C   0  0  0  0  0  0  0  0  0  0  0  0
  130.1210  123.9530   61.8950 S   0  0  0  0  0  0  0  0  0  0  0  0
  128.4510  124.6880   61.8360 C   0  0  0  0  0  0  0  0  0  0  0  0
  127.4310  123.9110   60.9910 C   0  0  0  0  0  0  0  0  0  0  0  0
  126.6640  123.1060   61.5210 O   0  0  0  0  0  0  0  0  0  0  0  0
  127.4840  124.1720   59.6670 N   0  0  0  0  0  0  0  0  0  0  0  0
  126.7040  123.6530   58.6170 C   0  0  0  0  0  0  0  0  0  0  0  0
  125.3210  123.8520   58.4470 C   0  0  0  0  0  0  0  0  0  0  0  0
  124.6700  123.2780   57.3510 C   0  0  0  0  0  0  0  0  0  0  0  0
  125.4190  122.5220   56.4490 C   0  0  0  0  0  0  0  0  0  0  0  0
  126.7530  122.3200   56.5870 N   0  0  0  0  0  0  0  0  0  0  0  0
  127.3710  122.8830   57.6570 C   0  0  0  0  0  0  0  0  0  0  0  0
  130.1660  124.9330   59.4510 N   0  0  0  0  0  0  0  0  0  0  0  0
  128.9517  126.4638   57.8236 H   0  0  0  0  0  0  0  0  0  0  0  0
  130.2919  126.6463   56.6416 H   0  0  0  0  0  0  0  0  0  0  0  0
  129.2912  125.1545   56.6416 H   0  0  0  0  0  0  0  0  0  0  0  0
  132.4409  125.4012   56.9709 H   0  0  0  0  0  0  0  0  0  0  0  0
  134.9390  124.1569   59.4365 H   0  0  0  0  0  0  0  0  0  0  0  0
  134.4256  123.3282   57.9277 H   0  0  0  0  0  0  0  0  0  0  0  0
  134.7034  125.1029   57.9277 H   0  0  0  0  0  0  0  0  0  0  0  0
  128.0674  124.7472   62.8652 H   0  0  0  0  0  0  0  0  0  0  0  0
  128.5639  125.6711   61.3556 H   0  0  0  0  0  0  0  0  0  0  0  0
  128.1960  124.8260   59.3710 H   0  0  0  0  0  0  0  0  0  0  0  0
  124.7557  124.4556   59.1723 H   0  0  0  0  0  0  0  0  0  0  0  0
  123.5893  123.4196   57.2029 H   0  0  0  0  0  0  0  0  0  0  0  0
  124.9050  122.0698   55.5880 H   0  0  0  0  0  0  0  0  0  0  0  0
  128.4532  122.7256   57.7757 H   0  0  0  0  0  0  0  0  0  0  0  0
  1  2  1  0
  2  3  2  0
  3  4  1  0
  4  5  1  0
  4  6  2  0
  6  7  1  0
  7  8  3  0
  6  9  1  0
  9 10  1  0
 10 11  1  0
 11 12  1  0
 12 13  2  0
 12 14  1  0
 14 15  1  0
 15 16  2  0
 16 17  1  0
 17 18  2  0
 18 19  1  0
 19 20  2  0
  9 21  2  0
 21  2  1  0
 20 15  1  0
  1 22  1  0
  1 23  1  0
  1 24  1  0
  3 25  1  0
  5 26  1  0
  5 27  1  0
  5 28  1  0
 11 29  1  0
 11 30  1  0
 14 31  1  0
 16 32  1  0
 17 33  1  0
 18 34  1  0
 20 35  1  0
M  END
>  <Binding energies>  (1) 
[-6.53]

>  <Ligand effiencies>  (1) 
[-0.2968181818181818]

>  <Interactions>  (1) 
["V-B:TYR:539:CE1:9847, V-A:ILE:369:CG2:3234, V-A:ILE:369:CD1:3236, H-A:GLY:454:N:4047, V-A:ASP:366:CG:3210, V-B:ILE:538:CA:9832, V-B:PRO:540:CA:9855, V-B:ILE:538:CG2:9835, V-B:PRO:540:CB:9857, V-B:PRO:540:CD:9859, V-B:ILE:538:CB:9834, V-B:LEU:363:CD1:8160, V-B:PRO:540:N:9856, V-B:TYR:539:C:9839, V-B:GLU:543:CD:9880, V-A:ASP:366:CA:3207, V-A:ASP:366:CB:3209, V-B:TYR:539:CZ:9849, H-B:ALA:541:N:9863, V-A:ILE:369:CB:3233, V-A:ASP:366:C:3205, H-B:TYR:539:N:9842"]

$$$$
1g_Grossjean_2025
     RDKit          3D

 39 40  0  0  0  0  0  0  0  0999 V2000
  134.3960  124.3800   61.7820 C   0  0  0  0  0  0  0  0  0  0  0  0
  133.4450  123.2000   61.7180 C   0  0  0  0  0  0  0  0  0  0  0  0
  133.8160  121.9940   61.1250 C   0  0  0  0  0  0  0  0  0  0  0  0
  132.8910  120.9460   61.0810 C   0  0  0  0  0  0  0  0  0  0  0  0
  133.3160  119.6390   60.4120 C   0  0  0  0  0  0  0  0  0  0  0  0
  131.6090  121.1300   61.6460 C   0  0  0  0  0  0  0  0  0  0  0  0
  130.6070  120.0650   61.5650 C   0  0  0  0  0  0  0  0  0  0  0  0
  129.8170  119.2220   61.4990 N   0  0  0  0  0  0  0  0  0  0  0  0
  131.3280  122.3780   62.2500 C   0  0  0  0  0  0  0  0  0  0  0  0
  129.7720  122.7770   63.0150 S   0  0  0  0  0  0  0  0  0  0  0  0
  128.8740  123.8720   61.8740 C   0  0  0  0  0  0  0  0  0  0  0  0
  128.3910  123.1280   60.6280 C   0  0  0  0  0  0  0  0  0  0  0  0
  127.6430  122.1560   60.7410 O   0  0  0  0  0  0  0  0  0  0  0  0
  128.8330  123.5940   59.4480 N   0  0  0  0  0  0  0  0  0  0  0  0
  128.4540  123.0740   58.1340 C   0  0  0  0  0  0  0  0  0  0  0  0
  126.9640  123.1830   57.8220 C   0  0  0  0  0  0  0  0  0  0  0  0
  126.4630  122.6650   56.6240 C   0  0  0  0  0  0  0  0  0  0  0  0
  125.1030  122.7630   56.3400 C   0  0  0  0  0  0  0  0  0  0  0  0
  124.2490  123.3740   57.2560 C   0  0  0  0  0  0  0  0  0  0  0  0
  124.7420  123.8880   58.4530 C   0  0  0  0  0  0  0  0  0  0  0  0
  126.1020  123.7920   58.7380 C   0  0  0  0  0  0  0  0  0  0  0  0
  132.2240  123.3980   62.2670 N   0  0  0  0  0  0  0  0  0  0  0  0
  134.5984  124.6312   62.8336 H   0  0  0  0  0  0  0  0  0  0  0  0
  135.3389  124.1187   61.2794 H   0  0  0  0  0  0  0  0  0  0  0  0
  133.9403  125.2459   61.2794 H   0  0  0  0  0  0  0  0  0  0  0  0
  134.8219  121.8686   60.6978 H   0  0  0  0  0  0  0  0  0  0  0  0
  133.5583  118.8938   61.1840 H   0  0  0  0  0  0  0  0  0  0  0  0
  132.4936  119.2636   59.7853 H   0  0  0  0  0  0  0  0  0  0  0  0
  134.2019  119.8190   59.7853 H   0  0  0  0  0  0  0  0  0  0  0  0
  128.0023  124.2922   62.3971 H   0  0  0  0  0  0  0  0  0  0  0  0
  129.5639  124.6653   61.5503 H   0  0  0  0  0  0  0  0  0  0  0  0
  129.4290  124.4100   59.4460 H   0  0  0  0  0  0  0  0  0  0  0  0
  129.0085  123.6359   57.3680 H   0  0  0  0  0  0  0  0  0  0  0  0
  128.6978  122.0014   58.1371 H   0  0  0  0  0  0  0  0  0  0  0  0
  127.1419  122.1807   55.9067 H   0  0  0  0  0  0  0  0  0  0  0  0
  124.7049  122.3600   55.3971 H   0  0  0  0  0  0  0  0  0  0  0  0
  123.1749  123.4512   57.0316 H   0  0  0  0  0  0  0  0  0  0  0  0
  124.0600  124.3678   59.1704 H   0  0  0  0  0  0  0  0  0  0  0  0
  126.4968  124.1948   59.6824 H   0  0  0  0  0  0  0  0  0  0  0  0
  1  2  1  0
  2  3  2  0
  3  4  1  0
  4  5  1  0
  4  6  2  0
  6  7  1  0
  7  8  3  0
  6  9  1  0
  9 10  1  0
 10 11  1  0
 11 12  1  0
 12 13  2  0
 12 14  1  0
 14 15  1  0
 15 16  1  0
 16 17  2  0
 17 18  1  0
 18 19  2  0
 19 20  1  0
 20 21  2  0
  9 22  2  0
 22  2  1  0
 21 16  1  0
  1 23  1  0
  1 24  1  0
  1 25  1  0
  3 26  1  0
  5 27  1  0
  5 28  1  0
  5 29  1  0
 11 30  1  0
 11 31  1  0
 14 32  1  0
 15 33  1  0
 15 34  1  0
 17 35  1  0
 18 36  1  0
 19 37  1  0
 20 38  1  0
 21 39  1  0
M  END
>  <Binding energies>  (1) 
[-6.82]

>  <Ligand effiencies>  (1) 
[-0.2965217391304348]

>  <Interactions>  (1) 
["V-B:ALA:541:CB:9864, V-B:TYR:539:CE1:9847, V-A:ILE:369:CG2:3234, V-A:ILE:369:CD1:3236, V-A:LEU:475:CD2:4256, V-B:TYR:531:CE2:9765, V-A:GLY:453:C:4039, V-B:ILE:538:CA:9832, V-B:PRO:540:CA:9855, V-B:ILE:538:CG2:9835, V-B:PRO:540:CB:9857, V-B:PRO:540:CD:9859, V-B:ILE:538:CB:9834, V-B:LEU:363:CD1:8160, V-B:TYR:539:CD1:9845, V-B:LEU:363:CA:8156, V-B:PRO:540:N:9856, V-B:TYR:539:C:9839, H-B:ALA:541:N:9863, V-A:LEU:373:CD1:3277, V-A:SER:385:CA:3404, V-A:GLY:453:CA:4041"]

$$$$
1h_Grossjean_2025
     RDKit          3D

 51 52  0  0  0  0  0  0  0  0999 V2000
  131.0710  125.4860   56.2780 C   0  0  0  0  0  0  0  0  0  0  0  0
  131.7480  126.3520   57.1820 O   0  0  0  0  0  0  0  0  0  0  0  0
  131.5570  126.1950   58.5430 C   0  0  0  0  0  0  0  0  0  0  0  0
  130.7610  127.0450   59.3260 C   0  0  0  0  0  0  0  0  0  0  0  0
  130.6240  126.8340   60.6990 C   0  0  0  0  0  0  0  0  0  0  0  0
  129.7380  127.7530   61.5340 C   0  0  0  0  0  0  0  0  0  0  0  0
  129.0860  128.8120   60.7640 N   0  0  0  0  0  0  0  0  0  0  0  0
  128.3570  129.8160   61.2850 C   0  0  0  0  0  0  0  0  0  0  0  0
  128.1760  129.9730   62.4920 O   0  0  0  0  0  0  0  0  0  0  0  0
  127.7310  130.7910   60.2880 C   0  0  0  0  0  0  0  0  0  0  0  0
  128.5780  132.4000   60.2860 S   0  0  0  0  0  0  0  0  0  0  0  0
  130.3220  132.1060   60.0400 C   0  0  0  0  0  0  0  0  0  0  0  0
  131.0530  131.9160   61.1690 N   0  0  0  0  0  0  0  0  0  0  0  0
  132.3820  131.6840   61.0550 C   0  0  0  0  0  0  0  0  0  0  0  0
  133.1290  131.4780   62.3590 C   0  0  0  0  0  0  0  0  0  0  0  0
  133.0330  131.6340   59.8240 C   0  0  0  0  0  0  0  0  0  0  0  0
  132.2920  131.8300   58.6540 C   0  0  0  0  0  0  0  0  0  0  0  0
  133.0250  131.7690   57.3160 C   0  0  0  0  0  0  0  0  0  0  0  0
  130.9030  132.0740   58.7510 C   0  0  0  0  0  0  0  0  0  0  0  0
  130.1020  132.2850   57.5420 C   0  0  0  0  0  0  0  0  0  0  0  0
  129.4690  132.4530   56.5870 N   0  0  0  0  0  0  0  0  0  0  0  0
  131.2580  125.7420   61.2940 C   0  0  0  0  0  0  0  0  0  0  0  0
  132.0550  124.8720   60.5340 C   0  0  0  0  0  0  0  0  0  0  0  0
  132.7130  123.7730   61.0560 O   0  0  0  0  0  0  0  0  0  0  0  0
  132.1460  122.4760   60.8950 C   0  0  0  0  0  0  0  0  0  0  0  0
  132.2050  125.1150   59.1610 C   0  0  0  0  0  0  0  0  0  0  0  0
  132.9780  124.2680   58.4040 O   0  0  0  0  0  0  0  0  0  0  0  0
  134.3630  124.3170   58.7130 C   0  0  0  0  0  0  0  0  0  0  0  0
  130.4909  124.7439   56.8461 H   0  0  0  0  0  0  0  0  0  0  0  0
  130.3919  126.0755   55.6446 H   0  0  0  0  0  0  0  0  0  0  0  0
  131.8070  124.9692   55.6446 H   0  0  0  0  0  0  0  0  0  0  0  0
  130.2382  127.8886   58.8516 H   0  0  0  0  0  0  0  0  0  0  0  0
  128.9577  127.1416   62.0108 H   0  0  0  0  0  0  0  0  0  0  0  0
  130.3936  128.2488   62.2651 H   0  0  0  0  0  0  0  0  0  0  0  0
  129.1730  128.7500   59.7600 H   0  0  0  0  0  0  0  0  0  0  0  0
  127.7924  130.3560   59.2795 H   0  0  0  0  0  0  0  0  0  0  0  0
  126.6854  130.9576   60.5863 H   0  0  0  0  0  0  0  0  0  0  0  0
  132.4501  131.6652   63.2040 H   0  0  0  0  0  0  0  0  0  0  0  0
  133.5005  130.4439   62.4093 H   0  0  0  0  0  0  0  0  0  0  0  0
  133.9781  132.1755   62.4093 H   0  0  0  0  0  0  0  0  0  0  0  0
  134.1151  131.4430   59.7730 H   0  0  0  0  0  0  0  0  0  0  0  0
  134.1067  131.6790   57.4943 H   0  0  0  0  0  0  0  0  0  0  0  0
  132.6737  130.8970   56.7449 H   0  0  0  0  0  0  0  0  0  0  0  0
  132.8227  132.6871   56.7449 H   0  0  0  0  0  0  0  0  0  0  0  0
  131.1314  125.5612   62.3716 H   0  0  0  0  0  0  0  0  0  0  0  0
  131.9531  122.0348   61.8840 H   0  0  0  0  0  0  0  0  0  0  0  0
  131.2006  122.5556   60.3383 H   0  0  0  0  0  0  0  0  0  0  0  0
  132.8465  121.8361   60.3383 H   0  0  0  0  0  0  0  0  0  0  0  0
  134.4951  124.3217   59.8050 H   0  0  0  0  0  0  0  0  0  0  0  0
  134.8652  123.4361   58.2867 H   0  0  0  0  0  0  0  0  0  0  0  0
  134.8017  125.2312   58.2867 H   0  0  0  0  0  0  0  0  0  0  0  0
  1  2  1  0
  2  3  1  0
  3  4  2  0
  4  5  1  0
  5  6  1  0
  6  7  1  0
  7  8  1  0
  8  9  2  0
  8 10  1  0
 10 11  1  0
 11 12  1  0
 12 13  2  0
 13 14  1  0
 14 15  1  0
 14 16  2  0
 16 17  1  0
 17 18  1  0
 17 19  2  0
 19 20  1  0
 20 21  3  0
  5 22  2  0
 22 23  1  0
 23 24  1  0
 24 25  1  0
 23 26  2  0
 26 27  1  0
 27 28  1  0
 26  3  1  0
 19 12  1  0
  1 29  1  0
  1 30  1  0
  1 31  1  0
  4 32  1  0
  6 33  1  0
  6 34  1  0
  7 35  1  0
 10 36  1  0
 10 37  1  0
 15 38  1  0
 15 39  1  0
 15 40  1  0
 16 41  1  0
 18 42  1  0
 18 43  1  0
 18 44  1  0
 22 45  1  0
 25 46  1  0
 25 47  1  0
 25 48  1  0
 28 49  1  0
 28 50  1  0
 28 51  1  0
M  END
>  <Binding energies>  (1) 
[-5.63]

>  <Ligand effiencies>  (1) 
[-0.19413793103448276]

>  <Interactions>  (1) 
["V-A:PRO:540:CA:4881, V-A:ARG:545:CZ:4924, V-A:TYR:531:CE2:4791, V-B:TYR:539:CE1:9847, V-A:ILE:369:CG2:3234, V-A:PRO:540:CB:4883, V-A:ILE:369:CD1:3236, V-A:PRO:540:N:4882, V-A:ASP:366:CG:3210, V-A:LEU:363:CD1:3186, V-B:TYR:539:CD1:9845, V-A:ASP:366:CA:3207, V-A:ASP:366:CB:3209, V-B:TYR:539:CZ:9849, V-A:PRO:540:C:4879, H-A:TYR:531:OH:4793, V-A:TYR:539:C:4865, H-B:TYR:539:OH:9850, V-A:ILE:369:CB:3233, V-A:ASP:366:C:3205, H-A:TYR:539:N:4868, H-A:ALA:541:N:4889, V-A:ASN:362:CB:3173, V-A:ASN:362:CG:3174"]

$$$$
1i_Grossjean_2025
     RDKit          3D

 32 33  0  0  0  0  0  0  0  0999 V2000
  125.0420  123.8510   62.3980 C   0  0  0  0  0  0  0  0  0  0  0  0
  125.6740  123.5200   61.0590 C   0  0  0  0  0  0  0  0  0  0  0  0
  124.9470  123.5890   59.8730 C   0  0  0  0  0  0  0  0  0  0  0  0
  125.5860  123.2820   58.6660 C   0  0  0  0  0  0  0  0  0  0  0  0
  124.7720  123.3800   57.3760 C   0  0  0  0  0  0  0  0  0  0  0  0
  126.9480  122.9040   58.6810 C   0  0  0  0  0  0  0  0  0  0  0  0
  127.6490  122.6270   57.4240 C   0  0  0  0  0  0  0  0  0  0  0  0
  128.2010  122.4110   56.4300 N   0  0  0  0  0  0  0  0  0  0  0  0
  127.6000  122.8380   59.9350 C   0  0  0  0  0  0  0  0  0  0  0  0
  129.3080  122.3810   60.1390 S   0  0  0  0  0  0  0  0  0  0  0  0
  129.5510  121.9260   61.8820 C   0  0  0  0  0  0  0  0  0  0  0  0
  130.8130  122.5590   62.4710 C   0  0  0  0  0  0  0  0  0  0  0  0
  131.9180  122.1870   62.0720 O   0  0  0  0  0  0  0  0  0  0  0  0
  130.6050  123.5080   63.4100 N   0  0  0  0  0  0  0  0  0  0  0  0
  131.5660  124.2310   64.1030 C   0  0  0  0  0  0  0  0  0  0  0  0
  131.2500  125.2100   65.0430 C   0  0  0  0  0  0  0  0  0  0  0  0
  132.4630  125.6790   65.4920 C   0  0  0  0  0  0  0  0  0  0  0  0
  133.4570  125.0190   64.8530 O   0  0  0  0  0  0  0  0  0  0  0  0
  132.8760  124.1040   63.9740 N   0  0  0  0  0  0  0  0  0  0  0  0
  126.9780  123.1570   61.0970 N   0  0  0  0  0  0  0  0  0  0  0  0
  125.7001  123.5063   63.2093 H   0  0  0  0  0  0  0  0  0  0  0  0
  124.9006  124.9389   62.4778 H   0  0  0  0  0  0  0  0  0  0  0  0
  124.0672  123.3477   62.4778 H   0  0  0  0  0  0  0  0  0  0  0  0
  123.8864  123.8804   59.8846 H   0  0  0  0  0  0  0  0  0  0  0  0
  123.7077  123.5081   57.6228 H   0  0  0  0  0  0  0  0  0  0  0  0
  125.1186  124.2429   56.7884 H   0  0  0  0  0  0  0  0  0  0  0  0
  124.9039  122.4595   56.7884 H   0  0  0  0  0  0  0  0  0  0  0  0
  128.6801  122.2653   62.4620 H   0  0  0  0  0  0  0  0  0  0  0  0
  129.6639  120.8331   61.9344 H   0  0  0  0  0  0  0  0  0  0  0  0
  129.6480  123.6990   63.6710 H   0  0  0  0  0  0  0  0  0  0  0  0
  130.2480  125.5369   65.3578 H   0  0  0  0  0  0  0  0  0  0  0  0
  132.6026  126.4646   66.2491 H   0  0  0  0  0  0  0  0  0  0  0  0
  1  2  1  0
  2  3  2  0
  3  4  1  0
  4  5  1  0
  4  6  2  0
  6  7  1  0
  7  8  3  0
  6  9  1  0
  9 10  1  0
 10 11  1  0
 11 12  1  0
 12 13  2  0
 12 14  1  0
 14 15  1  0
 15 16  1  0
 16 17  2  0
 17 18  1  0
 18 19  1  0
  9 20  2  0
 20  2  1  0
 19 15  2  0
  1 21  1  0
  1 22  1  0
  1 23  1  0
  3 24  1  0
  5 25  1  0
  5 26  1  0
  5 27  1  0
 11 28  1  0
 11 29  1  0
 14 30  1  0
 16 31  1  0
 17 32  1  0
M  END
>  <Binding energies>  (1) 
[-7.96]

>  <Ligand effiencies>  (1) 
[-0.379047619047619]

>  <Interactions>  (1) 
["V-A:ARG:545:CZ:4924, H-A:ARG:545:NE:4922, V-B:ALA:541:CB:9864, V-B:ARG:545:CZ:9898, H-A:GLY:454:N:4047, H-A:TYR:484:OH:4345, V-A:LEU:475:CD2:4256, V-B:PRO:540:CA:9855, V-B:PRO:540:CB:9857, V-B:LEU:363:CD1:8160, V-B:TYR:539:CD1:9845, V-B:PRO:540:N:9856, V-B:TYR:539:C:9839, V-B:GLU:543:CD:9880, H-B:GLU:543:OE1:9881, H-B:ALA:541:N:9863, V-B:PRO:540:C:9853, H-B:TYR:539:N:9842, V-B:TYR:539:CA:9841, V-B:ASN:362:CB:8147, V-A:ARG:545:CG:4920, V-A:ARG:545:CD:4921"]

$$$$
1j_Grossjean_2025
     RDKit          3D

 32 33  0  0  0  0  0  0  0  0999 V2000
  124.6950  123.8400   62.1670 C   0  0  0  0  0  0  0  0  0  0  0  0
  125.4000  123.6020   60.8440 C   0  0  0  0  0  0  0  0  0  0  0  0
  124.6950  123.5370   59.6440 C   0  0  0  0  0  0  0  0  0  0  0  0
  125.3990  123.3280   58.4540 C   0  0  0  0  0  0  0  0  0  0  0  0
  124.6060  123.2780   57.1490 C   0  0  0  0  0  0  0  0  0  0  0  0
  126.8040  123.1820   58.4980 C   0  0  0  0  0  0  0  0  0  0  0  0
  127.5660  123.0160   57.2580 C   0  0  0  0  0  0  0  0  0  0  0  0
  128.1660  122.8860   56.2770 N   0  0  0  0  0  0  0  0  0  0  0  0
  127.4340  123.2360   59.7640 C   0  0  0  0  0  0  0  0  0  0  0  0
  129.1890  123.0680   60.0060 S   0  0  0  0  0  0  0  0  0  0  0  0
  129.4660  122.6030   61.7410 C   0  0  0  0  0  0  0  0  0  0  0  0
  130.4990  121.4830   61.8770 C   0  0  0  0  0  0  0  0  0  0  0  0
  131.4510  121.6290   62.6450 O   0  0  0  0  0  0  0  0  0  0  0  0
  130.2750  120.3880   61.1180 N   0  0  0  0  0  0  0  0  0  0  0  0
  131.0630  119.2470   61.0570 C   0  0  0  0  0  0  0  0  0  0  0  0
  130.7430  118.0250   61.4250 N   0  0  0  0  0  0  0  0  0  0  0  0
  131.7380  117.1840   61.2240 C   0  0  0  0  0  0  0  0  0  0  0  0
  132.8990  117.7220   60.6780 C   0  0  0  0  0  0  0  0  0  0  0  0
  132.6640  119.4250   60.4170 S   0  0  0  0  0  0  0  0  0  0  0  0
  126.7450  123.4600   60.9110 N   0  0  0  0  0  0  0  0  0  0  0  0
  125.3811  123.6084   62.9950 H   0  0  0  0  0  0  0  0  0  0  0  0
  124.3837  124.8930   62.2324 H   0  0  0  0  0  0  0  0  0  0  0  0
  123.8092  123.1911   62.2324 H   0  0  0  0  0  0  0  0  0  0  0  0
  123.6007  123.6484   59.6329 H   0  0  0  0  0  0  0  0  0  0  0  0
  123.5316  123.2103   57.3752 H   0  0  0  0  0  0  0  0  0  0  0  0
  124.8012  124.1902   56.5661 H   0  0  0  0  0  0  0  0  0  0  0  0
  124.9142  122.3975   56.5661 H   0  0  0  0  0  0  0  0  0  0  0  0
  129.8241  123.4851   62.2921 H   0  0  0  0  0  0  0  0  0  0  0  0
  128.5129  122.2373   62.1507 H   0  0  0  0  0  0  0  0  0  0  0  0
  129.4710  120.3990   60.5080 H   0  0  0  0  0  0  0  0  0  0  0  0
  131.6549  116.1160   61.4741 H   0  0  0  0  0  0  0  0  0  0  0  0
  133.8169  117.1609   60.4486 H   0  0  0  0  0  0  0  0  0  0  0  0
  1  2  1  0
  2  3  2  0
  3  4  1  0
  4  5  1  0
  4  6  2  0
  6  7  1  0
  7  8  3  0
  6  9  1  0
  9 10  1  0
 10 11  1  0
 11 12  1  0
 12 13  2  0
 12 14  1  0
 14 15  1  0
 15 16  2  0
 16 17  1  0
 17 18  2  0
 18 19  1  0
  9 20  2  0
 20  2  1  0
 19 15  1  0
  1 21  1  0
  1 22  1  0
  1 23  1  0
  3 24  1  0
  5 25  1  0
  5 26  1  0
  5 27  1  0
 11 28  1  0
 11 29  1  0
 14 30  1  0
 17 31  1  0
 18 32  1  0
M  END
>  <Binding energies>  (1) 
[-7.29]

>  <Ligand effiencies>  (1) 
[-0.34714285714285714]

>  <Interactions>  (1) 
["V-B:ALA:541:CB:9864, V-B:TYR:539:CE1:9847, V-A:ILE:369:CG2:3234, V-B:ARG:545:CZ:9898, V-A:LEU:475:CD2:4256, V-B:TYR:531:CE2:9765, V-B:PRO:540:CA:9855, V-B:PRO:540:CB:9857, V-B:PRO:540:CD:9859, V-B:LEU:363:CD1:8160, V-B:TYR:539:CD1:9845, V-B:PRO:540:N:9856, V-B:TYR:539:C:9839, H-B:ALA:541:N:9863, V-A:PRO:482:CB:4323, H-B:TYR:539:N:9842, V-A:PRO:482:CG:4324, V-B:ASN:362:CB:8147, H-B:TYR:539:O:9840, V-A:LEU:373:CD1:3277, V-A:SER:385:CA:3404, V-A:SER:385:CB:3406"]

$$$$
1k_Grossjean_2025
     RDKit          3D

 50 50  0  0  0  0  0  0  0  0999 V2000
  133.6350  124.3430   62.8180 C   0  0  0  0  0  0  0  0  0  0  0  0
  133.7480  125.3380   63.8230 O   0  0  0  0  0  0  0  0  0  0  0  0
  133.0830  125.0000   65.0330 C   0  0  0  0  0  0  0  0  0  0  0  0
  131.6050  125.4010   64.9340 C   0  0  0  0  0  0  0  0  0  0  0  0
  131.4250  126.2770   63.8290 O   0  0  0  0  0  0  0  0  0  0  0  0
  130.6480  125.7180   62.7780 C   0  0  0  0  0  0  0  0  0  0  0  0
  131.1120  126.3000   61.4360 C   0  0  0  0  0  0  0  0  0  0  0  0
  130.3510  127.4630   61.1350 O   0  0  0  0  0  0  0  0  0  0  0  0
  130.2460  128.3730   62.2210 C   0  0  0  0  0  0  0  0  0  0  0  0
  128.7770  128.8030   62.3940 C   0  0  0  0  0  0  0  0  0  0  0  0
  128.5680  130.2500   62.3270 N   0  0  0  0  0  0  0  0  0  0  0  0
  127.4510  130.8530   61.8830 C   0  0  0  0  0  0  0  0  0  0  0  0
  126.4650  130.2310   61.4830 O   0  0  0  0  0  0  0  0  0  0  0  0
  127.4760  132.3890   61.8970 C   0  0  0  0  0  0  0  0  0  0  0  0
  128.3210  133.1790   60.4830 S   0  0  0  0  0  0  0  0  0  0  0  0
  129.9560  132.4770   60.3090 C   0  0  0  0  0  0  0  0  0  0  0  0
  130.5910  132.1610   61.4680 N   0  0  0  0  0  0  0  0  0  0  0  0
  131.8360  131.6340   61.4080 C   0  0  0  0  0  0  0  0  0  0  0  0
  132.4820  131.3160   62.7420 C   0  0  0  0  0  0  0  0  0  0  0  0
  132.4930  131.3940   60.2030 C   0  0  0  0  0  0  0  0  0  0  0  0
  131.8470  131.7080   59.0030 C   0  0  0  0  0  0  0  0  0  0  0  0
  132.5840  131.4370   57.6930 C   0  0  0  0  0  0  0  0  0  0  0  0
  130.5480  132.2630   59.0430 C   0  0  0  0  0  0  0  0  0  0  0  0
  129.8480  132.6050   57.8020 C   0  0  0  0  0  0  0  0  0  0  0  0
  129.2970  132.8750   56.8210 N   0  0  0  0  0  0  0  0  0  0  0  0
  133.5229  123.3559   63.2903 H   0  0  0  0  0  0  0  0  0  0  0  0
  132.7548  124.5522   62.1923 H   0  0  0  0  0  0  0  0  0  0  0  0
  134.5397  124.3495   62.1923 H   0  0  0  0  0  0  0  0  0  0  0  0
  133.1581  123.9157   65.2021 H   0  0  0  0  0  0  0  0  0  0  0  0
  133.5527  125.5354   65.8713 H   0  0  0  0  0  0  0  0  0  0  0  0
  130.9894  124.5005   64.7922 H   0  0  0  0  0  0  0  0  0  0  0  0
  131.3005  125.9110   65.8598 H   0  0  0  0  0  0  0  0  0  0  0  0
  130.7759  124.6255   62.7681 H   0  0  0  0  0  0  0  0  0  0  0  0
  129.5869  125.9606   62.9365 H   0  0  0  0  0  0  0  0  0  0  0  0
  132.1775  126.5656   61.5003 H   0  0  0  0  0  0  0  0  0  0  0  0
  130.9677  125.5520   60.6425 H   0  0  0  0  0  0  0  0  0  0  0  0
  130.5957  127.8850   63.1427 H   0  0  0  0  0  0  0  0  0  0  0  0
  130.8646  129.2593   62.0164 H   0  0  0  0  0  0  0  0  0  0  0  0
  128.1824  128.3305   61.5983 H   0  0  0  0  0  0  0  0  0  0  0  0
  128.4684  128.4833   63.4003 H   0  0  0  0  0  0  0  0  0  0  0  0
  129.3370  130.8260   62.6370 H   0  0  0  0  0  0  0  0  0  0  0  0
  126.4350  132.7441   61.9102 H   0  0  0  0  0  0  0  0  0  0  0  0
  128.0544  132.6719   62.7888 H   0  0  0  0  0  0  0  0  0  0  0  0
  131.8194  131.6421   63.5573 H   0  0  0  0  0  0  0  0  0  0  0  0
  132.6510  130.2317   62.8184 H   0  0  0  0  0  0  0  0  0  0  0  0
  133.4443  131.8434   62.8184 H   0  0  0  0  0  0  0  0  0  0  0  0
  133.5053  130.9637   60.1956 H   0  0  0  0  0  0  0  0  0  0  0  0
  133.5958  131.0650   57.9117 H   0  0  0  0  0  0  0  0  0  0  0  0
  132.0335  130.6825   57.1119 H   0  0  0  0  0  0  0  0  0  0  0  0
  132.6535  132.3684   57.1119 H   0  0  0  0  0  0  0  0  0  0  0  0
  1  2  1  0
  2  3  1  0
  3  4  1  0
  4  5  1  0
  5  6  1  0
  6  7  1  0
  7  8  1  0
  8  9  1  0
  9 10  1  0
 10 11  1  0
 11 12  1  0
 12 13  2  0
 12 14  1  0
 14 15  1  0
 15 16  1  0
 16 17  2  0
 17 18  1  0
 18 19  1  0
 18 20  2  0
 20 21  1  0
 21 22  1  0
 21 23  2  0
 23 24  1  0
 24 25  3  0
 23 16  1  0
  1 26  1  0
  1 27  1  0
  1 28  1  0
  3 29  1  0
  3 30  1  0
  4 31  1  0
  4 32  1  0
  6 33  1  0
  6 34  1  0
  7 35  1  0
  7 36  1  0
  9 37  1  0
  9 38  1  0
 10 39  1  0
 10 40  1  0
 11 41  1  0
 14 42  1  0
 14 43  1  0
 19 44  1  0
 19 45  1  0
 19 46  1  0
 20 47  1  0
 22 48  1  0
 22 49  1  0
 22 50  1  0
M  END
>  <Binding energies>  (1) 
[-5.36]

>  <Ligand effiencies>  (1) 
[-0.20615384615384616]

>  <Interactions>  (1) 
["V-A:PRO:540:CA:4881, V-A:ARG:545:CZ:4924, H-A:ARG:545:NE:4922, V-A:GLY:454:CA:4046, V-A:PRO:540:CB:4883, H-A:GLY:454:N:4047, V-A:PRO:540:N:4882, V-A:GLY:453:C:4039, H-A:ARG:545:NH2:4926, H-A:GLU:543:OE1:4907, V-A:GLU:543:CD:4906, V-A:PRO:540:C:4879, V-A:TYR:539:C:4865, H-A:TYR:539:N:4868, H-A:ARG:545:NH1:4925, H-A:ALA:541:N:4889, V-A:ASN:362:CB:3173, V-A:ALA:541:C:4886, V-A:GLY:453:CA:4041"]

$$$$
1l_Grossjean_2025
     RDKit          3D

 30 30  0  0  0  0  0  0  0  0999 V2000
  131.3250  117.2480   59.9610 C   0  0  0  0  0  0  0  0  0  0  0  0
  131.5850  118.3000   60.8800 O   0  0  0  0  0  0  0  0  0  0  0  0
  130.6050  119.2840   60.7640 N   0  0  0  0  0  0  0  0  0  0  0  0
  130.8900  120.5390   61.1620 C   0  0  0  0  0  0  0  0  0  0  0  0
  132.0320  120.9350   61.4120 O   0  0  0  0  0  0  0  0  0  0  0  0
  129.6800  121.4780   61.2720 C   0  0  0  0  0  0  0  0  0  0  0  0
  129.2760  122.3990   59.7490 S   0  0  0  0  0  0  0  0  0  0  0  0
  127.5730  122.9230   59.8520 C   0  0  0  0  0  0  0  0  0  0  0  0
  127.1110  123.1840   61.1020 N   0  0  0  0  0  0  0  0  0  0  0  0
  125.8270  123.5860   61.2530 C   0  0  0  0  0  0  0  0  0  0  0  0
  125.3850  123.8580   62.6790 C   0  0  0  0  0  0  0  0  0  0  0  0
  124.9570  123.7440   60.1770 C   0  0  0  0  0  0  0  0  0  0  0  0
  125.4220  123.4800   58.8840 C   0  0  0  0  0  0  0  0  0  0  0  0
  124.4510  123.6620   57.7180 C   0  0  0  0  0  0  0  0  0  0  0  0
  126.7580  123.0590   58.7040 C   0  0  0  0  0  0  0  0  0  0  0  0
  127.2720  122.7750   57.3600 C   0  0  0  0  0  0  0  0  0  0  0  0
  127.6760  122.5510   56.3000 N   0  0  0  0  0  0  0  0  0  0  0  0
  131.0970  116.3253   60.5148 H   0  0  0  0  0  0  0  0  0  0  0  0
  130.4665  117.5176   59.3284 H   0  0  0  0  0  0  0  0  0  0  0  0
  132.2103  117.0866   59.3284 H   0  0  0  0  0  0  0  0  0  0  0  0
  129.6730  118.8960   60.7560 H   0  0  0  0  0  0  0  0  0  0  0  0
  128.8033  120.8736   61.5478 H   0  0  0  0  0  0  0  0  0  0  0  0
  129.9452  122.2334   62.0264 H   0  0  0  0  0  0  0  0  0  0  0  0
  126.1082  123.4130   63.3782 H   0  0  0  0  0  0  0  0  0  0  0  0
  125.3339  124.9440   62.8462 H   0  0  0  0  0  0  0  0  0  0  0  0
  124.3925  123.4142   62.8462 H   0  0  0  0  0  0  0  0  0  0  0  0
  123.9198  124.0714   60.3412 H   0  0  0  0  0  0  0  0  0  0  0  0
  123.4403  123.8514   58.1087 H   0  0  0  0  0  0  0  0  0  0  0  0
  124.7724  124.5156   57.1030 H   0  0  0  0  0  0  0  0  0  0  0  0
  124.4414  122.7500   57.1030 H   0  0  0  0  0  0  0  0  0  0  0  0
  1  2  1  0
  2  3  1  0
  3  4  1  0
  4  5  2  0
  4  6  1  0
  6  7  1  0
  7  8  1  0
  8  9  2  0
  9 10  1  0
 10 11  1  0
 10 12  2  0
 12 13  1  0
 13 14  1  0
 13 15  2  0
 15 16  1  0
 16 17  3  0
 15  8  1  0
  1 18  1  0
  1 19  1  0
  1 20  1  0
  3 21  1  0
  6 22  1  0
  6 23  1  0
 11 24  1  0
 11 25  1  0
 11 26  1  0
 12 27  1  0
 14 28  1  0
 14 29  1  0
 14 30  1  0
M  END
>  <Binding energies>  (1) 
[-6.64]

>  <Ligand effiencies>  (1) 
[-0.3688888888888889]

>  <Interactions>  (1) 
["V-B:ALA:541:CB:9864, V-B:TYR:539:CE1:9847, V-B:ARG:545:CZ:9898, V-A:LEU:475:CD2:4256, V-B:TYR:531:CE2:9765, V-B:PRO:540:CA:9855, V-B:ASP:366:CG:8184, V-B:PRO:540:CB:9857, V-B:LEU:363:CD1:8160, V-B:TYR:539:CD1:9845, V-B:PRO:540:N:9856, V-B:TYR:539:CG:9844, V-B:TYR:539:C:9839, V-B:GLU:543:CD:9880, H-B:ALA:541:N:9863, V-B:PRO:540:C:9853, H-B:TYR:539:N:9842, V-A:PRO:482:CG:4324, V-B:TYR:539:CB:9843, V-B:ASN:362:CB:8147, H-B:TYR:539:O:9840, V-A:LEU:373:CD1:3277"]

$$$$
1m_Grossjean_2025
     RDKit          3D

 35 35  0  0  0  0  0  0  0  0999 V2000
  131.0270  125.3040   64.3060 C   0  0  0  0  0  0  0  0  0  0  0  0
  131.7990  124.3530   63.5860 O   0  0  0  0  0  0  0  0  0  0  0  0
  133.0530  124.6490   63.1880 C   0  0  0  0  0  0  0  0  0  0  0  0
  133.9610  125.0560   63.9190 O   0  0  0  0  0  0  0  0  0  0  0  0
  133.2390  124.4060   61.6760 C   0  0  0  0  0  0  0  0  0  0  0  0
  131.9620  124.2480   60.9630 N   0  0  0  0  0  0  0  0  0  0  0  0
  131.8230  123.9970   59.6470 C   0  0  0  0  0  0  0  0  0  0  0  0
  132.7800  123.8870   58.8790 O   0  0  0  0  0  0  0  0  0  0  0  0
  130.3780  123.8620   59.1490 C   0  0  0  0  0  0  0  0  0  0  0  0
  129.4160  122.5340   59.9510 S   0  0  0  0  0  0  0  0  0  0  0  0
  127.6970  122.9970   59.9090 C   0  0  0  0  0  0  0  0  0  0  0  0
  127.1700  123.2360   61.1370 N   0  0  0  0  0  0  0  0  0  0  0  0
  125.8700  123.6020   61.2280 C   0  0  0  0  0  0  0  0  0  0  0  0
  125.3570  123.8720   62.6290 C   0  0  0  0  0  0  0  0  0  0  0  0
  125.0460  123.7330   60.1120 C   0  0  0  0  0  0  0  0  0  0  0  0
  125.5720  123.4630   58.8440 C   0  0  0  0  0  0  0  0  0  0  0  0
  124.6460  123.5970   57.6370 C   0  0  0  0  0  0  0  0  0  0  0  0
  126.9270  123.0780   58.7240 C   0  0  0  0  0  0  0  0  0  0  0  0
  127.4840  122.7420   57.4110 C   0  0  0  0  0  0  0  0  0  0  0  0
  127.9230  122.4780   56.3750 N   0  0  0  0  0  0  0  0  0  0  0  0
  131.1590  125.1414   65.3859 H   0  0  0  0  0  0  0  0  0  0  0  0
  131.3595  126.3195   64.0448 H   0  0  0  0  0  0  0  0  0  0  0  0
  129.9649  125.1874   64.0448 H   0  0  0  0  0  0  0  0  0  0  0  0
  133.7780  125.2630   61.2459 H   0  0  0  0  0  0  0  0  0  0  0  0
  133.8026  123.4687   61.5579 H   0  0  0  0  0  0  0  0  0  0  0  0
  131.1270  124.3510   61.5220 H   0  0  0  0  0  0  0  0  0  0  0  0
  129.8623  124.8164   59.3309 H   0  0  0  0  0  0  0  0  0  0  0  0
  130.4401  123.6001   58.0824 H   0  0  0  0  0  0  0  0  0  0  0  0
  126.0810  123.4910   63.3643 H   0  0  0  0  0  0  0  0  0  0  0  0
  125.2272  124.9552   62.7695 H   0  0  0  0  0  0  0  0  0  0  0  0
  124.3906  123.3657   62.7695 H   0  0  0  0  0  0  0  0  0  0  0  0
  123.9971  124.0442   60.2263 H   0  0  0  0  0  0  0  0  0  0  0  0
  123.6125  123.7466   57.9826 H   0  0  0  0  0  0  0  0  0  0  0  0
  124.9579  124.4594   57.0295 H   0  0  0  0  0  0  0  0  0  0  0  0
  124.7006  122.6816   57.0295 H   0  0  0  0  0  0  0  0  0  0  0  0
  1  2  1  0
  2  3  1  0
  3  4  2  0
  3  5  1  0
  5  6  1  0
  6  7  1  0
  7  8  2  0
  7  9  1  0
  9 10  1  0
 10 11  1  0
 11 12  2  0
 12 13  1  0
 13 14  1  0
 13 15  2  0
 15 16  1  0
 16 17  1  0
 16 18  2  0
 18 19  1  0
 19 20  3  0
 18 11  1  0
  1 21  1  0
  1 22  1  0
  1 23  1  0
  5 24  1  0
  5 25  1  0
  6 26  1  0
  9 27  1  0
  9 28  1  0
 14 29  1  0
 14 30  1  0
 14 31  1  0
 15 32  1  0
 17 33  1  0
 17 34  1  0
 17 35  1  0
M  END
>  <Binding energies>  (1) 
[-6.53]

>  <Ligand effiencies>  (1) 
[-0.310952380952381]

>  <Interactions>  (1) 
["V-A:ARG:545:CZ:4924, H-A:ARG:545:NE:4922, V-B:TYR:539:CE1:9847, V-B:ARG:545:CZ:9898, H-A:GLY:454:N:4047, H-A:TYR:484:OH:4345, V-B:PRO:540:CA:9855, V-B:PRO:540:CB:9857, H-A:ARG:545:NH2:4926, V-B:LEU:363:CD1:8160, V-B:TYR:539:CD1:9845, V-B:PRO:540:N:9856, V-B:TYR:539:C:9839, V-B:GLU:543:CD:9880, V-B:TYR:539:CZ:9849, H-B:ALA:541:N:9863, H-B:TYR:539:OH:9850, H-A:ARG:545:NH1:4925, V-B:PRO:540:C:9853, H-B:TYR:539:N:9842, V-B:ASN:362:CB:8147"]

$$$$
1n_Grossjean_2025
     RDKit          3D

 48 49  0  0  0  0  0  0  0  0999 V2000
  133.6810  122.3660   61.5040 C   0  0  0  0  0  0  0  0  0  0  0  0
  133.6560  123.8340   61.0670 C   0  0  0  0  0  0  0  0  0  0  0  0
  132.5500  124.0510   60.2000 O   0  0  0  0  0  0  0  0  0  0  0  0
  132.7040  124.6920   59.0130 C   0  0  0  0  0  0  0  0  0  0  0  0
  133.4790  124.3110   58.1300 O   0  0  0  0  0  0  0  0  0  0  0  0
  131.8270  125.9030   58.8750 C   0  0  0  0  0  0  0  0  0  0  0  0
  131.3770  126.6250   59.9910 C   0  0  0  0  0  0  0  0  0  0  0  0
  130.5640  127.7420   59.8290 C   0  0  0  0  0  0  0  0  0  0  0  0
  130.1760  128.1570   58.5540 C   0  0  0  0  0  0  0  0  0  0  0  0
  129.3480  129.2950   58.5050 N   0  0  0  0  0  0  0  0  0  0  0  0
  128.3990  129.6350   57.6070 C   0  0  0  0  0  0  0  0  0  0  0  0
  128.0730  128.9660   56.6260 O   0  0  0  0  0  0  0  0  0  0  0  0
  127.6890  130.9700   57.8660 C   0  0  0  0  0  0  0  0  0  0  0  0
  127.5420  131.2960   59.3670 C   0  0  0  0  0  0  0  0  0  0  0  0
  128.5190  132.7240   59.9270 S   0  0  0  0  0  0  0  0  0  0  0  0
  130.2340  132.2490   59.8970 C   0  0  0  0  0  0  0  0  0  0  0  0
  130.7490  131.9950   61.1260 N   0  0  0  0  0  0  0  0  0  0  0  0
  132.0430  131.6090   61.2220 C   0  0  0  0  0  0  0  0  0  0  0  0
  132.5460  131.3320   62.6260 C   0  0  0  0  0  0  0  0  0  0  0  0
  132.8700  131.4670   60.1100 C   0  0  0  0  0  0  0  0  0  0  0  0
  132.3540  131.7470   58.8400 C   0  0  0  0  0  0  0  0  0  0  0  0
  133.2840  131.5980   57.6370 C   0  0  0  0  0  0  0  0  0  0  0  0
  131.0070  132.1570   58.7160 C   0  0  0  0  0  0  0  0  0  0  0  0
  130.4620  132.5040   57.4020 C   0  0  0  0  0  0  0  0  0  0  0  0
  130.0330  132.7790   56.3630 N   0  0  0  0  0  0  0  0  0  0  0  0
  130.6300  127.4460   57.4330 C   0  0  0  0  0  0  0  0  0  0  0  0
  131.4470  126.3310   57.5970 C   0  0  0  0  0  0  0  0  0  0  0  0
  133.6819  122.3104   62.6026 H   0  0  0  0  0  0  0  0  0  0  0  0
  132.7915  121.8514   61.1116 H   0  0  0  0  0  0  0  0  0  0  0  0
  134.5875  121.8820   61.1116 H   0  0  0  0  0  0  0  0  0  0  0  0
  133.5596  124.4788   61.9529 H   0  0  0  0  0  0  0  0  0  0  0  0
  134.5898  124.0754   60.5381 H   0  0  0  0  0  0  0  0  0  0  0  0
  131.6695  126.3051   61.0020 H   0  0  0  0  0  0  0  0  0  0  0  0
  130.2243  128.3025   60.7124 H   0  0  0  0  0  0  0  0  0  0  0  0
  129.4670  129.9240   59.2860 H   0  0  0  0  0  0  0  0  0  0  0  0
  128.2690  131.7734   57.3884 H   0  0  0  0  0  0  0  0  0  0  0  0
  126.6751  130.8891   57.4470 H   0  0  0  0  0  0  0  0  0  0  0  0
  126.4813  131.5039   59.5713 H   0  0  0  0  0  0  0  0  0  0  0  0
  127.9221  130.4219   59.9160 H   0  0  0  0  0  0  0  0  0  0  0  0
  131.8267  131.7281   63.3580 H   0  0  0  0  0  0  0  0  0  0  0  0
  132.6548  130.2468   62.7691 H   0  0  0  0  0  0  0  0  0  0  0  0
  133.5213  131.8203   62.7691 H   0  0  0  0  0  0  0  0  0  0  0  0
  133.9134  131.1395   60.2287 H   0  0  0  0  0  0  0  0  0  0  0  0
  134.3135  131.4331   57.9876 H   0  0  0  0  0  0  0  0  0  0  0  0
  132.9620  130.7400   57.0286 H   0  0  0  0  0  0  0  0  0  0  0  0
  133.2461  132.5137   57.0286 H   0  0  0  0  0  0  0  0  0  0  0  0
  130.3398  127.7702   56.4227 H   0  0  0  0  0  0  0  0  0  0  0  0
  131.7982  125.7796   56.7123 H   0  0  0  0  0  0  0  0  0  0  0  0
  1  2  1  0
  2  3  1  0
  3  4  1  0
  4  5  2  0
  4  6  1  0
  6  7  2  0
  7  8  1  0
  8  9  2  0
  9 10  1  0
 10 11  1  0
 11 12  2  0
 11 13  1  0
 13 14  1  0
 14 15  1  0
 15 16  1  0
 16 17  2  0
 17 18  1  0
 18 19  1  0
 18 20  2  0
 20 21  1  0
 21 22  1  0
 21 23  2  0
 23 24  1  0
 24 25  3  0
  9 26  1  0
 26 27  2  0
 27  6  1  0
 23 16  1  0
  1 28  1  0
  1 29  1  0
  1 30  1  0
  2 31  1  0
  2 32  1  0
  7 33  1  0
  8 34  1  0
 10 35  1  0
 13 36  1  0
 13 37  1  0
 14 38  1  0
 14 39  1  0
 19 40  1  0
 19 41  1  0
 19 42  1  0
 20 43  1  0
 22 44  1  0
 22 45  1  0
 22 46  1  0
 26 47  1  0
 27 48  1  0
M  END
>  <Binding energies>  (1) 
[-7.05]

>  <Ligand effiencies>  (1) 
[-0.2517857142857143]

>  <Interactions>  (1) 
["V-A:PRO:540:CA:4881, V-A:ARG:545:CZ:4924, V-A:TYR:531:CE2:4791, V-B:TYR:539:CE1:9847, V-A:ILE:369:CG2:3234, V-A:PRO:540:CB:4883, V-A:ILE:369:CD1:3236, V-A:LEU:363:CA:3182, V-A:PRO:540:N:4882, V-A:ASP:366:CG:3210, V-A:LEU:363:CD1:3186, V-A:TYR:539:CE1:4873, V-A:ASP:366:CB:3209, V-A:TYR:539:CZ:4875, V-A:GLU:543:CD:4906, V-A:PRO:540:C:4879, V-A:TYR:539:C:4865, H-B:TYR:539:OH:9850, H-A:TYR:539:N:4868, H-A:ALA:541:N:4889, V-A:ASN:362:CB:3173, V-A:ALA:541:C:4886"]

$$$$
1o_Grossjean_2025
     RDKit          3D

 45 46  0  0  0  0  0  0  0  0999 V2000
  126.6390  128.2930   73.9120 C   0  0  0  0  0  0  0  0  0  0  0  0
  127.5920  127.5400   73.1760 O   0  0  0  0  0  0  0  0  0  0  0  0
  128.7370  128.1130   72.7240 C   0  0  0  0  0  0  0  0  0  0  0  0
  129.4600  128.8300   73.4220 O   0  0  0  0  0  0  0  0  0  0  0  0
  129.0410  127.7840   71.2900 C   0  0  0  0  0  0  0  0  0  0  0  0
  130.3240  127.9420   70.7480 C   0  0  0  0  0  0  0  0  0  0  0  0
  130.5730  127.6250   69.4150 C   0  0  0  0  0  0  0  0  0  0  0  0
  129.5460  127.1510   68.5970 C   0  0  0  0  0  0  0  0  0  0  0  0
  129.9100  126.8530   67.2690 N   0  0  0  0  0  0  0  0  0  0  0  0
  130.2710  125.6760   66.7130 C   0  0  0  0  0  0  0  0  0  0  0  0
  130.3030  124.5940   67.3010 O   0  0  0  0  0  0  0  0  0  0  0  0
  130.6340  125.7320   65.2220 C   0  0  0  0  0  0  0  0  0  0  0  0
  132.1030  126.1240   64.9660 C   0  0  0  0  0  0  0  0  0  0  0  0
  133.2210  124.7050   64.7650 S   0  0  0  0  0  0  0  0  0  0  0  0
  132.8370  123.8980   63.2240 C   0  0  0  0  0  0  0  0  0  0  0  0
  133.6190  124.3050   62.1920 N   0  0  0  0  0  0  0  0  0  0  0  0
  133.4240  123.7530   60.9710 C   0  0  0  0  0  0  0  0  0  0  0  0
  134.3460  124.2460   59.8700 C   0  0  0  0  0  0  0  0  0  0  0  0
  132.4450  122.7930   60.7270 C   0  0  0  0  0  0  0  0  0  0  0  0
  131.6160  122.3860   61.7780 C   0  0  0  0  0  0  0  0  0  0  0  0
  130.5400  121.3430   61.4820 C   0  0  0  0  0  0  0  0  0  0  0  0
  131.7980  122.9510   63.0610 C   0  0  0  0  0  0  0  0  0  0  0  0
  130.9010  122.5800   64.1580 C   0  0  0  0  0  0  0  0  0  0  0  0
  130.1930  122.2850   65.0250 N   0  0  0  0  0  0  0  0  0  0  0  0
  128.2610  126.9850   69.1340 C   0  0  0  0  0  0  0  0  0  0  0  0
  128.0150  127.3010   70.4670 C   0  0  0  0  0  0  0  0  0  0  0  0
  126.8147  128.1542   74.9890 H   0  0  0  0  0  0  0  0  0  0  0  0
  126.7389  129.3587   73.6585 H   0  0  0  0  0  0  0  0  0  0  0  0
  125.6253  127.9493   73.6585 H   0  0  0  0  0  0  0  0  0  0  0  0
  131.1408  128.3195   71.3807 H   0  0  0  0  0  0  0  0  0  0  0  0
  131.5858  127.7490   69.0039 H   0  0  0  0  0  0  0  0  0  0  0  0
  129.8670  127.6440   66.6430 H   0  0  0  0  0  0  0  0  0  0  0  0
  130.4557  124.7398   64.7818 H   0  0  0  0  0  0  0  0  0  0  0  0
  130.0049  126.5086   64.7626 H   0  0  0  0  0  0  0  0  0  0  0  0
  132.1447  126.7302   64.0490 H   0  0  0  0  0  0  0  0  0  0  0  0
  132.4450  126.6761   65.8538 H   0  0  0  0  0  0  0  0  0  0  0  0
  135.2318  124.7197   60.3183 H   0  0  0  0  0  0  0  0  0  0  0  0
  134.6606  123.3957   59.2470 H   0  0  0  0  0  0  0  0  0  0  0  0
  133.8136  124.9798   59.2470 H   0  0  0  0  0  0  0  0  0  0  0  0
  132.3253  122.3610   59.7225 H   0  0  0  0  0  0  0  0  0  0  0  0
  130.1374  120.9528   62.4284 H   0  0  0  0  0  0  0  0  0  0  0  0
  129.7287  121.8075   60.9022 H   0  0  0  0  0  0  0  0  0  0  0  0
  130.9790  120.5177   60.9022 H   0  0  0  0  0  0  0  0  0  0  0  0
  127.4462  126.6044   68.5006 H   0  0  0  0  0  0  0  0  0  0  0  0
  127.0036  127.1701   70.8791 H   0  0  0  0  0  0  0  0  0  0  0  0
  1  2  1  0
  2  3  1  0
  3  4  2  0
  3  5  1  0
  5  6  2  0
  6  7  1  0
  7  8  2  0
  8  9  1  0
  9 10  1  0
 10 11  2  0
 10 12  1  0
 12 13  1  0
 13 14  1  0
 14 15  1  0
 15 16  2  0
 16 17  1  0
 17 18  1  0
 17 19  2  0
 19 20  1  0
 20 21  1  0
 20 22  2  0
 22 23  1  0
 23 24  3  0
  8 25  1  0
 25 26  2  0
 26  5  1  0
 22 15  1  0
  1 27  1  0
  1 28  1  0
  1 29  1  0
  6 30  1  0
  7 31  1  0
  9 32  1  0
 12 33  1  0
 12 34  1  0
 13 35  1  0
 13 36  1  0
 18 37  1  0
 18 38  1  0
 18 39  1  0
 19 40  1  0
 21 41  1  0
 21 42  1  0
 21 43  1  0
 25 44  1  0
 26 45  1  0
M  END
>  <Binding energies>  (1) 
[-7.14]

>  <Ligand effiencies>  (1) 
[-0.2644444444444444]

>  <Interactions>  (1) 
["V-A:ARG:545:CZ:4924, V-A:GLY:454:CA:4046, V-B:ALA:541:CB:9864, V-B:TYR:539:CE1:9847, V-A:ILE:369:CG2:3234, V-A:ILE:369:CD1:3236, H-A:GLY:454:N:4047, H-A:TYR:484:OH:4345, V-A:ASP:366:CG:3210, V-A:LEU:475:CD2:4256, V-B:TYR:539:CD1:9845, V-B:GLU:543:CD:9880, V-B:GLU:543:CG:9879, H-A:GLU:543:OE2:4908, V-B:GLU:543:CB:9878, V-A:HIS:456:CE1:4066, V-A:ASP:366:CA:3207, V-A:ASP:366:CB:3209, H-A:GLU:543:OE1:4907, H-B:GLU:543:OE2:9882, V-B:HIS:456:CE1:9040, V-A:GLU:543:CD:4906, V-A:GLU:543:CG:4905, V-B:GLU:543:C:9874, V-B:HIS:456:CD2:9039, V-A:GLU:543:C:4900, V-B:LYS:547:CE:9922, V-A:GLY:544:C:4910, V-B:GLY:544:C:9884, H-A:LYS:547:NZ:4949, V-B:HIS:456:CG:9037, H-B:LYS:547:NZ:9923, V-A:GLY:544:CA:4912, V-B:HIS:456:CB:9036, H-A:HIS:456:NE2:4067, V-A:ILE:369:CB:3233, V-A:TYR:484:CZ:4344, V-A:TYR:484:CE2:4343, V-A:ILE:369:CG1:3235, V-A:ARG:545:CD:4921"]

$$$$
1p_Grossjean_2025
     RDKit          3D

 35 36  0  0  0  0  0  0  0  0999 V2000
  124.7840  123.8550   62.2560 C   0  0  0  0  0  0  0  0  0  0  0  0
  125.4460  123.5740   60.9200 C   0  0  0  0  0  0  0  0  0  0  0  0
  124.7580  123.7350   59.7180 C   0  0  0  0  0  0  0  0  0  0  0  0
  125.4140  123.4490   58.5160 C   0  0  0  0  0  0  0  0  0  0  0  0
  124.6360  123.6180   57.2120 C   0  0  0  0  0  0  0  0  0  0  0  0
  126.7580  123.0140   58.5490 C   0  0  0  0  0  0  0  0  0  0  0  0
  127.4510  122.6630   57.3090 C   0  0  0  0  0  0  0  0  0  0  0  0
  127.9980  122.3860   56.3270 N   0  0  0  0  0  0  0  0  0  0  0  0
  127.3850  122.9010   59.8130 C   0  0  0  0  0  0  0  0  0  0  0  0
  129.0700  122.3780   60.0330 S   0  0  0  0  0  0  0  0  0  0  0  0
  129.2230  121.8030   61.7490 C   0  0  0  0  0  0  0  0  0  0  0  0
  130.6800  121.6750   62.2340 C   0  0  0  0  0  0  0  0  0  0  0  0
  131.6060  122.7730   61.6900 C   0  0  0  0  0  0  0  0  0  0  0  0
  131.8490  123.7620   62.3840 O   0  0  0  0  0  0  0  0  0  0  0  0
  132.1110  122.5520   60.4550 N   0  0  0  0  0  0  0  0  0  0  0  0
  132.9670  123.3770   59.7370 C   0  0  0  0  0  0  0  0  0  0  0  0
  134.1980  123.8100   60.2300 C   0  0  0  0  0  0  0  0  0  0  0  0
  134.7280  124.5940   59.2310 C   0  0  0  0  0  0  0  0  0  0  0  0
  133.8620  124.6330   58.1920 O   0  0  0  0  0  0  0  0  0  0  0  0
  132.7490  123.8590   58.5250 N   0  0  0  0  0  0  0  0  0  0  0  0
  126.7330  123.1610   60.9750 N   0  0  0  0  0  0  0  0  0  0  0  0
  125.4646  123.5661   63.0704 H   0  0  0  0  0  0  0  0  0  0  0  0
  124.5547  124.9281   62.3331 H   0  0  0  0  0  0  0  0  0  0  0  0
  123.8528  123.2746   62.3331 H   0  0  0  0  0  0  0  0  0  0  0  0
  123.7142  124.0820   59.7149 H   0  0  0  0  0  0  0  0  0  0  0  0
  123.5843  123.8465   57.4395 H   0  0  0  0  0  0  0  0  0  0  0  0
  125.0724  124.4423   56.6288 H   0  0  0  0  0  0  0  0  0  0  0  0
  124.6911  122.6869   56.6288 H   0  0  0  0  0  0  0  0  0  0  0  0
  128.7015  122.5181   62.4022 H   0  0  0  0  0  0  0  0  0  0  0  0
  128.7818  120.7962   61.7903 H   0  0  0  0  0  0  0  0  0  0  0  0
  130.6869  121.7266   63.3328 H   0  0  0  0  0  0  0  0  0  0  0  0
  131.0625  120.7143   61.8588 H   0  0  0  0  0  0  0  0  0  0  0  0
  131.8350  121.7010   59.9880 H   0  0  0  0  0  0  0  0  0  0  0  0
  134.6477  123.5755   61.2061 H   0  0  0  0  0  0  0  0  0  0  0  0
  135.7002  125.1070   59.2707 H   0  0  0  0  0  0  0  0  0  0  0  0
  1  2  1  0
  2  3  2  0
  3  4  1  0
  4  5  1  0
  4  6  2  0
  6  7  1  0
  7  8  3  0
  6  9  1  0
  9 10  1  0
 10 11  1  0
 11 12  1  0
 12 13  1  0
 13 14  2  0
 13 15  1  0
 15 16  1  0
 16 17  1  0
 17 18  2  0
 18 19  1  0
 19 20  1  0
  9 21  2  0
 21  2  1  0
 20 16  2  0
  1 22  1  0
  1 23  1  0
  1 24  1  0
  3 25  1  0
  5 26  1  0
  5 27  1  0
  5 28  1  0
 11 29  1  0
 11 30  1  0
 12 31  1  0
 12 32  1  0
 15 33  1  0
 17 34  1  0
 18 35  1  0
M  END
>  <Binding energies>  (1) 
[-6.61]

>  <Ligand effiencies>  (1) 
[-0.3004545454545455]

>  <Interactions>  (1) 
["V-B:ALA:541:CB:9864, V-B:TYR:539:CE1:9847, V-A:ILE:369:CG2:3234, V-B:ARG:545:CZ:9898, V-A:ILE:369:CD1:3236, V-A:ASP:366:CG:3210, V-A:LEU:475:CD2:4256, V-B:TYR:531:CE2:9765, V-B:PRO:540:CA:9855, V-B:ASP:366:CG:8184, V-B:PRO:540:CB:9857, V-B:LEU:363:CD1:8160, V-B:TYR:539:CD1:9845, V-B:PRO:540:N:9856, V-B:TYR:539:C:9839, V-A:ASP:366:CA:3207, V-A:ASP:366:CB:3209, H-B:ALA:541:N:9863, H-B:TYR:539:OH:9850, V-A:ILE:369:CB:3233, V-A:ASP:366:C:3205, V-B:PRO:540:C:9853, H-B:TYR:539:N:9842, V-B:ASN:362:CB:8147, V-A:ILE:369:CG1:3235, V-B:ALA:541:CA:9862"]

$$$$
1q_Grossjean_2025
     RDKit          3D

 38 38  0  0  0  0  0  0  0  0999 V2000
  131.7990  125.3650   57.4790 C   0  0  0  0  0  0  0  0  0  0  0  0
  132.0630  124.3860   58.4740 O   0  0  0  0  0  0  0  0  0  0  0  0
  133.3370  124.1110   58.8480 C   0  0  0  0  0  0  0  0  0  0  0  0
  134.3250  124.1630   58.1150 O   0  0  0  0  0  0  0  0  0  0  0  0
  133.4780  123.6740   60.3220 C   0  0  0  0  0  0  0  0  0  0  0  0
  132.1890  123.3480   60.9510 N   0  0  0  0  0  0  0  0  0  0  0  0
  132.0230  122.7080   62.1240 C   0  0  0  0  0  0  0  0  0  0  0  0
  132.9640  122.3170   62.8180 O   0  0  0  0  0  0  0  0  0  0  0  0
  130.5710  122.4980   62.5750 C   0  0  0  0  0  0  0  0  0  0  0  0
  129.7490  121.5710   61.6570 C   0  0  0  0  0  0  0  0  0  0  0  0
  129.4280  122.2750   60.0120 S   0  0  0  0  0  0  0  0  0  0  0  0
  127.7240  122.7910   59.9390 C   0  0  0  0  0  0  0  0  0  0  0  0
  127.1970  123.0840   61.1550 N   0  0  0  0  0  0  0  0  0  0  0  0
  125.9070  123.4850   61.2270 C   0  0  0  0  0  0  0  0  0  0  0  0
  125.3850  123.7780   62.6210 C   0  0  0  0  0  0  0  0  0  0  0  0
  125.0980  123.6220   60.1010 C   0  0  0  0  0  0  0  0  0  0  0  0
  125.6380  123.3470   58.8400 C   0  0  0  0  0  0  0  0  0  0  0  0
  124.7350  123.5220   57.6190 C   0  0  0  0  0  0  0  0  0  0  0  0
  126.9840  122.9280   58.7390 C   0  0  0  0  0  0  0  0  0  0  0  0
  127.5810  122.6920   57.4240 C   0  0  0  0  0  0  0  0  0  0  0  0
  128.0500  122.5060   56.3820 N   0  0  0  0  0  0  0  0  0  0  0  0
  131.5417  126.3190   57.9624 H   0  0  0  0  0  0  0  0  0  0  0  0
  132.6926  125.5009   56.8521 H   0  0  0  0  0  0  0  0  0  0  0  0
  130.9583  125.0332   56.8521 H   0  0  0  0  0  0  0  0  0  0  0  0
  134.1232  122.7841   60.3635 H   0  0  0  0  0  0  0  0  0  0  0  0
  133.9096  124.5206   60.8761 H   0  0  0  0  0  0  0  0  0  0  0  0
  131.3650  123.6130   60.4320 H   0  0  0  0  0  0  0  0  0  0  0  0
  130.5836  122.0605   63.5842 H   0  0  0  0  0  0  0  0  0  0  0  0
  130.0854  123.4845   62.5427 H   0  0  0  0  0  0  0  0  0  0  0  0
  130.3014  120.6282   61.5301 H   0  0  0  0  0  0  0  0  0  0  0  0
  128.7722  121.4216   62.1403 H   0  0  0  0  0  0  0  0  0  0  0  0
  126.0898  123.3824   63.3671 H   0  0  0  0  0  0  0  0  0  0  0  0
  125.2830  124.8652   62.7533 H   0  0  0  0  0  0  0  0  0  0  0  0
  124.4037  123.2988   62.7533 H   0  0  0  0  0  0  0  0  0  0  0  0
  124.0503  123.9416   60.2019 H   0  0  0  0  0  0  0  0  0  0  0  0
  123.7052  123.7216   57.9501 H   0  0  0  0  0  0  0  0  0  0  0  0
  125.0959  124.3669   57.0141 H   0  0  0  0  0  0  0  0  0  0  0  0
  124.7541  122.6034   57.0141 H   0  0  0  0  0  0  0  0  0  0  0  0
  1  2  1  0
  2  3  1  0
  3  4  2  0
  3  5  1  0
  5  6  1  0
  6  7  1  0
  7  8  2  0
  7  9  1  0
  9 10  1  0
 10 11  1  0
 11 12  1  0
 12 13  2  0
 13 14  1  0
 14 15  1  0
 14 16  2  0
 16 17  1  0
 17 18  1  0
 17 19  2  0
 19 20  1  0
 20 21  3  0
 19 12  1  0
  1 22  1  0
  1 23  1  0
  1 24  1  0
  5 25  1  0
  5 26  1  0
  6 27  1  0
  9 28  1  0
  9 29  1  0
 10 30  1  0
 10 31  1  0
 15 32  1  0
 15 33  1  0
 15 34  1  0
 16 35  1  0
 18 36  1  0
 18 37  1  0
 18 38  1  0
M  END
>  <Binding energies>  (1) 
[-6.39]

>  <Ligand effiencies>  (1) 
[-0.29045454545454547]

>  <Interactions>  (1) 
["V-B:ALA:541:CB:9864, V-B:TYR:539:CE1:9847, V-A:ILE:369:CG2:3234, V-B:ARG:545:CZ:9898, V-A:ILE:369:CD1:3236, H-A:GLY:454:N:4047, V-A:LEU:475:CD2:4256, V-B:PRO:540:CA:9855, V-B:PRO:540:CB:9857, V-B:LEU:363:CD1:8160, V-B:PRO:540:N:9856, V-B:TYR:539:C:9839, V-B:GLU:543:CD:9880, V-A:ASP:366:CA:3207, V-A:ASP:366:CB:3209, V-B:TYR:539:CZ:9849, H-B:ALA:541:N:9863, H-B:TYR:539:OH:9850, V-B:PRO:540:C:9853, H-B:TYR:539:N:9842, V-B:ASN:362:CB:8147"]

$$$$
2a_Ghoteimi_2023
     RDKit          3D

 85 90  0  0  0  0  0  0  0  0999 V2000
  127.6640  123.1430   61.0570 C   0  0  0  0  0  0  0  0  0  0  0  0
  128.6890  123.3890   59.9460 C   0  0  0  0  0  0  0  0  0  0  0  0
  129.6910  124.2810   60.4180 O   0  0  0  0  0  0  0  0  0  0  0  0
  129.7860  125.5480   59.9390 C   0  0  0  0  0  0  0  0  0  0  0  0
  130.7250  125.9420   59.2400 O   0  0  0  0  0  0  0  0  0  0  0  0
  128.6300  126.4200   60.3390 C   0  0  0  0  0  0  0  0  0  0  0  0
  127.8910  127.1510   59.3970 C   0  0  0  0  0  0  0  0  0  0  0  0
  126.8250  127.9490   59.8000 C   0  0  0  0  0  0  0  0  0  0  0  0
  126.4710  128.0300   61.1480 C   0  0  0  0  0  0  0  0  0  0  0  0
  125.3800  128.8700   61.4440 N   0  0  0  0  0  0  0  0  0  0  0  0
  125.0040  130.0340   60.8710 C   0  0  0  0  0  0  0  0  0  0  0  0
  125.6160  130.6120   59.9720 O   0  0  0  0  0  0  0  0  0  0  0  0
  123.7300  130.6640   61.4500 C   0  0  0  0  0  0  0  0  0  0  0  0
  123.7940  130.9830   63.2420 S   0  0  0  0  0  0  0  0  0  0  0  0
  125.4150  130.4710   63.7630 C   0  0  0  0  0  0  0  0  0  0  0  0
  126.3800  130.6870   62.8400 N   0  0  0  0  0  0  0  0  0  0  0  0
  127.6600  130.3300   63.1170 C   0  0  0  0  0  0  0  0  0  0  0  0
  128.6710  130.5900   62.0470 C   0  0  0  0  0  0  0  0  0  0  0  0
  129.2890  129.5370   61.3620 C   0  0  0  0  0  0  0  0  0  0  0  0
  130.2390  129.7850   60.3750 C   0  0  0  0  0  0  0  0  0  0  0  0
  130.6010  131.0940   60.0290 C   0  0  0  0  0  0  0  0  0  0  0  0
  131.5790  131.3270   59.0560 N   0  0  0  0  0  0  0  0  0  0  0  0
  132.9900  131.5580   59.4230 C   0  0  0  0  0  0  0  0  0  0  0  0
  133.9700  131.4340   58.2370 C   0  0  0  0  0  0  0  0  0  0  0  0
  133.5710  132.2970   57.1850 O   0  0  0  0  0  0  0  0  0  0  0  0
  132.2750  131.9710   56.7100 C   0  0  0  0  0  0  0  0  0  0  0  0
  131.2420  132.1100   57.8480 C   0  0  0  0  0  0  0  0  0  0  0  0
  129.9870  132.1460   60.7280 C   0  0  0  0  0  0  0  0  0  0  0  0
  129.0360  131.8990   61.7130 C   0  0  0  0  0  0  0  0  0  0  0  0
  128.0000  129.7550   64.3440 C   0  0  0  0  0  0  0  0  0  0  0  0
  127.0170  129.5220   65.3160 C   0  0  0  0  0  0  0  0  0  0  0  0
  127.4490  128.8990   66.6030 C   0  0  0  0  0  0  0  0  0  0  0  0
  126.6130  127.9930   67.2610 C   0  0  0  0  0  0  0  0  0  0  0  0
  126.9970  127.4220   68.4700 C   0  0  0  0  0  0  0  0  0  0  0  0
  128.2320  127.7370   69.0580 C   0  0  0  0  0  0  0  0  0  0  0  0
  128.6290  127.1890   70.2810 N   0  0  0  0  0  0  0  0  0  0  0  0
  127.6430  127.0660   71.3730 C   0  0  0  0  0  0  0  0  0  0  0  0
  128.0940  126.1100   72.4970 C   0  0  0  0  0  0  0  0  0  0  0  0
  129.3570  126.5150   73.0020 O   0  0  0  0  0  0  0  0  0  0  0  0
  130.3540  126.5040   71.9920 C   0  0  0  0  0  0  0  0  0  0  0  0
  129.9610  127.4670   70.8520 C   0  0  0  0  0  0  0  0  0  0  0  0
  129.0600  128.6560   68.3980 C   0  0  0  0  0  0  0  0  0  0  0  0
  128.6750  129.2290   67.1890 C   0  0  0  0  0  0  0  0  0  0  0  0
  125.6820  129.8940   65.0250 C   0  0  0  0  0  0  0  0  0  0  0  0
  124.6200  129.7270   66.0220 C   0  0  0  0  0  0  0  0  0  0  0  0
  123.7830  129.5920   66.8110 N   0  0  0  0  0  0  0  0  0  0  0  0
  127.2100  127.3090   62.0970 C   0  0  0  0  0  0  0  0  0  0  0  0
  128.2760  126.5090   61.6920 C   0  0  0  0  0  0  0  0  0  0  0  0
  128.1502  123.2597   62.0368 H   0  0  0  0  0  0  0  0  0  0  0  0
  126.8432  123.8697   60.9661 H   0  0  0  0  0  0  0  0  0  0  0  0
  127.2624  122.1230   60.9661 H   0  0  0  0  0  0  0  0  0  0  0  0
  129.1535  122.4347   59.6571 H   0  0  0  0  0  0  0  0  0  0  0  0
  128.1861  123.8297   59.0726 H   0  0  0  0  0  0  0  0  0  0  0  0
  128.1565  127.0928   58.3311 H   0  0  0  0  0  0  0  0  0  0  0  0
  126.2569  128.5203   59.0510 H   0  0  0  0  0  0  0  0  0  0  0  0
  124.8170  128.5550   62.2190 H   0  0  0  0  0  0  0  0  0  0  0  0
  123.5557  131.6210   60.9365 H   0  0  0  0  0  0  0  0  0  0  0  0
  122.9202  129.9369   61.2899 H   0  0  0  0  0  0  0  0  0  0  0  0
  129.0201  128.4989   61.6071 H   0  0  0  0  0  0  0  0  0  0  0  0
  130.7140  128.9385   59.8575 H   0  0  0  0  0  0  0  0  0  0  0  0
  133.0782  132.5715   59.8413 H   0  0  0  0  0  0  0  0  0  0  0  0
  133.2644  130.7780   60.1485 H   0  0  0  0  0  0  0  0  0  0  0  0
  134.9815  131.7094   58.5701 H   0  0  0  0  0  0  0  0  0  0  0  0
  133.9664  130.3960   57.8731 H   0  0  0  0  0  0  0  0  0  0  0  0
  132.0062  132.6526   55.8895 H   0  0  0  0  0  0  0  0  0  0  0  0
  132.2750  130.9319   56.3490 H   0  0  0  0  0  0  0  0  0  0  0  0
  131.1761  133.1714   58.1294 H   0  0  0  0  0  0  0  0  0  0  0  0
  130.2883  131.7169   57.4660 H   0  0  0  0  0  0  0  0  0  0  0  0
  130.2631  133.1844   60.4924 H   0  0  0  0  0  0  0  0  0  0  0  0
  128.5647  132.7440   62.2363 H   0  0  0  0  0  0  0  0  0  0  0  0
  129.0460  129.4833   64.5488 H   0  0  0  0  0  0  0  0  0  0  0  0
  125.6413  127.7286   66.8184 H   0  0  0  0  0  0  0  0  0  0  0  0
  126.3227  126.7130   68.9727 H   0  0  0  0  0  0  0  0  0  0  0  0
  127.4773  128.0627   71.8078 H   0  0  0  0  0  0  0  0  0  0  0  0
  126.7244  126.6463   70.9371 H   0  0  0  0  0  0  0  0  0  0  0  0
  127.3535  126.1291   73.3102 H   0  0  0  0  0  0  0  0  0  0  0  0
  128.1775  125.0908   72.0918 H   0  0  0  0  0  0  0  0  0  0  0  0
  131.3138  126.8235   72.4241 H   0  0  0  0  0  0  0  0  0  0  0  0
  130.4475  125.4852   71.5879 H   0  0  0  0  0  0  0  0  0  0  0  0
  129.9634  128.4937   71.2469 H   0  0  0  0  0  0  0  0  0  0  0  0
  130.6949  127.3296   70.0443 H   0  0  0  0  0  0  0  0  0  0  0  0
  130.0287  128.9285   68.8423 H   0  0  0  0  0  0  0  0  0  0  0  0
  129.3414  129.9480   66.6901 H   0  0  0  0  0  0  0  0  0  0  0  0
  126.9474  127.3753   63.1631 H   0  0  0  0  0  0  0  0  0  0  0  0
  128.8459  125.9411   62.4421 H   0  0  0  0  0  0  0  0  0  0  0  0
  1  2  1  0
  2  3  1  0
  3  4  1  0
  4  5  2  0
  4  6  1  0
  6  7  2  0
  7  8  1  0
  8  9  2  0
  9 10  1  0
 10 11  1  0
 11 12  2  0
 11 13  1  0
 13 14  1  0
 14 15  1  0
 15 16  2  0
 16 17  1  0
 17 18  1  0
 18 19  2  0
 19 20  1  0
 20 21  2  0
 21 22  1  0
 22 23  1  0
 23 24  1  0
 24 25  1  0
 25 26  1  0
 26 27  1  0
 21 28  1  0
 28 29  2  0
 17 30  2  0
 30 31  1  0
 31 32  1  0
 32 33  2  0
 33 34  1  0
 34 35  2  0
 35 36  1  0
 36 37  1  0
 37 38  1  0
 38 39  1  0
 39 40  1  0
 40 41  1  0
 35 42  1  0
 42 43  2  0
 31 44  2  0
 44 45  1  0
 45 46  3  0
  9 47  1  0
 47 48  2  0
 48  6  1  0
 44 15  1  0
 29 18  1  0
 43 32  1  0
 27 22  1  0
 41 36  1  0
  1 49  1  0
  1 50  1  0
  1 51  1  0
  2 52  1  0
  2 53  1  0
  7 54  1  0
  8 55  1  0
 10 56  1  0
 13 57  1  0
 13 58  1  0
 19 59  1  0
 20 60  1  0
 23 61  1  0
 23 62  1  0
 24 63  1  0
 24 64  1  0
 26 65  1  0
 26 66  1  0
 27 67  1  0
 27 68  1  0
 28 69  1  0
 29 70  1  0
 30 71  1  0
 33 72  1  0
 34 73  1  0
 37 74  1  0
 37 75  1  0
 38 76  1  0
 38 77  1  0
 40 78  1  0
 40 79  1  0
 41 80  1  0
 41 81  1  0
 42 82  1  0
 43 83  1  0
 47 84  1  0
 48 85  1  0
M  END
>  <Binding energies>  (1) 
[-4.87]

>  <Ligand effiencies>  (1) 
[-0.09938775510204081]

>  <Interactions>  (1) 
["V-A:PRO:540:CA:4881, V-A:TYR:531:CE2:4791, V-A:PRO:540:CB:4883, V-B:ARG:545:CZ:9898, V-A:LEU:363:CA:3182, V-A:PRO:540:N:4882, V-B:ILE:369:CD1:8210, V-A:ASP:366:CG:3210, V-A:LEU:363:CD1:3186, V-B:PRO:540:CA:9855, V-B:ASP:366:CG:8184, H-B:TYR:484:OH:9319, H-B:GLY:454:N:9021, H-B:ARG:545:NE:9896, V-B:GLU:543:CD:9880, V-B:GLU:543:CG:9879, V-A:HIS:456:CE1:4066, V-A:ASP:366:CB:3209, V-A:ALA:541:CB:4890, V-B:HIS:456:CE1:9040, V-A:GLU:543:CB:4904, V-A:GLU:543:CD:4906, V-A:GLU:543:CG:4905, V-B:GLU:543:C:9874, V-B:GLY:544:CA:9886, V-B:HIS:456:CD2:9039, V-A:GLU:543:C:4900, V-B:LYS:547:CE:9922, V-A:HIS:456:CG:4063, V-B:GLY:544:C:9884, V-A:HIS:456:CD2:4065, H-B:LYS:547:NZ:9923, V-A:PRO:540:C:4879, V-B:GLY:454:CA:9020, H-B:ASP:366:OD2:8186, V-B:PRO:540:C:9853, H-B:ASP:366:OD1:8185, V-B:ARG:545:CG:9894, V-B:ARG:545:CD:9895, V-A:LEU:363:CB:3184, H-B:ILE:455:N:9026"]

$$$$
2a_Grossjean_2025
     RDKit          3D

 45 46  0  0  0  0  0  0  0  0999 V2000
  133.9430  123.8930   60.3500 C   0  0  0  0  0  0  0  0  0  0  0  0
  133.8820  124.3130   58.8780 C   0  0  0  0  0  0  0  0  0  0  0  0
  132.5270  124.5470   58.5120 O   0  0  0  0  0  0  0  0  0  0  0  0
  132.2020  125.4980   57.5990 C   0  0  0  0  0  0  0  0  0  0  0  0
  132.5420  125.4490   56.4130 O   0  0  0  0  0  0  0  0  0  0  0  0
  131.3680  126.6080   58.1730 C   0  0  0  0  0  0  0  0  0  0  0  0
  130.6190  127.4700   57.3600 C   0  0  0  0  0  0  0  0  0  0  0  0
  129.8580  128.4900   57.9240 C   0  0  0  0  0  0  0  0  0  0  0  0
  129.8340  128.6740   59.3070 C   0  0  0  0  0  0  0  0  0  0  0  0
  129.0430  129.7430   59.7650 N   0  0  0  0  0  0  0  0  0  0  0  0
  127.8650  130.2130   59.3000 C   0  0  0  0  0  0  0  0  0  0  0  0
  127.2580  129.7770   58.3220 O   0  0  0  0  0  0  0  0  0  0  0  0
  127.2690  131.3900   60.0800 C   0  0  0  0  0  0  0  0  0  0  0  0
  128.3720  132.8410   60.1500 S   0  0  0  0  0  0  0  0  0  0  0  0
  130.0750  132.3140   59.9950 C   0  0  0  0  0  0  0  0  0  0  0  0
  130.6990  131.9920   61.1570 N   0  0  0  0  0  0  0  0  0  0  0  0
  131.9920  131.5970   61.1160 C   0  0  0  0  0  0  0  0  0  0  0  0
  132.6290  131.2810   62.4560 C   0  0  0  0  0  0  0  0  0  0  0  0
  132.7090  131.4970   59.9270 C   0  0  0  0  0  0  0  0  0  0  0  0
  132.0810  131.8160   58.7140 C   0  0  0  0  0  0  0  0  0  0  0  0
  132.8890  131.7000   57.4070 C   0  0  0  0  0  0  0  0  0  0  0  0
  132.1810  131.0420   56.4890 F   0  0  0  0  0  0  0  0  0  0  0  0
  133.1800  132.9160   56.9420 F   0  0  0  0  0  0  0  0  0  0  0  0
  134.0420  131.0460   57.5710 F   0  0  0  0  0  0  0  0  0  0  0  0
  130.7270  132.2360   58.7430 C   0  0  0  0  0  0  0  0  0  0  0  0
  130.0220  132.5840   57.5040 C   0  0  0  0  0  0  0  0  0  0  0  0
  129.4660  132.8590   56.5270 N   0  0  0  0  0  0  0  0  0  0  0  0
  130.5740  127.8100   60.1270 C   0  0  0  0  0  0  0  0  0  0  0  0
  131.3320  126.7880   59.5620 C   0  0  0  0  0  0  0  0  0  0  0  0
  133.8144  124.7786   60.9896 H   0  0  0  0  0  0  0  0  0  0  0  0
  133.1404  123.1703   60.5587 H   0  0  0  0  0  0  0  0  0  0  0  0
  134.9180  123.4285   60.5587 H   0  0  0  0  0  0  0  0  0  0  0  0
  134.4659  125.2341   58.7341 H   0  0  0  0  0  0  0  0  0  0  0  0
  134.3011  123.5139   58.2489 H   0  0  0  0  0  0  0  0  0  0  0  0
  130.6327  127.3394   56.2679 H   0  0  0  0  0  0  0  0  0  0  0  0
  129.2711  129.1561   57.2745 H   0  0  0  0  0  0  0  0  0  0  0  0
  129.3980  130.1920   60.5950 H   0  0  0  0  0  0  0  0  0  0  0  0
  126.3282  131.6896   59.5952 H   0  0  0  0  0  0  0  0  0  0  0  0
  127.1121  131.0496   61.1142 H   0  0  0  0  0  0  0  0  0  0  0  0
  131.9623  131.6117   63.2660 H   0  0  0  0  0  0  0  0  0  0  0  0
  132.7942  130.1965   62.5368 H   0  0  0  0  0  0  0  0  0  0  0  0
  133.5924  131.8056   62.5368 H   0  0  0  0  0  0  0  0  0  0  0  0
  133.7594  131.1705   59.9386 H   0  0  0  0  0  0  0  0  0  0  0  0
  130.5555  127.9401   61.2191 H   0  0  0  0  0  0  0  0  0  0  0  0
  131.9088  126.1146   60.2131 H   0  0  0  0  0  0  0  0  0  0  0  0
  1  2  1  0
  2  3  1  0
  3  4  1  0
  4  5  2  0
  4  6  1  0
  6  7  2  0
  7  8  1  0
  8  9  2  0
  9 10  1  0
 10 11  1  0
 11 12  2  0
 11 13  1  0
 13 14  1  0
 14 15  1  0
 15 16  2  0
 16 17  1  0
 17 18  1  0
 17 19  2  0
 19 20  1  0
 20 21  1  0
 21 22  1  0
 21 23  1  0
 21 24  1  0
 20 25  2  0
 25 26  1  0
 26 27  3  0
  9 28  1  0
 28 29  2  0
 29  6  1  0
 25 15  1  0
  1 30  1  0
  1 31  1  0
  1 32  1  0
  2 33  1  0
  2 34  1  0
  7 35  1  0
  8 36  1  0
 10 37  1  0
 13 38  1  0
 13 39  1  0
 18 40  1  0
 18 41  1  0
 18 42  1  0
 19 43  1  0
 28 44  1  0
 29 45  1  0
M  END
>  <Binding energies>  (1) 
[-6.65]

>  <Ligand effiencies>  (1) 
[-0.22166666666666668]

>  <Interactions>  (1) 
["V-A:PRO:540:CA:4881, V-A:ARG:545:CZ:4924, V-A:TYR:531:CE2:4791, V-A:ILE:538:CB:4860, V-A:ILE:369:CG2:3234, V-A:PRO:540:CD:4885, V-A:PRO:540:CB:4883, V-A:ILE:369:CD1:3236, V-A:LEU:363:CA:3182, V-A:PRO:540:N:4882, V-A:ASP:366:CG:3210, V-A:LEU:363:CD1:3186, V-A:TYR:539:CE1:4873, V-A:ASP:366:CA:3207, V-A:ASP:366:CB:3209, V-A:GLU:543:CD:4906, V-A:PRO:540:C:4879, H-A:TYR:531:OH:4793, V-A:TYR:531:CZ:4792, V-A:TYR:539:C:4865, H-B:TYR:539:OH:9850, V-A:ILE:369:CB:3233, H-A:TYR:539:N:4868, H-A:ALA:541:N:4889, V-A:ASN:362:CB:3173, V-A:LEU:363:CB:3184, V-A:LEU:363:CG:3185, V-A:LEU:363:C:3180, V-A:PRO:540:CG:4884"]

$$$$
2aa_Ghoteimi_2023
     RDKit          3D

 85 90  0  0  0  0  0  0  0  0999 V2000
  130.7360  126.6120   59.1660 C   0  0  0  0  0  0  0  0  0  0  0  0
  131.1940  127.6530   58.1380 C   0  0  0  0  0  0  0  0  0  0  0  0
  130.0900  128.4710   57.7740 O   0  0  0  0  0  0  0  0  0  0  0  0
  128.8550  127.9390   57.5780 C   0  0  0  0  0  0  0  0  0  0  0  0
  128.6130  127.0800   56.7240 O   0  0  0  0  0  0  0  0  0  0  0  0
  127.8170  128.4890   58.5130 C   0  0  0  0  0  0  0  0  0  0  0  0
  127.3780  127.7730   59.6360 C   0  0  0  0  0  0  0  0  0  0  0  0
  126.4170  128.3110   60.4870 C   0  0  0  0  0  0  0  0  0  0  0  0
  125.8690  129.5690   60.2290 C   0  0  0  0  0  0  0  0  0  0  0  0
  124.9080  130.0180   61.1550 N   0  0  0  0  0  0  0  0  0  0  0  0
  124.7080  131.2530   61.6640 C   0  0  0  0  0  0  0  0  0  0  0  0
  125.3550  132.2580   61.3610 O   0  0  0  0  0  0  0  0  0  0  0  0
  123.5550  131.3490   62.6720 C   0  0  0  0  0  0  0  0  0  0  0  0
  123.8910  130.6190   63.8570 O   0  0  0  0  0  0  0  0  0  0  0  0
  125.2100  130.2670   64.1090 C   0  0  0  0  0  0  0  0  0  0  0  0
  126.1240  130.4580   63.1170 N   0  0  0  0  0  0  0  0  0  0  0  0
  127.4230  130.1290   63.3320 C   0  0  0  0  0  0  0  0  0  0  0  0
  128.3690  130.3620   62.1960 C   0  0  0  0  0  0  0  0  0  0  0  0
  129.2920  129.3810   61.8230 C   0  0  0  0  0  0  0  0  0  0  0  0
  130.1710  129.5900   60.7630 C   0  0  0  0  0  0  0  0  0  0  0  0
  130.1480  130.7850   60.0260 C   0  0  0  0  0  0  0  0  0  0  0  0
  131.0320  131.0160   58.9660 N   0  0  0  0  0  0  0  0  0  0  0  0
  130.5670  131.5980   57.6900 C   0  0  0  0  0  0  0  0  0  0  0  0
  131.5800  131.4520   56.5350 C   0  0  0  0  0  0  0  0  0  0  0  0
  132.8330  131.9970   56.9150 O   0  0  0  0  0  0  0  0  0  0  0  0
  133.3680  131.3300   58.0470 C   0  0  0  0  0  0  0  0  0  0  0  0
  132.4080  131.4730   59.2480 C   0  0  0  0  0  0  0  0  0  0  0  0
  129.2340  131.7740   60.4180 C   0  0  0  0  0  0  0  0  0  0  0  0
  128.3590  131.5650   61.4800 C   0  0  0  0  0  0  0  0  0  0  0  0
  127.8380  129.5810   64.5490 C   0  0  0  0  0  0  0  0  0  0  0  0
  126.9160  129.3640   65.5810 C   0  0  0  0  0  0  0  0  0  0  0  0
  127.4140  128.7510   66.8500 C   0  0  0  0  0  0  0  0  0  0  0  0
  126.6440  127.8000   67.5240 C   0  0  0  0  0  0  0  0  0  0  0  0
  127.0930  127.2400   68.7170 C   0  0  0  0  0  0  0  0  0  0  0  0
  128.3200  127.6270   69.2790 C   0  0  0  0  0  0  0  0  0  0  0  0
  128.7920  127.0750   70.4730 N   0  0  0  0  0  0  0  0  0  0  0  0
  127.8720  126.6990   71.5630 C   0  0  0  0  0  0  0  0  0  0  0  0
  128.5220  125.7960   72.6330 C   0  0  0  0  0  0  0  0  0  0  0  0
  129.6890  126.4190   73.1480 O   0  0  0  0  0  0  0  0  0  0  0  0
  130.6490  126.6550   72.1300 C   0  0  0  0  0  0  0  0  0  0  0  0
  130.0550  127.5810   71.0480 C   0  0  0  0  0  0  0  0  0  0  0  0
  129.0890  128.5760   68.5920 C   0  0  0  0  0  0  0  0  0  0  0  0
  128.6410  129.1350   67.3990 C   0  0  0  0  0  0  0  0  0  0  0  0
  125.5680  129.7310   65.3590 C   0  0  0  0  0  0  0  0  0  0  0  0
  124.5460  129.5860   66.3980 C   0  0  0  0  0  0  0  0  0  0  0  0
  123.7380  129.4720   67.2190 N   0  0  0  0  0  0  0  0  0  0  0  0
  126.3080  130.2950   59.1120 C   0  0  0  0  0  0  0  0  0  0  0  0
  127.2720  129.7550   58.2650 C   0  0  0  0  0  0  0  0  0  0  0  0
  130.9065  126.9996   60.1812 H   0  0  0  0  0  0  0  0  0  0  0  0
  129.6643  126.4064   59.0272 H   0  0  0  0  0  0  0  0  0  0  0  0
  131.3085  125.6831   59.0272 H   0  0  0  0  0  0  0  0  0  0  0  0
  131.9860  128.2782   58.5760 H   0  0  0  0  0  0  0  0  0  0  0  0
  131.5845  127.1424   57.2453 H   0  0  0  0  0  0  0  0  0  0  0  0
  127.7967  126.7777   59.8461 H   0  0  0  0  0  0  0  0  0  0  0  0
  126.0871  127.7415   61.3684 H   0  0  0  0  0  0  0  0  0  0  0  0
  124.2530  129.3070   61.4460 H   0  0  0  0  0  0  0  0  0  0  0  0
  123.3805  132.4042   62.9292 H   0  0  0  0  0  0  0  0  0  0  0  0
  122.6439  130.9230   62.2265 H   0  0  0  0  0  0  0  0  0  0  0  0
  129.3247  128.4299   62.3747 H   0  0  0  0  0  0  0  0  0  0  0  0
  130.8955  128.8056   60.4987 H   0  0  0  0  0  0  0  0  0  0  0  0
  129.6334  131.0945   57.3986 H   0  0  0  0  0  0  0  0  0  0  0  0
  130.4276  132.6757   57.8605 H   0  0  0  0  0  0  0  0  0  0  0  0
  131.7050  130.3863   56.2930 H   0  0  0  0  0  0  0  0  0  0  0  0
  131.2034  131.9936   55.6547 H   0  0  0  0  0  0  0  0  0  0  0  0
  133.5010  130.2636   57.8121 H   0  0  0  0  0  0  0  0  0  0  0  0
  134.3382  131.7794   58.3053 H   0  0  0  0  0  0  0  0  0  0  0  0
  132.8067  130.8793   60.0838 H   0  0  0  0  0  0  0  0  0  0  0  0
  132.3482  132.5453   59.4858 H   0  0  0  0  0  0  0  0  0  0  0  0
  129.2083  132.7313   59.8768 H   0  0  0  0  0  0  0  0  0  0  0  0
  127.6490  132.3568   61.7609 H   0  0  0  0  0  0  0  0  0  0  0  0
  128.8958  129.3183   64.6974 H   0  0  0  0  0  0  0  0  0  0  0  0
  125.6737  127.4907   67.1082 H   0  0  0  0  0  0  0  0  0  0  0  0
  126.4777  126.4837   69.2264 H   0  0  0  0  0  0  0  0  0  0  0  0
  127.5172  127.6183   72.0519 H   0  0  0  0  0  0  0  0  0  0  0  0
  127.0509  126.1242   71.1097 H   0  0  0  0  0  0  0  0  0  0  0  0
  127.8068  125.6281   73.4517 H   0  0  0  0  0  0  0  0  0  0  0  0
  128.7971  124.8340   72.1760 H   0  0  0  0  0  0  0  0  0  0  0  0
  131.5369  127.1322   72.5703 H   0  0  0  0  0  0  0  0  0  0  0  0
  130.9300  125.6962   71.6698 H   0  0  0  0  0  0  0  0  0  0  0  0
  129.8632  128.5659   71.4987 H   0  0  0  0  0  0  0  0  0  0  0  0
  130.7868  127.6347   70.2285 H   0  0  0  0  0  0  0  0  0  0  0  0
  130.0621  128.8839   69.0023 H   0  0  0  0  0  0  0  0  0  0  0  0
  129.2578  129.8857   66.8833 H   0  0  0  0  0  0  0  0  0  0  0  0
  125.8904  131.2914   58.9052 H   0  0  0  0  0  0  0  0  0  0  0  0
  127.6098  130.3299   57.3901 H   0  0  0  0  0  0  0  0  0  0  0  0
  1  2  1  0
  2  3  1  0
  3  4  1  0
  4  5  2  0
  4  6  1  0
  6  7  2  0
  7  8  1  0
  8  9  2  0
  9 10  1  0
 10 11  1  0
 11 12  2  0
 11 13  1  0
 13 14  1  0
 14 15  1  0
 15 16  2  0
 16 17  1  0
 17 18  1  0
 18 19  2  0
 19 20  1  0
 20 21  2  0
 21 22  1  0
 22 23  1  0
 23 24  1  0
 24 25  1  0
 25 26  1  0
 26 27  1  0
 21 28  1  0
 28 29  2  0
 17 30  2  0
 30 31  1  0
 31 32  1  0
 32 33  2  0
 33 34  1  0
 34 35  2  0
 35 36  1  0
 36 37  1  0
 37 38  1  0
 38 39  1  0
 39 40  1  0
 40 41  1  0
 35 42  1  0
 42 43  2  0
 31 44  2  0
 44 45  1  0
 45 46  3  0
  9 47  1  0
 47 48  2  0
 48  6  1  0
 44 15  1  0
 29 18  1  0
 43 32  1  0
 27 22  1  0
 41 36  1  0
  1 49  1  0
  1 50  1  0
  1 51  1  0
  2 52  1  0
  2 53  1  0
  7 54  1  0
  8 55  1  0
 10 56  1  0
 13 57  1  0
 13 58  1  0
 19 59  1  0
 20 60  1  0
 23 61  1  0
 23 62  1  0
 24 63  1  0
 24 64  1  0
 26 65  1  0
 26 66  1  0
 27 67  1  0
 27 68  1  0
 28 69  1  0
 29 70  1  0
 30 71  1  0
 33 72  1  0
 34 73  1  0
 37 74  1  0
 37 75  1  0
 38 76  1  0
 38 77  1  0
 40 78  1  0
 40 79  1  0
 41 80  1  0
 41 81  1  0
 42 82  1  0
 43 83  1  0
 47 84  1  0
 48 85  1  0
M  END
>  <Binding energies>  (1) 
[-7.54]

>  <Ligand effiencies>  (1) 
[-0.15387755102040818]

>  <Interactions>  (1) 
["V-A:PRO:540:CA:4881, V-A:TYR:531:CE2:4791, V-A:PRO:540:CB:4883, V-B:ARG:545:CZ:9898, V-B:GLY:453:CA:9015, V-A:LEU:363:CA:3182, V-B:ILE:369:CD1:8210, V-B:GLY:453:C:9013, V-A:ASP:366:CG:3210, V-A:LEU:363:CD1:3186, V-A:TYR:539:CE1:4873, V-B:ASP:366:CG:8184, H-B:TYR:484:OH:9319, H-B:GLY:454:N:9021, H-B:ARG:545:NE:9896, V-B:GLU:543:CD:9880, V-B:GLU:543:CG:9879, V-A:HIS:456:CE1:4066, V-A:ASP:366:CB:3209, V-B:HIS:456:CE1:9040, V-A:GLU:543:CB:4904, V-A:GLU:543:CD:4906, V-A:GLU:543:CG:4905, V-B:GLU:543:C:9874, V-B:GLY:544:CA:9886, V-A:GLU:543:C:4900, V-B:LYS:547:CE:9922, V-A:GLY:544:C:4910, V-A:HIS:456:CG:4063, V-B:GLY:544:C:9884, V-A:HIS:456:CD2:4065, H-B:LYS:547:NZ:9923, V-B:GLY:454:CA:9020, H-A:TYR:531:OH:4793, V-A:TYR:531:CZ:4792, H-B:ASP:366:OD2:8186, H-B:ASP:366:OD1:8185, V-B:ARG:545:CG:9894, V-B:ARG:545:CD:9895, H-B:ILE:455:N:9026"]

$$$$
2b_Ghoteimi_2023
     RDKit          3D

 72 77  0  0  0  0  0  0  0  0999 V2000
  134.4730  125.7240   66.5520 N   0  0  0  0  0  0  0  0  0  0  0  0
  133.6150  125.5780   65.7890 C   0  0  0  0  0  0  0  0  0  0  0  0
  132.5240  125.3960   64.8260 C   0  0  0  0  0  0  0  0  0  0  0  0
  131.1870  125.6940   65.1890 C   0  0  0  0  0  0  0  0  0  0  0  0
  130.7850  126.2020   66.5350 C   0  0  0  0  0  0  0  0  0  0  0  0
  129.6110  125.7450   67.1380 C   0  0  0  0  0  0  0  0  0  0  0  0
  129.2310  126.2160   68.3910 C   0  0  0  0  0  0  0  0  0  0  0  0
  130.0060  127.1710   69.0690 C   0  0  0  0  0  0  0  0  0  0  0  0
  129.6530  127.6480   70.3320 N   0  0  0  0  0  0  0  0  0  0  0  0
  128.4200  127.1460   70.9710 C   0  0  0  0  0  0  0  0  0  0  0  0
  127.9510  128.0130   72.1590 C   0  0  0  0  0  0  0  0  0  0  0  0
  128.9990  128.1510   73.1070 O   0  0  0  0  0  0  0  0  0  0  0  0
  130.1430  128.7680   72.5380 C   0  0  0  0  0  0  0  0  0  0  0  0
  130.6710  127.9150   71.3670 C   0  0  0  0  0  0  0  0  0  0  0  0
  131.1800  127.6250   68.4530 C   0  0  0  0  0  0  0  0  0  0  0  0
  131.5630  127.1520   67.2020 C   0  0  0  0  0  0  0  0  0  0  0  0
  130.1800  125.5090   64.2340 C   0  0  0  0  0  0  0  0  0  0  0  0
  130.4990  125.0720   62.9450 C   0  0  0  0  0  0  0  0  0  0  0  0
  129.4650  124.8880   61.8800 C   0  0  0  0  0  0  0  0  0  0  0  0
  128.7290  123.7000   61.7970 C   0  0  0  0  0  0  0  0  0  0  0  0
  127.7540  123.5280   60.8180 C   0  0  0  0  0  0  0  0  0  0  0  0
  127.4860  124.5330   59.8760 C   0  0  0  0  0  0  0  0  0  0  0  0
  126.4880  124.3870   58.9060 N   0  0  0  0  0  0  0  0  0  0  0  0
  126.8490  123.9600   57.5380 C   0  0  0  0  0  0  0  0  0  0  0  0
  125.7370  124.2160   56.4970 C   0  0  0  0  0  0  0  0  0  0  0  0
  124.5270  123.6070   56.9190 O   0  0  0  0  0  0  0  0  0  0  0  0
  124.0850  124.1320   58.1600 C   0  0  0  0  0  0  0  0  0  0  0  0
  125.1470  123.8770   59.2510 C   0  0  0  0  0  0  0  0  0  0  0  0
  128.2200  125.7250   59.9680 C   0  0  0  0  0  0  0  0  0  0  0  0
  129.1930  125.8970   60.9490 C   0  0  0  0  0  0  0  0  0  0  0  0
  131.7800  124.7890   62.5990 N   0  0  0  0  0  0  0  0  0  0  0  0
  132.7670  124.9280   63.5160 C   0  0  0  0  0  0  0  0  0  0  0  0
  134.3810  124.5090   62.8940 S   0  0  0  0  0  0  0  0  0  0  0  0
  134.2460  122.9020   62.0550 C   0  0  0  0  0  0  0  0  0  0  0  0
  133.5810  123.0230   60.6830 C   0  0  0  0  0  0  0  0  0  0  0  0
  133.0550  122.0290   60.1780 O   0  0  0  0  0  0  0  0  0  0  0  0
  133.6320  124.2480   60.1180 N   0  0  0  0  0  0  0  0  0  0  0  0
  133.1020  124.6340   58.8950 C   0  0  0  0  0  0  0  0  0  0  0  0
  131.7890  125.0760   58.7400 C   0  0  0  0  0  0  0  0  0  0  0  0
  131.6620  125.3560   57.3990 C   0  0  0  0  0  0  0  0  0  0  0  0
  132.8380  125.0970   56.7790 O   0  0  0  0  0  0  0  0  0  0  0  0
  133.7450  124.6410   57.7390 N   0  0  0  0  0  0  0  0  0  0  0  0
  128.9820  125.0071   66.6184 H   0  0  0  0  0  0  0  0  0  0  0  0
  128.3104  125.8349   68.8571 H   0  0  0  0  0  0  0  0  0  0  0  0
  127.6196  127.1250   70.2167 H   0  0  0  0  0  0  0  0  0  0  0  0
  128.6430  126.1443   71.3670 H   0  0  0  0  0  0  0  0  0  0  0  0
  127.6604  129.0079   71.7907 H   0  0  0  0  0  0  0  0  0  0  0  0
  127.0909  127.5263   72.6420 H   0  0  0  0  0  0  0  0  0  0  0  0
  129.8721  129.7678   72.1679 H   0  0  0  0  0  0  0  0  0  0  0  0
  130.9267  128.8553   73.3049 H   0  0  0  0  0  0  0  0  0  0  0  0
  131.5126  128.4471   70.8995 H   0  0  0  0  0  0  0  0  0  0  0  0
  130.9741  126.9430   71.7834 H   0  0  0  0  0  0  0  0  0  0  0  0
  131.8087  128.3671   68.9668 H   0  0  0  0  0  0  0  0  0  0  0  0
  132.4848  127.5285   66.7346 H   0  0  0  0  0  0  0  0  0  0  0  0
  129.1314  125.7087   64.4996 H   0  0  0  0  0  0  0  0  0  0  0  0
  128.9239  122.8905   62.5158 H   0  0  0  0  0  0  0  0  0  0  0  0
  127.1839  122.5880   60.7824 H   0  0  0  0  0  0  0  0  0  0  0  0
  127.7492  124.5108   57.2279 H   0  0  0  0  0  0  0  0  0  0  0  0
  127.0149  122.8731   57.5724 H   0  0  0  0  0  0  0  0  0  0  0  0
  125.5812  125.2996   56.3896 H   0  0  0  0  0  0  0  0  0  0  0  0
  126.0404  123.7849   55.5315 H   0  0  0  0  0  0  0  0  0  0  0  0
  123.9196  125.2148   58.0590 H   0  0  0  0  0  0  0  0  0  0  0  0
  123.1464  123.6358   58.4476 H   0  0  0  0  0  0  0  0  0  0  0  0
  124.8169  124.3682   60.1782 H   0  0  0  0  0  0  0  0  0  0  0  0
  125.2373  122.7864   59.3622 H   0  0  0  0  0  0  0  0  0  0  0  0
  128.0235  126.5375   59.2530 H   0  0  0  0  0  0  0  0  0  0  0  0
  129.7567  126.8406   60.9930 H   0  0  0  0  0  0  0  0  0  0  0  0
  135.2552  122.4843   61.9244 H   0  0  0  0  0  0  0  0  0  0  0  0
  133.6200  122.2463   62.6780 H   0  0  0  0  0  0  0  0  0  0  0  0
  134.0810  124.9830   60.6460 H   0  0  0  0  0  0  0  0  0  0  0  0
  131.0209  125.1787   59.5207 H   0  0  0  0  0  0  0  0  0  0  0  0
  130.7512  125.7303   56.9088 H   0  0  0  0  0  0  0  0  0  0  0  0
  1  2  3  0
  2  3  1  0
  3  4  2  0
  4  5  1  0
  5  6  2  0
  6  7  1  0
  7  8  2  0
  8  9  1  0
  9 10  1  0
 10 11  1  0
 11 12  1  0
 12 13  1  0
 13 14  1  0
  8 15  1  0
 15 16  2  0
  4 17  1  0
 17 18  2  0
 18 19  1  0
 19 20  2  0
 20 21  1  0
 21 22  2  0
 22 23  1  0
 23 24  1  0
 24 25  1  0
 25 26  1  0
 26 27  1  0
 27 28  1  0
 22 29  1  0
 29 30  2  0
 18 31  1  0
 31 32  2  0
 32 33  1  0
 33 34  1  0
 34 35  1  0
 35 36  2  0
 35 37  1  0
 37 38  1  0
 38 39  1  0
 39 40  2  0
 40 41  1  0
 41 42  1  0
 32  3  1  0
 42 38  2  0
 16  5  1  0
 30 19  1  0
 14  9  1  0
 28 23  1  0
  6 43  1  0
  7 44  1  0
 10 45  1  0
 10 46  1  0
 11 47  1  0
 11 48  1  0
 13 49  1  0
 13 50  1  0
 14 51  1  0
 14 52  1  0
 15 53  1  0
 16 54  1  0
 17 55  1  0
 20 56  1  0
 21 57  1  0
 24 58  1  0
 24 59  1  0
 25 60  1  0
 25 61  1  0
 27 62  1  0
 27 63  1  0
 28 64  1  0
 28 65  1  0
 29 66  1  0
 30 67  1  0
 34 68  1  0
 34 69  1  0
 37 70  1  0
 39 71  1  0
 40 72  1  0
M  END
>  <Binding energies>  (1) 
[-7.62]

>  <Ligand effiencies>  (1) 
[-0.1772093023255814]

>  <Interactions>  (1) 
["V-A:ARG:545:CZ:4924, H-A:ARG:545:NE:4922, V-A:GLY:454:CA:4046, V-B:TYR:539:CE1:9847, V-A:ILE:369:CG2:3234, V-A:ILE:369:CD1:3236, H-A:GLY:454:N:4047, H-A:TYR:484:OH:4345, V-A:ASP:366:CG:3210, V-B:TYR:531:CE2:9765, V-A:GLY:453:C:4039, V-B:PRO:540:CA:9855, V-B:ASP:366:CG:8184, V-B:PRO:540:CB:9857, V-B:LEU:363:CD1:8160, V-B:LEU:363:CA:8156, V-B:ASP:366:CB:8183, H-B:TYR:531:OH:9767, V-B:GLU:543:CD:9880, V-B:GLU:543:CG:9879, V-B:GLU:543:CB:9878, V-A:HIS:456:CE1:4066, V-A:ASP:366:CA:3207, V-A:ASP:366:CB:3209, V-B:TYR:539:CZ:9849, V-B:HIS:456:CE1:9040, V-A:GLU:543:CD:4906, V-A:GLU:543:CG:4905, V-B:GLU:543:C:9874, V-B:HIS:456:CD2:9039, V-A:GLU:543:C:4900, V-A:LYS:547:CE:4948, V-A:GLY:544:C:4910, V-B:GLY:544:C:9884, H-A:LYS:547:NZ:4949, V-B:HIS:456:CG:9037, V-A:GLY:544:CA:4912, V-B:TYR:531:CZ:9766, H-B:TYR:539:OH:9850, H-A:ASP:366:OD1:3211, V-B:MET:535:CE:9807, V-A:ARG:545:CG:4920, V-A:ARG:545:CD:4921"]

$$$$
2b_Grossjean_2025
     RDKit          3D

 42 43  0  0  0  0  0  0  0  0999 V2000
  124.5880  124.2380   57.4070 C   0  0  0  0  0  0  0  0  0  0  0  0
  125.1410  122.9750   57.7510 O   0  0  0  0  0  0  0  0  0  0  0  0
  126.4680  122.7280   57.6030 C   0  0  0  0  0  0  0  0  0  0  0  0
  126.9840  122.4020   56.5290 O   0  0  0  0  0  0  0  0  0  0  0  0
  127.2460  122.8890   58.8770 C   0  0  0  0  0  0  0  0  0  0  0  0
  126.6820  123.4650   60.0240 C   0  0  0  0  0  0  0  0  0  0  0  0
  127.4320  123.6010   61.1890 C   0  0  0  0  0  0  0  0  0  0  0  0
  128.7530  123.1590   61.2350 C   0  0  0  0  0  0  0  0  0  0  0  0
  129.4210  123.3500   62.4600 N   0  0  0  0  0  0  0  0  0  0  0  0
  130.2570  122.5230   63.1240 C   0  0  0  0  0  0  0  0  0  0  0  0
  130.5740  121.3890   62.7620 O   0  0  0  0  0  0  0  0  0  0  0  0
  130.8170  123.0780   64.4370 C   0  0  0  0  0  0  0  0  0  0  0  0
  131.7690  124.6170   64.2170 S   0  0  0  0  0  0  0  0  0  0  0  0
  131.7550  125.1030   62.4960 C   0  0  0  0  0  0  0  0  0  0  0  0
  130.8750  126.0820   62.1670 N   0  0  0  0  0  0  0  0  0  0  0  0
  130.8070  126.4950   60.8820 C   0  0  0  0  0  0  0  0  0  0  0  0
  129.7890  127.5820   60.5950 C   0  0  0  0  0  0  0  0  0  0  0  0
  131.6110  125.9620   59.8780 C   0  0  0  0  0  0  0  0  0  0  0  0
  132.5330  124.9540   60.1960 C   0  0  0  0  0  0  0  0  0  0  0  0
  133.4190  124.3780   59.0750 C   0  0  0  0  0  0  0  0  0  0  0  0
  133.2420  123.0590   58.9860 F   0  0  0  0  0  0  0  0  0  0  0  0
  133.1000  124.9370   57.9060 F   0  0  0  0  0  0  0  0  0  0  0  0
  134.7200  124.5960   59.2810 F   0  0  0  0  0  0  0  0  0  0  0  0
  132.6110  124.5060   61.5400 C   0  0  0  0  0  0  0  0  0  0  0  0
  133.5520  123.4510   61.9280 C   0  0  0  0  0  0  0  0  0  0  0  0
  134.2960  122.6190   62.2340 N   0  0  0  0  0  0  0  0  0  0  0  0
  129.3280  122.5880   60.0900 C   0  0  0  0  0  0  0  0  0  0  0  0
  128.5780  122.4550   58.9250 C   0  0  0  0  0  0  0  0  0  0  0  0
  124.3446  124.7939   58.3245 H   0  0  0  0  0  0  0  0  0  0  0  0
  125.3184  124.8091   56.8151 H   0  0  0  0  0  0  0  0  0  0  0  0
  123.6729  124.0887   56.8151 H   0  0  0  0  0  0  0  0  0  0  0  0
  125.6385  123.8123   60.0033 H   0  0  0  0  0  0  0  0  0  0  0  0
  126.9787  124.0606   62.0796 H   0  0  0  0  0  0  0  0  0  0  0  0
  129.1970  124.2180   62.9220 H   0  0  0  0  0  0  0  0  0  0  0  0
  129.9769  123.2807   65.1176 H   0  0  0  0  0  0  0  0  0  0  0  0
  131.5053  122.3228   64.8443 H   0  0  0  0  0  0  0  0  0  0  0  0
  129.4087  127.9880   61.5440 H   0  0  0  0  0  0  0  0  0  0  0  0
  130.2655  128.3871   60.0164 H   0  0  0  0  0  0  0  0  0  0  0  0
  128.9544  127.1592   60.0164 H   0  0  0  0  0  0  0  0  0  0  0  0
  131.5239  126.3282   58.8444 H   0  0  0  0  0  0  0  0  0  0  0  0
  130.3729  122.2449   60.1128 H   0  0  0  0  0  0  0  0  0  0  0  0
  129.0357  122.0043   58.0320 H   0  0  0  0  0  0  0  0  0  0  0  0
  1  2  1  0
  2  3  1  0
  3  4  2  0
  3  5  1  0
  5  6  2  0
  6  7  1  0
  7  8  2  0
  8  9  1  0
  9 10  1  0
 10 11  2  0
 10 12  1  0
 12 13  1  0
 13 14  1  0
 14 15  2  0
 15 16  1  0
 16 17  1  0
 16 18  2  0
 18 19  1  0
 19 20  1  0
 20 21  1  0
 20 22  1  0
 20 23  1  0
 19 24  2  0
 24 25  1  0
 25 26  3  0
  8 27  1  0
 27 28  2  0
 28  5  1  0
 24 14  1  0
  1 29  1  0
  1 30  1  0
  1 31  1  0
  6 32  1  0
  7 33  1  0
  9 34  1  0
 12 35  1  0
 12 36  1  0
 17 37  1  0
 17 38  1  0
 17 39  1  0
 18 40  1  0
 27 41  1  0
 28 42  1  0
M  END
>  <Binding energies>  (1) 
[-6.62]

>  <Ligand effiencies>  (1) 
[-0.22827586206896552]

>  <Interactions>  (1) 
["V-B:ALA:541:CB:9864, V-B:TYR:539:CE1:9847, V-A:ILE:369:CG2:3234, V-A:ILE:369:CD1:3236, H-A:GLY:454:N:4047, H-A:TYR:484:OH:4345, V-A:ASP:366:CG:3210, V-A:LEU:475:CD2:4256, V-B:TYR:531:CE2:9765, V-B:PRO:540:CA:9855, V-B:PRO:540:CB:9857, H-A:ARG:545:NH2:4926, V-B:PRO:540:CD:9859, V-B:LEU:363:CD1:8160, V-B:TYR:539:CD1:9845, V-B:PRO:540:N:9856, V-B:TYR:539:CG:9844, V-B:TYR:539:C:9839, V-A:ASP:366:CA:3207, V-A:ASP:366:CB:3209, H-B:GLU:543:OE1:9881, V-B:TYR:539:CZ:9849, V-B:TYR:531:CZ:9766, V-A:ILE:369:CB:3233, V-A:ASP:366:C:3205, H-B:TYR:539:N:9842, V-A:TYR:484:CZ:4344, V-A:TYR:484:CE2:4343, V-A:ILE:369:CG1:3235"]

$$$$
2c_Ghoteimi_2023
     RDKit          3D

 72 77  0  0  0  0  0  0  0  0999 V2000
  134.6240  125.5400   66.1620 N   0  0  0  0  0  0  0  0  0  0  0  0
  133.7520  125.3660   65.4230 C   0  0  0  0  0  0  0  0  0  0  0  0
  132.6420  125.1490   64.4890 C   0  0  0  0  0  0  0  0  0  0  0  0
  131.3080  125.4320   64.8750 C   0  0  0  0  0  0  0  0  0  0  0  0
  130.9250  125.9550   66.2210 C   0  0  0  0  0  0  0  0  0  0  0  0
  131.7380  126.8870   66.8700 C   0  0  0  0  0  0  0  0  0  0  0  0
  131.3860  127.3830   68.1220 C   0  0  0  0  0  0  0  0  0  0  0  0
  130.2170  126.9500   68.7670 C   0  0  0  0  0  0  0  0  0  0  0  0
  129.8340  127.4500   70.0140 N   0  0  0  0  0  0  0  0  0  0  0  0
  128.5600  127.0020   70.6110 C   0  0  0  0  0  0  0  0  0  0  0  0
  128.0800  127.9020   71.7700 C   0  0  0  0  0  0  0  0  0  0  0  0
  129.0940  128.0040   72.7580 O   0  0  0  0  0  0  0  0  0  0  0  0
  130.2850  128.5680   72.2310 C   0  0  0  0  0  0  0  0  0  0  0  0
  130.8220  127.6860   71.0840 C   0  0  0  0  0  0  0  0  0  0  0  0
  129.4090  126.0120   68.1090 C   0  0  0  0  0  0  0  0  0  0  0  0
  129.7610  125.5180   66.8560 C   0  0  0  0  0  0  0  0  0  0  0  0
  130.2840  125.2110   63.9460 C   0  0  0  0  0  0  0  0  0  0  0  0
  130.5810  124.7470   62.6610 C   0  0  0  0  0  0  0  0  0  0  0  0
  129.5270  124.5120   61.6280 C   0  0  0  0  0  0  0  0  0  0  0  0
  129.6760  123.5030   60.6710 C   0  0  0  0  0  0  0  0  0  0  0  0
  128.6940  123.2760   59.7090 C   0  0  0  0  0  0  0  0  0  0  0  0
  127.5300  124.0580   59.6620 C   0  0  0  0  0  0  0  0  0  0  0  0
  126.5230  123.8270   58.7190 N   0  0  0  0  0  0  0  0  0  0  0  0
  126.7370  122.8390   57.6420 C   0  0  0  0  0  0  0  0  0  0  0  0
  125.7320  122.9640   56.4780 C   0  0  0  0  0  0  0  0  0  0  0  0
  124.4050  122.8910   56.9720 O   0  0  0  0  0  0  0  0  0  0  0  0
  124.1340  123.9380   57.8910 C   0  0  0  0  0  0  0  0  0  0  0  0
  125.0940  123.8460   59.0960 C   0  0  0  0  0  0  0  0  0  0  0  0
  127.3780  125.0600   60.6320 C   0  0  0  0  0  0  0  0  0  0  0  0
  128.3600  125.2860   61.5940 C   0  0  0  0  0  0  0  0  0  0  0  0
  131.8600  124.4790   62.2920 N   0  0  0  0  0  0  0  0  0  0  0  0
  132.8650  124.6550   63.1830 C   0  0  0  0  0  0  0  0  0  0  0  0
  134.4700  124.2450   62.5370 S   0  0  0  0  0  0  0  0  0  0  0  0
  134.2750  123.9200   60.7580 C   0  0  0  0  0  0  0  0  0  0  0  0
  133.2060  122.8610   60.4820 C   0  0  0  0  0  0  0  0  0  0  0  0
  132.3030  123.1090   59.6810 O   0  0  0  0  0  0  0  0  0  0  0  0
  133.3420  121.7040   61.1650 N   0  0  0  0  0  0  0  0  0  0  0  0
  132.5200  120.5900   61.0800 C   0  0  0  0  0  0  0  0  0  0  0  0
  131.2260  120.5220   61.3030 N   0  0  0  0  0  0  0  0  0  0  0  0
  130.7660  119.3000   61.1230 C   0  0  0  0  0  0  0  0  0  0  0  0
  131.7010  118.3410   60.7450 C   0  0  0  0  0  0  0  0  0  0  0  0
  133.2640  119.0920   60.6200 S   0  0  0  0  0  0  0  0  0  0  0  0
  132.6644  127.2320   66.3876 H   0  0  0  0  0  0  0  0  0  0  0  0
  132.0331  128.1248   68.6129 H   0  0  0  0  0  0  0  0  0  0  0  0
  127.7883  127.0006   69.8271 H   0  0  0  0  0  0  0  0  0  0  0  0
  128.7298  125.9978   71.0266 H   0  0  0  0  0  0  0  0  0  0  0  0
  127.8486  128.9045   71.3808 H   0  0  0  0  0  0  0  0  0  0  0  0
  127.1796  127.4597   72.2213 H   0  0  0  0  0  0  0  0  0  0  0  0
  130.0718  129.5763   71.8464 H   0  0  0  0  0  0  0  0  0  0  0  0
  131.0414  128.6257   73.0276 H   0  0  0  0  0  0  0  0  0  0  0  0
  131.7000  128.1820   70.6446 H   0  0  0  0  0  0  0  0  0  0  0  0
  131.0713  126.7062   71.5174 H   0  0  0  0  0  0  0  0  0  0  0  0
  128.4838  125.6614   68.5897 H   0  0  0  0  0  0  0  0  0  0  0  0
  129.1161  124.7765   66.3617 H   0  0  0  0  0  0  0  0  0  0  0  0
  129.2387  125.4038   64.2291 H   0  0  0  0  0  0  0  0  0  0  0  0
  130.5821  122.8793   60.6779 H   0  0  0  0  0  0  0  0  0  0  0  0
  128.8337  122.4699   58.9737 H   0  0  0  0  0  0  0  0  0  0  0  0
  127.7520  122.9766   57.2409 H   0  0  0  0  0  0  0  0  0  0  0  0
  126.5930  121.8429   58.0859 H   0  0  0  0  0  0  0  0  0  0  0  0
  125.8795  123.9294   55.9717 H   0  0  0  0  0  0  0  0  0  0  0  0
  125.8983  122.1406   55.7679 H   0  0  0  0  0  0  0  0  0  0  0  0
  124.2712  124.9073   57.3894 H   0  0  0  0  0  0  0  0  0  0  0  0
  123.0976  123.8453   58.2478 H   0  0  0  0  0  0  0  0  0  0  0  0
  124.9184  124.7153   59.7467 H   0  0  0  0  0  0  0  0  0  0  0  0
  124.8831  122.8924   59.6021 H   0  0  0  0  0  0  0  0  0  0  0  0
  126.4679  125.6778   60.6330 H   0  0  0  0  0  0  0  0  0  0  0  0
  128.2169  126.0838   62.3376 H   0  0  0  0  0  0  0  0  0  0  0  0
  133.9863  124.8551   60.2558 H   0  0  0  0  0  0  0  0  0  0  0  0
  135.2343  123.5419   60.3748 H   0  0  0  0  0  0  0  0  0  0  0  0
  134.1330  121.6190   61.7870 H   0  0  0  0  0  0  0  0  0  0  0  0
  129.7035  119.0523   61.2636 H   0  0  0  0  0  0  0  0  0  0  0  0
  131.4858  117.2790   60.5558 H   0  0  0  0  0  0  0  0  0  0  0  0
  1  2  3  0
  2  3  1  0
  3  4  2  0
  4  5  1  0
  5  6  2  0
  6  7  1  0
  7  8  2  0
  8  9  1  0
  9 10  1  0
 10 11  1  0
 11 12  1  0
 12 13  1  0
 13 14  1  0
  8 15  1  0
 15 16  2  0
  4 17  1  0
 17 18  2  0
 18 19  1  0
 19 20  2  0
 20 21  1  0
 21 22  2  0
 22 23  1  0
 23 24  1  0
 24 25  1  0
 25 26  1  0
 26 27  1  0
 27 28  1  0
 22 29  1  0
 29 30  2  0
 18 31  1  0
 31 32  2  0
 32 33  1  0
 33 34  1  0
 34 35  1  0
 35 36  2  0
 35 37  1  0
 37 38  1  0
 38 39  2  0
 39 40  1  0
 40 41  2  0
 41 42  1  0
 32  3  1  0
 42 38  1  0
 16  5  1  0
 30 19  1  0
 14  9  1  0
 28 23  1  0
  6 43  1  0
  7 44  1  0
 10 45  1  0
 10 46  1  0
 11 47  1  0
 11 48  1  0
 13 49  1  0
 13 50  1  0
 14 51  1  0
 14 52  1  0
 15 53  1  0
 16 54  1  0
 17 55  1  0
 20 56  1  0
 21 57  1  0
 24 58  1  0
 24 59  1  0
 25 60  1  0
 25 61  1  0
 27 62  1  0
 27 63  1  0
 28 64  1  0
 28 65  1  0
 29 66  1  0
 30 67  1  0
 34 68  1  0
 34 69  1  0
 37 70  1  0
 40 71  1  0
 41 72  1  0
M  END
>  <Binding energies>  (1) 
[-7.35]

>  <Ligand effiencies>  (1) 
[-0.17093023255813952]

>  <Interactions>  (1) 
["V-A:ARG:545:CZ:4924, H-A:ARG:545:NE:4922, V-A:GLY:454:CA:4046, V-B:TYR:539:CE1:9847, V-A:ILE:369:CG2:3234, V-A:ILE:369:CD1:3236, H-A:GLY:454:N:4047, H-A:TYR:484:OH:4345, V-A:LEU:475:CD2:4256, V-B:TYR:531:CE2:9765, V-A:GLY:453:C:4039, V-B:PRO:540:CA:9855, V-B:ILE:538:CG2:9835, V-B:PRO:540:CB:9857, V-B:PRO:540:CD:9859, V-B:ILE:538:CB:9834, V-B:LEU:363:CD1:8160, V-B:TYR:539:CD1:9845, V-B:LEU:363:CA:8156, V-B:ASP:366:CB:8183, V-B:PRO:540:N:9856, V-B:TYR:539:C:9839, V-B:GLU:543:CD:9880, V-B:GLU:543:CG:9879, V-B:GLU:543:CB:9878, V-A:HIS:456:CE1:4066, V-B:HIS:456:CE1:9040, V-A:GLU:543:CD:4906, V-A:GLU:543:CG:4905, V-B:GLU:543:C:9874, V-B:HIS:456:CD2:9039, V-A:GLU:543:C:4900, V-A:LYS:547:CE:4948, V-A:GLY:544:C:4910, V-B:GLY:544:C:9884, V-A:HIS:456:CD2:4065, V-B:HIS:456:CG:9037, V-A:GLY:544:CA:4912, H-B:TYR:539:OH:9850, V-A:ILE:369:CB:3233, V-A:ARG:545:CG:4920, V-A:ARG:545:CD:4921, V-A:LEU:373:CD1:3277, V-A:SER:385:CA:3404, V-A:SER:385:CB:3406, V-A:GLY:453:CA:4041, H-A:SER:385:O:3403, V-B:GLU:543:CA:9876, H-A:ILE:455:N:4052"]

$$$$
2c_Grossjean_2025
     RDKit          3D

 40 41  0  0  0  0  0  0  0  0999 V2000
  127.2730  128.9160   75.2750 C   0  0  0  0  0  0  0  0  0  0  0  0
  128.4860  128.3340   74.8080 O   0  0  0  0  0  0  0  0  0  0  0  0
  128.5900  127.9700   73.4790 C   0  0  0  0  0  0  0  0  0  0  0  0
  129.8740  127.9510   72.9370 C   0  0  0  0  0  0  0  0  0  0  0  0
  130.0800  127.5980   71.6060 C   0  0  0  0  0  0  0  0  0  0  0  0
  128.9870  127.2660   70.7930 C   0  0  0  0  0  0  0  0  0  0  0  0
  129.0970  126.8800   69.4450 N   0  0  0  0  0  0  0  0  0  0  0  0
  129.0720  127.6570   68.3410 C   0  0  0  0  0  0  0  0  0  0  0  0
  128.8880  128.8760   68.3460 O   0  0  0  0  0  0  0  0  0  0  0  0
  129.2560  126.9040   67.0150 C   0  0  0  0  0  0  0  0  0  0  0  0
  130.8980  126.1440   66.7640 S   0  0  0  0  0  0  0  0  0  0  0  0
  131.1260  125.7800   65.0280 C   0  0  0  0  0  0  0  0  0  0  0  0
  130.0330  125.9580   64.2420 N   0  0  0  0  0  0  0  0  0  0  0  0
  130.1290  125.6940   62.9210 C   0  0  0  0  0  0  0  0  0  0  0  0
  128.8620  125.9010   62.1140 C   0  0  0  0  0  0  0  0  0  0  0  0
  131.3090  125.2530   62.3260 C   0  0  0  0  0  0  0  0  0  0  0  0
  132.4530  125.0700   63.1170 C   0  0  0  0  0  0  0  0  0  0  0  0
  133.7510  124.5830   62.4450 C   0  0  0  0  0  0  0  0  0  0  0  0
  134.7710  125.3660   62.8010 F   0  0  0  0  0  0  0  0  0  0  0  0
  134.0170  123.3300   62.8150 F   0  0  0  0  0  0  0  0  0  0  0  0
  133.6790  124.6020   61.1110 F   0  0  0  0  0  0  0  0  0  0  0  0
  132.3650  125.3380   64.5060 C   0  0  0  0  0  0  0  0  0  0  0  0
  133.5290  125.1620   65.3820 C   0  0  0  0  0  0  0  0  0  0  0  0
  134.4470  125.0220   66.0720 N   0  0  0  0  0  0  0  0  0  0  0  0
  127.7000  127.2680   71.3350 C   0  0  0  0  0  0  0  0  0  0  0  0
  127.4990  127.6210   72.6660 C   0  0  0  0  0  0  0  0  0  0  0  0
  127.2673  128.9187   76.3750 H   0  0  0  0  0  0  0  0  0  0  0  0
  127.1959  129.9492   74.9054 H   0  0  0  0  0  0  0  0  0  0  0  0
  126.4189  128.3296   74.9054 H   0  0  0  0  0  0  0  0  0  0  0  0
  130.7345  128.2180   73.5681 H   0  0  0  0  0  0  0  0  0  0  0  0
  131.0992  127.5796   71.1927 H   0  0  0  0  0  0  0  0  0  0  0  0
  129.1370  125.8830   69.2940 H   0  0  0  0  0  0  0  0  0  0  0  0
  128.5021  126.1041   66.9720 H   0  0  0  0  0  0  0  0  0  0  0  0
  129.1477  127.6583   66.2217 H   0  0  0  0  0  0  0  0  0  0  0  0
  128.0109  126.0400   62.7969 H   0  0  0  0  0  0  0  0  0  0  0  0
  128.9728  126.7930   61.4798 H   0  0  0  0  0  0  0  0  0  0  0  0
  128.6832  125.0202   61.4798 H   0  0  0  0  0  0  0  0  0  0  0  0
  131.3433  125.0501   61.2454 H   0  0  0  0  0  0  0  0  0  0  0  0
  126.8411  126.9892   70.7069 H   0  0  0  0  0  0  0  0  0  0  0  0
  126.4812  127.6267   73.0833 H   0  0  0  0  0  0  0  0  0  0  0  0
  1  2  1  0
  2  3  1  0
  3  4  2  0
  4  5  1  0
  5  6  2  0
  6  7  1  0
  7  8  1  0
  8  9  2  0
  8 10  1  0
 10 11  1  0
 11 12  1  0
 12 13  2  0
 13 14  1  0
 14 15  1  0
 14 16  2  0
 16 17  1  0
 17 18  1  0
 18 19  1  0
 18 20  1  0
 18 21  1  0
 17 22  2  0
 22 23  1  0
 23 24  3  0
  6 25  1  0
 25 26  2  0
 26  3  1  0
 22 12  1  0
  1 27  1  0
  1 28  1  0
  1 29  1  0
  4 30  1  0
  5 31  1  0
  7 32  1  0
 10 33  1  0
 10 34  1  0
 15 35  1  0
 15 36  1  0
 15 37  1  0
 16 38  1  0
 25 39  1  0
 26 40  1  0
M  END
>  <Binding energies>  (1) 
[-6.58]

>  <Ligand effiencies>  (1) 
[-0.2437037037037037]

>  <Interactions>  (1) 
["V-A:ARG:545:CZ:4924, H-A:ARG:545:NE:4922, V-A:GLY:454:CA:4046, V-A:ILE:369:CD1:3236, H-A:GLY:454:N:4047, H-A:TYR:484:OH:4345, V-A:ASP:366:CG:3210, V-A:GLY:453:C:4039, V-B:GLU:543:CD:9880, V-B:GLU:543:CG:9879, V-B:GLU:543:CB:9878, V-A:HIS:456:CE1:4066, V-B:HIS:456:CE1:9040, V-A:GLU:543:CD:4906, V-A:GLU:543:CG:4905, V-B:GLU:543:C:9874, V-B:GLY:544:CA:9886, V-B:HIS:456:CD2:9039, V-B:LYS:547:CE:9922, V-A:LYS:547:CE:4948, V-A:GLY:544:C:4910, V-B:GLY:544:C:9884, H-A:LYS:547:NZ:4949, V-B:HIS:456:CG:9037, H-B:LYS:547:NZ:9923, V-A:GLY:544:CA:4912, H-B:HIS:456:NE2:9041, V-A:ARG:545:CG:4920, V-A:ARG:545:CD:4921, V-A:GLY:453:CA:4041, H-B:GLU:543:O:9875, H-A:ILE:455:N:4052"]

$$$$
2d_Ghoteimi_2023
     RDKit          3D

 68 72  0  0  0  0  0  0  0  0999 V2000
  132.2540  120.9380   61.1410 C   0  0  0  0  0  0  0  0  0  0  0  0
  132.2540  122.1250   60.3630 O   0  0  0  0  0  0  0  0  0  0  0  0
  133.3120  122.9620   60.3910 C   0  0  0  0  0  0  0  0  0  0  0  0
  133.5590  123.8320   59.5500 O   0  0  0  0  0  0  0  0  0  0  0  0
  134.1920  122.7080   61.6230 C   0  0  0  0  0  0  0  0  0  0  0  0
  134.3810  124.2230   62.6240 S   0  0  0  0  0  0  0  0  0  0  0  0
  132.7810  124.6770   63.2610 C   0  0  0  0  0  0  0  0  0  0  0  0
  131.7740  124.4630   62.3800 N   0  0  0  0  0  0  0  0  0  0  0  0
  130.4990  124.7710   62.7300 C   0  0  0  0  0  0  0  0  0  0  0  0
  129.4450  124.5250   61.7000 C   0  0  0  0  0  0  0  0  0  0  0  0
  129.4890  123.3820   60.8940 C   0  0  0  0  0  0  0  0  0  0  0  0
  128.5100  123.1460   59.9320 C   0  0  0  0  0  0  0  0  0  0  0  0
  127.4440  124.0410   59.7500 C   0  0  0  0  0  0  0  0  0  0  0  0
  126.4620  123.8280   58.7760 N   0  0  0  0  0  0  0  0  0  0  0  0
  125.6950  124.9480   58.1960 C   0  0  0  0  0  0  0  0  0  0  0  0
  124.4280  124.5020   57.4370 C   0  0  0  0  0  0  0  0  0  0  0  0
  124.7700  123.5540   56.4380 O   0  0  0  0  0  0  0  0  0  0  0  0
  125.3690  122.3980   57.0000 C   0  0  0  0  0  0  0  0  0  0  0  0
  126.6610  122.7820   57.7520 C   0  0  0  0  0  0  0  0  0  0  0  0
  127.4110  125.1910   60.5500 C   0  0  0  0  0  0  0  0  0  0  0  0
  128.3910  125.4280   61.5100 C   0  0  0  0  0  0  0  0  0  0  0  0
  130.2060  125.3010   63.9890 C   0  0  0  0  0  0  0  0  0  0  0  0
  131.2230  125.4990   64.9300 C   0  0  0  0  0  0  0  0  0  0  0  0
  130.8320  126.0430   66.2660 C   0  0  0  0  0  0  0  0  0  0  0  0
  129.6110  125.6830   66.8400 C   0  0  0  0  0  0  0  0  0  0  0  0
  129.2420  126.1740   68.0890 C   0  0  0  0  0  0  0  0  0  0  0  0
  130.0850  127.0440   68.7990 C   0  0  0  0  0  0  0  0  0  0  0  0
  129.7410  127.5390   70.0610 N   0  0  0  0  0  0  0  0  0  0  0  0
  130.7590  127.7500   71.1080 C   0  0  0  0  0  0  0  0  0  0  0  0
  130.2630  128.6230   72.2810 C   0  0  0  0  0  0  0  0  0  0  0  0
  129.0770  128.0710   72.8300 O   0  0  0  0  0  0  0  0  0  0  0  0
  128.0380  127.9960   71.8650 C   0  0  0  0  0  0  0  0  0  0  0  0
  128.4760  127.1030   70.6840 C   0  0  0  0  0  0  0  0  0  0  0  0
  131.3170  127.3850   68.2230 C   0  0  0  0  0  0  0  0  0  0  0  0
  131.6860  126.8930   66.9750 C   0  0  0  0  0  0  0  0  0  0  0  0
  132.5540  125.1750   64.5650 C   0  0  0  0  0  0  0  0  0  0  0  0
  133.6510  125.3470   65.5220 C   0  0  0  0  0  0  0  0  0  0  0  0
  134.5140  125.4840   66.2810 N   0  0  0  0  0  0  0  0  0  0  0  0
  133.2911  120.6313   61.3420 H   0  0  0  0  0  0  0  0  0  0  0  0
  131.7355  121.1237   62.0932 H   0  0  0  0  0  0  0  0  0  0  0  0
  131.7355  120.1390   60.5908 H   0  0  0  0  0  0  0  0  0  0  0  0
  133.7270  121.9256   62.2408 H   0  0  0  0  0  0  0  0  0  0  0  0
  135.1879  122.3910   61.2800 H   0  0  0  0  0  0  0  0  0  0  0  0
  130.3086  122.6596   61.0220 H   0  0  0  0  0  0  0  0  0  0  0  0
  128.5731  122.2443   59.3051 H   0  0  0  0  0  0  0  0  0  0  0  0
  125.3927  125.6215   59.0115 H   0  0  0  0  0  0  0  0  0  0  0  0
  126.3509  125.4436   57.4651 H   0  0  0  0  0  0  0  0  0  0  0  0
  123.7206  124.0460   58.1452 H   0  0  0  0  0  0  0  0  0  0  0  0
  123.9651  125.3785   56.9601 H   0  0  0  0  0  0  0  0  0  0  0  0
  124.6649  121.9286   57.7028 H   0  0  0  0  0  0  0  0  0  0  0  0
  125.6182  121.6933   56.1930 H   0  0  0  0  0  0  0  0  0  0  0  0
  127.0558  121.8822   58.2465 H   0  0  0  0  0  0  0  0  0  0  0  0
  127.3586  123.1903   57.0059 H   0  0  0  0  0  0  0  0  0  0  0  0
  126.5970  125.9188   60.4172 H   0  0  0  0  0  0  0  0  0  0  0  0
  128.3370  126.3366   62.1277 H   0  0  0  0  0  0  0  0  0  0  0  0
  129.1686  125.5646   64.2426 H   0  0  0  0  0  0  0  0  0  0  0  0
  128.9342  125.0047   66.2998 H   0  0  0  0  0  0  0  0  0  0  0  0
  128.2772  125.8766   68.5257 H   0  0  0  0  0  0  0  0  0  0  0  0
  131.0579  126.7690   71.5059 H   0  0  0  0  0  0  0  0  0  0  0  0
  131.5994  128.2835   70.6399 H   0  0  0  0  0  0  0  0  0  0  0  0
  131.0398  128.6633   73.0588 H   0  0  0  0  0  0  0  0  0  0  0  0
  130.0514  129.6373   71.9115 H   0  0  0  0  0  0  0  0  0  0  0  0
  127.1384  127.5677   72.3312 H   0  0  0  0  0  0  0  0  0  0  0  0
  127.8197  129.0071   71.4909 H   0  0  0  0  0  0  0  0  0  0  0  0
  128.6045  126.0746   71.0526 H   0  0  0  0  0  0  0  0  0  0  0  0
  127.6928  127.1724   69.9147 H   0  0  0  0  0  0  0  0  0  0  0  0
  132.0025  128.0520   68.7663 H   0  0  0  0  0  0  0  0  0  0  0  0
  132.6574  127.1750   66.5427 H   0  0  0  0  0  0  0  0  0  0  0  0
  1  2  1  0
  2  3  1  0
  3  4  2  0
  3  5  1  0
  5  6  1  0
  6  7  1  0
  7  8  2  0
  8  9  1  0
  9 10  1  0
 10 11  2  0
 11 12  1  0
 12 13  2  0
 13 14  1  0
 14 15  1  0
 15 16  1  0
 16 17  1  0
 17 18  1  0
 18 19  1  0
 13 20  1  0
 20 21  2  0
  9 22  2  0
 22 23  1  0
 23 24  1  0
 24 25  2  0
 25 26  1  0
 26 27  2  0
 27 28  1  0
 28 29  1  0
 29 30  1  0
 30 31  1  0
 31 32  1  0
 32 33  1  0
 27 34  1  0
 34 35  2  0
 23 36  2  0
 36 37  1  0
 37 38  3  0
 36  7  1  0
 21 10  1  0
 35 24  1  0
 19 14  1  0
 33 28  1  0
  1 39  1  0
  1 40  1  0
  1 41  1  0
  5 42  1  0
  5 43  1  0
 11 44  1  0
 12 45  1  0
 15 46  1  0
 15 47  1  0
 16 48  1  0
 16 49  1  0
 18 50  1  0
 18 51  1  0
 19 52  1  0
 19 53  1  0
 20 54  1  0
 21 55  1  0
 22 56  1  0
 25 57  1  0
 26 58  1  0
 29 59  1  0
 29 60  1  0
 30 61  1  0
 30 62  1  0
 32 63  1  0
 32 64  1  0
 33 65  1  0
 33 66  1  0
 34 67  1  0
 35 68  1  0
M  END
>  <Binding energies>  (1) 
[-5.58]

>  <Ligand effiencies>  (1) 
[-0.14684210526315788]

>  <Interactions>  (1) 
["V-A:ARG:545:CZ:4924, H-A:ARG:545:NE:4922, V-A:GLY:454:CA:4046, V-B:TYR:539:CE1:9847, V-A:ILE:369:CG2:3234, V-A:ILE:369:CD1:3236, H-A:GLY:454:N:4047, H-A:TYR:484:OH:4345, V-A:LEU:475:CD2:4256, V-B:TYR:531:CE2:9765, V-B:PRO:540:CA:9855, V-B:ILE:538:CG2:9835, V-B:ASP:366:CG:8184, V-B:PRO:540:CB:9857, V-B:PRO:540:CD:9859, V-B:ILE:538:CB:9834, V-B:LEU:363:CD1:8160, V-B:TYR:539:CD1:9845, V-B:ASP:366:CB:8183, V-B:PRO:540:N:9856, H-B:TYR:531:OH:9767, V-B:TYR:539:C:9839, V-B:GLU:543:CD:9880, V-B:GLU:543:CG:9879, V-B:GLU:543:CB:9878, V-A:HIS:456:CE1:4066, V-B:HIS:456:CE1:9040, V-A:GLU:543:CD:4906, V-A:GLU:543:CG:4905, V-B:GLU:543:C:9874, V-B:HIS:456:CD2:9039, V-A:GLU:543:C:4900, V-A:LYS:547:CE:4948, V-A:GLY:544:C:4910, V-B:GLY:544:C:9884, V-A:HIS:456:CD2:4065, H-A:LYS:547:NZ:4949, V-B:HIS:456:CG:9037, V-A:GLY:544:CA:4912, V-B:TYR:531:CZ:9766, V-B:PRO:540:CG:9858, V-A:ARG:545:CG:4920, V-A:ARG:545:CD:4921, H-A:ILE:455:N:4052"]

$$$$
2d_Grossjean_2025
     RDKit          3D

 36 37  0  0  0  0  0  0  0  0999 V2000
  132.5130  131.2580   62.6290 C   0  0  0  0  0  0  0  0  0  0  0  0
  131.7760  131.6120   61.3520 C   0  0  0  0  0  0  0  0  0  0  0  0
  132.3440  131.3960   60.0980 C   0  0  0  0  0  0  0  0  0  0  0  0
  131.6200  131.7350   58.9460 C   0  0  0  0  0  0  0  0  0  0  0  0
  132.2600  131.4790   57.5680 C   0  0  0  0  0  0  0  0  0  0  0  0
  131.5280  130.6020   56.8800 F   0  0  0  0  0  0  0  0  0  0  0  0
  132.3300  132.6190   56.8770 F   0  0  0  0  0  0  0  0  0  0  0  0
  133.4970  130.9870   57.6560 F   0  0  0  0  0  0  0  0  0  0  0  0
  130.3280  132.2990   59.0980 C   0  0  0  0  0  0  0  0  0  0  0  0
  129.5130  132.6280   57.9250 C   0  0  0  0  0  0  0  0  0  0  0  0
  128.8700  132.8860   56.9980 N   0  0  0  0  0  0  0  0  0  0  0  0
  129.8420  132.5060   60.4110 C   0  0  0  0  0  0  0  0  0  0  0  0
  128.2570  133.2310   60.7840 S   0  0  0  0  0  0  0  0  0  0  0  0
  126.9930  131.9170   60.7650 C   0  0  0  0  0  0  0  0  0  0  0  0
  127.1210  130.9470   61.9440 C   0  0  0  0  0  0  0  0  0  0  0  0
  127.8590  129.9670   61.8340 O   0  0  0  0  0  0  0  0  0  0  0  0
  126.3680  131.2390   63.0250 N   0  0  0  0  0  0  0  0  0  0  0  0
  126.2690  130.5540   64.2500 C   0  0  0  0  0  0  0  0  0  0  0  0
  124.9810  130.1840   64.6430 C   0  0  0  0  0  0  0  0  0  0  0  0
  124.7800  129.5070   65.8440 C   0  0  0  0  0  0  0  0  0  0  0  0
  125.8710  129.2080   66.6570 C   0  0  0  0  0  0  0  0  0  0  0  0
  127.1580  129.5830   66.2830 C   0  0  0  0  0  0  0  0  0  0  0  0
  127.3620  130.2590   65.0830 C   0  0  0  0  0  0  0  0  0  0  0  0
  130.5460  132.1520   61.5140 N   0  0  0  0  0  0  0  0  0  0  0  0
  131.9039  131.5506   63.4970 H   0  0  0  0  0  0  0  0  0  0  0  0
  132.6960  130.1737   62.6582 H   0  0  0  0  0  0  0  0  0  0  0  0
  133.4737  131.7929   62.6582 H   0  0  0  0  0  0  0  0  0  0  0  0
  133.3517  130.9633   60.0126 H   0  0  0  0  0  0  0  0  0  0  0  0
  125.9988  132.3862   60.8033 H   0  0  0  0  0  0  0  0  0  0  0  0
  127.1368  131.3351   59.8427 H   0  0  0  0  0  0  0  0  0  0  0  0
  125.7420  132.0260   62.9350 H   0  0  0  0  0  0  0  0  0  0  0  0
  124.1214  130.4281   64.0015 H   0  0  0  0  0  0  0  0  0  0  0  0
  123.7655  129.2103   66.1486 H   0  0  0  0  0  0  0  0  0  0  0  0
  125.7137  128.6703   67.6037 H   0  0  0  0  0  0  0  0  0  0  0  0
  128.0123  129.3458   66.9341 H   0  0  0  0  0  0  0  0  0  0  0  0
  128.3773  130.5618   64.7872 H   0  0  0  0  0  0  0  0  0  0  0  0
  1  2  1  0
  2  3  2  0
  3  4  1  0
  4  5  1  0
  5  6  1  0
  5  7  1  0
  5  8  1  0
  4  9  2  0
  9 10  1  0
 10 11  3  0
  9 12  1  0
 12 13  1  0
 13 14  1  0
 14 15  1  0
 15 16  2  0
 15 17  1  0
 17 18  1  0
 18 19  2  0
 19 20  1  0
 20 21  2  0
 21 22  1  0
 22 23  2  0
 12 24  2  0
 24  2  1  0
 23 18  1  0
  1 25  1  0
  1 26  1  0
  1 27  1  0
  3 28  1  0
 14 29  1  0
 14 30  1  0
 17 31  1  0
 19 32  1  0
 20 33  1  0
 21 34  1  0
 22 35  1  0
 23 36  1  0
M  END
>  <Binding energies>  (1) 
[-6.45]

>  <Ligand effiencies>  (1) 
[-0.258]

>  <Interactions>  (1) 
["V-A:PRO:540:CA:4881, V-A:ARG:545:CZ:4924, V-A:TYR:531:CE2:4791, V-A:ILE:538:CB:4860, V-A:PRO:540:CD:4885, V-A:PRO:540:CB:4883, V-B:ARG:545:CZ:9898, V-A:LEU:363:CA:3182, V-A:PRO:540:N:4882, V-A:ASP:366:CG:3210, V-A:LEU:363:CD1:3186, V-A:TYR:539:CE1:4873, V-A:TYR:539:CD1:4871, V-A:ASP:366:CB:3209, V-B:HIS:456:CE1:9040, V-A:GLU:543:CB:4904, V-A:GLU:543:CD:4906, V-A:PRO:540:C:4879, V-B:GLY:454:CA:9020, V-A:TYR:531:CZ:4792, V-A:TYR:539:C:4865, H-A:TYR:539:N:4868, V-A:TYR:539:CG:4870, H-A:ALA:541:N:4889, V-A:ASN:362:CB:3173, V-B:ARG:545:CG:9894, V-B:ARG:545:CD:9895, V-A:PRO:540:CG:4884"]

$$$$
2e_Grossjean_2025
     RDKit          3D

 38 39  0  0  0  0  0  0  0  0999 V2000
  126.8080  129.3450   63.8140 C   0  0  0  0  0  0  0  0  0  0  0  0
  126.9350  128.4400   62.6040 C   0  0  0  0  0  0  0  0  0  0  0  0
  126.3980  128.7970   61.3640 C   0  0  0  0  0  0  0  0  0  0  0  0
  126.5640  127.9190   60.2920 C   0  0  0  0  0  0  0  0  0  0  0  0
  127.2530  126.7190   60.4820 C   0  0  0  0  0  0  0  0  0  0  0  0
  127.7570  126.4190   61.7530 C   0  0  0  0  0  0  0  0  0  0  0  0
  128.4790  125.2200   61.8780 N   0  0  0  0  0  0  0  0  0  0  0  0
  129.6060  124.8540   61.2280 C   0  0  0  0  0  0  0  0  0  0  0  0
  130.2370  125.5710   60.4500 O   0  0  0  0  0  0  0  0  0  0  0  0
  130.0780  123.4170   61.4700 C   0  0  0  0  0  0  0  0  0  0  0  0
  129.1710  122.2170   60.4420 S   0  0  0  0  0  0  0  0  0  0  0  0
  127.5190  122.8630   60.3040 C   0  0  0  0  0  0  0  0  0  0  0  0
  126.9120  123.1210   61.4890 N   0  0  0  0  0  0  0  0  0  0  0  0
  125.6380  123.5720   61.4770 C   0  0  0  0  0  0  0  0  0  0  0  0
  125.0200  123.8420   62.8360 C   0  0  0  0  0  0  0  0  0  0  0  0
  124.9230  123.7760   60.2980 C   0  0  0  0  0  0  0  0  0  0  0  0
  125.5330  123.5040   59.0640 C   0  0  0  0  0  0  0  0  0  0  0  0
  124.7230  123.7140   57.7710 C   0  0  0  0  0  0  0  0  0  0  0  0
  125.3720  124.5430   56.9530 F   0  0  0  0  0  0  0  0  0  0  0  0
  124.5440  122.5470   57.1520 F   0  0  0  0  0  0  0  0  0  0  0  0
  123.5160  124.2380   57.9980 F   0  0  0  0  0  0  0  0  0  0  0  0
  126.8700  123.0360   59.0600 C   0  0  0  0  0  0  0  0  0  0  0  0
  127.5540  122.7060   57.8060 C   0  0  0  0  0  0  0  0  0  0  0  0
  128.0930  122.4450   56.8150 N   0  0  0  0  0  0  0  0  0  0  0  0
  127.6060  127.2770   62.8050 N   0  0  0  0  0  0  0  0  0  0  0  0
  126.8923  128.7443   64.7316 H   0  0  0  0  0  0  0  0  0  0  0  0
  127.6092  130.0984   63.7941 H   0  0  0  0  0  0  0  0  0  0  0  0
  125.8304  129.8488   63.7941 H   0  0  0  0  0  0  0  0  0  0  0  0
  125.8578  129.7467   61.2362 H   0  0  0  0  0  0  0  0  0  0  0  0
  126.1544  128.1707   59.3026 H   0  0  0  0  0  0  0  0  0  0  0  0
  127.3975  126.0199   59.6451 H   0  0  0  0  0  0  0  0  0  0  0  0
  128.1210  124.5780   62.5690 H   0  0  0  0  0  0  0  0  0  0  0  0
  131.1497  123.3505   61.2312 H   0  0  0  0  0  0  0  0  0  0  0  0
  129.8889  123.1710   62.5253 H   0  0  0  0  0  0  0  0  0  0  0  0
  125.7219  123.5353   63.6255 H   0  0  0  0  0  0  0  0  0  0  0  0
  124.8046  124.9162   62.9339 H   0  0  0  0  0  0  0  0  0  0  0  0
  124.0854  123.2702   62.9339 H   0  0  0  0  0  0  0  0  0  0  0  0
  123.8883  124.1475   60.3347 H   0  0  0  0  0  0  0  0  0  0  0  0
  1  2  1  0
  2  3  2  0
  3  4  1  0
  4  5  2  0
  5  6  1  0
  6  7  1  0
  7  8  1  0
  8  9  2  0
  8 10  1  0
 10 11  1  0
 11 12  1  0
 12 13  2  0
 13 14  1  0
 14 15  1  0
 14 16  2  0
 16 17  1  0
 17 18  1  0
 18 19  1  0
 18 20  1  0
 18 21  1  0
 17 22  2  0
 22 23  1  0
 23 24  3  0
  6 25  2  0
 25  2  1  0
 22 12  1  0
  1 26  1  0
  1 27  1  0
  1 28  1  0
  3 29  1  0
  4 30  1  0
  5 31  1  0
  7 32  1  0
 10 33  1  0
 10 34  1  0
 15 35  1  0
 15 36  1  0
 15 37  1  0
 16 38  1  0
M  END
>  <Binding energies>  (1) 
[-6.31]

>  <Ligand effiencies>  (1) 
[-0.24269230769230768]

>  <Interactions>  (1) 
["H-B:ARG:545:NH2:9900, V-B:ARG:545:CZ:9898, V-B:TYR:531:CE2:9765, V-B:PRO:540:CA:9855, V-B:ASP:366:CG:8184, V-B:PRO:540:CB:9857, V-B:PRO:540:CD:9859, V-B:ILE:538:CB:9834, V-B:LEU:363:CD1:8160, V-B:LEU:363:CA:8156, V-B:ASP:366:CB:8183, V-B:PRO:540:N:9856, V-B:TYR:539:C:9839, V-B:GLU:543:CD:9880, H-B:GLU:543:OE1:9881, H-B:GLU:543:OE2:9882, H-B:ALA:541:N:9863, V-B:TYR:531:CZ:9766, V-B:PRO:540:CG:9858, V-B:PRO:540:C:9853, H-B:TYR:539:N:9842, V-B:LEU:363:CB:8158, V-B:ASN:362:CB:8147, V-B:ASN:362:CG:8148, V-B:LEU:363:C:8154"]

$$$$
2f_Grossjean_2025
     RDKit          3D

 35 36  0  0  0  0  0  0  0  0999 V2000
  125.2510  123.8730   62.6380 C   0  0  0  0  0  0  0  0  0  0  0  0
  125.8010  123.5930   61.2520 C   0  0  0  0  0  0  0  0  0  0  0  0
  125.0570  123.8580   60.1050 C   0  0  0  0  0  0  0  0  0  0  0  0
  125.6060  123.5740   58.8450 C   0  0  0  0  0  0  0  0  0  0  0  0
  124.7630  123.8620   57.5890 C   0  0  0  0  0  0  0  0  0  0  0  0
  125.4580  124.6150   56.7330 F   0  0  0  0  0  0  0  0  0  0  0  0
  124.4340  122.7180   56.9890 F   0  0  0  0  0  0  0  0  0  0  0  0
  123.6310  124.5130   57.8630 F   0  0  0  0  0  0  0  0  0  0  0  0
  126.9150  123.0290   58.7830 C   0  0  0  0  0  0  0  0  0  0  0  0
  127.5100  122.6630   57.4950 C   0  0  0  0  0  0  0  0  0  0  0  0
  127.9800  122.3750   56.4780 N   0  0  0  0  0  0  0  0  0  0  0  0
  127.6060  122.8180   60.0000 C   0  0  0  0  0  0  0  0  0  0  0  0
  129.2560  122.1540   60.1100 S   0  0  0  0  0  0  0  0  0  0  0  0
  130.3860  123.5180   60.5520 C   0  0  0  0  0  0  0  0  0  0  0  0
  130.8780  123.5100   62.0070 C   0  0  0  0  0  0  0  0  0  0  0  0
  130.9730  122.4530   62.6320 O   0  0  0  0  0  0  0  0  0  0  0  0
  131.1620  124.7310   62.5080 N   0  0  0  0  0  0  0  0  0  0  0  0
  131.6390  125.0860   63.7850 C   0  0  0  0  0  0  0  0  0  0  0  0
  130.8380  125.4450   64.8850 C   0  0  0  0  0  0  0  0  0  0  0  0
  131.4400  125.7700   66.1010 C   0  0  0  0  0  0  0  0  0  0  0  0
  132.8320  125.7250   66.1900 C   0  0  0  0  0  0  0  0  0  0  0  0
  133.6260  125.3750   65.1470 N   0  0  0  0  0  0  0  0  0  0  0  0
  133.0250  125.0600   63.9710 C   0  0  0  0  0  0  0  0  0  0  0  0
  127.0500  123.0770   61.2090 N   0  0  0  0  0  0  0  0  0  0  0  0
  125.9624  123.5108   63.3948 H   0  0  0  0  0  0  0  0  0  0  0  0
  125.1034  124.9560   62.7620 H   0  0  0  0  0  0  0  0  0  0  0  0
  124.2885  123.3552   62.7620 H   0  0  0  0  0  0  0  0  0  0  0  0
  124.0471  124.2865   60.1859 H   0  0  0  0  0  0  0  0  0  0  0  0
  131.2657  123.4586   59.8943 H   0  0  0  0  0  0  0  0  0  0  0  0
  129.8091  124.4464   60.4285 H   0  0  0  0  0  0  0  0  0  0  0  0
  130.9800  125.5170   61.9000 H   0  0  0  0  0  0  0  0  0  0  0  0
  129.7427  125.4693   64.7866 H   0  0  0  0  0  0  0  0  0  0  0  0
  130.8304  126.0556   66.9710 H   0  0  0  0  0  0  0  0  0  0  0  0
  133.3063  125.9847   67.1479 H   0  0  0  0  0  0  0  0  0  0  0  0
  133.6604  124.7696   63.1213 H   0  0  0  0  0  0  0  0  0  0  0  0
  1  2  1  0
  2  3  2  0
  3  4  1  0
  4  5  1  0
  5  6  1  0
  5  7  1  0
  5  8  1  0
  4  9  2  0
  9 10  1  0
 10 11  3  0
  9 12  1  0
 12 13  1  0
 13 14  1  0
 14 15  1  0
 15 16  2  0
 15 17  1  0
 17 18  1  0
 18 19  2  0
 19 20  1  0
 20 21  2  0
 21 22  1  0
 22 23  2  0
 12 24  2  0
 24  2  1  0
 23 18  1  0
  1 25  1  0
  1 26  1  0
  1 27  1  0
  3 28  1  0
 14 29  1  0
 14 30  1  0
 17 31  1  0
 19 32  1  0
 20 33  1  0
 21 34  1  0
 23 35  1  0
M  END
>  <Binding energies>  (1) 
[-7.38]

>  <Ligand effiencies>  (1) 
[-0.2952]

>  <Interactions>  (1) 
["V-A:ARG:545:CZ:4924, H-A:ARG:545:NE:4922, V-B:TYR:539:CE1:9847, V-B:ARG:545:CZ:9898, H-A:GLY:454:N:4047, H-A:TYR:484:OH:4345, V-B:TYR:531:CE2:9765, V-B:PRO:540:CA:9855, V-B:ASP:366:CG:8184, V-B:PRO:540:CB:9857, V-B:PRO:540:CD:9859, V-B:ILE:538:CB:9834, V-B:LEU:363:CD1:8160, V-B:LEU:363:CA:8156, V-B:ASP:366:CB:8183, V-B:PRO:540:N:9856, V-B:TYR:539:C:9839, V-B:GLU:543:CD:9880, V-A:HIS:456:CE1:4066, H-B:ALA:541:N:9863, V-B:TYR:531:CZ:9766, V-B:PRO:540:CG:9858, V-B:PRO:540:C:9853, H-B:TYR:539:N:9842, V-B:ASN:362:CB:8147, V-A:ARG:545:CG:4920, V-A:ARG:545:CD:4921"]

$$$$
2g_Grossjean_2025
     RDKit          3D

 39 40  0  0  0  0  0  0  0  0999 V2000
  129.4920  126.5000   63.3570 C   0  0  0  0  0  0  0  0  0  0  0  0
  130.4140  125.8210   62.3620 C   0  0  0  0  0  0  0  0  0  0  0  0
  131.7180  125.4680   62.7000 C   0  0  0  0  0  0  0  0  0  0  0  0
  132.5340  124.8480   61.7410 C   0  0  0  0  0  0  0  0  0  0  0  0
  133.9780  124.4730   62.1300 C   0  0  0  0  0  0  0  0  0  0  0  0
  134.4070  125.2550   63.1220 F   0  0  0  0  0  0  0  0  0  0  0  0
  134.0220  123.2020   62.5320 F   0  0  0  0  0  0  0  0  0  0  0  0
  134.8370  124.6060   61.1170 F   0  0  0  0  0  0  0  0  0  0  0  0
  131.9960  124.5920   60.4540 C   0  0  0  0  0  0  0  0  0  0  0  0
  132.8240  123.9990   59.4000 C   0  0  0  0  0  0  0  0  0  0  0  0
  133.4780  123.5300   58.5690 N   0  0  0  0  0  0  0  0  0  0  0  0
  130.6500  124.9580   60.2110 C   0  0  0  0  0  0  0  0  0  0  0  0
  129.8110  124.6880   58.6650 S   0  0  0  0  0  0  0  0  0  0  0  0
  128.3890  123.5920   58.9970 C   0  0  0  0  0  0  0  0  0  0  0  0
  128.5130  122.7490   60.2740 C   0  0  0  0  0  0  0  0  0  0  0  0
  127.6210  122.7360   61.1240 O   0  0  0  0  0  0  0  0  0  0  0  0
  129.6530  122.0430   60.3920 N   0  0  0  0  0  0  0  0  0  0  0  0
  129.9950  121.1630   61.5100 C   0  0  0  0  0  0  0  0  0  0  0  0
  131.0290  120.0940   61.1740 C   0  0  0  0  0  0  0  0  0  0  0  0
  130.6500  118.7480   61.1320 C   0  0  0  0  0  0  0  0  0  0  0  0
  131.5840  117.7730   60.7880 C   0  0  0  0  0  0  0  0  0  0  0  0
  132.8890  118.1470   60.4790 C   0  0  0  0  0  0  0  0  0  0  0  0
  133.2700  119.4880   60.5060 C   0  0  0  0  0  0  0  0  0  0  0  0
  132.3370  120.4620   60.8490 C   0  0  0  0  0  0  0  0  0  0  0  0
  129.8830  125.5770   61.1420 N   0  0  0  0  0  0  0  0  0  0  0  0
  129.8169  126.2607   64.3803 H   0  0  0  0  0  0  0  0  0  0  0  0
  129.5279  127.5890   63.2061 H   0  0  0  0  0  0  0  0  0  0  0  0
  128.4627  126.1426   63.2061 H   0  0  0  0  0  0  0  0  0  0  0  0
  132.1049  125.6731   63.7091 H   0  0  0  0  0  0  0  0  0  0  0  0
  127.4880  124.2169   59.0852 H   0  0  0  0  0  0  0  0  0  0  0  0
  128.3424  122.8811   58.1589 H   0  0  0  0  0  0  0  0  0  0  0  0
  130.3250  122.0870   59.6400 H   0  0  0  0  0  0  0  0  0  0  0  0
  130.3933  121.7828   62.3268 H   0  0  0  0  0  0  0  0  0  0  0  0
  129.0721  120.6323   61.7867 H   0  0  0  0  0  0  0  0  0  0  0  0
  129.6156  118.4597   61.3703 H   0  0  0  0  0  0  0  0  0  0  0  0
  131.2917  116.7129   60.7607 H   0  0  0  0  0  0  0  0  0  0  0  0
  133.6270  117.3767   60.2108 H   0  0  0  0  0  0  0  0  0  0  0  0
  134.3025  119.7746   60.2575 H   0  0  0  0  0  0  0  0  0  0  0  0
  132.6296  121.5223   60.8642 H   0  0  0  0  0  0  0  0  0  0  0  0
  1  2  1  0
  2  3  2  0
  3  4  1  0
  4  5  1  0
  5  6  1  0
  5  7  1  0
  5  8  1  0
  4  9  2  0
  9 10  1  0
 10 11  3  0
  9 12  1  0
 12 13  1  0
 13 14  1  0
 14 15  1  0
 15 16  2  0
 15 17  1  0
 17 18  1  0
 18 19  1  0
 19 20  2  0
 20 21  1  0
 21 22  2  0
 22 23  1  0
 23 24  2  0
 12 25  2  0
 25  2  1  0
 24 19  1  0
  1 26  1  0
  1 27  1  0
  1 28  1  0
  3 29  1  0
 14 30  1  0
 14 31  1  0
 17 32  1  0
 18 33  1  0
 18 34  1  0
 20 35  1  0
 21 36  1  0
 22 37  1  0
 23 38  1  0
 24 39  1  0
M  END
>  <Binding energies>  (1) 
[-6.34]

>  <Ligand effiencies>  (1) 
[-0.24384615384615385]

>  <Interactions>  (1) 
["V-A:ARG:545:CZ:4924, V-A:GLY:454:CA:4046, V-B:ALA:541:CB:9864, V-B:TYR:539:CE1:9847, V-A:ILE:369:CG2:3234, V-A:ILE:369:CD1:3236, V-A:ASP:366:CG:3210, V-A:LEU:475:CD2:4256, V-A:GLY:453:C:4039, V-B:PRO:540:CA:9855, V-B:TYR:539:CD1:9845, V-B:TYR:539:C:9839, V-B:GLU:543:CD:9880, H-B:ALA:541:N:9863, H-B:TYR:539:OH:9850, V-A:PRO:482:CB:4323, V-A:PRO:482:CG:4324, H-B:TYR:539:O:9840, V-A:LEU:373:CD1:3277, V-A:SER:385:CA:3404, V-A:SER:385:CB:3406, V-A:GLY:453:CA:4041"]

$$$$
2h_Grossjean_2025
     RDKit          3D

 51 52  0  0  0  0  0  0  0  0999 V2000
  133.3120  124.5520   58.8950 C   0  0  0  0  0  0  0  0  0  0  0  0
  132.1260  124.3940   58.1240 O   0  0  0  0  0  0  0  0  0  0  0  0
  131.3270  125.4960   57.8750 C   0  0  0  0  0  0  0  0  0  0  0  0
  131.7410  126.8240   58.0680 C   0  0  0  0  0  0  0  0  0  0  0  0
  130.8820  127.8840   57.7870 C   0  0  0  0  0  0  0  0  0  0  0  0
  129.5930  127.6430   57.3080 C   0  0  0  0  0  0  0  0  0  0  0  0
  128.6770  128.8220   56.9870 C   0  0  0  0  0  0  0  0  0  0  0  0
  128.3350  129.6350   58.1550 N   0  0  0  0  0  0  0  0  0  0  0  0
  127.6150  130.7700   58.1200 C   0  0  0  0  0  0  0  0  0  0  0  0
  127.2310  131.2940   57.0730 O   0  0  0  0  0  0  0  0  0  0  0  0
  127.2830  131.3860   59.4860 C   0  0  0  0  0  0  0  0  0  0  0  0
  128.3400  132.7890   59.9770 S   0  0  0  0  0  0  0  0  0  0  0  0
  130.0260  132.2500   59.7950 C   0  0  0  0  0  0  0  0  0  0  0  0
  130.6010  131.8530   60.9570 N   0  0  0  0  0  0  0  0  0  0  0  0
  131.8880  131.4410   60.9360 C   0  0  0  0  0  0  0  0  0  0  0  0
  132.4660  131.0180   62.2730 C   0  0  0  0  0  0  0  0  0  0  0  0
  132.6470  131.4030   59.7680 C   0  0  0  0  0  0  0  0  0  0  0  0
  132.0630  131.7920   58.5520 C   0  0  0  0  0  0  0  0  0  0  0  0
  132.9160  131.7350   57.2700 C   0  0  0  0  0  0  0  0  0  0  0  0
  134.0770  131.1300   57.5220 F   0  0  0  0  0  0  0  0  0  0  0  0
  132.3190  131.0620   56.2830 F   0  0  0  0  0  0  0  0  0  0  0  0
  133.1580  132.9690   56.8250 F   0  0  0  0  0  0  0  0  0  0  0  0
  130.7110  132.2190   58.5560 C   0  0  0  0  0  0  0  0  0  0  0  0
  130.0380  132.5790   57.3050 C   0  0  0  0  0  0  0  0  0  0  0  0
  129.5080  132.8590   56.3160 N   0  0  0  0  0  0  0  0  0  0  0  0
  129.1580  126.3210   57.1320 C   0  0  0  0  0  0  0  0  0  0  0  0
  127.8890  126.0760   56.6640 O   0  0  0  0  0  0  0  0  0  0  0  0
  126.9070  125.9230   57.6810 C   0  0  0  0  0  0  0  0  0  0  0  0
  130.0330  125.2540   57.3980 C   0  0  0  0  0  0  0  0  0  0  0  0
  129.6150  123.9580   57.2090 O   0  0  0  0  0  0  0  0  0  0  0  0
  129.0100  123.3700   58.3530 C   0  0  0  0  0  0  0  0  0  0  0  0
  133.0607  124.5185   59.9654 H   0  0  0  0  0  0  0  0  0  0  0  0
  134.0145  123.7395   58.6577 H   0  0  0  0  0  0  0  0  0  0  0  0
  133.7773  125.5201   58.6577 H   0  0  0  0  0  0  0  0  0  0  0  0
  132.7538  127.0292   58.4449 H   0  0  0  0  0  0  0  0  0  0  0  0
  131.2218  128.9184   57.9437 H   0  0  0  0  0  0  0  0  0  0  0  0
  129.1831  129.4652   56.2521 H   0  0  0  0  0  0  0  0  0  0  0  0
  127.7365  128.4029   56.5999 H   0  0  0  0  0  0  0  0  0  0  0  0
  128.5860  129.2490   59.0540 H   0  0  0  0  0  0  0  0  0  0  0  0
  126.2410  131.7375   59.4576 H   0  0  0  0  0  0  0  0  0  0  0  0
  127.4572  130.5949   60.2302 H   0  0  0  0  0  0  0  0  0  0  0  0
  131.8680  131.4556   63.0859 H   0  0  0  0  0  0  0  0  0  0  0  0
  132.4442  129.9210   62.3513 H   0  0  0  0  0  0  0  0  0  0  0  0
  133.5050  131.3706   62.3513 H   0  0  0  0  0  0  0  0  0  0  0  0
  133.6952  131.0709   59.7985 H   0  0  0  0  0  0  0  0  0  0  0  0
  127.3867  125.9977   58.6681 H   0  0  0  0  0  0  0  0  0  0  0  0
  126.1491  126.7139   57.5808 H   0  0  0  0  0  0  0  0  0  0  0  0
  126.4256  124.9390   57.5808 H   0  0  0  0  0  0  0  0  0  0  0  0
  129.4525  123.8001   59.2636 H   0  0  0  0  0  0  0  0  0  0  0  0
  127.9287  123.5715   58.3403 H   0  0  0  0  0  0  0  0  0  0  0  0
  129.1806  122.2834   58.3403 H   0  0  0  0  0  0  0  0  0  0  0  0
  1  2  1  0
  2  3  1  0
  3  4  2  0
  4  5  1  0
  5  6  2  0
  6  7  1  0
  7  8  1  0
  8  9  1  0
  9 10  2  0
  9 11  1  0
 11 12  1  0
 12 13  1  0
 13 14  2  0
 14 15  1  0
 15 16  1  0
 15 17  2  0
 17 18  1  0
 18 19  1  0
 19 20  1  0
 19 21  1  0
 19 22  1  0
 18 23  2  0
 23 24  1  0
 24 25  3  0
  6 26  1  0
 26 27  1  0
 27 28  1  0
 26 29  2  0
 29 30  1  0
 30 31  1  0
 29  3  1  0
 23 13  1  0
  1 32  1  0
  1 33  1  0
  1 34  1  0
  4 35  1  0
  5 36  1  0
  7 37  1  0
  7 38  1  0
  8 39  1  0
 11 40  1  0
 11 41  1  0
 16 42  1  0
 16 43  1  0
 16 44  1  0
 17 45  1  0
 28 46  1  0
 28 47  1  0
 28 48  1  0
 31 49  1  0
 31 50  1  0
 31 51  1  0
M  END
>  <Binding energies>  (1) 
[-5.81]

>  <Ligand effiencies>  (1) 
[-0.1815625]

>  <Interactions>  (1) 
["V-A:PRO:540:CA:4881, V-A:ARG:545:CZ:4924, V-A:TYR:531:CE2:4791, V-A:ILE:538:CB:4860, V-B:TYR:539:CE1:9847, V-A:PRO:540:CD:4885, V-A:ILE:538:CG2:4861, V-A:PRO:540:CB:4883, V-A:LEU:363:CA:3182, V-A:PRO:540:N:4882, V-A:ASP:366:CG:3210, V-A:LEU:363:CD1:3186, V-A:TYR:539:CE1:4873, V-B:TYR:539:CD1:9845, V-A:TYR:539:CD1:4871, H-B:TYR:531:OH:9767, H-A:TYR:539:OH:4876, V-A:ASP:366:CA:3207, V-A:ASP:366:CB:3209, V-B:TYR:539:CZ:9849, V-A:TYR:539:CZ:4875, V-A:GLU:543:CD:4906, V-A:TYR:531:CZ:4792, V-A:TYR:539:C:4865, H-B:TYR:539:OH:9850, H-A:TYR:539:N:4868, V-B:MET:535:CE:9807, V-A:MET:535:CE:4833, H-A:ALA:541:N:4889, V-A:ASN:362:CB:3173, V-A:LEU:363:CB:3184, V-A:LEU:363:CG:3185, V-A:LEU:363:C:3180, V-A:PRO:540:CG:4884"]

$$$$
2i_Grossjean_2025
     RDKit          3D

 32 33  0  0  0  0  0  0  0  0999 V2000
  132.5220  131.3450   62.6470 C   0  0  0  0  0  0  0  0  0  0  0  0
  131.8840  131.6560   61.3050 C   0  0  0  0  0  0  0  0  0  0  0  0
  132.5740  131.4750   60.1100 C   0  0  0  0  0  0  0  0  0  0  0  0
  131.9390  131.7750   58.8950 C   0  0  0  0  0  0  0  0  0  0  0  0
  132.7170  131.5700   57.5820 C   0  0  0  0  0  0  0  0  0  0  0  0
  132.0530  130.7320   56.7840 F   0  0  0  0  0  0  0  0  0  0  0  0
  132.8700  132.7360   56.9530 F   0  0  0  0  0  0  0  0  0  0  0  0
  133.9340  131.0570   57.7770 F   0  0  0  0  0  0  0  0  0  0  0  0
  130.6050  132.2560   58.9290 C   0  0  0  0  0  0  0  0  0  0  0  0
  129.8940  132.5840   57.6890 C   0  0  0  0  0  0  0  0  0  0  0  0
  129.3310  132.8420   56.7120 N   0  0  0  0  0  0  0  0  0  0  0  0
  129.9810  132.4120   60.1880 C   0  0  0  0  0  0  0  0  0  0  0  0
  128.3090  133.0170   60.3540 S   0  0  0  0  0  0  0  0  0  0  0  0
  127.2200  131.5920   60.6570 C   0  0  0  0  0  0  0  0  0  0  0  0
  127.0630  131.2900   62.1490 C   0  0  0  0  0  0  0  0  0  0  0  0
  127.9430  131.6560   62.9300 O   0  0  0  0  0  0  0  0  0  0  0  0
  125.9530  130.6040   62.4960 N   0  0  0  0  0  0  0  0  0  0  0  0
  125.5960  130.1980   63.7710 C   0  0  0  0  0  0  0  0  0  0  0  0
  126.3940  129.7430   64.8300 C   0  0  0  0  0  0  0  0  0  0  0  0
  125.5080  129.4870   65.8510 C   0  0  0  0  0  0  0  0  0  0  0  0
  124.2530  129.7790   65.4320 O   0  0  0  0  0  0  0  0  0  0  0  0
  124.3270  130.2340   64.1140 N   0  0  0  0  0  0  0  0  0  0  0  0
  130.6130  132.1140   61.3520 N   0  0  0  0  0  0  0  0  0  0  0  0
  131.8520  131.6716   63.4560 H   0  0  0  0  0  0  0  0  0  0  0  0
  132.6946  130.2617   62.7287 H   0  0  0  0  0  0  0  0  0  0  0  0
  133.4817  131.8764   62.7287 H   0  0  0  0  0  0  0  0  0  0  0  0
  133.6081  131.1001   60.1178 H   0  0  0  0  0  0  0  0  0  0  0  0
  126.2282  131.8080   60.2332 H   0  0  0  0  0  0  0  0  0  0  0  0
  127.6763  130.7116   60.1809 H   0  0  0  0  0  0  0  0  0  0  0  0
  125.3240  130.3240   61.7570 H   0  0  0  0  0  0  0  0  0  0  0  0
  127.4868  129.6182   64.8420 H   0  0  0  0  0  0  0  0  0  0  0  0
  125.7756  129.1063   66.8477 H   0  0  0  0  0  0  0  0  0  0  0  0
  1  2  1  0
  2  3  2  0
  3  4  1  0
  4  5  1  0
  5  6  1  0
  5  7  1  0
  5  8  1  0
  4  9  2  0
  9 10  1  0
 10 11  3  0
  9 12  1  0
 12 13  1  0
 13 14  1  0
 14 15  1  0
 15 16  2  0
 15 17  1  0
 17 18  1  0
 18 19  1  0
 19 20  2  0
 20 21  1  0
 21 22  1  0
 12 23  2  0
 23  2  1  0
 22 18  2  0
  1 24  1  0
  1 25  1  0
  1 26  1  0
  3 27  1  0
 14 28  1  0
 14 29  1  0
 17 30  1  0
 19 31  1  0
 20 32  1  0
M  END
>  <Binding energies>  (1) 
[-7.34]

>  <Ligand effiencies>  (1) 
[-0.30583333333333335]

>  <Interactions>  (1) 
["V-A:PRO:540:CA:4881, V-A:ARG:545:CZ:4924, V-A:TYR:531:CE2:4791, V-A:ILE:538:CB:4860, V-A:PRO:540:CD:4885, V-A:PRO:540:CB:4883, V-B:ARG:545:CZ:9898, V-A:LEU:363:CA:3182, V-A:PRO:540:N:4882, V-A:ASP:366:CG:3210, V-A:LEU:363:CD1:3186, V-A:TYR:539:CE1:4873, H-B:TYR:484:OH:9319, H-B:GLY:454:N:9021, H-B:ARG:545:NE:9896, V-A:ASP:366:CB:3209, V-B:HIS:456:CE1:9040, V-A:GLU:543:CD:4906, V-A:PRO:540:C:4879, V-A:TYR:531:CZ:4792, V-A:TYR:539:C:4865, H-A:TYR:539:N:4868, H-A:ALA:541:N:4889, V-A:ASN:362:CB:3173, V-A:ALA:541:C:4886, H-B:ASP:366:OD1:8185, V-B:ARG:545:CG:9894, V-B:ARG:545:CD:9895, V-A:LEU:363:CB:3184, V-A:PRO:540:CG:4884"]

$$$$
2j_Grossjean_2025
     RDKit          3D

 32 33  0  0  0  0  0  0  0  0999 V2000
  125.3250  123.8770   62.8220 C   0  0  0  0  0  0  0  0  0  0  0  0
  126.0040  123.5910   61.4950 C   0  0  0  0  0  0  0  0  0  0  0  0
  125.3600  123.8210   60.2820 C   0  0  0  0  0  0  0  0  0  0  0  0
  126.0310  123.5440   59.0810 C   0  0  0  0  0  0  0  0  0  0  0  0
  125.3040  123.8040   57.7480 C   0  0  0  0  0  0  0  0  0  0  0  0
  125.2030  122.6690   57.0550 F   0  0  0  0  0  0  0  0  0  0  0  0
  124.0800  124.2800   57.9800 F   0  0  0  0  0  0  0  0  0  0  0  0
  125.9400  124.6900   56.9780 F   0  0  0  0  0  0  0  0  0  0  0  0
  127.3520  123.0350   59.1470 C   0  0  0  0  0  0  0  0  0  0  0  0
  128.1010  122.7270   57.9240 C   0  0  0  0  0  0  0  0  0  0  0  0
  128.6910  122.4860   56.9580 N   0  0  0  0  0  0  0  0  0  0  0  0
  127.9300  122.8320   60.4230 C   0  0  0  0  0  0  0  0  0  0  0  0
  129.5880  122.1970   60.6250 S   0  0  0  0  0  0  0  0  0  0  0  0
  130.7630  123.4510   60.0110 C   0  0  0  0  0  0  0  0  0  0  0  0
  131.6870  124.0480   61.0820 C   0  0  0  0  0  0  0  0  0  0  0  0
  132.8440  124.3730   60.8050 O   0  0  0  0  0  0  0  0  0  0  0  0
  131.1320  124.1650   62.3090 N   0  0  0  0  0  0  0  0  0  0  0  0
  131.7400  124.6710   63.4510 C   0  0  0  0  0  0  0  0  0  0  0  0
  133.0180  124.6530   63.7590 N   0  0  0  0  0  0  0  0  0  0  0  0
  133.2450  125.2270   64.9250 C   0  0  0  0  0  0  0  0  0  0  0  0
  132.1300  125.7260   65.5910 C   0  0  0  0  0  0  0  0  0  0  0  0
  130.7140  125.4230   64.6290 S   0  0  0  0  0  0  0  0  0  0  0  0
  127.2640  123.1080   61.5730 N   0  0  0  0  0  0  0  0  0  0  0  0
  125.9966  123.5941   63.6460 H   0  0  0  0  0  0  0  0  0  0  0  0
  125.0918  124.9498   62.8909 H   0  0  0  0  0  0  0  0  0  0  0  0
  124.3945  123.2944   62.8909 H   0  0  0  0  0  0  0  0  0  0  0  0
  124.3337  124.2166   60.2653 H   0  0  0  0  0  0  0  0  0  0  0  0
  131.3917  122.9820   59.2398 H   0  0  0  0  0  0  0  0  0  0  0  0
  130.1546  124.2838   59.6284 H   0  0  0  0  0  0  0  0  0  0  0  0
  130.1770  123.8550   62.4200 H   0  0  0  0  0  0  0  0  0  0  0  0
  134.2579  125.3065   65.3465 H   0  0  0  0  0  0  0  0  0  0  0  0
  132.1424  126.2307   66.5683 H   0  0  0  0  0  0  0  0  0  0  0  0
  1  2  1  0
  2  3  2  0
  3  4  1  0
  4  5  1  0
  5  6  1  0
  5  7  1  0
  5  8  1  0
  4  9  2  0
  9 10  1  0
 10 11  3  0
  9 12  1  0
 12 13  1  0
 13 14  1  0
 14 15  1  0
 15 16  2  0
 15 17  1  0
 17 18  1  0
 18 19  2  0
 19 20  1  0
 20 21  2  0
 21 22  1  0
 12 23  2  0
 23  2  1  0
 22 18  1  0
  1 24  1  0
  1 25  1  0
  1 26  1  0
  3 27  1  0
 14 28  1  0
 14 29  1  0
 17 30  1  0
 20 31  1  0
 21 32  1  0
M  END
>  <Binding energies>  (1) 
[-6.15]

>  <Ligand effiencies>  (1) 
[-0.25625000000000003]

>  <Interactions>  (1) 
["V-A:ARG:545:CZ:4924, V-A:GLY:454:CA:4046, V-B:TYR:539:CE1:9847, V-B:ARG:545:CZ:9898, H-A:GLY:454:N:4047, H-A:TYR:484:OH:4345, V-B:TYR:531:CE2:9765, V-B:PRO:540:CA:9855, V-B:ASP:366:CG:8184, V-B:PRO:540:CB:9857, V-B:PRO:540:CD:9859, V-B:ILE:538:CB:9834, V-B:LEU:363:CD1:8160, V-B:TYR:539:CD1:9845, V-B:LEU:363:CA:8156, V-B:ASP:366:CB:8183, V-B:PRO:540:N:9856, V-B:TYR:539:C:9839, V-B:GLU:543:CD:9880, V-A:HIS:456:CE1:4066, H-B:GLU:543:OE1:9881, H-B:ALA:541:N:9863, V-B:TYR:531:CZ:9766, V-B:PRO:540:CG:9858, V-B:PRO:540:C:9853, H-B:TYR:539:N:9842, V-B:ASN:362:CB:8147, V-A:ARG:545:CD:4921"]

$$$$
2k_Grossjean_2025
     RDKit          3D

 50 50  0  0  0  0  0  0  0  0999 V2000
  128.9390  132.1970   57.2210 C   0  0  0  0  0  0  0  0  0  0  0  0
  128.9130  132.5830   58.5860 O   0  0  0  0  0  0  0  0  0  0  0  0
  130.0810  132.2060   59.3050 C   0  0  0  0  0  0  0  0  0  0  0  0
  129.8340  132.3580   60.8110 C   0  0  0  0  0  0  0  0  0  0  0  0
  130.9980  131.9500   61.5140 O   0  0  0  0  0  0  0  0  0  0  0  0
  131.1030  130.5440   61.7060 C   0  0  0  0  0  0  0  0  0  0  0  0
  129.6880  129.9550   61.7630 C   0  0  0  0  0  0  0  0  0  0  0  0
  129.7720  128.5850   61.4040 O   0  0  0  0  0  0  0  0  0  0  0  0
  129.3940  127.6700   62.4220 C   0  0  0  0  0  0  0  0  0  0  0  0
  128.3980  126.6530   61.8350 C   0  0  0  0  0  0  0  0  0  0  0  0
  128.8960  125.2750   61.8780 N   0  0  0  0  0  0  0  0  0  0  0  0
  130.0060  124.8240   61.2620 C   0  0  0  0  0  0  0  0  0  0  0  0
  130.7570  125.5460   60.6030 O   0  0  0  0  0  0  0  0  0  0  0  0
  130.2840  123.3210   61.4080 C   0  0  0  0  0  0  0  0  0  0  0  0
  129.2760  122.2310   60.3440 S   0  0  0  0  0  0  0  0  0  0  0  0
  127.5980  122.8450   60.2840 C   0  0  0  0  0  0  0  0  0  0  0  0
  127.0360  123.1400   61.4830 N   0  0  0  0  0  0  0  0  0  0  0  0
  125.7670  123.6060   61.5130 C   0  0  0  0  0  0  0  0  0  0  0  0
  125.2070  123.9010   62.8910 C   0  0  0  0  0  0  0  0  0  0  0  0
  125.0140  123.8070   60.3610 C   0  0  0  0  0  0  0  0  0  0  0  0
  125.5770  123.5170   59.1090 C   0  0  0  0  0  0  0  0  0  0  0  0
  124.7310  123.7510   57.8420 C   0  0  0  0  0  0  0  0  0  0  0  0
  123.5250  124.2530   58.1120 F   0  0  0  0  0  0  0  0  0  0  0  0
  125.3510  124.6100   57.0310 F   0  0  0  0  0  0  0  0  0  0  0  0
  124.5500  122.5990   57.1950 F   0  0  0  0  0  0  0  0  0  0  0  0
  126.9050  123.0200   59.0620 C   0  0  0  0  0  0  0  0  0  0  0  0
  127.5420  122.6970   57.7820 C   0  0  0  0  0  0  0  0  0  0  0  0
  128.0450  122.4420   56.7710 N   0  0  0  0  0  0  0  0  0  0  0  0
  129.0128  131.1017   57.1510 H   0  0  0  0  0  0  0  0  0  0  0  0
  128.0161  132.5346   56.7268 H   0  0  0  0  0  0  0  0  0  0  0  0
  129.8083  132.6554   56.7268 H   0  0  0  0  0  0  0  0  0  0  0  0
  130.3269  131.1579   59.0790 H   0  0  0  0  0  0  0  0  0  0  0  0
  130.9174  132.8550   59.0062 H   0  0  0  0  0  0  0  0  0  0  0  0
  129.6122  133.4099   61.0440 H   0  0  0  0  0  0  0  0  0  0  0  0
  128.9800  131.7336   61.1123 H   0  0  0  0  0  0  0  0  0  0  0  0
  131.6585  130.0954   60.8692 H   0  0  0  0  0  0  0  0  0  0  0  0
  131.6390  130.3299   62.6424 H   0  0  0  0  0  0  0  0  0  0  0  0
  129.2840  130.0505   62.7817 H   0  0  0  0  0  0  0  0  0  0  0  0
  129.0209  130.4921   61.0727 H   0  0  0  0  0  0  0  0  0  0  0  0
  130.2848  127.1421   62.7932 H   0  0  0  0  0  0  0  0  0  0  0  0
  128.9240  128.2132   63.2551 H   0  0  0  0  0  0  0  0  0  0  0  0
  127.4623  126.7059   62.4109 H   0  0  0  0  0  0  0  0  0  0  0  0
  128.2441  126.9150   60.7778 H   0  0  0  0  0  0  0  0  0  0  0  0
  128.3440  124.6200   62.4110 H   0  0  0  0  0  0  0  0  0  0  0  0
  131.3428  123.1466   61.1662 H   0  0  0  0  0  0  0  0  0  0  0  0
  130.0189  123.0629   62.4439 H   0  0  0  0  0  0  0  0  0  0  0  0
  125.9054  123.5331   63.6571 H   0  0  0  0  0  0  0  0  0  0  0  0
  125.0733  124.9866   63.0078 H   0  0  0  0  0  0  0  0  0  0  0  0
  124.2361  123.3973   63.0078 H   0  0  0  0  0  0  0  0  0  0  0  0
  123.9853  124.1903   60.4309 H   0  0  0  0  0  0  0  0  0  0  0  0
  1  2  1  0
  2  3  1  0
  3  4  1  0
  4  5  1  0
  5  6  1  0
  6  7  1  0
  7  8  1  0
  8  9  1  0
  9 10  1  0
 10 11  1  0
 11 12  1  0
 12 13  2  0
 12 14  1  0
 14 15  1  0
 15 16  1  0
 16 17  2  0
 17 18  1  0
 18 19  1  0
 18 20  2  0
 20 21  1  0
 21 22  1  0
 22 23  1  0
 22 24  1  0
 22 25  1  0
 21 26  2  0
 26 27  1  0
 27 28  3  0
 26 16  1  0
  1 29  1  0
  1 30  1  0
  1 31  1  0
  3 32  1  0
  3 33  1  0
  4 34  1  0
  4 35  1  0
  6 36  1  0
  6 37  1  0
  7 38  1  0
  7 39  1  0
  9 40  1  0
  9 41  1  0
 10 42  1  0
 10 43  1  0
 11 44  1  0
 14 45  1  0
 14 46  1  0
 19 47  1  0
 19 48  1  0
 19 49  1  0
 20 50  1  0
M  END
>  <Binding energies>  (1) 
[-5.54]

>  <Ligand effiencies>  (1) 
[-0.1910344827586207]

>  <Interactions>  (1) 
["V-A:PRO:540:CA:4881, V-B:ARG:545:CZ:9898, V-A:PRO:540:N:4882, V-A:TYR:539:CE1:4873, V-B:TYR:531:CE2:9765, V-B:PRO:540:CA:9855, V-B:ASP:366:CG:8184, V-B:PRO:540:CB:9857, V-B:PRO:540:CD:9859, V-B:LEU:363:CD1:8160, V-B:LEU:363:CA:8156, V-A:TYR:539:CD1:4871, V-B:ASP:366:CB:8183, V-B:PRO:540:N:9856, V-B:TYR:539:C:9839, V-B:GLU:543:CD:9880, H-B:GLU:543:OE1:9881, H-B:GLU:543:OE2:9882, V-A:TYR:539:CZ:4875, V-A:GLU:543:CD:4906, H-B:ALA:541:N:9863, V-B:TYR:531:CZ:9766, V-A:PRO:540:C:4879, V-B:PRO:540:CG:9858, V-A:TYR:539:C:4865, V-B:PRO:540:C:9853, H-B:TYR:539:N:9842, V-B:LEU:363:CB:8158, V-B:ASN:362:CB:8147, H-A:ALA:541:N:4889, V-B:LEU:363:C:8154"]

$$$$
3aa_Grossjean_2025
     RDKit          3D

 52 54  0  0  0  0  0  0  0  0999 V2000
  133.3170  131.7560   57.4560 C   0  0  0  0  0  0  0  0  0  0  0  0
  132.3490  132.3520   56.4290 C   0  0  0  0  0  0  0  0  0  0  0  0
  131.3730  133.1410   57.0990 O   0  0  0  0  0  0  0  0  0  0  0  0
  130.1490  132.6340   57.3960 C   0  0  0  0  0  0  0  0  0  0  0  0
  129.1290  133.3240   57.4790 O   0  0  0  0  0  0  0  0  0  0  0  0
  130.1620  131.1500   57.6300 C   0  0  0  0  0  0  0  0  0  0  0  0
  129.7910  130.2370   56.6320 C   0  0  0  0  0  0  0  0  0  0  0  0
  129.8180  128.8670   56.8810 C   0  0  0  0  0  0  0  0  0  0  0  0
  130.2230  128.3830   58.1260 C   0  0  0  0  0  0  0  0  0  0  0  0
  130.2180  126.9810   58.2720 N   0  0  0  0  0  0  0  0  0  0  0  0
  129.3230  126.0720   57.8260 C   0  0  0  0  0  0  0  0  0  0  0  0
  128.2930  126.3300   57.2030 O   0  0  0  0  0  0  0  0  0  0  0  0
  129.6460  124.6140   58.1530 C   0  0  0  0  0  0  0  0  0  0  0  0
  128.8560  124.0790   59.7020 S   0  0  0  0  0  0  0  0  0  0  0  0
  130.1510  123.4930   60.7720 C   0  0  0  0  0  0  0  0  0  0  0  0
  130.4490  122.1830   60.5970 N   0  0  0  0  0  0  0  0  0  0  0  0
  131.4200  121.6070   61.3520 C   0  0  0  0  0  0  0  0  0  0  0  0
  131.7010  120.1580   61.0890 C   0  0  0  0  0  0  0  0  0  0  0  0
  132.9940  119.7320   60.7450 C   0  0  0  0  0  0  0  0  0  0  0  0
  133.2640  118.3880   60.5000 C   0  0  0  0  0  0  0  0  0  0  0  0
  132.2410  117.4510   60.5960 C   0  0  0  0  0  0  0  0  0  0  0  0
  130.9520  117.8470   60.9380 C   0  0  0  0  0  0  0  0  0  0  0  0
  130.6860  119.1910   61.1850 C   0  0  0  0  0  0  0  0  0  0  0  0
  132.1240  122.3490   62.3060 C   0  0  0  0  0  0  0  0  0  0  0  0
  131.8200  123.7030   62.5170 C   0  0  0  0  0  0  0  0  0  0  0  0
  132.6100  124.4840   63.5850 C   0  0  0  0  0  0  0  0  0  0  0  0
  131.8350  125.2830   64.3220 F   0  0  0  0  0  0  0  0  0  0  0  0
  133.2160  123.6380   64.4190 F   0  0  0  0  0  0  0  0  0  0  0  0
  133.5330  125.2480   62.9990 F   0  0  0  0  0  0  0  0  0  0  0  0
  130.7960  124.2950   61.7390 C   0  0  0  0  0  0  0  0  0  0  0  0
  130.3980  125.6890   61.9560 C   0  0  0  0  0  0  0  0  0  0  0  0
  130.0820  126.7890   62.1280 N   0  0  0  0  0  0  0  0  0  0  0  0
  130.5830  129.2900   59.1330 C   0  0  0  0  0  0  0  0  0  0  0  0
  130.5530  130.6580   58.8830 C   0  0  0  0  0  0  0  0  0  0  0  0
  132.9567  131.9779   58.4713 H   0  0  0  0  0  0  0  0  0  0  0  0
  133.3738  130.6663   57.3170 H   0  0  0  0  0  0  0  0  0  0  0  0
  134.3156  132.1959   57.3170 H   0  0  0  0  0  0  0  0  0  0  0  0
  132.9075  132.9826   55.7216 H   0  0  0  0  0  0  0  0  0  0  0  0
  131.8500  131.5392   55.8809 H   0  0  0  0  0  0  0  0  0  0  0  0
  129.4762  130.6060   55.6447 H   0  0  0  0  0  0  0  0  0  0  0  0
  129.5183  128.1620   56.0916 H   0  0  0  0  0  0  0  0  0  0  0  0
  130.9770  126.6200   58.8330 H   0  0  0  0  0  0  0  0  0  0  0  0
  129.2870  123.9767   57.3314 H   0  0  0  0  0  0  0  0  0  0  0  0
  130.7354  124.5240   58.2756 H   0  0  0  0  0  0  0  0  0  0  0  0
  133.8054  120.4707   60.6679 H   0  0  0  0  0  0  0  0  0  0  0  0
  134.2820  118.0690   60.2317 H   0  0  0  0  0  0  0  0  0  0  0  0
  132.4524  116.3894   60.4002 H   0  0  0  0  0  0  0  0  0  0  0  0
  130.1466  117.1015   61.0129 H   0  0  0  0  0  0  0  0  0  0  0  0
  129.6667  119.5004   61.4592 H   0  0  0  0  0  0  0  0  0  0  0  0
  132.9201  121.8689   62.8940 H   0  0  0  0  0  0  0  0  0  0  0  0
  130.8896  128.9191   60.1222 H   0  0  0  0  0  0  0  0  0  0  0  0
  130.8395  131.3621   59.6780 H   0  0  0  0  0  0  0  0  0  0  0  0
  1  2  1  0
  2  3  1  0
  3  4  1  0
  4  5  2  0
  4  6  1  0
  6  7  2  0
  7  8  1  0
  8  9  2  0
  9 10  1  0
 10 11  1  0
 11 12  2  0
 11 13  1  0
 13 14  1  0
 14 15  1  0
 15 16  2  0
 16 17  1  0
 17 18  1  0
 18 19  2  0
 19 20  1  0
 20 21  2  0
 21 22  1  0
 22 23  2  0
 17 24  2  0
 24 25  1  0
 25 26  1  0
 26 27  1  0
 26 28  1  0
 26 29  1  0
 25 30  2  0
 30 31  1  0
 31 32  3  0
  9 33  1  0
 33 34  2  0
 34  6  1  0
 30 15  1  0
 23 18  1  0
  1 35  1  0
  1 36  1  0
  1 37  1  0
  2 38  1  0
  2 39  1  0
  7 40  1  0
  8 41  1  0
 10 42  1  0
 13 43  1  0
 13 44  1  0
 19 45  1  0
 20 46  1  0
 21 47  1  0
 22 48  1  0
 23 49  1  0
 24 50  1  0
 33 51  1  0
 34 52  1  0
M  END
>  <Binding energies>  (1) 
[-7.37]

>  <Ligand effiencies>  (1) 
[-0.21057142857142858]

>  <Interactions>  (1) 
["V-A:PRO:540:CA:4881, V-A:ARG:545:CZ:4924, V-A:TYR:531:CE2:4791, V-A:GLY:454:CA:4046, V-A:ILE:538:CB:4860, V-B:TYR:539:CE1:9847, V-A:ILE:369:CG2:3234, V-A:PRO:540:CD:4885, V-A:ILE:538:CG2:4861, V-A:PRO:540:CB:4883, V-A:LEU:363:CA:3182, V-A:PRO:540:N:4882, V-A:LEU:475:CD2:4256, V-A:LEU:363:CD1:3186, V-A:GLY:453:C:4039, V-B:TYR:539:CD1:9845, V-A:TYR:539:C:4865, H-A:ASP:366:OD2:3212, H-A:TYR:539:N:4868, V-A:MET:535:CE:4833, V-A:PRO:482:CB:4323, V-A:TYR:484:CZ:4344, V-A:PRO:482:CG:4324, V-A:LEU:373:CD1:3277, V-A:SER:385:CA:3404, V-A:SER:385:CB:3406, V-A:GLY:453:CA:4041"]

$$$$
3ab_Grossjean_2025
     RDKit          3D

 49 51  0  0  0  0  0  0  0  0999 V2000
  132.3630  132.4040   56.3040 C   0  0  0  0  0  0  0  0  0  0  0  0
  131.0350  132.9090   56.3040 O   0  0  0  0  0  0  0  0  0  0  0  0
  130.1360  132.5110   57.2400 C   0  0  0  0  0  0  0  0  0  0  0  0
  129.3580  133.2830   57.8080 O   0  0  0  0  0  0  0  0  0  0  0  0
  130.1800  131.0360   57.5150 C   0  0  0  0  0  0  0  0  0  0  0  0
  130.8460  130.5080   58.6320 C   0  0  0  0  0  0  0  0  0  0  0  0
  130.8700  129.1350   58.8630 C   0  0  0  0  0  0  0  0  0  0  0  0
  130.2240  128.2610   57.9740 C   0  0  0  0  0  0  0  0  0  0  0  0
  130.1790  126.8610   58.1110 N   0  0  0  0  0  0  0  0  0  0  0  0
  130.7310  125.8970   57.3450 C   0  0  0  0  0  0  0  0  0  0  0  0
  131.3970  126.0850   56.3280 O   0  0  0  0  0  0  0  0  0  0  0  0
  130.4810  124.4620   57.8150 C   0  0  0  0  0  0  0  0  0  0  0  0
  129.4270  124.4000   59.2960 S   0  0  0  0  0  0  0  0  0  0  0  0
  130.3940  123.6890   60.6110 C   0  0  0  0  0  0  0  0  0  0  0  0
  130.6810  122.3790   60.4240 N   0  0  0  0  0  0  0  0  0  0  0  0
  131.4180  121.7100   61.3480 C   0  0  0  0  0  0  0  0  0  0  0  0
  131.6940  120.2630   61.0660 C   0  0  0  0  0  0  0  0  0  0  0  0
  130.6730  119.3040   61.1640 C   0  0  0  0  0  0  0  0  0  0  0  0
  130.9230  117.9600   60.9020 C   0  0  0  0  0  0  0  0  0  0  0  0
  132.2030  117.5540   60.5380 C   0  0  0  0  0  0  0  0  0  0  0  0
  133.2330  118.4820   60.4370 C   0  0  0  0  0  0  0  0  0  0  0  0
  132.9790  119.8250   60.6990 C   0  0  0  0  0  0  0  0  0  0  0  0
  131.8690  122.3530   62.5060 C   0  0  0  0  0  0  0  0  0  0  0  0
  131.5690  123.7040   62.7320 C   0  0  0  0  0  0  0  0  0  0  0  0
  132.0800  124.3730   64.0220 C   0  0  0  0  0  0  0  0  0  0  0  0
  133.1820  123.7940   64.5030 F   0  0  0  0  0  0  0  0  0  0  0  0
  132.3700  125.6540   63.7920 F   0  0  0  0  0  0  0  0  0  0  0  0
  131.1440  124.3060   64.9700 F   0  0  0  0  0  0  0  0  0  0  0  0
  130.8020  124.3980   61.7630 C   0  0  0  0  0  0  0  0  0  0  0  0
  130.4120  125.7940   61.9760 C   0  0  0  0  0  0  0  0  0  0  0  0
  130.1050  126.8970   62.1470 N   0  0  0  0  0  0  0  0  0  0  0  0
  129.5560  128.7840   56.8660 C   0  0  0  0  0  0  0  0  0  0  0  0
  129.5350  130.1560   56.6370 C   0  0  0  0  0  0  0  0  0  0  0  0
  132.7057  132.2737   57.3411 H   0  0  0  0  0  0  0  0  0  0  0  0
  132.3865  131.4342   55.7855 H   0  0  0  0  0  0  0  0  0  0  0  0
  133.0250  133.1132   55.7855 H   0  0  0  0  0  0  0  0  0  0  0  0
  131.3547  131.1864   59.3328 H   0  0  0  0  0  0  0  0  0  0  0  0
  131.3955  128.7348   59.7426 H   0  0  0  0  0  0  0  0  0  0  0  0
  129.6150  126.5430   58.8870 H   0  0  0  0  0  0  0  0  0  0  0  0
  129.9877  123.9045   57.0051 H   0  0  0  0  0  0  0  0  0  0  0  0
  131.4530  124.0160   58.0725 H   0  0  0  0  0  0  0  0  0  0  0  0
  129.6596  119.6199   61.4524 H   0  0  0  0  0  0  0  0  0  0  0  0
  130.1116  117.2216   60.9824 H   0  0  0  0  0  0  0  0  0  0  0  0
  132.4011  116.4924   60.3289 H   0  0  0  0  0  0  0  0  0  0  0  0
  134.2441  118.1564   60.1513 H   0  0  0  0  0  0  0  0  0  0  0  0
  133.7969  120.5560   60.6177 H   0  0  0  0  0  0  0  0  0  0  0  0
  132.4632  121.7947   63.2444 H   0  0  0  0  0  0  0  0  0  0  0  0
  129.0422  128.1063   56.1684 H   0  0  0  0  0  0  0  0  0  0  0  0
  129.0067  130.5535   55.7579 H   0  0  0  0  0  0  0  0  0  0  0  0
  1  2  1  0
  2  3  1  0
  3  4  2  0
  3  5  1  0
  5  6  2  0
  6  7  1  0
  7  8  2  0
  8  9  1  0
  9 10  1  0
 10 11  2  0
 10 12  1  0
 12 13  1  0
 13 14  1  0
 14 15  2  0
 15 16  1  0
 16 17  1  0
 17 18  2  0
 18 19  1  0
 19 20  2  0
 20 21  1  0
 21 22  2  0
 16 23  2  0
 23 24  1  0
 24 25  1  0
 25 26  1  0
 25 27  1  0
 25 28  1  0
 24 29  2  0
 29 30  1  0
 30 31  3  0
  8 32  1  0
 32 33  2  0
 33  5  1  0
 29 14  1  0
 22 17  1  0
  1 34  1  0
  1 35  1  0
  1 36  1  0
  6 37  1  0
  7 38  1  0
  9 39  1  0
 12 40  1  0
 12 41  1  0
 18 42  1  0
 19 43  1  0
 20 44  1  0
 21 45  1  0
 22 46  1  0
 23 47  1  0
 32 48  1  0
 33 49  1  0
M  END
>  <Binding energies>  (1) 
[-7.66]

>  <Ligand effiencies>  (1) 
[-0.22529411764705884]

>  <Interactions>  (1) 
["V-A:ARG:545:CZ:4924, V-A:TYR:531:CE2:4791, V-A:GLY:454:CA:4046, V-A:ILE:538:CB:4860, V-B:TYR:539:CE1:9847, V-A:ILE:369:CG2:3234, V-A:PRO:540:CD:4885, V-A:ILE:538:CG2:4861, V-A:PRO:540:N:4882, V-A:ASP:366:CG:3210, V-A:LEU:475:CD2:4256, V-A:LEU:363:CD1:3186, V-A:GLY:453:C:4039, H-A:ARG:545:NH2:4926, V-B:TYR:539:CD1:9845, V-B:GLU:543:CD:9880, V-B:TYR:539:CZ:9849, H-A:TYR:531:OH:4793, V-A:TYR:539:C:4865, H-B:TYR:539:OH:9850, H-A:TYR:539:N:4868, V-A:MET:535:CE:4833, V-A:PRO:482:CB:4323, V-A:TYR:484:CZ:4344, V-A:PRO:482:CG:4324, V-A:LEU:373:CD1:3277, V-A:SER:385:CA:3404, V-A:SER:385:CB:3406"]

$$$$
3ac_Grossjean_2025
     RDKit          3D

 47 49  0  0  0  0  0  0  0  0999 V2000
  132.8750  131.5490   57.0820 C   0  0  0  0  0  0  0  0  0  0  0  0
  132.1310  132.1330   58.1470 O   0  0  0  0  0  0  0  0  0  0  0  0
  131.7610  131.3480   59.2220 C   0  0  0  0  0  0  0  0  0  0  0  0
  130.9240  130.2670   58.9440 C   0  0  0  0  0  0  0  0  0  0  0  0
  130.5020  129.4180   59.9620 C   0  0  0  0  0  0  0  0  0  0  0  0
  130.9050  129.6440   61.2800 C   0  0  0  0  0  0  0  0  0  0  0  0
  130.4440  128.7210   62.2370 N   0  0  0  0  0  0  0  0  0  0  0  0
  130.5830  127.3780   62.2600 C   0  0  0  0  0  0  0  0  0  0  0  0
  131.2030  126.7120   61.4290 O   0  0  0  0  0  0  0  0  0  0  0  0
  129.9050  126.6650   63.4300 C   0  0  0  0  0  0  0  0  0  0  0  0
  130.5660  124.9900   63.6920 S   0  0  0  0  0  0  0  0  0  0  0  0
  129.9050  123.9120   62.4360 C   0  0  0  0  0  0  0  0  0  0  0  0
  130.6630  122.8100   62.2260 N   0  0  0  0  0  0  0  0  0  0  0  0
  130.2820  121.8910   61.3010 C   0  0  0  0  0  0  0  0  0  0  0  0
  131.1810  120.7040   61.1260 C   0  0  0  0  0  0  0  0  0  0  0  0
  130.6650  119.3980   61.1800 C   0  0  0  0  0  0  0  0  0  0  0  0
  131.4940  118.2920   61.0130 C   0  0  0  0  0  0  0  0  0  0  0  0
  132.8540  118.4760   60.7890 C   0  0  0  0  0  0  0  0  0  0  0  0
  133.3910  119.7580   60.7360 C   0  0  0  0  0  0  0  0  0  0  0  0
  132.5590  120.8610   60.9040 C   0  0  0  0  0  0  0  0  0  0  0  0
  129.1200  122.0760   60.5450 C   0  0  0  0  0  0  0  0  0  0  0  0
  128.3290  123.2200   60.7260 C   0  0  0  0  0  0  0  0  0  0  0  0
  127.0600  123.3860   59.8670 C   0  0  0  0  0  0  0  0  0  0  0  0
  126.9750  124.5900   59.2960 F   0  0  0  0  0  0  0  0  0  0  0  0
  127.0430  122.4810   58.8880 F   0  0  0  0  0  0  0  0  0  0  0  0
  125.9750  123.2220   60.6250 F   0  0  0  0  0  0  0  0  0  0  0  0
  128.7340  124.1780   61.6880 C   0  0  0  0  0  0  0  0  0  0  0  0
  127.9830  125.4240   61.8590 C   0  0  0  0  0  0  0  0  0  0  0  0
  127.3890  126.4080   61.9920 N   0  0  0  0  0  0  0  0  0  0  0  0
  131.7530  130.7250   61.5670 C   0  0  0  0  0  0  0  0  0  0  0  0
  132.1740  131.5720   60.5450 C   0  0  0  0  0  0  0  0  0  0  0  0
  133.6765  130.9199   57.4965 H   0  0  0  0  0  0  0  0  0  0  0  0
  132.2070  130.9316   56.4635 H   0  0  0  0  0  0  0  0  0  0  0  0
  133.3161  132.3445   56.4635 H   0  0  0  0  0  0  0  0  0  0  0  0
  130.5948  130.0844   57.9104 H   0  0  0  0  0  0  0  0  0  0  0  0
  129.8481  128.5650   59.7279 H   0  0  0  0  0  0  0  0  0  0  0  0
  129.9900  129.1380   63.0350 H   0  0  0  0  0  0  0  0  0  0  0  0
  130.0639  127.2554   64.3444 H   0  0  0  0  0  0  0  0  0  0  0  0
  128.8347  126.5720   63.1938 H   0  0  0  0  0  0  0  0  0  0  0  0
  129.5898  119.2473   61.3569 H   0  0  0  0  0  0  0  0  0  0  0  0
  131.0746  117.2761   61.0581 H   0  0  0  0  0  0  0  0  0  0  0  0
  133.5089  117.6027   60.6529 H   0  0  0  0  0  0  0  0  0  0  0  0
  134.4679  119.8994   60.5622 H   0  0  0  0  0  0  0  0  0  0  0  0
  132.9880  121.8730   60.8622 H   0  0  0  0  0  0  0  0  0  0  0  0
  128.8244  121.3192   59.8034 H   0  0  0  0  0  0  0  0  0  0  0  0
  132.0854  130.9033   62.6003 H   0  0  0  0  0  0  0  0  0  0  0  0
  132.8339  132.4214   60.7756 H   0  0  0  0  0  0  0  0  0  0  0  0
  1  2  1  0
  2  3  1  0
  3  4  2  0
  4  5  1  0
  5  6  2  0
  6  7  1  0
  7  8  1  0
  8  9  2  0
  8 10  1  0
 10 11  1  0
 11 12  1  0
 12 13  2  0
 13 14  1  0
 14 15  1  0
 15 16  2  0
 16 17  1  0
 17 18  2  0
 18 19  1  0
 19 20  2  0
 14 21  2  0
 21 22  1  0
 22 23  1  0
 23 24  1  0
 23 25  1  0
 23 26  1  0
 22 27  2  0
 27 28  1  0
 28 29  3  0
  6 30  1  0
 30 31  2  0
 31  3  1  0
 27 12  1  0
 20 15  1  0
  1 32  1  0
  1 33  1  0
  1 34  1  0
  4 35  1  0
  5 36  1  0
  7 37  1  0
 10 38  1  0
 10 39  1  0
 16 40  1  0
 17 41  1  0
 18 42  1  0
 19 43  1  0
 20 44  1  0
 21 45  1  0
 30 46  1  0
 31 47  1  0
M  END
>  <Binding energies>  (1) 
[-6.87]

>  <Ligand effiencies>  (1) 
[-0.2146875]

>  <Interactions>  (1) 
["V-A:PRO:540:CA:4881, H-B:ARG:545:NH2:9900, V-A:TYR:531:CE2:4791, V-B:ALA:541:CB:9864, V-B:TYR:539:CE1:9847, V-A:ILE:369:CG2:3234, V-A:PRO:540:CB:4883, V-A:LEU:475:CD2:4256, V-A:LEU:363:CD1:3186, V-B:PRO:540:CA:9855, V-B:PRO:540:CB:9857, H-A:ARG:545:NH2:4926, V-B:PRO:540:CD:9859, V-B:TYR:539:CD1:9845, V-B:PRO:540:N:9856, V-B:TYR:539:C:9839, V-B:GLU:543:CD:9880, H-A:GLU:543:OE2:4908, H-A:GLU:543:OE1:4907, V-A:GLU:543:CD:4906, V-A:TYR:531:CZ:4792, V-B:PRO:540:C:9853, V-A:PRO:482:CB:4323, V-A:PRO:482:CG:4324, V-A:LEU:373:CD1:3277, V-A:SER:385:CA:3404, V-A:SER:385:CB:3406"]

$$$$
3ad_Grossjean_2025
     RDKit          3D

 43 45  0  0  0  0  0  0  0  0999 V2000
  130.5510  125.6840   62.5930 N   0  0  0  0  0  0  0  0  0  0  0  0
  130.7190  124.5860   62.2670 C   0  0  0  0  0  0  0  0  0  0  0  0
  130.9290  123.1950   61.8530 C   0  0  0  0  0  0  0  0  0  0  0  0
  129.8360  122.3850   61.4580 C   0  0  0  0  0  0  0  0  0  0  0  0
  128.3900  122.9110   61.3940 C   0  0  0  0  0  0  0  0  0  0  0  0
  127.6400  122.2580   60.5050 F   0  0  0  0  0  0  0  0  0  0  0  0
  127.8050  122.7810   62.5870 F   0  0  0  0  0  0  0  0  0  0  0  0
  128.3860  124.2000   61.0490 F   0  0  0  0  0  0  0  0  0  0  0  0
  130.0850  121.0470   61.1160 C   0  0  0  0  0  0  0  0  0  0  0  0
  131.3840  120.5320   61.1700 C   0  0  0  0  0  0  0  0  0  0  0  0
  131.7030  119.1060   60.8300 C   0  0  0  0  0  0  0  0  0  0  0  0
  130.6770  118.1650   60.6510 C   0  0  0  0  0  0  0  0  0  0  0  0
  130.9650  116.8410   60.3340 C   0  0  0  0  0  0  0  0  0  0  0  0
  132.2900  116.4380   60.1920 C   0  0  0  0  0  0  0  0  0  0  0  0
  133.3240  117.3520   60.3620 C   0  0  0  0  0  0  0  0  0  0  0  0
  133.0310  118.6760   60.6770 C   0  0  0  0  0  0  0  0  0  0  0  0
  132.4260  121.3110   61.5550 N   0  0  0  0  0  0  0  0  0  0  0  0
  132.2150  122.6110   61.8700 C   0  0  0  0  0  0  0  0  0  0  0  0
  133.6940  123.4810   62.3380 S   0  0  0  0  0  0  0  0  0  0  0  0
  134.3650  124.2530   60.8360 C   0  0  0  0  0  0  0  0  0  0  0  0
  133.4340  124.0810   59.6330 C   0  0  0  0  0  0  0  0  0  0  0  0
  133.6190  123.1370   58.8640 O   0  0  0  0  0  0  0  0  0  0  0  0
  132.4610  125.0100   59.5150 N   0  0  0  0  0  0  0  0  0  0  0  0
  131.4470  125.1340   58.5480 C   0  0  0  0  0  0  0  0  0  0  0  0
  130.3580  124.2700   58.6980 C   0  0  0  0  0  0  0  0  0  0  0  0
  129.3000  124.3070   57.7930 C   0  0  0  0  0  0  0  0  0  0  0  0
  129.3320  125.2060   56.7320 C   0  0  0  0  0  0  0  0  0  0  0  0
  130.4130  126.0670   56.5650 C   0  0  0  0  0  0  0  0  0  0  0  0
  131.4740  126.0330   57.4680 C   0  0  0  0  0  0  0  0  0  0  0  0
  129.2529  120.3990   60.8034 H   0  0  0  0  0  0  0  0  0  0  0  0
  129.6288  118.4791   60.7631 H   0  0  0  0  0  0  0  0  0  0  0  0
  130.1493  116.1160   60.1962 H   0  0  0  0  0  0  0  0  0  0  0  0
  132.5201  115.3913   59.9441 H   0  0  0  0  0  0  0  0  0  0  0  0
  134.3696  117.0301   60.2480 H   0  0  0  0  0  0  0  0  0  0  0  0
  133.8521  119.3962   60.8080 H   0  0  0  0  0  0  0  0  0  0  0  0
  134.5074  125.3276   61.0232 H   0  0  0  0  0  0  0  0  0  0  0  0
  135.3186  123.7585   60.5989 H   0  0  0  0  0  0  0  0  0  0  0  0
  132.4740  125.7540   60.1960 H   0  0  0  0  0  0  0  0  0  0  0  0
  130.3367  123.5571   59.5354 H   0  0  0  0  0  0  0  0  0  0  0  0
  128.4431  123.6285   57.9167 H   0  0  0  0  0  0  0  0  0  0  0  0
  128.4954  125.2368   56.0184 H   0  0  0  0  0  0  0  0  0  0  0  0
  130.4298  126.7731   55.7217 H   0  0  0  0  0  0  0  0  0  0  0  0
  132.3316  126.7090   57.3356 H   0  0  0  0  0  0  0  0  0  0  0  0
  1  2  3  0
  2  3  1  0
  3  4  2  0
  4  5  1  0
  5  6  1  0
  5  7  1  0
  5  8  1  0
  4  9  1  0
  9 10  2  0
 10 11  1  0
 11 12  2  0
 12 13  1  0
 13 14  2  0
 14 15  1  0
 15 16  2  0
 10 17  1  0
 17 18  2  0
 18 19  1  0
 19 20  1  0
 20 21  1  0
 21 22  2  0
 21 23  1  0
 23 24  1  0
 24 25  2  0
 25 26  1  0
 26 27  2  0
 27 28  1  0
 28 29  2  0
 18  3  1  0
 29 24  1  0
 16 11  1  0
  9 30  1  0
 12 31  1  0
 13 32  1  0
 14 33  1  0
 15 34  1  0
 16 35  1  0
 20 36  1  0
 20 37  1  0
 23 38  1  0
 25 39  1  0
 26 40  1  0
 27 41  1  0
 28 42  1  0
 29 43  1  0
M  END
>  <Binding energies>  (1) 
[-7.47]

>  <Ligand effiencies>  (1) 
[-0.249]

>  <Interactions>  (1) 
["V-B:ALA:541:CB:9864, V-B:TYR:539:CE1:9847, V-A:ILE:369:CG2:3234, V-A:ILE:369:CD1:3236, H-A:GLY:454:N:4047, V-A:ASP:366:CG:3210, V-A:LEU:475:CD2:4256, V-B:PRO:540:CA:9855, V-B:PRO:540:CB:9857, V-B:TYR:539:CD1:9845, V-B:PRO:540:N:9856, V-B:TYR:539:CG:9844, V-B:TYR:539:C:9839, V-B:GLU:543:CD:9880, V-A:ASP:366:CB:3209, V-B:TYR:539:CZ:9849, H-B:TYR:539:OH:9850, H-A:ASP:366:OD2:3212, H-A:ASP:366:OD1:3211, V-B:MET:535:CE:9807, V-B:PRO:540:C:9853, V-A:PRO:482:CB:4323, V-A:PRO:482:CG:4324, V-B:TYR:539:CB:9843, V-B:ALA:541:CA:9862, V-A:LEU:373:CD1:3277, V-A:SER:385:CA:3404, V-A:SER:385:CB:3406, V-B:ALA:541:C:9860, V-B:VAL:344:CG1:7972, V-A:VAL:384:C:3394"]

$$$$
3af_Grossjean_2025
     RDKit          3D

 42 44  0  0  0  0  0  0  0  0999 V2000
  133.3840  123.9540   61.4110 N   0  0  0  0  0  0  0  0  0  0  0  0
  132.3440  123.8350   60.9180 C   0  0  0  0  0  0  0  0  0  0  0  0
  131.0270  123.6820   60.2930 C   0  0  0  0  0  0  0  0  0  0  0  0
  130.2830  122.4890   60.4590 C   0  0  0  0  0  0  0  0  0  0  0  0
  130.7750  121.3150   61.3290 C   0  0  0  0  0  0  0  0  0  0  0  0
  131.0290  121.6750   62.5890 F   0  0  0  0  0  0  0  0  0  0  0  0
  129.8500  120.3550   61.3630 F   0  0  0  0  0  0  0  0  0  0  0  0
  131.9030  120.8120   60.8240 F   0  0  0  0  0  0  0  0  0  0  0  0
  129.0520  122.3680   59.7970 C   0  0  0  0  0  0  0  0  0  0  0  0
  128.5780  123.4080   58.9910 C   0  0  0  0  0  0  0  0  0  0  0  0
  127.2790  123.3250   58.2460 C   0  0  0  0  0  0  0  0  0  0  0  0
  126.0960  123.8300   58.8090 C   0  0  0  0  0  0  0  0  0  0  0  0
  124.8870  123.7570   58.1210 C   0  0  0  0  0  0  0  0  0  0  0  0
  124.8460  123.1780   56.8580 C   0  0  0  0  0  0  0  0  0  0  0  0
  126.0050  122.6740   56.2760 C   0  0  0  0  0  0  0  0  0  0  0  0
  127.2110  122.7490   56.9670 C   0  0  0  0  0  0  0  0  0  0  0  0
  129.2960  124.5490   58.8320 N   0  0  0  0  0  0  0  0  0  0  0  0
  130.4770  124.6980   59.4790 C   0  0  0  0  0  0  0  0  0  0  0  0
  131.2640  126.2640   59.1600 S   0  0  0  0  0  0  0  0  0  0  0  0
  130.0520  127.5800   59.4870 C   0  0  0  0  0  0  0  0  0  0  0  0
  130.1170  128.6870   58.4360 C   0  0  0  0  0  0  0  0  0  0  0  0
  129.3530  128.6440   57.4720 O   0  0  0  0  0  0  0  0  0  0  0  0
  131.0420  129.6450   58.6610 N   0  0  0  0  0  0  0  0  0  0  0  0
  131.3620  130.7830   57.8950 C   0  0  0  0  0  0  0  0  0  0  0  0
  132.6160  131.0620   57.3220 C   0  0  0  0  0  0  0  0  0  0  0  0
  132.7940  132.2350   56.5850 C   0  0  0  0  0  0  0  0  0  0  0  0
  131.7110  133.1030   56.4390 C   0  0  0  0  0  0  0  0  0  0  0  0
  130.4930  132.8570   56.9810 N   0  0  0  0  0  0  0  0  0  0  0  0
  130.3360  131.7130   57.6940 C   0  0  0  0  0  0  0  0  0  0  0  0
  128.4565  121.4504   59.9125 H   0  0  0  0  0  0  0  0  0  0  0  0
  126.1243  124.2899   59.8078 H   0  0  0  0  0  0  0  0  0  0  0  0
  123.9682  124.1560   58.5755 H   0  0  0  0  0  0  0  0  0  0  0  0
  123.8912  123.1179   56.3151 H   0  0  0  0  0  0  0  0  0  0  0  0
  125.9684  122.2188   55.2753 H   0  0  0  0  0  0  0  0  0  0  0  0
  128.1257  122.3506   56.5037 H   0  0  0  0  0  0  0  0  0  0  0  0
  129.0424  127.1432   59.4818 H   0  0  0  0  0  0  0  0  0  0  0  0
  130.2863  128.0243   60.4656 H   0  0  0  0  0  0  0  0  0  0  0  0
  131.5890  129.5450   59.5030 H   0  0  0  0  0  0  0  0  0  0  0  0
  133.4524  130.3598   57.4537 H   0  0  0  0  0  0  0  0  0  0  0  0
  133.7673  132.4697   56.1293 H   0  0  0  0  0  0  0  0  0  0  0  0
  131.8518  134.0269   55.8589 H   0  0  0  0  0  0  0  0  0  0  0  0
  129.3507  131.5060   58.1371 H   0  0  0  0  0  0  0  0  0  0  0  0
  1  2  3  0
  2  3  1  0
  3  4  2  0
  4  5  1  0
  5  6  1  0
  5  7  1  0
  5  8  1  0
  4  9  1  0
  9 10  2  0
 10 11  1  0
 11 12  2  0
 12 13  1  0
 13 14  2  0
 14 15  1  0
 15 16  2  0
 10 17  1  0
 17 18  2  0
 18 19  1  0
 19 20  1  0
 20 21  1  0
 21 22  2  0
 21 23  1  0
 23 24  1  0
 24 25  2  0
 25 26  1  0
 26 27  2  0
 27 28  1  0
 28 29  2  0
 18  3  1  0
 29 24  1  0
 16 11  1  0
  9 30  1  0
 12 31  1  0
 13 32  1  0
 14 33  1  0
 15 34  1  0
 16 35  1  0
 20 36  1  0
 20 37  1  0
 23 38  1  0
 25 39  1  0
 26 40  1  0
 27 41  1  0
 29 42  1  0
M  END
>  <Binding energies>  (1) 
[-7.8]

>  <Ligand effiencies>  (1) 
[-0.26]

>  <Interactions>  (1) 
["V-A:TYR:531:CE2:4791, V-A:ILE:538:CB:4860, V-B:ALA:541:CB:9864, V-B:TYR:539:CE1:9847, V-A:PRO:540:CD:4885, V-A:ILE:538:CG2:4861, V-A:PRO:540:CB:4883, V-A:PRO:540:N:4882, V-A:ASP:366:CG:3210, V-A:LEU:475:CD2:4256, V-A:LEU:363:CD1:3186, V-B:TYR:531:CE2:9765, V-B:ILE:538:CA:9832, V-B:PRO:540:CA:9855, V-B:ILE:538:CG2:9835, V-B:PRO:540:CB:9857, V-B:PRO:540:CD:9859, V-B:ILE:538:CB:9834, V-B:LEU:363:CD1:8160, V-B:TYR:539:CD1:9845, V-B:PRO:540:N:9856, V-B:TYR:539:C:9839, V-A:TYR:531:CZ:4792, H-A:ASP:366:OD2:3212, H-A:TYR:539:N:4868, V-A:ILE:538:CA:4858, V-A:ILE:538:C:4856"]

$$$$
3ag_Grossjean_2025
     RDKit          3D

 46 48  0  0  0  0  0  0  0  0999 V2000
  127.6190  126.2330   62.0610 N   0  0  0  0  0  0  0  0  0  0  0  0
  128.2210  125.2660   61.8530 C   0  0  0  0  0  0  0  0  0  0  0  0
  128.9820  124.0420   61.5870 C   0  0  0  0  0  0  0  0  0  0  0  0
  128.6350  123.1940   60.5070 C   0  0  0  0  0  0  0  0  0  0  0  0
  127.4960  123.5250   59.5220 C   0  0  0  0  0  0  0  0  0  0  0  0
  126.2990  123.5670   60.1110 F   0  0  0  0  0  0  0  0  0  0  0  0
  127.7110  124.7170   58.9640 F   0  0  0  0  0  0  0  0  0  0  0  0
  127.4360  122.6020   58.5620 F   0  0  0  0  0  0  0  0  0  0  0  0
  129.3590  122.0070   60.3260 C   0  0  0  0  0  0  0  0  0  0  0  0
  130.3930  121.6680   61.2060 C   0  0  0  0  0  0  0  0  0  0  0  0
  131.1970  120.4120   61.0620 C   0  0  0  0  0  0  0  0  0  0  0  0
  132.5720  120.4690   60.7860 C   0  0  0  0  0  0  0  0  0  0  0  0
  133.3260  119.3060   60.6510 C   0  0  0  0  0  0  0  0  0  0  0  0
  132.7110  118.0650   60.7900 C   0  0  0  0  0  0  0  0  0  0  0  0
  131.3490  117.9810   61.0610 C   0  0  0  0  0  0  0  0  0  0  0  0
  130.5990  119.1460   61.1940 C   0  0  0  0  0  0  0  0  0  0  0  0
  130.7310  122.4890   62.2340 N   0  0  0  0  0  0  0  0  0  0  0  0
  130.0580  123.6510   62.4150 C   0  0  0  0  0  0  0  0  0  0  0  0
  130.6370  124.5990   63.8050 S   0  0  0  0  0  0  0  0  0  0  0  0
  132.3490  124.0840   64.1350 C   0  0  0  0  0  0  0  0  0  0  0  0
  133.2960  124.4620   62.9950 C   0  0  0  0  0  0  0  0  0  0  0  0
  134.2780  125.1710   63.2210 O   0  0  0  0  0  0  0  0  0  0  0  0
  132.9920  123.9740   61.7800 N   0  0  0  0  0  0  0  0  0  0  0  0
  133.7760  124.1800   60.5620 C   0  0  0  0  0  0  0  0  0  0  0  0
  132.9490  124.6140   59.3560 C   0  0  0  0  0  0  0  0  0  0  0  0
  131.5610  124.7190   59.4680 C   0  0  0  0  0  0  0  0  0  0  0  0
  130.8050  125.1440   58.3780 C   0  0  0  0  0  0  0  0  0  0  0  0
  131.4430  125.4710   57.1820 C   0  0  0  0  0  0  0  0  0  0  0  0
  132.8290  125.3830   57.0690 C   0  0  0  0  0  0  0  0  0  0  0  0
  133.5840  124.9590   58.1590 C   0  0  0  0  0  0  0  0  0  0  0  0
  129.1129  121.3386   59.4877 H   0  0  0  0  0  0  0  0  0  0  0  0
  133.0617  121.4477   60.6746 H   0  0  0  0  0  0  0  0  0  0  0  0
  134.4029  119.3678   60.4355 H   0  0  0  0  0  0  0  0  0  0  0  0
  133.3054  117.1454   60.6850 H   0  0  0  0  0  0  0  0  0  0  0  0
  130.8670  116.9982   61.1697 H   0  0  0  0  0  0  0  0  0  0  0  0
  129.5219  119.0754   61.4056 H   0  0  0  0  0  0  0  0  0  0  0  0
  132.6939  124.5719   65.0586 H   0  0  0  0  0  0  0  0  0  0  0  0
  132.3591  122.9884   64.2332 H   0  0  0  0  0  0  0  0  0  0  0  0
  132.1720  123.3920   61.6860 H   0  0  0  0  0  0  0  0  0  0  0  0
  134.5285  124.9568   60.7626 H   0  0  0  0  0  0  0  0  0  0  0  0
  134.2258  123.2094   60.3059 H   0  0  0  0  0  0  0  0  0  0  0  0
  131.0649  124.4662   60.4166 H   0  0  0  0  0  0  0  0  0  0  0  0
  129.7108  125.2212   58.4602 H   0  0  0  0  0  0  0  0  0  0  0  0
  130.8462  125.8017   56.3192 H   0  0  0  0  0  0  0  0  0  0  0  0
  133.3242  125.6473   56.1230 H   0  0  0  0  0  0  0  0  0  0  0  0
  134.6792  124.8954   58.0787 H   0  0  0  0  0  0  0  0  0  0  0  0
  1  2  3  0
  2  3  1  0
  3  4  2  0
  4  5  1  0
  5  6  1  0
  5  7  1  0
  5  8  1  0
  4  9  1  0
  9 10  2  0
 10 11  1  0
 11 12  2  0
 12 13  1  0
 13 14  2  0
 14 15  1  0
 15 16  2  0
 10 17  1  0
 17 18  2  0
 18 19  1  0
 19 20  1  0
 20 21  1  0
 21 22  2  0
 21 23  1  0
 23 24  1  0
 24 25  1  0
 25 26  2  0
 26 27  1  0
 27 28  2  0
 28 29  1  0
 29 30  2  0
 18  3  1  0
 30 25  1  0
 16 11  1  0
  9 31  1  0
 12 32  1  0
 13 33  1  0
 14 34  1  0
 15 35  1  0
 16 36  1  0
 20 37  1  0
 20 38  1  0
 23 39  1  0
 24 40  1  0
 24 41  1  0
 26 42  1  0
 27 43  1  0
 28 44  1  0
 29 45  1  0
 30 46  1  0
M  END
>  <Binding energies>  (1) 
[-7.09]

>  <Ligand effiencies>  (1) 
[-0.22870967741935483]

>  <Interactions>  (1) 
["H-B:ARG:545:NH2:9900, H-A:ARG:545:NE:4922, V-A:GLY:454:CA:4046, V-B:ALA:541:CB:9864, V-B:TYR:539:CE1:9847, V-A:ILE:369:CG2:3234, V-A:ILE:369:CD1:3236, H-A:GLY:454:N:4047, V-A:ASP:366:CG:3210, V-A:LEU:475:CD2:4256, V-B:PRO:540:CA:9855, V-B:PRO:540:CB:9857, H-A:ARG:545:NH2:4926, V-B:TYR:539:CD1:9845, V-B:PRO:540:N:9856, V-B:TYR:539:C:9839, V-B:GLU:543:CD:9880, V-A:ASP:366:CA:3207, V-A:ASP:366:CB:3209, V-B:TYR:539:CZ:9849, V-A:ASP:366:C:3205, H-A:ARG:545:NH1:4925, V-A:PRO:482:CB:4323, V-A:PRO:482:CG:4324, V-A:LEU:373:CD1:3277, V-A:SER:385:CA:3404, V-A:SER:385:CB:3406"]

$$$$
3ai_Grossjean_2025
     RDKit          3D

 39 41  0  0  0  0  0  0  0  0999 V2000
  133.5560  123.3870   61.1180 N   0  0  0  0  0  0  0  0  0  0  0  0
  132.4790  123.3560   60.6970 C   0  0  0  0  0  0  0  0  0  0  0  0
  131.1140  123.3160   60.1650 C   0  0  0  0  0  0  0  0  0  0  0  0
  130.2130  122.2960   60.5590 C   0  0  0  0  0  0  0  0  0  0  0  0
  130.5840  121.2100   61.5870 C   0  0  0  0  0  0  0  0  0  0  0  0
  130.6850  121.6850   62.8300 F   0  0  0  0  0  0  0  0  0  0  0  0
  129.6530  120.2540   61.5960 F   0  0  0  0  0  0  0  0  0  0  0  0
  131.7600  120.6650   61.2730 F   0  0  0  0  0  0  0  0  0  0  0  0
  128.9330  122.2730   59.9850 C   0  0  0  0  0  0  0  0  0  0  0  0
  128.5630  123.2390   59.0430 C   0  0  0  0  0  0  0  0  0  0  0  0
  127.2140  123.2560   58.3900 C   0  0  0  0  0  0  0  0  0  0  0  0
  127.0380  122.7420   57.0950 C   0  0  0  0  0  0  0  0  0  0  0  0
  125.7870  122.7500   56.4840 C   0  0  0  0  0  0  0  0  0  0  0  0
  124.6910  123.2740   57.1630 C   0  0  0  0  0  0  0  0  0  0  0  0
  124.8380  123.7870   58.4470 C   0  0  0  0  0  0  0  0  0  0  0  0
  126.0900  123.7770   59.0550 C   0  0  0  0  0  0  0  0  0  0  0  0
  129.4320  124.2090   58.6620 N   0  0  0  0  0  0  0  0  0  0  0  0
  130.6650  124.2660   59.2200 C   0  0  0  0  0  0  0  0  0  0  0  0
  131.6560  125.6170   58.6160 S   0  0  0  0  0  0  0  0  0  0  0  0
  131.3740  127.0510   59.7100 C   0  0  0  0  0  0  0  0  0  0  0  0
  131.2680  126.7160   61.2050 C   0  0  0  0  0  0  0  0  0  0  0  0
  130.2840  127.0630   61.8610 O   0  0  0  0  0  0  0  0  0  0  0  0
  132.3220  126.0320   61.7050 N   0  0  0  0  0  0  0  0  0  0  0  0
  132.4960  125.5920   63.0110 C   0  0  0  0  0  0  0  0  0  0  0  0
  131.4450  125.4620   63.9180 C   0  0  0  0  0  0  0  0  0  0  0  0
  132.0270  125.0100   65.0790 C   0  0  0  0  0  0  0  0  0  0  0  0
  133.3600  124.8740   64.8830 O   0  0  0  0  0  0  0  0  0  0  0  0
  133.6450  125.2450   63.5670 N   0  0  0  0  0  0  0  0  0  0  0  0
  128.2164  121.4912   60.2772 H   0  0  0  0  0  0  0  0  0  0  0  0
  127.9018  122.3267   56.5551 H   0  0  0  0  0  0  0  0  0  0  0  0
  125.6654  122.3439   55.4690 H   0  0  0  0  0  0  0  0  0  0  0  0
  123.7023  123.2824   56.6809 H   0  0  0  0  0  0  0  0  0  0  0  0
  123.9684  124.1990   58.9800 H   0  0  0  0  0  0  0  0  0  0  0  0
  126.2018  124.1829   60.0712 H   0  0  0  0  0  0  0  0  0  0  0  0
  132.2109  127.7522   59.5760 H   0  0  0  0  0  0  0  0  0  0  0  0
  130.4003  127.4723   59.4196 H   0  0  0  0  0  0  0  0  0  0  0  0
  133.0720  125.8050   61.0680 H   0  0  0  0  0  0  0  0  0  0  0  0
  130.3802  125.6750   63.7427 H   0  0  0  0  0  0  0  0  0  0  0  0
  131.4948  124.7935   66.0170 H   0  0  0  0  0  0  0  0  0  0  0  0
  1  2  3  0
  2  3  1  0
  3  4  2  0
  4  5  1  0
  5  6  1  0
  5  7  1  0
  5  8  1  0
  4  9  1  0
  9 10  2  0
 10 11  1  0
 11 12  2  0
 12 13  1  0
 13 14  2  0
 14 15  1  0
 15 16  2  0
 10 17  1  0
 17 18  2  0
 18 19  1  0
 19 20  1  0
 20 21  1  0
 21 22  2  0
 21 23  1  0
 23 24  1  0
 24 25  1  0
 25 26  2  0
 26 27  1  0
 27 28  1  0
 18  3  1  0
 28 24  2  0
 16 11  1  0
  9 29  1  0
 12 30  1  0
 13 31  1  0
 14 32  1  0
 15 33  1  0
 16 34  1  0
 20 35  1  0
 20 36  1  0
 23 37  1  0
 25 38  1  0
 26 39  1  0
M  END
>  <Binding energies>  (1) 
[-7.42]

>  <Ligand effiencies>  (1) 
[-0.2558620689655172]

>  <Interactions>  (1) 
["V-A:ARG:545:CZ:4924, H-A:ARG:545:NE:4922, V-B:ALA:541:CB:9864, V-B:TYR:539:CE1:9847, H-A:GLY:454:N:4047, H-A:TYR:484:OH:4345, V-A:ASP:366:CG:3210, V-A:LEU:475:CD2:4256, V-B:TYR:531:CE2:9765, V-B:ILE:538:CA:9832, V-B:PRO:540:CA:9855, V-B:ILE:538:CG2:9835, V-B:PRO:540:CB:9857, H-A:ARG:545:NH2:4926, V-B:PRO:540:CD:9859, V-B:ILE:538:CB:9834, V-B:LEU:363:CD1:8160, V-B:TYR:539:CD1:9845, V-B:PRO:540:N:9856, V-B:TYR:539:C:9839, V-A:ASP:366:CB:3209, H-A:ASP:366:OD2:3212, H-A:ASP:366:OD1:3211, H-A:ARG:545:NH1:4925, V-B:PRO:540:C:9853, V-B:ALA:541:CA:9862"]

$$$$
3aj_Grossjean_2025
     RDKit          3D

 39 41  0  0  0  0  0  0  0  0999 V2000
  129.9910  126.2530   62.2400 N   0  0  0  0  0  0  0  0  0  0  0  0
  130.2410  125.1510   61.9880 C   0  0  0  0  0  0  0  0  0  0  0  0
  130.5550  123.7550   61.6690 C   0  0  0  0  0  0  0  0  0  0  0  0
  129.5220  122.8250   61.3990 C   0  0  0  0  0  0  0  0  0  0  0  0
  128.0320  123.2180   61.3790 C   0  0  0  0  0  0  0  0  0  0  0  0
  127.3280  122.5320   60.4760 F   0  0  0  0  0  0  0  0  0  0  0  0
  127.4850  122.9920   62.5740 F   0  0  0  0  0  0  0  0  0  0  0  0
  127.9060  124.5120   61.0840 F   0  0  0  0  0  0  0  0  0  0  0  0
  129.8730  121.4900   61.1460 C   0  0  0  0  0  0  0  0  0  0  0  0
  131.2140  121.0940   61.1660 C   0  0  0  0  0  0  0  0  0  0  0  0
  131.6420  119.6810   60.9120 C   0  0  0  0  0  0  0  0  0  0  0  0
  130.7110  118.6320   60.9550 C   0  0  0  0  0  0  0  0  0  0  0  0
  131.1010  117.3160   60.7160 C   0  0  0  0  0  0  0  0  0  0  0  0
  132.4340  117.0330   60.4310 C   0  0  0  0  0  0  0  0  0  0  0  0
  133.3760  118.0550   60.3820 C   0  0  0  0  0  0  0  0  0  0  0  0
  132.9810  119.3680   60.6200 C   0  0  0  0  0  0  0  0  0  0  0  0
  132.2000  121.9890   61.4330 N   0  0  0  0  0  0  0  0  0  0  0  0
  131.8890  123.2880   61.6570 C   0  0  0  0  0  0  0  0  0  0  0  0
  133.3100  124.3140   61.9650 S   0  0  0  0  0  0  0  0  0  0  0  0
  134.3860  124.2380   60.4930 C   0  0  0  0  0  0  0  0  0  0  0  0
  133.6540  124.3450   59.1480 C   0  0  0  0  0  0  0  0  0  0  0  0
  134.1310  123.8420   58.1280 O   0  0  0  0  0  0  0  0  0  0  0  0
  132.4830  125.0190   59.1940 N   0  0  0  0  0  0  0  0  0  0  0  0
  131.6210  125.2570   58.1320 C   0  0  0  0  0  0  0  0  0  0  0  0
  131.7490  126.1470   57.1720 N   0  0  0  0  0  0  0  0  0  0  0  0
  130.7410  126.0940   56.3230 C   0  0  0  0  0  0  0  0  0  0  0  0
  129.7610  125.1410   56.5910 C   0  0  0  0  0  0  0  0  0  0  0  0
  130.1940  124.2760   58.0340 S   0  0  0  0  0  0  0  0  0  0  0  0
  129.0880  120.7501   60.9305 H   0  0  0  0  0  0  0  0  0  0  0  0
  129.6572  118.8521   61.1809 H   0  0  0  0  0  0  0  0  0  0  0  0
  130.3593  116.5045   60.7523 H   0  0  0  0  0  0  0  0  0  0  0  0
  132.7442  115.9944   60.2434 H   0  0  0  0  0  0  0  0  0  0  0  0
  134.4281  117.8266   60.1562 H   0  0  0  0  0  0  0  0  0  0  0  0
  133.7286  120.1739   60.5790 H   0  0  0  0  0  0  0  0  0  0  0  0
  135.1082  125.0654   60.5552 H   0  0  0  0  0  0  0  0  0  0  0  0
  134.8577  123.2444   60.5080 H   0  0  0  0  0  0  0  0  0  0  0  0
  132.1900  125.3830   60.0890 H   0  0  0  0  0  0  0  0  0  0  0  0
  130.6778  126.7641   55.4530 H   0  0  0  0  0  0  0  0  0  0  0  0
  128.8589  124.9647   55.9867 H   0  0  0  0  0  0  0  0  0  0  0  0
  1  2  3  0
  2  3  1  0
  3  4  2  0
  4  5  1  0
  5  6  1  0
  5  7  1  0
  5  8  1  0
  4  9  1  0
  9 10  2  0
 10 11  1  0
 11 12  2  0
 12 13  1  0
 13 14  2  0
 14 15  1  0
 15 16  2  0
 10 17  1  0
 17 18  2  0
 18 19  1  0
 19 20  1  0
 20 21  1  0
 21 22  2  0
 21 23  1  0
 23 24  1  0
 24 25  2  0
 25 26  1  0
 26 27  2  0
 27 28  1  0
 18  3  1  0
 28 24  1  0
 16 11  1  0
  9 29  1  0
 12 30  1  0
 13 31  1  0
 14 32  1  0
 15 33  1  0
 16 34  1  0
 20 35  1  0
 20 36  1  0
 23 37  1  0
 26 38  1  0
 27 39  1  0
M  END
>  <Binding energies>  (1) 
[-6.91]

>  <Ligand effiencies>  (1) 
[-0.23827586206896553]

>  <Interactions>  (1) 
["V-B:ALA:541:CB:9864, V-B:TYR:539:CE1:9847, V-A:ILE:369:CG2:3234, V-A:ILE:369:CD1:3236, V-A:ASP:366:CG:3210, V-A:LEU:475:CD2:4256, V-B:PRO:540:CA:9855, V-B:PRO:540:CB:9857, V-B:TYR:539:CD1:9845, V-B:PRO:540:N:9856, V-B:TYR:539:C:9839, V-B:GLU:543:CD:9880, V-A:ASP:366:CA:3207, V-A:ASP:366:CB:3209, V-B:TYR:539:CZ:9849, H-A:TYR:531:OH:4793, H-B:TYR:539:OH:9850, V-A:ILE:369:CB:3233, H-A:ASP:366:OD1:3211, V-B:MET:535:CE:9807, V-B:PRO:540:C:9853, V-A:PRO:482:CB:4323, V-A:PRO:482:CG:4324, V-B:ALA:541:CA:9862, V-A:LEU:373:CD1:3277, V-A:SER:385:CA:3404, V-A:SER:385:CB:3406, V-B:ALA:541:C:9860"]

$$$$
3ak_Grossjean_2025
     RDKit          3D

 57 58  0  0  0  0  0  0  0  0999 V2000
  134.1450  123.8840   59.7210 C   0  0  0  0  0  0  0  0  0  0  0  0
  133.7870  124.0820   58.3620 O   0  0  0  0  0  0  0  0  0  0  0  0
  132.7060  124.9880   58.1890 C   0  0  0  0  0  0  0  0  0  0  0  0
  131.8650  125.0130   59.4710 C   0  0  0  0  0  0  0  0  0  0  0  0
  130.7040  125.8070   59.2470 O   0  0  0  0  0  0  0  0  0  0  0  0
  130.9400  127.0980   58.6910 C   0  0  0  0  0  0  0  0  0  0  0  0
  129.6850  127.7490   58.0820 C   0  0  0  0  0  0  0  0  0  0  0  0
  129.0250  126.8040   57.2510 O   0  0  0  0  0  0  0  0  0  0  0  0
  129.8730  126.1900   56.2900 C   0  0  0  0  0  0  0  0  0  0  0  0
  129.8380  124.6590   56.4520 C   0  0  0  0  0  0  0  0  0  0  0  0
  129.0220  124.2080   57.5800 N   0  0  0  0  0  0  0  0  0  0  0  0
  128.3370  123.0500   57.6470 C   0  0  0  0  0  0  0  0  0  0  0  0
  128.3440  122.2180   56.7390 O   0  0  0  0  0  0  0  0  0  0  0  0
  127.5100  122.7500   58.9080 C   0  0  0  0  0  0  0  0  0  0  0  0
  127.7430  123.8830   60.3280 S   0  0  0  0  0  0  0  0  0  0  0  0
  129.2840  123.4800   61.1350 C   0  0  0  0  0  0  0  0  0  0  0  0
  129.7730  122.2420   60.8810 N   0  0  0  0  0  0  0  0  0  0  0  0
  130.9370  121.8400   61.4540 C   0  0  0  0  0  0  0  0  0  0  0  0
  131.4040  120.4560   61.1170 C   0  0  0  0  0  0  0  0  0  0  0  0
  132.7330  120.2210   60.7310 C   0  0  0  0  0  0  0  0  0  0  0  0
  133.1730  118.9370   60.4200 C   0  0  0  0  0  0  0  0  0  0  0  0
  132.2880  117.8670   60.4930 C   0  0  0  0  0  0  0  0  0  0  0  0
  130.9670  118.0720   60.8750 C   0  0  0  0  0  0  0  0  0  0  0  0
  130.5300  119.3570   61.1860 C   0  0  0  0  0  0  0  0  0  0  0  0
  131.6530  122.6970   62.2960 C   0  0  0  0  0  0  0  0  0  0  0  0
  131.1710  123.9840   62.5750 C   0  0  0  0  0  0  0  0  0  0  0  0
  131.9880  124.8980   63.5090 C   0  0  0  0  0  0  0  0  0  0  0  0
  133.1740  124.3470   63.7640 F   0  0  0  0  0  0  0  0  0  0  0  0
  132.1770  126.0870   62.9350 F   0  0  0  0  0  0  0  0  0  0  0  0
  131.3850  125.1110   64.6810 F   0  0  0  0  0  0  0  0  0  0  0  0
  129.9520  124.3920   61.9820 C   0  0  0  0  0  0  0  0  0  0  0  0
  129.3990  125.7260   62.2370 C   0  0  0  0  0  0  0  0  0  0  0  0
  128.9620  126.7790   62.4400 N   0  0  0  0  0  0  0  0  0  0  0  0
  133.3685  124.3135   60.3710 H   0  0  0  0  0  0  0  0  0  0  0  0
  134.2373  122.8066   59.9226 H   0  0  0  0  0  0  0  0  0  0  0  0
  135.1067  124.3785   59.9226 H   0  0  0  0  0  0  0  0  0  0  0  0
  133.0982  125.9954   57.9856 H   0  0  0  0  0  0  0  0  0  0  0  0
  132.0827  124.6652   57.3421 H   0  0  0  0  0  0  0  0  0  0  0  0
  131.5657  123.9882   59.7361 H   0  0  0  0  0  0  0  0  0  0  0  0
  132.4551  125.4406   60.2950 H   0  0  0  0  0  0  0  0  0  0  0  0
  131.3201  127.7548   59.4874 H   0  0  0  0  0  0  0  0  0  0  0  0
  131.6636  126.9679   57.8728 H   0  0  0  0  0  0  0  0  0  0  0  0
  129.0073  128.0667   58.8881 H   0  0  0  0  0  0  0  0  0  0  0  0
  129.9762  128.6261   57.4854 H   0  0  0  0  0  0  0  0  0  0  0  0
  129.5299  126.4565   55.2794 H   0  0  0  0  0  0  0  0  0  0  0  0
  130.9034  126.5439   56.4419 H   0  0  0  0  0  0  0  0  0  0  0  0
  129.4289  124.2209   55.5297 H   0  0  0  0  0  0  0  0  0  0  0  0
  130.8696  124.3316   56.6487 H   0  0  0  0  0  0  0  0  0  0  0  0
  128.9810  124.8300   58.3750 H   0  0  0  0  0  0  0  0  0  0  0  0
  126.4473  122.7821   58.6259 H   0  0  0  0  0  0  0  0  0  0  0  0
  127.8606  121.7682   59.2589 H   0  0  0  0  0  0  0  0  0  0  0  0
  133.4375  121.0639   60.6733 H   0  0  0  0  0  0  0  0  0  0  0  0
  134.2173  118.7697   60.1176 H   0  0  0  0  0  0  0  0  0  0  0  0
  132.6350  116.8525   60.2471 H   0  0  0  0  0  0  0  0  0  0  0  0
  130.2701  117.2228   60.9313 H   0  0  0  0  0  0  0  0  0  0  0  0
  129.4848  119.5147   61.4904 H   0  0  0  0  0  0  0  0  0  0  0  0
  132.6001  122.3594   62.7422 H   0  0  0  0  0  0  0  0  0  0  0  0
  1  2  1  0
  2  3  1  0
  3  4  1  0
  4  5  1  0
  5  6  1  0
  6  7  1  0
  7  8  1  0
  8  9  1  0
  9 10  1  0
 10 11  1  0
 11 12  1  0
 12 13  2  0
 12 14  1  0
 14 15  1  0
 15 16  1  0
 16 17  2  0
 17 18  1  0
 18 19  1  0
 19 20  2  0
 20 21  1  0
 21 22  2  0
 22 23  1  0
 23 24  2  0
 18 25  2  0
 25 26  1  0
 26 27  1  0
 27 28  1  0
 27 29  1  0
 27 30  1  0
 26 31  2  0
 31 32  1  0
 32 33  3  0
 31 16  1  0
 24 19  1  0
  1 34  1  0
  1 35  1  0
  1 36  1  0
  3 37  1  0
  3 38  1  0
  4 39  1  0
  4 40  1  0
  6 41  1  0
  6 42  1  0
  7 43  1  0
  7 44  1  0
  9 45  1  0
  9 46  1  0
 10 47  1  0
 10 48  1  0
 11 49  1  0
 14 50  1  0
 14 51  1  0
 20 52  1  0
 21 53  1  0
 22 54  1  0
 23 55  1  0
 24 56  1  0
 25 57  1  0
M  END
>  <Binding energies>  (1) 
[-5.57]

>  <Ligand effiencies>  (1) 
[-0.1638235294117647]

>  <Interactions>  (1) 
["V-A:ARG:545:CZ:4924, V-A:GLY:454:CA:4046, V-B:ALA:541:CB:9864, V-B:TYR:539:CE1:9847, V-A:ILE:369:CG2:3234, V-A:ILE:369:CD1:3236, V-A:ASP:366:CG:3210, V-A:LEU:475:CD2:4256, V-B:PRO:540:CA:9855, V-B:TYR:539:CD1:9845, V-B:PRO:540:N:9856, V-B:TYR:539:C:9839, V-B:GLU:543:CD:9880, V-A:ASP:366:CA:3207, V-A:ASP:366:CB:3209, V-B:TYR:539:CZ:9849, H-B:TYR:539:OH:9850, V-A:ILE:369:CB:3233, V-B:MET:535:CE:9807, V-A:PRO:482:CB:4323, H-B:TYR:539:N:9842, V-A:PRO:482:CG:4324, V-A:ILE:369:CG1:3235, V-A:LEU:373:CD1:3277, V-A:SER:385:CA:3404, V-A:SER:385:CB:3406"]

$$$$
3bc_Grossjean_2025
     RDKit          3D

 47 49  0  0  0  0  0  0  0  0999 V2000
  127.1780  128.9360   74.8520 C   0  0  0  0  0  0  0  0  0  0  0  0
  128.4370  128.3430   74.5580 O   0  0  0  0  0  0  0  0  0  0  0  0
  128.7270  127.9890   73.2530 C   0  0  0  0  0  0  0  0  0  0  0  0
  127.6460  127.6060   72.4590 C   0  0  0  0  0  0  0  0  0  0  0  0
  127.8380  127.2320   71.1320 C   0  0  0  0  0  0  0  0  0  0  0  0
  129.1210  127.2290   70.5820 C   0  0  0  0  0  0  0  0  0  0  0  0
  129.2160  126.8480   69.2300 N   0  0  0  0  0  0  0  0  0  0  0  0
  130.0700  127.2840   68.2800 C   0  0  0  0  0  0  0  0  0  0  0  0
  130.9740  128.1010   68.4700 O   0  0  0  0  0  0  0  0  0  0  0  0
  129.8710  126.6480   66.8970 C   0  0  0  0  0  0  0  0  0  0  0  0
  130.6700  125.0240   66.6670 S   0  0  0  0  0  0  0  0  0  0  0  0
  131.2170  124.9200   64.9780 C   0  0  0  0  0  0  0  0  0  0  0  0
  130.2060  124.7730   64.0860 N   0  0  0  0  0  0  0  0  0  0  0  0
  130.4830  124.6840   62.7590 C   0  0  0  0  0  0  0  0  0  0  0  0
  129.3120  124.5010   61.8400 C   0  0  0  0  0  0  0  0  0  0  0  0
  129.0500  123.2550   61.2510 C   0  0  0  0  0  0  0  0  0  0  0  0
  127.9640  123.0770   60.3980 C   0  0  0  0  0  0  0  0  0  0  0  0
  127.1240  124.1500   60.1200 C   0  0  0  0  0  0  0  0  0  0  0  0
  127.3620  125.3970   60.6880 C   0  0  0  0  0  0  0  0  0  0  0  0
  128.4500  125.5700   61.5400 C   0  0  0  0  0  0  0  0  0  0  0  0
  131.8010  124.7400   62.2940 C   0  0  0  0  0  0  0  0  0  0  0  0
  132.8540  124.9150   63.2000 C   0  0  0  0  0  0  0  0  0  0  0  0
  134.2760  124.9890   62.6460 C   0  0  0  0  0  0  0  0  0  0  0  0
  132.5690  125.0200   64.5780 C   0  0  0  0  0  0  0  0  0  0  0  0
  133.6490  125.2520   65.5390 C   0  0  0  0  0  0  0  0  0  0  0  0
  134.5050  125.4350   66.2960 N   0  0  0  0  0  0  0  0  0  0  0  0
  130.2120  127.6260   71.3690 C   0  0  0  0  0  0  0  0  0  0  0  0
  130.0150  127.9990   72.6970 C   0  0  0  0  0  0  0  0  0  0  0  0
  127.0474  128.9975   75.9425 H   0  0  0  0  0  0  0  0  0  0  0  0
  127.1392  129.9471   74.4204 H   0  0  0  0  0  0  0  0  0  0  0  0
  126.3738  128.3220   74.4204 H   0  0  0  0  0  0  0  0  0  0  0  0
  126.6321  127.5994   72.8856 H   0  0  0  0  0  0  0  0  0  0  0  0
  126.9762  126.9379   70.5149 H   0  0  0  0  0  0  0  0  0  0  0  0
  128.5890  126.1040   68.9610 H   0  0  0  0  0  0  0  0  0  0  0  0
  128.7907  126.5222   66.7325 H   0  0  0  0  0  0  0  0  0  0  0  0
  130.3487  127.3282   66.1765 H   0  0  0  0  0  0  0  0  0  0  0  0
  129.7135  122.4046   61.4666 H   0  0  0  0  0  0  0  0  0  0  0  0
  127.7714  122.0927   59.9463 H   0  0  0  0  0  0  0  0  0  0  0  0
  126.2655  124.0115   59.4463 H   0  0  0  0  0  0  0  0  0  0  0  0
  126.6943  126.2423   60.4654 H   0  0  0  0  0  0  0  0  0  0  0  0
  128.6376  126.5583   61.9850 H   0  0  0  0  0  0  0  0  0  0  0  0
  132.0099  124.6467   61.2181 H   0  0  0  0  0  0  0  0  0  0  0  0
  134.9928  125.0263   63.4796 H   0  0  0  0  0  0  0  0  0  0  0  0
  134.4762  124.1001   62.0298 H   0  0  0  0  0  0  0  0  0  0  0  0
  134.3828  125.8939   62.0298 H   0  0  0  0  0  0  0  0  0  0  0  0
  131.2237  127.6429   70.9376 H   0  0  0  0  0  0  0  0  0  0  0  0
  130.8742  128.3030   73.3129 H   0  0  0  0  0  0  0  0  0  0  0  0
  1  2  1  0
  2  3  1  0
  3  4  2  0
  4  5  1  0
  5  6  2  0
  6  7  1  0
  7  8  1  0
  8  9  2  0
  8 10  1  0
 10 11  1  0
 11 12  1  0
 12 13  2  0
 13 14  1  0
 14 15  1  0
 15 16  2  0
 16 17  1  0
 17 18  2  0
 18 19  1  0
 19 20  2  0
 14 21  2  0
 21 22  1  0
 22 23  1  0
 22 24  2  0
 24 25  1  0
 25 26  3  0
  6 27  1  0
 27 28  2  0
 28  3  1  0
 24 12  1  0
 20 15  1  0
  1 29  1  0
  1 30  1  0
  1 31  1  0
  4 32  1  0
  5 33  1  0
  7 34  1  0
 10 35  1  0
 10 36  1  0
 16 37  1  0
 17 38  1  0
 18 39  1  0
 19 40  1  0
 20 41  1  0
 21 42  1  0
 23 43  1  0
 23 44  1  0
 23 45  1  0
 27 46  1  0
 28 47  1  0
M  END
>  <Binding energies>  (1) 
[-8.08]

>  <Ligand effiencies>  (1) 
[-0.2786206896551724]

>  <Interactions>  (1) 
["V-A:ARG:545:CZ:4924, H-A:ARG:545:NE:4922, V-A:GLY:454:CA:4046, H-A:GLY:454:N:4047, H-A:TYR:484:OH:4345, V-A:GLY:453:C:4039, V-B:PRO:540:CA:9855, V-B:GLU:543:CD:9880, V-B:GLU:543:CG:9879, V-B:GLU:543:CB:9878, V-A:HIS:456:CE1:4066, V-B:HIS:456:CE1:9040, V-A:GLU:543:CD:4906, V-A:GLU:543:CG:4905, V-B:GLU:543:C:9874, V-B:GLY:544:CA:9886, V-B:HIS:456:CD2:9039, V-A:LYS:547:CE:4948, V-A:GLY:544:C:4910, V-B:GLY:544:C:9884, H-A:LYS:547:NZ:4949, V-B:HIS:456:CG:9037, H-B:LYS:547:NZ:9923, V-A:GLY:544:CA:4912, V-B:HIS:456:CB:9036, H-A:HIS:456:NE2:4067, V-A:ARG:545:CG:4920, V-A:ARG:545:CD:4921, V-A:GLY:453:CA:4041, H-B:GLU:543:O:9875, H-A:ILE:455:N:4052"]

$$$$
3bd_Grossjean_2025
     RDKit          3D

 43 45  0  0  0  0  0  0  0  0999 V2000
  134.2850  123.7880   59.9930 C   0  0  0  0  0  0  0  0  0  0  0  0
  133.2100  122.9150   60.6360 C   0  0  0  0  0  0  0  0  0  0  0  0
  133.2320  121.5400   60.3780 C   0  0  0  0  0  0  0  0  0  0  0  0
  132.2610  120.7070   60.9450 C   0  0  0  0  0  0  0  0  0  0  0  0
  132.2290  119.2250   60.7140 C   0  0  0  0  0  0  0  0  0  0  0  0
  131.0190  118.5160   60.7700 C   0  0  0  0  0  0  0  0  0  0  0  0
  130.9830  117.1400   60.5570 C   0  0  0  0  0  0  0  0  0  0  0  0
  132.1610  116.4520   60.2860 C   0  0  0  0  0  0  0  0  0  0  0  0
  133.3740  117.1310   60.2280 C   0  0  0  0  0  0  0  0  0  0  0  0
  133.4060  118.5060   60.4410 C   0  0  0  0  0  0  0  0  0  0  0  0
  131.2990  121.2140   61.7600 N   0  0  0  0  0  0  0  0  0  0  0  0
  131.2620  122.5450   62.0210 C   0  0  0  0  0  0  0  0  0  0  0  0
  129.9430  123.0870   63.0950 S   0  0  0  0  0  0  0  0  0  0  0  0
  128.9700  124.3380   62.2060 C   0  0  0  0  0  0  0  0  0  0  0  0
  128.0790  123.7140   61.1310 C   0  0  0  0  0  0  0  0  0  0  0  0
  127.0990  123.0540   61.4750 O   0  0  0  0  0  0  0  0  0  0  0  0
  128.4600  123.9350   59.8540 N   0  0  0  0  0  0  0  0  0  0  0  0
  127.8400  123.5200   58.6600 C   0  0  0  0  0  0  0  0  0  0  0  0
  126.4430  123.5470   58.6520 C   0  0  0  0  0  0  0  0  0  0  0  0
  125.7410  123.1470   57.5180 C   0  0  0  0  0  0  0  0  0  0  0  0
  126.4360  122.7090   56.3940 C   0  0  0  0  0  0  0  0  0  0  0  0
  127.8280  122.6650   56.3950 C   0  0  0  0  0  0  0  0  0  0  0  0
  128.5330  123.0660   57.5260 C   0  0  0  0  0  0  0  0  0  0  0  0
  132.2050  123.4430   61.4750 C   0  0  0  0  0  0  0  0  0  0  0  0
  132.1550  124.8790   61.7660 C   0  0  0  0  0  0  0  0  0  0  0  0
  132.1180  126.0130   61.9950 N   0  0  0  0  0  0  0  0  0  0  0  0
  134.8822  124.2730   60.7792 H   0  0  0  0  0  0  0  0  0  0  0  0
  134.9398  123.1628   59.3683 H   0  0  0  0  0  0  0  0  0  0  0  0
  133.8074  124.5572   59.3683 H   0  0  0  0  0  0  0  0  0  0  0  0
  134.0121  121.1141   59.7299 H   0  0  0  0  0  0  0  0  0  0  0  0
  130.0848  119.0553   60.9854 H   0  0  0  0  0  0  0  0  0  0  0  0
  130.0262  116.5993   60.6030 H   0  0  0  0  0  0  0  0  0  0  0  0
  132.1335  115.3655   60.1167 H   0  0  0  0  0  0  0  0  0  0  0  0
  134.3038  116.5834   60.0147 H   0  0  0  0  0  0  0  0  0  0  0  0
  134.3673  119.0387   60.3950 H   0  0  0  0  0  0  0  0  0  0  0  0
  128.3346  124.8723   62.9276 H   0  0  0  0  0  0  0  0  0  0  0  0
  129.6718  125.0240   61.7092 H   0  0  0  0  0  0  0  0  0  0  0  0
  129.3380  124.4170   59.7250 H   0  0  0  0  0  0  0  0  0  0  0  0
  125.8961  123.8853   59.5444 H   0  0  0  0  0  0  0  0  0  0  0  0
  124.6414  123.1770   57.5102 H   0  0  0  0  0  0  0  0  0  0  0  0
  125.8810  122.3951   55.4976 H   0  0  0  0  0  0  0  0  0  0  0  0
  128.3690  122.3141   55.5039 H   0  0  0  0  0  0  0  0  0  0  0  0
  129.6323  123.0274   57.5317 H   0  0  0  0  0  0  0  0  0  0  0  0
  1  2  1  0
  2  3  2  0
  3  4  1  0
  4  5  1  0
  5  6  2  0
  6  7  1  0
  7  8  2  0
  8  9  1  0
  9 10  2  0
  4 11  2  0
 11 12  1  0
 12 13  1  0
 13 14  1  0
 14 15  1  0
 15 16  2  0
 15 17  1  0
 17 18  1  0
 18 19  2  0
 19 20  1  0
 20 21  2  0
 21 22  1  0
 22 23  2  0
 12 24  2  0
 24 25  1  0
 25 26  3  0
 24  2  1  0
 10  5  1  0
 23 18  1  0
  1 27  1  0
  1 28  1  0
  1 29  1  0
  3 30  1  0
  6 31  1  0
  7 32  1  0
  8 33  1  0
  9 34  1  0
 10 35  1  0
 14 36  1  0
 14 37  1  0
 17 38  1  0
 19 39  1  0
 20 40  1  0
 21 41  1  0
 22 42  1  0
 23 43  1  0
M  END
>  <Binding energies>  (1) 
[-8.15]

>  <Ligand effiencies>  (1) 
[-0.30185185185185187]

>  <Interactions>  (1) 
["V-B:TYR:539:CE1:9847, V-A:ILE:369:CG2:3234, V-A:ILE:369:CD1:3236, V-A:LEU:475:CD2:4256, V-B:ILE:538:CA:9832, V-B:PRO:540:CA:9855, V-B:ILE:538:CG2:9835, V-B:PRO:540:CB:9857, H-A:ARG:545:NH2:4926, V-B:PRO:540:CD:9859, V-B:ILE:538:CB:9834, V-B:TYR:539:CD1:9845, V-B:PRO:540:N:9856, V-B:GLU:543:CD:9880, V-B:TYR:539:CZ:9849, H-B:ALA:541:N:9863, V-A:ILE:369:CB:3233, V-A:PRO:482:CB:4323, V-A:PRO:482:CG:4324, V-B:TYR:539:CB:9843, V-B:TYR:539:CD2:9846, V-A:ILE:369:CG1:3235, V-A:LEU:373:CD1:3277, V-A:SER:385:CA:3404, V-A:SER:385:CB:3406, V-A:VAL:384:C:3394"]

$$$$
3be_Grossjean_2025
     RDKit          3D

 45 47  0  0  0  0  0  0  0  0999 V2000
  133.8620  124.2360   59.4370 C   0  0  0  0  0  0  0  0  0  0  0  0
  132.7130  124.6540   58.5400 C   0  0  0  0  0  0  0  0  0  0  0  0
  132.9280  125.3820   57.3670 C   0  0  0  0  0  0  0  0  0  0  0  0
  131.8230  125.7340   56.5920 C   0  0  0  0  0  0  0  0  0  0  0  0
  130.5430  125.3540   57.0030 C   0  0  0  0  0  0  0  0  0  0  0  0
  130.3980  124.6220   58.1860 C   0  0  0  0  0  0  0  0  0  0  0  0
  129.0830  124.2780   58.5510 N   0  0  0  0  0  0  0  0  0  0  0  0
  128.3310  123.2400   58.1250 C   0  0  0  0  0  0  0  0  0  0  0  0
  128.7020  122.3980   57.3040 O   0  0  0  0  0  0  0  0  0  0  0  0
  126.9280  123.1630   58.7480 C   0  0  0  0  0  0  0  0  0  0  0  0
  126.8870  123.1990   60.5720 S   0  0  0  0  0  0  0  0  0  0  0  0
  128.5650  123.2380   61.1630 C   0  0  0  0  0  0  0  0  0  0  0  0
  129.2360  122.0760   60.9680 N   0  0  0  0  0  0  0  0  0  0  0  0
  130.5310  121.9670   61.3680 C   0  0  0  0  0  0  0  0  0  0  0  0
  131.1970  120.6440   61.1280 C   0  0  0  0  0  0  0  0  0  0  0  0
  132.5530  120.5780   60.7710 C   0  0  0  0  0  0  0  0  0  0  0  0
  133.1770  119.3550   60.5450 C   0  0  0  0  0  0  0  0  0  0  0  0
  132.4500  118.1760   60.6720 C   0  0  0  0  0  0  0  0  0  0  0  0
  131.1050  118.2130   61.0230 C   0  0  0  0  0  0  0  0  0  0  0  0
  130.4850  119.4390   61.2480 C   0  0  0  0  0  0  0  0  0  0  0  0
  131.1840  123.0390   61.9850 C   0  0  0  0  0  0  0  0  0  0  0  0
  130.5130  124.2520   62.1720 C   0  0  0  0  0  0  0  0  0  0  0  0
  131.2720  125.4010   62.8340 C   0  0  0  0  0  0  0  0  0  0  0  0
  129.1730  124.3730   61.7440 C   0  0  0  0  0  0  0  0  0  0  0  0
  128.4700  125.6500   61.8810 C   0  0  0  0  0  0  0  0  0  0  0  0
  127.9160  126.6610   61.9890 N   0  0  0  0  0  0  0  0  0  0  0  0
  131.4760  124.2770   58.9510 N   0  0  0  0  0  0  0  0  0  0  0  0
  133.5633  124.3447   60.4901 H   0  0  0  0  0  0  0  0  0  0  0  0
  134.1210  123.1860   59.2358 H   0  0  0  0  0  0  0  0  0  0  0  0
  134.7351  124.8741   59.2358 H   0  0  0  0  0  0  0  0  0  0  0  0
  133.9446  125.6707   57.0619 H   0  0  0  0  0  0  0  0  0  0  0  0
  131.9586  126.3072   55.6630 H   0  0  0  0  0  0  0  0  0  0  0  0
  129.6613  125.6267   56.4045 H   0  0  0  0  0  0  0  0  0  0  0  0
  128.6460  124.9160   59.2000 H   0  0  0  0  0  0  0  0  0  0  0  0
  126.3433  124.0178   58.3772 H   0  0  0  0  0  0  0  0  0  0  0  0
  126.5148  122.1875   58.4518 H   0  0  0  0  0  0  0  0  0  0  0  0
  133.1315  121.5079   60.6683 H   0  0  0  0  0  0  0  0  0  0  0  0
  134.2408  119.3207   60.2671 H   0  0  0  0  0  0  0  0  0  0  0  0
  132.9420  117.2085   60.4937 H   0  0  0  0  0  0  0  0  0  0  0  0
  130.5338  117.2782   61.1224 H   0  0  0  0  0  0  0  0  0  0  0  0
  129.4205  119.4645   61.5242 H   0  0  0  0  0  0  0  0  0  0  0  0
  132.2249  122.9282   62.3231 H   0  0  0  0  0  0  0  0  0  0  0  0
  131.2065  125.3018   63.9276 H   0  0  0  0  0  0  0  0  0  0  0  0
  132.3274  125.3692   62.5255 H   0  0  0  0  0  0  0  0  0  0  0  0
  130.8286  126.3592   62.5255 H   0  0  0  0  0  0  0  0  0  0  0  0
  1  2  1  0
  2  3  2  0
  3  4  1  0
  4  5  2  0
  5  6  1  0
  6  7  1  0
  7  8  1  0
  8  9  2  0
  8 10  1  0
 10 11  1  0
 11 12  1  0
 12 13  2  0
 13 14  1  0
 14 15  1  0
 15 16  2  0
 16 17  1  0
 17 18  2  0
 18 19  1  0
 19 20  2  0
 14 21  2  0
 21 22  1  0
 22 23  1  0
 22 24  2  0
 24 25  1  0
 25 26  3  0
  6 27  2  0
 27  2  1  0
 24 12  1  0
 20 15  1  0
  1 28  1  0
  1 29  1  0
  1 30  1  0
  3 31  1  0
  4 32  1  0
  5 33  1  0
  7 34  1  0
 10 35  1  0
 10 36  1  0
 16 37  1  0
 17 38  1  0
 18 39  1  0
 19 40  1  0
 20 41  1  0
 21 42  1  0
 23 43  1  0
 23 44  1  0
 23 45  1  0
M  END
>  <Binding energies>  (1) 
[-7.51]

>  <Ligand effiencies>  (1) 
[-0.2682142857142857]

>  <Interactions>  (1) 
["H-B:ARG:545:NH2:9900, V-B:ALA:541:CB:9864, V-B:TYR:539:CE1:9847, V-A:ILE:369:CG2:3234, V-A:ILE:369:CD1:3236, V-A:ASP:366:CG:3210, V-A:LEU:475:CD2:4256, V-B:PRO:540:CA:9855, V-B:PRO:540:CB:9857, V-B:TYR:539:CD1:9845, V-B:PRO:540:N:9856, V-B:TYR:539:C:9839, V-B:GLU:543:CD:9880, V-A:ASP:366:CA:3207, V-A:ASP:366:CB:3209, V-B:TYR:539:CZ:9849, H-B:ALA:541:N:9863, V-A:TYR:531:CZ:4792, V-A:TYR:531:CE1:4790, H-B:TYR:539:OH:9850, V-A:ILE:369:CB:3233, V-A:ASP:366:C:3205, V-A:PRO:482:CB:4323, H-B:TYR:539:N:9842, V-A:PRO:482:CG:4324, V-A:LEU:373:CD1:3277, V-A:SER:385:CA:3404, V-A:SER:385:CB:3406"]

$$$$
3bf_Grossjean_2025
     RDKit          3D

 42 44  0  0  0  0  0  0  0  0999 V2000
  128.0860  122.9010   61.4510 C   0  0  0  0  0  0  0  0  0  0  0  0
  129.5590  122.4980   61.4560 C   0  0  0  0  0  0  0  0  0  0  0  0
  129.8780  121.1640   61.1800 C   0  0  0  0  0  0  0  0  0  0  0  0
  131.2160  120.7550   61.1600 C   0  0  0  0  0  0  0  0  0  0  0  0
  131.6260  119.3470   60.8490 C   0  0  0  0  0  0  0  0  0  0  0  0
  130.6650  118.3300   60.7340 C   0  0  0  0  0  0  0  0  0  0  0  0
  131.0370  117.0200   60.4460 C   0  0  0  0  0  0  0  0  0  0  0  0
  132.3810  116.7080   60.2700 C   0  0  0  0  0  0  0  0  0  0  0  0
  133.3530  117.6960   60.3800 C   0  0  0  0  0  0  0  0  0  0  0  0
  132.9770  119.0060   60.6690 C   0  0  0  0  0  0  0  0  0  0  0  0
  132.2190  121.6390   61.4070 N   0  0  0  0  0  0  0  0  0  0  0  0
  131.9250  122.9300   61.7010 C   0  0  0  0  0  0  0  0  0  0  0  0
  133.3610  123.9380   62.0020 S   0  0  0  0  0  0  0  0  0  0  0  0
  134.3760  123.9420   60.4860 C   0  0  0  0  0  0  0  0  0  0  0  0
  133.6050  124.2060   59.1840 C   0  0  0  0  0  0  0  0  0  0  0  0
  134.0760  123.8740   58.0950 O   0  0  0  0  0  0  0  0  0  0  0  0
  132.3970  124.7860   59.3540 N   0  0  0  0  0  0  0  0  0  0  0  0
  131.4550  125.1660   58.3790 C   0  0  0  0  0  0  0  0  0  0  0  0
  130.1200  124.8200   58.6110 C   0  0  0  0  0  0  0  0  0  0  0  0
  129.1360  125.1810   57.6880 C   0  0  0  0  0  0  0  0  0  0  0  0
  129.5200  125.8910   56.5500 C   0  0  0  0  0  0  0  0  0  0  0  0
  130.8050  126.2500   56.3040 N   0  0  0  0  0  0  0  0  0  0  0  0
  131.7510  125.8910   57.2110 C   0  0  0  0  0  0  0  0  0  0  0  0
  130.5990  123.4160   61.7200 C   0  0  0  0  0  0  0  0  0  0  0  0
  130.2890  124.8270   61.9620 C   0  0  0  0  0  0  0  0  0  0  0  0
  130.0440  125.9420   62.1550 N   0  0  0  0  0  0  0  0  0  0  0  0
  127.7291  122.9987   62.4869 H   0  0  0  0  0  0  0  0  0  0  0  0
  127.9710  123.8636   60.9313 H   0  0  0  0  0  0  0  0  0  0  0  0
  127.4970  122.1310   60.9313 H   0  0  0  0  0  0  0  0  0  0  0  0
  129.0773  120.4371   60.9788 H   0  0  0  0  0  0  0  0  0  0  0  0
  129.6011  118.5723   60.8737 H   0  0  0  0  0  0  0  0  0  0  0  0
  130.2715  116.2350   60.3580 H   0  0  0  0  0  0  0  0  0  0  0  0
  132.6767  115.6732   60.0424 H   0  0  0  0  0  0  0  0  0  0  0  0
  134.4146  117.4444   60.2394 H   0  0  0  0  0  0  0  0  0  0  0  0
  133.7490  119.7846   60.7575 H   0  0  0  0  0  0  0  0  0  0  0  0
  135.1429  124.7234   60.5919 H   0  0  0  0  0  0  0  0  0  0  0  0
  134.7921  122.9279   60.3943 H   0  0  0  0  0  0  0  0  0  0  0  0
  132.0960  124.9310   60.3070 H   0  0  0  0  0  0  0  0  0  0  0  0
  129.8452  124.2641   59.5195 H   0  0  0  0  0  0  0  0  0  0  0  0
  128.0825  124.9118   57.8544 H   0  0  0  0  0  0  0  0  0  0  0  0
  128.7467  126.1721   55.8200 H   0  0  0  0  0  0  0  0  0  0  0  0
  132.7954  126.1806   57.0231 H   0  0  0  0  0  0  0  0  0  0  0  0
  1  2  1  0
  2  3  2  0
  3  4  1  0
  4  5  1  0
  5  6  2  0
  6  7  1  0
  7  8  2  0
  8  9  1  0
  9 10  2  0
  4 11  2  0
 11 12  1  0
 12 13  1  0
 13 14  1  0
 14 15  1  0
 15 16  2  0
 15 17  1  0
 17 18  1  0
 18 19  2  0
 19 20  1  0
 20 21  2  0
 21 22  1  0
 22 23  2  0
 12 24  2  0
 24 25  1  0
 25 26  3  0
 24  2  1  0
 10  5  1  0
 23 18  1  0
  1 27  1  0
  1 28  1  0
  1 29  1  0
  3 30  1  0
  6 31  1  0
  7 32  1  0
  8 33  1  0
  9 34  1  0
 10 35  1  0
 14 36  1  0
 14 37  1  0
 17 38  1  0
 19 39  1  0
 20 40  1  0
 21 41  1  0
 23 42  1  0
M  END
>  <Binding energies>  (1) 
[-7.85]

>  <Ligand effiencies>  (1) 
[-0.29074074074074074]

>  <Interactions>  (1) 
["V-B:ALA:541:CB:9864, V-B:TYR:539:CE1:9847, V-A:ILE:369:CG2:3234, V-A:ILE:369:CD1:3236, V-A:ASP:366:CG:3210, V-A:LEU:475:CD2:4256, V-B:PRO:540:CA:9855, V-B:TYR:539:CD1:9845, V-A:ASP:366:CA:3207, V-A:ASP:366:CB:3209, H-A:TYR:531:OH:4793, H-B:TYR:539:OH:9850, V-A:ILE:369:CB:3233, H-A:ASP:366:OD1:3211, V-B:MET:535:CE:9807, V-B:PRO:540:C:9853, V-A:PRO:482:CB:4323, V-A:PRO:482:CG:4324, V-B:TYR:539:CB:9843, V-A:ILE:369:CG1:3235, V-A:LEU:373:CD1:3277, V-A:SER:385:CA:3404, V-A:SER:385:CB:3406, V-A:VAL:384:C:3394"]

$$$$
3bg_Grossjean_2025
     RDKit          3D

 46 48  0  0  0  0  0  0  0  0999 V2000
  128.5370  122.8330   61.9850 C   0  0  0  0  0  0  0  0  0  0  0  0
  129.9470  122.3920   61.5960 C   0  0  0  0  0  0  0  0  0  0  0  0
  130.1770  121.0310   61.3750 C   0  0  0  0  0  0  0  0  0  0  0  0
  131.4540  120.5850   61.0090 C   0  0  0  0  0  0  0  0  0  0  0  0
  131.7660  119.1370   60.7450 C   0  0  0  0  0  0  0  0  0  0  0  0
  130.7420  118.1780   60.6700 C   0  0  0  0  0  0  0  0  0  0  0  0
  131.0250  116.8410   60.4080 C   0  0  0  0  0  0  0  0  0  0  0  0
  132.3420  116.4380   60.2190 C   0  0  0  0  0  0  0  0  0  0  0  0
  133.3770  117.3620   60.3000 C   0  0  0  0  0  0  0  0  0  0  0  0
  133.0890  118.6980   60.5640 C   0  0  0  0  0  0  0  0  0  0  0  0
  132.4750  121.4690   60.8490 N   0  0  0  0  0  0  0  0  0  0  0  0
  132.2680  122.7940   61.0570 C   0  0  0  0  0  0  0  0  0  0  0  0
  133.6810  123.8510   60.7790 S   0  0  0  0  0  0  0  0  0  0  0  0
  133.9950  123.9250   58.9850 C   0  0  0  0  0  0  0  0  0  0  0  0
  132.9130  124.7220   58.2500 C   0  0  0  0  0  0  0  0  0  0  0  0
  133.2340  125.6440   57.5000 O   0  0  0  0  0  0  0  0  0  0  0  0
  131.6400  124.3700   58.4950 N   0  0  0  0  0  0  0  0  0  0  0  0
  130.4540  125.1030   58.0490 C   0  0  0  0  0  0  0  0  0  0  0  0
  129.2730  124.1720   57.8010 C   0  0  0  0  0  0  0  0  0  0  0  0
  128.3950  123.8610   58.8450 C   0  0  0  0  0  0  0  0  0  0  0  0
  127.3220  123.0040   58.6210 C   0  0  0  0  0  0  0  0  0  0  0  0
  127.1220  122.4680   57.3500 C   0  0  0  0  0  0  0  0  0  0  0  0
  127.9790  122.7890   56.3000 C   0  0  0  0  0  0  0  0  0  0  0  0
  129.0530  123.6470   56.5250 C   0  0  0  0  0  0  0  0  0  0  0  0
  131.0120  123.3060   61.4430 C   0  0  0  0  0  0  0  0  0  0  0  0
  130.8000  124.7390   61.6610 C   0  0  0  0  0  0  0  0  0  0  0  0
  130.6310  125.8710   61.8330 N   0  0  0  0  0  0  0  0  0  0  0  0
  128.4506  122.8600   63.0813 H   0  0  0  0  0  0  0  0  0  0  0  0
  128.3407  123.8355   61.5769 H   0  0  0  0  0  0  0  0  0  0  0  0
  127.8045  122.1211   61.5769 H   0  0  0  0  0  0  0  0  0  0  0  0
  129.3546  120.3093   61.4885 H   0  0  0  0  0  0  0  0  0  0  0  0
  129.6979  118.4896   60.8211 H   0  0  0  0  0  0  0  0  0  0  0  0
  130.2092  116.1053   60.3506 H   0  0  0  0  0  0  0  0  0  0  0  0
  132.5660  115.3827   60.0043 H   0  0  0  0  0  0  0  0  0  0  0  0
  134.4187  117.0391   60.1562 H   0  0  0  0  0  0  0  0  0  0  0  0
  133.9125  119.4241   60.6323 H   0  0  0  0  0  0  0  0  0  0  0  0
  134.9694  124.4058   58.8137 H   0  0  0  0  0  0  0  0  0  0  0  0
  133.9870  122.8969   58.5940 H   0  0  0  0  0  0  0  0  0  0  0  0
  131.4710  123.6030   59.1300 H   0  0  0  0  0  0  0  0  0  0  0  0
  130.1751  125.8335   58.8227 H   0  0  0  0  0  0  0  0  0  0  0  0
  130.6986  125.6047   57.1012 H   0  0  0  0  0  0  0  0  0  0  0  0
  128.5531  124.2943   59.8436 H   0  0  0  0  0  0  0  0  0  0  0  0
  126.6354  122.7509   59.4423 H   0  0  0  0  0  0  0  0  0  0  0  0
  126.2784  121.7843   57.1743 H   0  0  0  0  0  0  0  0  0  0  0  0
  127.8086  122.3672   55.2985 H   0  0  0  0  0  0  0  0  0  0  0  0
  129.7282  123.9113   55.6978 H   0  0  0  0  0  0  0  0  0  0  0  0
  1  2  1  0
  2  3  2  0
  3  4  1  0
  4  5  1  0
  5  6  2  0
  6  7  1  0
  7  8  2  0
  8  9  1  0
  9 10  2  0
  4 11  2  0
 11 12  1  0
 12 13  1  0
 13 14  1  0
 14 15  1  0
 15 16  2  0
 15 17  1  0
 17 18  1  0
 18 19  1  0
 19 20  2  0
 20 21  1  0
 21 22  2  0
 22 23  1  0
 23 24  2  0
 12 25  2  0
 25 26  1  0
 26 27  3  0
 25  2  1  0
 10  5  1  0
 24 19  1  0
  1 28  1  0
  1 29  1  0
  1 30  1  0
  3 31  1  0
  6 32  1  0
  7 33  1  0
  8 34  1  0
  9 35  1  0
 10 36  1  0
 14 37  1  0
 14 38  1  0
 17 39  1  0
 18 40  1  0
 18 41  1  0
 20 42  1  0
 21 43  1  0
 22 44  1  0
 23 45  1  0
 24 46  1  0
M  END
>  <Binding energies>  (1) 
[-7.69]

>  <Ligand effiencies>  (1) 
[-0.27464285714285713]

>  <Interactions>  (1) 
["V-B:ALA:541:CB:9864, V-B:TYR:539:CE1:9847, V-A:ILE:369:CG2:3234, V-A:ILE:369:CD1:3236, V-A:ASP:366:CG:3210, V-A:LEU:475:CD2:4256, V-B:ILE:538:CA:9832, V-B:PRO:540:CA:9855, V-B:PRO:540:CD:9859, V-B:TYR:539:CD1:9845, V-B:PRO:540:N:9856, V-B:TYR:539:C:9839, V-A:ASP:366:CA:3207, V-A:ASP:366:CB:3209, V-B:TYR:539:CZ:9849, H-A:TYR:531:OH:4793, H-B:TYR:539:OH:9850, V-A:ILE:369:CB:3233, V-B:MET:535:CE:9807, V-A:PRO:482:CB:4323, V-B:TYR:539:CE2:9848, V-A:PRO:482:CG:4324, V-B:TYR:539:CB:9843, V-B:TYR:539:CA:9841, V-B:TYR:539:CD2:9846, V-B:ALA:541:CA:9862, V-A:LEU:373:CD1:3277, V-A:SER:385:CA:3404, V-A:SER:385:CB:3406, V-B:VAL:344:CG1:7972, V-A:VAL:384:C:3394"]

$$$$
3bk_Grossjean_2025
     RDKit          3D

 57 58  0  0  0  0  0  0  0  0999 V2000
  131.4080  124.7280   75.6210 C   0  0  0  0  0  0  0  0  0  0  0  0
  131.0010  126.0580   75.3380 O   0  0  0  0  0  0  0  0  0  0  0  0
  131.6900  126.6390   74.2390 C   0  0  0  0  0  0  0  0  0  0  0  0
  130.7620  126.6910   73.0180 C   0  0  0  0  0  0  0  0  0  0  0  0
  129.5460  126.0220   73.3210 O   0  0  0  0  0  0  0  0  0  0  0  0
  128.5930  126.0540   72.2660 C   0  0  0  0  0  0  0  0  0  0  0  0
  128.4210  127.5000   71.7840 C   0  0  0  0  0  0  0  0  0  0  0  0
  129.3780  127.7760   70.7700 O   0  0  0  0  0  0  0  0  0  0  0  0
  129.0080  127.2980   69.4830 C   0  0  0  0  0  0  0  0  0  0  0  0
  130.2090  127.4060   68.5330 C   0  0  0  0  0  0  0  0  0  0  0  0
  130.0440  126.5870   67.3310 N   0  0  0  0  0  0  0  0  0  0  0  0
  131.0420  126.1170   66.5640 C   0  0  0  0  0  0  0  0  0  0  0  0
  132.2360  126.3100   66.8000 O   0  0  0  0  0  0  0  0  0  0  0  0
  130.6330  125.2760   65.3520 C   0  0  0  0  0  0  0  0  0  0  0  0
  132.0770  124.6020   64.4710 S   0  0  0  0  0  0  0  0  0  0  0  0
  131.5680  124.0640   62.8470 C   0  0  0  0  0  0  0  0  0  0  0  0
  131.7790  122.7540   62.5630 N   0  0  0  0  0  0  0  0  0  0  0  0
  131.4260  122.2560   61.3490 C   0  0  0  0  0  0  0  0  0  0  0  0
  131.6740  120.7950   61.1250 C   0  0  0  0  0  0  0  0  0  0  0  0
  132.9490  120.3300   60.7630 C   0  0  0  0  0  0  0  0  0  0  0  0
  133.1840  118.9740   60.5490 C   0  0  0  0  0  0  0  0  0  0  0  0
  132.1450  118.0620   60.6960 C   0  0  0  0  0  0  0  0  0  0  0  0
  130.8730  118.4950   61.0580 C   0  0  0  0  0  0  0  0  0  0  0  0
  130.6430  119.8510   61.2720 C   0  0  0  0  0  0  0  0  0  0  0  0
  130.8370  123.0770   60.3800 C   0  0  0  0  0  0  0  0  0  0  0  0
  130.6130  124.4310   60.6550 C   0  0  0  0  0  0  0  0  0  0  0  0
  129.9690  125.2920   59.5700 C   0  0  0  0  0  0  0  0  0  0  0  0
  130.9830  124.9480   61.9150 C   0  0  0  0  0  0  0  0  0  0  0  0
  130.7590  126.3620   62.2320 C   0  0  0  0  0  0  0  0  0  0  0  0
  130.5820  127.4780   62.4820 N   0  0  0  0  0  0  0  0  0  0  0  0
  131.4526  124.5822   76.7104 H   0  0  0  0  0  0  0  0  0  0  0  0
  130.6846  124.0227   75.1860 H   0  0  0  0  0  0  0  0  0  0  0  0
  132.4022  124.5484   75.1860 H   0  0  0  0  0  0  0  0  0  0  0  0
  132.0052  127.6593   74.5028 H   0  0  0  0  0  0  0  0  0  0  0  0
  132.5744  126.0303   73.9996 H   0  0  0  0  0  0  0  0  0  0  0  0
  130.5501  127.7397   72.7624 H   0  0  0  0  0  0  0  0  0  0  0  0
  131.2499  126.1979   72.1643 H   0  0  0  0  0  0  0  0  0  0  0  0
  128.9455  125.4282   71.4329 H   0  0  0  0  0  0  0  0  0  0  0  0
  127.6285  125.6684   72.6280 H   0  0  0  0  0  0  0  0  0  0  0  0
  127.4073  127.6336   71.3783 H   0  0  0  0  0  0  0  0  0  0  0  0
  128.5706  128.1892   72.6282 H   0  0  0  0  0  0  0  0  0  0  0  0
  128.6936  126.2466   69.5587 H   0  0  0  0  0  0  0  0  0  0  0  0
  128.1758  127.9021   69.0925 H   0  0  0  0  0  0  0  0  0  0  0  0
  130.3273  128.4571   68.2310 H   0  0  0  0  0  0  0  0  0  0  0  0
  131.0961  127.0391   69.0701 H   0  0  0  0  0  0  0  0  0  0  0  0
  129.0950  126.3310   67.0980 H   0  0  0  0  0  0  0  0  0  0  0  0
  130.0046  124.4409   65.6950 H   0  0  0  0  0  0  0  0  0  0  0  0
  130.0839  125.9274   64.6561 H   0  0  0  0  0  0  0  0  0  0  0  0
  133.7744  121.0477   60.6468 H   0  0  0  0  0  0  0  0  0  0  0  0
  134.1880  118.6259   60.2647 H   0  0  0  0  0  0  0  0  0  0  0  0
  132.3296  116.9912   60.5250 H   0  0  0  0  0  0  0  0  0  0  0  0
  130.0541  117.7699   61.1744 H   0  0  0  0  0  0  0  0  0  0  0  0
  129.6372  120.1897   61.5611 H   0  0  0  0  0  0  0  0  0  0  0  0
  130.5506  122.6586   59.4038 H   0  0  0  0  0  0  0  0  0  0  0  0
  129.3732  126.0886   60.0396 H   0  0  0  0  0  0  0  0  0  0  0  0
  130.7542  125.7417   58.9446 H   0  0  0  0  0  0  0  0  0  0  0  0
  129.3158  124.6658   58.9446 H   0  0  0  0  0  0  0  0  0  0  0  0
  1  2  1  0
  2  3  1  0
  3  4  1  0
  4  5  1  0
  5  6  1  0
  6  7  1  0
  7  8  1  0
  8  9  1  0
  9 10  1  0
 10 11  1  0
 11 12  1  0
 12 13  2  0
 12 14  1  0
 14 15  1  0
 15 16  1  0
 16 17  2  0
 17 18  1  0
 18 19  1  0
 19 20  2  0
 20 21  1  0
 21 22  2  0
 22 23  1  0
 23 24  2  0
 18 25  2  0
 25 26  1  0
 26 27  1  0
 26 28  2  0
 28 29  1  0
 29 30  3  0
 28 16  1  0
 24 19  1  0
  1 31  1  0
  1 32  1  0
  1 33  1  0
  3 34  1  0
  3 35  1  0
  4 36  1  0
  4 37  1  0
  6 38  1  0
  6 39  1  0
  7 40  1  0
  7 41  1  0
  9 42  1  0
  9 43  1  0
 10 44  1  0
 10 45  1  0
 11 46  1  0
 14 47  1  0
 14 48  1  0
 20 49  1  0
 21 50  1  0
 22 51  1  0
 23 52  1  0
 24 53  1  0
 25 54  1  0
 27 55  1  0
 27 56  1  0
 27 57  1  0
M  END
>  <Binding energies>  (1) 
[-6.96]

>  <Ligand effiencies>  (1) 
[-0.22451612903225807]

>  <Interactions>  (1) 
["H-A:ARG:545:NE:4922, V-B:ALA:541:CB:9864, V-B:TYR:539:CE1:9847, V-A:ILE:369:CG2:3234, H-A:TYR:484:OH:4345, V-A:LEU:475:CD2:4256, H-A:ARG:545:NH2:4926, V-B:TYR:539:CD1:9845, V-B:GLU:543:CD:9880, V-B:GLU:543:CG:9879, H-A:GLU:543:OE2:4908, V-B:GLU:543:CB:9878, V-A:HIS:456:CE1:4066, H-B:GLU:543:OE1:9881, H-B:GLU:543:OE2:9882, V-B:HIS:456:CE1:9040, V-A:GLU:543:CD:4906, V-A:GLU:543:CG:4905, V-B:GLU:543:C:9874, V-B:GLY:544:CA:9886, V-B:HIS:456:CD2:9039, V-B:LYS:547:CE:9922, V-A:LYS:547:CE:4948, V-A:HIS:456:CG:4063, V-B:GLY:544:C:9884, V-A:HIS:456:CD2:4065, H-A:LYS:547:NZ:4949, H-B:LYS:547:NZ:9923, H-B:HIS:456:NE2:9041, V-A:PRO:482:CB:4323, V-A:PRO:482:CG:4324, V-A:LEU:373:CD1:3277, V-A:SER:385:CA:3404, V-A:SER:385:CB:3406, H-B:GLU:543:O:9875, V-A:LYS:547:CD:4947"]

$$$$
3ca_Grossjean_2025
     RDKit          3D

 52 54  0  0  0  0  0  0  0  0999 V2000
  131.6830  126.5250   73.6960 C   0  0  0  0  0  0  0  0  0  0  0  0
  130.2930  126.4240   73.0610 C   0  0  0  0  0  0  0  0  0  0  0  0
  129.8600  127.7190   72.6610 O   0  0  0  0  0  0  0  0  0  0  0  0
  128.7660  127.8810   71.8750 C   0  0  0  0  0  0  0  0  0  0  0  0
  127.6760  128.2800   72.2980 O   0  0  0  0  0  0  0  0  0  0  0  0
  129.0140  127.5320   70.4340 C   0  0  0  0  0  0  0  0  0  0  0  0
  130.3120  127.6330   69.9200 C   0  0  0  0  0  0  0  0  0  0  0  0
  130.5730  127.3170   68.5890 C   0  0  0  0  0  0  0  0  0  0  0  0
  129.5420  126.9020   67.7450 C   0  0  0  0  0  0  0  0  0  0  0  0
  129.9150  126.6070   66.4200 N   0  0  0  0  0  0  0  0  0  0  0  0
  130.4120  125.4640   65.8990 C   0  0  0  0  0  0  0  0  0  0  0  0
  130.6160  124.4250   66.5260 O   0  0  0  0  0  0  0  0  0  0  0  0
  130.7110  125.5060   64.3970 C   0  0  0  0  0  0  0  0  0  0  0  0
  132.4790  125.2820   64.0100 S   0  0  0  0  0  0  0  0  0  0  0  0
  132.6600  124.1960   62.6020 C   0  0  0  0  0  0  0  0  0  0  0  0
  133.3540  124.7040   61.5530 N   0  0  0  0  0  0  0  0  0  0  0  0
  133.5480  123.9310   60.4620 C   0  0  0  0  0  0  0  0  0  0  0  0
  134.3470  124.5630   59.3400 C   0  0  0  0  0  0  0  0  0  0  0  0
  133.0490  122.6340   60.3650 C   0  0  0  0  0  0  0  0  0  0  0  0
  132.3140  122.0930   61.4270 C   0  0  0  0  0  0  0  0  0  0  0  0
  131.7870  120.7030   61.2730 C   0  0  0  0  0  0  0  0  0  0  0  0
  130.4670  120.4070   61.6350 C   0  0  0  0  0  0  0  0  0  0  0  0
  129.9710  119.1130   61.5040 C   0  0  0  0  0  0  0  0  0  0  0  0
  130.7960  118.1050   61.0120 C   0  0  0  0  0  0  0  0  0  0  0  0
  132.1140  118.3810   60.6530 C   0  0  0  0  0  0  0  0  0  0  0  0
  132.6070  119.6770   60.7870 C   0  0  0  0  0  0  0  0  0  0  0  0
  132.1180  122.8880   62.5850 C   0  0  0  0  0  0  0  0  0  0  0  0
  131.4010  122.3570   63.7490 C   0  0  0  0  0  0  0  0  0  0  0  0
  130.8350  121.9370   64.6680 N   0  0  0  0  0  0  0  0  0  0  0  0
  128.2390  126.7910   68.2550 C   0  0  0  0  0  0  0  0  0  0  0  0
  127.9810  127.1050   69.5870 C   0  0  0  0  0  0  0  0  0  0  0  0
  131.5869  126.5180   74.7918 H   0  0  0  0  0  0  0  0  0  0  0  0
  132.2953  125.6690   73.3762 H   0  0  0  0  0  0  0  0  0  0  0  0
  132.1651  127.4605   73.3762 H   0  0  0  0  0  0  0  0  0  0  0  0
  130.3384  125.7646   72.1818 H   0  0  0  0  0  0  0  0  0  0  0  0
  129.5842  126.0099   73.7932 H   0  0  0  0  0  0  0  0  0  0  0  0
  131.1328  127.9648   70.5728 H   0  0  0  0  0  0  0  0  0  0  0  0
  131.5990  127.3951   68.2002 H   0  0  0  0  0  0  0  0  0  0  0  0
  129.7340  127.3520   65.7640 H   0  0  0  0  0  0  0  0  0  0  0  0
  130.1410  124.7044   63.9045 H   0  0  0  0  0  0  0  0  0  0  0  0
  130.4205  126.5028   64.0336 H   0  0  0  0  0  0  0  0  0  0  0  0
  135.1425  125.1922   59.7657 H   0  0  0  0  0  0  0  0  0  0  0  0
  134.7964  123.7733   58.7200 H   0  0  0  0  0  0  0  0  0  0  0  0
  133.6820  125.1822   58.7200 H   0  0  0  0  0  0  0  0  0  0  0  0
  133.2314  122.0379   59.4587 H   0  0  0  0  0  0  0  0  0  0  0  0
  129.8168  121.2035   62.0260 H   0  0  0  0  0  0  0  0  0  0  0  0
  128.9324  118.8879   61.7878 H   0  0  0  0  0  0  0  0  0  0  0  0
  130.4043  117.0826   60.9058 H   0  0  0  0  0  0  0  0  0  0  0  0
  132.7613  117.5802   60.2661 H   0  0  0  0  0  0  0  0  0  0  0  0
  133.6485  119.8962   60.5089 H   0  0  0  0  0  0  0  0  0  0  0  0
  127.4203  126.4554   67.6015 H   0  0  0  0  0  0  0  0  0  0  0  0
  126.9568  127.0172   69.9787 H   0  0  0  0  0  0  0  0  0  0  0  0
  1  2  1  0
  2  3  1  0
  3  4  1  0
  4  5  2  0
  4  6  1  0
  6  7  2  0
  7  8  1  0
  8  9  2  0
  9 10  1  0
 10 11  1  0
 11 12  2  0
 11 13  1  0
 13 14  1  0
 14 15  1  0
 15 16  2  0
 16 17  1  0
 17 18  1  0
 17 19  2  0
 19 20  1  0
 20 21  1  0
 21 22  2  0
 22 23  1  0
 23 24  2  0
 24 25  1  0
 25 26  2  0
 20 27  2  0
 27 28  1  0
 28 29  3  0
  9 30  1  0
 30 31  2  0
 31  6  1  0
 27 15  1  0
 26 21  1  0
  1 32  1  0
  1 33  1  0
  1 34  1  0
  2 35  1  0
  2 36  1  0
  7 37  1  0
  8 38  1  0
 10 39  1  0
 13 40  1  0
 13 41  1  0
 18 42  1  0
 18 43  1  0
 18 44  1  0
 19 45  1  0
 22 46  1  0
 23 47  1  0
 24 48  1  0
 25 49  1  0
 26 50  1  0
 30 51  1  0
 31 52  1  0
M  END
>  <Binding energies>  (1) 
[-8.15]

>  <Ligand effiencies>  (1) 
[-0.2546875]

>  <Interactions>  (1) 
["H-A:ARG:545:NE:4922, V-B:ALA:541:CB:9864, V-B:TYR:539:CE1:9847, V-A:ILE:369:CG2:3234, V-A:ILE:369:CD1:3236, H-A:TYR:484:OH:4345, V-A:ASP:366:CG:3210, V-A:LEU:475:CD2:4256, H-A:ARG:545:NH2:4926, V-B:TYR:539:CD1:9845, V-B:TYR:539:C:9839, V-B:GLU:543:CD:9880, V-B:GLU:543:CG:9879, H-A:GLU:543:OE2:4908, V-B:GLU:543:CB:9878, V-A:HIS:456:CE1:4066, V-A:ASP:366:CA:3207, V-A:ASP:366:CB:3209, H-B:GLU:543:OE1:9881, H-A:GLU:543:OE1:4907, H-B:GLU:543:OE2:9882, V-B:HIS:456:CE1:9040, V-A:GLU:543:CD:4906, V-A:GLU:543:CG:4905, V-B:GLU:543:C:9874, V-B:HIS:456:CD2:9039, V-A:GLU:543:C:4900, V-A:LYS:547:CE:4948, V-A:GLY:544:C:4910, V-A:HIS:456:CG:4063, V-A:HIS:456:CD2:4065, H-A:LYS:547:NZ:4949, V-A:HIS:456:CB:4062, H-B:HIS:456:NE2:9041, H-A:HIS:456:NE2:4067, V-A:ILE:369:CB:3233, V-A:PRO:482:CB:4323, V-A:PRO:482:CG:4324, V-A:LEU:373:CD1:3277"]

$$$$
3cb_Grossjean_2025
     RDKit          3D

 49 51  0  0  0  0  0  0  0  0999 V2000
  130.6590  127.2480   73.0690 C   0  0  0  0  0  0  0  0  0  0  0  0
  129.8320  128.2660   72.5250 O   0  0  0  0  0  0  0  0  0  0  0  0
  128.7290  127.9570   71.7960 C   0  0  0  0  0  0  0  0  0  0  0  0
  127.5830  127.9810   72.2540 O   0  0  0  0  0  0  0  0  0  0  0  0
  129.0420  127.5790   70.3760 C   0  0  0  0  0  0  0  0  0  0  0  0
  130.3460  127.6340   69.8620 C   0  0  0  0  0  0  0  0  0  0  0  0
  130.6020  127.2740   68.5420 C   0  0  0  0  0  0  0  0  0  0  0  0
  129.5650  126.8590   67.7070 C   0  0  0  0  0  0  0  0  0  0  0  0
  129.9370  126.5160   66.3920 N   0  0  0  0  0  0  0  0  0  0  0  0
  130.4230  125.3540   65.9020 C   0  0  0  0  0  0  0  0  0  0  0  0
  130.6150  124.3340   66.5670 O   0  0  0  0  0  0  0  0  0  0  0  0
  130.7200  125.3730   64.3950 C   0  0  0  0  0  0  0  0  0  0  0  0
  132.4890  125.2670   63.9580 S   0  0  0  0  0  0  0  0  0  0  0  0
  132.6440  124.1430   62.5850 C   0  0  0  0  0  0  0  0  0  0  0  0
  133.2670  124.6860   61.5110 N   0  0  0  0  0  0  0  0  0  0  0  0
  133.4420  123.9230   60.4090 C   0  0  0  0  0  0  0  0  0  0  0  0
  134.1570  124.5920   59.2500 C   0  0  0  0  0  0  0  0  0  0  0  0
  133.0020  122.6050   60.3320 C   0  0  0  0  0  0  0  0  0  0  0  0
  132.3420  122.0280   61.4250 C   0  0  0  0  0  0  0  0  0  0  0  0
  131.8840  120.6110   61.2910 C   0  0  0  0  0  0  0  0  0  0  0  0
  132.7760  119.6200   60.8610 C   0  0  0  0  0  0  0  0  0  0  0  0
  132.3620  118.2960   60.7430 C   0  0  0  0  0  0  0  0  0  0  0  0
  131.0500  117.9550   61.0610 C   0  0  0  0  0  0  0  0  0  0  0  0
  130.1520  118.9240   61.4970 C   0  0  0  0  0  0  0  0  0  0  0  0
  130.5700  120.2480   61.6150 C   0  0  0  0  0  0  0  0  0  0  0  0
  132.1390  122.8200   62.5840 C   0  0  0  0  0  0  0  0  0  0  0  0
  131.3720  122.2980   63.7210 C   0  0  0  0  0  0  0  0  0  0  0  0
  130.7680  121.8870   64.6170 N   0  0  0  0  0  0  0  0  0  0  0  0
  128.2580  126.7970   68.2140 C   0  0  0  0  0  0  0  0  0  0  0  0
  128.0030  127.1560   69.5360 C   0  0  0  0  0  0  0  0  0  0  0  0
  130.6220  127.2935   74.1674 H   0  0  0  0  0  0  0  0  0  0  0  0
  130.3007  126.2646   72.7305 H   0  0  0  0  0  0  0  0  0  0  0  0
  131.6949  127.3972   72.7305 H   0  0  0  0  0  0  0  0  0  0  0  0
  131.1732  127.9644   70.5075 H   0  0  0  0  0  0  0  0  0  0  0  0
  131.6305  127.3172   68.1544 H   0  0  0  0  0  0  0  0  0  0  0  0
  129.7890  127.2530   65.7180 H   0  0  0  0  0  0  0  0  0  0  0  0
  130.2025  124.5187   63.9341 H   0  0  0  0  0  0  0  0  0  0  0  0
  130.3688  126.3471   64.0240 H   0  0  0  0  0  0  0  0  0  0  0  0
  134.9083  125.2949   59.6392 H   0  0  0  0  0  0  0  0  0  0  0  0
  134.6542  123.8272   58.6353 H   0  0  0  0  0  0  0  0  0  0  0  0
  133.4269  125.1389   58.6353 H   0  0  0  0  0  0  0  0  0  0  0  0
  133.1716  122.0187   59.4169 H   0  0  0  0  0  0  0  0  0  0  0  0
  133.8133  119.8905   60.6143 H   0  0  0  0  0  0  0  0  0  0  0  0
  133.0670  117.5241   60.4007 H   0  0  0  0  0  0  0  0  0  0  0  0
  130.7205  116.9098   60.9666 H   0  0  0  0  0  0  0  0  0  0  0  0
  129.1174  118.6464   61.7473 H   0  0  0  0  0  0  0  0  0  0  0  0
  129.8628  121.0143   61.9653 H   0  0  0  0  0  0  0  0  0  0  0  0
  127.4332  126.4644   67.5666 H   0  0  0  0  0  0  0  0  0  0  0  0
  126.9751  127.1069   69.9245 H   0  0  0  0  0  0  0  0  0  0  0  0
  1  2  1  0
  2  3  1  0
  3  4  2  0
  3  5  1  0
  5  6  2  0
  6  7  1  0
  7  8  2  0
  8  9  1  0
  9 10  1  0
 10 11  2  0
 10 12  1  0
 12 13  1  0
 13 14  1  0
 14 15  2  0
 15 16  1  0
 16 17  1  0
 16 18  2  0
 18 19  1  0
 19 20  1  0
 20 21  2  0
 21 22  1  0
 22 23  2  0
 23 24  1  0
 24 25  2  0
 19 26  2  0
 26 27  1  0
 27 28  3  0
  8 29  1  0
 29 30  2  0
 30  5  1  0
 26 14  1  0
 25 20  1  0
  1 31  1  0
  1 32  1  0
  1 33  1  0
  6 34  1  0
  7 35  1  0
  9 36  1  0
 12 37  1  0
 12 38  1  0
 17 39  1  0
 17 40  1  0
 17 41  1  0
 18 42  1  0
 21 43  1  0
 22 44  1  0
 23 45  1  0
 24 46  1  0
 25 47  1  0
 29 48  1  0
 30 49  1  0
M  END
>  <Binding energies>  (1) 
[-8.24]

>  <Ligand effiencies>  (1) 
[-0.2658064516129032]

>  <Interactions>  (1) 
["H-A:ARG:545:NE:4922, V-B:ALA:541:CB:9864, V-B:TYR:539:CE1:9847, V-A:ILE:369:CG2:3234, V-A:ILE:369:CD1:3236, H-A:TYR:484:OH:4345, V-A:ASP:366:CG:3210, V-A:LEU:475:CD2:4256, H-A:ARG:545:NH2:4926, V-B:TYR:539:CD1:9845, V-B:GLU:543:CD:9880, V-B:GLU:543:CG:9879, H-A:GLU:543:OE2:4908, V-B:GLU:543:CB:9878, V-A:HIS:456:CE1:4066, V-A:ASP:366:CA:3207, V-A:ASP:366:CB:3209, H-B:GLU:543:OE1:9881, H-A:GLU:543:OE1:4907, H-B:GLU:543:OE2:9882, V-B:HIS:456:CE1:9040, V-A:GLU:543:CD:4906, V-A:GLU:543:CG:4905, V-B:GLU:543:C:9874, V-B:HIS:456:CD2:9039, V-A:GLU:543:C:4900, V-A:LYS:547:CE:4948, V-A:GLY:544:C:4910, V-A:HIS:456:CD2:4065, H-A:LYS:547:NZ:4949, H-B:HIS:456:NE2:9041, H-A:HIS:456:NE2:4067, V-A:ILE:369:CB:3233, V-A:PRO:482:CB:4323, V-A:PRO:482:CG:4324, V-A:LEU:373:CD1:3277, V-A:SER:385:CA:3404, V-A:SER:385:CB:3406"]

$$$$
3ce_Grossjean_2025
     RDKit          3D

 45 47  0  0  0  0  0  0  0  0999 V2000
  128.7560  122.7850   57.6400 C   0  0  0  0  0  0  0  0  0  0  0  0
  128.0640  123.2830   58.8950 C   0  0  0  0  0  0  0  0  0  0  0  0
  126.6760  123.2230   59.0370 C   0  0  0  0  0  0  0  0  0  0  0  0
  126.1090  123.6900   60.2220 C   0  0  0  0  0  0  0  0  0  0  0  0
  126.9340  124.2010   61.2270 C   0  0  0  0  0  0  0  0  0  0  0  0
  128.3170  124.2410   61.0160 C   0  0  0  0  0  0  0  0  0  0  0  0
  129.0980  124.7470   62.0690 N   0  0  0  0  0  0  0  0  0  0  0  0
  130.1960  125.5320   61.9920 C   0  0  0  0  0  0  0  0  0  0  0  0
  130.6960  125.9470   60.9450 O   0  0  0  0  0  0  0  0  0  0  0  0
  130.8280  125.9190   63.3280 C   0  0  0  0  0  0  0  0  0  0  0  0
  132.5440  125.3360   63.4610 S   0  0  0  0  0  0  0  0  0  0  0  0
  132.7420  124.1200   62.1800 C   0  0  0  0  0  0  0  0  0  0  0  0
  133.4070  124.5730   61.0890 N   0  0  0  0  0  0  0  0  0  0  0  0
  133.6240  123.7180   60.0630 C   0  0  0  0  0  0  0  0  0  0  0  0
  134.3850  124.2850   58.8800 C   0  0  0  0  0  0  0  0  0  0  0  0
  133.1800  122.3980   60.0800 C   0  0  0  0  0  0  0  0  0  0  0  0
  132.4690  121.9190   61.1880 C   0  0  0  0  0  0  0  0  0  0  0  0
  131.9920  120.5040   61.1490 C   0  0  0  0  0  0  0  0  0  0  0  0
  130.6660  120.2000   61.4830 C   0  0  0  0  0  0  0  0  0  0  0  0
  130.2160  118.8830   61.4550 C   0  0  0  0  0  0  0  0  0  0  0  0
  131.0920  117.8610   61.0990 C   0  0  0  0  0  0  0  0  0  0  0  0
  132.4160  118.1460   60.7750 C   0  0  0  0  0  0  0  0  0  0  0  0
  132.8630  119.4640   60.8020 C   0  0  0  0  0  0  0  0  0  0  0  0
  132.2430  122.7990   62.2760 C   0  0  0  0  0  0  0  0  0  0  0  0
  131.5180  122.3500   63.4690 C   0  0  0  0  0  0  0  0  0  0  0  0
  130.9460  121.9950   64.4090 N   0  0  0  0  0  0  0  0  0  0  0  0
  128.8790  123.7790   59.8610 N   0  0  0  0  0  0  0  0  0  0  0  0
  129.6195  122.1636   57.9195 H   0  0  0  0  0  0  0  0  0  0  0  0
  128.0505  122.1862   57.0453 H   0  0  0  0  0  0  0  0  0  0  0  0
  129.0997  123.6442   57.0453 H   0  0  0  0  0  0  0  0  0  0  0  0
  126.0449  122.8168   58.2328 H   0  0  0  0  0  0  0  0  0  0  0  0
  125.0188  123.6563   60.3648 H   0  0  0  0  0  0  0  0  0  0  0  0
  126.5028  124.5667   62.1706 H   0  0  0  0  0  0  0  0  0  0  0  0
  128.7350  124.5660   62.9930 H   0  0  0  0  0  0  0  0  0  0  0  0
  130.8165  127.0149   63.4225 H   0  0  0  0  0  0  0  0  0  0  0  0
  130.2441  125.4452   64.1309 H   0  0  0  0  0  0  0  0  0  0  0  0
  135.2177  124.9054   59.2429 H   0  0  0  0  0  0  0  0  0  0  0  0
  134.7812  123.4602   58.2695 H   0  0  0  0  0  0  0  0  0  0  0  0
  133.7080  124.9006   58.2695 H   0  0  0  0  0  0  0  0  0  0  0  0
  133.3867  121.7346   59.2273 H   0  0  0  0  0  0  0  0  0  0  0  0
  129.9758  121.0073   61.7693 H   0  0  0  0  0  0  0  0  0  0  0  0
  129.1723  118.6506   61.7132 H   0  0  0  0  0  0  0  0  0  0  0  0
  130.7356  116.8207   61.0735 H   0  0  0  0  0  0  0  0  0  0  0  0
  133.1049  117.3340   60.4992 H   0  0  0  0  0  0  0  0  0  0  0  0
  133.9092  119.6904   60.5486 H   0  0  0  0  0  0  0  0  0  0  0  0
  1  2  1  0
  2  3  2  0
  3  4  1  0
  4  5  2  0
  5  6  1  0
  6  7  1  0
  7  8  1  0
  8  9  2  0
  8 10  1  0
 10 11  1  0
 11 12  1  0
 12 13  2  0
 13 14  1  0
 14 15  1  0
 14 16  2  0
 16 17  1  0
 17 18  1  0
 18 19  2  0
 19 20  1  0
 20 21  2  0
 21 22  1  0
 22 23  2  0
 17 24  2  0
 24 25  1  0
 25 26  3  0
  6 27  2  0
 27  2  1  0
 24 12  1  0
 23 18  1  0
  1 28  1  0
  1 29  1  0
  1 30  1  0
  3 31  1  0
  4 32  1  0
  5 33  1  0
  7 34  1  0
 10 35  1  0
 10 36  1  0
 15 37  1  0
 15 38  1  0
 15 39  1  0
 16 40  1  0
 19 41  1  0
 20 42  1  0
 21 43  1  0
 22 44  1  0
 23 45  1  0
M  END
>  <Binding energies>  (1) 
[-7.79]

>  <Ligand effiencies>  (1) 
[-0.2782142857142857]

>  <Interactions>  (1) 
["V-B:ALA:541:CB:9864, V-B:TYR:539:CE1:9847, V-A:ILE:369:CG2:3234, V-A:ILE:369:CD1:3236, H-A:TYR:484:OH:4345, V-A:ASP:366:CG:3210, V-A:LEU:475:CD2:4256, V-B:PRO:540:CA:9855, V-B:PRO:540:CB:9857, H-A:ARG:545:NH2:4926, V-B:TYR:539:CD1:9845, V-B:PRO:540:N:9856, V-B:TYR:539:CG:9844, V-B:TYR:539:C:9839, V-B:GLU:543:CD:9880, V-A:ASP:366:CA:3207, V-A:ASP:366:CB:3209, H-B:GLU:543:OE1:9881, V-B:TYR:539:CZ:9849, H-B:GLU:543:OE2:9882, V-A:ILE:369:CB:3233, V-A:ASP:366:C:3205, V-A:PRO:482:CB:4323, V-B:TYR:539:CE2:9848, V-A:PRO:482:CG:4324, V-A:LEU:373:CD1:3277, V-A:SER:385:CA:3404, V-A:SER:385:CB:3406"]

$$$$
3ch_Grossjean_2025
     RDKit          3D

 55 57  0  0  0  0  0  0  0  0999 V2000
  130.2440  126.5440   56.5220 C   0  0  0  0  0  0  0  0  0  0  0  0
  131.4520  126.2500   57.2150 O   0  0  0  0  0  0  0  0  0  0  0  0
  131.4330  126.1110   58.5910 C   0  0  0  0  0  0  0  0  0  0  0  0
  130.6980  126.9400   59.4540 C   0  0  0  0  0  0  0  0  0  0  0  0
  130.7200  126.7320   60.8410 C   0  0  0  0  0  0  0  0  0  0  0  0
  130.0140  127.5050   61.7830 N   0  0  0  0  0  0  0  0  0  0  0  0
  128.7020  127.8230   61.8280 C   0  0  0  0  0  0  0  0  0  0  0  0
  127.8510  127.4620   61.0150 O   0  0  0  0  0  0  0  0  0  0  0  0
  128.2700  128.6700   63.0250 C   0  0  0  0  0  0  0  0  0  0  0  0
  127.9520  130.3990   62.5630 S   0  0  0  0  0  0  0  0  0  0  0  0
  128.1700  130.4880   60.7990 C   0  0  0  0  0  0  0  0  0  0  0  0
  127.0760  130.1110   60.0910 N   0  0  0  0  0  0  0  0  0  0  0  0
  127.1410  130.1360   58.7400 C   0  0  0  0  0  0  0  0  0  0  0  0
  125.8860  129.6980   58.0110 C   0  0  0  0  0  0  0  0  0  0  0  0
  128.2850  130.5300   58.0510 C   0  0  0  0  0  0  0  0  0  0  0  0
  129.4240  130.9290   58.7650 C   0  0  0  0  0  0  0  0  0  0  0  0
  130.6320  131.3340   57.9830 C   0  0  0  0  0  0  0  0  0  0  0  0
  130.5620  132.4070   57.0870 C   0  0  0  0  0  0  0  0  0  0  0  0
  131.6810  132.7840   56.3480 C   0  0  0  0  0  0  0  0  0  0  0  0
  132.8760  132.0850   56.5020 C   0  0  0  0  0  0  0  0  0  0  0  0
  132.9600  131.0120   57.3850 C   0  0  0  0  0  0  0  0  0  0  0  0
  131.8380  130.6370   58.1210 C   0  0  0  0  0  0  0  0  0  0  0  0
  129.3640  130.9280   60.1830 C   0  0  0  0  0  0  0  0  0  0  0  0
  130.4910  131.4250   60.9790 C   0  0  0  0  0  0  0  0  0  0  0  0
  131.3800  131.8160   61.6080 N   0  0  0  0  0  0  0  0  0  0  0  0
  131.5000  125.6990   61.3620 C   0  0  0  0  0  0  0  0  0  0  0  0
  132.2450  124.8580   60.5200 C   0  0  0  0  0  0  0  0  0  0  0  0
  133.0320  123.8120   60.9710 O   0  0  0  0  0  0  0  0  0  0  0  0
  134.0300  124.0610   61.9550 C   0  0  0  0  0  0  0  0  0  0  0  0
  132.2050  125.0770   59.1370 C   0  0  0  0  0  0  0  0  0  0  0  0
  132.9160  124.2500   58.3000 O   0  0  0  0  0  0  0  0  0  0  0  0
  134.3180  124.2540   58.5340 C   0  0  0  0  0  0  0  0  0  0  0  0
  129.4422  126.7391   57.2493 H   0  0  0  0  0  0  0  0  0  0  0  0
  130.3905  127.4327   55.8905 H   0  0  0  0  0  0  0  0  0  0  0  0
  129.9657  125.6874   55.8905 H   0  0  0  0  0  0  0  0  0  0  0  0
  130.0979  127.7623   59.0373 H   0  0  0  0  0  0  0  0  0  0  0  0
  130.5770  127.8310   62.5560 H   0  0  0  0  0  0  0  0  0  0  0  0
  127.3497  128.2414   63.4486 H   0  0  0  0  0  0  0  0  0  0  0  0
  129.0898  128.6615   63.7584 H   0  0  0  0  0  0  0  0  0  0  0  0
  125.1116  129.4277   58.7440 H   0  0  0  0  0  0  0  0  0  0  0  0
  125.5219  130.5222   57.3800 H   0  0  0  0  0  0  0  0  0  0  0  0
  126.1138  128.8262   57.3800 H   0  0  0  0  0  0  0  0  0  0  0  0
  128.2953  130.5283   56.9510 H   0  0  0  0  0  0  0  0  0  0  0  0
  129.6168  132.9564   56.9656 H   0  0  0  0  0  0  0  0  0  0  0  0
  131.6213  133.6292   55.6465 H   0  0  0  0  0  0  0  0  0  0  0  0
  133.7610  132.3834   55.9209 H   0  0  0  0  0  0  0  0  0  0  0  0
  133.9065  130.4636   57.5009 H   0  0  0  0  0  0  0  0  0  0  0  0
  131.9004  129.7866   58.8159 H   0  0  0  0  0  0  0  0  0  0  0  0
  131.5317  125.5410   62.4501 H   0  0  0  0  0  0  0  0  0  0  0  0
  133.5915  123.9516   62.9579 H   0  0  0  0  0  0  0  0  0  0  0  0
  134.8523  123.3405   61.8338 H   0  0  0  0  0  0  0  0  0  0  0  0
  134.4174  125.0833   61.8338 H   0  0  0  0  0  0  0  0  0  0  0  0
  134.5089  124.2545   59.6173 H   0  0  0  0  0  0  0  0  0  0  0  0
  134.7676  123.3571   58.0829 H   0  0  0  0  0  0  0  0  0  0  0  0
  134.7625  125.1534   58.0829 H   0  0  0  0  0  0  0  0  0  0  0  0
  1  2  1  0
  2  3  1  0
  3  4  2  0
  4  5  1  0
  5  6  1  0
  6  7  1  0
  7  8  2  0
  7  9  1  0
  9 10  1  0
 10 11  1  0
 11 12  2  0
 12 13  1  0
 13 14  1  0
 13 15  2  0
 15 16  1  0
 16 17  1  0
 17 18  2  0
 18 19  1  0
 19 20  2  0
 20 21  1  0
 21 22  2  0
 16 23  2  0
 23 24  1  0
 24 25  3  0
  5 26  2  0
 26 27  1  0
 27 28  1  0
 28 29  1  0
 27 30  2  0
 30 31  1  0
 31 32  1  0
 30  3  1  0
 23 11  1  0
 22 17  1  0
  1 33  1  0
  1 34  1  0
  1 35  1  0
  4 36  1  0
  6 37  1  0
  9 38  1  0
  9 39  1  0
 14 40  1  0
 14 41  1  0
 14 42  1  0
 15 43  1  0
 18 44  1  0
 19 45  1  0
 20 46  1  0
 21 47  1  0
 22 48  1  0
 26 49  1  0
 29 50  1  0
 29 51  1  0
 29 52  1  0
 32 53  1  0
 32 54  1  0
 32 55  1  0
M  END
>  <Binding energies>  (1) 
[-6.76]

>  <Ligand effiencies>  (1) 
[-0.20484848484848484]

>  <Interactions>  (1) 
["V-A:PRO:540:CA:4881, V-A:TYR:531:CE2:4791, V-A:ILE:538:CB:4860, V-A:ILE:369:CG2:3234, V-A:PRO:540:CD:4885, V-A:ILE:538:CG2:4861, V-A:ILE:369:CD1:3236, V-A:PRO:540:N:4882, V-A:ASP:366:CG:3210, V-A:LEU:363:CD1:3186, V-B:ASP:366:CB:8183, H-A:GLU:543:OE2:4908, V-A:ASP:366:CA:3207, V-A:ASP:366:CB:3209, H-A:GLU:543:OE1:4907, V-A:GLU:543:CD:4906, H-A:TYR:531:OH:4793, V-A:TYR:531:CZ:4792, V-A:TYR:539:C:4865, H-B:TYR:539:OH:9850, V-A:ILE:369:CB:3233, V-A:ASP:366:C:3205, V-B:MET:535:CE:9807, V-A:ILE:538:CA:4858, H-A:ALA:541:N:4889, V-A:GLY:453:CA:4041"]

$$$$
3ci_Grossjean_2025
     RDKit          3D

 39 41  0  0  0  0  0  0  0  0999 V2000
  132.3190  124.9010   64.5410 C   0  0  0  0  0  0  0  0  0  0  0  0
  131.6170  124.2800   63.3480 C   0  0  0  0  0  0  0  0  0  0  0  0
  131.8910  122.9800   62.9330 C   0  0  0  0  0  0  0  0  0  0  0  0
  131.2050  122.4450   61.8350 C   0  0  0  0  0  0  0  0  0  0  0  0
  131.5210  121.0400   61.4350 C   0  0  0  0  0  0  0  0  0  0  0  0
  132.8000  120.6950   60.9800 C   0  0  0  0  0  0  0  0  0  0  0  0
  133.0870  119.3870   60.6010 C   0  0  0  0  0  0  0  0  0  0  0  0
  132.0910  118.4170   60.6690 C   0  0  0  0  0  0  0  0  0  0  0  0
  130.8120  118.7450   61.1100 C   0  0  0  0  0  0  0  0  0  0  0  0
  130.5290  120.0540   61.4890 C   0  0  0  0  0  0  0  0  0  0  0  0
  130.2540  123.2610   61.1710 C   0  0  0  0  0  0  0  0  0  0  0  0
  129.5360  122.7700   59.9900 C   0  0  0  0  0  0  0  0  0  0  0  0
  128.9700  122.3800   59.0580 N   0  0  0  0  0  0  0  0  0  0  0  0
  130.0320  124.5700   61.6620 C   0  0  0  0  0  0  0  0  0  0  0  0
  128.8410  125.6770   60.9160 S   0  0  0  0  0  0  0  0  0  0  0  0
  127.1590  125.1900   61.4220 C   0  0  0  0  0  0  0  0  0  0  0  0
  126.5510  124.0950   60.5390 C   0  0  0  0  0  0  0  0  0  0  0  0
  126.0790  123.0870   61.0680 O   0  0  0  0  0  0  0  0  0  0  0  0
  126.5960  124.3230   59.2070 N   0  0  0  0  0  0  0  0  0  0  0  0
  126.0940  123.5130   58.1980 C   0  0  0  0  0  0  0  0  0  0  0  0
  124.7780  123.5900   57.7440 C   0  0  0  0  0  0  0  0  0  0  0  0
  124.6830  122.6340   56.7580 C   0  0  0  0  0  0  0  0  0  0  0  0
  125.8800  122.0150   56.6250 O   0  0  0  0  0  0  0  0  0  0  0  0
  126.7660  122.5800   57.5440 N   0  0  0  0  0  0  0  0  0  0  0  0
  130.7100  125.0670   62.7270 N   0  0  0  0  0  0  0  0  0  0  0  0
  131.8778  124.5107   65.4700 H   0  0  0  0  0  0  0  0  0  0  0  0
  133.3892  124.6485   64.5090 H   0  0  0  0  0  0  0  0  0  0  0  0
  132.1990  125.9940   64.5090 H   0  0  0  0  0  0  0  0  0  0  0  0
  132.6417  122.3763   63.4640 H   0  0  0  0  0  0  0  0  0  0  0  0
  133.5841  121.4643   60.9217 H   0  0  0  0  0  0  0  0  0  0  0  0
  134.0950  119.1213   60.2498 H   0  0  0  0  0  0  0  0  0  0  0  0
  132.3165  117.3822   60.3717 H   0  0  0  0  0  0  0  0  0  0  0  0
  130.0292  117.9737   61.1587 H   0  0  0  0  0  0  0  0  0  0  0  0
  129.5177  120.3157   61.8337 H   0  0  0  0  0  0  0  0  0  0  0  0
  127.1995  124.8206   62.4573 H   0  0  0  0  0  0  0  0  0  0  0  0
  126.5196  126.0796   61.3227 H   0  0  0  0  0  0  0  0  0  0  0  0
  127.0160  125.1880   58.9010 H   0  0  0  0  0  0  0  0  0  0  0  0
  123.9869  124.2678   58.0972 H   0  0  0  0  0  0  0  0  0  0  0  0
  123.7796  122.4090   56.1721 H   0  0  0  0  0  0  0  0  0  0  0  0
  1  2  1  0
  2  3  2  0
  3  4  1  0
  4  5  1  0
  5  6  2  0
  6  7  1  0
  7  8  2  0
  8  9  1  0
  9 10  2  0
  4 11  2  0
 11 12  1  0
 12 13  3  0
 11 14  1  0
 14 15  1  0
 15 16  1  0
 16 17  1  0
 17 18  2  0
 17 19  1  0
 19 20  1  0
 20 21  1  0
 21 22  2  0
 22 23  1  0
 23 24  1  0
 14 25  2  0
 25  2  1  0
 10  5  1  0
 24 20  2  0
  1 26  1  0
  1 27  1  0
  1 28  1  0
  3 29  1  0
  6 30  1  0
  7 31  1  0
  8 32  1  0
  9 33  1  0
 10 34  1  0
 16 35  1  0
 16 36  1  0
 19 37  1  0
 21 38  1  0
 22 39  1  0
M  END
>  <Binding energies>  (1) 
[-8.08]

>  <Ligand effiencies>  (1) 
[-0.3107692307692308]

>  <Interactions>  (1) 
["V-B:ALA:541:CB:9864, V-B:TYR:539:CE1:9847, V-A:ILE:369:CG2:3234, V-A:LEU:475:CD2:4256, V-B:PRO:540:CA:9855, V-B:ILE:538:CG2:9835, V-B:PRO:540:CB:9857, V-B:PRO:540:CD:9859, V-B:ILE:538:CB:9834, V-B:LEU:363:CD1:8160, V-B:TYR:539:CD1:9845, V-B:PRO:540:N:9856, H-B:ALA:541:N:9863, V-B:PRO:540:CG:9858, H-B:ASP:366:OD2:8186, V-A:PRO:482:CB:4323, H-B:TYR:539:N:9842, V-A:PRO:482:CG:4324, V-A:LEU:373:CD1:3277, V-A:SER:385:CA:3404, V-A:SER:385:CB:3406"]

$$$$
3cj_Grossjean_2025
     RDKit          3D

 39 41  0  0  0  0  0  0  0  0999 V2000
  131.8700  125.3620   57.0900 C   0  0  0  0  0  0  0  0  0  0  0  0
  130.7460  124.8660   57.9790 C   0  0  0  0  0  0  0  0  0  0  0  0
  129.4740  124.6110   57.4700 C   0  0  0  0  0  0  0  0  0  0  0  0
  128.4710  124.1310   58.3230 C   0  0  0  0  0  0  0  0  0  0  0  0
  127.1430  123.8100   57.7220 C   0  0  0  0  0  0  0  0  0  0  0  0
  126.0090  124.5550   58.0660 C   0  0  0  0  0  0  0  0  0  0  0  0
  124.7670  124.2470   57.5140 C   0  0  0  0  0  0  0  0  0  0  0  0
  124.6560  123.1860   56.6210 C   0  0  0  0  0  0  0  0  0  0  0  0
  125.7730  122.4290   56.2770 C   0  0  0  0  0  0  0  0  0  0  0  0
  127.0130  122.7400   56.8290 C   0  0  0  0  0  0  0  0  0  0  0  0
  128.7800  123.9520   59.6940 C   0  0  0  0  0  0  0  0  0  0  0  0
  127.7650  123.4800   60.6410 C   0  0  0  0  0  0  0  0  0  0  0  0
  126.9630  123.1060   61.3880 N   0  0  0  0  0  0  0  0  0  0  0  0
  130.0970  124.2310   60.1220 C   0  0  0  0  0  0  0  0  0  0  0  0
  130.6540  123.9220   61.7850 S   0  0  0  0  0  0  0  0  0  0  0  0
  130.0760  122.2370   62.1650 C   0  0  0  0  0  0  0  0  0  0  0  0
  131.0610  121.1720   61.6740 C   0  0  0  0  0  0  0  0  0  0  0  0
  132.2720  121.3570   61.8060 O   0  0  0  0  0  0  0  0  0  0  0  0
  130.4980  120.0600   61.1520 N   0  0  0  0  0  0  0  0  0  0  0  0
  131.1550  118.9040   60.7640 C   0  0  0  0  0  0  0  0  0  0  0  0
  130.6260  117.7440   60.4390 N   0  0  0  0  0  0  0  0  0  0  0  0
  131.5520  116.8730   60.0890 C   0  0  0  0  0  0  0  0  0  0  0  0
  132.8680  117.3220   60.1270 C   0  0  0  0  0  0  0  0  0  0  0  0
  132.8850  118.9800   60.6530 S   0  0  0  0  0  0  0  0  0  0  0  0
  131.0640  124.6700   59.2780 N   0  0  0  0  0  0  0  0  0  0  0  0
  132.6980  125.7274   57.7153 H   0  0  0  0  0  0  0  0  0  0  0  0
  132.2263  124.5375   56.4550 H   0  0  0  0  0  0  0  0  0  0  0  0
  131.5011  126.1809   56.4550 H   0  0  0  0  0  0  0  0  0  0  0  0
  129.2586  124.7854   56.4055 H   0  0  0  0  0  0  0  0  0  0  0  0
  126.0988  125.3895   58.7771 H   0  0  0  0  0  0  0  0  0  0  0  0
  123.8798  124.8392   57.7827 H   0  0  0  0  0  0  0  0  0  0  0  0
  123.6769  122.9428   56.1826 H   0  0  0  0  0  0  0  0  0  0  0  0
  125.6763  121.5896   55.5727 H   0  0  0  0  0  0  0  0  0  0  0  0
  127.8960  122.1410   56.5616 H   0  0  0  0  0  0  0  0  0  0  0  0
  129.9590  122.1382   63.2543 H   0  0  0  0  0  0  0  0  0  0  0  0
  129.1179  122.0801   61.6478 H   0  0  0  0  0  0  0  0  0  0  0  0
  129.4890  120.0240   61.1160 H   0  0  0  0  0  0  0  0  0  0  0  0
  131.2977  115.8473   59.7836 H   0  0  0  0  0  0  0  0  0  0  0  0
  133.7545  116.7252   59.8666 H   0  0  0  0  0  0  0  0  0  0  0  0
  1  2  1  0
  2  3  2  0
  3  4  1  0
  4  5  1  0
  5  6  2  0
  6  7  1  0
  7  8  2  0
  8  9  1  0
  9 10  2  0
  4 11  2  0
 11 12  1  0
 12 13  3  0
 11 14  1  0
 14 15  1  0
 15 16  1  0
 16 17  1  0
 17 18  2  0
 17 19  1  0
 19 20  1  0
 20 21  2  0
 21 22  1  0
 22 23  2  0
 23 24  1  0
 14 25  2  0
 25  2  1  0
 10  5  1  0
 24 20  1  0
  1 26  1  0
  1 27  1  0
  1 28  1  0
  3 29  1  0
  6 30  1  0
  7 31  1  0
  8 32  1  0
  9 33  1  0
 10 34  1  0
 16 35  1  0
 16 36  1  0
 19 37  1  0
 22 38  1  0
 23 39  1  0
M  END
>  <Binding energies>  (1) 
[-8.34]

>  <Ligand effiencies>  (1) 
[-0.32076923076923075]

>  <Interactions>  (1) 
["V-B:ALA:541:CB:9864, V-B:TYR:539:CE1:9847, V-A:LEU:475:CD2:4256, V-B:TYR:531:CE2:9765, V-B:ILE:538:CA:9832, V-B:PRO:540:CA:9855, V-B:ILE:538:CG2:9835, V-B:PRO:540:CD:9859, V-B:ILE:538:CB:9834, V-B:LEU:363:CD1:8160, V-B:TYR:539:CD1:9845, V-B:PRO:540:N:9856, V-B:TYR:539:C:9839, V-B:TYR:539:CZ:9849, H-B:ALA:541:N:9863, V-B:TYR:531:CZ:9766, V-B:ILE:538:C:9830, V-A:PRO:482:CG:4324, V-B:TYR:539:CB:9843, H-B:TYR:539:O:9840, V-A:LEU:373:CD1:3277, V-A:SER:385:CA:3404, V-A:SER:385:CB:3406"]

$$$$
3ck_Grossjean_2025
     RDKit          3D

 57 58  0  0  0  0  0  0  0  0999 V2000
  127.6470  127.9920   73.4620 C   0  0  0  0  0  0  0  0  0  0  0  0
  128.3930  127.1410   72.6060 O   0  0  0  0  0  0  0  0  0  0  0  0
  129.2340  127.8430   71.7020 C   0  0  0  0  0  0  0  0  0  0  0  0
  129.3950  127.0290   70.4110 C   0  0  0  0  0  0  0  0  0  0  0  0
  130.2690  127.7180   69.5270 O   0  0  0  0  0  0  0  0  0  0  0  0
  129.7020  127.9920   68.2520 C   0  0  0  0  0  0  0  0  0  0  0  0
  129.4960  126.6710   67.5010 C   0  0  0  0  0  0  0  0  0  0  0  0
  130.6630  126.4050   66.7360 O   0  0  0  0  0  0  0  0  0  0  0  0
  131.0420  125.0380   66.6830 C   0  0  0  0  0  0  0  0  0  0  0  0
  130.5630  124.4220   65.3560 C   0  0  0  0  0  0  0  0  0  0  0  0
  131.3750  124.8080   64.1980 N   0  0  0  0  0  0  0  0  0  0  0  0
  132.7150  124.9340   64.1870 C   0  0  0  0  0  0  0  0  0  0  0  0
  133.4230  124.7050   65.1700 O   0  0  0  0  0  0  0  0  0  0  0  0
  133.3260  125.3820   62.8500 C   0  0  0  0  0  0  0  0  0  0  0  0
  132.1530  125.5110   61.4570 S   0  0  0  0  0  0  0  0  0  0  0  0
  131.1730  124.0190   61.3760 C   0  0  0  0  0  0  0  0  0  0  0  0
  129.8300  124.1950   61.4520 N   0  0  0  0  0  0  0  0  0  0  0  0
  129.0280  123.1090   61.4020 C   0  0  0  0  0  0  0  0  0  0  0  0
  127.5390  123.3840   61.4960 C   0  0  0  0  0  0  0  0  0  0  0  0
  129.5250  121.8140   61.2770 C   0  0  0  0  0  0  0  0  0  0  0  0
  130.9080  121.6070   61.2030 C   0  0  0  0  0  0  0  0  0  0  0  0
  131.3970  120.2000   61.0920 C   0  0  0  0  0  0  0  0  0  0  0  0
  130.5630  119.1360   61.4540 C   0  0  0  0  0  0  0  0  0  0  0  0
  131.0150  117.8210   61.3630 C   0  0  0  0  0  0  0  0  0  0  0  0
  132.3080  117.5670   60.9150 C   0  0  0  0  0  0  0  0  0  0  0  0
  133.1530  118.6160   60.5600 C   0  0  0  0  0  0  0  0  0  0  0  0
  132.6980  119.9280   60.6510 C   0  0  0  0  0  0  0  0  0  0  0  0
  131.7620  122.7400   61.2420 C   0  0  0  0  0  0  0  0  0  0  0  0
  133.2170  122.5870   61.1260 C   0  0  0  0  0  0  0  0  0  0  0  0
  134.3640  122.4660   61.0350 N   0  0  0  0  0  0  0  0  0  0  0  0
  127.8666  127.7414   74.5103 H   0  0  0  0  0  0  0  0  0  0  0  0
  127.9234  129.0392   73.2696 H   0  0  0  0  0  0  0  0  0  0  0  0
  126.5726  127.8551   73.2696 H   0  0  0  0  0  0  0  0  0  0  0  0
  128.7841  128.8187   71.4659 H   0  0  0  0  0  0  0  0  0  0  0  0
  130.2208  127.9946   72.1638 H   0  0  0  0  0  0  0  0  0  0  0  0
  129.8171  126.0416   70.6495 H   0  0  0  0  0  0  0  0  0  0  0  0
  128.4132  126.8999   69.9320 H   0  0  0  0  0  0  0  0  0  0  0  0
  128.7337  128.4978   68.3803 H   0  0  0  0  0  0  0  0  0  0  0  0
  130.3773  128.6436   67.6780 H   0  0  0  0  0  0  0  0  0  0  0  0
  129.3297  125.8561   68.2209 H   0  0  0  0  0  0  0  0  0  0  0  0
  128.6191  126.7436   66.8409 H   0  0  0  0  0  0  0  0  0  0  0  0
  132.1371  124.9586   66.7496 H   0  0  0  0  0  0  0  0  0  0  0  0
  130.5826  124.4980   67.5240 H   0  0  0  0  0  0  0  0  0  0  0  0
  130.5931  123.3265   65.4512 H   0  0  0  0  0  0  0  0  0  0  0  0
  129.5462  124.8008   65.1752 H   0  0  0  0  0  0  0  0  0  0  0  0
  130.8700  124.9990   63.3460 H   0  0  0  0  0  0  0  0  0  0  0  0
  133.7841  126.3707   63.0006 H   0  0  0  0  0  0  0  0  0  0  0  0
  134.0459  124.5994   62.5685 H   0  0  0  0  0  0  0  0  0  0  0  0
  127.2423  123.4388   62.5538 H   0  0  0  0  0  0  0  0  0  0  0  0
  127.3106  124.3395   61.0012 H   0  0  0  0  0  0  0  0  0  0  0  0
  126.9844  122.5731   61.0012 H   0  0  0  0  0  0  0  0  0  0  0  0
  128.8349  120.9584   61.2366 H   0  0  0  0  0  0  0  0  0  0  0  0
  129.5433  119.3392   61.8130 H   0  0  0  0  0  0  0  0  0  0  0  0
  130.3535  116.9882   61.6437 H   0  0  0  0  0  0  0  0  0  0  0  0
  132.6656  116.5294   60.8406 H   0  0  0  0  0  0  0  0  0  0  0  0
  134.1748  118.4083   60.2095 H   0  0  0  0  0  0  0  0  0  0  0  0
  133.3653  120.7576   60.3745 H   0  0  0  0  0  0  0  0  0  0  0  0
  1  2  1  0
  2  3  1  0
  3  4  1  0
  4  5  1  0
  5  6  1  0
  6  7  1  0
  7  8  1  0
  8  9  1  0
  9 10  1  0
 10 11  1  0
 11 12  1  0
 12 13  2  0
 12 14  1  0
 14 15  1  0
 15 16  1  0
 16 17  2  0
 17 18  1  0
 18 19  1  0
 18 20  2  0
 20 21  1  0
 21 22  1  0
 22 23  2  0
 23 24  1  0
 24 25  2  0
 25 26  1  0
 26 27  2  0
 21 28  2  0
 28 29  1  0
 29 30  3  0
 28 16  1  0
 27 22  1  0
  1 31  1  0
  1 32  1  0
  1 33  1  0
  3 34  1  0
  3 35  1  0
  4 36  1  0
  4 37  1  0
  6 38  1  0
  6 39  1  0
  7 40  1  0
  7 41  1  0
  9 42  1  0
  9 43  1  0
 10 44  1  0
 10 45  1  0
 11 46  1  0
 14 47  1  0
 14 48  1  0
 19 49  1  0
 19 50  1  0
 19 51  1  0
 20 52  1  0
 23 53  1  0
 24 54  1  0
 25 55  1  0
 26 56  1  0
 27 57  1  0
M  END
>  <Binding energies>  (1) 
[-6.16]

>  <Ligand effiencies>  (1) 
[-0.19870967741935483]

>  <Interactions>  (1) 
["V-A:ARG:545:CZ:4924, V-B:ALA:541:CB:9864, V-B:TYR:539:CE1:9847, V-A:ILE:369:CG2:3234, V-A:ILE:369:CD1:3236, H-A:GLY:454:N:4047, H-A:TYR:484:OH:4345, V-A:LEU:475:CD2:4256, V-B:PRO:540:CA:9855, H-A:ARG:545:NH2:4926, V-B:TYR:539:CD1:9845, V-B:GLU:543:CD:9880, V-B:GLU:543:CG:9879, V-B:GLU:543:CB:9878, V-A:HIS:456:CE1:4066, H-B:GLU:543:OE1:9881, V-B:HIS:456:CE1:9040, V-A:GLU:543:CB:4904, V-A:GLU:543:CD:4906, V-A:GLU:543:CG:4905, V-B:HIS:456:CD2:9039, V-A:GLU:543:C:4900, V-B:LYS:547:CE:9922, V-A:HIS:456:CD2:4065, V-B:HIS:456:CG:9037, H-A:HIS:456:NE2:4067, V-A:PRO:482:CB:4323, V-A:TYR:484:CZ:4344, V-A:TYR:484:CE2:4343, V-A:PRO:482:CG:4324, V-A:LEU:373:CD1:3277, V-A:SER:385:CA:3404, V-A:SER:385:CB:3406"]

$$$$
4aa_Grossjean_2025
     RDKit          3D

 45 47  0  0  0  0  0  0  0  0999 V2000
  133.3470  131.8430   57.3970 C   0  0  0  0  0  0  0  0  0  0  0  0
  132.4530  132.4880   56.3340 C   0  0  0  0  0  0  0  0  0  0  0  0
  131.4190  133.2270   56.9710 O   0  0  0  0  0  0  0  0  0  0  0  0
  130.2020  132.6710   57.2050 C   0  0  0  0  0  0  0  0  0  0  0  0
  129.1340  133.2510   56.9800 O   0  0  0  0  0  0  0  0  0  0  0  0
  130.2830  131.2830   57.7700 C   0  0  0  0  0  0  0  0  0  0  0  0
  130.2350  130.1860   56.9000 C   0  0  0  0  0  0  0  0  0  0  0  0
  130.3020  128.8860   57.3930 C   0  0  0  0  0  0  0  0  0  0  0  0
  130.4280  128.6560   58.7640 C   0  0  0  0  0  0  0  0  0  0  0  0
  130.4790  127.3030   59.1540 N   0  0  0  0  0  0  0  0  0  0  0  0
  129.7620  126.2410   58.7170 C   0  0  0  0  0  0  0  0  0  0  0  0
  128.8610  126.3100   57.8810 O   0  0  0  0  0  0  0  0  0  0  0  0
  130.1080  124.9580   59.3330 C   0  0  0  0  0  0  0  0  0  0  0  0
  128.8690  123.7210   59.5700 S   0  0  0  0  0  0  0  0  0  0  0  0
  130.0210  122.6480   60.3300 C   0  0  0  0  0  0  0  0  0  0  0  0
  129.6730  121.4390   60.7750 N   0  0  0  0  0  0  0  0  0  0  0  0
  130.6600  120.7090   61.3490 C   0  0  0  0  0  0  0  0  0  0  0  0
  130.2410  119.3400   61.8530 C   0  0  0  0  0  0  0  0  0  0  0  0
  131.9740  121.1520   61.4820 C   0  0  0  0  0  0  0  0  0  0  0  0
  132.3370  122.4190   61.0130 C   0  0  0  0  0  0  0  0  0  0  0  0
  133.7840  122.8580   61.1810 C   0  0  0  0  0  0  0  0  0  0  0  0
  131.3280  123.2170   60.4090 C   0  0  0  0  0  0  0  0  0  0  0  0
  131.3480  124.5370   59.8370 C   0  0  0  0  0  0  0  0  0  0  0  0
  132.4890  125.2980   59.7940 N   0  0  0  0  0  0  0  0  0  0  0  0
  130.4720  129.7470   59.6440 C   0  0  0  0  0  0  0  0  0  0  0  0
  130.4010  131.0470   59.1480 C   0  0  0  0  0  0  0  0  0  0  0  0
  132.9773  132.1098   58.3981 H   0  0  0  0  0  0  0  0  0  0  0  0
  133.3275  130.7496   57.2782 H   0  0  0  0  0  0  0  0  0  0  0  0
  134.3784  132.2063   57.2782 H   0  0  0  0  0  0  0  0  0  0  0  0
  133.0553  133.1637   55.7089 H   0  0  0  0  0  0  0  0  0  0  0  0
  132.0088  131.7041   55.7029 H   0  0  0  0  0  0  0  0  0  0  0  0
  130.1435  130.3536   55.8167 H   0  0  0  0  0  0  0  0  0  0  0  0
  130.2554  128.0347   56.6979 H   0  0  0  0  0  0  0  0  0  0  0  0
  131.1500  127.1100   59.8840 H   0  0  0  0  0  0  0  0  0  0  0  0
  130.2406  119.3386   62.9530 H   0  0  0  0  0  0  0  0  0  0  0  0
  129.2306  119.1075   61.4856 H   0  0  0  0  0  0  0  0  0  0  0  0
  130.9482  118.5818   61.4856 H   0  0  0  0  0  0  0  0  0  0  0  0
  132.7267  120.5051   61.9562 H   0  0  0  0  0  0  0  0  0  0  0  0
  134.0231  122.9306   62.2522 H   0  0  0  0  0  0  0  0  0  0  0  0
  134.4483  122.1210   60.7061 H   0  0  0  0  0  0  0  0  0  0  0  0
  133.9268  123.8399   60.7061 H   0  0  0  0  0  0  0  0  0  0  0  0
  132.8740  125.7270   60.6230 H   0  0  0  0  0  0  0  0  0  0  0  0
  132.9820  125.4570   58.9280 H   0  0  0  0  0  0  0  0  0  0  0  0
  130.5627  129.5762   60.7269 H   0  0  0  0  0  0  0  0  0  0  0  0
  130.4379  131.8977   59.8444 H   0  0  0  0  0  0  0  0  0  0  0  0
  1  2  1  0
  2  3  1  0
  3  4  1  0
  4  5  2  0
  4  6  1  0
  6  7  2  0
  7  8  1  0
  8  9  2  0
  9 10  1  0
 10 11  1  0
 11 12  2  0
 11 13  1  0
 13 14  1  0
 14 15  1  0
 15 16  2  0
 16 17  1  0
 17 18  1  0
 17 19  2  0
 19 20  1  0
 20 21  1  0
 20 22  2  0
 22 23  1  0
 23 24  1  0
  9 25  1  0
 25 26  2  0
 26  6  1  0
 23 13  2  0
 22 15  1  0
  1 27  1  0
  1 28  1  0
  1 29  1  0
  2 30  1  0
  2 31  1  0
  7 32  1  0
  8 33  1  0
 10 34  1  0
 18 35  1  0
 18 36  1  0
 18 37  1  0
 19 38  1  0
 21 39  1  0
 21 40  1  0
 21 41  1  0
 24 42  1  0
 24 43  1  0
 25 44  1  0
 26 45  1  0
M  END
>  <Binding energies>  (1) 
[-6.29]

>  <Ligand effiencies>  (1) 
[-0.21689655172413794]

>  <Interactions>  (1) 
["V-A:TYR:531:CE2:4791, V-A:ILE:538:CB:4860, V-B:ALA:541:CB:9864, V-B:TYR:539:CE1:9847, V-A:ILE:369:CG2:3234, V-A:PRO:540:CD:4885, V-A:ILE:538:CG2:4861, V-A:PRO:540:CB:4883, V-A:ILE:369:CD1:3236, V-A:LEU:363:CA:3182, V-A:PRO:540:N:4882, V-A:ASP:366:CG:3210, V-A:LEU:475:CD2:4256, V-A:LEU:363:CD1:3186, V-B:TYR:539:CD1:9845, V-A:ASP:366:CB:3209, V-A:TYR:539:C:4865, H-A:ASP:366:OD2:3212, H-A:TYR:539:N:4868, H-A:ASP:366:OD1:3211, V-A:MET:535:CE:4833, V-A:PRO:482:CB:4323, V-A:PRO:482:CG:4324, V-A:LEU:363:CB:3184"]

$$$$
4ab_Grossjean_2025
     RDKit          3D

 42 44  0  0  0  0  0  0  0  0999 V2000
  128.0780  127.3950   73.1040 C   0  0  0  0  0  0  0  0  0  0  0  0
  128.9520  126.4610   72.4860 O   0  0  0  0  0  0  0  0  0  0  0  0
  129.8240  126.8530   71.5220 C   0  0  0  0  0  0  0  0  0  0  0  0
  131.0470  126.8990   71.6890 O   0  0  0  0  0  0  0  0  0  0  0  0
  129.1520  127.2330   70.2340 C   0  0  0  0  0  0  0  0  0  0  0  0
  129.8730  127.9600   69.2770 C   0  0  0  0  0  0  0  0  0  0  0  0
  129.2770  128.3290   68.0730 C   0  0  0  0  0  0  0  0  0  0  0  0
  127.9570  127.9730   67.7990 C   0  0  0  0  0  0  0  0  0  0  0  0
  127.4540  128.4050   66.5560 N   0  0  0  0  0  0  0  0  0  0  0  0
  126.3250  129.0950   66.2630 C   0  0  0  0  0  0  0  0  0  0  0  0
  125.4870  129.4400   67.0970 O   0  0  0  0  0  0  0  0  0  0  0  0
  126.1320  129.4010   64.8440 C   0  0  0  0  0  0  0  0  0  0  0  0
  124.6400  130.1660   64.2930 S   0  0  0  0  0  0  0  0  0  0  0  0
  125.1770  130.1270   62.6300 C   0  0  0  0  0  0  0  0  0  0  0  0
  124.4280  130.6020   61.6340 N   0  0  0  0  0  0  0  0  0  0  0  0
  124.9610  130.5100   60.3910 C   0  0  0  0  0  0  0  0  0  0  0  0
  124.0900  131.0500   59.2720 C   0  0  0  0  0  0  0  0  0  0  0  0
  126.2140  129.9630   60.1240 C   0  0  0  0  0  0  0  0  0  0  0  0
  126.9980  129.4650   61.1710 C   0  0  0  0  0  0  0  0  0  0  0  0
  128.3580  128.8760   60.8280 C   0  0  0  0  0  0  0  0  0  0  0  0
  126.4710  129.5410   62.4890 C   0  0  0  0  0  0  0  0  0  0  0  0
  126.9890  129.1300   63.7660 C   0  0  0  0  0  0  0  0  0  0  0  0
  128.2170  128.5310   63.8990 N   0  0  0  0  0  0  0  0  0  0  0  0
  127.2260  127.2500   68.7540 C   0  0  0  0  0  0  0  0  0  0  0  0
  127.8220  126.8840   69.9570 C   0  0  0  0  0  0  0  0  0  0  0  0
  128.1607  127.3066   74.1973 H   0  0  0  0  0  0  0  0  0  0  0  0
  128.3541  128.4145   72.7966 H   0  0  0  0  0  0  0  0  0  0  0  0
  127.0425  127.1871   72.7966 H   0  0  0  0  0  0  0  0  0  0  0  0
  130.9172  128.2414   69.4780 H   0  0  0  0  0  0  0  0  0  0  0  0
  129.8519  128.9053   67.3332 H   0  0  0  0  0  0  0  0  0  0  0  0
  128.0260  128.1420   65.7680 H   0  0  0  0  0  0  0  0  0  0  0  0
  123.2295  131.5835   59.7020 H   0  0  0  0  0  0  0  0  0  0  0  0
  124.6778  131.7423   58.6514 H   0  0  0  0  0  0  0  0  0  0  0  0
  123.7313  130.2156   58.6514 H   0  0  0  0  0  0  0  0  0  0  0  0
  126.5873  129.9225   59.0901 H   0  0  0  0  0  0  0  0  0  0  0  0
  128.9004  128.6411   61.7557 H   0  0  0  0  0  0  0  0  0  0  0  0
  128.2216  127.9563   60.2401 H   0  0  0  0  0  0  0  0  0  0  0  0
  128.9355  129.6047   60.2401 H   0  0  0  0  0  0  0  0  0  0  0  0
  128.3110  127.5580   64.1500 H   0  0  0  0  0  0  0  0  0  0  0  0
  129.0720  129.0500   63.7530 H   0  0  0  0  0  0  0  0  0  0  0  0
  126.1811  126.9724   68.5515 H   0  0  0  0  0  0  0  0  0  0  0  0
  127.2435  126.3145   70.6992 H   0  0  0  0  0  0  0  0  0  0  0  0
  1  2  1  0
  2  3  1  0
  3  4  2  0
  3  5  1  0
  5  6  2  0
  6  7  1  0
  7  8  2  0
  8  9  1  0
  9 10  1  0
 10 11  2  0
 10 12  1  0
 12 13  1  0
 13 14  1  0
 14 15  2  0
 15 16  1  0
 16 17  1  0
 16 18  2  0
 18 19  1  0
 19 20  1  0
 19 21  2  0
 21 22  1  0
 22 23  1  0
  8 24  1  0
 24 25  2  0
 25  5  1  0
 22 12  2  0
 21 14  1  0
  1 26  1  0
  1 27  1  0
  1 28  1  0
  6 29  1  0
  7 30  1  0
  9 31  1  0
 17 32  1  0
 17 33  1  0
 17 34  1  0
 18 35  1  0
 20 36  1  0
 20 37  1  0
 20 38  1  0
 23 39  1  0
 23 40  1  0
 24 41  1  0
 25 42  1  0
M  END
>  <Binding energies>  (1) 
[-6.19]

>  <Ligand effiencies>  (1) 
[-0.22107142857142859]

>  <Interactions>  (1) 
["V-B:ILE:369:CG2:8208, V-B:ARG:545:CZ:9898, V-A:TYR:539:CE1:4873, V-B:ASP:366:CG:8184, H-B:TYR:484:OH:9319, V-B:ASP:366:CB:8183, H-B:ARG:545:NE:9896, V-B:ILE:369:CB:8207, V-B:GLU:543:CD:9880, V-B:GLU:543:CG:9879, H-A:GLU:543:OE2:4908, V-A:HIS:456:CE1:4066, H-B:GLU:543:OE1:9881, H-A:GLU:543:OE1:4907, H-B:GLU:543:OE2:9882, V-B:HIS:456:CE1:9040, V-A:GLU:543:CB:4904, V-A:TYR:539:CZ:4875, V-A:GLU:543:CD:4906, V-A:GLU:543:CG:4905, V-B:GLU:543:C:9874, V-B:GLY:544:CA:9886, V-A:GLU:543:C:4900, V-B:LYS:547:CE:9922, V-B:GLY:544:C:9884, V-A:HIS:456:CD2:4065, H-A:HIS:456:NE2:4067, V-B:GLY:454:CA:9020, V-B:ASP:366:CA:8181, V-B:ARG:545:CG:9894"]

$$$$
4ac_Grossjean_2025
     RDKit          3D

 40 42  0  0  0  0  0  0  0  0999 V2000
  130.9410  127.2060   72.3660 C   0  0  0  0  0  0  0  0  0  0  0  0
  129.9110  126.5470   71.6370 O   0  0  0  0  0  0  0  0  0  0  0  0
  129.5530  127.0260   70.3920 C   0  0  0  0  0  0  0  0  0  0  0  0
  128.2110  126.8950   70.0360 C   0  0  0  0  0  0  0  0  0  0  0  0
  127.7570  127.3490   68.8010 C   0  0  0  0  0  0  0  0  0  0  0  0
  128.6420  127.9520   67.9060 C   0  0  0  0  0  0  0  0  0  0  0  0
  128.0960  128.3690   66.6780 N   0  0  0  0  0  0  0  0  0  0  0  0
  127.6470  129.5930   66.3100 C   0  0  0  0  0  0  0  0  0  0  0  0
  127.6200  130.5710   67.0600 O   0  0  0  0  0  0  0  0  0  0  0  0
  127.1690  129.6980   64.9290 C   0  0  0  0  0  0  0  0  0  0  0  0
  125.8850  130.8340   64.5140 S   0  0  0  0  0  0  0  0  0  0  0  0
  125.9310  130.3460   62.8350 C   0  0  0  0  0  0  0  0  0  0  0  0
  125.1260  130.8870   61.9200 N   0  0  0  0  0  0  0  0  0  0  0  0
  125.2630  130.4200   60.6550 C   0  0  0  0  0  0  0  0  0  0  0  0
  124.3380  131.0480   59.6300 C   0  0  0  0  0  0  0  0  0  0  0  0
  126.1760  129.4320   60.2890 C   0  0  0  0  0  0  0  0  0  0  0  0
  127.0190  128.8660   61.2510 C   0  0  0  0  0  0  0  0  0  0  0  0
  127.9980  127.7930   60.8020 C   0  0  0  0  0  0  0  0  0  0  0  0
  126.9050  129.3330   62.5880 C   0  0  0  0  0  0  0  0  0  0  0  0
  127.5980  128.9830   63.7990 C   0  0  0  0  0  0  0  0  0  0  0  0
  128.5870  128.0320   63.8280 N   0  0  0  0  0  0  0  0  0  0  0  0
  129.9950  128.0770   68.2510 C   0  0  0  0  0  0  0  0  0  0  0  0
  130.4460  127.6200   69.4870 C   0  0  0  0  0  0  0  0  0  0  0  0
  130.7589  127.0895   73.4446 H   0  0  0  0  0  0  0  0  0  0  0  0
  131.9140  126.7623   72.1084 H   0  0  0  0  0  0  0  0  0  0  0  0
  130.9459  128.2754   72.1084 H   0  0  0  0  0  0  0  0  0  0  0  0
  127.5044  126.4283   70.7380 H   0  0  0  0  0  0  0  0  0  0  0  0
  126.6974  127.2322   68.5296 H   0  0  0  0  0  0  0  0  0  0  0  0
  128.0010  127.6340   65.9910 H   0  0  0  0  0  0  0  0  0  0  0  0
  123.5346  131.5935   60.1467 H   0  0  0  0  0  0  0  0  0  0  0  0
  124.9088  131.7461   59.0000 H   0  0  0  0  0  0  0  0  0  0  0  0
  123.8998  130.2599   59.0000 H   0  0  0  0  0  0  0  0  0  0  0  0
  126.2335  129.0973   59.2427 H   0  0  0  0  0  0  0  0  0  0  0  0
  128.4406  127.3080   61.6845 H   0  0  0  0  0  0  0  0  0  0  0  0
  127.4674  127.0420   60.1983 H   0  0  0  0  0  0  0  0  0  0  0  0
  128.7944  128.2527   60.1983 H   0  0  0  0  0  0  0  0  0  0  0  0
  129.5640  128.2770   63.7630 H   0  0  0  0  0  0  0  0  0  0  0  0
  128.3670  127.0500   63.9180 H   0  0  0  0  0  0  0  0  0  0  0  0
  130.7016  128.5368   67.5444 H   0  0  0  0  0  0  0  0  0  0  0  0
  131.5076  127.7252   69.7551 H   0  0  0  0  0  0  0  0  0  0  0  0
  1  2  1  0
  2  3  1  0
  3  4  2  0
  4  5  1  0
  5  6  2  0
  6  7  1  0
  7  8  1  0
  8  9  2  0
  8 10  1  0
 10 11  1  0
 11 12  1  0
 12 13  2  0
 13 14  1  0
 14 15  1  0
 14 16  2  0
 16 17  1  0
 17 18  1  0
 17 19  2  0
 19 20  1  0
 20 21  1  0
  6 22  1  0
 22 23  2  0
 23  3  1  0
 20 10  2  0
 19 12  1  0
  1 24  1  0
  1 25  1  0
  1 26  1  0
  4 27  1  0
  5 28  1  0
  7 29  1  0
 15 30  1  0
 15 31  1  0
 15 32  1  0
 16 33  1  0
 18 34  1  0
 18 35  1  0
 18 36  1  0
 21 37  1  0
 21 38  1  0
 22 39  1  0
 23 40  1  0
M  END
>  <Binding energies>  (1) 
[-5.82]

>  <Ligand effiencies>  (1) 
[-0.22384615384615386]

>  <Interactions>  (1) 
["V-B:ILE:369:CG2:8208, V-A:TYR:539:CE1:4873, V-B:ASP:366:CG:8184, H-B:TYR:484:OH:9319, V-B:GLU:543:CD:9880, V-B:GLU:543:CG:9879, H-A:GLU:543:OE2:4908, V-A:HIS:456:CE1:4066, H-B:GLU:543:OE1:9881, H-A:GLU:543:OE1:4907, H-B:GLU:543:OE2:9882, V-B:HIS:456:CE1:9040, V-A:GLU:543:CB:4904, V-A:GLU:543:CD:4906, V-A:GLU:543:CG:4905, V-B:GLU:543:C:9874, V-A:GLU:543:C:4900, V-A:GLY:544:C:4910, V-A:HIS:456:CG:4063, V-B:GLY:544:C:9884, V-A:HIS:456:CD2:4065, V-A:GLY:544:CA:4912, H-B:HIS:456:NE2:9041, H-A:HIS:456:NE2:4067"]

$$$$
4ad_Grossjean_2025
     RDKit          3D

 36 38  0  0  0  0  0  0  0  0999 V2000
  128.3030  128.0020   62.7430 C   0  0  0  0  0  0  0  0  0  0  0  0
  128.4560  126.5540   62.3160 C   0  0  0  0  0  0  0  0  0  0  0  0
  127.3850  125.8490   61.7720 C   0  0  0  0  0  0  0  0  0  0  0  0
  127.5490  124.5130   61.3870 C   0  0  0  0  0  0  0  0  0  0  0  0
  126.3490  123.7840   60.8000 C   0  0  0  0  0  0  0  0  0  0  0  0
  128.8280  123.9220   61.5720 C   0  0  0  0  0  0  0  0  0  0  0  0
  129.3380  122.6060   61.2950 C   0  0  0  0  0  0  0  0  0  0  0  0
  128.5590  121.6220   60.7390 N   0  0  0  0  0  0  0  0  0  0  0  0
  130.6870  122.4320   61.6420 C   0  0  0  0  0  0  0  0  0  0  0  0
  131.5130  121.2290   61.5140 C   0  0  0  0  0  0  0  0  0  0  0  0
  132.6950  121.2400   61.8640 O   0  0  0  0  0  0  0  0  0  0  0  0
  130.8810  120.1420   61.0070 N   0  0  0  0  0  0  0  0  0  0  0  0
  131.3930  118.8620   60.7210 C   0  0  0  0  0  0  0  0  0  0  0  0
  132.7850  118.7680   60.6220 C   0  0  0  0  0  0  0  0  0  0  0  0
  133.3880  117.5430   60.3520 C   0  0  0  0  0  0  0  0  0  0  0  0
  132.6000  116.4070   60.1900 C   0  0  0  0  0  0  0  0  0  0  0  0
  131.2140  116.4840   60.3000 C   0  0  0  0  0  0  0  0  0  0  0  0
  130.6080  117.7080   60.5680 C   0  0  0  0  0  0  0  0  0  0  0  0
  131.3650  123.9110   62.3230 S   0  0  0  0  0  0  0  0  0  0  0  0
  129.8420  124.7510   62.1410 C   0  0  0  0  0  0  0  0  0  0  0  0
  129.6880  126.0240   62.5080 N   0  0  0  0  0  0  0  0  0  0  0  0
  128.2967  128.0617   63.8414 H   0  0  0  0  0  0  0  0  0  0  0  0
  129.1439  128.5914   62.3486 H   0  0  0  0  0  0  0  0  0  0  0  0
  127.3575  128.4026   62.3486 H   0  0  0  0  0  0  0  0  0  0  0  0
  126.4100  126.3421   61.6448 H   0  0  0  0  0  0  0  0  0  0  0  0
  125.7180  123.4007   61.6154 H   0  0  0  0  0  0  0  0  0  0  0  0
  125.7645  124.4798   60.1802 H   0  0  0  0  0  0  0  0  0  0  0  0
  126.6971  122.9446   60.1802 H   0  0  0  0  0  0  0  0  0  0  0  0
  128.1290  121.7290   59.8320 H   0  0  0  0  0  0  0  0  0  0  0  0
  128.3930  120.7490   61.2220 H   0  0  0  0  0  0  0  0  0  0  0  0
  129.8960  120.2490   60.8180 H   0  0  0  0  0  0  0  0  0  0  0  0
  133.4057  119.6659   60.7581 H   0  0  0  0  0  0  0  0  0  0  0  0
  134.4825  117.4728   60.2670 H   0  0  0  0  0  0  0  0  0  0  0  0
  133.0765  115.4396   59.9731 H   0  0  0  0  0  0  0  0  0  0  0  0
  130.5998  115.5800   60.1754 H   0  0  0  0  0  0  0  0  0  0  0  0
  129.5137  117.7713   60.6600 H   0  0  0  0  0  0  0  0  0  0  0  0
  1  2  1  0
  2  3  2  0
  3  4  1  0
  4  5  1  0
  4  6  2  0
  6  7  1  0
  7  8  1  0
  7  9  2  0
  9 10  1  0
 10 11  2  0
 10 12  1  0
 12 13  1  0
 13 14  2  0
 14 15  1  0
 15 16  2  0
 16 17  1  0
 17 18  2  0
  9 19  1  0
 19 20  1  0
 20 21  2  0
 21  2  1  0
 20  6  1  0
 18 13  1  0
  1 22  1  0
  1 23  1  0
  1 24  1  0
  3 25  1  0
  5 26  1  0
  5 27  1  0
  5 28  1  0
  8 29  1  0
  8 30  1  0
 12 31  1  0
 14 32  1  0
 15 33  1  0
 16 34  1  0
 17 35  1  0
 18 36  1  0
M  END
>  <Binding energies>  (1) 
[-6.42]

>  <Ligand effiencies>  (1) 
[-0.2675]

>  <Interactions>  (1) 
["V-B:ALA:541:CB:9864, V-B:TYR:539:CE1:9847, V-A:LEU:475:CD2:4256, V-B:PRO:540:CA:9855, V-B:TYR:539:CD1:9845, V-B:PRO:540:N:9856, V-B:TYR:539:C:9839, V-B:GLU:543:CD:9880, V-B:PRO:540:C:9853, V-A:PRO:482:CB:4323, V-A:PRO:482:CG:4324, V-B:TYR:539:CB:9843, H-B:TYR:539:O:9840, V-B:ALA:541:CA:9862, V-A:LEU:373:CD1:3277, V-A:SER:385:CA:3404, V-A:SER:385:CB:3406, V-B:VAL:344:CG1:7972, H-B:PRO:540:O:9854, V-A:VAL:384:C:3394"]

$$$$
4ae_Grossjean_2025
     RDKit          3D

 38 40  0  0  0  0  0  0  0  0999 V2000
  126.4410  123.0590   56.4830 C   0  0  0  0  0  0  0  0  0  0  0  0
  127.0310  123.3450   57.8500 C   0  0  0  0  0  0  0  0  0  0  0  0
  127.8430  122.4150   58.5050 C   0  0  0  0  0  0  0  0  0  0  0  0
  128.3440  122.7440   59.7650 C   0  0  0  0  0  0  0  0  0  0  0  0
  128.0240  123.9780   60.3340 C   0  0  0  0  0  0  0  0  0  0  0  0
  127.2120  124.8660   59.6210 C   0  0  0  0  0  0  0  0  0  0  0  0
  126.9090  126.0840   60.2540 N   0  0  0  0  0  0  0  0  0  0  0  0
  127.7590  127.0160   60.7530 C   0  0  0  0  0  0  0  0  0  0  0  0
  128.9860  126.9100   60.7220 O   0  0  0  0  0  0  0  0  0  0  0  0
  127.1210  128.1890   61.3530 C   0  0  0  0  0  0  0  0  0  0  0  0
  125.9430  129.1290   60.4370 S   0  0  0  0  0  0  0  0  0  0  0  0
  125.7420  130.2560   61.7590 C   0  0  0  0  0  0  0  0  0  0  0  0
  124.9110  131.2960   61.6790 N   0  0  0  0  0  0  0  0  0  0  0  0
  124.8530  132.0960   62.7710 C   0  0  0  0  0  0  0  0  0  0  0  0
  123.9070  133.2780   62.6560 C   0  0  0  0  0  0  0  0  0  0  0  0
  125.5950  131.8810   63.9310 C   0  0  0  0  0  0  0  0  0  0  0  0
  126.4650  130.7870   64.0110 C   0  0  0  0  0  0  0  0  0  0  0  0
  127.2570  130.5960   65.2960 C   0  0  0  0  0  0  0  0  0  0  0  0
  126.5550  129.9260   62.8840 C   0  0  0  0  0  0  0  0  0  0  0  0
  127.3310  128.7420   62.6270 C   0  0  0  0  0  0  0  0  0  0  0  0
  128.1940  128.2150   63.5550 N   0  0  0  0  0  0  0  0  0  0  0  0
  126.7130  124.5490   58.3900 N   0  0  0  0  0  0  0  0  0  0  0  0
  125.4569  122.5819   56.6009 H   0  0  0  0  0  0  0  0  0  0  0  0
  126.3273  124.0020   55.9281 H   0  0  0  0  0  0  0  0  0  0  0  0
  127.1108  122.3856   55.9281 H   0  0  0  0  0  0  0  0  0  0  0  0
  128.0812  121.4476   58.0387 H   0  0  0  0  0  0  0  0  0  0  0  0
  128.9874  122.0352   60.3069 H   0  0  0  0  0  0  0  0  0  0  0  0
  128.4054  124.2483   61.3297 H   0  0  0  0  0  0  0  0  0  0  0  0
  125.9240  126.2530   60.3940 H   0  0  0  0  0  0  0  0  0  0  0  0
  123.6295  133.6248   63.6623 H   0  0  0  0  0  0  0  0  0  0  0  0
  124.4043  134.0940   62.1112 H   0  0  0  0  0  0  0  0  0  0  0  0
  123.0019  132.9716   62.1112 H   0  0  0  0  0  0  0  0  0  0  0  0
  125.4972  132.5701   64.7828 H   0  0  0  0  0  0  0  0  0  0  0  0
  126.5964  130.7553   66.1610 H   0  0  0  0  0  0  0  0  0  0  0  0
  127.6630  129.5742   65.3280 H   0  0  0  0  0  0  0  0  0  0  0  0
  128.0842  131.3204   65.3280 H   0  0  0  0  0  0  0  0  0  0  0  0
  127.9690  127.3820   64.0810 H   0  0  0  0  0  0  0  0  0  0  0  0
  129.0890  128.6460   63.7430 H   0  0  0  0  0  0  0  0  0  0  0  0
  1  2  1  0
  2  3  2  0
  3  4  1  0
  4  5  2  0
  5  6  1  0
  6  7  1  0
  7  8  1  0
  8  9  2  0
  8 10  1  0
 10 11  1  0
 11 12  1  0
 12 13  2  0
 13 14  1  0
 14 15  1  0
 14 16  2  0
 16 17  1  0
 17 18  1  0
 17 19  2  0
 19 20  1  0
 20 21  1  0
  6 22  2  0
 22  2  1  0
 20 10  2  0
 19 12  1  0
  1 23  1  0
  1 24  1  0
  1 25  1  0
  3 26  1  0
  4 27  1  0
  5 28  1  0
  7 29  1  0
 15 30  1  0
 15 31  1  0
 15 32  1  0
 16 33  1  0
 18 34  1  0
 18 35  1  0
 18 36  1  0
 21 37  1  0
 21 38  1  0
M  END
>  <Binding energies>  (1) 
[-6.01]

>  <Ligand effiencies>  (1) 
[-0.2404]

>  <Interactions>  (1) 
["V-B:ILE:369:CD1:8210, V-B:PRO:540:CA:9855, V-B:ILE:538:CG2:9835, V-B:ASP:366:CG:8184, V-B:LEU:475:CD2:9230, V-B:ILE:538:CB:9834, V-B:TYR:539:CD1:9845, V-B:PRO:540:N:9856, V-B:TYR:539:C:9839, V-B:GLU:543:CD:9880, H-A:GLU:543:OE2:4908, H-B:GLU:543:OE1:9881, H-A:GLU:543:OE1:4907, H-B:GLU:543:OE2:9882, V-A:GLU:543:CB:4904, V-A:GLU:543:CD:4906, V-B:GLY:454:CA:9020, H-B:ASP:366:OD2:8186, V-B:TYR:484:CZ:9318, V-B:TYR:539:CA:9841, H-B:ASP:366:OD1:8185"]

$$$$
4af_Grossjean_2025
     RDKit          3D

 35 37  0  0  0  0  0  0  0  0999 V2000
  124.5340  123.6050   56.2670 C   0  0  0  0  0  0  0  0  0  0  0  0
  125.1650  123.5710   57.6470 C   0  0  0  0  0  0  0  0  0  0  0  0
  124.3770  123.5420   58.7960 C   0  0  0  0  0  0  0  0  0  0  0  0
  124.9800  123.5130   60.0590 C   0  0  0  0  0  0  0  0  0  0  0  0
  124.0790  123.4840   61.2820 C   0  0  0  0  0  0  0  0  0  0  0  0
  126.4000  123.5160   60.1150 C   0  0  0  0  0  0  0  0  0  0  0  0
  127.3270  123.4940   61.2150 C   0  0  0  0  0  0  0  0  0  0  0  0
  126.9110  123.4620   62.5220 N   0  0  0  0  0  0  0  0  0  0  0  0
  128.6760  123.5080   60.8250 C   0  0  0  0  0  0  0  0  0  0  0  0
  129.8690  123.5240   61.6730 C   0  0  0  0  0  0  0  0  0  0  0  0
  130.7540  122.6800   61.5250 O   0  0  0  0  0  0  0  0  0  0  0  0
  129.9180  124.5220   62.5880 N   0  0  0  0  0  0  0  0  0  0  0  0
  130.8880  124.7880   63.5730 C   0  0  0  0  0  0  0  0  0  0  0  0
  130.6210  125.1950   64.8930 C   0  0  0  0  0  0  0  0  0  0  0  0
  131.6800  125.4440   65.7670 C   0  0  0  0  0  0  0  0  0  0  0  0
  132.9850  125.2840   65.2990 C   0  0  0  0  0  0  0  0  0  0  0  0
  133.2700  124.9000   64.0290 N   0  0  0  0  0  0  0  0  0  0  0  0
  132.2290  124.6630   63.1910 C   0  0  0  0  0  0  0  0  0  0  0  0
  128.8300  123.5510   59.0670 S   0  0  0  0  0  0  0  0  0  0  0  0
  127.0920  123.5470   58.8670 C   0  0  0  0  0  0  0  0  0  0  0  0
  126.5200  123.5730   57.6630 N   0  0  0  0  0  0  0  0  0  0  0  0
  123.4400  123.6639   56.3654 H   0  0  0  0  0  0  0  0  0  0  0  0
  124.9007  124.4847   55.7177 H   0  0  0  0  0  0  0  0  0  0  0  0
  124.8040  122.6910   55.7177 H   0  0  0  0  0  0  0  0  0  0  0  0
  123.2803  123.5419   58.7104 H   0  0  0  0  0  0  0  0  0  0  0  0
  124.6959  123.5039   62.1925 H   0  0  0  0  0  0  0  0  0  0  0  0
  123.4155  124.3613   61.2695 H   0  0  0  0  0  0  0  0  0  0  0  0
  123.4733  122.5659   61.2695 H   0  0  0  0  0  0  0  0  0  0  0  0
  125.9530  123.6510   62.7820 H   0  0  0  0  0  0  0  0  0  0  0  0
  127.5530  123.2430   63.2720 H   0  0  0  0  0  0  0  0  0  0  0  0
  129.1540  125.1820   62.5670 H   0  0  0  0  0  0  0  0  0  0  0  0
  129.5824  125.3164   65.2345 H   0  0  0  0  0  0  0  0  0  0  0  0
  131.4901  125.7599   66.8034 H   0  0  0  0  0  0  0  0  0  0  0  0
  133.8190  125.4776   65.9897 H   0  0  0  0  0  0  0  0  0  0  0  0
  132.4505  124.3568   62.1580 H   0  0  0  0  0  0  0  0  0  0  0  0
  1  2  1  0
  2  3  2  0
  3  4  1  0
  4  5  1  0
  4  6  2  0
  6  7  1  0
  7  8  1  0
  7  9  2  0
  9 10  1  0
 10 11  2  0
 10 12  1  0
 12 13  1  0
 13 14  2  0
 14 15  1  0
 15 16  2  0
 16 17  1  0
 17 18  2  0
  9 19  1  0
 19 20  1  0
 20 21  2  0
 21  2  1  0
 20  6  1  0
 18 13  1  0
  1 22  1  0
  1 23  1  0
  1 24  1  0
  3 25  1  0
  5 26  1  0
  5 27  1  0
  5 28  1  0
  8 29  1  0
  8 30  1  0
 12 31  1  0
 14 32  1  0
 15 33  1  0
 16 34  1  0
 18 35  1  0
M  END
>  <Binding energies>  (1) 
[-6.55]

>  <Ligand effiencies>  (1) 
[-0.27291666666666664]

>  <Interactions>  (1) 
["V-A:ARG:545:CZ:4924, V-B:ALA:541:CB:9864, V-B:TYR:539:CE1:9847, H-A:GLY:454:N:4047, H-A:TYR:484:OH:4345, V-B:TYR:531:CE2:9765, V-B:PRO:540:CA:9855, V-B:ILE:538:CG2:9835, V-B:PRO:540:CB:9857, V-B:LEU:363:CD1:8160, V-B:LEU:363:CA:8156, V-B:GLU:543:CD:9880, V-A:HIS:456:CE1:4066, H-B:GLU:543:OE1:9881, H-B:GLU:543:OE2:9882, V-B:TYR:531:CZ:9766, V-B:ASN:362:CB:8147, V-A:ARG:545:CD:4921, H-B:ALA:541:O:9861, V-B:ALA:541:CA:9862, V-B:ASN:362:C:8143"]

$$$$
4ag_Grossjean_2025
     RDKit          3D

 39 41  0  0  0  0  0  0  0  0999 V2000
  124.6470  123.7460   56.4010 C   0  0  0  0  0  0  0  0  0  0  0  0
  125.3900  123.6010   57.7160 C   0  0  0  0  0  0  0  0  0  0  0  0
  124.7370  123.7910   58.9330 C   0  0  0  0  0  0  0  0  0  0  0  0
  125.4410  123.6520   60.1340 C   0  0  0  0  0  0  0  0  0  0  0  0
  124.6840  123.8690   61.4360 C   0  0  0  0  0  0  0  0  0  0  0  0
  126.8190  123.3170   60.0600 C   0  0  0  0  0  0  0  0  0  0  0  0
  127.8200  123.1010   61.0700 C   0  0  0  0  0  0  0  0  0  0  0  0
  127.5430  123.2010   62.4100 N   0  0  0  0  0  0  0  0  0  0  0  0
  129.0860  122.7860   60.5570 C   0  0  0  0  0  0  0  0  0  0  0  0
  130.3180  122.4970   61.2920 C   0  0  0  0  0  0  0  0  0  0  0  0
  131.2410  121.8640   60.7750 O   0  0  0  0  0  0  0  0  0  0  0  0
  130.3700  122.9460   62.5640 N   0  0  0  0  0  0  0  0  0  0  0  0
  131.5080  122.7950   63.4700 C   0  0  0  0  0  0  0  0  0  0  0  0
  131.6710  123.9460   64.4560 C   0  0  0  0  0  0  0  0  0  0  0  0
  132.8630  124.6770   64.4790 C   0  0  0  0  0  0  0  0  0  0  0  0
  133.0060  125.7460   65.3610 C   0  0  0  0  0  0  0  0  0  0  0  0
  131.9530  126.0860   66.2090 C   0  0  0  0  0  0  0  0  0  0  0  0
  130.7580  125.3720   66.1800 C   0  0  0  0  0  0  0  0  0  0  0  0
  130.6140  124.3040   65.2970 C   0  0  0  0  0  0  0  0  0  0  0  0
  129.0700  122.7370   58.7940 S   0  0  0  0  0  0  0  0  0  0  0  0
  127.3700  123.1480   58.7540 C   0  0  0  0  0  0  0  0  0  0  0  0
  126.7010  123.2790   57.6070 N   0  0  0  0  0  0  0  0  0  0  0  0
  123.5853  123.9532   56.6006 H   0  0  0  0  0  0  0  0  0  0  0  0
  125.0806  124.5765   55.8245 H   0  0  0  0  0  0  0  0  0  0  0  0
  124.7365  122.8134   55.8245 H   0  0  0  0  0  0  0  0  0  0  0  0
  123.6681  124.0502   58.9490 H   0  0  0  0  0  0  0  0  0  0  0  0
  125.3546  123.6768   62.2865 H   0  0  0  0  0  0  0  0  0  0  0  0
  124.3226  124.9069   61.4814 H   0  0  0  0  0  0  0  0  0  0  0  0
  123.8276  123.1802   61.4814 H   0  0  0  0  0  0  0  0  0  0  0  0
  126.7470  123.7210   62.7530 H   0  0  0  0  0  0  0  0  0  0  0  0
  128.1280  122.7520   63.1020 H   0  0  0  0  0  0  0  0  0  0  0  0
  129.6020  123.5060   62.9040 H   0  0  0  0  0  0  0  0  0  0  0  0
  131.3737  121.8653   64.0424 H   0  0  0  0  0  0  0  0  0  0  0  0
  132.4131  122.7800   62.8451 H   0  0  0  0  0  0  0  0  0  0  0  0
  133.6868  124.4083   63.8014 H   0  0  0  0  0  0  0  0  0  0  0  0
  133.9448  126.3187   65.3881 H   0  0  0  0  0  0  0  0  0  0  0  0
  132.0674  126.9273   66.9084 H   0  0  0  0  0  0  0  0  0  0  0  0
  129.9317  125.6498   66.8509 H   0  0  0  0  0  0  0  0  0  0  0  0
  129.6686  123.7428   65.2619 H   0  0  0  0  0  0  0  0  0  0  0  0
  1  2  1  0
  2  3  2  0
  3  4  1  0
  4  5  1  0
  4  6  2  0
  6  7  1  0
  7  8  1  0
  7  9  2  0
  9 10  1  0
 10 11  2  0
 10 12  1  0
 12 13  1  0
 13 14  1  0
 14 15  2  0
 15 16  1  0
 16 17  2  0
 17 18  1  0
 18 19  2  0
  9 20  1  0
 20 21  1  0
 21 22  2  0
 22  2  1  0
 21  6  1  0
 19 14  1  0
  1 23  1  0
  1 24  1  0
  1 25  1  0
  3 26  1  0
  5 27  1  0
  5 28  1  0
  5 29  1  0
  8 30  1  0
  8 31  1  0
 12 32  1  0
 13 33  1  0
 13 34  1  0
 15 35  1  0
 16 36  1  0
 17 37  1  0
 18 38  1  0
 19 39  1  0
M  END
>  <Binding energies>  (1) 
[-6.82]

>  <Ligand effiencies>  (1) 
[-0.2728]

>  <Interactions>  (1) 
["V-A:ARG:545:CZ:4924, V-A:GLY:454:CA:4046, V-B:ALA:541:CB:9864, V-B:TYR:539:CE1:9847, V-A:LEU:475:CD2:4256, V-B:TYR:531:CE2:9765, V-B:PRO:540:CA:9855, V-B:ILE:538:CG2:9835, V-B:ASP:366:CG:8184, V-B:PRO:540:CB:9857, V-B:LEU:363:CD1:8160, V-B:TYR:539:CD1:9845, V-B:PRO:540:N:9856, V-B:TYR:539:CG:9844, V-B:TYR:539:C:9839, V-B:GLU:543:CD:9880, V-B:GLU:543:CB:9878, V-A:HIS:456:CE1:4066, H-B:GLU:543:OE1:9881, V-B:TYR:539:CZ:9849, V-B:TYR:531:CZ:9766, V-A:TYR:484:CZ:4344, V-A:TYR:484:CE2:4343, V-B:ASN:362:CB:8147, V-A:ARG:545:CG:4920, V-A:ARG:545:CD:4921, H-B:ALA:541:O:9861, V-B:ALA:541:CA:9862"]

$$$$
4ah_Grossjean_2025
     RDKit          3D

 51 53  0  0  0  0  0  0  0  0999 V2000
  129.9510  121.0550   61.4680 C   0  0  0  0  0  0  0  0  0  0  0  0
  131.3350  121.1380   61.7910 O   0  0  0  0  0  0  0  0  0  0  0  0
  131.9950  122.3460   61.6440 C   0  0  0  0  0  0  0  0  0  0  0  0
  132.2180  122.9710   60.4070 C   0  0  0  0  0  0  0  0  0  0  0  0
  132.8940  124.1890   60.3330 C   0  0  0  0  0  0  0  0  0  0  0  0
  133.0860  124.8760   58.9850 C   0  0  0  0  0  0  0  0  0  0  0  0
  132.0020  125.7950   58.6370 N   0  0  0  0  0  0  0  0  0  0  0  0
  131.6880  126.1950   57.3870 C   0  0  0  0  0  0  0  0  0  0  0  0
  132.3290  125.8430   56.3960 O   0  0  0  0  0  0  0  0  0  0  0  0
  130.5570  127.1160   57.2750 C   0  0  0  0  0  0  0  0  0  0  0  0
  128.9690  126.5150   56.7960 S   0  0  0  0  0  0  0  0  0  0  0  0
  128.2900  128.1260   56.8610 C   0  0  0  0  0  0  0  0  0  0  0  0
  127.0080  128.3640   56.5840 N   0  0  0  0  0  0  0  0  0  0  0  0
  126.6090  129.6550   56.6730 C   0  0  0  0  0  0  0  0  0  0  0  0
  125.1470  129.9040   56.3520 C   0  0  0  0  0  0  0  0  0  0  0  0
  127.4530  130.7040   57.0300 C   0  0  0  0  0  0  0  0  0  0  0  0
  128.8000  130.4530   57.3170 C   0  0  0  0  0  0  0  0  0  0  0  0
  129.6830  131.6310   57.7010 C   0  0  0  0  0  0  0  0  0  0  0  0
  129.2560  129.1100   57.2330 C   0  0  0  0  0  0  0  0  0  0  0  0
  130.5440  128.5070   57.4510 C   0  0  0  0  0  0  0  0  0  0  0  0
  131.6470  129.2410   57.8080 N   0  0  0  0  0  0  0  0  0  0  0  0
  133.3280  124.8070   61.5060 C   0  0  0  0  0  0  0  0  0  0  0  0
  133.1250  124.2030   62.7570 C   0  0  0  0  0  0  0  0  0  0  0  0
  133.5420  124.7500   63.9560 O   0  0  0  0  0  0  0  0  0  0  0  0
  132.5940  125.4100   64.7890 C   0  0  0  0  0  0  0  0  0  0  0  0
  132.4620  122.9680   62.8110 C   0  0  0  0  0  0  0  0  0  0  0  0
  132.2380  122.3740   64.0300 O   0  0  0  0  0  0  0  0  0  0  0  0
  130.9000  122.4890   64.4930 C   0  0  0  0  0  0  0  0  0  0  0  0
  129.3597  121.0195   62.3949 H   0  0  0  0  0  0  0  0  0  0  0  0
  129.6582  121.9372   60.8798 H   0  0  0  0  0  0  0  0  0  0  0  0
  129.7657  120.1441   60.8798 H   0  0  0  0  0  0  0  0  0  0  0  0
  131.8551  122.4943   59.4844 H   0  0  0  0  0  0  0  0  0  0  0  0
  134.0275  125.4440   59.0150 H   0  0  0  0  0  0  0  0  0  0  0  0
  133.0984  124.0865   58.2191 H   0  0  0  0  0  0  0  0  0  0  0  0
  131.3830  126.0560   59.3910 H   0  0  0  0  0  0  0  0  0  0  0  0
  124.5774  130.0010   57.2881 H   0  0  0  0  0  0  0  0  0  0  0  0
  125.0527  130.8311   55.7676 H   0  0  0  0  0  0  0  0  0  0  0  0
  124.7511  129.0604   55.7676 H   0  0  0  0  0  0  0  0  0  0  0  0
  127.0609  131.7302   57.0864 H   0  0  0  0  0  0  0  0  0  0  0  0
  129.7388  131.7054   58.7971 H   0  0  0  0  0  0  0  0  0  0  0  0
  130.6930  131.4809   57.2918 H   0  0  0  0  0  0  0  0  0  0  0  0
  129.2556  132.5583   57.2918 H   0  0  0  0  0  0  0  0  0  0  0  0
  132.3500  129.5090   57.1360 H   0  0  0  0  0  0  0  0  0  0  0  0
  131.7930  129.5340   58.7650 H   0  0  0  0  0  0  0  0  0  0  0  0
  133.8363  125.7809   61.4500 H   0  0  0  0  0  0  0  0  0  0  0  0
  132.8478  125.2333   65.8446 H   0  0  0  0  0  0  0  0  0  0  0  0
  132.6142  126.4903   64.5829 H   0  0  0  0  0  0  0  0  0  0  0  0
  131.5878  125.0161   64.5829 H   0  0  0  0  0  0  0  0  0  0  0  0
  130.8914  122.4897   65.5930 H   0  0  0  0  0  0  0  0  0  0  0  0
  130.4631  123.4280   64.1223 H   0  0  0  0  0  0  0  0  0  0  0  0
  130.3093  121.6383   64.1223 H   0  0  0  0  0  0  0  0  0  0  0  0
  1  2  1  0
  2  3  1  0
  3  4  2  0
  4  5  1  0
  5  6  1  0
  6  7  1  0
  7  8  1  0
  8  9  2  0
  8 10  1  0
 10 11  1  0
 11 12  1  0
 12 13  2  0
 13 14  1  0
 14 15  1  0
 14 16  2  0
 16 17  1  0
 17 18  1  0
 17 19  2  0
 19 20  1  0
 20 21  1  0
  5 22  2  0
 22 23  1  0
 23 24  1  0
 24 25  1  0
 23 26  2  0
 26 27  1  0
 27 28  1  0
 26  3  1  0
 20 10  2  0
 19 12  1  0
  1 29  1  0
  1 30  1  0
  1 31  1  0
  4 32  1  0
  6 33  1  0
  6 34  1  0
  7 35  1  0
 15 36  1  0
 15 37  1  0
 15 38  1  0
 16 39  1  0
 18 40  1  0
 18 41  1  0
 18 42  1  0
 21 43  1  0
 21 44  1  0
 22 45  1  0
 25 46  1  0
 25 47  1  0
 25 48  1  0
 28 49  1  0
 28 50  1  0
 28 51  1  0
M  END
>  <Binding energies>  (1) 
[-6.27]

>  <Ligand effiencies>  (1) 
[-0.20225806451612902]

>  <Interactions>  (1) 
["V-A:ARG:545:CZ:4924, V-B:ALA:541:CB:9864, V-B:TYR:539:CE1:9847, H-A:GLY:454:N:4047, H-A:TYR:484:OH:4345, V-A:ASP:366:CG:3210, V-A:LEU:475:CD2:4256, V-A:TYR:539:CE1:4873, V-B:TYR:539:CD1:9845, H-B:TYR:531:OH:9767, V-A:ASP:366:CA:3207, V-A:ASP:366:CB:3209, V-A:TYR:539:CZ:4875, V-B:TYR:531:CE1:9764, V-B:TYR:531:CZ:9766, V-B:ASN:370:CB:8216, H-A:TYR:531:OH:4793, V-A:TYR:531:CZ:4792, H-B:TYR:539:OH:9850, H-A:ASP:366:OD2:3212, H-A:ASP:366:OD1:3211, V-B:MET:535:CE:9807, V-A:MET:535:CE:4833, V-A:TYR:484:CZ:4344, V-A:TYR:484:CE2:4343, V-B:ASN:370:CG:8217"]

$$$$
4ai_Grossjean_2025
     RDKit          3D

 32 34  0  0  0  0  0  0  0  0999 V2000
  124.3200  123.2430   56.6770 C   0  0  0  0  0  0  0  0  0  0  0  0
  125.2430  123.3400   57.8780 C   0  0  0  0  0  0  0  0  0  0  0  0
  124.7330  123.5440   59.1590 C   0  0  0  0  0  0  0  0  0  0  0  0
  125.6020  123.6250   60.2530 C   0  0  0  0  0  0  0  0  0  0  0  0
  124.9980  123.8460   61.6310 C   0  0  0  0  0  0  0  0  0  0  0  0
  126.9960  123.4920   60.0050 C   0  0  0  0  0  0  0  0  0  0  0  0
  128.1420  123.5220   60.8720 C   0  0  0  0  0  0  0  0  0  0  0  0
  128.0300  123.7130   62.2270 N   0  0  0  0  0  0  0  0  0  0  0  0
  129.3650  123.3330   60.2100 C   0  0  0  0  0  0  0  0  0  0  0  0
  130.7150  123.3160   60.7760 C   0  0  0  0  0  0  0  0  0  0  0  0
  131.5040  122.4120   60.4940 O   0  0  0  0  0  0  0  0  0  0  0  0
  131.0140  124.3550   61.5960 N   0  0  0  0  0  0  0  0  0  0  0  0
  132.2140  124.5920   62.2540 C   0  0  0  0  0  0  0  0  0  0  0  0
  133.4490  124.6100   61.6050 C   0  0  0  0  0  0  0  0  0  0  0  0
  134.3690  124.8710   62.5940 C   0  0  0  0  0  0  0  0  0  0  0  0
  133.7230  125.0040   63.7770 O   0  0  0  0  0  0  0  0  0  0  0  0
  132.3580  124.8260   63.5490 N   0  0  0  0  0  0  0  0  0  0  0  0
  129.1230  123.1360   58.4720 S   0  0  0  0  0  0  0  0  0  0  0  0
  127.3890  123.2870   58.6480 C   0  0  0  0  0  0  0  0  0  0  0  0
  126.5640  123.2110   57.6030 N   0  0  0  0  0  0  0  0  0  0  0  0
  123.2809  123.1338   57.0210 H   0  0  0  0  0  0  0  0  0  0  0  0
  124.4112  124.1557   56.0698 H   0  0  0  0  0  0  0  0  0  0  0  0
  124.5990  122.3692   56.0698 H   0  0  0  0  0  0  0  0  0  0  0  0
  123.6478  123.6413   59.3100 H   0  0  0  0  0  0  0  0  0  0  0  0
  125.7349  123.5764   62.4019 H   0  0  0  0  0  0  0  0  0  0  0  0
  124.7197  124.9042   61.7439 H   0  0  0  0  0  0  0  0  0  0  0  0
  124.1025  123.2173   61.7439 H   0  0  0  0  0  0  0  0  0  0  0  0
  128.0020  124.6360   62.6340 H   0  0  0  0  0  0  0  0  0  0  0  0
  127.9770  122.9310   62.8650 H   0  0  0  0  0  0  0  0  0  0  0  0
  130.2940  125.0450   61.7450 H   0  0  0  0  0  0  0  0  0  0  0  0
  133.6447  124.4501   60.5344 H   0  0  0  0  0  0  0  0  0  0  0  0
  135.4557  124.9578   62.4474 H   0  0  0  0  0  0  0  0  0  0  0  0
  1  2  1  0
  2  3  2  0
  3  4  1  0
  4  5  1  0
  4  6  2  0
  6  7  1  0
  7  8  1  0
  7  9  2  0
  9 10  1  0
 10 11  2  0
 10 12  1  0
 12 13  1  0
 13 14  1  0
 14 15  2  0
 15 16  1  0
 16 17  1  0
  9 18  1  0
 18 19  1  0
 19 20  2  0
 20  2  1  0
 19  6  1  0
 17 13  2  0
  1 21  1  0
  1 22  1  0
  1 23  1  0
  3 24  1  0
  5 25  1  0
  5 26  1  0
  5 27  1  0
  8 28  1  0
  8 29  1  0
 12 30  1  0
 14 31  1  0
 15 32  1  0
M  END
>  <Binding energies>  (1) 
[-6.26]

>  <Ligand effiencies>  (1) 
[-0.27217391304347827]

>  <Interactions>  (1) 
["V-A:ARG:545:CZ:4924, H-A:ARG:545:NE:4922, V-B:ALA:541:CB:9864, V-B:TYR:539:CE1:9847, V-A:ILE:369:CD1:3236, H-A:GLY:454:N:4047, V-B:TYR:531:CE2:9765, V-A:GLY:453:C:4039, V-B:PRO:540:CA:9855, V-B:ILE:538:CG2:9835, V-B:PRO:540:CB:9857, H-A:ARG:545:NH2:4926, V-B:PRO:540:CD:9859, V-B:LEU:363:CD1:8160, V-B:TYR:539:CD1:9845, V-B:PRO:540:N:9856, V-B:TYR:539:C:9839, V-B:GLU:543:CD:9880, H-B:GLU:543:OE1:9881, V-B:TYR:539:CZ:9849, H-B:GLU:543:OE2:9882, V-B:ASN:362:CB:8147, H-B:ALA:541:O:9861, V-A:GLY:453:CA:4041"]

$$$$
4aj_Grossjean_2025
     RDKit          3D

 32 34  0  0  0  0  0  0  0  0999 V2000
  135.0980  124.9950   62.1710 C   0  0  0  0  0  0  0  0  0  0  0  0
  133.9190  124.1080   61.8150 C   0  0  0  0  0  0  0  0  0  0  0  0
  134.0390  122.7210   61.8160 C   0  0  0  0  0  0  0  0  0  0  0  0
  132.9400  121.9220   61.4790 C   0  0  0  0  0  0  0  0  0  0  0  0
  133.1220  120.4120   61.4940 C   0  0  0  0  0  0  0  0  0  0  0  0
  131.7240  122.5750   61.1450 C   0  0  0  0  0  0  0  0  0  0  0  0
  130.4310  122.0780   60.7570 C   0  0  0  0  0  0  0  0  0  0  0  0
  130.1670  120.7370   60.6420 N   0  0  0  0  0  0  0  0  0  0  0  0
  129.4810  123.0840   60.5190 C   0  0  0  0  0  0  0  0  0  0  0  0
  128.0850  122.9380   60.1030 C   0  0  0  0  0  0  0  0  0  0  0  0
  127.1960  122.7490   60.9370 O   0  0  0  0  0  0  0  0  0  0  0  0
  127.8610  123.0400   58.7700 N   0  0  0  0  0  0  0  0  0  0  0  0
  126.6370  122.9520   58.1210 C   0  0  0  0  0  0  0  0  0  0  0  0
  126.3520  122.2880   57.0210 N   0  0  0  0  0  0  0  0  0  0  0  0
  125.0830  122.4220   56.6890 C   0  0  0  0  0  0  0  0  0  0  0  0
  124.3060  123.2130   57.5310 C   0  0  0  0  0  0  0  0  0  0  0  0
  125.3040  123.8080   58.8260 S   0  0  0  0  0  0  0  0  0  0  0  0
  130.1780  124.6870   60.7560 S   0  0  0  0  0  0  0  0  0  0  0  0
  131.7300  124.0030   61.1840 C   0  0  0  0  0  0  0  0  0  0  0  0
  132.7750  124.7660   61.5040 N   0  0  0  0  0  0  0  0  0  0  0  0
  135.1884  125.0630   63.2652 H   0  0  0  0  0  0  0  0  0  0  0  0
  136.0200  124.5647   61.7529 H   0  0  0  0  0  0  0  0  0  0  0  0
  134.9401  126.0001   61.7529 H   0  0  0  0  0  0  0  0  0  0  0  0
  134.9981  122.2525   62.0818 H   0  0  0  0  0  0  0  0  0  0  0  0
  133.1647  120.0581   62.5347 H   0  0  0  0  0  0  0  0  0  0  0  0
  132.2748  119.9354   60.9791 H   0  0  0  0  0  0  0  0  0  0  0  0
  134.0582  120.1504   60.9791 H   0  0  0  0  0  0  0  0  0  0  0  0
  130.8800  120.0740   60.3760 H   0  0  0  0  0  0  0  0  0  0  0  0
  129.2430  120.3660   60.8190 H   0  0  0  0  0  0  0  0  0  0  0  0
  128.6620  123.2020   58.1770 H   0  0  0  0  0  0  0  0  0  0  0  0
  124.6618  121.9360   55.7966 H   0  0  0  0  0  0  0  0  0  0  0  0
  123.2351  123.4270   57.3990 H   0  0  0  0  0  0  0  0  0  0  0  0
  1  2  1  0
  2  3  2  0
  3  4  1  0
  4  5  1  0
  4  6  2  0
  6  7  1  0
  7  8  1  0
  7  9  2  0
  9 10  1  0
 10 11  2  0
 10 12  1  0
 12 13  1  0
 13 14  2  0
 14 15  1  0
 15 16  2  0
 16 17  1  0
  9 18  1  0
 18 19  1  0
 19 20  2  0
 20  2  1  0
 19  6  1  0
 17 13  1  0
  1 21  1  0
  1 22  1  0
  1 23  1  0
  3 24  1  0
  5 25  1  0
  5 26  1  0
  5 27  1  0
  8 28  1  0
  8 29  1  0
 12 30  1  0
 15 31  1  0
 16 32  1  0
M  END
>  <Binding energies>  (1) 
[-5.92]

>  <Ligand effiencies>  (1) 
[-0.2573913043478261]

>  <Interactions>  (1) 
["V-A:ARG:545:CZ:4924, V-A:GLY:454:CA:4046, V-B:TYR:539:CE1:9847, V-A:ILE:369:CG2:3234, V-A:ILE:369:CD1:3236, V-A:LEU:475:CD2:4256, V-A:GLY:453:C:4039, V-B:PRO:540:CA:9855, V-B:ILE:538:CG2:9835, V-B:PRO:540:CB:9857, V-B:PRO:540:CD:9859, V-B:ILE:538:CB:9834, V-B:LEU:363:CD1:8160, V-B:TYR:539:CD1:9845, V-B:LEU:363:CA:8156, V-B:PRO:540:N:9856, V-B:TYR:539:CG:9844, V-B:TYR:539:C:9839, H-B:ALA:541:N:9863, V-B:PRO:540:CG:9858, H-B:TYR:539:N:9842, H-B:TYR:539:O:9840, V-A:SER:385:CA:3404, V-A:GLY:453:CA:4041"]

$$$$
4ak_Grossjean_2025
     RDKit          3D

 50 51  0  0  0  0  0  0  0  0999 V2000
  123.6400  130.2640   62.7530 C   0  0  0  0  0  0  0  0  0  0  0  0
  123.9900  129.9780   64.0980 O   0  0  0  0  0  0  0  0  0  0  0  0
  125.3190  130.3600   64.4310 C   0  0  0  0  0  0  0  0  0  0  0  0
  126.0940  129.1340   64.9290 C   0  0  0  0  0  0  0  0  0  0  0  0
  126.1420  129.1510   66.3500 O   0  0  0  0  0  0  0  0  0  0  0  0
  127.3160  129.7550   66.8770 C   0  0  0  0  0  0  0  0  0  0  0  0
  128.3820  128.6770   67.1050 C   0  0  0  0  0  0  0  0  0  0  0  0
  127.8160  127.6070   67.8510 O   0  0  0  0  0  0  0  0  0  0  0  0
  128.7780  126.7100   68.3900 C   0  0  0  0  0  0  0  0  0  0  0  0
  130.1880  127.1610   67.9670 C   0  0  0  0  0  0  0  0  0  0  0  0
  130.6650  126.5210   66.7410 N   0  0  0  0  0  0  0  0  0  0  0  0
  130.6870  125.1920   66.5130 C   0  0  0  0  0  0  0  0  0  0  0  0
  130.2720  124.3740   67.3350 O   0  0  0  0  0  0  0  0  0  0  0  0
  131.2240  124.7700   65.2210 C   0  0  0  0  0  0  0  0  0  0  0  0
  132.5030  125.7020   64.4420 S   0  0  0  0  0  0  0  0  0  0  0  0
  132.5500  124.5940   63.0890 C   0  0  0  0  0  0  0  0  0  0  0  0
  133.3850  124.7670   62.0640 N   0  0  0  0  0  0  0  0  0  0  0  0
  133.3180  123.8380   61.0790 C   0  0  0  0  0  0  0  0  0  0  0  0
  134.2770  124.0510   59.9220 C   0  0  0  0  0  0  0  0  0  0  0  0
  132.4470  122.7500   61.0970 C   0  0  0  0  0  0  0  0  0  0  0  0
  131.5720  122.5710   62.1750 C   0  0  0  0  0  0  0  0  0  0  0  0
  130.6380  121.3720   62.1470 C   0  0  0  0  0  0  0  0  0  0  0  0
  131.6120  123.5270   63.2260 C   0  0  0  0  0  0  0  0  0  0  0  0
  130.8730  123.6480   64.4540 C   0  0  0  0  0  0  0  0  0  0  0  0
  129.9130  122.7420   64.8250 N   0  0  0  0  0  0  0  0  0  0  0  0
  122.7883  130.9599   62.7358 H   0  0  0  0  0  0  0  0  0  0  0  0
  124.4985  130.7224   62.2403 H   0  0  0  0  0  0  0  0  0  0  0  0
  123.3619  129.3314   62.2403 H   0  0  0  0  0  0  0  0  0  0  0  0
  125.8164  130.7711   63.5402 H   0  0  0  0  0  0  0  0  0  0  0  0
  125.2935  131.1238   65.2222 H   0  0  0  0  0  0  0  0  0  0  0  0
  125.5887  128.2177   64.5898 H   0  0  0  0  0  0  0  0  0  0  0  0
  127.1174  129.1577   64.5264 H   0  0  0  0  0  0  0  0  0  0  0  0
  127.6959  130.5026   66.1651 H   0  0  0  0  0  0  0  0  0  0  0  0
  127.0801  130.2476   67.8318 H   0  0  0  0  0  0  0  0  0  0  0  0
  128.7375  128.3006   66.1344 H   0  0  0  0  0  0  0  0  0  0  0  0
  129.2280  129.1070   67.6612 H   0  0  0  0  0  0  0  0  0  0  0  0
  128.7061  126.7102   69.4876 H   0  0  0  0  0  0  0  0  0  0  0  0
  128.5872  125.6947   68.0122 H   0  0  0  0  0  0  0  0  0  0  0  0
  130.1716  128.2492   67.8074 H   0  0  0  0  0  0  0  0  0  0  0  0
  130.8760  126.8664   68.7731 H   0  0  0  0  0  0  0  0  0  0  0  0
  131.0140  127.1390   66.0220 H   0  0  0  0  0  0  0  0  0  0  0  0
  135.2804  124.2739   60.3137 H   0  0  0  0  0  0  0  0  0  0  0  0
  134.3175  123.1400   59.3069 H   0  0  0  0  0  0  0  0  0  0  0  0
  133.9281  124.8935   59.3069 H   0  0  0  0  0  0  0  0  0  0  0  0
  132.4471  122.0318   60.2639 H   0  0  0  0  0  0  0  0  0  0  0  0
  130.4010  121.0677   63.1772 H   0  0  0  0  0  0  0  0  0  0  0  0
  129.7100  121.6423   61.6218 H   0  0  0  0  0  0  0  0  0  0  0  0
  131.1271  120.5384   61.6218 H   0  0  0  0  0  0  0  0  0  0  0  0
  128.9590  122.8120   64.5000 H   0  0  0  0  0  0  0  0  0  0  0  0
  130.1300  121.9670   65.4360 H   0  0  0  0  0  0  0  0  0  0  0  0
  1  2  1  0
  2  3  1  0
  3  4  1  0
  4  5  1  0
  5  6  1  0
  6  7  1  0
  7  8  1  0
  8  9  1  0
  9 10  1  0
 10 11  1  0
 11 12  1  0
 12 13  2  0
 12 14  1  0
 14 15  1  0
 15 16  1  0
 16 17  2  0
 17 18  1  0
 18 19  1  0
 18 20  2  0
 20 21  1  0
 21 22  1  0
 21 23  2  0
 23 24  1  0
 24 25  1  0
 24 14  2  0
 23 16  1  0
  1 26  1  0
  1 27  1  0
  1 28  1  0
  3 29  1  0
  3 30  1  0
  4 31  1  0
  4 32  1  0
  6 33  1  0
  6 34  1  0
  7 35  1  0
  7 36  1  0
  9 37  1  0
  9 38  1  0
 10 39  1  0
 10 40  1  0
 11 41  1  0
 19 42  1  0
 19 43  1  0
 19 44  1  0
 20 45  1  0
 22 46  1  0
 22 47  1  0
 22 48  1  0
 25 49  1  0
 25 50  1  0
M  END
>  <Binding energies>  (1) 
[-5.72]

>  <Ligand effiencies>  (1) 
[-0.20428571428571426]

>  <Interactions>  (1) 
["V-A:ARG:545:CZ:4924, H-B:ARG:545:NH2:9900, V-B:ALA:541:CB:9864, V-B:TYR:539:CE1:9847, V-A:ILE:369:CG2:3234, V-B:ARG:545:CZ:9898, V-B:GLY:453:CA:9015, V-A:ILE:369:CD1:3236, H-A:TYR:484:OH:4345, V-B:ILE:369:CD1:8210, V-B:GLY:453:C:9013, V-A:ASP:366:CG:3210, V-A:LEU:475:CD2:4256, H-B:TYR:484:OH:9319, H-B:GLY:454:N:9021, H-B:ARG:545:NE:9896, V-B:GLU:543:CD:9880, V-B:GLU:543:CG:9879, H-A:GLU:543:OE2:4908, V-B:GLU:543:CB:9878, V-A:HIS:456:CE1:4066, V-A:ASP:366:CA:3207, H-B:GLU:543:OE1:9881, V-B:HIS:456:CE1:9040, V-A:GLU:543:CB:4904, V-A:GLU:543:CD:4906, V-A:GLU:543:CG:4905, V-B:GLU:543:C:9874, H-A:HIS:456:NE2:4067, V-A:ILE:369:CB:3233, H-B:ARG:545:NH1:9899, V-B:TYR:484:CE2:9317, V-A:TYR:484:CZ:4344, V-A:TYR:484:CE2:4343, V-B:TYR:484:CZ:9318, V-A:ILE:369:CG1:3235"]

$$$$
4al_Grossjean_2025
     RDKit          3D

 28 29  0  0  0  0  0  0  0  0999 V2000
  132.1360  117.0080   60.2110 C   0  0  0  0  0  0  0  0  0  0  0  0
  132.0170  118.4170   60.0780 O   0  0  0  0  0  0  0  0  0  0  0  0
  133.0660  119.2340   60.3520 C   0  0  0  0  0  0  0  0  0  0  0  0
  134.2270  119.0070   60.0020 O   0  0  0  0  0  0  0  0  0  0  0  0
  132.6740  120.4370   61.1180 C   0  0  0  0  0  0  0  0  0  0  0  0
  133.9070  121.4020   61.9350 S   0  0  0  0  0  0  0  0  0  0  0  0
  132.6980  122.5150   62.5330 C   0  0  0  0  0  0  0  0  0  0  0  0
  133.0190  123.5650   63.2890 N   0  0  0  0  0  0  0  0  0  0  0  0
  131.9870  124.3500   63.6870 C   0  0  0  0  0  0  0  0  0  0  0  0
  132.3750  125.5400   64.5470 C   0  0  0  0  0  0  0  0  0  0  0  0
  130.6570  124.1110   63.3500 C   0  0  0  0  0  0  0  0  0  0  0  0
  130.3230  123.0080   62.5570 C   0  0  0  0  0  0  0  0  0  0  0  0
  128.8580  122.7880   62.2160 C   0  0  0  0  0  0  0  0  0  0  0  0
  131.3780  122.1620   62.1210 C   0  0  0  0  0  0  0  0  0  0  0  0
  131.3960  120.9730   61.3150 C   0  0  0  0  0  0  0  0  0  0  0  0
  130.2570  120.4200   60.7890 N   0  0  0  0  0  0  0  0  0  0  0  0
  132.1585  116.7410   61.2779 H   0  0  0  0  0  0  0  0  0  0  0  0
  131.2759  116.5203   59.7291 H   0  0  0  0  0  0  0  0  0  0  0  0
  133.0658  116.6714   59.7291 H   0  0  0  0  0  0  0  0  0  0  0  0
  132.2866  125.2689   65.6094 H   0  0  0  0  0  0  0  0  0  0  0  0
  133.4136  125.8281   64.3273 H   0  0  0  0  0  0  0  0  0  0  0  0
  131.7058  126.3849   64.3273 H   0  0  0  0  0  0  0  0  0  0  0  0
  129.8688  124.7899   63.7075 H   0  0  0  0  0  0  0  0  0  0  0  0
  128.2746  122.7004   63.1444 H   0  0  0  0  0  0  0  0  0  0  0  0
  128.4863  123.6404   61.6284 H   0  0  0  0  0  0  0  0  0  0  0  0
  128.7530  121.8640   61.6284 H   0  0  0  0  0  0  0  0  0  0  0  0
  130.2540  119.5040   60.3640 H   0  0  0  0  0  0  0  0  0  0  0  0
  129.3750  120.9140   60.8100 H   0  0  0  0  0  0  0  0  0  0  0  0
  1  2  1  0
  2  3  1  0
  3  4  2  0
  3  5  1  0
  5  6  1  0
  6  7  1  0
  7  8  2  0
  8  9  1  0
  9 10  1  0
  9 11  2  0
 11 12  1  0
 12 13  1  0
 12 14  2  0
 14 15  1  0
 15 16  1  0
 15  5  2  0
 14  7  1  0
  1 17  1  0
  1 18  1  0
  1 19  1  0
 10 20  1  0
 10 21  1  0
 10 22  1  0
 11 23  1  0
 13 24  1  0
 13 25  1  0
 13 26  1  0
 16 27  1  0
 16 28  1  0
M  END
>  <Binding energies>  (1) 
[-4.88]

>  <Ligand effiencies>  (1) 
[-0.2711111111111111]

>  <Interactions>  (1) 
["V-A:ARG:545:CZ:4924, V-A:GLY:454:CA:4046, V-B:ALA:541:CB:9864, V-B:TYR:539:CE1:9847, V-A:ILE:369:CG2:3234, V-A:ILE:369:CD1:3236, H-A:GLY:454:N:4047, H-A:TYR:484:OH:4345, V-A:LEU:475:CD2:4256, V-B:TYR:539:CD1:9845, V-B:TYR:539:C:9839, H-B:TYR:539:O:9840, V-B:ALA:541:CA:9862, V-A:LEU:373:CD1:3277, V-A:SER:385:CA:3404, V-A:SER:385:C:3402"]

$$$$
4ba_Grossjean_2025
     RDKit          3D

 44 46  0  0  0  0  0  0  0  0999 V2000
  131.4550  126.3330   73.8610 C   0  0  0  0  0  0  0  0  0  0  0  0
  131.1200  126.8880   72.4640 C   0  0  0  0  0  0  0  0  0  0  0  0
  129.7220  126.5140   71.9290 C   0  0  0  0  0  0  0  0  0  0  0  0
  128.9710  125.8260   72.6230 O   0  0  0  0  0  0  0  0  0  0  0  0
  129.3380  127.0190   70.5680 C   0  0  0  0  0  0  0  0  0  0  0  0
  128.0130  126.8840   70.1340 C   0  0  0  0  0  0  0  0  0  0  0  0
  127.6290  127.3420   68.8770 C   0  0  0  0  0  0  0  0  0  0  0  0
  128.5590  127.9460   68.0300 C   0  0  0  0  0  0  0  0  0  0  0  0
  128.0660  128.3640   66.7790 N   0  0  0  0  0  0  0  0  0  0  0  0
  127.6440  129.5860   66.3720 C   0  0  0  0  0  0  0  0  0  0  0  0
  127.5870  130.5770   67.1020 O   0  0  0  0  0  0  0  0  0  0  0  0
  127.2200  129.6670   64.9720 C   0  0  0  0  0  0  0  0  0  0  0  0
  125.9320  130.7730   64.4990 S   0  0  0  0  0  0  0  0  0  0  0  0
  126.0200  130.2380   62.8370 C   0  0  0  0  0  0  0  0  0  0  0  0
  125.2210  130.7470   61.9010 N   0  0  0  0  0  0  0  0  0  0  0  0
  125.3810  130.2540   60.6510 C   0  0  0  0  0  0  0  0  0  0  0  0
  124.4530  130.8400   59.6020 C   0  0  0  0  0  0  0  0  0  0  0  0
  126.3160  129.2770   60.3180 C   0  0  0  0  0  0  0  0  0  0  0  0
  127.1620  128.7380   61.3000 C   0  0  0  0  0  0  0  0  0  0  0  0
  128.1770  127.6680   60.8850 C   0  0  0  0  0  0  0  0  0  0  0  0
  127.9900  126.5020   61.5070 F   0  0  0  0  0  0  0  0  0  0  0  0
  128.0840  127.4400   59.5750 F   0  0  0  0  0  0  0  0  0  0  0  0
  129.4110  128.0810   61.1740 F   0  0  0  0  0  0  0  0  0  0  0  0
  127.0140  129.2330   62.6310 C   0  0  0  0  0  0  0  0  0  0  0  0
  127.6770  128.9200   63.8740 C   0  0  0  0  0  0  0  0  0  0  0  0
  128.6690  127.9770   63.9660 N   0  0  0  0  0  0  0  0  0  0  0  0
  129.8900  128.0790   68.4540 C   0  0  0  0  0  0  0  0  0  0  0  0
  130.2720  127.6200   69.7120 C   0  0  0  0  0  0  0  0  0  0  0  0
  131.0486  127.0063   74.6301 H   0  0  0  0  0  0  0  0  0  0  0  0
  131.0089  125.3340   73.9753 H   0  0  0  0  0  0  0  0  0  0  0  0
  132.5468  126.2623   73.9753 H   0  0  0  0  0  0  0  0  0  0  0  0
  131.1855  127.9851   72.5085 H   0  0  0  0  0  0  0  0  0  0  0  0
  131.8444  126.4335   71.7721 H   0  0  0  0  0  0  0  0  0  0  0  0
  127.2692  126.4117   70.7926 H   0  0  0  0  0  0  0  0  0  0  0  0
  126.5853  127.2270   68.5491 H   0  0  0  0  0  0  0  0  0  0  0  0
  128.0100  127.6270   66.0920 H   0  0  0  0  0  0  0  0  0  0  0  0
  123.6230  131.3641   60.0984 H   0  0  0  0  0  0  0  0  0  0  0  0
  125.0114  131.5496   58.9738 H   0  0  0  0  0  0  0  0  0  0  0  0
  124.0523  130.0308   58.9738 H   0  0  0  0  0  0  0  0  0  0  0  0
  126.3921  128.9253   59.2785 H   0  0  0  0  0  0  0  0  0  0  0  0
  129.6460  128.2170   63.8790 H   0  0  0  0  0  0  0  0  0  0  0  0
  128.4530  127.0010   64.1190 H   0  0  0  0  0  0  0  0  0  0  0  0
  130.6331  128.5467   67.7914 H   0  0  0  0  0  0  0  0  0  0  0  0
  131.3170  127.7300   70.0375 H   0  0  0  0  0  0  0  0  0  0  0  0
  1  2  1  0
  2  3  1  0
  3  4  2  0
  3  5  1  0
  5  6  2  0
  6  7  1  0
  7  8  2  0
  8  9  1  0
  9 10  1  0
 10 11  2  0
 10 12  1  0
 12 13  1  0
 13 14  1  0
 14 15  2  0
 15 16  1  0
 16 17  1  0
 16 18  2  0
 18 19  1  0
 19 20  1  0
 20 21  1  0
 20 22  1  0
 20 23  1  0
 19 24  2  0
 24 25  1  0
 25 26  1  0
  8 27  1  0
 27 28  2  0
 28  5  1  0
 25 12  2  0
 24 14  1  0
  1 29  1  0
  1 30  1  0
  1 31  1  0
  2 32  1  0
  2 33  1  0
  6 34  1  0
  7 35  1  0
  9 36  1  0
 17 37  1  0
 17 38  1  0
 17 39  1  0
 18 40  1  0
 26 41  1  0
 26 42  1  0
 27 43  1  0
 28 44  1  0
M  END
>  <Binding energies>  (1) 
[-6.4]

>  <Ligand effiencies>  (1) 
[-0.2064516129032258]

>  <Interactions>  (1) 
["V-A:TYR:539:CE1:4873, V-B:ASP:366:CG:8184, H-B:TYR:484:OH:9319, V-B:ASP:366:CB:8183, V-B:GLU:543:CD:9880, V-B:GLU:543:CG:9879, H-A:GLU:543:OE2:4908, V-A:HIS:456:CE1:4066, H-B:GLU:543:OE1:9881, H-A:GLU:543:OE1:4907, H-B:GLU:543:OE2:9882, V-B:HIS:456:CE1:9040, V-A:GLU:543:CB:4904, V-A:GLU:543:CD:4906, V-A:GLU:543:CG:4905, V-B:GLU:543:C:9874, V-B:GLY:544:CA:9886, V-A:GLU:543:C:4900, V-A:LYS:547:CE:4948, V-A:GLY:544:C:4910, V-A:HIS:456:CG:4063, V-B:GLY:544:C:9884, V-A:HIS:456:CD2:4065, V-A:HIS:456:CB:4062, H-B:LYS:547:NZ:9923, H-B:HIS:456:NE2:9041, H-A:HIS:456:NE2:4067"]

$$$$
4bb_Grossjean_2025
     RDKit          3D

 41 43  0  0  0  0  0  0  0  0999 V2000
  131.0740  126.8980   72.4540 C   0  0  0  0  0  0  0  0  0  0  0  0
  129.6980  126.5200   71.9010 C   0  0  0  0  0  0  0  0  0  0  0  0
  128.9670  125.8130   72.5970 O   0  0  0  0  0  0  0  0  0  0  0  0
  129.3170  127.0200   70.5400 C   0  0  0  0  0  0  0  0  0  0  0  0
  127.9920  126.8900   70.1060 C   0  0  0  0  0  0  0  0  0  0  0  0
  127.6120  127.3460   68.8470 C   0  0  0  0  0  0  0  0  0  0  0  0
  128.5460  127.9460   68.0010 C   0  0  0  0  0  0  0  0  0  0  0  0
  128.0560  128.3680   66.7490 N   0  0  0  0  0  0  0  0  0  0  0  0
  127.6220  129.5890   66.3500 C   0  0  0  0  0  0  0  0  0  0  0  0
  127.5630  130.5760   67.0820 O   0  0  0  0  0  0  0  0  0  0  0  0
  127.1830  129.6690   64.9540 C   0  0  0  0  0  0  0  0  0  0  0  0
  125.8860  130.7690   64.4950 S   0  0  0  0  0  0  0  0  0  0  0  0
  125.9640  130.2420   62.8290 C   0  0  0  0  0  0  0  0  0  0  0  0
  125.1610  130.7550   61.8990 N   0  0  0  0  0  0  0  0  0  0  0  0
  125.3150  130.2670   60.6470 C   0  0  0  0  0  0  0  0  0  0  0  0
  124.3910  130.8660   59.6020 C   0  0  0  0  0  0  0  0  0  0  0  0
  126.2440  129.2880   60.3060 C   0  0  0  0  0  0  0  0  0  0  0  0
  127.0930  128.7440   61.2820 C   0  0  0  0  0  0  0  0  0  0  0  0
  128.0990  127.6680   60.8590 C   0  0  0  0  0  0  0  0  0  0  0  0
  129.3630  128.0000   61.1320 F   0  0  0  0  0  0  0  0  0  0  0  0
  127.8370  126.5290   61.5010 F   0  0  0  0  0  0  0  0  0  0  0  0
  128.0160  127.4630   59.5450 F   0  0  0  0  0  0  0  0  0  0  0  0
  126.9570  129.2370   62.6150 C   0  0  0  0  0  0  0  0  0  0  0  0
  127.6330  128.9270   63.8490 C   0  0  0  0  0  0  0  0  0  0  0  0
  128.6340  127.9920   63.9310 N   0  0  0  0  0  0  0  0  0  0  0  0
  129.8780  128.0730   68.4260 C   0  0  0  0  0  0  0  0  0  0  0  0
  130.2560  127.6150   69.6860 C   0  0  0  0  0  0  0  0  0  0  0  0
  131.0423  126.8893   73.5535 H   0  0  0  0  0  0  0  0  0  0  0  0
  131.8223  126.1721   72.1030 H   0  0  0  0  0  0  0  0  0  0  0  0
  131.3464  127.9043   72.1030 H   0  0  0  0  0  0  0  0  0  0  0  0
  127.2453  126.4237   70.7655 H   0  0  0  0  0  0  0  0  0  0  0  0
  126.5689  127.2328   68.5167 H   0  0  0  0  0  0  0  0  0  0  0  0
  128.0050  127.6340   66.0590 H   0  0  0  0  0  0  0  0  0  0  0  0
  123.5688  131.3990   60.1019 H   0  0  0  0  0  0  0  0  0  0  0  0
  124.9559  131.5701   58.9735 H   0  0  0  0  0  0  0  0  0  0  0  0
  123.9788  130.0629   58.9735 H   0  0  0  0  0  0  0  0  0  0  0  0
  126.3130  128.9387   59.2652 H   0  0  0  0  0  0  0  0  0  0  0  0
  128.4420  127.0180   64.1210 H   0  0  0  0  0  0  0  0  0  0  0  0
  129.6040  128.2480   63.8040 H   0  0  0  0  0  0  0  0  0  0  0  0
  130.6243  128.5349   67.7629 H   0  0  0  0  0  0  0  0  0  0  0  0
  131.3006  127.7212   70.0138 H   0  0  0  0  0  0  0  0  0  0  0  0
  1  2  1  0
  2  3  2  0
  2  4  1  0
  4  5  2  0
  5  6  1  0
  6  7  2  0
  7  8  1  0
  8  9  1  0
  9 10  2  0
  9 11  1  0
 11 12  1  0
 12 13  1  0
 13 14  2  0
 14 15  1  0
 15 16  1  0
 15 17  2  0
 17 18  1  0
 18 19  1  0
 19 20  1  0
 19 21  1  0
 19 22  1  0
 18 23  2  0
 23 24  1  0
 24 25  1  0
  7 26  1  0
 26 27  2  0
 27  4  1  0
 24 11  2  0
 23 13  1  0
  1 28  1  0
  1 29  1  0
  1 30  1  0
  5 31  1  0
  6 32  1  0
  8 33  1  0
 16 34  1  0
 16 35  1  0
 16 36  1  0
 17 37  1  0
 25 38  1  0
 25 39  1  0
 26 40  1  0
 27 41  1  0
M  END
>  <Binding energies>  (1) 
[-6.32]

>  <Ligand effiencies>  (1) 
[-0.21066666666666667]

>  <Interactions>  (1) 
["V-A:TYR:539:CE1:4873, V-B:ASP:366:CG:8184, H-B:TYR:484:OH:9319, V-B:ASP:366:CB:8183, V-B:GLU:543:CD:9880, V-B:GLU:543:CG:9879, H-A:GLU:543:OE2:4908, V-A:HIS:456:CE1:4066, H-B:GLU:543:OE1:9881, H-A:GLU:543:OE1:4907, H-B:GLU:543:OE2:9882, V-B:HIS:456:CE1:9040, V-A:GLU:543:CB:4904, V-A:GLU:543:CD:4906, V-A:GLU:543:CG:4905, V-B:GLU:543:C:9874, V-B:GLY:544:CA:9886, V-A:GLU:543:C:4900, V-A:GLY:544:C:4910, V-A:HIS:456:CG:4063, V-B:GLY:544:C:9884, V-A:HIS:456:CD2:4065, H-B:LYS:547:NZ:9923, H-B:HIS:456:NE2:9041, H-A:HIS:456:NE2:4067, V-B:ASP:366:CA:8181"]

$$$$
4bc_Grossjean_2025
     RDKit          3D

 40 42  0  0  0  0  0  0  0  0999 V2000
  129.1400  126.0410   72.5520 C   0  0  0  0  0  0  0  0  0  0  0  0
  130.0830  126.7130   71.7220 O   0  0  0  0  0  0  0  0  0  0  0  0
  129.6890  127.1490   70.4720 C   0  0  0  0  0  0  0  0  0  0  0  0
  128.3240  127.0890   70.1930 C   0  0  0  0  0  0  0  0  0  0  0  0
  127.8330  127.5070   68.9590 C   0  0  0  0  0  0  0  0  0  0  0  0
  128.7050  128.0000   67.9860 C   0  0  0  0  0  0  0  0  0  0  0  0
  128.1210  128.3830   66.7650 N   0  0  0  0  0  0  0  0  0  0  0  0
  127.6420  129.5940   66.3870 C   0  0  0  0  0  0  0  0  0  0  0  0
  127.6190  130.5830   67.1190 O   0  0  0  0  0  0  0  0  0  0  0  0
  127.1280  129.6670   65.0150 C   0  0  0  0  0  0  0  0  0  0  0  0
  125.8190  130.7770   64.6170 S   0  0  0  0  0  0  0  0  0  0  0  0
  125.8290  130.2620   62.9470 C   0  0  0  0  0  0  0  0  0  0  0  0
  124.9900  130.7850   62.0530 N   0  0  0  0  0  0  0  0  0  0  0  0
  125.0920  130.3060   60.7920 C   0  0  0  0  0  0  0  0  0  0  0  0
  124.1310  130.9180   59.7880 C   0  0  0  0  0  0  0  0  0  0  0  0
  126.0030  129.3250   60.4070 C   0  0  0  0  0  0  0  0  0  0  0  0
  126.8890  128.7710   61.3440 C   0  0  0  0  0  0  0  0  0  0  0  0
  127.8720  127.6930   60.8730 C   0  0  0  0  0  0  0  0  0  0  0  0
  127.7790  127.4380   59.5660 F   0  0  0  0  0  0  0  0  0  0  0  0
  129.1210  128.0870   61.1160 F   0  0  0  0  0  0  0  0  0  0  0  0
  127.6350  126.5520   61.5200 F   0  0  0  0  0  0  0  0  0  0  0  0
  126.8090  129.2560   62.6830 C   0  0  0  0  0  0  0  0  0  0  0  0
  127.5380  128.9390   63.8880 C   0  0  0  0  0  0  0  0  0  0  0  0
  128.5430  128.0060   63.9200 N   0  0  0  0  0  0  0  0  0  0  0  0
  130.0810  128.0510   68.2540 C   0  0  0  0  0  0  0  0  0  0  0  0
  130.5680  127.6320   69.4890 C   0  0  0  0  0  0  0  0  0  0  0  0
  129.3893  126.2187   73.6085 H   0  0  0  0  0  0  0  0  0  0  0  0
  128.1301  126.4242   72.3442 H   0  0  0  0  0  0  0  0  0  0  0  0
  129.1725  124.9613   72.3442 H   0  0  0  0  0  0  0  0  0  0  0  0
  127.6285  126.7078   70.9552 H   0  0  0  0  0  0  0  0  0  0  0  0
  126.7546  127.4487   68.7498 H   0  0  0  0  0  0  0  0  0  0  0  0
  128.0220  127.6340   66.0960 H   0  0  0  0  0  0  0  0  0  0  0  0
  123.3206  131.4341   60.3237 H   0  0  0  0  0  0  0  0  0  0  0  0
  124.6706  131.6392   59.1565 H   0  0  0  0  0  0  0  0  0  0  0  0
  123.7057  130.1240   59.1565 H   0  0  0  0  0  0  0  0  0  0  0  0
  126.0281  128.9824   59.3620 H   0  0  0  0  0  0  0  0  0  0  0  0
  128.3590  127.0260   64.0800 H   0  0  0  0  0  0  0  0  0  0  0  0
  129.5080  128.2710   63.7800 H   0  0  0  0  0  0  0  0  0  0  0  0
  130.7764  128.4227   67.4870 H   0  0  0  0  0  0  0  0  0  0  0  0
  131.6473  127.6795   69.6960 H   0  0  0  0  0  0  0  0  0  0  0  0
  1  2  1  0
  2  3  1  0
  3  4  2  0
  4  5  1  0
  5  6  2  0
  6  7  1  0
  7  8  1  0
  8  9  2  0
  8 10  1  0
 10 11  1  0
 11 12  1  0
 12 13  2  0
 13 14  1  0
 14 15  1  0
 14 16  2  0
 16 17  1  0
 17 18  1  0
 18 19  1  0
 18 20  1  0
 18 21  1  0
 17 22  2  0
 22 23  1  0
 23 24  1  0
  6 25  1  0
 25 26  2  0
 26  3  1  0
 23 10  2  0
 22 12  1  0
  1 27  1  0
  1 28  1  0
  1 29  1  0
  4 30  1  0
  5 31  1  0
  7 32  1  0
 15 33  1  0
 15 34  1  0
 15 35  1  0
 16 36  1  0
 24 37  1  0
 24 38  1  0
 25 39  1  0
 26 40  1  0
M  END
>  <Binding energies>  (1) 
[-5.39]

>  <Ligand effiencies>  (1) 
[-0.18586206896551724]

>  <Interactions>  (1) 
["V-B:ILE:369:CG2:8208, V-A:TYR:539:CE1:4873, V-B:ASP:366:CG:8184, H-B:TYR:484:OH:9319, V-B:ASP:366:CB:8183, V-B:GLU:543:CD:9880, V-B:GLU:543:CG:9879, H-A:GLU:543:OE2:4908, V-A:HIS:456:CE1:4066, H-B:GLU:543:OE1:9881, H-A:GLU:543:OE1:4907, H-B:GLU:543:OE2:9882, V-B:HIS:456:CE1:9040, V-A:GLU:543:CB:4904, V-A:GLU:543:CD:4906, V-A:GLU:543:CG:4905, V-B:GLU:543:C:9874, V-B:GLY:544:CA:9886, V-A:GLU:543:C:4900, V-B:LYS:547:CE:9922, V-A:GLY:544:C:4910, V-B:GLY:544:C:9884, V-A:HIS:456:CD2:4065, H-B:HIS:456:NE2:9041, H-A:HIS:456:NE2:4067, V-B:ASP:366:CA:8181"]

$$$$
4bd_Grossjean_2025
     RDKit          3D

 36 38  0  0  0  0  0  0  0  0999 V2000
  128.4440  128.1570   62.4500 C   0  0  0  0  0  0  0  0  0  0  0  0
  128.5330  126.6810   62.1100 C   0  0  0  0  0  0  0  0  0  0  0  0
  127.4110  125.9710   61.6900 C   0  0  0  0  0  0  0  0  0  0  0  0
  127.5070  124.6060   61.3810 C   0  0  0  0  0  0  0  0  0  0  0  0
  126.2450  123.8660   60.9260 C   0  0  0  0  0  0  0  0  0  0  0  0
  126.0050  122.7590   61.6320 F   0  0  0  0  0  0  0  0  0  0  0  0
  125.1830  124.6610   61.0570 F   0  0  0  0  0  0  0  0  0  0  0  0
  126.3690  123.5050   59.6490 F   0  0  0  0  0  0  0  0  0  0  0  0
  128.7900  123.9950   61.5150 C   0  0  0  0  0  0  0  0  0  0  0  0
  129.2650  122.6510   61.2940 C   0  0  0  0  0  0  0  0  0  0  0  0
  128.4470  121.6400   60.8610 N   0  0  0  0  0  0  0  0  0  0  0  0
  130.6330  122.4750   61.5620 C   0  0  0  0  0  0  0  0  0  0  0  0
  131.4330  121.2500   61.4610 C   0  0  0  0  0  0  0  0  0  0  0  0
  132.5960  121.2240   61.8660 O   0  0  0  0  0  0  0  0  0  0  0  0
  130.7970  120.1840   60.9150 N   0  0  0  0  0  0  0  0  0  0  0  0
  131.2870  118.8930   60.6420 C   0  0  0  0  0  0  0  0  0  0  0  0
  132.6790  118.7580   60.6250 C   0  0  0  0  0  0  0  0  0  0  0  0
  133.2610  117.5190   60.3740 C   0  0  0  0  0  0  0  0  0  0  0  0
  132.4510  116.4090   60.1480 C   0  0  0  0  0  0  0  0  0  0  0  0
  131.0640  116.5270   60.1760 C   0  0  0  0  0  0  0  0  0  0  0  0
  130.4780  117.7650   60.4260 C   0  0  0  0  0  0  0  0  0  0  0  0
  131.3780  123.9800   62.0920 S   0  0  0  0  0  0  0  0  0  0  0  0
  129.8590  124.8340   61.9560 C   0  0  0  0  0  0  0  0  0  0  0  0
  129.7620  126.1300   62.2470 N   0  0  0  0  0  0  0  0  0  0  0  0
  128.4365  128.2817   63.5429 H   0  0  0  0  0  0  0  0  0  0  0  0
  129.3120  128.6837   62.0268 H   0  0  0  0  0  0  0  0  0  0  0  0
  127.5190  128.5756   62.0268 H   0  0  0  0  0  0  0  0  0  0  0  0
  126.4423  126.4843   61.5999 H   0  0  0  0  0  0  0  0  0  0  0  0
  127.8390  121.7480   60.0620 H   0  0  0  0  0  0  0  0  0  0  0  0
  128.4300  120.7420   61.3260 H   0  0  0  0  0  0  0  0  0  0  0  0
  129.8240  120.3180   60.6810 H   0  0  0  0  0  0  0  0  0  0  0  0
  133.3165  119.6349   60.8108 H   0  0  0  0  0  0  0  0  0  0  0  0
  134.3561  117.4169   60.3542 H   0  0  0  0  0  0  0  0  0  0  0  0
  132.9110  115.4305   59.9456 H   0  0  0  0  0  0  0  0  0  0  0  0
  130.4323  115.6437   60.0009 H   0  0  0  0  0  0  0  0  0  0  0  0
  129.3825  117.8598   60.4544 H   0  0  0  0  0  0  0  0  0  0  0  0
  1  2  1  0
  2  3  2  0
  3  4  1  0
  4  5  1  0
  5  6  1  0
  5  7  1  0
  5  8  1  0
  4  9  2  0
  9 10  1  0
 10 11  1  0
 10 12  2  0
 12 13  1  0
 13 14  2  0
 13 15  1  0
 15 16  1  0
 16 17  2  0
 17 18  1  0
 18 19  2  0
 19 20  1  0
 20 21  2  0
 12 22  1  0
 22 23  1  0
 23 24  2  0
 24  2  1  0
 23  9  1  0
 21 16  1  0
  1 25  1  0
  1 26  1  0
  1 27  1  0
  3 28  1  0
 11 29  1  0
 11 30  1  0
 15 31  1  0
 17 32  1  0
 18 33  1  0
 19 34  1  0
 20 35  1  0
 21 36  1  0
M  END
>  <Binding energies>  (1) 
[-5.7]

>  <Ligand effiencies>  (1) 
[-0.2111111111111111]

>  <Interactions>  (1) 
["V-B:ALA:541:CB:9864, V-B:TYR:539:CE1:9847, V-A:LEU:475:CD2:4256, V-B:PRO:540:CA:9855, V-B:ASP:366:CG:8184, V-B:PRO:540:CB:9857, V-B:TYR:539:CD1:9845, V-B:PRO:540:N:9856, V-B:TYR:539:CG:9844, V-B:TYR:539:C:9839, V-B:GLU:543:CD:9880, V-B:PRO:540:C:9853, V-A:PRO:482:CB:4323, V-A:PRO:482:CG:4324, V-B:TYR:539:CB:9843, H-B:TYR:539:O:9840, V-B:ALA:541:CA:9862, V-A:LEU:373:CD1:3277, V-A:SER:385:CA:3404, V-A:SER:385:CB:3406, V-B:ALA:541:C:9860, V-B:VAL:344:CG1:7972, H-B:PRO:540:O:9854"]

$$$$
4be_Grossjean_2025
     RDKit          3D

 38 40  0  0  0  0  0  0  0  0999 V2000
  123.5220  130.9740   62.3550 C   0  0  0  0  0  0  0  0  0  0  0  0
  124.8250  130.7090   63.0850 C   0  0  0  0  0  0  0  0  0  0  0  0
  125.3380  131.6150   64.0160 C   0  0  0  0  0  0  0  0  0  0  0  0
  126.5440  131.3070   64.6470 C   0  0  0  0  0  0  0  0  0  0  0  0
  127.2010  130.1150   64.3350 C   0  0  0  0  0  0  0  0  0  0  0  0
  126.6290  129.2490   63.3970 C   0  0  0  0  0  0  0  0  0  0  0  0
  127.3430  128.0690   63.1220 N   0  0  0  0  0  0  0  0  0  0  0  0
  127.6440  127.5150   61.9200 C   0  0  0  0  0  0  0  0  0  0  0  0
  127.3160  128.0050   60.8380 O   0  0  0  0  0  0  0  0  0  0  0  0
  128.3840  126.2510   61.9780 C   0  0  0  0  0  0  0  0  0  0  0  0
  127.7550  124.8200   61.1630 S   0  0  0  0  0  0  0  0  0  0  0  0
  129.1030  123.8560   61.7180 C   0  0  0  0  0  0  0  0  0  0  0  0
  129.2130  122.5670   61.4020 N   0  0  0  0  0  0  0  0  0  0  0  0
  130.3010  121.9260   61.8880 C   0  0  0  0  0  0  0  0  0  0  0  0
  130.4060  120.4580   61.5190 C   0  0  0  0  0  0  0  0  0  0  0  0
  131.2730  122.5390   62.6740 C   0  0  0  0  0  0  0  0  0  0  0  0
  131.1640  123.8980   63.0100 C   0  0  0  0  0  0  0  0  0  0  0  0
  132.2600  124.5290   63.8740 C   0  0  0  0  0  0  0  0  0  0  0  0
  132.8500  125.5740   63.2880 F   0  0  0  0  0  0  0  0  0  0  0  0
  131.7380  124.9610   65.0220 F   0  0  0  0  0  0  0  0  0  0  0  0
  133.2070  123.6280   64.1330 F   0  0  0  0  0  0  0  0  0  0  0  0
  130.0250  124.6020   62.5170 C   0  0  0  0  0  0  0  0  0  0  0  0
  129.5790  125.9670   62.6550 C   0  0  0  0  0  0  0  0  0  0  0  0
  130.2710  126.9020   63.3810 N   0  0  0  0  0  0  0  0  0  0  0  0
  125.4520  129.5460   62.7720 N   0  0  0  0  0  0  0  0  0  0  0  0
  122.7179  131.1375   63.0876 H   0  0  0  0  0  0  0  0  0  0  0  0
  123.6306  131.8685   61.7240 H   0  0  0  0  0  0  0  0  0  0  0  0
  123.2726  130.1082   61.7240 H   0  0  0  0  0  0  0  0  0  0  0  0
  124.8043  132.5488   64.2463 H   0  0  0  0  0  0  0  0  0  0  0  0
  126.9745  131.9991   65.3857 H   0  0  0  0  0  0  0  0  0  0  0  0
  128.1550  129.8605   64.8200 H   0  0  0  0  0  0  0  0  0  0  0  0
  127.6320  127.5520   63.9390 H   0  0  0  0  0  0  0  0  0  0  0  0
  130.4494  119.8517   62.4358 H   0  0  0  0  0  0  0  0  0  0  0  0
  129.5265  120.1650   60.9269 H   0  0  0  0  0  0  0  0  0  0  0  0
  131.3182  120.2931   60.9269 H   0  0  0  0  0  0  0  0  0  0  0  0
  132.1324  121.9546   63.0343 H   0  0  0  0  0  0  0  0  0  0  0  0
  131.0500  126.6510   63.9730 H   0  0  0  0  0  0  0  0  0  0  0  0
  130.0180  127.8800   63.3530 H   0  0  0  0  0  0  0  0  0  0  0  0
  1  2  1  0
  2  3  2  0
  3  4  1  0
  4  5  2  0
  5  6  1  0
  6  7  1  0
  7  8  1  0
  8  9  2  0
  8 10  1  0
 10 11  1  0
 11 12  1  0
 12 13  2  0
 13 14  1  0
 14 15  1  0
 14 16  2  0
 16 17  1  0
 17 18  1  0
 18 19  1  0
 18 20  1  0
 18 21  1  0
 17 22  2  0
 22 23  1  0
 23 24  1  0
  6 25  2  0
 25  2  1  0
 23 10  2  0
 22 12  1  0
  1 26  1  0
  1 27  1  0
  1 28  1  0
  3 29  1  0
  4 30  1  0
  5 31  1  0
  7 32  1  0
 15 33  1  0
 15 34  1  0
 15 35  1  0
 16 36  1  0
 24 37  1  0
 24 38  1  0
M  END
>  <Binding energies>  (1) 
[-5.73]

>  <Ligand effiencies>  (1) 
[-0.20464285714285715]

>  <Interactions>  (1) 
["V-A:ARG:545:CZ:4924, H-B:ARG:545:NH2:9900, V-A:GLY:454:CA:4046, V-B:ALA:541:CB:9864, V-B:GLY:453:CA:9015, V-B:ILE:369:CD1:8210, V-B:GLY:453:C:9013, V-A:LEU:475:CD2:4256, V-A:GLY:453:C:4039, V-B:TYR:539:CD1:9845, V-B:GLU:543:CD:9880, H-A:GLU:543:OE2:4908, H-B:GLU:543:OE1:9881, H-A:GLU:543:OE1:4907, H-B:GLU:543:OE2:9882, V-A:GLU:543:CD:4906, V-B:GLY:454:CA:9020, V-B:TYR:484:CZ:9318"]

$$$$
4bf_Grossjean_2025
     RDKit          3D

 35 37  0  0  0  0  0  0  0  0999 V2000
  130.2150  120.7200   61.5080 C   0  0  0  0  0  0  0  0  0  0  0  0
  130.1210  122.1870   61.8870 C   0  0  0  0  0  0  0  0  0  0  0  0
  131.1380  122.8090   62.6070 C   0  0  0  0  0  0  0  0  0  0  0  0
  131.0370  124.1650   62.9530 C   0  0  0  0  0  0  0  0  0  0  0  0
  132.1800  124.8050   63.7480 C   0  0  0  0  0  0  0  0  0  0  0  0
  131.7670  125.3940   64.8740 F   0  0  0  0  0  0  0  0  0  0  0  0
  133.0710  123.8740   64.0890 F   0  0  0  0  0  0  0  0  0  0  0  0
  132.7790  125.7380   63.0070 F   0  0  0  0  0  0  0  0  0  0  0  0
  129.8620  124.8590   62.5380 C   0  0  0  0  0  0  0  0  0  0  0  0
  129.4150  126.2200   62.7050 C   0  0  0  0  0  0  0  0  0  0  0  0
  130.1550  127.1640   63.3710 N   0  0  0  0  0  0  0  0  0  0  0  0
  128.1640  126.4890   62.1260 C   0  0  0  0  0  0  0  0  0  0  0  0
  127.4050  127.7440   62.1330 C   0  0  0  0  0  0  0  0  0  0  0  0
  126.9170  128.1880   61.0930 O   0  0  0  0  0  0  0  0  0  0  0  0
  127.2790  128.3390   63.3450 N   0  0  0  0  0  0  0  0  0  0  0  0
  126.6630  129.5580   63.6850 C   0  0  0  0  0  0  0  0  0  0  0  0
  127.2310  130.8330   63.5150 C   0  0  0  0  0  0  0  0  0  0  0  0
  126.5160  131.9660   63.9100 C   0  0  0  0  0  0  0  0  0  0  0  0
  125.2500  131.7950   64.4710 C   0  0  0  0  0  0  0  0  0  0  0  0
  124.6830  130.5760   64.6520 N   0  0  0  0  0  0  0  0  0  0  0  0
  125.3910  129.4840   64.2640 C   0  0  0  0  0  0  0  0  0  0  0  0
  127.4970  125.0530   61.3540 S   0  0  0  0  0  0  0  0  0  0  0  0
  128.8940  124.1040   61.8050 C   0  0  0  0  0  0  0  0  0  0  0  0
  128.9960  122.8170   61.4770 N   0  0  0  0  0  0  0  0  0  0  0  0
  130.2543  120.1073   62.4207 H   0  0  0  0  0  0  0  0  0  0  0  0
  129.3331  120.4374   60.9143 H   0  0  0  0  0  0  0  0  0  0  0  0
  131.1257  120.5523   60.9143 H   0  0  0  0  0  0  0  0  0  0  0  0
  132.0263  122.2334   62.9064 H   0  0  0  0  0  0  0  0  0  0  0  0
  131.0000  126.9270   63.8690 H   0  0  0  0  0  0  0  0  0  0  0  0
  129.8770  128.1360   63.3830 H   0  0  0  0  0  0  0  0  0  0  0  0
  127.6750  127.8400   64.1280 H   0  0  0  0  0  0  0  0  0  0  0  0
  128.2330  130.9376   63.0733 H   0  0  0  0  0  0  0  0  0  0  0  0
  126.9421  132.9720   63.7815 H   0  0  0  0  0  0  0  0  0  0  0  0
  124.6869  132.6879   64.7801 H   0  0  0  0  0  0  0  0  0  0  0  0
  124.9419  128.4909   64.4123 H   0  0  0  0  0  0  0  0  0  0  0  0
  1  2  1  0
  2  3  2  0
  3  4  1  0
  4  5  1  0
  5  6  1  0
  5  7  1  0
  5  8  1  0
  4  9  2  0
  9 10  1  0
 10 11  1  0
 10 12  2  0
 12 13  1  0
 13 14  2  0
 13 15  1  0
 15 16  1  0
 16 17  2  0
 17 18  1  0
 18 19  2  0
 19 20  1  0
 20 21  2  0
 12 22  1  0
 22 23  1  0
 23 24  2  0
 24  2  1  0
 23  9  1  0
 21 16  1  0
  1 25  1  0
  1 26  1  0
  1 27  1  0
  3 28  1  0
 11 29  1  0
 11 30  1  0
 15 31  1  0
 17 32  1  0
 18 33  1  0
 19 34  1  0
 21 35  1  0
M  END
>  <Binding energies>  (1) 
[-5.73]

>  <Ligand effiencies>  (1) 
[-0.21222222222222223]

>  <Interactions>  (1) 
["V-A:ARG:545:CZ:4924, H-B:ARG:545:NH2:9900, V-A:GLY:454:CA:4046, V-B:ALA:541:CB:9864, V-B:ARG:545:CZ:9898, V-A:LEU:475:CD2:4256, H-B:TYR:484:OH:9319, V-B:LEU:475:CD2:9230, V-B:TYR:539:CD1:9845, H-B:GLY:454:N:9021, V-B:GLU:543:CD:9880, H-A:GLU:543:OE2:4908, H-B:GLU:543:OE1:9881, H-A:GLU:543:OE1:4907, H-B:GLU:543:OE2:9882, V-A:GLU:543:CD:4906, V-B:GLY:454:CA:9020"]

$$$$
4bg_Grossjean_2025
     RDKit          3D

 39 41  0  0  0  0  0  0  0  0999 V2000
  133.0760  121.6130   60.8080 C   0  0  0  0  0  0  0  0  0  0  0  0
  132.5040  122.9570   61.2200 C   0  0  0  0  0  0  0  0  0  0  0  0
  132.1790  123.2210   62.5480 C   0  0  0  0  0  0  0  0  0  0  0  0
  131.6450  124.4670   62.9150 C   0  0  0  0  0  0  0  0  0  0  0  0
  131.3030  124.7120   64.3880 C   0  0  0  0  0  0  0  0  0  0  0  0
  130.2480  125.5140   64.5520 F   0  0  0  0  0  0  0  0  0  0  0  0
  131.0200  123.5530   64.9840 F   0  0  0  0  0  0  0  0  0  0  0  0
  132.3380  125.2830   65.0040 F   0  0  0  0  0  0  0  0  0  0  0  0
  131.4590  125.4280   61.8770 C   0  0  0  0  0  0  0  0  0  0  0  0
  130.9440  126.7750   61.8670 C   0  0  0  0  0  0  0  0  0  0  0  0
  130.4900  127.4050   62.9980 N   0  0  0  0  0  0  0  0  0  0  0  0
  130.9570  127.3830   60.6020 C   0  0  0  0  0  0  0  0  0  0  0  0
  130.4860  128.7160   60.2260 C   0  0  0  0  0  0  0  0  0  0  0  0
  129.4390  128.8730   59.5950 O   0  0  0  0  0  0  0  0  0  0  0  0
  131.2440  129.7500   60.6450 N   0  0  0  0  0  0  0  0  0  0  0  0
  130.9770  131.1630   60.3750 C   0  0  0  0  0  0  0  0  0  0  0  0
  131.3260  131.5890   58.9550 C   0  0  0  0  0  0  0  0  0  0  0  0
  132.6140  131.3730   58.4540 C   0  0  0  0  0  0  0  0  0  0  0  0
  132.9190  131.7280   57.1430 C   0  0  0  0  0  0  0  0  0  0  0  0
  131.9330  132.2850   56.3310 C   0  0  0  0  0  0  0  0  0  0  0  0
  130.6440  132.4870   56.8170 C   0  0  0  0  0  0  0  0  0  0  0  0
  130.3380  132.1330   58.1290 C   0  0  0  0  0  0  0  0  0  0  0  0
  131.5760  126.2870   59.3700 S   0  0  0  0  0  0  0  0  0  0  0  0
  131.8400  125.0320   60.5570 C   0  0  0  0  0  0  0  0  0  0  0  0
  132.3440  123.8470   60.2140 N   0  0  0  0  0  0  0  0  0  0  0  0
  133.3244  121.0292   61.7066 H   0  0  0  0  0  0  0  0  0  0  0  0
  132.3327  121.0661   60.2094 H   0  0  0  0  0  0  0  0  0  0  0  0
  133.9855  121.7695   60.2094 H   0  0  0  0  0  0  0  0  0  0  0  0
  132.3415  122.4488   63.3144 H   0  0  0  0  0  0  0  0  0  0  0  0
  129.7280  127.0350   63.5470 H   0  0  0  0  0  0  0  0  0  0  0  0
  130.9000  128.2730   63.3160 H   0  0  0  0  0  0  0  0  0  0  0  0
  132.1280  129.5440   61.0870 H   0  0  0  0  0  0  0  0  0  0  0  0
  129.9064  131.3526   60.5417 H   0  0  0  0  0  0  0  0  0  0  0  0
  131.6160  131.7474   61.0533 H   0  0  0  0  0  0  0  0  0  0  0  0
  133.3856  130.9228   59.0958 H   0  0  0  0  0  0  0  0  0  0  0  0
  133.9340  131.5695   56.7497 H   0  0  0  0  0  0  0  0  0  0  0  0
  132.1754  132.5678   55.2960 H   0  0  0  0  0  0  0  0  0  0  0  0
  129.8709  132.9241   56.1679 H   0  0  0  0  0  0  0  0  0  0  0  0
  129.3188  132.2815   58.5152 H   0  0  0  0  0  0  0  0  0  0  0  0
  1  2  1  0
  2  3  2  0
  3  4  1  0
  4  5  1  0
  5  6  1  0
  5  7  1  0
  5  8  1  0
  4  9  2  0
  9 10  1  0
 10 11  1  0
 10 12  2  0
 12 13  1  0
 13 14  2  0
 13 15  1  0
 15 16  1  0
 16 17  1  0
 17 18  2  0
 18 19  1  0
 19 20  2  0
 20 21  1  0
 21 22  2  0
 12 23  1  0
 23 24  1  0
 24 25  2  0
 25  2  1  0
 24  9  1  0
 22 17  1  0
  1 26  1  0
  1 27  1  0
  1 28  1  0
  3 29  1  0
 11 30  1  0
 11 31  1  0
 15 32  1  0
 16 33  1  0
 16 34  1  0
 18 35  1  0
 19 36  1  0
 20 37  1  0
 21 38  1  0
 22 39  1  0
M  END
>  <Binding energies>  (1) 
[-5.89]

>  <Ligand effiencies>  (1) 
[-0.21035714285714285]

>  <Interactions>  (1) 
["V-A:PRO:540:CA:4881, V-A:ARG:545:CZ:4924, V-A:TYR:531:CE2:4791, V-A:ILE:538:CB:4860, V-B:TYR:539:CE1:9847, V-A:ILE:369:CG2:3234, V-A:ILE:538:CG2:4861, V-A:PRO:540:CB:4883, V-A:PRO:540:N:4882, V-A:ASP:366:CG:3210, V-A:LEU:363:CD1:3186, V-B:TYR:539:CD1:9845, V-B:GLU:543:CD:9880, H-A:GLU:543:OE2:4908, V-B:GLU:543:CB:9878, V-A:ASP:366:CB:3209, H-B:GLU:543:OE1:9881, H-A:GLU:543:OE1:4907, H-B:GLU:543:OE2:9882, V-A:GLU:543:CD:4906, V-A:TYR:539:C:4865, H-A:ASP:366:OD2:3212, H-A:ASP:366:OD1:3211, V-A:TYR:484:CZ:4344, V-A:TYR:484:CE2:4343"]

$$$$
4bh_Grossjean_2025
     RDKit          3D

 51 53  0  0  0  0  0  0  0  0999 V2000
  126.3460  131.3650   59.9690 C   0  0  0  0  0  0  0  0  0  0  0  0
  127.4610  132.1560   59.5750 O   0  0  0  0  0  0  0  0  0  0  0  0
  128.7360  131.6300   59.6720 C   0  0  0  0  0  0  0  0  0  0  0  0
  129.2630  130.6840   58.7790 C   0  0  0  0  0  0  0  0  0  0  0  0
  130.5600  130.1920   58.9380 C   0  0  0  0  0  0  0  0  0  0  0  0
  131.1310  129.2000   57.9320 C   0  0  0  0  0  0  0  0  0  0  0  0
  131.3480  127.8640   58.4880 N   0  0  0  0  0  0  0  0  0  0  0  0
  131.1050  126.7020   57.8480 C   0  0  0  0  0  0  0  0  0  0  0  0
  130.6240  126.6580   56.7140 O   0  0  0  0  0  0  0  0  0  0  0  0
  131.4020  125.4810   58.5980 C   0  0  0  0  0  0  0  0  0  0  0  0
  133.0570  124.8860   58.6910 S   0  0  0  0  0  0  0  0  0  0  0  0
  132.5510  123.5030   59.6350 C   0  0  0  0  0  0  0  0  0  0  0  0
  133.4270  122.5940   60.0590 N   0  0  0  0  0  0  0  0  0  0  0  0
  132.9170  121.5700   60.7830 C   0  0  0  0  0  0  0  0  0  0  0  0
  133.9320  120.5440   61.2550 C   0  0  0  0  0  0  0  0  0  0  0  0
  131.5660  121.4360   61.0900 C   0  0  0  0  0  0  0  0  0  0  0  0
  130.6380  122.3900   60.6440 C   0  0  0  0  0  0  0  0  0  0  0  0
  129.1620  122.2030   61.0090 C   0  0  0  0  0  0  0  0  0  0  0  0
  128.3410  122.3610   59.9690 F   0  0  0  0  0  0  0  0  0  0  0  0
  128.9680  120.9740   61.4860 F   0  0  0  0  0  0  0  0  0  0  0  0
  128.8100  123.0950   61.9350 F   0  0  0  0  0  0  0  0  0  0  0  0
  131.1420  123.4810   59.8760 C   0  0  0  0  0  0  0  0  0  0  0  0
  130.5110  124.6210   59.2570 C   0  0  0  0  0  0  0  0  0  0  0  0
  129.1590  124.8450   59.3180 N   0  0  0  0  0  0  0  0  0  0  0  0
  131.3520  130.6700   59.9840 C   0  0  0  0  0  0  0  0  0  0  0  0
  130.8490  131.6100   60.8970 C   0  0  0  0  0  0  0  0  0  0  0  0
  131.5710  132.1150   61.9630 O   0  0  0  0  0  0  0  0  0  0  0  0
  132.9000  131.6530   62.1860 C   0  0  0  0  0  0  0  0  0  0  0  0
  129.5370  132.0770   60.7330 C   0  0  0  0  0  0  0  0  0  0  0  0
  129.0370  133.0120   61.6090 O   0  0  0  0  0  0  0  0  0  0  0  0
  128.2800  132.4570   62.6760 C   0  0  0  0  0  0  0  0  0  0  0  0
  126.2929  131.3273   61.0671 H   0  0  0  0  0  0  0  0  0  0  0  0
  125.4218  131.8106   59.5723 H   0  0  0  0  0  0  0  0  0  0  0  0
  126.4612  130.3455   59.5723 H   0  0  0  0  0  0  0  0  0  0  0  0
  128.6456  130.3252   57.9423 H   0  0  0  0  0  0  0  0  0  0  0  0
  130.4295  129.1164   57.0889 H   0  0  0  0  0  0  0  0  0  0  0  0
  132.1136  129.5843   57.6208 H   0  0  0  0  0  0  0  0  0  0  0  0
  131.8190  127.8270   59.3810 H   0  0  0  0  0  0  0  0  0  0  0  0
  133.9504  120.5254   62.3547 H   0  0  0  0  0  0  0  0  0  0  0  0
  133.6520  119.5500   60.8761 H   0  0  0  0  0  0  0  0  0  0  0  0
  134.9290  120.8133   60.8761 H   0  0  0  0  0  0  0  0  0  0  0  0
  131.2235  120.5771   61.6858 H   0  0  0  0  0  0  0  0  0  0  0  0
  128.6540  125.2720   58.5530 H   0  0  0  0  0  0  0  0  0  0  0  0
  128.6220  124.5970   60.1360 H   0  0  0  0  0  0  0  0  0  0  0  0
  132.3838  130.3050   60.0940 H   0  0  0  0  0  0  0  0  0  0  0  0
  133.0887  131.5874   63.2677 H   0  0  0  0  0  0  0  0  0  0  0  0
  133.0238  130.6591   61.7312 H   0  0  0  0  0  0  0  0  0  0  0  0
  133.6137  132.3558   61.7312 H   0  0  0  0  0  0  0  0  0  0  0  0
  128.7127  132.7742   63.6363 H   0  0  0  0  0  0  0  0  0  0  0  0
  127.2396  132.8079   62.6088 H   0  0  0  0  0  0  0  0  0  0  0  0
  128.3017  131.3593   62.6088 H   0  0  0  0  0  0  0  0  0  0  0  0
  1  2  1  0
  2  3  1  0
  3  4  2  0
  4  5  1  0
  5  6  1  0
  6  7  1  0
  7  8  1  0
  8  9  2  0
  8 10  1  0
 10 11  1  0
 11 12  1  0
 12 13  2  0
 13 14  1  0
 14 15  1  0
 14 16  2  0
 16 17  1  0
 17 18  1  0
 18 19  1  0
 18 20  1  0
 18 21  1  0
 17 22  2  0
 22 23  1  0
 23 24  1  0
  5 25  2  0
 25 26  1  0
 26 27  1  0
 27 28  1  0
 26 29  2  0
 29 30  1  0
 30 31  1  0
 29  3  1  0
 23 10  2  0
 22 12  1  0
  1 32  1  0
  1 33  1  0
  1 34  1  0
  4 35  1  0
  6 36  1  0
  6 37  1  0
  7 38  1  0
 15 39  1  0
 15 40  1  0
 15 41  1  0
 16 42  1  0
 24 43  1  0
 24 44  1  0
 25 45  1  0
 28 46  1  0
 28 47  1  0
 28 48  1  0
 31 49  1  0
 31 50  1  0
 31 51  1  0
M  END
>  <Binding energies>  (1) 
[-4.85]

>  <Ligand effiencies>  (1) 
[-0.1426470588235294]

>  <Interactions>  (1) 
["V-A:PRO:540:CA:4881, V-A:ARG:545:CZ:4924, V-B:ALA:541:CB:9864, V-B:TYR:539:CE1:9847, V-A:ILE:369:CG2:3234, V-A:PRO:540:CB:4883, V-A:ILE:369:CD1:3236, V-A:ASP:366:CG:3210, V-A:LEU:475:CD2:4256, V-A:TYR:539:CE1:4873, V-B:PRO:540:CA:9855, V-B:TYR:539:CD1:9845, V-B:PRO:540:N:9856, V-B:TYR:539:C:9839, V-A:ASP:366:CA:3207, V-A:ASP:366:CB:3209, V-A:ALA:541:CB:4890, V-B:TYR:539:CZ:9849, H-A:TYR:531:OH:4793, H-A:ASP:366:OD2:3212, H-A:ASP:366:OD1:3211, V-B:PRO:540:C:9853, H-A:ALA:541:N:4889, V-A:ASN:362:CB:3173, V-B:ALA:541:CA:9862, V-A:SER:385:CA:3404, V-A:SER:385:C:3402"]

$$$$
4bi_Grossjean_2025
     RDKit          3D

 32 34  0  0  0  0  0  0  0  0999 V2000
  124.3700  123.2480   56.5540 C   0  0  0  0  0  0  0  0  0  0  0  0
  125.2710  123.3270   57.7730 C   0  0  0  0  0  0  0  0  0  0  0  0
  124.7400  123.5050   59.0480 C   0  0  0  0  0  0  0  0  0  0  0  0
  125.5850  123.5730   60.1680 C   0  0  0  0  0  0  0  0  0  0  0  0
  124.9540  123.7610   61.5510 C   0  0  0  0  0  0  0  0  0  0  0  0
  123.7170  124.2610   61.4970 F   0  0  0  0  0  0  0  0  0  0  0  0
  124.8810  122.5870   62.1780 F   0  0  0  0  0  0  0  0  0  0  0  0
  125.6930  124.6020   62.2740 F   0  0  0  0  0  0  0  0  0  0  0  0
  126.9880  123.4570   59.9330 C   0  0  0  0  0  0  0  0  0  0  0  0
  128.1340  123.4820   60.8090 C   0  0  0  0  0  0  0  0  0  0  0  0
  128.0270  123.6500   62.1660 N   0  0  0  0  0  0  0  0  0  0  0  0
  129.3630  123.3130   60.1510 C   0  0  0  0  0  0  0  0  0  0  0  0
  130.7120  123.3000   60.7230 C   0  0  0  0  0  0  0  0  0  0  0  0
  131.5130  122.4100   60.4290 O   0  0  0  0  0  0  0  0  0  0  0  0
  130.9980  124.3270   61.5620 N   0  0  0  0  0  0  0  0  0  0  0  0
  132.1930  124.5670   62.2280 C   0  0  0  0  0  0  0  0  0  0  0  0
  133.4330  124.5650   61.5920 C   0  0  0  0  0  0  0  0  0  0  0  0
  134.3460  124.8390   62.5860 C   0  0  0  0  0  0  0  0  0  0  0  0
  133.6880  124.9980   63.7590 O   0  0  0  0  0  0  0  0  0  0  0  0
  132.3240  124.8220   63.5190 N   0  0  0  0  0  0  0  0  0  0  0  0
  129.1360  123.1410   58.4120 S   0  0  0  0  0  0  0  0  0  0  0  0
  127.4020  123.2770   58.5780 C   0  0  0  0  0  0  0  0  0  0  0  0
  126.5950  123.2120   57.5190 N   0  0  0  0  0  0  0  0  0  0  0  0
  123.3227  123.1562   56.8775 H   0  0  0  0  0  0  0  0  0  0  0  0
  124.4887  124.1600   55.9506 H   0  0  0  0  0  0  0  0  0  0  0  0
  124.6456  122.3706   55.9506 H   0  0  0  0  0  0  0  0  0  0  0  0
  123.6514  123.5930   59.1789 H   0  0  0  0  0  0  0  0  0  0  0  0
  127.3280  123.1640   62.7110 H   0  0  0  0  0  0  0  0  0  0  0  0
  128.6430  124.2730   62.6690 H   0  0  0  0  0  0  0  0  0  0  0  0
  130.2690  125.0070   61.7200 H   0  0  0  0  0  0  0  0  0  0  0  0
  133.6381  124.3838   60.5266 H   0  0  0  0  0  0  0  0  0  0  0  0
  135.4347  124.9163   62.4492 H   0  0  0  0  0  0  0  0  0  0  0  0
  1  2  1  0
  2  3  2  0
  3  4  1  0
  4  5  1  0
  5  6  1  0
  5  7  1  0
  5  8  1  0
  4  9  2  0
  9 10  1  0
 10 11  1  0
 10 12  2  0
 12 13  1  0
 13 14  2  0
 13 15  1  0
 15 16  1  0
 16 17  1  0
 17 18  2  0
 18 19  1  0
 19 20  1  0
 12 21  1  0
 21 22  1  0
 22 23  2  0
 23  2  1  0
 22  9  1  0
 20 16  2  0
  1 24  1  0
  1 25  1  0
  1 26  1  0
  3 27  1  0
 11 28  1  0
 11 29  1  0
 15 30  1  0
 17 31  1  0
 18 32  1  0
M  END
>  <Binding energies>  (1) 
[-6.03]

>  <Ligand effiencies>  (1) 
[-0.23192307692307693]

>  <Interactions>  (1) 
["V-A:ARG:545:CZ:4924, H-A:ARG:545:NE:4922, V-B:ALA:541:CB:9864, V-B:TYR:539:CE1:9847, V-B:ARG:545:CZ:9898, V-A:ILE:369:CD1:3236, H-A:GLY:454:N:4047, V-B:TYR:531:CE2:9765, V-A:GLY:453:C:4039, V-B:PRO:540:CA:9855, V-B:ILE:538:CG2:9835, V-B:ASP:366:CG:8184, V-B:PRO:540:CB:9857, H-A:ARG:545:NH2:4926, V-B:PRO:540:CD:9859, V-B:ILE:538:CB:9834, V-B:LEU:363:CD1:8160, V-B:TYR:539:CD1:9845, V-B:PRO:540:N:9856, V-B:TYR:539:C:9839, V-B:GLU:543:CD:9880, H-B:GLU:543:OE1:9881, V-B:TYR:539:CZ:9849, V-B:PRO:540:C:9853, V-B:ASN:362:CB:8147, H-B:ALA:541:O:9861, V-B:ALA:541:CA:9862, V-A:GLY:453:CA:4041, V-B:ALA:541:C:9860, V-B:ASN:362:C:8143, V-B:ASN:362:CA:8145"]

$$$$
4bj_Grossjean_2025
     RDKit          3D

 32 34  0  0  0  0  0  0  0  0999 V2000
  133.5650  125.3700   64.6930 C   0  0  0  0  0  0  0  0  0  0  0  0
  132.7290  124.5460   63.7310 C   0  0  0  0  0  0  0  0  0  0  0  0
  133.2310  123.3760   63.1660 C   0  0  0  0  0  0  0  0  0  0  0  0
  132.4490  122.6270   62.2720 C   0  0  0  0  0  0  0  0  0  0  0  0
  133.0460  121.3480   61.6730 C   0  0  0  0  0  0  0  0  0  0  0  0
  133.5630  121.5330   60.4570 F   0  0  0  0  0  0  0  0  0  0  0  0
  134.0220  120.8940   62.4590 F   0  0  0  0  0  0  0  0  0  0  0  0
  132.0970  120.4170   61.5660 F   0  0  0  0  0  0  0  0  0  0  0  0
  131.1410  123.1150   61.9830 C   0  0  0  0  0  0  0  0  0  0  0  0
  130.0780  122.6320   61.1340 C   0  0  0  0  0  0  0  0  0  0  0  0
  130.1900  121.4890   60.3840 N   0  0  0  0  0  0  0  0  0  0  0  0
  128.9230  123.4300   61.1510 C   0  0  0  0  0  0  0  0  0  0  0  0
  127.6740  123.2440   60.4100 C   0  0  0  0  0  0  0  0  0  0  0  0
  126.6010  123.1150   61.0030 O   0  0  0  0  0  0  0  0  0  0  0  0
  127.7930  123.2390   59.0590 N   0  0  0  0  0  0  0  0  0  0  0  0
  126.7700  123.0930   58.1320 C   0  0  0  0  0  0  0  0  0  0  0  0
  126.7860  122.4030   57.0120 N   0  0  0  0  0  0  0  0  0  0  0  0
  125.6340  122.4800   56.3780 C   0  0  0  0  0  0  0  0  0  0  0  0
  124.6470  123.2490   56.9860 C   0  0  0  0  0  0  0  0  0  0  0  0
  125.2740  123.9050   58.4680 S   0  0  0  0  0  0  0  0  0  0  0  0
  129.1260  124.8250   62.2080 S   0  0  0  0  0  0  0  0  0  0  0  0
  130.7460  124.3240   62.6330 C   0  0  0  0  0  0  0  0  0  0  0  0
  131.4930  125.0340   63.4780 N   0  0  0  0  0  0  0  0  0  0  0  0
  133.2988  125.1076   65.7275 H   0  0  0  0  0  0  0  0  0  0  0  0
  134.6315  125.1602   64.5244 H   0  0  0  0  0  0  0  0  0  0  0  0
  133.3706  126.4395   64.5244 H   0  0  0  0  0  0  0  0  0  0  0  0
  134.2457  123.0369   63.4216 H   0  0  0  0  0  0  0  0  0  0  0  0
  131.0780  121.1720   60.0210 H   0  0  0  0  0  0  0  0  0  0  0  0
  129.3810  120.9250   60.1620 H   0  0  0  0  0  0  0  0  0  0  0  0
  128.7180  123.3620   58.6750 H   0  0  0  0  0  0  0  0  0  0  0  0
  125.4620  121.9650   55.4213 H   0  0  0  0  0  0  0  0  0  0  0  0
  123.6334  123.4150   56.5923 H   0  0  0  0  0  0  0  0  0  0  0  0
  1  2  1  0
  2  3  2  0
  3  4  1  0
  4  5  1  0
  5  6  1  0
  5  7  1  0
  5  8  1  0
  4  9  2  0
  9 10  1  0
 10 11  1  0
 10 12  2  0
 12 13  1  0
 13 14  2  0
 13 15  1  0
 15 16  1  0
 16 17  2  0
 17 18  1  0
 18 19  2  0
 19 20  1  0
 12 21  1  0
 21 22  1  0
 22 23  2  0
 23  2  1  0
 22  9  1  0
 20 16  1  0
  1 24  1  0
  1 25  1  0
  1 26  1  0
  3 27  1  0
 11 28  1  0
 11 29  1  0
 15 30  1  0
 18 31  1  0
 19 32  1  0
M  END
>  <Binding energies>  (1) 
[-5.7]

>  <Ligand effiencies>  (1) 
[-0.21923076923076923]

>  <Interactions>  (1) 
["V-A:ARG:545:CZ:4924, V-A:GLY:454:CA:4046, V-B:TYR:539:CE1:9847, V-A:ILE:369:CG2:3234, V-A:ILE:369:CD1:3236, V-A:LEU:475:CD2:4256, V-B:TYR:531:CE2:9765, V-A:GLY:453:C:4039, V-B:ILE:538:CA:9832, V-B:PRO:540:CA:9855, V-B:ILE:538:CG2:9835, V-B:PRO:540:CB:9857, V-B:PRO:540:CD:9859, V-B:ILE:538:CB:9834, V-B:LEU:363:CD1:8160, V-B:TYR:539:CD1:9845, V-B:PRO:540:N:9856, V-B:TYR:539:C:9839, V-B:GLU:543:CD:9880, H-B:ALA:541:N:9863, V-A:ILE:369:CB:3233, H-B:TYR:539:N:9842, H-B:TYR:539:O:9840, V-A:ARG:545:CD:4921, V-A:SER:385:CA:3404, V-A:SER:385:C:3402, V-A:GLY:453:CA:4041"]

$$$$
4bk_Grossjean_2025
     RDKit          3D

 50 51  0  0  0  0  0  0  0  0999 V2000
  127.4770  128.2210   73.6980 C   0  0  0  0  0  0  0  0  0  0  0  0
  128.7420  128.8400   73.8720 O   0  0  0  0  0  0  0  0  0  0  0  0
  129.4470  129.0420   72.6540 C   0  0  0  0  0  0  0  0  0  0  0  0
  130.1360  127.7360   72.2400 C   0  0  0  0  0  0  0  0  0  0  0  0
  129.3050  127.0320   71.3270 O   0  0  0  0  0  0  0  0  0  0  0  0
  129.1800  127.6630   70.0600 C   0  0  0  0  0  0  0  0  0  0  0  0
  127.8570  127.2400   69.4080 C   0  0  0  0  0  0  0  0  0  0  0  0
  128.0060  127.2450   67.9950 O   0  0  0  0  0  0  0  0  0  0  0  0
  129.2830  127.6910   67.5540 C   0  0  0  0  0  0  0  0  0  0  0  0
  130.2450  126.4920   67.4810 C   0  0  0  0  0  0  0  0  0  0  0  0
  130.6180  126.1200   66.1160 N   0  0  0  0  0  0  0  0  0  0  0  0
  130.6180  124.8640   65.6220 C   0  0  0  0  0  0  0  0  0  0  0  0
  130.2740  123.8900   66.2950 O   0  0  0  0  0  0  0  0  0  0  0  0
  131.0440  124.7190   64.2290 C   0  0  0  0  0  0  0  0  0  0  0  0
  130.8930  126.0740   63.1140 S   0  0  0  0  0  0  0  0  0  0  0  0
  131.5900  125.1380   61.8140 C   0  0  0  0  0  0  0  0  0  0  0  0
  131.7570  125.6540   60.5970 N   0  0  0  0  0  0  0  0  0  0  0  0
  132.3090  124.8340   59.6730 C   0  0  0  0  0  0  0  0  0  0  0  0
  132.4920  125.4430   58.2950 C   0  0  0  0  0  0  0  0  0  0  0  0
  132.6940  123.5210   59.9350 C   0  0  0  0  0  0  0  0  0  0  0  0
  132.5190  122.9710   61.2140 C   0  0  0  0  0  0  0  0  0  0  0  0
  132.9550  121.5210   61.4530 C   0  0  0  0  0  0  0  0  0  0  0  0
  133.8400  121.3980   62.4440 F   0  0  0  0  0  0  0  0  0  0  0  0
  131.8940  120.7780   61.7700 F   0  0  0  0  0  0  0  0  0  0  0  0
  133.5200  121.0320   60.3510 F   0  0  0  0  0  0  0  0  0  0  0  0
  131.9410  123.8100   62.2130 C   0  0  0  0  0  0  0  0  0  0  0  0
  131.6200  123.6040   63.6030 C   0  0  0  0  0  0  0  0  0  0  0  0
  131.8550  122.4180   64.2500 N   0  0  0  0  0  0  0  0  0  0  0  0
  127.0359  128.0052   74.6823 H   0  0  0  0  0  0  0  0  0  0  0  0
  126.8125  128.8957   73.1384 H   0  0  0  0  0  0  0  0  0  0  0  0
  127.6020  127.2823   73.1384 H   0  0  0  0  0  0  0  0  0  0  0  0
  128.7411  129.3493   71.8683 H   0  0  0  0  0  0  0  0  0  0  0  0
  130.2040  129.8277   72.7943 H   0  0  0  0  0  0  0  0  0  0  0  0
  131.0981  127.9654   71.7585 H   0  0  0  0  0  0  0  0  0  0  0  0
  130.3113  127.1150   73.1308 H   0  0  0  0  0  0  0  0  0  0  0  0
  129.1918  128.7551   70.1912 H   0  0  0  0  0  0  0  0  0  0  0  0
  130.0195  127.3628   69.4157 H   0  0  0  0  0  0  0  0  0  0  0  0
  127.5883  126.2281   69.7454 H   0  0  0  0  0  0  0  0  0  0  0  0
  127.0627  127.9441   69.6968 H   0  0  0  0  0  0  0  0  0  0  0  0
  129.1886  128.1472   66.5575 H   0  0  0  0  0  0  0  0  0  0  0  0
  129.6768  128.4360   68.2611 H   0  0  0  0  0  0  0  0  0  0  0  0
  131.1609  126.7474   68.0340 H   0  0  0  0  0  0  0  0  0  0  0  0
  129.7184  125.6301   67.9168 H   0  0  0  0  0  0  0  0  0  0  0  0
  130.9100  126.8740   65.5130 H   0  0  0  0  0  0  0  0  0  0  0  0
  132.8072  126.4920   58.3966 H   0  0  0  0  0  0  0  0  0  0  0  0
  133.2609  124.8808   57.7448 H   0  0  0  0  0  0  0  0  0  0  0  0
  131.5406  125.3977   57.7448 H   0  0  0  0  0  0  0  0  0  0  0  0
  133.1380  122.9115   59.1341 H   0  0  0  0  0  0  0  0  0  0  0  0
  132.3070  121.6390   63.7920 H   0  0  0  0  0  0  0  0  0  0  0  0
  131.5870  122.2840   65.2160 H   0  0  0  0  0  0  0  0  0  0  0  0
  1  2  1  0
  2  3  1  0
  3  4  1  0
  4  5  1  0
  5  6  1  0
  6  7  1  0
  7  8  1  0
  8  9  1  0
  9 10  1  0
 10 11  1  0
 11 12  1  0
 12 13  2  0
 12 14  1  0
 14 15  1  0
 15 16  1  0
 16 17  2  0
 17 18  1  0
 18 19  1  0
 18 20  2  0
 20 21  1  0
 21 22  1  0
 22 23  1  0
 22 24  1  0
 22 25  1  0
 21 26  2  0
 26 27  1  0
 27 28  1  0
 27 14  2  0
 26 16  1  0
  1 29  1  0
  1 30  1  0
  1 31  1  0
  3 32  1  0
  3 33  1  0
  4 34  1  0
  4 35  1  0
  6 36  1  0
  6 37  1  0
  7 38  1  0
  7 39  1  0
  9 40  1  0
  9 41  1  0
 10 42  1  0
 10 43  1  0
 11 44  1  0
 19 45  1  0
 19 46  1  0
 19 47  1  0
 20 48  1  0
 28 49  1  0
 28 50  1  0
M  END
>  <Binding energies>  (1) 
[-4.97]

>  <Ligand effiencies>  (1) 
[-0.16032258064516128]

>  <Interactions>  (1) 
["V-A:GLY:454:CA:4046, V-B:TYR:539:CE1:9847, V-A:ILE:369:CG2:3234, V-A:ILE:369:CD1:3236, H-A:TYR:484:OH:4345, V-A:ASP:366:CG:3210, V-A:LEU:475:CD2:4256, V-B:TYR:539:CD1:9845, V-B:GLU:543:CD:9880, V-B:GLU:543:CG:9879, H-A:GLU:543:OE2:4908, V-B:GLU:543:CB:9878, V-A:HIS:456:CE1:4066, V-A:ASP:366:CA:3207, V-A:ASP:366:CB:3209, V-B:HIS:456:CE1:9040, V-A:GLU:543:CD:4906, V-A:GLU:543:CG:4905, V-B:GLU:543:C:9874, V-B:HIS:456:CD2:9039, V-B:LYS:547:CE:9922, V-A:LYS:547:CE:4948, V-A:GLY:544:C:4910, H-A:LYS:547:NZ:4949, V-B:HIS:456:CG:9037, V-A:GLY:544:CA:4912, H-A:HIS:456:NE2:4067, V-A:TYR:484:CZ:4344, V-A:TYR:484:CE2:4343, V-A:SER:385:C:3402"]

$$$$
4ca_Grossjean_2025
     RDKit          3D

 52 55  0  0  0  0  0  0  0  0999 V2000
  126.4910  133.3680   61.5070 C   0  0  0  0  0  0  0  0  0  0  0  0
  124.9910  133.4220   61.2030 C   0  0  0  0  0  0  0  0  0  0  0  0
  124.4760  132.1000   61.1280 O   0  0  0  0  0  0  0  0  0  0  0  0
  124.5040  131.4000   59.9640 C   0  0  0  0  0  0  0  0  0  0  0  0
  123.9480  131.7810   58.9290 O   0  0  0  0  0  0  0  0  0  0  0  0
  125.2820  130.1200   60.0610 C   0  0  0  0  0  0  0  0  0  0  0  0
  125.6600  129.6430   61.3230 C   0  0  0  0  0  0  0  0  0  0  0  0
  126.3780  128.4560   61.4450 C   0  0  0  0  0  0  0  0  0  0  0  0
  126.7380  127.7280   60.3120 C   0  0  0  0  0  0  0  0  0  0  0  0
  127.4540  126.5390   60.5520 N   0  0  0  0  0  0  0  0  0  0  0  0
  127.0200  125.3310   60.9910 C   0  0  0  0  0  0  0  0  0  0  0  0
  125.8410  125.0620   61.2180 O   0  0  0  0  0  0  0  0  0  0  0  0
  128.0640  124.3190   61.1700 C   0  0  0  0  0  0  0  0  0  0  0  0
  127.9370  122.7620   60.3560 S   0  0  0  0  0  0  0  0  0  0  0  0
  129.4690  122.2420   61.0160 C   0  0  0  0  0  0  0  0  0  0  0  0
  129.9720  121.0410   60.7380 N   0  0  0  0  0  0  0  0  0  0  0  0
  131.1750  120.7300   61.2850 C   0  0  0  0  0  0  0  0  0  0  0  0
  131.7210  119.3730   60.9450 C   0  0  0  0  0  0  0  0  0  0  0  0
  133.0910  119.1890   60.6990 C   0  0  0  0  0  0  0  0  0  0  0  0
  133.6010  117.9340   60.3790 C   0  0  0  0  0  0  0  0  0  0  0  0
  132.7460  116.8400   60.2980 C   0  0  0  0  0  0  0  0  0  0  0  0
  131.3840  116.9940   60.5340 C   0  0  0  0  0  0  0  0  0  0  0  0
  130.8770  118.2510   60.8550 C   0  0  0  0  0  0  0  0  0  0  0  0
  131.8570  121.6170   62.1260 C   0  0  0  0  0  0  0  0  0  0  0  0
  131.3330  122.8830   62.4280 C   0  0  0  0  0  0  0  0  0  0  0  0
  132.1340  123.8060   63.3540 C   0  0  0  0  0  0  0  0  0  0  0  0
  132.5000  124.9470   62.7660 F   0  0  0  0  0  0  0  0  0  0  0  0
  131.4000  124.1240   64.4190 F   0  0  0  0  0  0  0  0  0  0  0  0
  133.2470  123.1900   63.7530 F   0  0  0  0  0  0  0  0  0  0  0  0
  130.0790  123.2260   61.8460 C   0  0  0  0  0  0  0  0  0  0  0  0
  129.2530  124.4070   61.9140 C   0  0  0  0  0  0  0  0  0  0  0  0
  129.6020  125.5140   62.6440 N   0  0  0  0  0  0  0  0  0  0  0  0
  126.3590  128.1940   59.0450 C   0  0  0  0  0  0  0  0  0  0  0  0
  125.6390  129.3800   58.9240 C   0  0  0  0  0  0  0  0  0  0  0  0
  126.6444  133.3625   62.5962 H   0  0  0  0  0  0  0  0  0  0  0  0
  126.9207  132.4538   61.0716 H   0  0  0  0  0  0  0  0  0  0  0  0
  126.9853  134.2489   61.0716 H   0  0  0  0  0  0  0  0  0  0  0  0
  124.4741  133.9722   62.0031 H   0  0  0  0  0  0  0  0  0  0  0  0
  124.8292  133.9340   60.2429 H   0  0  0  0  0  0  0  0  0  0  0  0
  125.3874  130.2108   62.2248 H   0  0  0  0  0  0  0  0  0  0  0  0
  126.6631  128.0903   62.4425 H   0  0  0  0  0  0  0  0  0  0  0  0
  128.4410  126.6050   60.3510 H   0  0  0  0  0  0  0  0  0  0  0  0
  133.7723  120.0505   60.7601 H   0  0  0  0  0  0  0  0  0  0  0  0
  134.6774  117.8078   60.1907 H   0  0  0  0  0  0  0  0  0  0  0  0
  133.1490  115.8480   60.0460 H   0  0  0  0  0  0  0  0  0  0  0  0
  130.7103  116.1270   60.4674 H   0  0  0  0  0  0  0  0  0  0  0  0
  129.7992  118.3683   61.0412 H   0  0  0  0  0  0  0  0  0  0  0  0
  132.8225  121.3157   62.5585 H   0  0  0  0  0  0  0  0  0  0  0  0
  130.3610  126.1200   62.3660 H   0  0  0  0  0  0  0  0  0  0  0  0
  129.1070  125.7650   63.4900 H   0  0  0  0  0  0  0  0  0  0  0  0
  126.6307  127.6221   58.1455 H   0  0  0  0  0  0  0  0  0  0  0  0
  125.3472  129.7402   57.9264 H   0  0  0  0  0  0  0  0  0  0  0  0
  1  2  1  0
  2  3  1  0
  3  4  1  0
  4  5  2  0
  4  6  1  0
  6  7  2  0
  7  8  1  0
  8  9  2  0
  9 10  1  0
 10 11  1  0
 11 12  2  0
 11 13  1  0
 13 14  1  0
 14 15  1  0
 15 16  2  0
 16 17  1  0
 17 18  1  0
 18 19  2  0
 19 20  1  0
 20 21  2  0
 21 22  1  0
 22 23  2  0
 17 24  2  0
 24 25  1  0
 25 26  1  0
 26 27  1  0
 26 28  1  0
 26 29  1  0
 25 30  2  0
 30 31  1  0
 31 32  1  0
  9 33  1  0
 33 34  2  0
 34  6  1  0
 31 13  2  0
 30 15  1  0
 23 18  1  0
  1 35  1  0
  1 36  1  0
  1 37  1  0
  2 38  1  0
  2 39  1  0
  7 40  1  0
  8 41  1  0
 10 42  1  0
 19 43  1  0
 20 44  1  0
 21 45  1  0
 22 46  1  0
 23 47  1  0
 24 48  1  0
 32 49  1  0
 32 50  1  0
 33 51  1  0
 34 52  1  0
M  END
>  <Binding energies>  (1) 
[-7.15]

>  <Ligand effiencies>  (1) 
[-0.19324324324324324]

>  <Interactions>  (1) 
["V-A:ARG:545:CZ:4924, H-B:ARG:545:NH2:9900, V-A:GLY:454:CA:4046, V-B:ALA:541:CB:9864, V-B:TYR:539:CE1:9847, V-A:ILE:369:CG2:3234, V-B:ILE:369:CG2:8208, V-A:LEU:475:CD2:4256, V-A:TYR:539:CE1:4873, V-A:GLY:453:C:4039, V-B:PRO:540:CA:9855, V-B:ASP:366:CG:8184, V-B:LEU:475:CD2:9230, V-B:TYR:539:CD1:9845, V-A:TYR:539:CD1:4871, V-B:ASP:366:CB:8183, V-B:PRO:540:N:9856, H-A:TYR:539:OH:4876, V-B:TYR:539:C:9839, V-B:GLU:543:CD:9880, H-B:GLU:543:OE1:9881, H-B:GLU:543:OE2:9882, V-B:PRO:540:C:9853, V-A:PRO:482:CB:4323, V-A:PRO:482:CG:4324, V-A:LEU:373:CD1:3277, V-A:SER:385:CA:3404, V-A:SER:385:CB:3406, V-A:VAL:384:C:3394"]

$$$$
4cb_Grossjean_2025
     RDKit          3D

 49 52  0  0  0  0  0  0  0  0999 V2000
  123.8930  132.2880   61.9950 C   0  0  0  0  0  0  0  0  0  0  0  0
  124.7960  132.2470   60.8990 O   0  0  0  0  0  0  0  0  0  0  0  0
  124.5840  131.4110   59.8500 C   0  0  0  0  0  0  0  0  0  0  0  0
  123.8410  131.6820   58.9020 O   0  0  0  0  0  0  0  0  0  0  0  0
  125.3460  130.1200   59.9570 C   0  0  0  0  0  0  0  0  0  0  0  0
  125.7740  129.6810   61.2170 C   0  0  0  0  0  0  0  0  0  0  0  0
  126.4740  128.4850   61.3490 C   0  0  0  0  0  0  0  0  0  0  0  0
  126.7680  127.7090   60.2280 C   0  0  0  0  0  0  0  0  0  0  0  0
  127.4670  126.5130   60.4790 N   0  0  0  0  0  0  0  0  0  0  0  0
  127.0290  125.3350   60.9850 C   0  0  0  0  0  0  0  0  0  0  0  0
  125.8550  125.1030   61.2800 O   0  0  0  0  0  0  0  0  0  0  0  0
  128.0570  124.3040   61.1520 C   0  0  0  0  0  0  0  0  0  0  0  0
  127.9030  122.7560   60.3250 S   0  0  0  0  0  0  0  0  0  0  0  0
  129.4290  122.2050   60.9750 C   0  0  0  0  0  0  0  0  0  0  0  0
  129.9120  120.9990   60.6880 N   0  0  0  0  0  0  0  0  0  0  0  0
  131.1110  120.6630   61.2320 C   0  0  0  0  0  0  0  0  0  0  0  0
  131.6320  119.2990   60.8860 C   0  0  0  0  0  0  0  0  0  0  0  0
  130.7570  118.2090   60.7500 C   0  0  0  0  0  0  0  0  0  0  0  0
  131.2350  116.9400   60.4330 C   0  0  0  0  0  0  0  0  0  0  0  0
  132.5990  116.7430   60.2450 C   0  0  0  0  0  0  0  0  0  0  0  0
  133.4880  117.8050   60.3760 C   0  0  0  0  0  0  0  0  0  0  0  0
  133.0060  119.0710   60.6950 C   0  0  0  0  0  0  0  0  0  0  0  0
  131.8070  121.5330   62.0790 C   0  0  0  0  0  0  0  0  0  0  0  0
  131.3040  122.8050   62.3910 C   0  0  0  0  0  0  0  0  0  0  0  0
  132.1200  123.7080   63.3250 C   0  0  0  0  0  0  0  0  0  0  0  0
  133.2370  123.1280   63.7690 F   0  0  0  0  0  0  0  0  0  0  0  0
  132.4770  124.8180   62.6790 F   0  0  0  0  0  0  0  0  0  0  0  0
  131.3890  124.0350   64.3900 F   0  0  0  0  0  0  0  0  0  0  0  0
  130.0560  123.1740   61.8130 C   0  0  0  0  0  0  0  0  0  0  0  0
  129.2500  124.3680   61.8910 C   0  0  0  0  0  0  0  0  0  0  0  0
  129.6210  125.4650   62.6260 N   0  0  0  0  0  0  0  0  0  0  0  0
  126.3400  128.1400   58.9630 C   0  0  0  0  0  0  0  0  0  0  0  0
  125.6380  129.3350   58.8320 C   0  0  0  0  0  0  0  0  0  0  0  0
  124.4592  132.2623   62.9377 H   0  0  0  0  0  0  0  0  0  0  0  0
  123.3010  133.2139   61.9479 H   0  0  0  0  0  0  0  0  0  0  0  0
  123.2196  131.4195   61.9479 H   0  0  0  0  0  0  0  0  0  0  0  0
  125.5551  130.2863   62.1090 H   0  0  0  0  0  0  0  0  0  0  0  0
  126.7978  128.1493   62.3452 H   0  0  0  0  0  0  0  0  0  0  0  0
  128.4450  126.5490   60.2300 H   0  0  0  0  0  0  0  0  0  0  0  0
  129.6773  118.3599   60.8961 H   0  0  0  0  0  0  0  0  0  0  0  0
  130.5363  116.0964   60.3316 H   0  0  0  0  0  0  0  0  0  0  0  0
  132.9770  115.7416   59.9913 H   0  0  0  0  0  0  0  0  0  0  0  0
  134.5662  117.6449   60.2282 H   0  0  0  0  0  0  0  0  0  0  0  0
  133.7124  119.9077   60.7995 H   0  0  0  0  0  0  0  0  0  0  0  0
  132.7677  121.2131   62.5087 H   0  0  0  0  0  0  0  0  0  0  0  0
  129.1150  125.7500   63.4530 H   0  0  0  0  0  0  0  0  0  0  0  0
  130.4200  126.0270   62.3660 H   0  0  0  0  0  0  0  0  0  0  0  0
  126.5597  127.5322   58.0729 H   0  0  0  0  0  0  0  0  0  0  0  0
  125.3090  129.6669   57.8362 H   0  0  0  0  0  0  0  0  0  0  0  0
  1  2  1  0
  2  3  1  0
  3  4  2  0
  3  5  1  0
  5  6  2  0
  6  7  1  0
  7  8  2  0
  8  9  1  0
  9 10  1  0
 10 11  2  0
 10 12  1  0
 12 13  1  0
 13 14  1  0
 14 15  2  0
 15 16  1  0
 16 17  1  0
 17 18  2  0
 18 19  1  0
 19 20  2  0
 20 21  1  0
 21 22  2  0
 16 23  2  0
 23 24  1  0
 24 25  1  0
 25 26  1  0
 25 27  1  0
 25 28  1  0
 24 29  2  0
 29 30  1  0
 30 31  1  0
  8 32  1  0
 32 33  2  0
 33  5  1  0
 30 12  2  0
 29 14  1  0
 22 17  1  0
  1 34  1  0
  1 35  1  0
  1 36  1  0
  6 37  1  0
  7 38  1  0
  9 39  1  0
 18 40  1  0
 19 41  1  0
 20 42  1  0
 21 43  1  0
 22 44  1  0
 23 45  1  0
 31 46  1  0
 31 47  1  0
 32 48  1  0
 33 49  1  0
M  END
>  <Binding energies>  (1) 
[-7.14]

>  <Ligand effiencies>  (1) 
[-0.19833333333333333]

>  <Interactions>  (1) 
["H-B:ARG:545:NH2:9900, V-A:GLY:454:CA:4046, V-B:ALA:541:CB:9864, V-B:TYR:539:CE1:9847, V-B:ILE:369:CG2:8208, V-B:ILE:369:CD1:8210, V-A:LEU:475:CD2:4256, V-A:TYR:539:CE1:4873, V-B:PRO:540:CA:9855, V-B:ASP:366:CG:8184, V-B:TYR:539:CD1:9845, V-B:ASP:366:CB:8183, V-B:PRO:540:N:9856, H-A:TYR:539:OH:4876, V-B:TYR:539:C:9839, V-B:GLU:543:CD:9880, H-B:GLU:543:OE1:9881, H-B:GLU:543:OE2:9882, V-A:TYR:539:CZ:4875, V-B:PRO:540:C:9853, V-A:PRO:482:CB:4323, V-A:PRO:482:CG:4324, V-B:TYR:539:CB:9843, V-A:LEU:373:CD1:3277, V-A:SER:385:CA:3404, V-A:SER:385:CB:3406, V-A:VAL:384:C:3394"]

$$$$
4cc_Grossjean_2025
     RDKit          3D

 47 50  0  0  0  0  0  0  0  0999 V2000
  123.9840  133.3400   62.2910 C   0  0  0  0  0  0  0  0  0  0  0  0
  123.9700  132.4220   63.3790 O   0  0  0  0  0  0  0  0  0  0  0  0
  124.8230  131.3360   63.3570 C   0  0  0  0  0  0  0  0  0  0  0  0
  124.8850  130.6180   62.1630 C   0  0  0  0  0  0  0  0  0  0  0  0
  125.7180  129.5090   62.0440 C   0  0  0  0  0  0  0  0  0  0  0  0
  126.4950  129.0950   63.1280 C   0  0  0  0  0  0  0  0  0  0  0  0
  127.3170  127.9740   62.9090 N   0  0  0  0  0  0  0  0  0  0  0  0
  127.6330  127.3560   61.7450 C   0  0  0  0  0  0  0  0  0  0  0  0
  127.2510  127.7380   60.6380 O   0  0  0  0  0  0  0  0  0  0  0  0
  128.4860  126.1700   61.8730 C   0  0  0  0  0  0  0  0  0  0  0  0
  128.2010  124.7590   60.8560 S   0  0  0  0  0  0  0  0  0  0  0  0
  129.5400  123.9060   61.5880 C   0  0  0  0  0  0  0  0  0  0  0  0
  129.8670  122.6730   61.2110 N   0  0  0  0  0  0  0  0  0  0  0  0
  130.9290  122.0950   61.8300 C   0  0  0  0  0  0  0  0  0  0  0  0
  131.2730  120.7030   61.3860 C   0  0  0  0  0  0  0  0  0  0  0  0
  130.3400  119.6600   61.5040 C   0  0  0  0  0  0  0  0  0  0  0  0
  130.6520  118.3660   61.0960 C   0  0  0  0  0  0  0  0  0  0  0  0
  131.9080  118.0950   60.5630 C   0  0  0  0  0  0  0  0  0  0  0  0
  132.8520  119.1080   60.4380 C   0  0  0  0  0  0  0  0  0  0  0  0
  132.5360  120.4010   60.8480 C   0  0  0  0  0  0  0  0  0  0  0  0
  131.6450  122.7510   62.8360 C   0  0  0  0  0  0  0  0  0  0  0  0
  131.3070  124.0520   63.2430 C   0  0  0  0  0  0  0  0  0  0  0  0
  132.1380  124.7140   64.3480 C   0  0  0  0  0  0  0  0  0  0  0  0
  132.4900  125.9690   64.0590 F   0  0  0  0  0  0  0  0  0  0  0  0
  131.4380  124.7470   65.4810 F   0  0  0  0  0  0  0  0  0  0  0  0
  133.2590  124.0210   64.5450 F   0  0  0  0  0  0  0  0  0  0  0  0
  130.2010  124.6710   62.5940 C   0  0  0  0  0  0  0  0  0  0  0  0
  129.5720  125.9610   62.7380 C   0  0  0  0  0  0  0  0  0  0  0  0
  130.0040  126.9000   63.6410 N   0  0  0  0  0  0  0  0  0  0  0  0
  126.4470  129.8190   64.3280 C   0  0  0  0  0  0  0  0  0  0  0  0
  125.6140  130.9280   64.4420 C   0  0  0  0  0  0  0  0  0  0  0  0
  123.9997  134.3689   62.6796 H   0  0  0  0  0  0  0  0  0  0  0  0
  124.8796  133.1665   61.6764 H   0  0  0  0  0  0  0  0  0  0  0  0
  123.0835  133.1939   61.6764 H   0  0  0  0  0  0  0  0  0  0  0  0
  124.2695  130.9311   61.3067 H   0  0  0  0  0  0  0  0  0  0  0  0
  125.7643  128.9573   61.0935 H   0  0  0  0  0  0  0  0  0  0  0  0
  127.7490  127.6030   63.7430 H   0  0  0  0  0  0  0  0  0  0  0  0
  129.3459  119.8690   61.9259 H   0  0  0  0  0  0  0  0  0  0  0  0
  129.9085  117.5613   61.1947 H   0  0  0  0  0  0  0  0  0  0  0  0
  132.1557  117.0735   60.2386 H   0  0  0  0  0  0  0  0  0  0  0  0
  133.8444  118.8892   60.0170 H   0  0  0  0  0  0  0  0  0  0  0  0
  133.2869  121.1987   60.7492 H   0  0  0  0  0  0  0  0  0  0  0  0
  132.4900  122.2378   63.3183 H   0  0  0  0  0  0  0  0  0  0  0  0
  130.6130  127.6600   63.3710 H   0  0  0  0  0  0  0  0  0  0  0  0
  129.7290  126.8600   64.6120 H   0  0  0  0  0  0  0  0  0  0  0  0
  127.0690  129.5097   65.1809 H   0  0  0  0  0  0  0  0  0  0  0  0
  125.5754  131.4880   65.3880 H   0  0  0  0  0  0  0  0  0  0  0  0
  1  2  1  0
  2  3  1  0
  3  4  2  0
  4  5  1  0
  5  6  2  0
  6  7  1  0
  7  8  1  0
  8  9  2  0
  8 10  1  0
 10 11  1  0
 11 12  1  0
 12 13  2  0
 13 14  1  0
 14 15  1  0
 15 16  2  0
 16 17  1  0
 17 18  2  0
 18 19  1  0
 19 20  2  0
 14 21  2  0
 21 22  1  0
 22 23  1  0
 23 24  1  0
 23 25  1  0
 23 26  1  0
 22 27  2  0
 27 28  1  0
 28 29  1  0
  6 30  1  0
 30 31  2  0
 31  3  1  0
 28 10  2  0
 27 12  1  0
 20 15  1  0
  1 32  1  0
  1 33  1  0
  1 34  1  0
  4 35  1  0
  5 36  1  0
  7 37  1  0
 16 38  1  0
 17 39  1  0
 18 40  1  0
 19 41  1  0
 20 42  1  0
 21 43  1  0
 29 44  1  0
 29 45  1  0
 30 46  1  0
 31 47  1  0
M  END
>  <Binding energies>  (1) 
[-7.49]

>  <Ligand effiencies>  (1) 
[-0.22029411764705883]

>  <Interactions>  (1) 
["V-A:ARG:545:CZ:4924, V-A:GLY:454:CA:4046, V-B:ALA:541:CB:9864, V-B:TYR:539:CE1:9847, V-A:ILE:369:CG2:3234, V-B:ILE:369:CG2:8208, V-B:ARG:545:CZ:9898, V-B:ILE:369:CD1:8210, V-A:LEU:475:CD2:4256, V-A:GLY:453:C:4039, V-B:ASP:366:CG:8184, V-B:LEU:475:CD2:9230, V-B:TYR:539:CD1:9845, H-B:GLY:454:N:9021, V-B:GLU:543:CD:9880, H-A:GLU:543:OE2:4908, H-B:GLU:543:OE1:9881, H-A:GLU:543:OE1:4907, H-B:GLU:543:OE2:9882, V-A:GLU:543:CD:4906, V-B:GLY:454:CA:9020, V-A:PRO:482:CB:4323, V-A:TYR:484:CZ:4344, V-A:PRO:482:CG:4324, V-A:LEU:373:CD1:3277, V-A:SER:385:CA:3404"]

$$$$
4cd_Grossjean_2025
     RDKit          3D

 43 46  0  0  0  0  0  0  0  0999 V2000
  129.9910  126.8770   63.6540 N   0  0  0  0  0  0  0  0  0  0  0  0
  129.5450  125.9350   62.7620 C   0  0  0  0  0  0  0  0  0  0  0  0
  128.4390  126.1360   61.9200 C   0  0  0  0  0  0  0  0  0  0  0  0
  127.5630  127.3080   61.8270 C   0  0  0  0  0  0  0  0  0  0  0  0
  127.0710  127.6400   60.7480 O   0  0  0  0  0  0  0  0  0  0  0  0
  127.3440  127.9640   62.9930 N   0  0  0  0  0  0  0  0  0  0  0  0
  126.6070  129.1370   63.2370 C   0  0  0  0  0  0  0  0  0  0  0  0
  127.1090  129.9800   64.2330 C   0  0  0  0  0  0  0  0  0  0  0  0
  126.4570  131.1710   64.5390 C   0  0  0  0  0  0  0  0  0  0  0  0
  125.3050  131.5260   63.8420 C   0  0  0  0  0  0  0  0  0  0  0  0
  124.8010  130.7030   62.8390 C   0  0  0  0  0  0  0  0  0  0  0  0
  125.4500  129.5090   62.5300 C   0  0  0  0  0  0  0  0  0  0  0  0
  128.1530  124.7290   60.8990 S   0  0  0  0  0  0  0  0  0  0  0  0
  129.5050  123.8820   61.6100 C   0  0  0  0  0  0  0  0  0  0  0  0
  129.8340  122.6500   61.2260 N   0  0  0  0  0  0  0  0  0  0  0  0
  130.8930  122.0680   61.8470 C   0  0  0  0  0  0  0  0  0  0  0  0
  131.2380  120.6780   61.3940 C   0  0  0  0  0  0  0  0  0  0  0  0
  132.5040  120.3900   60.8590 C   0  0  0  0  0  0  0  0  0  0  0  0
  132.8310  119.1040   60.4380 C   0  0  0  0  0  0  0  0  0  0  0  0
  131.8920  118.0840   60.5470 C   0  0  0  0  0  0  0  0  0  0  0  0
  130.6320  118.3410   61.0760 C   0  0  0  0  0  0  0  0  0  0  0  0
  130.3100  119.6270   61.4970 C   0  0  0  0  0  0  0  0  0  0  0  0
  131.6270  122.7300   62.8340 C   0  0  0  0  0  0  0  0  0  0  0  0
  131.2920  124.0310   63.2440 C   0  0  0  0  0  0  0  0  0  0  0  0
  132.1370  124.6980   64.3350 C   0  0  0  0  0  0  0  0  0  0  0  0
  133.2450  124.0140   64.6310 F   0  0  0  0  0  0  0  0  0  0  0  0
  132.5130  125.9130   63.9360 F   0  0  0  0  0  0  0  0  0  0  0  0
  131.4240  124.8030   65.4570 F   0  0  0  0  0  0  0  0  0  0  0  0
  130.1760  124.6470   62.6090 C   0  0  0  0  0  0  0  0  0  0  0  0
  129.7070  126.8710   64.6230 H   0  0  0  0  0  0  0  0  0  0  0  0
  130.6260  127.6100   63.3710 H   0  0  0  0  0  0  0  0  0  0  0  0
  127.7540  127.5520   63.8180 H   0  0  0  0  0  0  0  0  0  0  0  0
  128.0233  129.7008   64.7772 H   0  0  0  0  0  0  0  0  0  0  0  0
  126.8501  131.8290   65.3280 H   0  0  0  0  0  0  0  0  0  0  0  0
  124.7883  132.4658   64.0864 H   0  0  0  0  0  0  0  0  0  0  0  0
  123.8925  130.9943   62.2915 H   0  0  0  0  0  0  0  0  0  0  0  0
  125.0577  128.8587   61.7343 H   0  0  0  0  0  0  0  0  0  0  0  0
  133.2497  121.1939   60.7711 H   0  0  0  0  0  0  0  0  0  0  0  0
  133.8274  118.8956   60.0211 H   0  0  0  0  0  0  0  0  0  0  0  0
  132.1476  117.0677   60.2127 H   0  0  0  0  0  0  0  0  0  0  0  0
  129.8930  117.5307   61.1612 H   0  0  0  0  0  0  0  0  0  0  0  0
  129.3130  119.8249   61.9174 H   0  0  0  0  0  0  0  0  0  0  0  0
  132.4846  122.2223   63.2995 H   0  0  0  0  0  0  0  0  0  0  0  0
  1  2  1  0
  2  3  2  0
  3  4  1  0
  4  5  2  0
  4  6  1  0
  6  7  1  0
  7  8  2  0
  8  9  1  0
  9 10  2  0
 10 11  1  0
 11 12  2  0
  3 13  1  0
 13 14  1  0
 14 15  2  0
 15 16  1  0
 16 17  1  0
 17 18  2  0
 18 19  1  0
 19 20  2  0
 20 21  1  0
 21 22  2  0
 16 23  2  0
 23 24  1  0
 24 25  1  0
 25 26  1  0
 25 27  1  0
 25 28  1  0
 24 29  2  0
 29  2  1  0
 12  7  1  0
 29 14  1  0
 22 17  1  0
  1 30  1  0
  1 31  1  0
  6 32  1  0
  8 33  1  0
  9 34  1  0
 10 35  1  0
 11 36  1  0
 12 37  1  0
 18 38  1  0
 19 39  1  0
 20 40  1  0
 21 41  1  0
 22 42  1  0
 23 43  1  0
M  END
>  <Binding energies>  (1) 
[-7.53]

>  <Ligand effiencies>  (1) 
[-0.2353125]

>  <Interactions>  (1) 
["V-A:ARG:545:CZ:4924, H-B:ARG:545:NH2:9900, V-A:GLY:454:CA:4046, V-B:ALA:541:CB:9864, V-B:TYR:539:CE1:9847, V-A:ILE:369:CG2:3234, V-B:ARG:545:CZ:9898, V-A:LEU:475:CD2:4256, V-A:GLY:453:C:4039, V-B:TYR:539:CD1:9845, V-B:GLU:543:CD:9880, H-A:GLU:543:OE2:4908, H-B:GLU:543:OE1:9881, H-A:GLU:543:OE1:4907, H-B:GLU:543:OE2:9882, V-A:GLU:543:CD:4906, V-B:GLY:454:CA:9020, V-A:PRO:482:CB:4323, V-A:TYR:484:CZ:4344, V-A:PRO:482:CG:4324, V-A:LEU:373:CD1:3277, V-A:SER:385:CA:3404"]

$$$$
4ce_Grossjean_2025
     RDKit          3D

 45 48  0  0  0  0  0  0  0  0999 V2000
  123.9660  131.0160   61.4370 C   0  0  0  0  0  0  0  0  0  0  0  0
  124.9240  130.5630   62.5230 C   0  0  0  0  0  0  0  0  0  0  0  0
  125.0080  131.2310   63.7470 C   0  0  0  0  0  0  0  0  0  0  0  0
  125.9060  130.7540   64.7030 C   0  0  0  0  0  0  0  0  0  0  0  0
  126.6870  129.6330   64.4170 C   0  0  0  0  0  0  0  0  0  0  0  0
  126.5560  129.0140   63.1680 C   0  0  0  0  0  0  0  0  0  0  0  0
  127.3520  127.8750   62.9480 N   0  0  0  0  0  0  0  0  0  0  0  0
  127.5950  127.2220   61.7850 C   0  0  0  0  0  0  0  0  0  0  0  0
  127.1380  127.5700   60.6950 O   0  0  0  0  0  0  0  0  0  0  0  0
  128.4600  126.0440   61.8930 C   0  0  0  0  0  0  0  0  0  0  0  0
  128.0850  124.5820   60.9850 S   0  0  0  0  0  0  0  0  0  0  0  0
  129.5090  123.7800   61.6020 C   0  0  0  0  0  0  0  0  0  0  0  0
  129.8120  122.5340   61.2470 N   0  0  0  0  0  0  0  0  0  0  0  0
  130.9480  121.9990   61.7670 C   0  0  0  0  0  0  0  0  0  0  0  0
  131.2640  120.5950   61.3430 C   0  0  0  0  0  0  0  0  0  0  0  0
  132.5130  120.2790   60.7830 C   0  0  0  0  0  0  0  0  0  0  0  0
  132.8100  118.9800   60.3800 C   0  0  0  0  0  0  0  0  0  0  0  0
  131.8620  117.9750   60.5350 C   0  0  0  0  0  0  0  0  0  0  0  0
  130.6170  118.2610   61.0860 C   0  0  0  0  0  0  0  0  0  0  0  0
  130.3220  119.5620   61.4850 C   0  0  0  0  0  0  0  0  0  0  0  0
  131.7610  122.7090   62.6560 C   0  0  0  0  0  0  0  0  0  0  0  0
  131.4480  124.0230   63.0410 C   0  0  0  0  0  0  0  0  0  0  0  0
  132.3830  124.7440   64.0170 C   0  0  0  0  0  0  0  0  0  0  0  0
  133.0990  125.7100   63.4390 F   0  0  0  0  0  0  0  0  0  0  0  0
  131.6690  125.3060   64.9940 F   0  0  0  0  0  0  0  0  0  0  0  0
  133.2410  123.8720   64.5470 F   0  0  0  0  0  0  0  0  0  0  0  0
  130.2670  124.5990   62.4900 C   0  0  0  0  0  0  0  0  0  0  0  0
  129.6410  125.8900   62.6390 C   0  0  0  0  0  0  0  0  0  0  0  0
  130.1580  126.8770   63.4380 N   0  0  0  0  0  0  0  0  0  0  0  0
  125.6770  129.4720   62.2290 N   0  0  0  0  0  0  0  0  0  0  0  0
  123.0635  131.4428   61.8989 H   0  0  0  0  0  0  0  0  0  0  0  0
  124.4540  131.7788   60.8124 H   0  0  0  0  0  0  0  0  0  0  0  0
  123.6861  130.1549   60.8124 H   0  0  0  0  0  0  0  0  0  0  0  0
  124.3816  132.1116   63.9524 H   0  0  0  0  0  0  0  0  0  0  0  0
  125.9978  131.2585   65.6762 H   0  0  0  0  0  0  0  0  0  0  0  0
  127.3952  129.2416   65.1622 H   0  0  0  0  0  0  0  0  0  0  0  0
  127.8300  127.5300   63.7670 H   0  0  0  0  0  0  0  0  0  0  0  0
  133.2677  121.0699   60.6611 H   0  0  0  0  0  0  0  0  0  0  0  0
  133.7916  118.7495   59.9403 H   0  0  0  0  0  0  0  0  0  0  0  0
  132.0977  116.9477   60.2201 H   0  0  0  0  0  0  0  0  0  0  0  0
  129.8692  117.4632   61.2059 H   0  0  0  0  0  0  0  0  0  0  0  0
  129.3358  119.7847   61.9183 H   0  0  0  0  0  0  0  0  0  0  0  0
  132.6636  122.2289   63.0619 H   0  0  0  0  0  0  0  0  0  0  0  0
  129.6020  127.6630   63.7450 H   0  0  0  0  0  0  0  0  0  0  0  0
  131.1200  126.8530   63.7480 H   0  0  0  0  0  0  0  0  0  0  0  0
  1  2  1  0
  2  3  2  0
  3  4  1  0
  4  5  2  0
  5  6  1  0
  6  7  1  0
  7  8  1  0
  8  9  2  0
  8 10  1  0
 10 11  1  0
 11 12  1  0
 12 13  2  0
 13 14  1  0
 14 15  1  0
 15 16  2  0
 16 17  1  0
 17 18  2  0
 18 19  1  0
 19 20  2  0
 14 21  2  0
 21 22  1  0
 22 23  1  0
 23 24  1  0
 23 25  1  0
 23 26  1  0
 22 27  2  0
 27 28  1  0
 28 29  1  0
  6 30  2  0
 30  2  1  0
 28 10  2  0
 27 12  1  0
 20 15  1  0
  1 31  1  0
  1 32  1  0
  1 33  1  0
  3 34  1  0
  4 35  1  0
  5 36  1  0
  7 37  1  0
 16 38  1  0
 17 39  1  0
 18 40  1  0
 19 41  1  0
 20 42  1  0
 21 43  1  0
 29 44  1  0
 29 45  1  0
M  END
>  <Binding energies>  (1) 
[-7.7]

>  <Ligand effiencies>  (1) 
[-0.23333333333333334]

>  <Interactions>  (1) 
["V-A:ARG:545:CZ:4924, H-B:ARG:545:NH2:9900, V-A:GLY:454:CA:4046, V-B:ALA:541:CB:9864, V-B:TYR:539:CE1:9847, V-A:ILE:369:CG2:3234, V-B:ARG:545:CZ:9898, V-B:ILE:369:CD1:8210, V-A:LEU:475:CD2:4256, V-A:GLY:453:C:4039, V-B:TYR:539:CD1:9845, V-B:GLU:543:CD:9880, H-A:GLU:543:OE2:4908, H-B:GLU:543:OE1:9881, H-A:GLU:543:OE1:4907, H-B:GLU:543:OE2:9882, V-A:GLU:543:CD:4906, V-B:GLY:454:CA:9020, V-A:PRO:482:CB:4323, V-A:TYR:484:CZ:4344, V-A:PRO:482:CG:4324, V-A:LEU:373:CD1:3277, V-A:SER:385:CA:3404"]

$$$$
4cf_Grossjean_2025
     RDKit          3D

 42 45  0  0  0  0  0  0  0  0999 V2000
  129.9620  126.8910   63.6830 N   0  0  0  0  0  0  0  0  0  0  0  0
  129.5070  125.9440   62.8010 C   0  0  0  0  0  0  0  0  0  0  0  0
  128.3760  126.1280   61.9890 C   0  0  0  0  0  0  0  0  0  0  0  0
  127.4690  127.2780   61.9330 C   0  0  0  0  0  0  0  0  0  0  0  0
  126.8690  127.5530   60.8930 O   0  0  0  0  0  0  0  0  0  0  0  0
  127.3460  127.9770   63.0870 N   0  0  0  0  0  0  0  0  0  0  0  0
  126.6070  129.1450   63.3550 C   0  0  0  0  0  0  0  0  0  0  0  0
  126.6450  130.3290   62.5930 C   0  0  0  0  0  0  0  0  0  0  0  0
  125.8700  131.4240   62.9800 C   0  0  0  0  0  0  0  0  0  0  0  0
  125.0740  131.3110   64.1200 C   0  0  0  0  0  0  0  0  0  0  0  0
  125.0240  130.1840   64.8760 N   0  0  0  0  0  0  0  0  0  0  0  0
  125.7850  129.1280   64.4880 C   0  0  0  0  0  0  0  0  0  0  0  0
  128.0830  124.7160   60.9770 S   0  0  0  0  0  0  0  0  0  0  0  0
  129.4680  123.8890   61.6510 C   0  0  0  0  0  0  0  0  0  0  0  0
  129.8020  122.6600   61.2610 N   0  0  0  0  0  0  0  0  0  0  0  0
  130.8840  122.0940   61.8560 C   0  0  0  0  0  0  0  0  0  0  0  0
  131.2320  120.7060   61.4020 C   0  0  0  0  0  0  0  0  0  0  0  0
  132.5000  120.4210   60.8720 C   0  0  0  0  0  0  0  0  0  0  0  0
  132.8320  119.1360   60.4490 C   0  0  0  0  0  0  0  0  0  0  0  0
  131.8950  118.1140   60.5540 C   0  0  0  0  0  0  0  0  0  0  0  0
  130.6310  118.3670   61.0780 C   0  0  0  0  0  0  0  0  0  0  0  0
  130.3050  119.6530   61.5000 C   0  0  0  0  0  0  0  0  0  0  0  0
  131.6390  122.7710   62.8190 C   0  0  0  0  0  0  0  0  0  0  0  0
  131.2980  124.0680   63.2330 C   0  0  0  0  0  0  0  0  0  0  0  0
  132.1660  124.7500   64.2970 C   0  0  0  0  0  0  0  0  0  0  0  0
  131.5180  124.9620   65.4450 F   0  0  0  0  0  0  0  0  0  0  0  0
  133.2240  123.9880   64.5710 F   0  0  0  0  0  0  0  0  0  0  0  0
  132.5800  125.9350   63.8490 F   0  0  0  0  0  0  0  0  0  0  0  0
  130.1540  124.6660   62.6300 C   0  0  0  0  0  0  0  0  0  0  0  0
  129.7380  126.8550   64.6680 H   0  0  0  0  0  0  0  0  0  0  0  0
  130.5410  127.6610   63.3760 H   0  0  0  0  0  0  0  0  0  0  0  0
  127.8510  127.6140   63.8820 H   0  0  0  0  0  0  0  0  0  0  0  0
  127.2817  130.3906   61.6981 H   0  0  0  0  0  0  0  0  0  0  0  0
  125.8868  132.3571   62.3977 H   0  0  0  0  0  0  0  0  0  0  0  0
  124.4597  132.1728   64.4198 H   0  0  0  0  0  0  0  0  0  0  0  0
  125.7538  128.2117   65.0957 H   0  0  0  0  0  0  0  0  0  0  0  0
  133.2446  121.2264   60.7892 H   0  0  0  0  0  0  0  0  0  0  0  0
  133.8299  118.9309   60.0342 H   0  0  0  0  0  0  0  0  0  0  0  0
  132.1548  117.0985   60.2205 H   0  0  0  0  0  0  0  0  0  0  0  0
  129.8932  117.5551   61.1584 H   0  0  0  0  0  0  0  0  0  0  0  0
  129.3060  119.8487   61.9169 H   0  0  0  0  0  0  0  0  0  0  0  0
  132.5172  122.2774   63.2606 H   0  0  0  0  0  0  0  0  0  0  0  0
  1  2  1  0
  2  3  2  0
  3  4  1  0
  4  5  2  0
  4  6  1  0
  6  7  1  0
  7  8  2  0
  8  9  1  0
  9 10  2  0
 10 11  1  0
 11 12  2  0
  3 13  1  0
 13 14  1  0
 14 15  2  0
 15 16  1  0
 16 17  1  0
 17 18  2  0
 18 19  1  0
 19 20  2  0
 20 21  1  0
 21 22  2  0
 16 23  2  0
 23 24  1  0
 24 25  1  0
 25 26  1  0
 25 27  1  0
 25 28  1  0
 24 29  2  0
 29  2  1  0
 12  7  1  0
 29 14  1  0
 22 17  1  0
  1 30  1  0
  1 31  1  0
  6 32  1  0
  8 33  1  0
  9 34  1  0
 10 35  1  0
 12 36  1  0
 18 37  1  0
 19 38  1  0
 20 39  1  0
 21 40  1  0
 22 41  1  0
 23 42  1  0
M  END
>  <Binding energies>  (1) 
[-7.51]

>  <Ligand effiencies>  (1) 
[-0.2346875]

>  <Interactions>  (1) 
["V-A:ARG:545:CZ:4924, H-B:ARG:545:NH2:9900, V-A:GLY:454:CA:4046, V-B:ALA:541:CB:9864, V-B:TYR:539:CE1:9847, V-A:ILE:369:CG2:3234, V-B:ARG:545:CZ:9898, V-A:LEU:475:CD2:4256, V-A:GLY:453:C:4039, H-B:TYR:484:OH:9319, V-B:TYR:539:CD1:9845, H-B:GLY:454:N:9021, V-B:GLU:543:CD:9880, H-A:GLU:543:OE2:4908, H-B:GLU:543:OE1:9881, H-A:GLU:543:OE1:4907, H-B:GLU:543:OE2:9882, V-A:GLU:543:CD:4906, V-B:GLY:454:CA:9020, V-A:PRO:482:CB:4323, V-A:TYR:484:CZ:4344, V-A:PRO:482:CG:4324, V-A:LEU:373:CD1:3277, V-A:SER:385:CA:3404"]

$$$$
4cg_Grossjean_2025
     RDKit          3D

 46 49  0  0  0  0  0  0  0  0999 V2000
  130.6500  127.6350   62.9780 N   0  0  0  0  0  0  0  0  0  0  0  0
  130.8140  126.8370   61.8750 C   0  0  0  0  0  0  0  0  0  0  0  0
  130.7560  127.3230   60.5610 C   0  0  0  0  0  0  0  0  0  0  0  0
  130.5710  128.7010   60.1050 C   0  0  0  0  0  0  0  0  0  0  0  0
  129.7550  128.9820   59.2250 O   0  0  0  0  0  0  0  0  0  0  0  0
  131.3710  129.6260   60.6770 N   0  0  0  0  0  0  0  0  0  0  0  0
  131.3450  131.0590   60.3930 C   0  0  0  0  0  0  0  0  0  0  0  0
  131.6330  131.3940   58.9330 C   0  0  0  0  0  0  0  0  0  0  0  0
  130.5820  131.7480   58.0830 C   0  0  0  0  0  0  0  0  0  0  0  0
  130.8440  132.0840   56.7570 C   0  0  0  0  0  0  0  0  0  0  0  0
  132.1560  132.0750   56.2900 C   0  0  0  0  0  0  0  0  0  0  0  0
  133.2090  131.7390   57.1370 C   0  0  0  0  0  0  0  0  0  0  0  0
  132.9480  131.4040   58.4630 C   0  0  0  0  0  0  0  0  0  0  0  0
  131.0280  126.0380   59.3880 S   0  0  0  0  0  0  0  0  0  0  0  0
  131.1960  124.8540   60.6640 C   0  0  0  0  0  0  0  0  0  0  0  0
  131.4330  123.5730   60.3950 N   0  0  0  0  0  0  0  0  0  0  0  0
  131.5520  122.7270   61.4510 C   0  0  0  0  0  0  0  0  0  0  0  0
  131.8180  121.2870   61.1140 C   0  0  0  0  0  0  0  0  0  0  0  0
  130.8020  120.3220   61.2190 C   0  0  0  0  0  0  0  0  0  0  0  0
  131.0440  118.9870   60.9100 C   0  0  0  0  0  0  0  0  0  0  0  0
  132.3100  118.5940   60.4890 C   0  0  0  0  0  0  0  0  0  0  0  0
  133.3350  119.5270   60.3790 C   0  0  0  0  0  0  0  0  0  0  0  0
  133.0890  120.8610   60.6890 C   0  0  0  0  0  0  0  0  0  0  0  0
  131.4140  123.1700   62.7710 C   0  0  0  0  0  0  0  0  0  0  0  0
  131.1630  124.5190   63.0660 C   0  0  0  0  0  0  0  0  0  0  0  0
  131.0230  124.9360   64.5350 C   0  0  0  0  0  0  0  0  0  0  0  0
  130.0610  125.8400   64.7320 F   0  0  0  0  0  0  0  0  0  0  0  0
  130.7280  123.8700   65.2800 F   0  0  0  0  0  0  0  0  0  0  0  0
  132.1650  125.4690   64.9630 F   0  0  0  0  0  0  0  0  0  0  0  0
  131.0510  125.4170   61.9660 C   0  0  0  0  0  0  0  0  0  0  0  0
  130.8310  127.2990   63.9140 H   0  0  0  0  0  0  0  0  0  0  0  0
  130.3490  128.5960   62.8920 H   0  0  0  0  0  0  0  0  0  0  0  0
  131.9620  129.3350   61.4420 H   0  0  0  0  0  0  0  0  0  0  0  0
  130.3481  131.4470   60.6494 H   0  0  0  0  0  0  0  0  0  0  0  0
  132.1401  131.5232   60.9950 H   0  0  0  0  0  0  0  0  0  0  0  0
  129.5489  131.7613   58.4607 H   0  0  0  0  0  0  0  0  0  0  0  0
  130.0188  132.3551   56.0820 H   0  0  0  0  0  0  0  0  0  0  0  0
  132.3626  132.3359   55.2415 H   0  0  0  0  0  0  0  0  0  0  0  0
  134.2424  131.7382   56.7602 H   0  0  0  0  0  0  0  0  0  0  0  0
  133.7766  131.1475   59.1395 H   0  0  0  0  0  0  0  0  0  0  0  0
  129.7986  120.6270   61.5510 H   0  0  0  0  0  0  0  0  0  0  0  0
  130.2368  118.2450   60.9984 H   0  0  0  0  0  0  0  0  0  0  0  0
  132.5014  117.5394   60.2417 H   0  0  0  0  0  0  0  0  0  0  0  0
  134.3358  119.2120   60.0484 H   0  0  0  0  0  0  0  0  0  0  0  0
  133.9031  121.5953   60.6000 H   0  0  0  0  0  0  0  0  0  0  0  0
  131.5041  122.4462   63.5944 H   0  0  0  0  0  0  0  0  0  0  0  0
  1  2  1  0
  2  3  2  0
  3  4  1  0
  4  5  2  0
  4  6  1  0
  6  7  1  0
  7  8  1  0
  8  9  2  0
  9 10  1  0
 10 11  2  0
 11 12  1  0
 12 13  2  0
  3 14  1  0
 14 15  1  0
 15 16  2  0
 16 17  1  0
 17 18  1  0
 18 19  2  0
 19 20  1  0
 20 21  2  0
 21 22  1  0
 22 23  2  0
 17 24  2  0
 24 25  1  0
 25 26  1  0
 26 27  1  0
 26 28  1  0
 26 29  1  0
 25 30  2  0
 30  2  1  0
 13  8  1  0
 30 15  1  0
 23 18  1  0
  1 31  1  0
  1 32  1  0
  6 33  1  0
  7 34  1  0
  7 35  1  0
  9 36  1  0
 10 37  1  0
 11 38  1  0
 12 39  1  0
 13 40  1  0
 19 41  1  0
 20 42  1  0
 21 43  1  0
 22 44  1  0
 23 45  1  0
 24 46  1  0
M  END
>  <Binding energies>  (1) 
[-7.45]

>  <Ligand effiencies>  (1) 
[-0.22575757575757577]

>  <Interactions>  (1) 
["V-A:PRO:540:CA:4881, V-A:ARG:545:CZ:4924, V-A:TYR:531:CE2:4791, V-A:ILE:538:CB:4860, V-B:ALA:541:CB:9864, V-B:TYR:539:CE1:9847, V-A:ILE:369:CG2:3234, V-A:ILE:538:CG2:4861, V-A:PRO:540:CB:4883, V-A:LEU:363:CA:3182, V-A:ASP:366:CG:3210, V-A:LEU:475:CD2:4256, V-A:LEU:363:CD1:3186, V-B:TYR:539:CD1:9845, V-B:GLU:543:CD:9880, H-A:GLU:543:OE2:4908, V-B:GLU:543:CB:9878, H-A:GLU:543:OE1:4907, V-A:GLU:543:CD:4906, H-A:ASP:366:OD2:3212, H-A:ASP:366:OD1:3211, V-A:TYR:484:CZ:4344, V-A:TYR:484:CE2:4343, V-A:LEU:373:CD1:3277, V-A:SER:385:CA:3404"]

$$$$
4ch_Grossjean_2025
     RDKit          3D

 58 61  0  0  0  0  0  0  0  0999 V2000
  125.1420  129.7500   65.5840 C   0  0  0  0  0  0  0  0  0  0  0  0
  124.6140  130.4610   64.4700 O   0  0  0  0  0  0  0  0  0  0  0  0
  125.3440  130.5220   63.2970 C   0  0  0  0  0  0  0  0  0  0  0  0
  125.3690  129.4990   62.3350 C   0  0  0  0  0  0  0  0  0  0  0  0
  126.1280  129.6290   61.1710 C   0  0  0  0  0  0  0  0  0  0  0  0
  126.1660  128.4970   60.1520 C   0  0  0  0  0  0  0  0  0  0  0  0
  127.0610  127.3960   60.5100 N   0  0  0  0  0  0  0  0  0  0  0  0
  127.7870  127.3120   61.6450 C   0  0  0  0  0  0  0  0  0  0  0  0
  127.7400  128.1730   62.5270 O   0  0  0  0  0  0  0  0  0  0  0  0
  128.6140  126.1140   61.7910 C   0  0  0  0  0  0  0  0  0  0  0  0
  128.2990  124.6980   60.7920 S   0  0  0  0  0  0  0  0  0  0  0  0
  129.6310  123.8340   61.5220 C   0  0  0  0  0  0  0  0  0  0  0  0
  129.9320  122.5890   61.1620 N   0  0  0  0  0  0  0  0  0  0  0  0
  130.9880  122.0000   61.7800 C   0  0  0  0  0  0  0  0  0  0  0  0
  131.2970  120.5930   61.3560 C   0  0  0  0  0  0  0  0  0  0  0  0
  130.3390  119.5740   61.4900 C   0  0  0  0  0  0  0  0  0  0  0  0
  130.6200  118.2670   61.1000 C   0  0  0  0  0  0  0  0  0  0  0  0
  131.8670  117.9590   60.5680 C   0  0  0  0  0  0  0  0  0  0  0  0
  132.8350  118.9470   60.4270 C   0  0  0  0  0  0  0  0  0  0  0  0
  132.5510  120.2520   60.8210 C   0  0  0  0  0  0  0  0  0  0  0  0
  131.7250  122.6580   62.7700 C   0  0  0  0  0  0  0  0  0  0  0  0
  131.4160  123.9720   63.1590 C   0  0  0  0  0  0  0  0  0  0  0  0
  132.2650  124.6340   64.2490 C   0  0  0  0  0  0  0  0  0  0  0  0
  132.8230  125.7820   63.8550 F   0  0  0  0  0  0  0  0  0  0  0  0
  131.5070  124.9030   65.3110 F   0  0  0  0  0  0  0  0  0  0  0  0
  133.2530  123.8160   64.6110 F   0  0  0  0  0  0  0  0  0  0  0  0
  130.3190  124.6030   62.5070 C   0  0  0  0  0  0  0  0  0  0  0  0
  129.7200  125.9100   62.6300 C   0  0  0  0  0  0  0  0  0  0  0  0
  130.1870  126.8620   63.5000 N   0  0  0  0  0  0  0  0  0  0  0  0
  126.8850  130.7840   60.9690 C   0  0  0  0  0  0  0  0  0  0  0  0
  126.8790  131.8230   61.9150 C   0  0  0  0  0  0  0  0  0  0  0  0
  127.6030  132.9940   61.7780 O   0  0  0  0  0  0  0  0  0  0  0  0
  128.9500  132.9340   61.3220 C   0  0  0  0  0  0  0  0  0  0  0  0
  126.0990  131.6810   63.0710 C   0  0  0  0  0  0  0  0  0  0  0  0
  126.0960  132.6830   64.0110 O   0  0  0  0  0  0  0  0  0  0  0  0
  127.2370  132.6850   64.8590 C   0  0  0  0  0  0  0  0  0  0  0  0
  124.7940  130.2186   66.5164 H   0  0  0  0  0  0  0  0  0  0  0  0
  124.7990  128.7055   65.5483 H   0  0  0  0  0  0  0  0  0  0  0  0
  126.2411  129.7764   65.5483 H   0  0  0  0  0  0  0  0  0  0  0  0
  124.7826  128.5833   62.5012 H   0  0  0  0  0  0  0  0  0  0  0  0
  125.1481  128.0935   60.0468 H   0  0  0  0  0  0  0  0  0  0  0  0
  126.5534  128.9272   59.2167 H   0  0  0  0  0  0  0  0  0  0  0  0
  127.1890  126.6810   59.8080 H   0  0  0  0  0  0  0  0  0  0  0  0
  129.3507  119.8126   61.9099 H   0  0  0  0  0  0  0  0  0  0  0  0
  129.8583  117.4814   61.2124 H   0  0  0  0  0  0  0  0  0  0  0  0
  132.0891  116.9276   60.2568 H   0  0  0  0  0  0  0  0  0  0  0  0
  133.8206  118.6989   60.0062 H   0  0  0  0  0  0  0  0  0  0  0  0
  133.3215  121.0294   60.7116 H   0  0  0  0  0  0  0  0  0  0  0  0
  132.5637  122.1360   63.2539 H   0  0  0  0  0  0  0  0  0  0  0  0
  131.0810  126.7720   63.9610 H   0  0  0  0  0  0  0  0  0  0  0  0
  129.6500  127.6930   63.7060 H   0  0  0  0  0  0  0  0  0  0  0  0
  127.4938  130.8822   60.0581 H   0  0  0  0  0  0  0  0  0  0  0  0
  129.6289  132.9038   62.1870 H   0  0  0  0  0  0  0  0  0  0  0  0
  129.0911  132.0287   60.7133 H   0  0  0  0  0  0  0  0  0  0  0  0
  129.1710  133.8232   60.7133 H   0  0  0  0  0  0  0  0  0  0  0  0
  126.9127  132.6844   65.9101 H   0  0  0  0  0  0  0  0  0  0  0  0
  127.8422  131.7879   64.6615 H   0  0  0  0  0  0  0  0  0  0  0  0
  127.8390  133.5842   64.6615 H   0  0  0  0  0  0  0  0  0  0  0  0
  1  2  1  0
  2  3  1  0
  3  4  2  0
  4  5  1  0
  5  6  1  0
  6  7  1  0
  7  8  1  0
  8  9  2  0
  8 10  1  0
 10 11  1  0
 11 12  1  0
 12 13  2  0
 13 14  1  0
 14 15  1  0
 15 16  2  0
 16 17  1  0
 17 18  2  0
 18 19  1  0
 19 20  2  0
 14 21  2  0
 21 22  1  0
 22 23  1  0
 23 24  1  0
 23 25  1  0
 23 26  1  0
 22 27  2  0
 27 28  1  0
 28 29  1  0
  5 30  2  0
 30 31  1  0
 31 32  1  0
 32 33  1  0
 31 34  2  0
 34 35  1  0
 35 36  1  0
 34  3  1  0
 28 10  2  0
 27 12  1  0
 20 15  1  0
  1 37  1  0
  1 38  1  0
  1 39  1  0
  4 40  1  0
  6 41  1  0
  6 42  1  0
  7 43  1  0
 16 44  1  0
 17 45  1  0
 18 46  1  0
 19 47  1  0
 20 48  1  0
 21 49  1  0
 29 50  1  0
 29 51  1  0
 30 52  1  0
 33 53  1  0
 33 54  1  0
 33 55  1  0
 36 56  1  0
 36 57  1  0
 36 58  1  0
M  END
>  <Binding energies>  (1) 
[-6.7]

>  <Ligand effiencies>  (1) 
[-0.1717948717948718]

>  <Interactions>  (1) 
["V-A:PRO:540:CA:4881, V-A:ARG:545:CZ:4924, H-B:ARG:545:NH2:9900, V-A:GLY:454:CA:4046, V-B:ALA:541:CB:9864, V-B:TYR:539:CE1:9847, V-A:ILE:369:CG2:3234, V-B:ARG:545:CZ:9898, V-A:LEU:475:CD2:4256, V-A:GLY:453:C:4039, V-B:ASP:366:CG:8184, H-B:TYR:484:OH:9319, V-B:LEU:475:CD2:9230, V-B:TYR:539:CD1:9845, H-B:GLY:454:N:9021, V-B:GLU:543:CD:9880, H-A:GLU:543:OE2:4908, V-A:ALA:541:CB:4890, H-A:GLU:543:OE1:4907, H-B:GLU:543:OE2:9882, V-A:GLU:543:CD:4906, V-A:PRO:540:C:4879, H-B:ASP:366:OD2:8186, V-A:PRO:482:CB:4323, V-B:TYR:484:CE2:9317, V-A:TYR:484:CZ:4344, V-B:TYR:484:CZ:9318, V-A:PRO:482:CG:4324, V-A:LEU:373:CD1:3277, V-A:SER:385:CA:3404, V-A:SER:385:CB:3406, V-B:ARG:545:CD:9895"]

$$$$
4ci_Grossjean_2025
     RDKit          3D

 39 42  0  0  0  0  0  0  0  0999 V2000
  132.4400  125.8470   62.1610 N   0  0  0  0  0  0  0  0  0  0  0  0
  131.8750  124.6720   62.5850 C   0  0  0  0  0  0  0  0  0  0  0  0
  131.0360  124.5820   63.7080 C   0  0  0  0  0  0  0  0  0  0  0  0
  130.5980  125.6530   64.6080 C   0  0  0  0  0  0  0  0  0  0  0  0
  129.8450  126.5430   64.2060 O   0  0  0  0  0  0  0  0  0  0  0  0
  131.0850  125.5890   65.8720 N   0  0  0  0  0  0  0  0  0  0  0  0
  130.8380  126.4670   66.9190 C   0  0  0  0  0  0  0  0  0  0  0  0
  129.5880  126.6020   67.5230 C   0  0  0  0  0  0  0  0  0  0  0  0
  129.7620  127.5560   68.4970 C   0  0  0  0  0  0  0  0  0  0  0  0
  131.0510  127.9750   68.4830 O   0  0  0  0  0  0  0  0  0  0  0  0
  131.7220  127.2770   67.4780 N   0  0  0  0  0  0  0  0  0  0  0  0
  130.4800  122.9290   63.9570 S   0  0  0  0  0  0  0  0  0  0  0  0
  131.3790  122.3690   62.5660 C   0  0  0  0  0  0  0  0  0  0  0  0
  131.3640  121.0910   62.1970 N   0  0  0  0  0  0  0  0  0  0  0  0
  132.0900  120.7500   61.1010 C   0  0  0  0  0  0  0  0  0  0  0  0
  132.0570  119.3000   60.7120 C   0  0  0  0  0  0  0  0  0  0  0  0
  130.8430  118.5960   60.6570 C   0  0  0  0  0  0  0  0  0  0  0  0
  130.8050  117.2520   60.2960 C   0  0  0  0  0  0  0  0  0  0  0  0
  131.9880  116.5880   59.9860 C   0  0  0  0  0  0  0  0  0  0  0  0
  133.2050  117.2580   60.0370 C   0  0  0  0  0  0  0  0  0  0  0  0
  133.2370  118.6020   60.4000 C   0  0  0  0  0  0  0  0  0  0  0  0
  132.8420  121.6930   60.3920 C   0  0  0  0  0  0  0  0  0  0  0  0
  132.8650  123.0450   60.7730 C   0  0  0  0  0  0  0  0  0  0  0  0
  133.7100  124.0240   59.9500 C   0  0  0  0  0  0  0  0  0  0  0  0
  134.7810  124.4730   60.6080 F   0  0  0  0  0  0  0  0  0  0  0  0
  134.1460  123.4220   58.8440 F   0  0  0  0  0  0  0  0  0  0  0  0
  132.9740  125.0840   59.6140 F   0  0  0  0  0  0  0  0  0  0  0  0
  132.0960  123.4140   61.9130 C   0  0  0  0  0  0  0  0  0  0  0  0
  132.0970  126.7470   62.4680 H   0  0  0  0  0  0  0  0  0  0  0  0
  133.2290  125.8520   61.5280 H   0  0  0  0  0  0  0  0  0  0  0  0
  131.7020  124.8200   66.0880 H   0  0  0  0  0  0  0  0  0  0  0  0
  128.6628  126.0617   67.2737 H   0  0  0  0  0  0  0  0  0  0  0  0
  128.9800  127.9212   69.1790 H   0  0  0  0  0  0  0  0  0  0  0  0
  129.9055  119.1158   60.9036 H   0  0  0  0  0  0  0  0  0  0  0  0
  129.8444  116.7175   60.2560 H   0  0  0  0  0  0  0  0  0  0  0  0
  131.9600  115.5265   59.6988 H   0  0  0  0  0  0  0  0  0  0  0  0
  134.1379  116.7292   59.7919 H   0  0  0  0  0  0  0  0  0  0  0  0
  134.2027  119.1270   60.4434 H   0  0  0  0  0  0  0  0  0  0  0  0
  133.4271  121.3692   59.5186 H   0  0  0  0  0  0  0  0  0  0  0  0
  1  2  1  0
  2  3  2  0
  3  4  1  0
  4  5  2  0
  4  6  1  0
  6  7  1  0
  7  8  1  0
  8  9  2  0
  9 10  1  0
 10 11  1  0
  3 12  1  0
 12 13  1  0
 13 14  2  0
 14 15  1  0
 15 16  1  0
 16 17  2  0
 17 18  1  0
 18 19  2  0
 19 20  1  0
 20 21  2  0
 15 22  2  0
 22 23  1  0
 23 24  1  0
 24 25  1  0
 24 26  1  0
 24 27  1  0
 23 28  2  0
 28  2  1  0
 11  7  2  0
 28 13  1  0
 21 16  1  0
  1 29  1  0
  1 30  1  0
  6 31  1  0
  8 32  1  0
  9 33  1  0
 17 34  1  0
 18 35  1  0
 19 36  1  0
 20 37  1  0
 21 38  1  0
 22 39  1  0
M  END
>  <Binding energies>  (1) 
[-7.1]

>  <Ligand effiencies>  (1) 
[-0.22903225806451613]

>  <Interactions>  (1) 
["V-A:ARG:545:CZ:4924, H-A:ARG:545:NE:4922, V-B:ALA:541:CB:9864, V-B:TYR:539:CE1:9847, V-A:ILE:369:CG2:3234, V-A:ILE:369:CD1:3236, H-A:TYR:484:OH:4345, V-A:ASP:366:CG:3210, V-A:LEU:475:CD2:4256, V-B:TYR:539:CD1:9845, V-B:TYR:539:CG:9844, V-B:GLU:543:CD:9880, V-B:GLU:543:CG:9879, H-A:GLU:543:OE2:4908, V-B:GLU:543:CB:9878, V-A:HIS:456:CE1:4066, V-A:ASP:366:CA:3207, V-A:ASP:366:CB:3209, V-B:TYR:539:CZ:9849, V-A:GLU:543:CD:4906, V-A:GLU:543:CG:4905, H-A:ASP:366:OD2:3212, V-A:ILE:369:CB:3233, H-A:ASP:366:OD1:3211, V-A:PRO:482:CB:4323, V-A:PRO:482:CG:4324, V-B:TYR:539:CB:9843, V-A:ILE:369:CG1:3235, V-A:LEU:373:CD1:3277, V-A:SER:385:CA:3404, V-A:SER:385:CB:3406, V-B:VAL:344:CG1:7972, V-A:VAL:384:C:3394"]

$$$$
4cj_Grossjean_2025
     RDKit          3D

 39 42  0  0  0  0  0  0  0  0999 V2000
  130.1280  126.8740   63.6150 N   0  0  0  0  0  0  0  0  0  0  0  0
  129.6360  125.9130   62.7690 C   0  0  0  0  0  0  0  0  0  0  0  0
  128.4940  126.1010   61.9730 C   0  0  0  0  0  0  0  0  0  0  0  0
  127.6380  127.2850   61.8690 C   0  0  0  0  0  0  0  0  0  0  0  0
  127.2280  127.6730   60.7720 O   0  0  0  0  0  0  0  0  0  0  0  0
  127.3520  127.9010   63.0420 N   0  0  0  0  0  0  0  0  0  0  0  0
  126.5680  129.0340   63.2190 C   0  0  0  0  0  0  0  0  0  0  0  0
  125.8780  129.6880   62.3090 N   0  0  0  0  0  0  0  0  0  0  0  0
  125.2440  130.7200   62.8310 C   0  0  0  0  0  0  0  0  0  0  0  0
  125.4140  130.9190   64.1990 C   0  0  0  0  0  0  0  0  0  0  0  0
  126.4620  129.6810   64.8250 S   0  0  0  0  0  0  0  0  0  0  0  0
  128.1550  124.6710   61.0000 S   0  0  0  0  0  0  0  0  0  0  0  0
  129.5370  123.8350   61.6660 C   0  0  0  0  0  0  0  0  0  0  0  0
  129.8480  122.5980   61.2890 N   0  0  0  0  0  0  0  0  0  0  0  0
  130.9450  122.0320   61.8550 C   0  0  0  0  0  0  0  0  0  0  0  0
  131.2750  120.6400   61.3970 C   0  0  0  0  0  0  0  0  0  0  0  0
  130.3280  119.6070   61.4980 C   0  0  0  0  0  0  0  0  0  0  0  0
  130.6300  118.3130   61.0820 C   0  0  0  0  0  0  0  0  0  0  0  0
  131.8880  118.0320   60.5580 C   0  0  0  0  0  0  0  0  0  0  0  0
  132.8440  119.0350   60.4490 C   0  0  0  0  0  0  0  0  0  0  0  0
  132.5380  120.3280   60.8660 C   0  0  0  0  0  0  0  0  0  0  0  0
  131.7100  122.7020   62.8150 C   0  0  0  0  0  0  0  0  0  0  0  0
  131.3900  124.0070   63.2220 C   0  0  0  0  0  0  0  0  0  0  0  0
  132.2730  124.6850   64.2760 C   0  0  0  0  0  0  0  0  0  0  0  0
  131.6040  125.0280   65.3780 F   0  0  0  0  0  0  0  0  0  0  0  0
  133.2500  123.8560   64.6440 F   0  0  0  0  0  0  0  0  0  0  0  0
  132.8070  125.7970   63.7710 F   0  0  0  0  0  0  0  0  0  0  0  0
  130.2530  124.6170   62.6200 C   0  0  0  0  0  0  0  0  0  0  0  0
  130.0930  127.8580   63.3860 H   0  0  0  0  0  0  0  0  0  0  0  0
  130.5400  126.6290   64.5050 H   0  0  0  0  0  0  0  0  0  0  0  0
  127.7530  127.5100   63.8820 H   0  0  0  0  0  0  0  0  0  0  0  0
  124.6164  131.3859   62.2205 H   0  0  0  0  0  0  0  0  0  0  0  0
  124.9587  131.7287   64.7882 H   0  0  0  0  0  0  0  0  0  0  0  0
  129.3323  119.8240   61.9122 H   0  0  0  0  0  0  0  0  0  0  0  0
  129.8769  117.5158   61.1673 H   0  0  0  0  0  0  0  0  0  0  0  0
  132.1273  117.0103   60.2281 H   0  0  0  0  0  0  0  0  0  0  0  0
  133.8377  118.8085   60.0353 H   0  0  0  0  0  0  0  0  0  0  0  0
  133.2979  121.1185   60.7782 H   0  0  0  0  0  0  0  0  0  0  0  0
  132.5797  122.1965   63.2601 H   0  0  0  0  0  0  0  0  0  0  0  0
  1  2  1  0
  2  3  2  0
  3  4  1  0
  4  5  2  0
  4  6  1  0
  6  7  1  0
  7  8  2  0
  8  9  1  0
  9 10  2  0
 10 11  1  0
  3 12  1  0
 12 13  1  0
 13 14  2  0
 14 15  1  0
 15 16  1  0
 16 17  2  0
 17 18  1  0
 18 19  2  0
 19 20  1  0
 20 21  2  0
 15 22  2  0
 22 23  1  0
 23 24  1  0
 24 25  1  0
 24 26  1  0
 24 27  1  0
 23 28  2  0
 28  2  1  0
 11  7  1  0
 28 13  1  0
 21 16  1  0
  1 29  1  0
  1 30  1  0
  6 31  1  0
  9 32  1  0
 10 33  1  0
 17 34  1  0
 18 35  1  0
 19 36  1  0
 20 37  1  0
 21 38  1  0
 22 39  1  0
M  END
>  <Binding energies>  (1) 
[-6.96]

>  <Ligand effiencies>  (1) 
[-0.22451612903225807]

>  <Interactions>  (1) 
["V-A:ARG:545:CZ:4924, H-B:ARG:545:NH2:9900, V-A:GLY:454:CA:4046, V-B:ALA:541:CB:9864, V-B:TYR:539:CE1:9847, V-A:ILE:369:CG2:3234, V-B:ARG:545:CZ:9898, V-A:LEU:475:CD2:4256, V-A:GLY:453:C:4039, V-B:TYR:539:CD1:9845, V-B:GLU:543:CD:9880, H-A:GLU:543:OE2:4908, H-B:GLU:543:OE1:9881, H-A:GLU:543:OE1:4907, H-B:GLU:543:OE2:9882, V-A:GLU:543:CD:4906, V-B:GLY:454:CA:9020, V-A:PRO:482:CB:4323, V-A:TYR:484:CZ:4344, V-A:PRO:482:CG:4324, V-A:LEU:373:CD1:3277, V-A:SER:385:CA:3404"]

$$$$
4ck_Grossjean_2025
     RDKit          3D

 57 59  0  0  0  0  0  0  0  0999 V2000
  131.4350  132.2910   56.7000 C   0  0  0  0  0  0  0  0  0  0  0  0
  130.3590  133.1610   57.0110 O   0  0  0  0  0  0  0  0  0  0  0  0
  129.1070  132.4970   57.1150 C   0  0  0  0  0  0  0  0  0  0  0  0
  129.1360  131.5610   58.3290 C   0  0  0  0  0  0  0  0  0  0  0  0
  129.1740  132.3420   59.5160 O   0  0  0  0  0  0  0  0  0  0  0  0
  128.4430  131.7710   60.5940 C   0  0  0  0  0  0  0  0  0  0  0  0
  129.4210  131.0820   61.5540 C   0  0  0  0  0  0  0  0  0  0  0  0
  128.7100  130.1100   62.3090 O   0  0  0  0  0  0  0  0  0  0  0  0
  127.3420  130.4340   62.5220 C   0  0  0  0  0  0  0  0  0  0  0  0
  126.5730  129.1720   62.9400 C   0  0  0  0  0  0  0  0  0  0  0  0
  127.3980  127.9670   62.8450 N   0  0  0  0  0  0  0  0  0  0  0  0
  127.6990  127.3030   61.7090 C   0  0  0  0  0  0  0  0  0  0  0  0
  127.3160  127.6760   60.5990 O   0  0  0  0  0  0  0  0  0  0  0  0
  128.5250  126.1060   61.8690 C   0  0  0  0  0  0  0  0  0  0  0  0
  128.2110  124.6780   60.8860 S   0  0  0  0  0  0  0  0  0  0  0  0
  129.5610  123.8330   61.6060 C   0  0  0  0  0  0  0  0  0  0  0  0
  129.8740  122.5910   61.2470 N   0  0  0  0  0  0  0  0  0  0  0  0
  130.9400  122.0150   61.8620 C   0  0  0  0  0  0  0  0  0  0  0  0
  131.2780  120.6200   61.4210 C   0  0  0  0  0  0  0  0  0  0  0  0
  130.3280  119.5890   61.5020 C   0  0  0  0  0  0  0  0  0  0  0  0
  130.6360  118.2920   61.0960 C   0  0  0  0  0  0  0  0  0  0  0  0
  131.9050  118.0080   60.6030 C   0  0  0  0  0  0  0  0  0  0  0  0
  132.8640  119.0110   60.5080 C   0  0  0  0  0  0  0  0  0  0  0  0
  132.5510  120.3060   60.9130 C   0  0  0  0  0  0  0  0  0  0  0  0
  131.6900  122.6920   62.8290 C   0  0  0  0  0  0  0  0  0  0  0  0
  131.3670  124.0020   63.2160 C   0  0  0  0  0  0  0  0  0  0  0  0
  132.2300  124.6850   64.2850 C   0  0  0  0  0  0  0  0  0  0  0  0
  132.7390  125.8500   63.8810 F   0  0  0  0  0  0  0  0  0  0  0  0
  131.4960  124.9240   65.3710 F   0  0  0  0  0  0  0  0  0  0  0  0
  133.2520  123.8940   64.6100 F   0  0  0  0  0  0  0  0  0  0  0  0
  130.2500  124.6150   62.5790 C   0  0  0  0  0  0  0  0  0  0  0  0
  129.6380  125.9160   62.7020 C   0  0  0  0  0  0  0  0  0  0  0  0
  130.1040  126.8780   63.5620 N   0  0  0  0  0  0  0  0  0  0  0  0
  131.8900  131.9231   57.6314 H   0  0  0  0  0  0  0  0  0  0  0  0
  131.0601  131.4392   56.1137 H   0  0  0  0  0  0  0  0  0  0  0  0
  132.1895  132.8360   56.1137 H   0  0  0  0  0  0  0  0  0  0  0  0
  128.3054  133.2396   57.2413 H   0  0  0  0  0  0  0  0  0  0  0  0
  128.9193  131.9139   56.2014 H   0  0  0  0  0  0  0  0  0  0  0  0
  128.2339  130.9315   58.3307 H   0  0  0  0  0  0  0  0  0  0  0  0
  130.0263  130.9169   58.2799 H   0  0  0  0  0  0  0  0  0  0  0  0
  127.8974  132.5622   61.1291 H   0  0  0  0  0  0  0  0  0  0  0  0
  127.7241  131.0346   60.2055 H   0  0  0  0  0  0  0  0  0  0  0  0
  130.2205  130.5919   60.9791 H   0  0  0  0  0  0  0  0  0  0  0  0
  129.8702  131.8256   62.2288 H   0  0  0  0  0  0  0  0  0  0  0  0
  127.2643  131.1902   63.3170 H   0  0  0  0  0  0  0  0  0  0  0  0
  126.9117  130.8327   61.5915 H   0  0  0  0  0  0  0  0  0  0  0  0
  126.2365  129.2902   63.9806 H   0  0  0  0  0  0  0  0  0  0  0  0
  125.7202  129.0531   62.2555 H   0  0  0  0  0  0  0  0  0  0  0  0
  127.8220  127.6520   63.7050 H   0  0  0  0  0  0  0  0  0  0  0  0
  129.3235  119.8090   61.8926 H   0  0  0  0  0  0  0  0  0  0  0  0
  129.8791  117.4968   61.1651 H   0  0  0  0  0  0  0  0  0  0  0  0
  132.1518  116.9839   60.2863 H   0  0  0  0  0  0  0  0  0  0  0  0
  133.8654  118.7822   60.1146 H   0  0  0  0  0  0  0  0  0  0  0  0
  133.3121  121.0963   60.8342 H   0  0  0  0  0  0  0  0  0  0  0  0
  132.5495  122.1882   63.2952 H   0  0  0  0  0  0  0  0  0  0  0  0
  130.6070  126.6440   64.4060 H   0  0  0  0  0  0  0  0  0  0  0  0
  129.9620  127.8620   63.3750 H   0  0  0  0  0  0  0  0  0  0  0  0
  1  2  1  0
  2  3  1  0
  3  4  1  0
  4  5  1  0
  5  6  1  0
  6  7  1  0
  7  8  1  0
  8  9  1  0
  9 10  1  0
 10 11  1  0
 11 12  1  0
 12 13  2  0
 12 14  1  0
 14 15  1  0
 15 16  1  0
 16 17  2  0
 17 18  1  0
 18 19  1  0
 19 20  2  0
 20 21  1  0
 21 22  2  0
 22 23  1  0
 23 24  2  0
 18 25  2  0
 25 26  1  0
 26 27  1  0
 27 28  1  0
 27 29  1  0
 27 30  1  0
 26 31  2  0
 31 32  1  0
 32 33  1  0
 32 14  2  0
 31 16  1  0
 24 19  1  0
  1 34  1  0
  1 35  1  0
  1 36  1  0
  3 37  1  0
  3 38  1  0
  4 39  1  0
  4 40  1  0
  6 41  1  0
  6 42  1  0
  7 43  1  0
  7 44  1  0
  9 45  1  0
  9 46  1  0
 10 47  1  0
 10 48  1  0
 11 49  1  0
 20 50  1  0
 21 51  1  0
 22 52  1  0
 23 53  1  0
 24 54  1  0
 25 55  1  0
 33 56  1  0
 33 57  1  0
M  END
>  <Binding energies>  (1) 
[-6.34]

>  <Ligand effiencies>  (1) 
[-0.1761111111111111]

>  <Interactions>  (1) 
["V-A:ARG:545:CZ:4924, V-A:GLY:454:CA:4046, V-A:ILE:538:CB:4860, V-B:ALA:541:CB:9864, V-B:TYR:539:CE1:9847, V-A:PRO:540:N:4882, V-A:LEU:475:CD2:4256, V-A:TYR:539:CE1:4873, V-A:GLY:453:C:4039, V-B:TYR:539:CD1:9845, V-A:TYR:539:CD1:4871, V-B:GLU:543:CD:9880, H-A:GLU:543:OE2:4908, H-B:GLU:543:OE1:9881, H-A:GLU:543:OE1:4907, H-B:GLU:543:OE2:9882, V-A:TYR:539:CZ:4875, V-A:GLU:543:CD:4906, H-A:TYR:539:N:4868, V-A:TYR:539:CG:4870, V-A:PRO:482:CB:4323, V-A:TYR:539:CE2:4874, V-A:TYR:539:CD2:4872, V-A:TYR:484:CZ:4344, V-A:PRO:482:CG:4324, V-A:LEU:373:CD1:3277, V-A:SER:385:CA:3404, V-A:SER:385:CB:3406"]

$$$$
4dd_Grossjean_2025
     RDKit          3D

 43 46  0  0  0  0  0  0  0  0999 V2000
  132.4590  124.6660   64.1410 C   0  0  0  0  0  0  0  0  0  0  0  0
  131.6010  123.9850   63.0850 C   0  0  0  0  0  0  0  0  0  0  0  0
  131.9620  122.6970   62.6710 C   0  0  0  0  0  0  0  0  0  0  0  0
  131.2130  122.0160   61.7030 C   0  0  0  0  0  0  0  0  0  0  0  0
  131.5790  120.6380   61.2370 C   0  0  0  0  0  0  0  0  0  0  0  0
  130.6230  119.6100   61.2100 C   0  0  0  0  0  0  0  0  0  0  0  0
  130.9550  118.3290   60.7750 C   0  0  0  0  0  0  0  0  0  0  0  0
  132.2540  118.0580   60.3610 C   0  0  0  0  0  0  0  0  0  0  0  0
  133.2210  119.0570   60.3760 C   0  0  0  0  0  0  0  0  0  0  0  0
  132.8840  120.3370   60.8090 C   0  0  0  0  0  0  0  0  0  0  0  0
  130.1180  122.5740   61.1180 N   0  0  0  0  0  0  0  0  0  0  0  0
  129.7700  123.7970   61.5150 C   0  0  0  0  0  0  0  0  0  0  0  0
  128.3760  124.6250   60.8600 S   0  0  0  0  0  0  0  0  0  0  0  0
  128.6720  126.0330   61.8820 C   0  0  0  0  0  0  0  0  0  0  0  0
  127.7740  127.1890   61.8300 C   0  0  0  0  0  0  0  0  0  0  0  0
  127.2820  127.5540   60.7610 O   0  0  0  0  0  0  0  0  0  0  0  0
  127.5350  127.7920   63.0190 N   0  0  0  0  0  0  0  0  0  0  0  0
  126.7750  128.9410   63.3050 C   0  0  0  0  0  0  0  0  0  0  0  0
  127.0740  129.5880   64.5080 C   0  0  0  0  0  0  0  0  0  0  0  0
  126.3860  130.7420   64.8740 C   0  0  0  0  0  0  0  0  0  0  0  0
  125.4020  131.2550   64.0330 C   0  0  0  0  0  0  0  0  0  0  0  0
  125.1030  130.6280   62.8270 C   0  0  0  0  0  0  0  0  0  0  0  0
  125.7890  129.4730   62.4570 C   0  0  0  0  0  0  0  0  0  0  0  0
  129.8100  125.8460   62.6820 C   0  0  0  0  0  0  0  0  0  0  0  0
  130.2800  126.7810   63.5710 N   0  0  0  0  0  0  0  0  0  0  0  0
  130.4540  124.5740   62.4930 C   0  0  0  0  0  0  0  0  0  0  0  0
  132.1020  124.3826   65.1421 H   0  0  0  0  0  0  0  0  0  0  0  0
  133.5060  124.3504   64.0222 H   0  0  0  0  0  0  0  0  0  0  0  0
  132.3893  125.7573   64.0222 H   0  0  0  0  0  0  0  0  0  0  0  0
  132.8460  122.2133   63.1121 H   0  0  0  0  0  0  0  0  0  0  0  0
  129.5942  119.8198   61.5380 H   0  0  0  0  0  0  0  0  0  0  0  0
  130.1930  117.5358   60.7592 H   0  0  0  0  0  0  0  0  0  0  0  0
  132.5187  117.0465   60.0192 H   0  0  0  0  0  0  0  0  0  0  0  0
  134.2475  118.8373   60.0474 H   0  0  0  0  0  0  0  0  0  0  0  0
  133.6512  121.1253   60.8163 H   0  0  0  0  0  0  0  0  0  0  0  0
  127.9490  127.3550   63.8290 H   0  0  0  0  0  0  0  0  0  0  0  0
  127.8558  129.1838   65.1679 H   0  0  0  0  0  0  0  0  0  0  0  0
  126.6189  131.2462   65.8235 H   0  0  0  0  0  0  0  0  0  0  0  0
  124.8559  132.1643   64.3245 H   0  0  0  0  0  0  0  0  0  0  0  0
  124.3269  131.0433   62.1674 H   0  0  0  0  0  0  0  0  0  0  0  0
  125.5589  128.9781   61.5019 H   0  0  0  0  0  0  0  0  0  0  0  0
  130.2690  127.7690   63.3620 H   0  0  0  0  0  0  0  0  0  0  0  0
  130.6510  126.5080   64.4700 H   0  0  0  0  0  0  0  0  0  0  0  0
  1  2  1  0
  2  3  2  0
  3  4  1  0
  4  5  1  0
  5  6  2  0
  6  7  1  0
  7  8  2  0
  8  9  1  0
  9 10  2  0
  4 11  2  0
 11 12  1  0
 12 13  1  0
 13 14  1  0
 14 15  1  0
 15 16  2  0
 15 17  1  0
 17 18  1  0
 18 19  2  0
 19 20  1  0
 20 21  2  0
 21 22  1  0
 22 23  2  0
 14 24  2  0
 24 25  1  0
 24 26  1  0
 26  2  1  0
 10  5  1  0
 26 12  2  0
 23 18  1  0
  1 27  1  0
  1 28  1  0
  1 29  1  0
  3 30  1  0
  6 31  1  0
  7 32  1  0
  8 33  1  0
  9 34  1  0
 10 35  1  0
 17 36  1  0
 19 37  1  0
 20 38  1  0
 21 39  1  0
 22 40  1  0
 23 41  1  0
 25 42  1  0
 25 43  1  0
M  END
>  <Binding energies>  (1) 
[-7.81]

>  <Ligand effiencies>  (1) 
[-0.2693103448275862]

>  <Interactions>  (1) 
["V-B:ALA:541:CB:9864, V-B:TYR:539:CE1:9847, V-A:ILE:369:CG2:3234, V-B:ARG:545:CZ:9898, V-A:LEU:475:CD2:4256, V-B:TYR:539:CD1:9845, V-B:GLU:543:CD:9880, H-A:GLU:543:OE2:4908, H-B:GLU:543:OE1:9881, H-A:GLU:543:OE1:4907, H-B:GLU:543:OE2:9882, V-A:GLU:543:CD:4906, V-B:GLY:454:CA:9020, V-A:PRO:482:CB:4323, V-A:PRO:482:CG:4324, V-B:TYR:539:CB:9843, V-A:LEU:373:CD1:3277, V-A:SER:385:CA:3404, V-A:SER:385:CB:3406"]

$$$$
4dg_Grossjean_2025
     RDKit          3D

 46 49  0  0  0  0  0  0  0  0999 V2000
  130.7140  124.9760   64.5300 C   0  0  0  0  0  0  0  0  0  0  0  0
  130.9550  124.5520   63.0890 C   0  0  0  0  0  0  0  0  0  0  0  0
  131.2160  123.2010   62.8330 C   0  0  0  0  0  0  0  0  0  0  0  0
  131.4470  122.7460   61.5290 C   0  0  0  0  0  0  0  0  0  0  0  0
  131.7280  121.3020   61.2230 C   0  0  0  0  0  0  0  0  0  0  0  0
  132.9830  120.8990   60.7380 C   0  0  0  0  0  0  0  0  0  0  0  0
  133.2480  119.5630   60.4490 C   0  0  0  0  0  0  0  0  0  0  0  0
  132.2580  118.6060   60.6430 C   0  0  0  0  0  0  0  0  0  0  0  0
  131.0040  118.9770   61.1190 C   0  0  0  0  0  0  0  0  0  0  0  0
  130.7440  120.3140   61.4050 C   0  0  0  0  0  0  0  0  0  0  0  0
  131.4090  123.5860   60.4590 N   0  0  0  0  0  0  0  0  0  0  0  0
  131.1610  124.8730   60.7010 C   0  0  0  0  0  0  0  0  0  0  0  0
  131.0910  126.0590   59.4190 S   0  0  0  0  0  0  0  0  0  0  0  0
  130.7410  127.3480   60.5700 C   0  0  0  0  0  0  0  0  0  0  0  0
  130.5950  128.7270   60.1080 C   0  0  0  0  0  0  0  0  0  0  0  0
  129.8460  129.0140   59.1710 O   0  0  0  0  0  0  0  0  0  0  0  0
  131.3530  129.6450   60.7420 N   0  0  0  0  0  0  0  0  0  0  0  0
  131.3540  131.0810   60.4640 C   0  0  0  0  0  0  0  0  0  0  0  0
  131.6010  131.4130   58.9970 C   0  0  0  0  0  0  0  0  0  0  0  0
  130.5380  131.8330   58.1920 C   0  0  0  0  0  0  0  0  0  0  0  0
  130.7650  132.1670   56.8600 C   0  0  0  0  0  0  0  0  0  0  0  0
  132.0560  132.0920   56.3400 C   0  0  0  0  0  0  0  0  0  0  0  0
  133.1230  131.6910   57.1410 C   0  0  0  0  0  0  0  0  0  0  0  0
  132.8960  131.3580   58.4740 C   0  0  0  0  0  0  0  0  0  0  0  0
  130.7010  126.8600   61.8850 C   0  0  0  0  0  0  0  0  0  0  0  0
  130.4630  127.6450   62.9840 N   0  0  0  0  0  0  0  0  0  0  0  0
  130.9270  125.4420   61.9850 C   0  0  0  0  0  0  0  0  0  0  0  0
  131.1413  124.2242   65.2098 H   0  0  0  0  0  0  0  0  0  0  0  0
  131.1940  125.9490   64.7111 H   0  0  0  0  0  0  0  0  0  0  0  0
  129.6324  125.0614   64.7111 H   0  0  0  0  0  0  0  0  0  0  0  0
  131.2400  122.4860   63.6686 H   0  0  0  0  0  0  0  0  0  0  0  0
  133.7701  121.6518   60.5838 H   0  0  0  0  0  0  0  0  0  0  0  0
  134.2365  119.2658   60.0688 H   0  0  0  0  0  0  0  0  0  0  0  0
  132.4672  117.5496   60.4189 H   0  0  0  0  0  0  0  0  0  0  0  0
  130.2224  118.2175   61.2684 H   0  0  0  0  0  0  0  0  0  0  0  0
  129.7511  120.6030   61.7801 H   0  0  0  0  0  0  0  0  0  0  0  0
  131.8820  129.3500   61.5500 H   0  0  0  0  0  0  0  0  0  0  0  0
  130.3766  131.4933   60.7551 H   0  0  0  0  0  0  0  0  0  0  0  0
  132.1799  131.5230   61.0407 H   0  0  0  0  0  0  0  0  0  0  0  0
  129.5231  131.8995   58.6109 H   0  0  0  0  0  0  0  0  0  0  0  0
  129.9296  132.4886   56.2208 H   0  0  0  0  0  0  0  0  0  0  0  0
  132.2342  132.3521   55.2862 H   0  0  0  0  0  0  0  0  0  0  0  0
  134.1390  131.6377   56.7229 H   0  0  0  0  0  0  0  0  0  0  0  0
  133.7357  131.0517   59.1152 H   0  0  0  0  0  0  0  0  0  0  0  0
  130.6110  128.6430   62.9700 H   0  0  0  0  0  0  0  0  0  0  0  0
  130.1230  127.2460   63.8490 H   0  0  0  0  0  0  0  0  0  0  0  0
  1  2  1  0
  2  3  2  0
  3  4  1  0
  4  5  1  0
  5  6  2  0
  6  7  1  0
  7  8  2  0
  8  9  1  0
  9 10  2  0
  4 11  2  0
 11 12  1  0
 12 13  1  0
 13 14  1  0
 14 15  1  0
 15 16  2  0
 15 17  1  0
 17 18  1  0
 18 19  1  0
 19 20  2  0
 20 21  1  0
 21 22  2  0
 22 23  1  0
 23 24  2  0
 14 25  2  0
 25 26  1  0
 25 27  1  0
 27  2  1  0
 10  5  1  0
 27 12  2  0
 24 19  1  0
  1 28  1  0
  1 29  1  0
  1 30  1  0
  3 31  1  0
  6 32  1  0
  7 33  1  0
  8 34  1  0
  9 35  1  0
 10 36  1  0
 17 37  1  0
 18 38  1  0
 18 39  1  0
 20 40  1  0
 21 41  1  0
 22 42  1  0
 23 43  1  0
 24 44  1  0
 26 45  1  0
 26 46  1  0
M  END
>  <Binding energies>  (1) 
[-7.88]

>  <Ligand effiencies>  (1) 
[-0.26266666666666666]

>  <Interactions>  (1) 
["V-A:PRO:540:CA:4881, V-A:TYR:531:CE2:4791, V-A:ILE:538:CB:4860, V-B:ALA:541:CB:9864, V-B:TYR:539:CE1:9847, V-A:ILE:369:CG2:3234, V-A:ILE:538:CG2:4861, V-A:PRO:540:CB:4883, V-A:PRO:540:N:4882, V-A:ASP:366:CG:3210, V-A:LEU:475:CD2:4256, V-A:LEU:363:CD1:3186, V-B:TYR:539:CD1:9845, V-B:GLU:543:CD:9880, H-A:GLU:543:OE2:4908, H-B:GLU:543:OE1:9881, H-A:GLU:543:OE1:4907, H-B:GLU:543:OE2:9882, V-A:GLU:543:CD:4906, H-A:ASP:366:OD2:3212, V-A:PRO:482:CB:4323, V-A:LEU:373:CD1:3277, V-A:SER:385:CA:3404"]

$$$$
4dj_Grossjean_2025
     RDKit          3D

 39 42  0  0  0  0  0  0  0  0999 V2000
  133.9480  123.8430   60.0800 C   0  0  0  0  0  0  0  0  0  0  0  0
  133.0470  122.8980   60.8610 C   0  0  0  0  0  0  0  0  0  0  0  0
  132.9960  121.5570   60.4640 C   0  0  0  0  0  0  0  0  0  0  0  0
  132.1850  120.6370   61.1400 C   0  0  0  0  0  0  0  0  0  0  0  0
  132.1140  119.1900   60.7400 C   0  0  0  0  0  0  0  0  0  0  0  0
  130.8820  118.5180   60.6840 C   0  0  0  0  0  0  0  0  0  0  0  0
  130.8090  117.1780   60.3140 C   0  0  0  0  0  0  0  0  0  0  0  0
  131.9730  116.4860   59.9980 C   0  0  0  0  0  0  0  0  0  0  0  0
  133.2070  117.1250   60.0490 C   0  0  0  0  0  0  0  0  0  0  0  0
  133.2750  118.4650   60.4180 C   0  0  0  0  0  0  0  0  0  0  0  0
  131.4300  120.9970   62.2140 N   0  0  0  0  0  0  0  0  0  0  0  0
  131.4780  122.2730   62.5920 C   0  0  0  0  0  0  0  0  0  0  0  0
  130.5530  122.8740   63.9510 S   0  0  0  0  0  0  0  0  0  0  0  0
  131.1880  124.5050   63.7230 C   0  0  0  0  0  0  0  0  0  0  0  0
  130.7670  125.5930   64.6060 C   0  0  0  0  0  0  0  0  0  0  0  0
  130.0800  126.5240   64.1770 O   0  0  0  0  0  0  0  0  0  0  0  0
  131.1890  125.4980   65.8910 N   0  0  0  0  0  0  0  0  0  0  0  0
  130.9330  126.3910   66.9220 C   0  0  0  0  0  0  0  0  0  0  0  0
  131.7590  127.2640   67.4590 N   0  0  0  0  0  0  0  0  0  0  0  0
  131.1770  127.9530   68.4210 C   0  0  0  0  0  0  0  0  0  0  0  0
  129.8460  127.6440   68.6820 C   0  0  0  0  0  0  0  0  0  0  0  0
  129.3370  126.3800   67.6020 S   0  0  0  0  0  0  0  0  0  0  0  0
  132.0720  124.5550   62.6340 C   0  0  0  0  0  0  0  0  0  0  0  0
  132.7130  125.6970   62.2240 N   0  0  0  0  0  0  0  0  0  0  0  0
  132.2570  123.2920   61.9720 C   0  0  0  0  0  0  0  0  0  0  0  0
  134.5325  124.4560   60.7818 H   0  0  0  0  0  0  0  0  0  0  0  0
  134.6315  123.2583   59.4468 H   0  0  0  0  0  0  0  0  0  0  0  0
  133.3314  124.4979   59.4468 H   0  0  0  0  0  0  0  0  0  0  0  0
  133.6013  121.2210   59.6092 H   0  0  0  0  0  0  0  0  0  0  0  0
  129.9588  119.0599   60.9369 H   0  0  0  0  0  0  0  0  0  0  0  0
  129.8349  116.6688   60.2718 H   0  0  0  0  0  0  0  0  0  0  0  0
  131.9173  115.4269   59.7060 H   0  0  0  0  0  0  0  0  0  0  0  0
  134.1254  116.5736   59.7988 H   0  0  0  0  0  0  0  0  0  0  0  0
  134.2536  118.9656   60.4585 H   0  0  0  0  0  0  0  0  0  0  0  0
  131.7550  124.6980   66.1350 H   0  0  0  0  0  0  0  0  0  0  0  0
  131.7142  128.7291   68.9858 H   0  0  0  0  0  0  0  0  0  0  0  0
  129.2173  128.1220   69.4477 H   0  0  0  0  0  0  0  0  0  0  0  0
  133.6630  125.6830   61.8840 H   0  0  0  0  0  0  0  0  0  0  0  0
  132.2510  126.5960   62.2500 H   0  0  0  0  0  0  0  0  0  0  0  0
  1  2  1  0
  2  3  2  0
  3  4  1  0
  4  5  1  0
  5  6  2  0
  6  7  1  0
  7  8  2  0
  8  9  1  0
  9 10  2  0
  4 11  2  0
 11 12  1  0
 12 13  1  0
 13 14  1  0
 14 15  1  0
 15 16  2  0
 15 17  1  0
 17 18  1  0
 18 19  2  0
 19 20  1  0
 20 21  2  0
 21 22  1  0
 14 23  2  0
 23 24  1  0
 23 25  1  0
 25  2  1  0
 10  5  1  0
 25 12  2  0
 22 18  1  0
  1 26  1  0
  1 27  1  0
  1 28  1  0
  3 29  1  0
  6 30  1  0
  7 31  1  0
  8 32  1  0
  9 33  1  0
 10 34  1  0
 17 35  1  0
 20 36  1  0
 21 37  1  0
 24 38  1  0
 24 39  1  0
M  END
>  <Binding energies>  (1) 
[-7.47]

>  <Ligand effiencies>  (1) 
[-0.2667857142857143]

>  <Interactions>  (1) 
["V-A:ARG:545:CZ:4924, H-A:ARG:545:NE:4922, V-B:ALA:541:CB:9864, V-B:TYR:539:CE1:9847, V-A:ILE:369:CG2:3234, V-A:ILE:369:CD1:3236, H-A:TYR:484:OH:4345, V-A:ASP:366:CG:3210, V-A:LEU:475:CD2:4256, V-B:TYR:539:CD1:9845, V-B:TYR:539:CG:9844, V-B:GLU:543:CD:9880, V-B:GLU:543:CG:9879, V-B:GLU:543:CB:9878, V-A:HIS:456:CE1:4066, V-A:GLU:543:CB:4904, V-A:GLU:543:CD:4906, V-A:GLU:543:CG:4905, V-A:GLU:543:C:4900, V-A:ILE:369:CB:3233, H-A:ASP:366:OD1:3211, V-A:PRO:482:CB:4323, V-A:PRO:482:CG:4324, V-B:TYR:539:CB:9843, V-A:ARG:545:CG:4920, V-A:LEU:373:CD1:3277, V-A:SER:385:CA:3404, V-A:SER:385:CB:3406, V-B:VAL:344:CG1:7972, V-A:VAL:384:C:3394"]

$$$$
4ea_Grossjean_2025
     RDKit          3D

 52 55  0  0  0  0  0  0  0  0999 V2000
  131.5640  117.2070   60.1150 C   0  0  0  0  0  0  0  0  0  0  0  0
  132.7450  118.1040   60.5010 C   0  0  0  0  0  0  0  0  0  0  0  0
  132.3000  119.4490   60.6080 O   0  0  0  0  0  0  0  0  0  0  0  0
  133.1830  120.4710   60.7560 C   0  0  0  0  0  0  0  0  0  0  0  0
  134.4000  120.3040   60.8830 O   0  0  0  0  0  0  0  0  0  0  0  0
  132.5310  121.8230   60.7490 C   0  0  0  0  0  0  0  0  0  0  0  0
  133.3340  122.9680   60.6770 C   0  0  0  0  0  0  0  0  0  0  0  0
  132.7610  124.2370   60.6690 C   0  0  0  0  0  0  0  0  0  0  0  0
  131.3750  124.3870   60.7330 C   0  0  0  0  0  0  0  0  0  0  0  0
  130.9080  125.7160   60.7180 N   0  0  0  0  0  0  0  0  0  0  0  0
  129.9720  126.3090   59.9370 C   0  0  0  0  0  0  0  0  0  0  0  0
  129.3380  125.7310   59.0530 O   0  0  0  0  0  0  0  0  0  0  0  0
  129.7420  127.7310   60.2080 C   0  0  0  0  0  0  0  0  0  0  0  0
  128.7190  128.2290   61.5580 S   0  0  0  0  0  0  0  0  0  0  0  0
  128.9680  129.9190   61.1860 C   0  0  0  0  0  0  0  0  0  0  0  0
  128.4070  130.8900   61.9100 N   0  0  0  0  0  0  0  0  0  0  0  0
  128.6800  132.1590   61.5170 C   0  0  0  0  0  0  0  0  0  0  0  0
  128.0320  133.2470   62.3530 C   0  0  0  0  0  0  0  0  0  0  0  0
  129.4920  132.4760   60.4300 C   0  0  0  0  0  0  0  0  0  0  0  0
  130.0780  131.4550   59.6750 C   0  0  0  0  0  0  0  0  0  0  0  0
  130.9380  131.8080   58.5230 C   0  0  0  0  0  0  0  0  0  0  0  0
  132.3170  131.5850   58.5810 C   0  0  0  0  0  0  0  0  0  0  0  0
  133.1260  131.9150   57.4970 C   0  0  0  0  0  0  0  0  0  0  0  0
  132.5560  132.4720   56.3550 C   0  0  0  0  0  0  0  0  0  0  0  0
  131.1830  132.7030   56.2880 C   0  0  0  0  0  0  0  0  0  0  0  0
  130.3760  132.3730   57.3730 C   0  0  0  0  0  0  0  0  0  0  0  0
  129.8160  130.1090   60.0540 C   0  0  0  0  0  0  0  0  0  0  0  0
  130.2440  128.8440   59.5150 C   0  0  0  0  0  0  0  0  0  0  0  0
  131.0670  128.7550   58.4220 N   0  0  0  0  0  0  0  0  0  0  0  0
  130.5620  123.2450   60.8060 C   0  0  0  0  0  0  0  0  0  0  0  0
  131.1380  121.9780   60.8140 C   0  0  0  0  0  0  0  0  0  0  0  0
  131.0734  116.8344   61.0263 H   0  0  0  0  0  0  0  0  0  0  0  0
  130.8422  117.7866   59.5208 H   0  0  0  0  0  0  0  0  0  0  0  0
  131.9287  116.3561   59.5208 H   0  0  0  0  0  0  0  0  0  0  0  0
  133.1554  117.7751   61.4671 H   0  0  0  0  0  0  0  0  0  0  0  0
  133.5263  118.0354   59.7297 H   0  0  0  0  0  0  0  0  0  0  0  0
  134.4279  122.8639   60.6263 H   0  0  0  0  0  0  0  0  0  0  0  0
  133.4049  125.1270   60.6119 H   0  0  0  0  0  0  0  0  0  0  0  0
  131.3490  126.3120   61.4030 H   0  0  0  0  0  0  0  0  0  0  0  0
  128.1678  133.0190   63.4205 H   0  0  0  0  0  0  0  0  0  0  0  0
  128.5009  134.2149   62.1223 H   0  0  0  0  0  0  0  0  0  0  0  0
  126.9576  133.2958   62.1223 H   0  0  0  0  0  0  0  0  0  0  0  0
  129.6720  133.5285   60.1659 H   0  0  0  0  0  0  0  0  0  0  0  0
  132.7641  131.1475   59.4858 H   0  0  0  0  0  0  0  0  0  0  0  0
  134.2105  131.7366   57.5424 H   0  0  0  0  0  0  0  0  0  0  0  0
  133.1950  132.7320   55.4982 H   0  0  0  0  0  0  0  0  0  0  0  0
  130.7398  133.1436   55.3828 H   0  0  0  0  0  0  0  0  0  0  0  0
  129.2925  132.5571   57.3262 H   0  0  0  0  0  0  0  0  0  0  0  0
  130.7520  128.3570   57.5480 H   0  0  0  0  0  0  0  0  0  0  0  0
  132.0220  129.0870   58.4540 H   0  0  0  0  0  0  0  0  0  0  0  0
  129.4684  123.3516   60.8569 H   0  0  0  0  0  0  0  0  0  0  0  0
  130.4939  121.0882   60.8719 H   0  0  0  0  0  0  0  0  0  0  0  0
  1  2  1  0
  2  3  1  0
  3  4  1  0
  4  5  2  0
  4  6  1  0
  6  7  2  0
  7  8  1  0
  8  9  2  0
  9 10  1  0
 10 11  1  0
 11 12  2  0
 11 13  1  0
 13 14  1  0
 14 15  1  0
 15 16  2  0
 16 17  1  0
 17 18  1  0
 17 19  2  0
 19 20  1  0
 20 21  1  0
 21 22  2  0
 22 23  1  0
 23 24  2  0
 24 25  1  0
 25 26  2  0
 20 27  2  0
 27 28  1  0
 28 29  1  0
  9 30  1  0
 30 31  2  0
 31  6  1  0
 28 13  2  0
 27 15  1  0
 26 21  1  0
  1 32  1  0
  1 33  1  0
  1 34  1  0
  2 35  1  0
  2 36  1  0
  7 37  1  0
  8 38  1  0
 10 39  1  0
 18 40  1  0
 18 41  1  0
 18 42  1  0
 19 43  1  0
 22 44  1  0
 23 45  1  0
 24 46  1  0
 25 47  1  0
 26 48  1  0
 29 49  1  0
 29 50  1  0
 30 51  1  0
 31 52  1  0
M  END
>  <Binding energies>  (1) 
[-6.91]

>  <Ligand effiencies>  (1) 
[-0.20323529411764707]

>  <Interactions>  (1) 
["V-A:PRO:540:CA:4881, V-A:TYR:531:CE2:4791, V-A:ILE:538:CB:4860, V-B:TYR:539:CE1:9847, V-A:ILE:369:CG2:3234, V-A:PRO:540:CD:4885, V-A:ILE:538:CG2:4861, V-A:PRO:540:CB:4883, V-A:ILE:369:CD1:3236, V-A:LEU:363:CA:3182, V-A:PRO:540:N:4882, V-A:ASP:366:CG:3210, V-A:LEU:475:CD2:4256, V-A:LEU:363:CD1:3186, V-B:TYR:539:CD1:9845, V-A:ALA:541:CB:4890, H-A:TYR:531:OH:4793, V-A:TYR:539:C:4865, H-A:ASP:366:OD2:3212, H-A:ASP:366:OD1:3211, V-A:PRO:482:CG:4324, V-B:TYR:539:CB:9843, V-A:ILE:538:CA:4858, V-A:LEU:373:CD1:3277, V-A:SER:385:CA:3404, V-A:SER:385:CB:3406"]

$$$$
4eb_Grossjean_2025
     RDKit          3D

 49 52  0  0  0  0  0  0  0  0999 V2000
  132.0620  117.4740   60.4570 C   0  0  0  0  0  0  0  0  0  0  0  0
  131.8670  118.7960   60.9390 O   0  0  0  0  0  0  0  0  0  0  0  0
  132.8320  119.7420   60.7940 C   0  0  0  0  0  0  0  0  0  0  0  0
  134.0320  119.4760   60.6820 O   0  0  0  0  0  0  0  0  0  0  0  0
  132.2920  121.1430   60.7830 C   0  0  0  0  0  0  0  0  0  0  0  0
  133.1880  122.2210   60.7920 C   0  0  0  0  0  0  0  0  0  0  0  0
  132.7190  123.5310   60.7820 C   0  0  0  0  0  0  0  0  0  0  0  0
  131.3480  123.7920   60.7640 C   0  0  0  0  0  0  0  0  0  0  0  0
  130.9890  125.1540   60.7560 N   0  0  0  0  0  0  0  0  0  0  0  0
  130.7390  125.9900   59.7180 C   0  0  0  0  0  0  0  0  0  0  0  0
  130.7910  125.6590   58.5330 O   0  0  0  0  0  0  0  0  0  0  0  0
  130.3890  127.3630   60.0920 C   0  0  0  0  0  0  0  0  0  0  0  0
  129.4460  127.6770   61.5500 S   0  0  0  0  0  0  0  0  0  0  0  0
  129.4830  129.4020   61.2600 C   0  0  0  0  0  0  0  0  0  0  0  0
  128.8920  130.2680   62.0850 N   0  0  0  0  0  0  0  0  0  0  0  0
  128.9950  131.5760   61.7470 C   0  0  0  0  0  0  0  0  0  0  0  0
  128.3150  132.5440   62.6990 C   0  0  0  0  0  0  0  0  0  0  0  0
  129.6670  132.0350   60.6170 C   0  0  0  0  0  0  0  0  0  0  0  0
  130.2850  131.1230   59.7550 C   0  0  0  0  0  0  0  0  0  0  0  0
  130.9960  131.6250   58.5560 C   0  0  0  0  0  0  0  0  0  0  0  0
  130.2730  132.0920   57.4550 C   0  0  0  0  0  0  0  0  0  0  0  0
  130.9400  132.5670   56.3280 C   0  0  0  0  0  0  0  0  0  0  0  0
  132.3330  132.5710   56.3030 C   0  0  0  0  0  0  0  0  0  0  0  0
  133.0630  132.1060   57.3950 C   0  0  0  0  0  0  0  0  0  0  0  0
  132.3940  131.6320   58.5200 C   0  0  0  0  0  0  0  0  0  0  0  0
  130.2010  129.7400   60.0740 C   0  0  0  0  0  0  0  0  0  0  0  0
  130.7060  128.5580   59.4270 C   0  0  0  0  0  0  0  0  0  0  0  0
  131.4330  128.6130   58.2640 N   0  0  0  0  0  0  0  0  0  0  0  0
  130.4440  122.7190   60.7550 C   0  0  0  0  0  0  0  0  0  0  0  0
  130.9150  121.4090   60.7640 C   0  0  0  0  0  0  0  0  0  0  0  0
  132.1637  116.7847   61.3082 H   0  0  0  0  0  0  0  0  0  0  0  0
  131.1981  117.1758   59.8448 H   0  0  0  0  0  0  0  0  0  0  0  0
  132.9752  117.4379   59.8448 H   0  0  0  0  0  0  0  0  0  0  0  0
  134.2711  122.0297   60.8071 H   0  0  0  0  0  0  0  0  0  0  0  0
  133.4339  124.3670   60.7883 H   0  0  0  0  0  0  0  0  0  0  0  0
  130.9090  125.5620   61.6750 H   0  0  0  0  0  0  0  0  0  0  0  0
  128.5246  132.2457   63.7368 H   0  0  0  0  0  0  0  0  0  0  0  0
  128.6989  133.5600   62.5249 H   0  0  0  0  0  0  0  0  0  0  0  0
  127.2290  132.5275   62.5249 H   0  0  0  0  0  0  0  0  0  0  0  0
  129.7118  133.1130   60.4026 H   0  0  0  0  0  0  0  0  0  0  0  0
  129.1733  132.0845   57.4784 H   0  0  0  0  0  0  0  0  0  0  0  0
  130.3701  132.9368   55.4628 H   0  0  0  0  0  0  0  0  0  0  0  0
  132.8612  132.9445   55.4134 H   0  0  0  0  0  0  0  0  0  0  0  0
  134.1626  132.1134   57.3682 H   0  0  0  0  0  0  0  0  0  0  0  0
  132.9667  131.2619   59.3832 H   0  0  0  0  0  0  0  0  0  0  0  0
  132.1840  129.2760   58.1390 H   0  0  0  0  0  0  0  0  0  0  0  0
  131.2390  127.9900   57.4920 H   0  0  0  0  0  0  0  0  0  0  0  0
  129.3614  122.9132   60.7408 H   0  0  0  0  0  0  0  0  0  0  0  0
  130.1995  120.5735   60.7561 H   0  0  0  0  0  0  0  0  0  0  0  0
  1  2  1  0
  2  3  1  0
  3  4  2  0
  3  5  1  0
  5  6  2  0
  6  7  1  0
  7  8  2  0
  8  9  1  0
  9 10  1  0
 10 11  2  0
 10 12  1  0
 12 13  1  0
 13 14  1  0
 14 15  2  0
 15 16  1  0
 16 17  1  0
 16 18  2  0
 18 19  1  0
 19 20  1  0
 20 21  2  0
 21 22  1  0
 22 23  2  0
 23 24  1  0
 24 25  2  0
 19 26  2  0
 26 27  1  0
 27 28  1  0
  8 29  1  0
 29 30  2  0
 30  5  1  0
 27 12  2  0
 26 14  1  0
 25 20  1  0
  1 31  1  0
  1 32  1  0
  1 33  1  0
  6 34  1  0
  7 35  1  0
  9 36  1  0
 17 37  1  0
 17 38  1  0
 17 39  1  0
 18 40  1  0
 21 41  1  0
 22 42  1  0
 23 43  1  0
 24 44  1  0
 25 45  1  0
 28 46  1  0
 28 47  1  0
 29 48  1  0
 30 49  1  0
M  END
>  <Binding energies>  (1) 
[-6.67]

>  <Ligand effiencies>  (1) 
[-0.20212121212121212]

>  <Interactions>  (1) 
["V-A:PRO:540:CA:4881, V-A:ILE:538:CB:4860, V-B:TYR:539:CE1:9847, V-A:ILE:369:CG2:3234, V-A:PRO:540:CD:4885, V-A:ILE:538:CG2:4861, V-A:PRO:540:CB:4883, V-A:ILE:369:CD1:3236, V-A:PRO:540:N:4882, V-A:ASP:366:CG:3210, V-A:LEU:475:CD2:4256, V-A:LEU:363:CD1:3186, V-B:TYR:539:CD1:9845, V-A:ASP:366:CB:3209, V-A:ALA:541:CB:4890, H-A:TYR:531:OH:4793, H-A:ASP:366:OD2:3212, V-A:ILE:538:CA:4858, V-A:LEU:373:CD1:3277, V-A:SER:385:CA:3404, V-A:PRO:540:CG:4884"]

$$$$
8a_Ghoteimi_2023
     RDKit          3D

 67 71  0  0  0  0  0  0  0  0999 V2000
  131.8270  126.7860   74.2070 C   0  0  0  0  0  0  0  0  0  0  0  0
  130.3430  126.4780   73.9840 C   0  0  0  0  0  0  0  0  0  0  0  0
  129.5640  127.6040   74.3670 O   0  0  0  0  0  0  0  0  0  0  0  0
  128.9820  128.4030   73.4350 C   0  0  0  0  0  0  0  0  0  0  0  0
  128.4150  129.4650   73.7090 O   0  0  0  0  0  0  0  0  0  0  0  0
  129.0940  127.8640   72.0380 C   0  0  0  0  0  0  0  0  0  0  0  0
  130.3490  127.8230   71.4190 C   0  0  0  0  0  0  0  0  0  0  0  0
  130.4850  127.3300   70.1250 C   0  0  0  0  0  0  0  0  0  0  0  0
  129.3710  126.8690   69.4210 C   0  0  0  0  0  0  0  0  0  0  0  0
  129.6280  126.3980   68.1180 N   0  0  0  0  0  0  0  0  0  0  0  0
  129.5060  127.0220   66.9200 C   0  0  0  0  0  0  0  0  0  0  0  0
  129.1220  128.1820   66.7790 O   0  0  0  0  0  0  0  0  0  0  0  0
  129.8780  126.2130   65.7550 C   0  0  0  0  0  0  0  0  0  0  0  0
  130.6960  124.6660   65.9680 S   0  0  0  0  0  0  0  0  0  0  0  0
  130.7690  124.4130   64.2400 C   0  0  0  0  0  0  0  0  0  0  0  0
  131.3450  123.3320   63.7140 N   0  0  0  0  0  0  0  0  0  0  0  0
  131.3530  123.2360   62.3580 C   0  0  0  0  0  0  0  0  0  0  0  0
  132.0220  122.0260   61.7890 C   0  0  0  0  0  0  0  0  0  0  0  0
  131.2720  120.9390   61.3170 C   0  0  0  0  0  0  0  0  0  0  0  0
  131.9000  119.8100   60.7990 C   0  0  0  0  0  0  0  0  0  0  0  0
  133.2900  119.7390   60.7380 C   0  0  0  0  0  0  0  0  0  0  0  0
  133.8270  118.5790   60.2110 O   0  0  0  0  0  0  0  0  0  0  0  0
  133.0860  117.3680   60.3050 C   0  0  0  0  0  0  0  0  0  0  0  0
  134.0500  120.8220   61.2020 C   0  0  0  0  0  0  0  0  0  0  0  0
  133.4180  121.9500   61.7220 C   0  0  0  0  0  0  0  0  0  0  0  0
  130.7820  124.2110   61.5370 C   0  0  0  0  0  0  0  0  0  0  0  0
  130.1620  125.3390   62.0850 C   0  0  0  0  0  0  0  0  0  0  0  0
  129.5430  126.3300   61.1680 C   0  0  0  0  0  0  0  0  0  0  0  0
  128.1690  126.2970   60.9230 C   0  0  0  0  0  0  0  0  0  0  0  0
  127.5810  127.2360   60.0800 C   0  0  0  0  0  0  0  0  0  0  0  0
  128.3540  128.2260   59.4730 C   0  0  0  0  0  0  0  0  0  0  0  0
  127.6850  129.1150   58.6530 O   0  0  0  0  0  0  0  0  0  0  0  0
  128.2630  130.3880   58.3920 C   0  0  0  0  0  0  0  0  0  0  0  0
  129.7340  128.2660   59.7240 C   0  0  0  0  0  0  0  0  0  0  0  0
  130.3190  127.3260   60.5690 C   0  0  0  0  0  0  0  0  0  0  0  0
  130.1620  125.4720   63.5030 C   0  0  0  0  0  0  0  0  0  0  0  0
  129.6770  126.4970   64.3950 C   0  0  0  0  0  0  0  0  0  0  0  0
  129.0890  127.6510   63.9410 N   0  0  0  0  0  0  0  0  0  0  0  0
  128.1100  126.9020   70.0350 C   0  0  0  0  0  0  0  0  0  0  0  0
  127.9760  127.3960   71.3300 C   0  0  0  0  0  0  0  0  0  0  0  0
  132.0344  126.8290   75.2864 H   0  0  0  0  0  0  0  0  0  0  0  0
  132.4386  125.9957   73.7474 H   0  0  0  0  0  0  0  0  0  0  0  0
  132.0736  127.7545   73.7474 H   0  0  0  0  0  0  0  0  0  0  0  0
  130.1699  126.2567   72.9205 H   0  0  0  0  0  0  0  0  0  0  0  0
  130.0533  125.6074   74.5908 H   0  0  0  0  0  0  0  0  0  0  0  0
  131.2358  128.1839   71.9606 H   0  0  0  0  0  0  0  0  0  0  0  0
  131.4782  127.3033   69.6529 H   0  0  0  0  0  0  0  0  0  0  0  0
  129.9650  125.4470   68.0850 H   0  0  0  0  0  0  0  0  0  0  0  0
  130.1734  120.9792   61.3567 H   0  0  0  0  0  0  0  0  0  0  0  0
  131.2940  118.9672   60.4349 H   0  0  0  0  0  0  0  0  0  0  0  0
  132.9308  117.1144   61.3640 H   0  0  0  0  0  0  0  0  0  0  0  0
  132.1111  117.4955   59.8118 H   0  0  0  0  0  0  0  0  0  0  0  0
  133.6433  116.5579   59.8118 H   0  0  0  0  0  0  0  0  0  0  0  0
  135.1483  120.7812   61.1555 H   0  0  0  0  0  0  0  0  0  0  0  0
  134.0249  122.7926   62.0849 H   0  0  0  0  0  0  0  0  0  0  0  0
  130.8203  124.0903   60.4443 H   0  0  0  0  0  0  0  0  0  0  0  0
  127.5472  125.5244   61.3989 H   0  0  0  0  0  0  0  0  0  0  0  0
  126.4981  127.1970   59.8910 H   0  0  0  0  0  0  0  0  0  0  0  0
  128.4907  130.8895   59.3442 H   0  0  0  0  0  0  0  0  0  0  0  0
  129.1905  130.2582   57.8150 H   0  0  0  0  0  0  0  0  0  0  0  0
  127.5549  131.0009   57.8150 H   0  0  0  0  0  0  0  0  0  0  0  0
  130.3552  129.0416   59.2523 H   0  0  0  0  0  0  0  0  0  0  0  0
  131.4003  127.3679   60.7664 H   0  0  0  0  0  0  0  0  0  0  0  0
  129.6400  128.4620   63.6980 H   0  0  0  0  0  0  0  0  0  0  0  0
  128.0880  127.7290   63.8300 H   0  0  0  0  0  0  0  0  0  0  0  0
  127.2255  126.5370   69.4924 H   0  0  0  0  0  0  0  0  0  0  0  0
  126.9833  127.4197   71.8033 H   0  0  0  0  0  0  0  0  0  0  0  0
  1  2  1  0
  2  3  1  0
  3  4  1  0
  4  5  2  0
  4  6  1  0
  6  7  2  0
  7  8  1  0
  8  9  2  0
  9 10  1  0
 10 11  1  0
 11 12  2  0
 11 13  1  0
 13 14  1  0
 14 15  1  0
 15 16  2  0
 16 17  1  0
 17 18  1  0
 18 19  2  0
 19 20  1  0
 20 21  2  0
 21 22  1  0
 22 23  1  0
 21 24  1  0
 24 25  2  0
 17 26  2  0
 26 27  1  0
 27 28  1  0
 28 29  2  0
 29 30  1  0
 30 31  2  0
 31 32  1  0
 32 33  1  0
 31 34  1  0
 34 35  2  0
 27 36  2  0
 36 37  1  0
 37 38  1  0
  9 39  1  0
 39 40  2  0
 40  6  1  0
 37 13  2  0
 36 15  1  0
 25 18  1  0
 35 28  1  0
  1 41  1  0
  1 42  1  0
  1 43  1  0
  2 44  1  0
  2 45  1  0
  7 46  1  0
  8 47  1  0
 10 48  1  0
 19 49  1  0
 20 50  1  0
 23 51  1  0
 23 52  1  0
 23 53  1  0
 24 54  1  0
 25 55  1  0
 26 56  1  0
 29 57  1  0
 30 58  1  0
 33 59  1  0
 33 60  1  0
 33 61  1  0
 34 62  1  0
 35 63  1  0
 38 64  1  0
 38 65  1  0
 39 66  1  0
 40 67  1  0
M  END
>  <Binding energies>  (1) 
[-4.83]

>  <Ligand effiencies>  (1) 
[-0.11232558139534884]

>  <Interactions>  (1) 
["V-B:TYR:539:CE1:9847, V-A:ILE:369:CG2:3234, V-A:ILE:369:CD1:3236, H-A:TYR:484:OH:4345, V-A:LEU:475:CD2:4256, V-B:TYR:539:CD1:9845, V-B:GLU:543:CD:9880, V-B:GLU:543:CG:9879, H-A:GLU:543:OE2:4908, V-B:GLU:543:CB:9878, V-A:HIS:456:CE1:4066, H-B:GLU:543:OE1:9881, H-A:GLU:543:OE1:4907, H-B:GLU:543:OE2:9882, V-B:HIS:456:CE1:9040, V-A:GLU:543:CD:4906, V-A:GLU:543:CG:4905, V-B:GLU:543:C:9874, V-B:GLY:544:CA:9886, V-B:HIS:456:CD2:9039, V-A:GLU:543:C:4900, V-A:LYS:547:CE:4948, V-A:GLY:544:C:4910, V-B:GLY:544:C:9884, V-A:HIS:456:CD2:4065, H-A:LYS:547:NZ:4949, H-B:LYS:547:NZ:9923, V-A:GLY:544:CA:4912, H-B:HIS:456:NE2:9041, V-A:TYR:484:CZ:4344, V-A:TYR:484:CE2:4343, V-A:LEU:373:CD1:3277, V-A:SER:385:CA:3404, V-A:SER:385:CB:3406, V-A:SER:385:C:3402, H-B:GLU:543:O:9875, V-A:LYS:547:CD:4947"]

$$$$
8b_Ghoteimi_2023
     RDKit          3D

 54 58  0  0  0  0  0  0  0  0999 V2000
  132.0530  116.4530   59.6710 C   0  0  0  0  0  0  0  0  0  0  0  0
  132.9560  117.2080   60.4720 O   0  0  0  0  0  0  0  0  0  0  0  0
  132.7330  118.5600   60.6460 C   0  0  0  0  0  0  0  0  0  0  0  0
  131.4210  118.9450   60.9160 C   0  0  0  0  0  0  0  0  0  0  0  0
  131.1020  120.2860   61.1050 C   0  0  0  0  0  0  0  0  0  0  0  0
  132.0890  121.2790   61.0290 C   0  0  0  0  0  0  0  0  0  0  0  0
  131.7510  122.7230   61.2300 C   0  0  0  0  0  0  0  0  0  0  0  0
  131.7630  123.3130   62.4980 C   0  0  0  0  0  0  0  0  0  0  0  0
  131.4440  124.6640   62.6590 C   0  0  0  0  0  0  0  0  0  0  0  0
  131.4570  125.2560   64.0170 C   0  0  0  0  0  0  0  0  0  0  0  0
  130.2580  125.5800   64.6530 C   0  0  0  0  0  0  0  0  0  0  0  0
  130.2710  126.1270   65.9340 C   0  0  0  0  0  0  0  0  0  0  0  0
  131.4780  126.3600   66.5940 C   0  0  0  0  0  0  0  0  0  0  0  0
  131.3950  126.9040   67.8610 O   0  0  0  0  0  0  0  0  0  0  0  0
  130.1970  127.5630   68.2560 C   0  0  0  0  0  0  0  0  0  0  0  0
  132.6830  126.0370   65.9490 C   0  0  0  0  0  0  0  0  0  0  0  0
  132.6680  125.4890   64.6690 C   0  0  0  0  0  0  0  0  0  0  0  0
  131.1170  125.4170   61.4990 C   0  0  0  0  0  0  0  0  0  0  0  0
  130.7540  126.7960   61.2990 C   0  0  0  0  0  0  0  0  0  0  0  0
  130.6630  127.6880   62.3370 N   0  0  0  0  0  0  0  0  0  0  0  0
  130.5090  127.1310   59.9590 C   0  0  0  0  0  0  0  0  0  0  0  0
  130.1260  128.4290   59.3990 C   0  0  0  0  0  0  0  0  0  0  0  0
  128.9510  128.8020   59.4220 O   0  0  0  0  0  0  0  0  0  0  0  0
  131.1420  129.1570   58.8700 N   0  0  0  0  0  0  0  0  0  0  0  0
  131.0660  130.4120   58.2820 C   0  0  0  0  0  0  0  0  0  0  0  0
  132.0960  130.9580   57.5180 C   0  0  0  0  0  0  0  0  0  0  0  0
  131.6350  132.1950   57.1280 C   0  0  0  0  0  0  0  0  0  0  0  0
  130.3920  132.3830   57.6300 O   0  0  0  0  0  0  0  0  0  0  0  0
  130.0410  131.2450   58.3590 N   0  0  0  0  0  0  0  0  0  0  0  0
  130.7260  125.7340   58.9030 S   0  0  0  0  0  0  0  0  0  0  0  0
  131.1420  124.7130   60.2600 C   0  0  0  0  0  0  0  0  0  0  0  0
  131.4430  123.4250   60.1060 N   0  0  0  0  0  0  0  0  0  0  0  0
  133.4070  120.8850   60.7610 C   0  0  0  0  0  0  0  0  0  0  0  0
  133.7290  119.5440   60.5700 C   0  0  0  0  0  0  0  0  0  0  0  0
  131.3728  115.8843   60.3221 H   0  0  0  0  0  0  0  0  0  0  0  0
  131.4682  117.1347   59.0360 H   0  0  0  0  0  0  0  0  0  0  0  0
  132.6204  115.7567   59.0360 H   0  0  0  0  0  0  0  0  0  0  0  0
  130.6310  118.1822   60.9802 H   0  0  0  0  0  0  0  0  0  0  0  0
  130.0610  120.5712   61.3170 H   0  0  0  0  0  0  0  0  0  0  0  0
  132.0263  122.7073   63.3777 H   0  0  0  0  0  0  0  0  0  0  0  0
  129.3003  125.4030   64.1416 H   0  0  0  0  0  0  0  0  0  0  0  0
  129.3214  126.3774   66.4296 H   0  0  0  0  0  0  0  0  0  0  0  0
  130.1406  127.5940   69.3541 H   0  0  0  0  0  0  0  0  0  0  0  0
  130.1951  128.5891   67.8596 H   0  0  0  0  0  0  0  0  0  0  0  0
  129.3294  127.0152   67.8596 H   0  0  0  0  0  0  0  0  0  0  0  0
  133.6420  126.2175   66.4567 H   0  0  0  0  0  0  0  0  0  0  0  0
  133.6156  125.2386   64.1696 H   0  0  0  0  0  0  0  0  0  0  0  0
  130.9380  127.4330   63.2750 H   0  0  0  0  0  0  0  0  0  0  0  0
  130.3160  128.6270   62.2010 H   0  0  0  0  0  0  0  0  0  0  0  0
  132.0650  128.7490   58.9070 H   0  0  0  0  0  0  0  0  0  0  0  0
  133.0669  130.4997   57.2786 H   0  0  0  0  0  0  0  0  0  0  0  0
  132.1882  132.9155   56.5076 H   0  0  0  0  0  0  0  0  0  0  0  0
  134.1986  121.6464   60.7007 H   0  0  0  0  0  0  0  0  0  0  0  0
  134.7692  119.2553   60.3586 H   0  0  0  0  0  0  0  0  0  0  0  0
  1  2  1  0
  2  3  1  0
  3  4  2  0
  4  5  1  0
  5  6  2  0
  6  7  1  0
  7  8  2  0
  8  9  1  0
  9 10  1  0
 10 11  2  0
 11 12  1  0
 12 13  2  0
 13 14  1  0
 14 15  1  0
 13 16  1  0
 16 17  2  0
  9 18  2  0
 18 19  1  0
 19 20  1  0
 19 21  2  0
 21 22  1  0
 22 23  2  0
 22 24  1  0
 24 25  1  0
 25 26  1  0
 26 27  2  0
 27 28  1  0
 28 29  1  0
 21 30  1  0
 30 31  1  0
 31 32  2  0
  6 33  1  0
 33 34  2  0
 34  3  1  0
 32  7  1  0
 17 10  1  0
 31 18  1  0
 29 25  2  0
  1 35  1  0
  1 36  1  0
  1 37  1  0
  4 38  1  0
  5 39  1  0
  8 40  1  0
 11 41  1  0
 12 42  1  0
 15 43  1  0
 15 44  1  0
 15 45  1  0
 16 46  1  0
 17 47  1  0
 20 48  1  0
 20 49  1  0
 24 50  1  0
 26 51  1  0
 27 52  1  0
 33 53  1  0
 34 54  1  0
M  END
>  <Binding energies>  (1) 
[-6.67]

>  <Ligand effiencies>  (1) 
[-0.18027027027027026]

>  <Interactions>  (1) 
["V-A:PRO:540:CA:4881, V-A:ARG:545:CZ:4924, V-B:TYR:539:CE1:9847, V-A:ILE:369:CG2:3234, V-A:PRO:540:CD:4885, V-A:PRO:540:CB:4883, V-A:PRO:540:N:4882, V-A:ASP:366:CG:3210, V-A:LEU:475:CD2:4256, V-B:TYR:539:CD1:9845, V-B:GLU:543:CD:9880, V-B:GLU:543:CG:9879, H-A:GLU:543:OE2:4908, V-B:GLU:543:CB:9878, V-A:HIS:456:CE1:4066, H-A:GLU:543:OE1:4907, V-A:GLU:543:CD:4906, V-A:GLU:543:CG:4905, H-A:HIS:456:NE2:4067, H-A:TYR:531:OH:4793, H-A:ASP:366:OD2:3212, H-A:ASP:366:OD1:3211, V-A:ARG:545:CG:4920, V-A:ARG:545:CD:4921, V-A:LEU:373:CD1:3277, V-A:SER:385:CA:3404, V-A:SER:385:CB:3406, V-A:SER:385:C:3402"]

$$$$
8c_Ghoteimi_2023
     RDKit          3D

 54 58  0  0  0  0  0  0  0  0999 V2000
  132.3110  116.3900   59.5960 C   0  0  0  0  0  0  0  0  0  0  0  0
  133.0620  117.2100   60.4840 O   0  0  0  0  0  0  0  0  0  0  0  0
  132.6800  118.5240   60.6750 C   0  0  0  0  0  0  0  0  0  0  0  0
  133.6800  119.4870   60.5610 C   0  0  0  0  0  0  0  0  0  0  0  0
  133.3870  120.8360   60.7400 C   0  0  0  0  0  0  0  0  0  0  0  0
  132.0830  121.2570   61.0380 C   0  0  0  0  0  0  0  0  0  0  0  0
  131.7620  122.7050   61.2350 C   0  0  0  0  0  0  0  0  0  0  0  0
  131.7630  123.2940   62.5030 C   0  0  0  0  0  0  0  0  0  0  0  0
  131.4610  124.6510   62.6600 C   0  0  0  0  0  0  0  0  0  0  0  0
  131.4620  125.2420   64.0170 C   0  0  0  0  0  0  0  0  0  0  0  0
  130.2560  125.5490   64.6520 C   0  0  0  0  0  0  0  0  0  0  0  0
  130.2580  126.0950   65.9310 C   0  0  0  0  0  0  0  0  0  0  0  0
  131.4600  126.3470   66.5940 C   0  0  0  0  0  0  0  0  0  0  0  0
  131.3660  126.8880   67.8610 O   0  0  0  0  0  0  0  0  0  0  0  0
  130.1020  127.3460   68.3280 C   0  0  0  0  0  0  0  0  0  0  0  0
  132.6720  126.0420   65.9530 C   0  0  0  0  0  0  0  0  0  0  0  0
  132.6690  125.4940   64.6730 C   0  0  0  0  0  0  0  0  0  0  0  0
  131.1630  125.4080   61.4950 C   0  0  0  0  0  0  0  0  0  0  0  0
  130.8210  126.7910   61.2910 C   0  0  0  0  0  0  0  0  0  0  0  0
  130.7250  127.6850   62.3280 N   0  0  0  0  0  0  0  0  0  0  0  0
  130.6000  127.1300   59.9470 C   0  0  0  0  0  0  0  0  0  0  0  0
  130.2420  128.4330   59.3820 C   0  0  0  0  0  0  0  0  0  0  0  0
  129.1460  128.9440   59.6210 O   0  0  0  0  0  0  0  0  0  0  0  0
  131.1890  129.0060   58.5990 N   0  0  0  0  0  0  0  0  0  0  0  0
  131.1060  130.2300   57.9500 C   0  0  0  0  0  0  0  0  0  0  0  0
  130.0260  130.8400   57.5100 N   0  0  0  0  0  0  0  0  0  0  0  0
  130.3180  131.9930   56.9430 C   0  0  0  0  0  0  0  0  0  0  0  0
  131.6640  132.3420   56.9130 C   0  0  0  0  0  0  0  0  0  0  0  0
  132.5910  131.0810   57.6710 S   0  0  0  0  0  0  0  0  0  0  0  0
  130.8160  125.7320   58.8930 S   0  0  0  0  0  0  0  0  0  0  0  0
  131.1970  124.7050   60.2560 C   0  0  0  0  0  0  0  0  0  0  0  0
  131.4820  123.4110   60.1060 N   0  0  0  0  0  0  0  0  0  0  0  0
  131.0820  120.2830   61.1490 C   0  0  0  0  0  0  0  0  0  0  0  0
  131.3720  118.9330   60.9710 C   0  0  0  0  0  0  0  0  0  0  0  0
  131.6804  115.7014   60.1776 H   0  0  0  0  0  0  0  0  0  0  0  0
  131.6737  117.0239   58.9620 H   0  0  0  0  0  0  0  0  0  0  0  0
  132.9984  115.8107   58.9620 H   0  0  0  0  0  0  0  0  0  0  0  0
  134.7098  119.1789   60.3276 H   0  0  0  0  0  0  0  0  0  0  0  0
  134.1897  121.5823   60.6464 H   0  0  0  0  0  0  0  0  0  0  0  0
  132.0037  122.6842   63.3863 H   0  0  0  0  0  0  0  0  0  0  0  0
  129.3020  125.3583   64.1387 H   0  0  0  0  0  0  0  0  0  0  0  0
  129.3036  126.3304   66.4246 H   0  0  0  0  0  0  0  0  0  0  0  0
  130.0963  127.3481   69.4280 H   0  0  0  0  0  0  0  0  0  0  0  0
  129.9223  128.3664   67.9585 H   0  0  0  0  0  0  0  0  0  0  0  0
  129.3104  126.6775   67.9585 H   0  0  0  0  0  0  0  0  0  0  0  0
  133.6265  126.2367   66.4638 H   0  0  0  0  0  0  0  0  0  0  0  0
  133.6217  125.2584   64.1761 H   0  0  0  0  0  0  0  0  0  0  0  0
  130.7110  127.3760   63.2910 H   0  0  0  0  0  0  0  0  0  0  0  0
  130.6610  128.6800   62.1670 H   0  0  0  0  0  0  0  0  0  0  0  0
  132.0530  128.5000   58.4710 H   0  0  0  0  0  0  0  0  0  0  0  0
  129.5401  132.6436   56.5169 H   0  0  0  0  0  0  0  0  0  0  0  0
  132.0754  133.2658   56.4801 H   0  0  0  0  0  0  0  0  0  0  0  0
  130.0512  120.5896   61.3803 H   0  0  0  0  0  0  0  0  0  0  0  0
  130.5716  118.1841   61.0630 H   0  0  0  0  0  0  0  0  0  0  0  0
  1  2  1  0
  2  3  1  0
  3  4  2  0
  4  5  1  0
  5  6  2  0
  6  7  1  0
  7  8  2  0
  8  9  1  0
  9 10  1  0
 10 11  2  0
 11 12  1  0
 12 13  2  0
 13 14  1  0
 14 15  1  0
 13 16  1  0
 16 17  2  0
  9 18  2  0
 18 19  1  0
 19 20  1  0
 19 21  2  0
 21 22  1  0
 22 23  2  0
 22 24  1  0
 24 25  1  0
 25 26  2  0
 26 27  1  0
 27 28  2  0
 28 29  1  0
 21 30  1  0
 30 31  1  0
 31 32  2  0
  6 33  1  0
 33 34  2  0
 34  3  1  0
 32  7  1  0
 17 10  1  0
 31 18  1  0
 29 25  1  0
  1 35  1  0
  1 36  1  0
  1 37  1  0
  4 38  1  0
  5 39  1  0
  8 40  1  0
 11 41  1  0
 12 42  1  0
 15 43  1  0
 15 44  1  0
 15 45  1  0
 16 46  1  0
 17 47  1  0
 20 48  1  0
 20 49  1  0
 24 50  1  0
 27 51  1  0
 28 52  1  0
 33 53  1  0
 34 54  1  0
M  END
>  <Binding energies>  (1) 
[-6.79]

>  <Ligand effiencies>  (1) 
[-0.18351351351351353]

>  <Interactions>  (1) 
["V-A:ARG:545:CZ:4924, V-B:TYR:539:CE1:9847, V-A:ILE:369:CG2:3234, V-A:PRO:540:CD:4885, V-A:PRO:540:N:4882, V-A:ASP:366:CG:3210, V-A:LEU:475:CD2:4256, V-B:TYR:539:CD1:9845, V-B:GLU:543:CD:9880, V-B:GLU:543:CG:9879, H-A:GLU:543:OE2:4908, V-B:GLU:543:CB:9878, V-A:HIS:456:CE1:4066, H-A:GLU:543:OE1:4907, V-A:GLU:543:CD:4906, V-A:GLU:543:CG:4905, H-A:HIS:456:NE2:4067, H-A:TYR:531:OH:4793, H-A:ASP:366:OD2:3212, H-A:ASP:366:OD1:3211, V-A:ARG:545:CG:4920, V-A:ARG:545:CD:4921, V-A:LEU:373:CD1:3277, V-A:SER:385:CA:3404, V-A:SER:385:CB:3406, V-A:SER:385:C:3402"]

$$$$
8d_Ghoteimi_2023
     RDKit          3D

 50 53  0  0  0  0  0  0  0  0999 V2000
  123.8880  123.5240   57.9140 C   0  0  0  0  0  0  0  0  0  0  0  0
  124.8020  123.4980   56.8260 O   0  0  0  0  0  0  0  0  0  0  0  0
  126.0440  122.9690   56.9730 C   0  0  0  0  0  0  0  0  0  0  0  0
  126.4670  122.0090   56.3240 O   0  0  0  0  0  0  0  0  0  0  0  0
  126.8490  123.6650   58.0000 C   0  0  0  0  0  0  0  0  0  0  0  0
  128.1480  122.8070   58.8320 S   0  0  0  0  0  0  0  0  0  0  0  0
  128.5320  124.2260   59.7790 C   0  0  0  0  0  0  0  0  0  0  0  0
  129.5140  124.2260   60.6800 N   0  0  0  0  0  0  0  0  0  0  0  0
  129.7310  125.3840   61.3610 C   0  0  0  0  0  0  0  0  0  0  0  0
  130.8350  125.3550   62.3690 C   0  0  0  0  0  0  0  0  0  0  0  0
  132.1630  125.1220   61.9830 C   0  0  0  0  0  0  0  0  0  0  0  0
  133.1870  125.0960   62.9250 C   0  0  0  0  0  0  0  0  0  0  0  0
  132.9120  125.3000   64.2770 C   0  0  0  0  0  0  0  0  0  0  0  0
  133.9890  125.2570   65.1400 O   0  0  0  0  0  0  0  0  0  0  0  0
  133.7620  125.3730   66.5410 C   0  0  0  0  0  0  0  0  0  0  0  0
  131.5880  125.5350   64.6740 C   0  0  0  0  0  0  0  0  0  0  0  0
  130.5660  125.5620   63.7280 C   0  0  0  0  0  0  0  0  0  0  0  0
  128.9620  126.5310   61.1440 C   0  0  0  0  0  0  0  0  0  0  0  0
  127.9340  126.5320   60.1960 C   0  0  0  0  0  0  0  0  0  0  0  0
  127.1430  127.7670   59.9830 C   0  0  0  0  0  0  0  0  0  0  0  0
  127.1160  128.3750   58.7270 C   0  0  0  0  0  0  0  0  0  0  0  0
  126.3800  129.5400   58.5290 C   0  0  0  0  0  0  0  0  0  0  0  0
  125.6580  130.1100   59.5790 C   0  0  0  0  0  0  0  0  0  0  0  0
  124.9590  131.2650   59.2910 O   0  0  0  0  0  0  0  0  0  0  0  0
  123.6460  131.4310   59.8140 C   0  0  0  0  0  0  0  0  0  0  0  0
  125.6840  129.4930   60.8410 C   0  0  0  0  0  0  0  0  0  0  0  0
  126.4210  128.3290   61.0370 C   0  0  0  0  0  0  0  0  0  0  0  0
  127.6930  125.3350   59.4720 C   0  0  0  0  0  0  0  0  0  0  0  0
  126.7410  124.9860   58.4530 C   0  0  0  0  0  0  0  0  0  0  0  0
  125.8090  125.8720   57.9770 N   0  0  0  0  0  0  0  0  0  0  0  0
  124.4458  123.5081   58.8619 H   0  0  0  0  0  0  0  0  0  0  0  0
  123.2809  124.4398   57.8611 H   0  0  0  0  0  0  0  0  0  0  0  0
  123.2298  122.6442   57.8611 H   0  0  0  0  0  0  0  0  0  0  0  0
  132.3984  124.9576   60.9211 H   0  0  0  0  0  0  0  0  0  0  0  0
  134.2220  124.9130   62.6005 H   0  0  0  0  0  0  0  0  0  0  0  0
  134.6121  124.9386   67.0874 H   0  0  0  0  0  0  0  0  0  0  0  0
  133.6580  126.4348   66.8089 H   0  0  0  0  0  0  0  0  0  0  0  0
  132.8406  124.8352   66.8089 H   0  0  0  0  0  0  0  0  0  0  0  0
  131.3555  125.6987   65.7366 H   0  0  0  0  0  0  0  0  0  0  0  0
  129.5319  125.7487   64.0531 H   0  0  0  0  0  0  0  0  0  0  0  0
  129.1676  127.4422   61.7249 H   0  0  0  0  0  0  0  0  0  0  0  0
  127.6778  127.9325   57.8912 H   0  0  0  0  0  0  0  0  0  0  0  0
  126.3673  130.0152   57.5370 H   0  0  0  0  0  0  0  0  0  0  0  0
  123.6858  131.4260   60.9133 H   0  0  0  0  0  0  0  0  0  0  0  0
  123.2313  132.3887   59.4665 H   0  0  0  0  0  0  0  0  0  0  0  0
  123.0060  130.6066   59.4665 H   0  0  0  0  0  0  0  0  0  0  0  0
  125.1197  129.9316   61.6772 H   0  0  0  0  0  0  0  0  0  0  0  0
  126.4346  127.8497   62.0270 H   0  0  0  0  0  0  0  0  0  0  0  0
  125.6260  126.7480   58.4460 H   0  0  0  0  0  0  0  0  0  0  0  0
  125.2770  125.6840   57.1400 H   0  0  0  0  0  0  0  0  0  0  0  0
  1  2  1  0
  2  3  1  0
  3  4  2  0
  3  5  1  0
  5  6  1  0
  6  7  1  0
  7  8  2  0
  8  9  1  0
  9 10  1  0
 10 11  2  0
 11 12  1  0
 12 13  2  0
 13 14  1  0
 14 15  1  0
 13 16  1  0
 16 17  2  0
  9 18  2  0
 18 19  1  0
 19 20  1  0
 20 21  2  0
 21 22  1  0
 22 23  2  0
 23 24  1  0
 24 25  1  0
 23 26  1  0
 26 27  2  0
 19 28  2  0
 28 29  1  0
 29 30  1  0
 29  5  2  0
 28  7  1  0
 17 10  1  0
 27 20  1  0
  1 31  1  0
  1 32  1  0
  1 33  1  0
 11 34  1  0
 12 35  1  0
 15 36  1  0
 15 37  1  0
 15 38  1  0
 16 39  1  0
 17 40  1  0
 18 41  1  0
 21 42  1  0
 22 43  1  0
 25 44  1  0
 25 45  1  0
 25 46  1  0
 26 47  1  0
 27 48  1  0
 30 49  1  0
 30 50  1  0
M  END
>  <Binding energies>  (1) 
[-7.12]

>  <Ligand effiencies>  (1) 
[-0.2225]

>  <Interactions>  (1) 
["V-A:ARG:545:CZ:4924, H-A:ARG:545:NE:4922, V-B:TYR:539:CE1:9847, V-B:ILE:369:CG2:8208, H-A:GLY:454:N:4047, H-A:TYR:484:OH:4345, V-B:ILE:369:CD1:8210, V-A:TYR:539:CE1:4873, V-B:PRO:540:CA:9855, V-B:ASP:366:CG:8184, V-B:PRO:540:CB:9857, V-B:PRO:540:CD:9859, V-B:LEU:363:CD1:8160, V-B:TYR:539:CD1:9845, V-B:LEU:363:CA:8156, V-B:ASP:366:CB:8183, V-B:PRO:540:N:9856, H-B:TYR:531:OH:9767, V-B:ILE:369:CB:8207, H-A:TYR:539:OH:4876, V-B:TYR:539:C:9839, V-B:GLU:543:CD:9880, V-A:HIS:456:CE1:4066, V-B:TYR:531:CZ:9766, V-B:ASP:366:CA:8181, H-B:ASP:366:OD2:8186, H-B:TYR:539:N:9842, V-A:TYR:484:CZ:4344, V-B:LEU:363:CB:8158, V-A:ARG:545:CG:4920, V-A:ARG:545:CD:4921"]

$$$$
9a_Ghoteimi_2023
     RDKit          3D

 85 91  0  0  0  0  0  0  0  0999 V2000
  128.4310  132.5530   73.7700 C   0  0  0  0  0  0  0  0  0  0  0  0
  128.2650  131.3680   74.7280 C   0  0  0  0  0  0  0  0  0  0  0  0
  127.4740  130.3630   74.1040 O   0  0  0  0  0  0  0  0  0  0  0  0
  127.7600  129.0460   74.2660 C   0  0  0  0  0  0  0  0  0  0  0  0
  127.7500  128.4770   75.3630 O   0  0  0  0  0  0  0  0  0  0  0  0
  128.0970  128.3490   72.9800 C   0  0  0  0  0  0  0  0  0  0  0  0
  128.8070  129.0420   71.9900 C   0  0  0  0  0  0  0  0  0  0  0  0
  129.1320  128.4230   70.7870 C   0  0  0  0  0  0  0  0  0  0  0  0
  128.7580  127.1010   70.5460 C   0  0  0  0  0  0  0  0  0  0  0  0
  129.1400  126.5800   69.2950 N   0  0  0  0  0  0  0  0  0  0  0  0
  130.2330  126.8370   68.5330 C   0  0  0  0  0  0  0  0  0  0  0  0
  131.1250  127.6250   68.8460 O   0  0  0  0  0  0  0  0  0  0  0  0
  130.3040  126.0930   67.2720 C   0  0  0  0  0  0  0  0  0  0  0  0
  131.0850  124.5120   67.2130 S   0  0  0  0  0  0  0  0  0  0  0  0
  130.7390  124.3550   65.5060 C   0  0  0  0  0  0  0  0  0  0  0  0
  131.0900  123.2680   64.8200 N   0  0  0  0  0  0  0  0  0  0  0  0
  130.7630  123.2400   63.5000 C   0  0  0  0  0  0  0  0  0  0  0  0
  131.1570  122.0070   62.7530 C   0  0  0  0  0  0  0  0  0  0  0  0
  132.4640  121.8500   62.2790 C   0  0  0  0  0  0  0  0  0  0  0  0
  132.8390  120.7040   61.5820 C   0  0  0  0  0  0  0  0  0  0  0  0
  131.9240  119.6660   61.3460 C   0  0  0  0  0  0  0  0  0  0  0  0
  132.2820  118.5180   60.6310 N   0  0  0  0  0  0  0  0  0  0  0  0
  131.3250  117.8380   59.7340 C   0  0  0  0  0  0  0  0  0  0  0  0
  131.7600  116.4160   59.3230 C   0  0  0  0  0  0  0  0  0  0  0  0
  133.0580  116.4490   58.7520 O   0  0  0  0  0  0  0  0  0  0  0  0
  134.0170  116.9500   59.6710 C   0  0  0  0  0  0  0  0  0  0  0  0
  133.6490  118.3890   60.0850 C   0  0  0  0  0  0  0  0  0  0  0  0
  130.6120  119.8350   61.8110 C   0  0  0  0  0  0  0  0  0  0  0  0
  130.2370  120.9820   62.5040 C   0  0  0  0  0  0  0  0  0  0  0  0
  130.1160  124.3050   62.8690 C   0  0  0  0  0  0  0  0  0  0  0  0
  129.7640  125.4560   63.5830 C   0  0  0  0  0  0  0  0  0  0  0  0
  129.1090  126.5730   62.8550 C   0  0  0  0  0  0  0  0  0  0  0  0
  129.8620  127.6470   62.3740 C   0  0  0  0  0  0  0  0  0  0  0  0
  129.2490  128.6860   61.6810 C   0  0  0  0  0  0  0  0  0  0  0  0
  127.8670  128.6710   61.4330 C   0  0  0  0  0  0  0  0  0  0  0  0
  127.2280  129.7080   60.7500 N   0  0  0  0  0  0  0  0  0  0  0  0
  126.5370  129.4130   59.4780 C   0  0  0  0  0  0  0  0  0  0  0  0
  125.5720  130.5320   59.0340 C   0  0  0  0  0  0  0  0  0  0  0  0
  126.2620  131.7700   58.9610 O   0  0  0  0  0  0  0  0  0  0  0  0
  126.8110  132.1400   60.2150 C   0  0  0  0  0  0  0  0  0  0  0  0
  127.8110  131.0630   60.6910 C   0  0  0  0  0  0  0  0  0  0  0  0
  127.1220  127.5870   61.9180 C   0  0  0  0  0  0  0  0  0  0  0  0
  127.7340  126.5500   62.6150 C   0  0  0  0  0  0  0  0  0  0  0  0
  130.0630  125.4920   64.9740 C   0  0  0  0  0  0  0  0  0  0  0  0
  129.8060  126.4600   66.0120 C   0  0  0  0  0  0  0  0  0  0  0  0
  129.1220  127.6260   65.7800 N   0  0  0  0  0  0  0  0  0  0  0  0
  128.0500  126.3970   71.5330 C   0  0  0  0  0  0  0  0  0  0  0  0
  127.7240  127.0180   72.7360 C   0  0  0  0  0  0  0  0  0  0  0  0
  128.5606  133.4784   74.3504 H   0  0  0  0  0  0  0  0  0  0  0  0
  129.3152  132.3909   73.1360 H   0  0  0  0  0  0  0  0  0  0  0  0
  127.5363  132.6401   73.1360 H   0  0  0  0  0  0  0  0  0  0  0  0
  129.2540  130.9553   74.9760 H   0  0  0  0  0  0  0  0  0  0  0  0
  127.7686  131.7070   75.6492 H   0  0  0  0  0  0  0  0  0  0  0  0
  129.1100  130.0847   72.1657 H   0  0  0  0  0  0  0  0  0  0  0  0
  129.6886  128.9809   70.0195 H   0  0  0  0  0  0  0  0  0  0  0  0
  128.4920  125.9060   68.9170 H   0  0  0  0  0  0  0  0  0  0  0  0
  133.2054  122.6424   62.4593 H   0  0  0  0  0  0  0  0  0  0  0  0
  133.8700  120.6107   61.2100 H   0  0  0  0  0  0  0  0  0  0  0  0
  130.3556  117.7689   60.2493 H   0  0  0  0  0  0  0  0  0  0  0  0
  131.2698  118.4354   58.8120 H   0  0  0  0  0  0  0  0  0  0  0  0
  131.7698  115.7675   60.2115 H   0  0  0  0  0  0  0  0  0  0  0  0
  131.0500  116.0230   58.5804 H   0  0  0  0  0  0  0  0  0  0  0  0
  134.0362  116.3077   60.5638 H   0  0  0  0  0  0  0  0  0  0  0  0
  135.0077  116.9539   59.1929 H   0  0  0  0  0  0  0  0  0  0  0  0
  134.3626  118.7229   60.8526 H   0  0  0  0  0  0  0  0  0  0  0  0
  133.6919  119.0064   59.1756 H   0  0  0  0  0  0  0  0  0  0  0  0
  129.8667  119.0477   61.6249 H   0  0  0  0  0  0  0  0  0  0  0  0
  129.2018  121.0847   62.8615 H   0  0  0  0  0  0  0  0  0  0  0  0
  129.8800  124.2381   61.7967 H   0  0  0  0  0  0  0  0  0  0  0  0
  130.9484  127.6713   62.5446 H   0  0  0  0  0  0  0  0  0  0  0  0
  129.8553  129.5309   61.3224 H   0  0  0  0  0  0  0  0  0  0  0  0
  127.2949  129.2737   58.6930 H   0  0  0  0  0  0  0  0  0  0  0  0
  125.9340  128.5069   59.6373 H   0  0  0  0  0  0  0  0  0  0  0  0
  125.1603  130.2859   58.0441 H   0  0  0  0  0  0  0  0  0  0  0  0
  124.7568  130.6167   59.7676 H   0  0  0  0  0  0  0  0  0  0  0  0
  127.3329  133.1031   60.1145 H   0  0  0  0  0  0  0  0  0  0  0  0
  125.9997  132.2312   60.9522 H   0  0  0  0  0  0  0  0  0  0  0  0
  128.6630  131.0462   59.9954 H   0  0  0  0  0  0  0  0  0  0  0  0
  128.1150  131.3309   61.7136 H   0  0  0  0  0  0  0  0  0  0  0  0
  126.0362  127.5558   61.7447 H   0  0  0  0  0  0  0  0  0  0  0  0
  127.1301  125.7060   62.9796 H   0  0  0  0  0  0  0  0  0  0  0  0
  129.2850  128.4580   66.3300 H   0  0  0  0  0  0  0  0  0  0  0  0
  128.4290  127.6920   65.0480 H   0  0  0  0  0  0  0  0  0  0  0  0
  127.7523  125.3530   71.3557 H   0  0  0  0  0  0  0  0  0  0  0  0
  127.1681  126.4594   73.5034 H   0  0  0  0  0  0  0  0  0  0  0  0
  1  2  1  0
  2  3  1  0
  3  4  1  0
  4  5  2  0
  4  6  1  0
  6  7  2  0
  7  8  1  0
  8  9  2  0
  9 10  1  0
 10 11  1  0
 11 12  2  0
 11 13  1  0
 13 14  1  0
 14 15  1  0
 15 16  2  0
 16 17  1  0
 17 18  1  0
 18 19  2  0
 19 20  1  0
 20 21  2  0
 21 22  1  0
 22 23  1  0
 23 24  1  0
 24 25  1  0
 25 26  1  0
 26 27  1  0
 21 28  1  0
 28 29  2  0
 17 30  2  0
 30 31  1  0
 31 32  1  0
 32 33  2  0
 33 34  1  0
 34 35  2  0
 35 36  1  0
 36 37  1  0
 37 38  1  0
 38 39  1  0
 39 40  1  0
 40 41  1  0
 35 42  1  0
 42 43  2  0
 31 44  2  0
 44 45  1  0
 45 46  1  0
  9 47  1  0
 47 48  2  0
 48  6  1  0
 45 13  2  0
 44 15  1  0
 29 18  1  0
 43 32  1  0
 27 22  1  0
 41 36  1  0
  1 49  1  0
  1 50  1  0
  1 51  1  0
  2 52  1  0
  2 53  1  0
  7 54  1  0
  8 55  1  0
 10 56  1  0
 19 57  1  0
 20 58  1  0
 23 59  1  0
 23 60  1  0
 24 61  1  0
 24 62  1  0
 26 63  1  0
 26 64  1  0
 27 65  1  0
 27 66  1  0
 28 67  1  0
 29 68  1  0
 30 69  1  0
 33 70  1  0
 34 71  1  0
 37 72  1  0
 37 73  1  0
 38 74  1  0
 38 75  1  0
 40 76  1  0
 40 77  1  0
 41 78  1  0
 41 79  1  0
 42 80  1  0
 43 81  1  0
 46 82  1  0
 46 83  1  0
 47 84  1  0
 48 85  1  0
M  END
>  <Binding energies>  (1) 
[8.82]

>  <Ligand effiencies>  (1) 
[0.17294117647058824]

>  <Interactions>  (1) 
["V-B:ALA:541:CB:9864, V-A:ILE:369:CG2:3234, H-A:TYR:484:OH:4345, V-A:LEU:475:CD2:4256, V-A:TYR:539:CE1:4873, V-B:ASP:366:CG:8184, V-B:TYR:539:CD1:9845, V-A:TYR:539:CD1:4871, V-B:TYR:539:CG:9844, H-A:TYR:539:OH:4876, V-B:GLU:543:CD:9880, V-B:GLU:543:CG:9879, H-A:GLU:543:OE2:4908, V-B:GLU:543:CB:9878, V-A:HIS:456:CE1:4066, H-B:GLU:543:OE1:9881, H-A:GLU:543:OE1:4907, H-B:GLU:543:OE2:9882, V-B:HIS:456:CE1:9040, V-A:TYR:539:CZ:4875, V-A:GLU:543:CD:4906, V-A:GLU:543:CG:4905, V-B:GLU:543:C:9874, V-B:GLY:544:CA:9886, V-B:HIS:456:CD2:9039, V-A:GLU:543:C:4900, V-B:LYS:547:CE:9922, V-A:LYS:547:CE:4948, V-B:GLY:544:C:9884, H-A:LYS:547:NZ:4949, V-B:HIS:456:CG:9037, H-B:LYS:547:NZ:9923, V-B:TYR:484:CB:9312, H-A:HIS:456:NE2:4067, V-A:TYR:484:CZ:4344, V-A:TYR:484:CE2:4343, V-B:TYR:539:CB:9843, V-B:ALA:541:CA:9862, V-A:LEU:373:CD1:3277, V-A:SER:385:CA:3404, V-A:SER:385:CB:3406, V-A:LEU:373:CD2:3278, H-B:GLU:543:O:9875, V-A:VAL:384:C:3394, V-A:LEU:373:CG:3276, V-A:TYR:484:CE1:4342"]

$$$$
9b_Ghoteimi_2023
     RDKit          3D

 72 78  0  0  0  0  0  0  0  0999 V2000
  130.7790  124.1370   60.5670 N   0  0  0  0  0  0  0  0  0  0  0  0
  131.0930  123.8240   61.8650 C   0  0  0  0  0  0  0  0  0  0  0  0
  131.7360  122.6340   62.2400 C   0  0  0  0  0  0  0  0  0  0  0  0
  132.2080  121.5420   61.3850 C   0  0  0  0  0  0  0  0  0  0  0  0
  133.1690  121.7050   60.6290 O   0  0  0  0  0  0  0  0  0  0  0  0
  131.5180  120.3790   61.4890 N   0  0  0  0  0  0  0  0  0  0  0  0
  131.7390  119.1970   60.7940 C   0  0  0  0  0  0  0  0  0  0  0  0
  130.7560  118.2260   60.6130 C   0  0  0  0  0  0  0  0  0  0  0  0
  131.3650  117.2320   59.8830 C   0  0  0  0  0  0  0  0  0  0  0  0
  132.6500  117.5870   59.6380 O   0  0  0  0  0  0  0  0  0  0  0  0
  132.8740  118.8340   60.2210 N   0  0  0  0  0  0  0  0  0  0  0  0
  131.9530  122.5500   63.9880 S   0  0  0  0  0  0  0  0  0  0  0  0
  131.1680  124.0950   64.2060 C   0  0  0  0  0  0  0  0  0  0  0  0
  130.9820  124.6200   65.4160 N   0  0  0  0  0  0  0  0  0  0  0  0
  130.3440  125.8180   65.4770 C   0  0  0  0  0  0  0  0  0  0  0  0
  130.1300  126.3740   66.8480 C   0  0  0  0  0  0  0  0  0  0  0  0
  131.1270  127.1160   67.4920 C   0  0  0  0  0  0  0  0  0  0  0  0
  130.9270  127.6190   68.7740 C   0  0  0  0  0  0  0  0  0  0  0  0
  129.7280  127.3860   69.4660 C   0  0  0  0  0  0  0  0  0  0  0  0
  129.5120  127.8880   70.7540 N   0  0  0  0  0  0  0  0  0  0  0  0
  130.6350  128.1560   71.6740 C   0  0  0  0  0  0  0  0  0  0  0  0
  130.2500  129.0160   72.8940 C   0  0  0  0  0  0  0  0  0  0  0  0
  129.1620  128.4220   73.5830 O   0  0  0  0  0  0  0  0  0  0  0  0
  128.0170  128.3150   72.7520 C   0  0  0  0  0  0  0  0  0  0  0  0
  128.3330  127.4360   71.5230 C   0  0  0  0  0  0  0  0  0  0  0  0
  128.7260  126.6590   68.8080 C   0  0  0  0  0  0  0  0  0  0  0  0
  128.9240  126.1600   67.5240 C   0  0  0  0  0  0  0  0  0  0  0  0
  129.9210  126.4980   64.3330 C   0  0  0  0  0  0  0  0  0  0  0  0
  130.1330  125.9600   63.0580 C   0  0  0  0  0  0  0  0  0  0  0  0
  129.6900  126.7370   61.8720 C   0  0  0  0  0  0  0  0  0  0  0  0
  130.6280  127.3640   61.0510 C   0  0  0  0  0  0  0  0  0  0  0  0
  130.2190  128.0760   59.9280 C   0  0  0  0  0  0  0  0  0  0  0  0
  128.8590  128.1810   59.5950 C   0  0  0  0  0  0  0  0  0  0  0  0
  128.4270  128.8770   58.4630 N   0  0  0  0  0  0  0  0  0  0  0  0
  127.1110  128.5570   57.8770 C   0  0  0  0  0  0  0  0  0  0  0  0
  126.9390  129.0950   56.4400 C   0  0  0  0  0  0  0  0  0  0  0  0
  127.1720  130.4950   56.4150 O   0  0  0  0  0  0  0  0  0  0  0  0
  128.4840  130.8170   56.8510 C   0  0  0  0  0  0  0  0  0  0  0  0
  128.6980  130.3190   58.2960 C   0  0  0  0  0  0  0  0  0  0  0  0
  127.9270  127.5300   60.4170 C   0  0  0  0  0  0  0  0  0  0  0  0
  128.3370  126.8180   61.5410 C   0  0  0  0  0  0  0  0  0  0  0  0
  130.7680  124.6890   62.9720 C   0  0  0  0  0  0  0  0  0  0  0  0
  131.3270  123.7960   59.7890 H   0  0  0  0  0  0  0  0  0  0  0  0
  129.9850  124.7210   60.3440 H   0  0  0  0  0  0  0  0  0  0  0  0
  130.7530  120.3580   62.1480 H   0  0  0  0  0  0  0  0  0  0  0  0
  129.7177  118.2494   60.9755 H   0  0  0  0  0  0  0  0  0  0  0  0
  130.8862  116.2989   59.5513 H   0  0  0  0  0  0  0  0  0  0  0  0
  132.0812  127.3040   66.9779 H   0  0  0  0  0  0  0  0  0  0  0  0
  131.7219  128.2092   69.2533 H   0  0  0  0  0  0  0  0  0  0  0  0
  131.0227  127.1929   72.0374 H   0  0  0  0  0  0  0  0  0  0  0  0
  131.3852  128.7252   71.1055 H   0  0  0  0  0  0  0  0  0  0  0  0
  131.1125  129.0925   73.5724 H   0  0  0  0  0  0  0  0  0  0  0  0
  129.9553  130.0185   72.5502 H   0  0  0  0  0  0  0  0  0  0  0  0
  127.1944  127.8596   73.3230 H   0  0  0  0  0  0  0  0  0  0  0  0
  127.7251  129.3191   72.4107 H   0  0  0  0  0  0  0  0  0  0  0  0
  128.5180  126.4086   71.8697 H   0  0  0  0  0  0  0  0  0  0  0  0
  127.4659  127.5031   70.8494 H   0  0  0  0  0  0  0  0  0  0  0  0
  127.7666  126.4799   69.3154 H   0  0  0  0  0  0  0  0  0  0  0  0
  128.1213  125.5895   67.0339 H   0  0  0  0  0  0  0  0  0  0  0  0
  129.4146  127.4691   64.4350 H   0  0  0  0  0  0  0  0  0  0  0  0
  131.6987  127.2948   61.2935 H   0  0  0  0  0  0  0  0  0  0  0  0
  130.9720  128.5638   59.2916 H   0  0  0  0  0  0  0  0  0  0  0  0
  126.9934  127.4635   57.8575 H   0  0  0  0  0  0  0  0  0  0  0  0
  126.3475  129.0432   58.5020 H   0  0  0  0  0  0  0  0  0  0  0  0
  127.6579  128.5941   55.7749 H   0  0  0  0  0  0  0  0  0  0  0  0
  125.9127  128.8935   56.0992 H   0  0  0  0  0  0  0  0  0  0  0  0
  129.2169  130.3348   56.1874 H   0  0  0  0  0  0  0  0  0  0  0  0
  128.6159  131.9087   56.8224 H   0  0  0  0  0  0  0  0  0  0  0  0
  129.7425  130.5133   58.5812 H   0  0  0  0  0  0  0  0  0  0  0  0
  127.9860  130.8606   58.9361 H   0  0  0  0  0  0  0  0  0  0  0  0
  126.8564  127.5829   60.1698 H   0  0  0  0  0  0  0  0  0  0  0  0
  127.5892  126.3159   62.1724 H   0  0  0  0  0  0  0  0  0  0  0  0
  1  2  1  0
  2  3  2  0
  3  4  1  0
  4  5  2  0
  4  6  1  0
  6  7  1  0
  7  8  1  0
  8  9  2  0
  9 10  1  0
 10 11  1  0
  3 12  1  0
 12 13  1  0
 13 14  2  0
 14 15  1  0
 15 16  1  0
 16 17  2  0
 17 18  1  0
 18 19  2  0
 19 20  1  0
 20 21  1  0
 21 22  1  0
 22 23  1  0
 23 24  1  0
 24 25  1  0
 19 26  1  0
 26 27  2  0
 15 28  2  0
 28 29  1  0
 29 30  1  0
 30 31  2  0
 31 32  1  0
 32 33  2  0
 33 34  1  0
 34 35  1  0
 35 36  1  0
 36 37  1  0
 37 38  1  0
 38 39  1  0
 33 40  1  0
 40 41  2  0
 29 42  2  0
 42  2  1  0
 11  7  2  0
 42 13  1  0
 27 16  1  0
 41 30  1  0
 25 20  1  0
 39 34  1  0
  1 43  1  0
  1 44  1  0
  6 45  1  0
  8 46  1  0
  9 47  1  0
 17 48  1  0
 18 49  1  0
 21 50  1  0
 21 51  1  0
 22 52  1  0
 22 53  1  0
 24 54  1  0
 24 55  1  0
 25 56  1  0
 25 57  1  0
 26 58  1  0
 27 59  1  0
 28 60  1  0
 31 61  1  0
 32 62  1  0
 35 63  1  0
 35 64  1  0
 36 65  1  0
 36 66  1  0
 38 67  1  0
 38 68  1  0
 39 69  1  0
 39 70  1  0
 40 71  1  0
 41 72  1  0
M  END
>  <Binding energies>  (1) 
[-5.71]

>  <Ligand effiencies>  (1) 
[-0.12688888888888888]

>  <Interactions>  (1) 
["V-A:GLY:454:CA:4046, V-B:TYR:539:CE1:9847, H-A:TYR:484:OH:4345, V-A:LEU:475:CD2:4256, V-B:TYR:539:CD1:9845, V-B:TYR:539:CG:9844, H-A:TYR:539:OH:4876, V-B:GLU:543:CD:9880, V-B:GLU:543:CG:9879, V-B:GLU:543:CB:9878, V-A:HIS:456:CE1:4066, V-B:HIS:456:CE1:9040, V-A:GLU:543:CD:4906, V-A:GLU:543:CG:4905, V-B:GLU:543:C:9874, V-B:HIS:456:CD2:9039, V-A:GLU:543:C:4900, V-A:LYS:547:CE:4948, V-A:GLY:544:C:4910, V-B:GLY:544:C:9884, H-A:LYS:547:NZ:4949, V-B:HIS:456:CG:9037, V-A:GLY:544:CA:4912, V-A:MET:535:CE:4833, V-A:PRO:482:CB:4323, V-A:TYR:484:CZ:4344, V-A:PRO:482:CG:4324, V-B:TYR:539:CB:9843, V-A:ARG:545:CG:4920, V-A:LEU:373:CD1:3277, V-B:GLU:543:CA:9876"]

$$$$
9c_Ghoteimi_2023
     RDKit          3D

 72 78  0  0  0  0  0  0  0  0999 V2000
  130.6850  124.0760   60.5890 N   0  0  0  0  0  0  0  0  0  0  0  0
  130.9740  123.7590   61.8920 C   0  0  0  0  0  0  0  0  0  0  0  0
  131.5700  122.5490   62.2790 C   0  0  0  0  0  0  0  0  0  0  0  0
  132.0080  121.4340   61.4330 C   0  0  0  0  0  0  0  0  0  0  0  0
  132.9630  121.5640   60.6630 O   0  0  0  0  0  0  0  0  0  0  0  0
  131.2930  120.2900   61.5620 N   0  0  0  0  0  0  0  0  0  0  0  0
  131.4880  119.1020   60.8720 C   0  0  0  0  0  0  0  0  0  0  0  0
  130.5740  118.2870   60.3920 N   0  0  0  0  0  0  0  0  0  0  0  0
  131.1200  117.2440   59.7950 C   0  0  0  0  0  0  0  0  0  0  0  0
  132.5110  117.1990   59.7860 C   0  0  0  0  0  0  0  0  0  0  0  0
  133.1280  118.6030   60.6040 S   0  0  0  0  0  0  0  0  0  0  0  0
  131.7680  122.4660   64.0290 S   0  0  0  0  0  0  0  0  0  0  0  0
  131.0360  124.0400   64.2320 C   0  0  0  0  0  0  0  0  0  0  0  0
  130.8590  124.5770   65.4380 N   0  0  0  0  0  0  0  0  0  0  0  0
  130.2640  125.7980   65.4870 C   0  0  0  0  0  0  0  0  0  0  0  0
  130.0590  126.3680   66.8530 C   0  0  0  0  0  0  0  0  0  0  0  0
  131.0700  127.0900   67.4970 C   0  0  0  0  0  0  0  0  0  0  0  0
  130.8770  127.6100   68.7730 C   0  0  0  0  0  0  0  0  0  0  0  0
  129.6660  127.4180   69.4580 C   0  0  0  0  0  0  0  0  0  0  0  0
  129.4530  127.9410   70.7380 N   0  0  0  0  0  0  0  0  0  0  0  0
  130.5830  128.2680   71.6330 C   0  0  0  0  0  0  0  0  0  0  0  0
  130.1890  129.1470   72.8390 C   0  0  0  0  0  0  0  0  0  0  0  0
  129.1330  128.5320   73.5600 O   0  0  0  0  0  0  0  0  0  0  0  0
  127.9790  128.3680   72.7510 C   0  0  0  0  0  0  0  0  0  0  0  0
  128.3040  127.4690   71.5380 C   0  0  0  0  0  0  0  0  0  0  0  0
  128.6500  126.7110   68.8000 C   0  0  0  0  0  0  0  0  0  0  0  0
  128.8430  126.1940   67.5220 C   0  0  0  0  0  0  0  0  0  0  0  0
  129.8770  126.4870   64.3350 C   0  0  0  0  0  0  0  0  0  0  0  0
  130.0810  125.9350   63.0650 C   0  0  0  0  0  0  0  0  0  0  0  0
  129.6810  126.7200   61.8710 C   0  0  0  0  0  0  0  0  0  0  0  0
  130.6480  127.3330   61.0730 C   0  0  0  0  0  0  0  0  0  0  0  0
  130.2770  128.0560   59.9430 C   0  0  0  0  0  0  0  0  0  0  0  0
  128.9280  128.1860   59.5800 C   0  0  0  0  0  0  0  0  0  0  0  0
  128.5330  128.8970   58.4430 N   0  0  0  0  0  0  0  0  0  0  0  0
  127.1580  128.7310   57.9320 C   0  0  0  0  0  0  0  0  0  0  0  0
  126.9790  129.2470   56.4870 C   0  0  0  0  0  0  0  0  0  0  0  0
  127.3870  130.6040   56.4020 O   0  0  0  0  0  0  0  0  0  0  0  0
  128.7500  130.7660   56.7610 C   0  0  0  0  0  0  0  0  0  0  0  0
  128.9770  130.2850   58.2110 C   0  0  0  0  0  0  0  0  0  0  0  0
  127.9660  127.5480   60.3780 C   0  0  0  0  0  0  0  0  0  0  0  0
  128.3360  126.8250   61.5080 C   0  0  0  0  0  0  0  0  0  0  0  0
  130.6700  124.6410   62.9910 C   0  0  0  0  0  0  0  0  0  0  0  0
  131.1440  123.6180   59.8140 H   0  0  0  0  0  0  0  0  0  0  0  0
  130.0010  124.7830   60.3590 H   0  0  0  0  0  0  0  0  0  0  0  0
  130.5350  120.2890   62.2290 H   0  0  0  0  0  0  0  0  0  0  0  0
  130.5101  116.4550   59.3308 H   0  0  0  0  0  0  0  0  0  0  0  0
  133.1214  116.4033   59.3341 H   0  0  0  0  0  0  0  0  0  0  0  0
  132.0315  127.2488   66.9869 H   0  0  0  0  0  0  0  0  0  0  0  0
  131.6857  128.1806   69.2530 H   0  0  0  0  0  0  0  0  0  0  0  0
  131.0073  127.3272   72.0136 H   0  0  0  0  0  0  0  0  0  0  0  0
  131.3057  128.8459   71.0382 H   0  0  0  0  0  0  0  0  0  0  0  0
  131.0592  129.2699   73.5005 H   0  0  0  0  0  0  0  0  0  0  0  0
  129.8555  130.1307   72.4767 H   0  0  0  0  0  0  0  0  0  0  0  0
  127.1807  127.9009   73.3465 H   0  0  0  0  0  0  0  0  0  0  0  0
  127.6493  129.3535   72.3904 H   0  0  0  0  0  0  0  0  0  0  0  0
  128.5299  126.4574   71.9064 H   0  0  0  0  0  0  0  0  0  0  0  0
  127.4239  127.4895   70.8785 H   0  0  0  0  0  0  0  0  0  0  0  0
  127.6829  126.5621   69.3025 H   0  0  0  0  0  0  0  0  0  0  0  0
  128.0282  125.6412   67.0316 H   0  0  0  0  0  0  0  0  0  0  0  0
  129.4056  127.4766   64.4272 H   0  0  0  0  0  0  0  0  0  0  0  0
  131.7116  127.2441   61.3391 H   0  0  0  0  0  0  0  0  0  0  0  0
  131.0527  128.5324   59.3255 H   0  0  0  0  0  0  0  0  0  0  0  0
  126.9033  127.6612   57.9552 H   0  0  0  0  0  0  0  0  0  0  0  0
  126.4957  129.3277   58.5764 H   0  0  0  0  0  0  0  0  0  0  0  0
  127.5913  128.6391   55.8047 H   0  0  0  0  0  0  0  0  0  0  0  0
  125.9185  129.1705   56.2050 H   0  0  0  0  0  0  0  0  0  0  0  0
  129.3788  130.1750   56.0788 H   0  0  0  0  0  0  0  0  0  0  0  0
  129.0177  131.8305   56.6884 H   0  0  0  0  0  0  0  0  0  0  0  0
  130.0518  130.3497   58.4358 H   0  0  0  0  0  0  0  0  0  0  0  0
  128.3761  130.9326   58.8664 H   0  0  0  0  0  0  0  0  0  0  0  0
  126.9026  127.6205   60.1060 H   0  0  0  0  0  0  0  0  0  0  0  0
  127.5648  126.3332   62.1191 H   0  0  0  0  0  0  0  0  0  0  0  0
  1  2  1  0
  2  3  2  0
  3  4  1  0
  4  5  2  0
  4  6  1  0
  6  7  1  0
  7  8  2  0
  8  9  1  0
  9 10  2  0
 10 11  1  0
  3 12  1  0
 12 13  1  0
 13 14  2  0
 14 15  1  0
 15 16  1  0
 16 17  2  0
 17 18  1  0
 18 19  2  0
 19 20  1  0
 20 21  1  0
 21 22  1  0
 22 23  1  0
 23 24  1  0
 24 25  1  0
 19 26  1  0
 26 27  2  0
 15 28  2  0
 28 29  1  0
 29 30  1  0
 30 31  2  0
 31 32  1  0
 32 33  2  0
 33 34  1  0
 34 35  1  0
 35 36  1  0
 36 37  1  0
 37 38  1  0
 38 39  1  0
 33 40  1  0
 40 41  2  0
 29 42  2  0
 42  2  1  0
 11  7  1  0
 42 13  1  0
 27 16  1  0
 41 30  1  0
 25 20  1  0
 39 34  1  0
  1 43  1  0
  1 44  1  0
  6 45  1  0
  9 46  1  0
 10 47  1  0
 17 48  1  0
 18 49  1  0
 21 50  1  0
 21 51  1  0
 22 52  1  0
 22 53  1  0
 24 54  1  0
 24 55  1  0
 25 56  1  0
 25 57  1  0
 26 58  1  0
 27 59  1  0
 28 60  1  0
 31 61  1  0
 32 62  1  0
 35 63  1  0
 35 64  1  0
 36 65  1  0
 36 66  1  0
 38 67  1  0
 38 68  1  0
 39 69  1  0
 39 70  1  0
 40 71  1  0
 41 72  1  0
M  END
>  <Binding energies>  (1) 
[-5.75]

>  <Ligand effiencies>  (1) 
[-0.12777777777777777]

>  <Interactions>  (1) 
["V-A:GLY:454:CA:4046, V-B:TYR:539:CE1:9847, H-A:TYR:484:OH:4345, V-A:LEU:475:CD2:4256, V-B:TYR:539:CD1:9845, V-B:TYR:539:CG:9844, H-A:TYR:539:OH:4876, V-B:GLU:543:CD:9880, V-B:GLU:543:CG:9879, V-B:GLU:543:CB:9878, V-A:HIS:456:CE1:4066, V-B:HIS:456:CE1:9040, V-A:GLU:543:CD:4906, V-A:GLU:543:CG:4905, V-B:GLU:543:C:9874, V-B:HIS:456:CD2:9039, V-A:GLU:543:C:4900, V-A:LYS:547:CE:4948, V-A:GLY:544:C:4910, V-B:GLY:544:C:9884, H-A:LYS:547:NZ:4949, V-B:HIS:456:CG:9037, V-A:GLY:544:CA:4912, V-A:MET:535:CE:4833, V-A:TYR:484:CZ:4344, V-A:PRO:482:CG:4324, V-B:TYR:539:CB:9843, H-B:TYR:539:O:9840, V-A:ARG:545:CG:4920, V-A:LEU:373:CD1:3277, V-A:SER:385:CA:3404, V-A:SER:385:CB:3406, V-B:GLU:543:CA:9876"]

$$$$
9d_Ghoteimi_2023
     RDKit          3D

 68 73  0  0  0  0  0  0  0  0999 V2000
  134.3270  124.0410   59.4430 C   0  0  0  0  0  0  0  0  0  0  0  0
  133.4700  122.9760   59.8310 O   0  0  0  0  0  0  0  0  0  0  0  0
  133.4640  122.5180   61.1100 C   0  0  0  0  0  0  0  0  0  0  0  0
  134.0350  121.4870   61.4760 O   0  0  0  0  0  0  0  0  0  0  0  0
  132.6920  123.3830   62.0280 C   0  0  0  0  0  0  0  0  0  0  0  0
  132.9230  123.2410   63.7710 S   0  0  0  0  0  0  0  0  0  0  0  0
  131.7670  124.5180   64.0680 C   0  0  0  0  0  0  0  0  0  0  0  0
  131.4970  124.9400   65.3020 N   0  0  0  0  0  0  0  0  0  0  0  0
  130.5970  125.9510   65.4250 C   0  0  0  0  0  0  0  0  0  0  0  0
  130.3280  126.4260   66.8180 C   0  0  0  0  0  0  0  0  0  0  0  0
  129.1270  126.1020   67.4580 C   0  0  0  0  0  0  0  0  0  0  0  0
  128.8660  126.5420   68.7530 C   0  0  0  0  0  0  0  0  0  0  0  0
  129.8040  127.3110   69.4610 C   0  0  0  0  0  0  0  0  0  0  0  0
  129.5490  127.7740   70.7560 N   0  0  0  0  0  0  0  0  0  0  0  0
  128.3000  127.4270   71.4640 C   0  0  0  0  0  0  0  0  0  0  0  0
  128.0310  128.2900   72.7150 C   0  0  0  0  0  0  0  0  0  0  0  0
  129.1440  128.2350   73.5910 O   0  0  0  0  0  0  0  0  0  0  0  0
  130.3180  128.7300   72.9700 C   0  0  0  0  0  0  0  0  0  0  0  0
  130.6590  127.8830   71.7250 C   0  0  0  0  0  0  0  0  0  0  0  0
  130.9990  127.6450   68.8080 C   0  0  0  0  0  0  0  0  0  0  0  0
  131.2580  127.2080   67.5120 C   0  0  0  0  0  0  0  0  0  0  0  0
  129.9480  126.5100   64.3220 C   0  0  0  0  0  0  0  0  0  0  0  0
  130.2140  126.0570   63.0250 C   0  0  0  0  0  0  0  0  0  0  0  0
  129.4760  126.6680   61.8880 C   0  0  0  0  0  0  0  0  0  0  0  0
  128.1100  126.4320   61.7170 C   0  0  0  0  0  0  0  0  0  0  0  0
  127.4180  127.0220   60.6620 C   0  0  0  0  0  0  0  0  0  0  0  0
  128.0720  127.8760   59.7590 C   0  0  0  0  0  0  0  0  0  0  0  0
  127.4040  128.4720   58.6880 N   0  0  0  0  0  0  0  0  0  0  0  0
  125.9290  128.4160   58.6420 C   0  0  0  0  0  0  0  0  0  0  0  0
  125.3120  129.4230   57.6480 C   0  0  0  0  0  0  0  0  0  0  0  0
  125.8680  129.2330   56.3550 O   0  0  0  0  0  0  0  0  0  0  0  0
  127.2760  129.4210   56.3560 C   0  0  0  0  0  0  0  0  0  0  0  0
  127.9400  128.4100   57.3150 C   0  0  0  0  0  0  0  0  0  0  0  0
  129.4440  128.1040   59.9410 C   0  0  0  0  0  0  0  0  0  0  0  0
  130.1350  127.5130   60.9950 C   0  0  0  0  0  0  0  0  0  0  0  0
  131.1850  125.0280   62.8700 C   0  0  0  0  0  0  0  0  0  0  0  0
  131.7490  124.3710   61.7190 C   0  0  0  0  0  0  0  0  0  0  0  0
  131.4090  124.7010   60.4320 N   0  0  0  0  0  0  0  0  0  0  0  0
  134.7257  124.5364   60.3406 H   0  0  0  0  0  0  0  0  0  0  0  0
  135.1591  123.6424   58.8440 H   0  0  0  0  0  0  0  0  0  0  0  0
  133.7596  124.7686   58.8440 H   0  0  0  0  0  0  0  0  0  0  0  0
  128.3789  125.4915   66.9312 H   0  0  0  0  0  0  0  0  0  0  0  0
  127.9090  126.2829   69.2296 H   0  0  0  0  0  0  0  0  0  0  0  0
  127.4591  127.5560   70.7667 H   0  0  0  0  0  0  0  0  0  0  0  0
  128.4062  126.3880   71.8091 H   0  0  0  0  0  0  0  0  0  0  0  0
  127.8600  129.3325   72.4084 H   0  0  0  0  0  0  0  0  0  0  0  0
  127.1425  127.9035   73.2357 H   0  0  0  0  0  0  0  0  0  0  0  0
  130.1555  129.7745   72.6657 H   0  0  0  0  0  0  0  0  0  0  0  0
  131.1533  128.6728   73.6834 H   0  0  0  0  0  0  0  0  0  0  0  0
  131.5190  128.3438   71.2169 H   0  0  0  0  0  0  0  0  0  0  0  0
  130.8759  126.8646   72.0798 H   0  0  0  0  0  0  0  0  0  0  0  0
  131.7449  128.2632   69.3290 H   0  0  0  0  0  0  0  0  0  0  0  0
  132.2067  127.4811   67.0268 H   0  0  0  0  0  0  0  0  0  0  0  0
  129.2173  127.3179   64.4749 H   0  0  0  0  0  0  0  0  0  0  0  0
  127.5770  125.7755   62.4205 H   0  0  0  0  0  0  0  0  0  0  0  0
  126.3450  126.8163   60.5344 H   0  0  0  0  0  0  0  0  0  0  0  0
  125.6270  127.4011   58.3440 H   0  0  0  0  0  0  0  0  0  0  0  0
  125.5609  128.6796   59.6445 H   0  0  0  0  0  0  0  0  0  0  0  0
  124.2237  129.2695   57.6026 H   0  0  0  0  0  0  0  0  0  0  0  0
  125.5310  130.4459   57.9881 H   0  0  0  0  0  0  0  0  0  0  0  0
  127.6651  129.2684   55.3385 H   0  0  0  0  0  0  0  0  0  0  0  0
  127.5048  130.4431   56.6920 H   0  0  0  0  0  0  0  0  0  0  0  0
  127.7766  127.3959   56.9215 H   0  0  0  0  0  0  0  0  0  0  0  0
  129.0086  128.6652   57.3698 H   0  0  0  0  0  0  0  0  0  0  0  0
  129.9819  128.7596   59.2404 H   0  0  0  0  0  0  0  0  0  0  0  0
  131.2087  127.7138   61.1247 H   0  0  0  0  0  0  0  0  0  0  0  0
  132.0250  124.5140   59.6550 H   0  0  0  0  0  0  0  0  0  0  0  0
  130.5250  125.1410   60.2170 H   0  0  0  0  0  0  0  0  0  0  0  0
  1  2  1  0
  2  3  1  0
  3  4  2  0
  3  5  1  0
  5  6  1  0
  6  7  1  0
  7  8  2  0
  8  9  1  0
  9 10  1  0
 10 11  2  0
 11 12  1  0
 12 13  2  0
 13 14  1  0
 14 15  1  0
 15 16  1  0
 16 17  1  0
 17 18  1  0
 18 19  1  0
 13 20  1  0
 20 21  2  0
  9 22  2  0
 22 23  1  0
 23 24  1  0
 24 25  2  0
 25 26  1  0
 26 27  2  0
 27 28  1  0
 28 29  1  0
 29 30  1  0
 30 31  1  0
 31 32  1  0
 32 33  1  0
 27 34  1  0
 34 35  2  0
 23 36  2  0
 36 37  1  0
 37 38  1  0
 37  5  2  0
 36  7  1  0
 21 10  1  0
 35 24  1  0
 19 14  1  0
 33 28  1  0
  1 39  1  0
  1 40  1  0
  1 41  1  0
 11 42  1  0
 12 43  1  0
 15 44  1  0
 15 45  1  0
 16 46  1  0
 16 47  1  0
 18 48  1  0
 18 49  1  0
 19 50  1  0
 19 51  1  0
 20 52  1  0
 21 53  1  0
 22 54  1  0
 25 55  1  0
 26 56  1  0
 29 57  1  0
 29 58  1  0
 30 59  1  0
 30 60  1  0
 32 61  1  0
 32 62  1  0
 33 63  1  0
 33 64  1  0
 34 65  1  0
 35 66  1  0
 38 67  1  0
 38 68  1  0
M  END
>  <Binding energies>  (1) 
[-5.62]

>  <Ligand effiencies>  (1) 
[-0.1405]

>  <Interactions>  (1) 
["V-A:GLY:454:CA:4046, V-A:ILE:369:CG2:3234, V-A:ILE:369:CD1:3236, H-A:TYR:484:OH:4345, V-A:ASP:366:CG:3210, V-A:LEU:475:CD2:4256, V-B:ASP:366:CG:8184, V-B:ASP:366:CB:8183, H-B:TYR:531:OH:9767, H-A:TYR:539:OH:4876, V-B:GLU:543:CD:9880, V-B:GLU:543:CG:9879, V-B:GLU:543:CB:9878, V-A:HIS:456:CE1:4066, V-A:ASP:366:CA:3207, V-A:ASP:366:CB:3209, V-B:HIS:456:CE1:9040, V-A:GLU:543:CD:4906, V-A:GLU:543:CG:4905, V-B:GLU:543:C:9874, V-B:HIS:456:CD2:9039, V-A:GLU:543:C:4900, V-A:LYS:547:CE:4948, V-A:GLY:544:C:4910, V-B:GLY:544:C:9884, H-A:LYS:547:NZ:4949, V-B:HIS:456:CG:9037, V-A:GLY:544:CA:4912, V-A:ILE:369:CB:3233, H-A:ASP:366:OD1:3211, V-A:MET:535:CE:4833, V-A:ILE:369:CG1:3235, V-A:ARG:545:CG:4920"]

$$$$
RR10_Rahimova_2017
     RDKit          3D

 66 70  0  0  0  0  0  0  0  0999 V2000
  132.0780  132.7150   56.7150 C   0  0  0  0  0  0  0  0  0  0  0  0
  131.3240  132.1940   57.9510 C   0  0  1  0  0  0  0  0  0  0  0  0
  130.1760  131.2340   57.5640 C   0  0  0  0  0  0  0  0  0  0  0  0
  129.4110  130.7510   58.8180 C   0  0  0  0  0  0  0  0  0  0  0  0
  130.3440  130.0440   59.8350 C   0  0  1  0  0  0  0  0  0  0  0  0
  130.8280  128.7660   59.2960 N   0  0  0  0  0  0  0  0  0  0  0  0
  130.2150  127.5760   59.4410 C   0  0  0  0  0  0  0  0  0  0  0  0
  129.1450  127.4410   60.0390 O   0  0  0  0  0  0  0  0  0  0  0  0
  130.9240  126.3510   58.8280 C   0  0  1  0  0  0  0  0  0  0  0  0
  131.6880  126.7850   57.5490 C   0  0  0  0  0  0  0  0  0  0  0  0
  132.4760  125.5790   56.9830 C   0  0  0  0  0  0  0  0  0  0  0  0
  133.3680  124.9020   58.0490 C   0  0  0  0  0  0  0  0  0  0  0  0
  132.5770  124.5760   59.2660 N   0  0  0  0  0  0  0  0  0  0  0  0
  133.4160  123.5350   60.4290 S   0  0  0  0  0  0  0  0  0  0  0  0
  134.7440  124.1090   60.6800 O   0  0  0  0  0  0  0  0  0  0  0  0
  133.2850  122.1470   59.9680 O   0  0  0  0  0  0  0  0  0  0  0  0
  132.4880  123.6990   61.9550 C   0  0  0  0  0  0  0  0  0  0  0  0
  131.5920  122.6900   62.3230 C   0  0  0  0  0  0  0  0  0  0  0  0
  130.8370  122.7590   63.4970 C   0  0  0  0  0  0  0  0  0  0  0  0
  131.0230  123.8910   64.2940 C   0  0  0  0  0  0  0  0  0  0  0  0
  130.4820  124.3180   65.4830 N   0  0  0  0  0  0  0  0  0  0  0  0
  131.0520  125.5350   65.7960 C   0  0  0  0  0  0  0  0  0  0  0  0
  130.7040  126.3240   67.0260 C   0  0  0  0  0  0  0  0  0  0  0  0
  131.6070  127.2610   67.5470 C   0  0  0  0  0  0  0  0  0  0  0  0
  131.2840  127.9950   68.6850 C   0  0  0  0  0  0  0  0  0  0  0  0
  130.0550  127.7960   69.3090 C   0  0  0  0  0  0  0  0  0  0  0  0
  129.1470  126.8700   68.8040 C   0  0  0  0  0  0  0  0  0  0  0  0
  129.4710  126.1350   67.6660 C   0  0  0  0  0  0  0  0  0  0  0  0
  131.9280  125.9150   64.8920 N   0  0  0  0  0  0  0  0  0  0  0  0
  131.9300  124.9220   63.9490 C   0  0  0  0  0  0  0  0  0  0  0  0
  132.6760  124.8240   62.7660 C   0  0  0  0  0  0  0  0  0  0  0  0
  131.9040  125.7550   59.8680 C   0  0  0  0  0  0  0  0  0  0  0  0
  131.5010  131.0130   60.2010 C   0  0  0  0  0  0  0  0  0  0  0  0
  132.2730  131.4910   58.9500 C   0  0  0  0  0  0  0  0  0  0  0  0
  132.9430  133.3127   57.0382 H   0  0  0  0  0  0  0  0  0  0  0  0
  132.4256  131.8635   56.1116 H   0  0  0  0  0  0  0  0  0  0  0  0
  131.4044  133.3413   56.1116 H   0  0  0  0  0  0  0  0  0  0  0  0
  130.8908  133.0787   58.4406 H   0  0  0  0  0  0  0  0  0  0  0  0
  129.4772  131.7595   56.8966 H   0  0  0  0  0  0  0  0  0  0  0  0
  130.6074  130.3579   57.0576 H   0  0  0  0  0  0  0  0  0  0  0  0
  128.9473  131.6203   59.3071 H   0  0  0  0  0  0  0  0  0  0  0  0
  128.6524  130.0240   58.4925 H   0  0  0  0  0  0  0  0  0  0  0  0
  129.7918  129.7988   60.7542 H   0  0  0  0  0  0  0  0  0  0  0  0
  131.7500  128.7810   58.8870 H   0  0  0  0  0  0  0  0  0  0  0  0
  130.1835  125.5846   58.5556 H   0  0  0  0  0  0  0  0  0  0  0  0
  130.9693  127.1394   56.7954 H   0  0  0  0  0  0  0  0  0  0  0  0
  132.3885  127.5956   57.7983 H   0  0  0  0  0  0  0  0  0  0  0  0
  131.7593  124.8376   56.6002 H   0  0  0  0  0  0  0  0  0  0  0  0
  133.1343  125.9542   56.1856 H   0  0  0  0  0  0  0  0  0  0  0  0
  133.7882  123.9748   57.6323 H   0  0  0  0  0  0  0  0  0  0  0  0
  134.1753  125.5955   58.3270 H   0  0  0  0  0  0  0  0  0  0  0  0
  131.4780  121.8141   61.6674 H   0  0  0  0  0  0  0  0  0  0  0  0
  130.1324  121.9627   63.7790 H   0  0  0  0  0  0  0  0  0  0  0  0
  129.7870  123.8660   66.0590 H   0  0  0  0  0  0  0  0  0  0  0  0
  132.5775  127.4174   67.0533 H   0  0  0  0  0  0  0  0  0  0  0  0
  131.9965  128.7290   69.0895 H   0  0  0  0  0  0  0  0  0  0  0  0
  129.7998  128.3755   70.2085 H   0  0  0  0  0  0  0  0  0  0  0  0
  128.1776  126.7192   69.3014 H   0  0  0  0  0  0  0  0  0  0  0  0
  128.7549  125.4016   67.2669 H   0  0  0  0  0  0  0  0  0  0  0  0
  133.3905  125.6109   62.4826 H   0  0  0  0  0  0  0  0  0  0  0  0
  131.3484  125.4459   60.7656 H   0  0  0  0  0  0  0  0  0  0  0  0
  132.6524  126.5090   60.1533 H   0  0  0  0  0  0  0  0  0  0  0  0
  131.0808  131.8897   60.7156 H   0  0  0  0  0  0  0  0  0  0  0  0
  132.2058  130.4715   60.8491 H   0  0  0  0  0  0  0  0  0  0  0  0
  133.0578  132.1971   59.2591 H   0  0  0  0  0  0  0  0  0  0  0  0
  132.7176  130.6149   58.4553 H   0  0  0  0  0  0  0  0  0  0  0  0
  1  2  1  0
  2  3  1  0
  3  4  1  0
  4  5  1  0
  5  6  1  0
  6  7  1  0
  7  8  2  0
  7  9  1  0
  9 10  1  0
 10 11  1  0
 11 12  1  0
 12 13  1  0
 13 14  1  0
 14 15  2  0
 14 16  2  0
 14 17  1  0
 17 18  2  0
 18 19  1  0
 19 20  2  0
 20 21  1  0
 21 22  1  0
 22 23  1  0
 23 24  2  0
 24 25  1  0
 25 26  2  0
 26 27  1  0
 27 28  2  0
 22 29  2  0
 29 30  1  0
 30 31  2  0
 13 32  1  0
  5 33  1  0
 33 34  1  0
 34  2  1  0
 32  9  1  0
 31 17  1  0
 30 20  1  0
 28 23  1  0
  1 35  1  0
  1 36  1  0
  1 37  1  0
  2 38  1  1
  3 39  1  0
  3 40  1  0
  4 41  1  0
  4 42  1  0
  5 43  1  1
  6 44  1  0
  9 45  1  6
 10 46  1  0
 10 47  1  0
 11 48  1  0
 11 49  1  0
 12 50  1  0
 12 51  1  0
 18 52  1  0
 19 53  1  0
 21 54  1  0
 24 55  1  0
 25 56  1  0
 26 57  1  0
 27 58  1  0
 28 59  1  0
 31 60  1  0
 32 61  1  0
 32 62  1  0
 33 63  1  0
 33 64  1  0
 34 65  1  0
 34 66  1  0
M  END
>  <Binding energies>  (1) 
[-8.95]

>  <Ligand effiencies>  (1) 
[-0.2486111111111111]

>  <Interactions>  (1) 
["V-A:PRO:540:CA:4881, H-A:ARG:545:NE:4922, V-A:ILE:538:CB:4860, V-B:ALA:541:CB:9864, V-A:ILE:369:CG2:3234, V-A:PRO:540:CD:4885, V-A:ILE:538:CG2:4861, V-A:PRO:540:CB:4883, V-A:ILE:369:CD1:3236, H-A:TYR:484:OH:4345, V-A:PRO:540:N:4882, V-A:ASP:366:CG:3210, V-A:LEU:475:CD2:4256, V-A:LEU:363:CD1:3186, H-A:ARG:545:NH2:4926, V-B:GLU:543:CD:9880, V-B:GLU:543:CG:9879, V-B:GLU:543:CB:9878, V-A:HIS:456:CE1:4066, V-A:ASP:366:CA:3207, V-A:ASP:366:CB:3209, H-B:GLU:543:OE1:9881, V-A:GLU:543:CB:4904, V-A:GLU:543:CD:4906, V-A:GLU:543:CG:4905, V-B:GLU:543:C:9874, V-A:GLU:543:C:4900, V-A:GLY:544:C:4910, H-A:TYR:531:OH:4793, V-A:TYR:531:CZ:4792, V-A:TYR:539:C:4865, H-A:ASP:366:OD2:3212, V-A:ASP:366:C:3205, H-A:ASP:366:OD1:3211, V-A:TYR:484:CZ:4344, V-A:TYR:484:CE2:4343, V-A:ARG:545:CG:4920, V-A:ARG:545:CD:4921"]

$$$$
RR11_Rahimova_2017
     RDKit          3D

 55 60  0  0  0  0  0  0  0  0999 V2000
  134.5650  124.0720   57.7490 N   0  0  0  0  0  0  0  0  0  0  0  0
  133.4090  124.8290   57.9250 C   0  0  0  0  0  0  0  0  0  0  0  0
  132.7930  125.4220   56.8240 C   0  0  0  0  0  0  0  0  0  0  0  0
  131.6370  126.1760   57.0010 C   0  0  0  0  0  0  0  0  0  0  0  0
  131.0850  126.3450   58.2770 C   0  0  0  0  0  0  0  0  0  0  0  0
  129.8360  127.1530   58.4650 C   0  0  0  0  0  0  0  0  0  0  0  0
  129.6540  128.0270   59.4320 N   0  0  0  0  0  0  0  0  0  0  0  0
  128.4000  128.5390   59.2250 C   0  0  0  0  0  0  0  0  0  0  0  0
  127.7080  129.5120   59.9600 C   0  0  0  0  0  0  0  0  0  0  0  0
  126.4280  129.8850   59.5320 C   0  0  0  0  0  0  0  0  0  0  0  0
  125.6510  130.9350   60.3140 C   0  0  0  0  0  0  0  0  0  0  0  0
  125.6580  130.6840   61.8150 C   0  0  0  0  0  0  0  0  0  0  0  0
  124.6830  131.2860   62.6190 C   0  0  0  0  0  0  0  0  0  0  0  0
  124.6430  131.0790   64.0000 C   0  0  0  0  0  0  0  0  0  0  0  0
  125.6090  130.2390   64.5700 C   0  0  0  0  0  0  0  0  0  0  0  0
  125.7870  129.8850   65.8820 N   0  0  0  0  0  0  0  0  0  0  0  0
  126.8300  129.0840   65.8880 C   0  0  0  0  0  0  0  0  0  0  0  0
  127.4110  128.4560   67.1220 C   0  0  0  0  0  0  0  0  0  0  0  0
  128.7110  128.7720   67.5360 C   0  0  0  0  0  0  0  0  0  0  0  0
  129.2540  128.1820   68.6750 C   0  0  0  0  0  0  0  0  0  0  0  0
  128.4990  127.2690   69.4070 C   0  0  0  0  0  0  0  0  0  0  0  0
  129.0430  126.6730   70.5450 N   0  0  0  0  0  0  0  0  0  0  0  0
  127.2040  126.9480   69.0100 C   0  0  0  0  0  0  0  0  0  0  0  0
  126.6620  127.5390   67.8720 C   0  0  0  0  0  0  0  0  0  0  0  0
  127.3420  128.8930   64.6220 N   0  0  0  0  0  0  0  0  0  0  0  0
  126.5800  129.6260   63.7430 C   0  0  0  0  0  0  0  0  0  0  0  0
  126.6230  129.8250   62.3600 C   0  0  0  0  0  0  0  0  0  0  0  0
  125.8460  129.2790   58.4130 C   0  0  0  0  0  0  0  0  0  0  0  0
  126.5070  128.3030   57.6630 C   0  0  0  0  0  0  0  0  0  0  0  0
  127.7900  127.9530   58.0910 C   0  0  0  0  0  0  0  0  0  0  0  0
  128.7380  127.0690   57.6330 N   0  0  0  0  0  0  0  0  0  0  0  0
  131.7150  125.7450   59.3760 C   0  0  0  0  0  0  0  0  0  0  0  0
  132.8720  124.9890   59.2020 C   0  0  0  0  0  0  0  0  0  0  0  0
  135.0010  124.0340   56.8390 H   0  0  0  0  0  0  0  0  0  0  0  0
  134.9760  123.6020   58.5430 H   0  0  0  0  0  0  0  0  0  0  0  0
  133.2196  125.2942   55.8182 H   0  0  0  0  0  0  0  0  0  0  0  0
  131.1525  126.6434   56.1311 H   0  0  0  0  0  0  0  0  0  0  0  0
  128.1598  129.9714   60.8515 H   0  0  0  0  0  0  0  0  0  0  0  0
  126.1011  131.9200   60.1212 H   0  0  0  0  0  0  0  0  0  0  0  0
  124.6048  130.8888   59.9774 H   0  0  0  0  0  0  0  0  0  0  0  0
  123.9300  131.9379   62.1521 H   0  0  0  0  0  0  0  0  0  0  0  0
  123.8750  131.5617   64.6223 H   0  0  0  0  0  0  0  0  0  0  0  0
  129.3081  129.4919   66.9571 H   0  0  0  0  0  0  0  0  0  0  0  0
  130.2752  128.4363   68.9951 H   0  0  0  0  0  0  0  0  0  0  0  0
  129.8720  127.0680   70.9650 H   0  0  0  0  0  0  0  0  0  0  0  0
  128.5810  125.8740   70.9560 H   0  0  0  0  0  0  0  0  0  0  0  0
  126.6104  126.2292   69.5940 H   0  0  0  0  0  0  0  0  0  0  0  0
  125.6386  127.2845   67.5592 H   0  0  0  0  0  0  0  0  0  0  0  0
  128.1430  128.3110   64.4290 H   0  0  0  0  0  0  0  0  0  0  0  0
  127.3775  129.3315   61.7297 H   0  0  0  0  0  0  0  0  0  0  0  0
  124.8319  129.5819   58.1132 H   0  0  0  0  0  0  0  0  0  0  0  0
  126.0421  127.8352   56.7826 H   0  0  0  0  0  0  0  0  0  0  0  0
  128.6920  126.4510   56.8360 H   0  0  0  0  0  0  0  0  0  0  0  0
  131.2925  125.8721   60.3836 H   0  0  0  0  0  0  0  0  0  0  0  0
  133.3603  124.5199   60.0689 H   0  0  0  0  0  0  0  0  0  0  0  0
  1  2  1  0
  2  3  2  0
  3  4  1  0
  4  5  2  0
  5  6  1  0
  6  7  2  0
  7  8  1  0
  8  9  2  0
  9 10  1  0
 10 11  1  0
 11 12  1  0
 12 13  2  0
 13 14  1  0
 14 15  2  0
 15 16  1  0
 16 17  2  0
 17 18  1  0
 18 19  2  0
 19 20  1  0
 20 21  2  0
 21 22  1  0
 21 23  1  0
 23 24  2  0
 17 25  1  0
 25 26  1  0
 26 27  2  0
 10 28  2  0
 28 29  1  0
 29 30  2  0
 30 31  1  0
  5 32  1  0
 32 33  2  0
 33  2  1  0
 31  6  1  0
 30  8  1  0
 27 12  1  0
 26 15  1  0
 24 18  1  0
  1 34  1  0
  1 35  1  0
  3 36  1  0
  4 37  1  0
  9 38  1  0
 11 39  1  0
 11 40  1  0
 13 41  1  0
 14 42  1  0
 19 43  1  0
 20 44  1  0
 22 45  1  0
 22 46  1  0
 23 47  1  0
 24 48  1  0
 25 49  1  0
 27 50  1  0
 28 51  1  0
 29 52  1  0
 31 53  1  0
 32 54  1  0
 33 55  1  0
M  END
>  <Binding energies>  (1) 
[-6.24]

>  <Ligand effiencies>  (1) 
[-0.16]

>  <Interactions>  (1) 
["V-A:ILE:369:CG2:3234, V-B:GLY:453:C:9013, V-A:ASP:366:CG:3210, V-A:TYR:539:CE1:4873, V-B:ASP:366:CG:8184, H-B:TYR:484:OH:9319, V-B:ASP:366:CB:8183, V-B:GLU:543:CD:9880, V-B:GLU:543:CG:9879, H-A:GLU:543:OE2:4908, V-B:GLU:543:CB:9878, V-A:HIS:456:CE1:4066, V-A:ASP:366:CA:3207, V-A:ASP:366:CB:3209, H-A:GLU:543:OE1:4907, V-B:TYR:539:CZ:9849, H-B:GLU:543:OE2:9882, V-B:HIS:456:CE1:9040, V-A:GLU:543:CB:4904, V-A:GLU:543:CD:4906, V-A:GLU:543:CG:4905, V-B:GLU:543:C:9874, V-A:GLU:543:C:4900, V-B:GLY:544:C:9884, V-A:HIS:456:CD2:4065, V-B:GLY:454:CA:9020, V-A:TYR:531:CZ:4792, V-A:TYR:531:CE1:4790, H-B:TYR:539:OH:9850, V-A:ILE:369:CB:3233, V-A:ASP:366:C:3205, H-A:ASP:366:O:3206, V-B:ARG:545:CG:9894, H-B:GLU:543:O:9875, V-A:ILE:369:CA:3231, V-A:ASN:370:CB:3242, V-A:ILE:369:C:3229, H-A:GLU:543:O:4901"]

$$$$
RR11_Rahimova_2017-again1
     RDKit          3D

 56 61  0  0  0  0  0  0  0  0999 V2000
  134.6040  124.0310   57.7660 N   0  0  0  0  0  0  0  0  0  0  0  0
  133.4640  124.8160   57.9330 C   0  0  0  0  0  0  0  0  0  0  0  0
  132.8900  124.9470   59.1960 C   0  0  0  0  0  0  0  0  0  0  0  0
  131.7490  125.7290   59.3610 C   0  0  0  0  0  0  0  0  0  0  0  0
  131.1730  126.3850   58.2650 C   0  0  0  0  0  0  0  0  0  0  0  0
  129.9390  127.2200   58.4420 C   0  0  0  0  0  0  0  0  0  0  0  0
  129.0000  127.3600   57.5320 N   0  0  0  0  0  0  0  0  0  0  0  0
  128.0810  128.2110   58.0870 C   0  0  0  0  0  0  0  0  0  0  0  0
  126.8840  128.7010   57.5470 C   0  0  0  0  0  0  0  0  0  0  0  0
  126.1230  129.5780   58.3200 C   0  0  0  0  0  0  0  0  0  0  0  0
  126.5310  129.9700   59.6000 C   0  0  0  0  0  0  0  0  0  0  0  0
  125.6650  130.9330   60.3990 C   0  0  0  0  0  0  0  0  0  0  0  0
  125.9750  130.9030   61.8890 C   0  0  0  0  0  0  0  0  0  0  0  0
  125.8130  132.0650   62.6530 C   0  0  0  0  0  0  0  0  0  0  0  0
  126.0830  132.0990   64.0230 C   0  0  0  0  0  0  0  0  0  0  0  0
  126.5240  130.9060   64.6040 C   0  0  0  0  0  0  0  0  0  0  0  0
  126.8870  130.5900   65.9060 N   0  0  0  0  0  0  0  0  0  0  0  0
  127.2610  129.2680   65.9840 C   0  0  0  0  0  0  0  0  0  0  0  0
  127.7360  128.5390   67.1990 C   0  0  0  0  0  0  0  0  0  0  0  0
  129.0340  128.7490   67.6820 C   0  0  0  0  0  0  0  0  0  0  0  0
  129.4790  128.0790   68.8180 C   0  0  0  0  0  0  0  0  0  0  0  0
  128.6270  127.1940   69.4770 C   0  0  0  0  0  0  0  0  0  0  0  0
  129.0720  126.5270   70.6180 N   0  0  0  0  0  0  0  0  0  0  0  0
  127.3340  126.9760   69.0040 C   0  0  0  0  0  0  0  0  0  0  0  0
  126.8900  127.6460   67.8680 C   0  0  0  0  0  0  0  0  0  0  0  0
  127.1220  128.7500   64.7170 N   0  0  0  0  0  0  0  0  0  0  0  0
  126.6740  129.7330   63.8460 C   0  0  0  0  0  0  0  0  0  0  0  0
  126.3960  129.7030   62.4770 C   0  0  0  0  0  0  0  0  0  0  0  0
  127.7110  129.4750   60.1720 C   0  0  0  0  0  0  0  0  0  0  0  0
  128.4720  128.6040   59.3900 C   0  0  0  0  0  0  0  0  0  0  0  0
  129.6630  127.9440   59.5830 N   0  0  0  0  0  0  0  0  0  0  0  0
  131.7620  126.2450   57.0010 C   0  0  0  0  0  0  0  0  0  0  0  0
  132.9030  125.4640   56.8350 C   0  0  0  0  0  0  0  0  0  0  0  0
  134.9740  123.8850   56.8390 H   0  0  0  0  0  0  0  0  0  0  0  0
  135.0220  123.5850   58.5710 H   0  0  0  0  0  0  0  0  0  0  0  0
  133.3367  124.4342   60.0606 H   0  0  0  0  0  0  0  0  0  0  0  0
  131.2971  125.8322   60.3586 H   0  0  0  0  0  0  0  0  0  0  0  0
  126.5537  128.4022   56.5412 H   0  0  0  0  0  0  0  0  0  0  0  0
  125.1794  129.9710   57.9136 H   0  0  0  0  0  0  0  0  0  0  0  0
  125.8353  131.9532   60.0245 H   0  0  0  0  0  0  0  0  0  0  0  0
  124.6175  130.6226   60.2710 H   0  0  0  0  0  0  0  0  0  0  0  0
  125.4613  132.9820   62.1577 H   0  0  0  0  0  0  0  0  0  0  0  0
  125.9552  133.0174   64.6147 H   0  0  0  0  0  0  0  0  0  0  0  0
  126.8990  131.2040   66.7070 H   0  0  0  0  0  0  0  0  0  0  0  0
  129.7053  129.4472   67.1607 H   0  0  0  0  0  0  0  0  0  0  0  0
  130.4989  128.2472   69.1943 H   0  0  0  0  0  0  0  0  0  0  0  0
  129.9870  126.7370   70.9930 H   0  0  0  0  0  0  0  0  0  0  0  0
  128.4890  125.8200   71.0400 H   0  0  0  0  0  0  0  0  0  0  0  0
  126.6662  126.2760   69.5275 H   0  0  0  0  0  0  0  0  0  0  0  0
  125.8701  127.4734   67.4940 H   0  0  0  0  0  0  0  0  0  0  0  0
  127.3340  127.7870   64.5020 H   0  0  0  0  0  0  0  0  0  0  0  0
  126.5027  128.7800   61.8882 H   0  0  0  0  0  0  0  0  0  0  0  0
  128.0225  129.7591   61.1880 H   0  0  0  0  0  0  0  0  0  0  0  0
  130.2700  127.9600   60.3900 H   0  0  0  0  0  0  0  0  0  0  0  0
  131.3196  126.7560   56.1332 H   0  0  0  0  0  0  0  0  0  0  0  0
  133.3598  125.3592   55.8398 H   0  0  0  0  0  0  0  0  0  0  0  0
  1  2  1  0
  2  3  2  0
  3  4  1  0
  4  5  2  0
  5  6  1  0
  6  7  2  0
  7  8  1  0
  8  9  2  0
  9 10  1  0
 10 11  2  0
 11 12  1  0
 12 13  1  0
 13 14  2  0
 14 15  1  0
 15 16  2  0
 16 17  1  0
 17 18  1  0
 18 19  1  0
 19 20  2  0
 20 21  1  0
 21 22  2  0
 22 23  1  0
 22 24  1  0
 24 25  2  0
 18 26  2  0
 26 27  1  0
 27 28  2  0
 11 29  1  0
 29 30  2  0
 30 31  1  0
  5 32  1  0
 32 33  2  0
 33  2  1  0
 31  6  1  0
 30  8  1  0
 28 13  1  0
 27 16  1  0
 25 19  1  0
  1 34  1  0
  1 35  1  0
  3 36  1  0
  4 37  1  0
  9 38  1  0
 10 39  1  0
 12 40  1  0
 12 41  1  0
 14 42  1  0
 15 43  1  0
 17 44  1  0
 20 45  1  0
 21 46  1  0
 23 47  1  0
 23 48  1  0
 24 49  1  0
 25 50  1  0
 26 51  1  0
 28 52  1  0
 29 53  1  0
 31 54  1  0
 32 55  1  0
 33 56  1  0
M  CHG  1  26   1
M  END
>  <Binding energies>  (1) 
[-7.63]

>  <Ligand effiencies>  (1) 
[-0.19075]

>  <Interactions>  (1) 
["V-A:ILE:369:CG2:3234, V-A:ASP:366:CG:3210, V-A:TYR:539:CE1:4873, H-B:TYR:484:OH:9319, V-B:LEU:475:CD2:9230, V-B:GLU:543:CD:9880, V-B:GLU:543:CG:9879, V-A:HIS:456:CE1:4066, V-A:ASP:366:CA:3207, V-A:ASP:366:CB:3209, H-B:GLU:543:OE1:9881, V-B:TYR:539:CZ:9849, H-B:GLU:543:OE2:9882, V-B:HIS:456:CE1:9040, V-A:GLU:543:CB:4904, V-A:GLU:543:CD:4906, V-A:GLU:543:CG:4905, V-B:GLU:543:C:9874, V-A:GLU:543:C:4900, V-B:GLY:544:C:9884, V-A:HIS:456:CD2:4065, V-A:TYR:531:CZ:4792, V-A:TYR:531:CE1:4790, H-B:TYR:539:OH:9850, H-A:ASP:366:OD2:3212, V-A:ILE:369:CB:3233, V-A:ASP:366:C:3205, V-B:TYR:484:CE2:9317, V-B:TYR:484:CZ:9318, H-A:ASP:366:O:3206, V-B:ARG:545:CG:9894, H-B:GLU:543:O:9875, V-A:ILE:369:CA:3231, V-A:ASN:370:CB:3242, V-A:ILE:369:C:3229"]

$$$$
RR11_Rahimova_2017-again2
     RDKit          3D

 57 62  0  0  0  0  0  0  0  0999 V2000
  134.7200  124.1150   57.8300 N   0  0  0  0  0  0  0  0  0  0  0  0
  133.5200  124.8060   57.9890 C   0  0  0  0  0  0  0  0  0  0  0  0
  132.9300  125.4330   56.8940 C   0  0  0  0  0  0  0  0  0  0  0  0
  131.7330  126.1270   57.0540 C   0  0  0  0  0  0  0  0  0  0  0  0
  131.1210  126.1980   58.3110 C   0  0  0  0  0  0  0  0  0  0  0  0
  129.8430  126.9520   58.4860 C   0  0  0  0  0  0  0  0  0  0  0  0
  129.5730  127.9060   59.4410 N   0  0  0  0  0  0  0  0  0  0  0  0
  128.2860  128.3970   59.2740 C   0  0  0  0  0  0  0  0  0  0  0  0
  127.5630  129.3690   59.9720 C   0  0  0  0  0  0  0  0  0  0  0  0
  126.2660  129.6430   59.5190 C   0  0  0  0  0  0  0  0  0  0  0  0
  125.4320  130.6950   60.2370 C   0  0  0  0  0  0  0  0  0  0  0  0
  125.5390  130.6000   61.7520 C   0  0  0  0  0  0  0  0  0  0  0  0
  124.8010  131.4800   62.5530 C   0  0  0  0  0  0  0  0  0  0  0  0
  124.8590  131.4410   63.9480 C   0  0  0  0  0  0  0  0  0  0  0  0
  125.6920  130.4720   64.5140 C   0  0  0  0  0  0  0  0  0  0  0  0
  125.9880  130.1670   65.8350 N   0  0  0  0  0  0  0  0  0  0  0  0
  126.8790  129.1190   65.8900 C   0  0  0  0  0  0  0  0  0  0  0  0
  127.4610  128.5000   67.1190 C   0  0  0  0  0  0  0  0  0  0  0  0
  126.7100  127.5940   67.8770 C   0  0  0  0  0  0  0  0  0  0  0  0
  127.2560  127.0080   69.0160 C   0  0  0  0  0  0  0  0  0  0  0  0
  128.5560  127.3270   69.4030 C   0  0  0  0  0  0  0  0  0  0  0  0
  129.1060  126.7360   70.5410 N   0  0  0  0  0  0  0  0  0  0  0  0
  129.3120  128.2310   68.6590 C   0  0  0  0  0  0  0  0  0  0  0  0
  128.7650  128.8150   67.5190 C   0  0  0  0  0  0  0  0  0  0  0  0
  127.1350  128.7600   64.5870 N   0  0  0  0  0  0  0  0  0  0  0  0
  126.4240  129.5770   63.7180 C   0  0  0  0  0  0  0  0  0  0  0  0
  126.3580  129.6160   62.3220 C   0  0  0  0  0  0  0  0  0  0  0  0
  125.7160  128.9500   58.4340 C   0  0  0  0  0  0  0  0  0  0  0  0
  126.4310  127.9730   57.7370 C   0  0  0  0  0  0  0  0  0  0  0  0
  127.7320  127.7150   58.1780 C   0  0  0  0  0  0  0  0  0  0  0  0
  128.7060  126.8380   57.7190 N   0  0  0  0  0  0  0  0  0  0  0  0
  131.7210  125.5600   59.4040 C   0  0  0  0  0  0  0  0  0  0  0  0
  132.9170  124.8660   59.2440 C   0  0  0  0  0  0  0  0  0  0  0  0
  135.2830  123.9030   58.6410 H   0  0  0  0  0  0  0  0  0  0  0  0
  135.0480  123.8930   56.9000 H   0  0  0  0  0  0  0  0  0  0  0  0
  133.4084  125.3802   55.9049 H   0  0  0  0  0  0  0  0  0  0  0  0
  131.2666  126.6213   56.1890 H   0  0  0  0  0  0  0  0  0  0  0  0
  130.2510  128.1810   60.1360 H   0  0  0  0  0  0  0  0  0  0  0  0
  127.9930  129.8946   60.8374 H   0  0  0  0  0  0  0  0  0  0  0  0
  125.7762  131.6912   59.9222 H   0  0  0  0  0  0  0  0  0  0  0  0
  124.3793  130.5229   59.9681 H   0  0  0  0  0  0  0  0  0  0  0  0
  124.1546  132.2262   62.0679 H   0  0  0  0  0  0  0  0  0  0  0  0
  124.2782  132.1380   64.5699 H   0  0  0  0  0  0  0  0  0  0  0  0
  125.6350  130.6190   66.6660 H   0  0  0  0  0  0  0  0  0  0  0  0
  125.6834  127.3437   67.5713 H   0  0  0  0  0  0  0  0  0  0  0  0
  126.6630  126.2956   69.6083 H   0  0  0  0  0  0  0  0  0  0  0  0
  129.9390  127.1290   70.9520 H   0  0  0  0  0  0  0  0  0  0  0  0
  128.7020  125.8840   70.9020 H   0  0  0  0  0  0  0  0  0  0  0  0
  130.3365  128.4823   68.9708 H   0  0  0  0  0  0  0  0  0  0  0  0
  129.3609  129.5276   66.9298 H   0  0  0  0  0  0  0  0  0  0  0  0
  127.7640  128.0080   64.3470 H   0  0  0  0  0  0  0  0  0  0  0  0
  126.9231  128.9067   61.6995 H   0  0  0  0  0  0  0  0  0  0  0  0
  124.6876  129.1823   58.1202 H   0  0  0  0  0  0  0  0  0  0  0  0
  125.9923  127.4340   56.8843 H   0  0  0  0  0  0  0  0  0  0  0  0
  128.6410  126.1980   56.9420 H   0  0  0  0  0  0  0  0  0  0  0  0
  131.2445  125.6076   60.3943 H   0  0  0  0  0  0  0  0  0  0  0  0
  133.3846  124.3666   60.1053 H   0  0  0  0  0  0  0  0  0  0  0  0
  1  2  1  0
  2  3  2  0
  3  4  1  0
  4  5  2  0
  5  6  1  0
  6  7  1  0
  7  8  1  0
  8  9  2  0
  9 10  1  0
 10 11  1  0
 11 12  1  0
 12 13  2  0
 13 14  1  0
 14 15  2  0
 15 16  1  0
 16 17  1  0
 17 18  1  0
 18 19  2  0
 19 20  1  0
 20 21  2  0
 21 22  1  0
 21 23  1  0
 23 24  2  0
 17 25  2  0
 25 26  1  0
 26 27  2  0
 10 28  2  0
 28 29  1  0
 29 30  2  0
 30 31  1  0
  5 32  1  0
 32 33  2  0
 33  2  1  0
 31  6  2  0
 30  8  1  0
 27 12  1  0
 26 15  1  0
 24 18  1  0
  1 34  1  0
  1 35  1  0
  3 36  1  0
  4 37  1  0
  7 38  1  0
  9 39  1  0
 11 40  1  0
 11 41  1  0
 13 42  1  0
 14 43  1  0
 16 44  1  0
 19 45  1  0
 20 46  1  0
 22 47  1  0
 22 48  1  0
 23 49  1  0
 24 50  1  0
 25 51  1  0
 27 52  1  0
 28 53  1  0
 29 54  1  0
 31 55  1  0
 32 56  1  0
 33 57  1  0
M  CHG  2  25   1  31   1
M  END
>  <Binding energies>  (1) 
[-7.77]

>  <Ligand effiencies>  (1) 
[-0.18951219512195122]

>  <Interactions>  (1) 
["V-A:ILE:369:CG2:3234, V-A:ASP:366:CG:3210, V-A:TYR:539:CE1:4873, V-B:ASP:366:CG:8184, H-B:TYR:484:OH:9319, V-B:ASP:366:CB:8183, V-B:GLU:543:CD:9880, V-B:GLU:543:CG:9879, H-A:GLU:543:OE2:4908, V-A:HIS:456:CE1:4066, V-A:ASP:366:CA:3207, V-A:ASP:366:CB:3209, H-B:GLU:543:OE1:9881, H-A:GLU:543:OE1:4907, V-B:TYR:539:CZ:9849, H-B:GLU:543:OE2:9882, V-B:HIS:456:CE1:9040, V-A:GLU:543:CB:4904, V-A:GLU:543:CD:4906, V-A:GLU:543:CG:4905, V-B:GLU:543:C:9874, V-A:GLU:543:C:4900, V-B:GLY:544:C:9884, V-A:HIS:456:CD2:4065, V-B:GLY:454:CA:9020, V-A:TYR:531:CZ:4792, V-A:TYR:531:CE1:4790, H-B:TYR:539:OH:9850, H-A:ASP:366:OD2:3212, V-A:ILE:369:CB:3233, V-A:ASP:366:C:3205, H-A:ASP:366:OD1:3211, V-B:TYR:484:CZ:9318, V-A:ILE:369:CG1:3235, H-A:ASP:366:O:3206, V-B:ARG:545:CG:9894, H-B:GLU:543:O:9875, V-A:ILE:369:CA:3231, V-A:ASN:370:CB:3242, V-A:ILE:369:C:3229, H-A:GLU:543:O:4901, H-A:CYS:365:O:3203"]

$$$$
RR12_Rahimova_2017
     RDKit          3D

 51 53  0  0  0  0  0  0  0  0999 V2000
  127.8910  126.4920   61.9470 C   0  0  0  0  0  0  0  0  0  0  0  0
  129.2130  125.7250   61.8030 C   0  0  0  0  0  0  0  0  0  0  0  0
  130.3950  126.4530   62.4690 C   0  0  0  0  0  0  0  0  0  0  0  0
  131.5980  125.6250   62.4360 N   0  0  0  0  0  0  0  0  0  0  0  0
  132.2930  125.1030   63.5150 C   0  0  0  0  0  0  0  0  0  0  0  0
  131.9210  125.3570   64.9660 C   0  0  0  0  0  0  0  0  0  0  0  0
  130.6310  124.6260   65.3780 C   0  0  0  0  0  0  0  0  0  0  0  0
  130.5980  123.1610   64.9020 C   0  0  0  0  0  0  0  0  0  0  0  0
  129.9660  122.9790   63.5960 N   0  0  0  0  0  0  0  0  0  0  0  0
  130.5110  122.3150   62.5600 C   0  0  0  0  0  0  0  0  0  0  0  0
  131.6240  121.7850   62.6080 O   0  0  0  0  0  0  0  0  0  0  0  0
  129.6540  122.2470   61.2900 C   0  0  0  0  0  0  0  0  0  0  0  0
  128.3660  122.8050   61.5540 O   0  0  0  0  0  0  0  0  0  0  0  0
  127.5150  123.0730   60.4980 C   0  0  0  0  0  0  0  0  0  0  0  0
  127.9910  122.7590   59.2230 C   0  0  0  0  0  0  0  0  0  0  0  0
  127.2050  122.9900   58.0980 C   0  0  0  0  0  0  0  0  0  0  0  0
  125.9330  123.5360   58.2460 C   0  0  0  0  0  0  0  0  0  0  0  0
  125.4430  123.8570   59.5100 C   0  0  0  0  0  0  0  0  0  0  0  0
  126.2310  123.6270   60.6350 C   0  0  0  0  0  0  0  0  0  0  0  0
  133.3230  124.3730   63.1660 N   0  0  0  0  0  0  0  0  0  0  0  0
  133.3110  124.3810   61.7990 C   0  0  0  0  0  0  0  0  0  0  0  0
  134.1870  123.7460   60.9040 C   0  0  0  0  0  0  0  0  0  0  0  0
  133.9570  123.9020   59.5370 C   0  0  0  0  0  0  0  0  0  0  0  0
  132.8900  124.6670   59.0650 C   0  0  0  0  0  0  0  0  0  0  0  0
  132.0020  125.3120   59.9280 C   0  0  0  0  0  0  0  0  0  0  0  0
  132.2340  125.1550   61.3010 C   0  0  0  0  0  0  0  0  0  0  0  0
  127.6594  126.6264   63.0139 H   0  0  0  0  0  0  0  0  0  0  0  0
  127.9839  127.4765   61.4651 H   0  0  0  0  0  0  0  0  0  0  0  0
  127.0825  125.9227   61.4651 H   0  0  0  0  0  0  0  0  0  0  0  0
  129.0994  124.7360   62.2710 H   0  0  0  0  0  0  0  0  0  0  0  0
  129.4350  125.6422   60.7288 H   0  0  0  0  0  0  0  0  0  0  0  0
  130.5890  127.3929   61.9314 H   0  0  0  0  0  0  0  0  0  0  0  0
  130.1368  126.6589   63.5183 H   0  0  0  0  0  0  0  0  0  0  0  0
  132.7441  125.0095   65.6076 H   0  0  0  0  0  0  0  0  0  0  0  0
  131.7464  126.4367   65.0832 H   0  0  0  0  0  0  0  0  0  0  0  0
  130.5534  124.6411   66.4752 H   0  0  0  0  0  0  0  0  0  0  0  0
  129.7877  125.1482   64.9025 H   0  0  0  0  0  0  0  0  0  0  0  0
  131.6327  122.7928   64.8409 H   0  0  0  0  0  0  0  0  0  0  0  0
  129.9942  122.6007   65.6310 H   0  0  0  0  0  0  0  0  0  0  0  0
  129.0480  123.3840   63.4830 H   0  0  0  0  0  0  0  0  0  0  0  0
  130.1431  122.8176   60.4867 H   0  0  0  0  0  0  0  0  0  0  0  0
  129.5422  121.1978   60.9790 H   0  0  0  0  0  0  0  0  0  0  0  0
  128.9953  122.3256   59.1071 H   0  0  0  0  0  0  0  0  0  0  0  0
  127.5870  122.7423   57.0966 H   0  0  0  0  0  0  0  0  0  0  0  0
  125.3097  123.7154   57.3576 H   0  0  0  0  0  0  0  0  0  0  0  0
  124.4378  124.2903   59.6190 H   0  0  0  0  0  0  0  0  0  0  0  0
  125.8469  123.8799   61.6343 H   0  0  0  0  0  0  0  0  0  0  0  0
  135.0307  123.1427   61.2704 H   0  0  0  0  0  0  0  0  0  0  0  0
  134.6298  123.4125   58.8174 H   0  0  0  0  0  0  0  0  0  0  0  0
  132.7438  124.7650   57.9792 H   0  0  0  0  0  0  0  0  0  0  0  0
  131.1624  125.9133   59.5491 H   0  0  0  0  0  0  0  0  0  0  0  0
  1  2  1  0
  2  3  1  0
  3  4  1  0
  4  5  1  0
  5  6  1  0
  6  7  1  0
  7  8  1  0
  8  9  1  0
  9 10  1  0
 10 11  2  0
 10 12  1  0
 12 13  1  0
 13 14  1  0
 14 15  2  0
 15 16  1  0
 16 17  2  0
 17 18  1  0
 18 19  2  0
  5 20  2  0
 20 21  1  0
 21 22  2  0
 22 23  1  0
 23 24  2  0
 24 25  1  0
 25 26  2  0
 26  4  1  0
 19 14  1  0
 26 21  1  0
  1 27  1  0
  1 28  1  0
  1 29  1  0
  2 30  1  0
  2 31  1  0
  3 32  1  0
  3 33  1  0
  6 34  1  0
  6 35  1  0
  7 36  1  0
  7 37  1  0
  8 38  1  0
  8 39  1  0
  9 40  1  0
 12 41  1  0
 12 42  1  0
 15 43  1  0
 16 44  1  0
 17 45  1  0
 18 46  1  0
 19 47  1  0
 22 48  1  0
 23 49  1  0
 24 50  1  0
 25 51  1  0
M  END
>  <Binding energies>  (1) 
[-5.81]

>  <Ligand effiencies>  (1) 
[-0.21518518518518517]

>  <Interactions>  (1) 
["V-A:ARG:545:CZ:4924, V-B:ALA:541:CB:9864, V-B:TYR:539:CE1:9847, V-A:ILE:369:CG2:3234, V-A:ILE:369:CD1:3236, H-A:GLY:454:N:4047, V-A:ASP:366:CG:3210, V-A:LEU:475:CD2:4256, V-B:PRO:540:CA:9855, V-B:PRO:540:CB:9857, V-B:TYR:539:CD1:9845, V-B:PRO:540:N:9856, V-B:TYR:539:C:9839, V-B:GLU:543:CD:9880, V-B:GLU:543:CB:9878, V-A:ASP:366:CA:3207, V-A:ASP:366:CB:3209, H-B:GLU:543:OE1:9881, H-B:ALA:541:N:9863, V-A:ILE:369:CB:3233, V-B:PRO:540:C:9853, V-A:TYR:484:CZ:4344, V-A:TYR:484:CE2:4343"]

$$$$
RR13_Rahimova_2017
     RDKit          3D

 84 90  0  0  0  0  0  0  0  0999 V2000
  132.9250  125.3430   64.1070 Cl  0  0  0  0  0  0  0  0  0  0  0  0
  131.6010  124.3770   63.5490 C   0  0  0  0  0  0  0  0  0  0  0  0
  131.1010  123.3990   64.4120 C   0  0  0  0  0  0  0  0  0  0  0  0
  130.0520  122.5750   64.0140 C   0  0  0  0  0  0  0  0  0  0  0  0
  129.4960  122.7220   62.7460 C   0  0  0  0  0  0  0  0  0  0  0  0
  129.9890  123.6960   61.8800 C   0  0  0  0  0  0  0  0  0  0  0  0
  131.0390  124.5450   62.2670 C   0  0  0  0  0  0  0  0  0  0  0  0
  131.5840  125.5990   61.2790 C   0  0  1  0  0  0  0  0  0  0  0  0
  132.2990  124.9290   60.0960 C   0  0  0  0  0  0  0  0  0  0  0  0
  132.1220  125.1940   58.8200 N   0  0  0  0  0  0  0  0  0  0  0  0
  132.9610  124.3240   58.1300 N   0  0  0  0  0  0  0  0  0  0  0  0
  133.6360  123.5110   59.0200 N   0  0  0  0  0  0  0  0  0  0  0  0
  133.1920  123.8870   60.2240 N   0  0  0  0  0  0  0  0  0  0  0  0
  133.7200  123.2650   61.4330 C   0  0  0  0  0  0  0  0  0  0  0  0
  134.2750  121.8640   61.1130 C   0  0  0  0  0  0  0  0  0  0  0  0
  133.1720  120.8240   60.9870 C   0  0  0  0  0  0  0  0  0  0  0  0
  131.8460  121.1790   61.2470 C   0  0  0  0  0  0  0  0  0  0  0  0
  130.8380  120.2240   61.1400 C   0  0  0  0  0  0  0  0  0  0  0  0
  131.1600  118.9180   60.7730 C   0  0  0  0  0  0  0  0  0  0  0  0
  132.4800  118.5590   60.5140 C   0  0  0  0  0  0  0  0  0  0  0  0
  133.4890  119.5130   60.6220 C   0  0  0  0  0  0  0  0  0  0  0  0
  130.5630  126.5810   60.8400 N   0  0  0  0  0  0  0  0  0  0  0  0
  131.0590  127.9580   61.0190 C   0  0  0  0  0  0  0  0  0  0  0  0
  130.0540  128.9820   60.4410 C   0  0  0  0  0  0  0  0  0  0  0  0
  128.7600  128.8890   61.1360 N   0  0  0  0  0  0  0  0  0  0  0  0
  127.7920  129.9090   60.6700 C   0  0  1  0  0  0  0  0  0  0  0  0
  126.5410  130.0930   61.5570 C   0  0  0  0  0  0  0  0  0  0  0  0
  126.6780  129.8140   62.9230 C   0  0  0  0  0  0  0  0  0  0  0  0
  125.6060  129.9690   63.8020 C   0  0  0  0  0  0  0  0  0  0  0  0
  124.3730  130.4030   63.3220 C   0  0  0  0  0  0  0  0  0  0  0  0
  124.2110  130.6690   61.9660 C   0  0  0  0  0  0  0  0  0  0  0  0
  125.2780  130.5130   61.0770 C   0  0  0  0  0  0  0  0  0  0  0  0
  124.9570  130.8040   59.4000 Cl  0  0  0  0  0  0  0  0  0  0  0  0
  128.4390  131.2660   60.3850 C   0  0  0  0  0  0  0  0  0  0  0  0
  129.0040  132.0430   61.2790 N   0  0  0  0  0  0  0  0  0  0  0  0
  129.4680  133.1540   60.5810 N   0  0  0  0  0  0  0  0  0  0  0  0
  129.1830  133.0210   59.2380 N   0  0  0  0  0  0  0  0  0  0  0  0
  128.5660  131.8380   59.1370 N   0  0  0  0  0  0  0  0  0  0  0  0
  128.0930  131.3700   57.8390 C   0  0  0  0  0  0  0  0  0  0  0  0
  128.9010  132.0260   56.7040 C   0  0  0  0  0  0  0  0  0  0  0  0
  130.4010  131.8740   56.9050 C   0  0  0  0  0  0  0  0  0  0  0  0
  131.2710  132.8620   56.4360 C   0  0  0  0  0  0  0  0  0  0  0  0
  132.6440  132.7270   56.6270 C   0  0  0  0  0  0  0  0  0  0  0  0
  133.1420  131.6030   57.2840 C   0  0  0  0  0  0  0  0  0  0  0  0
  132.2780  130.6150   57.7540 C   0  0  0  0  0  0  0  0  0  0  0  0
  130.9050  130.7500   57.5650 C   0  0  0  0  0  0  0  0  0  0  0  0
  128.2660  127.5120   60.9500 C   0  0  0  0  0  0  0  0  0  0  0  0
  129.2690  126.4940   61.5390 C   0  0  0  0  0  0  0  0  0  0  0  0
  131.5395  123.2791   65.4137 H   0  0  0  0  0  0  0  0  0  0  0  0
  129.6628  121.8086   64.7005 H   0  0  0  0  0  0  0  0  0  0  0  0
  128.6688  122.0702   62.4283 H   0  0  0  0  0  0  0  0  0  0  0  0
  129.5489  123.8017   60.8774 H   0  0  0  0  0  0  0  0  0  0  0  0
  132.3296  126.1902   61.8308 H   0  0  0  0  0  0  0  0  0  0  0  0
  134.5274  123.8911   61.8406 H   0  0  0  0  0  0  0  0  0  0  0  0
  132.9094  123.1696   62.1704 H   0  0  0  0  0  0  0  0  0  0  0  0
  134.8282  121.9105   60.1634 H   0  0  0  0  0  0  0  0  0  0  0  0
  134.9301  121.5625   61.9436 H   0  0  0  0  0  0  0  0  0  0  0  0
  131.5985  122.2112   61.5358 H   0  0  0  0  0  0  0  0  0  0  0  0
  129.7926  120.4988   61.3441 H   0  0  0  0  0  0  0  0  0  0  0  0
  130.3636  118.1641   60.6873 H   0  0  0  0  0  0  0  0  0  0  0  0
  132.7250  117.5262   60.2253 H   0  0  0  0  0  0  0  0  0  0  0  0
  134.5339  119.2348   60.4202 H   0  0  0  0  0  0  0  0  0  0  0  0
  131.1978  128.1549   62.0923 H   0  0  0  0  0  0  0  0  0  0  0  0
  132.0150  128.0612   60.4847 H   0  0  0  0  0  0  0  0  0  0  0  0
  130.4595  129.9967   60.5669 H   0  0  0  0  0  0  0  0  0  0  0  0
  129.8994  128.7628   59.3742 H   0  0  0  0  0  0  0  0  0  0  0  0
  127.4328  129.4809   59.7225 H   0  0  0  0  0  0  0  0  0  0  0  0
  127.6477  129.4667   63.3091 H   0  0  0  0  0  0  0  0  0  0  0  0
  125.7344  129.7489   64.8721 H   0  0  0  0  0  0  0  0  0  0  0  0
  123.5282  130.5354   64.0140 H   0  0  0  0  0  0  0  0  0  0  0  0
  123.2335  131.0054   61.5900 H   0  0  0  0  0  0  0  0  0  0  0  0
  128.2104  130.2777   57.7829 H   0  0  0  0  0  0  0  0  0  0  0  0
  127.0334  131.6429   57.7261 H   0  0  0  0  0  0  0  0  0  0  0  0
  128.6215  131.5531   55.7510 H   0  0  0  0  0  0  0  0  0  0  0  0
  128.6678  133.1010   56.7008 H   0  0  0  0  0  0  0  0  0  0  0  0
  130.8718  133.7455   55.9164 H   0  0  0  0  0  0  0  0  0  0  0  0
  133.3319  133.5035   56.2612 H   0  0  0  0  0  0  0  0  0  0  0  0
  134.2265  131.4946   57.4330 H   0  0  0  0  0  0  0  0  0  0  0  0
  132.6795  129.7318   58.2724 H   0  0  0  0  0  0  0  0  0  0  0  0
  130.2187  129.9737   57.9343 H   0  0  0  0  0  0  0  0  0  0  0  0
  127.2975  127.4027   61.4599 H   0  0  0  0  0  0  0  0  0  0  0  0
  128.1513  127.3171   59.8735 H   0  0  0  0  0  0  0  0  0  0  0  0
  129.4192  126.7103   62.6070 H   0  0  0  0  0  0  0  0  0  0  0  0
  128.8630  125.4797   61.4110 H   0  0  0  0  0  0  0  0  0  0  0  0
  1  2  1  0
  2  3  2  0
  3  4  1  0
  4  5  2  0
  5  6  1  0
  6  7  2  0
  7  8  1  0
  8  9  1  0
  9 10  2  0
 10 11  1  0
 11 12  2  0
 12 13  1  0
 13 14  1  0
 14 15  1  0
 15 16  1  0
 16 17  2  0
 17 18  1  0
 18 19  2  0
 19 20  1  0
 20 21  2  0
  8 22  1  0
 22 23  1  0
 23 24  1  0
 24 25  1  0
 25 26  1  0
 26 27  1  0
 27 28  2  0
 28 29  1  0
 29 30  2  0
 30 31  1  0
 31 32  2  0
 32 33  1  0
 26 34  1  0
 34 35  2  0
 35 36  1  0
 36 37  2  0
 37 38  1  0
 38 39  1  0
 39 40  1  0
 40 41  1  0
 41 42  2  0
 42 43  1  0
 43 44  2  0
 44 45  1  0
 45 46  2  0
 25 47  1  0
 47 48  1  0
  7  2  1  0
 13  9  1  0
 21 16  1  0
 48 22  1  0
 32 27  1  0
 38 34  1  0
 46 41  1  0
  3 49  1  0
  4 50  1  0
  5 51  1  0
  6 52  1  0
  8 53  1  1
 14 54  1  0
 14 55  1  0
 15 56  1  0
 15 57  1  0
 17 58  1  0
 18 59  1  0
 19 60  1  0
 20 61  1  0
 21 62  1  0
 23 63  1  0
 23 64  1  0
 24 65  1  0
 24 66  1  0
 26 67  1  6
 28 68  1  0
 29 69  1  0
 30 70  1  0
 31 71  1  0
 39 72  1  0
 39 73  1  0
 40 74  1  0
 40 75  1  0
 42 76  1  0
 43 77  1  0
 44 78  1  0
 45 79  1  0
 46 80  1  0
 47 81  1  0
 47 82  1  0
 48 83  1  0
 48 84  1  0
M  END
>  <Binding energies>  (1) 
[-12.62]

>  <Ligand effiencies>  (1) 
[-0.26291666666666663]

>  <Interactions>  (1) 
["V-A:ARG:545:CZ:4924, V-A:TYR:531:CE2:4791, V-A:ILE:538:CB:4860, V-B:ALA:541:CB:9864, V-B:TYR:539:CE1:9847, V-A:ILE:369:CG2:3234, V-A:PRO:540:CD:4885, V-A:ILE:538:CG2:4861, V-A:PRO:540:CB:4883, V-B:ARG:545:CZ:9898, V-A:ILE:369:CD1:3236, V-A:LEU:363:CA:3182, V-A:PRO:540:N:4882, V-B:ILE:369:CD1:8210, V-A:ASP:366:CG:3210, V-A:LEU:475:CD2:4256, V-A:LEU:363:CD1:3186, V-A:TYR:539:CE1:4873, V-B:ASP:366:CG:8184, V-B:TYR:539:CD1:9845, V-A:TYR:539:CD1:4871, V-A:ASP:366:CB:3209, V-A:TYR:539:CZ:4875, H-B:TYR:539:OH:9850, V-A:ILE:369:CB:3233, V-A:MET:535:CE:4833, V-A:TYR:539:CE2:4874, V-A:TYR:484:CZ:4344, V-A:TYR:484:CE2:4343, V-A:ILE:369:CG1:3235, V-A:ILE:538:CA:4858, H-A:ALA:541:N:4889, V-A:LEU:373:CD1:3277, V-A:SER:385:CA:3404, V-A:SER:385:CB:3406, V-A:SER:385:C:3402, V-A:PRO:540:CG:4884, V-A:ILE:538:C:4856"]

$$$$
RR14_Rahimova_2017
     RDKit          3D

 76 80  0  0  0  0  0  0  0  0999 V2000
  132.8230  125.7170   65.7770 C   0  0  0  0  0  0  0  0  0  0  0  0
  133.2730  125.0020   64.6310 O   0  0  0  0  0  0  0  0  0  0  0  0
  132.3450  124.5450   63.7160 C   0  0  0  0  0  0  0  0  0  0  0  0
  131.6790  123.3630   64.0410 C   0  0  0  0  0  0  0  0  0  0  0  0
  130.7440  122.8130   63.1690 C   0  0  0  0  0  0  0  0  0  0  0  0
  130.4690  123.4430   61.9540 C   0  0  0  0  0  0  0  0  0  0  0  0
  129.4950  122.8100   60.9680 C   0  0  0  0  0  0  0  0  0  0  0  0
  128.1260  123.3050   61.1080 N   0  0  0  0  0  0  0  0  0  0  0  0
  127.3380  122.8460   62.0870 N   0  0  0  0  0  0  0  0  0  0  0  0
  126.1330  123.4950   61.9020 N   0  0  0  0  0  0  0  0  0  0  0  0
  126.2090  124.3390   60.7990 N   0  0  0  0  0  0  0  0  0  0  0  0
  127.4270  124.2020   60.3290 C   0  0  0  0  0  0  0  0  0  0  0  0
  127.9790  124.9130   59.1010 C   0  0  0  0  0  0  0  0  0  0  0  0
  128.3740  126.3020   59.3860 N   0  0  0  0  0  0  0  0  0  0  0  0
  129.3720  126.7960   58.4270 C   0  0  0  0  0  0  0  0  0  0  0  0
  129.0300  128.1870   57.8500 C   0  0  0  0  0  0  0  0  0  0  0  0
  129.9930  129.3020   58.3090 C   0  0  0  0  0  0  0  0  0  0  0  0
  130.0340  130.4470   57.3940 N   0  0  0  0  0  0  0  0  0  0  0  0
  131.3820  131.0300   57.3650 C   0  0  0  0  0  0  0  0  0  0  0  0
  131.4460  132.2710   56.4500 C   0  0  0  0  0  0  0  0  0  0  0  0
  130.4570  133.2180   56.8390 O   0  0  0  0  0  0  0  0  0  0  0  0
  129.1400  132.6860   56.7580 C   0  0  0  0  0  0  0  0  0  0  0  0
  129.0050  131.4580   57.6840 C   0  0  0  0  0  0  0  0  0  0  0  0
  127.1910  127.1740   59.3930 C   0  0  0  0  0  0  0  0  0  0  0  0
  126.8820  127.8760   60.7130 C   0  0  0  0  0  0  0  0  0  0  0  0
  126.0890  128.9740   60.7530 C   0  0  0  0  0  0  0  0  0  0  0  0
  125.8070  129.6950   62.0110 C   0  0  0  0  0  0  0  0  0  0  0  0
  124.9750  130.8240   62.0920 C   0  0  0  0  0  0  0  0  0  0  0  0
  124.2870  131.3980   60.8600 C   0  0  0  0  0  0  0  0  0  0  0  0
  124.7720  131.4320   63.3340 C   0  0  0  0  0  0  0  0  0  0  0  0
  125.3840  130.9290   64.4810 C   0  0  0  0  0  0  0  0  0  0  0  0
  126.2130  129.8050   64.4110 C   0  0  0  0  0  0  0  0  0  0  0  0
  126.8650  129.2780   65.6830 C   0  0  0  0  0  0  0  0  0  0  0  0
  126.4230  129.1870   63.1690 C   0  0  0  0  0  0  0  0  0  0  0  0
  127.2530  128.0520   63.0500 N   0  0  0  0  0  0  0  0  0  0  0  0
  127.5400  127.3600   61.9190 C   0  0  0  0  0  0  0  0  0  0  0  0
  128.2970  126.3910   61.9560 O   0  0  0  0  0  0  0  0  0  0  0  0
  131.1070  124.6420   61.6320 C   0  0  0  0  0  0  0  0  0  0  0  0
  132.0430  125.1900   62.5050 C   0  0  0  0  0  0  0  0  0  0  0  0
  133.1518  125.1946   66.6875 H   0  0  0  0  0  0  0  0  0  0  0  0
  133.2449  126.7328   65.7644 H   0  0  0  0  0  0  0  0  0  0  0  0
  131.7247  125.7760   65.7644 H   0  0  0  0  0  0  0  0  0  0  0  0
  131.8949  122.8609   64.9956 H   0  0  0  0  0  0  0  0  0  0  0  0
  130.2221  121.8825   63.4370 H   0  0  0  0  0  0  0  0  0  0  0  0
  129.8418  123.0267   59.9469 H   0  0  0  0  0  0  0  0  0  0  0  0
  129.4741  121.7305   61.1785 H   0  0  0  0  0  0  0  0  0  0  0  0
  128.8603  124.3622   58.7404 H   0  0  0  0  0  0  0  0  0  0  0  0
  127.1822  124.9401   58.3431 H   0  0  0  0  0  0  0  0  0  0  0  0
  130.3446  126.8593   58.9370 H   0  0  0  0  0  0  0  0  0  0  0  0
  129.3906  126.0897   57.5839 H   0  0  0  0  0  0  0  0  0  0  0  0
  129.0667  128.1264   56.7523 H   0  0  0  0  0  0  0  0  0  0  0  0
  128.0295  128.4526   58.2221 H   0  0  0  0  0  0  0  0  0  0  0  0
  129.6692  129.6573   59.2984 H   0  0  0  0  0  0  0  0  0  0  0  0
  131.0039  128.8690   58.3340 H   0  0  0  0  0  0  0  0  0  0  0  0
  131.6653  131.3247   58.3862 H   0  0  0  0  0  0  0  0  0  0  0  0
  132.0748  130.2738   56.9672 H   0  0  0  0  0  0  0  0  0  0  0  0
  132.4418  132.7313   56.5305 H   0  0  0  0  0  0  0  0  0  0  0  0
  131.2590  131.9619   55.4110 H   0  0  0  0  0  0  0  0  0  0  0  0
  128.4173  133.4556   57.0669 H   0  0  0  0  0  0  0  0  0  0  0  0
  128.9395  132.3783   55.7211 H   0  0  0  0  0  0  0  0  0  0  0  0
  129.1101  131.7852   58.7289 H   0  0  0  0  0  0  0  0  0  0  0  0
  128.0178  131.0040   57.5127 H   0  0  0  0  0  0  0  0  0  0  0  0
  127.3403  127.9492   58.6270 H   0  0  0  0  0  0  0  0  0  0  0  0
  126.3340  126.5110   59.2032 H   0  0  0  0  0  0  0  0  0  0  0  0
  125.6405  129.3405   59.8179 H   0  0  0  0  0  0  0  0  0  0  0  0
  123.4774  132.0735   61.1735 H   0  0  0  0  0  0  0  0  0  0  0  0
  125.0188  131.9571   60.2585 H   0  0  0  0  0  0  0  0  0  0  0  0
  123.8680  130.5779   60.2585 H   0  0  0  0  0  0  0  0  0  0  0  0
  124.1225  132.3167   63.4072 H   0  0  0  0  0  0  0  0  0  0  0  0
  125.2133  131.4207   65.4500 H   0  0  0  0  0  0  0  0  0  0  0  0
  126.3485  129.6955   66.5599 H   0  0  0  0  0  0  0  0  0  0  0  0
  126.7941  128.1805   65.7038 H   0  0  0  0  0  0  0  0  0  0  0  0
  127.9232  129.5775   65.7038 H   0  0  0  0  0  0  0  0  0  0  0  0
  127.7000  127.6990   63.8820 H   0  0  0  0  0  0  0  0  0  0  0  0
  130.8701  125.1543   60.6878 H   0  0  0  0  0  0  0  0  0  0  0  0
  132.5482  126.1320   62.2454 H   0  0  0  0  0  0  0  0  0  0  0  0
  1  2  1  0
  2  3  1  0
  3  4  2  0
  4  5  1  0
  5  6  2  0
  6  7  1  0
  7  8  1  0
  8  9  1  0
  9 10  2  0
 10 11  1  0
 11 12  2  0
 12 13  1  0
 13 14  1  0
 14 15  1  0
 15 16  1  0
 16 17  1  0
 17 18  1  0
 18 19  1  0
 19 20  1  0
 20 21  1  0
 21 22  1  0
 22 23  1  0
 14 24  1  0
 24 25  1  0
 25 26  2  0
 26 27  1  0
 27 28  2  0
 28 29  1  0
 28 30  1  0
 30 31  2  0
 31 32  1  0
 32 33  1  0
 32 34  2  0
 34 35  1  0
 35 36  1  0
 36 37  2  0
  6 38  1  0
 38 39  2  0
 39  3  1  0
 12  8  1  0
 23 18  1  0
 36 25  1  0
 34 27  1  0
  1 40  1  0
  1 41  1  0
  1 42  1  0
  4 43  1  0
  5 44  1  0
  7 45  1  0
  7 46  1  0
 13 47  1  0
 13 48  1  0
 15 49  1  0
 15 50  1  0
 16 51  1  0
 16 52  1  0
 17 53  1  0
 17 54  1  0
 19 55  1  0
 19 56  1  0
 20 57  1  0
 20 58  1  0
 22 59  1  0
 22 60  1  0
 23 61  1  0
 23 62  1  0
 24 63  1  0
 24 64  1  0
 26 65  1  0
 29 66  1  0
 29 67  1  0
 29 68  1  0
 30 69  1  0
 31 70  1  0
 33 71  1  0
 33 72  1  0
 33 73  1  0
 35 74  1  0
 38 75  1  0
 39 76  1  0
M  END
>  <Binding energies>  (1) 
[-9.83]

>  <Ligand effiencies>  (1) 
[-0.24575]

>  <Interactions>  (1) 
["V-A:ARG:545:CZ:4924, H-A:ARG:545:NE:4922, V-A:ILE:538:CB:4860, V-B:ALA:541:CB:9864, V-B:ILE:369:CG2:8208, V-A:ILE:538:CG2:4861, V-B:ARG:545:CZ:9898, H-A:GLY:454:N:4047, H-A:TYR:484:OH:4345, V-B:ILE:369:CD1:8210, V-A:LEU:475:CD2:4256, V-A:TYR:539:CE1:4873, V-B:ASP:366:CG:8184, V-A:TYR:539:CD1:4871, V-B:GLU:543:CD:9880, H-A:GLU:543:OE2:4908, V-A:HIS:456:CE1:4066, H-B:GLU:543:OE1:9881, H-B:GLU:543:OE2:9882, V-A:TYR:539:CZ:4875, V-A:GLU:543:CD:4906, H-B:ALA:541:N:9863, V-B:GLY:454:CA:9020, H-A:TYR:531:OH:4793, H-A:TYR:539:N:4868, V-A:TYR:539:CG:4870, V-A:TYR:539:CE2:4874, V-A:TYR:539:CD2:4872, V-A:ARG:545:CG:4920, V-A:ARG:545:CD:4921"]

$$$$
RR15_Rahimova_2017
     RDKit          3D

 85 89  0  0  0  0  0  0  0  0999 V2000
  124.2090  132.9750   61.9510 C   0  0  0  0  0  0  0  0  0  0  0  0
  124.9020  132.1980   62.9210 O   0  0  0  0  0  0  0  0  0  0  0  0
  125.5180  131.0190   62.5370 C   0  0  0  0  0  0  0  0  0  0  0  0
  126.0600  130.8050   61.2610 C   0  0  0  0  0  0  0  0  0  0  0  0
  126.6650  129.5930   60.9380 C   0  0  0  0  0  0  0  0  0  0  0  0
  126.7420  128.5600   61.8780 C   0  0  0  0  0  0  0  0  0  0  0  0
  127.3890  127.2480   61.5270 C   0  0  0  0  0  0  0  0  0  0  0  0
  128.1920  127.0960   60.4830 N   0  0  0  0  0  0  0  0  0  0  0  0
  128.5760  125.7710   60.4850 N   0  0  0  0  0  0  0  0  0  0  0  0
  127.9820  125.2740   61.5710 N   0  0  0  0  0  0  0  0  0  0  0  0
  127.9890  123.8430   61.8710 C   0  0  0  0  0  0  0  0  0  0  0  0
  128.5400  122.9440   60.7360 C   0  0  0  0  0  0  0  0  0  0  0  0
  127.7750  122.1310   60.2140 O   0  0  0  0  0  0  0  0  0  0  0  0
  129.8360  123.0930   60.3230 N   0  0  0  0  0  0  0  0  0  0  0  0
  130.1620  123.7330   59.0330 C   0  0  0  0  0  0  0  0  0  0  0  0
  129.1860  123.3630   57.8960 C   0  0  0  0  0  0  0  0  0  0  0  0
  127.9940  124.3340   57.7210 C   0  0  0  0  0  0  0  0  0  0  0  0
  126.6840  123.6910   57.8550 N   0  0  0  0  0  0  0  0  0  0  0  0
  125.6560  124.5670   58.4370 C   0  0  0  0  0  0  0  0  0  0  0  0
  124.2780  123.8720   58.4760 C   0  0  0  0  0  0  0  0  0  0  0  0
  123.9220  123.4120   57.1770 O   0  0  0  0  0  0  0  0  0  0  0  0
  124.8640  122.4820   56.6530 C   0  0  0  0  0  0  0  0  0  0  0  0
  126.2580  123.1410   56.5610 C   0  0  0  0  0  0  0  0  0  0  0  0
  131.0150  122.8110   61.1980 C   0  0  2  0  0  0  0  0  0  0  0  0
  131.3080  121.2920   61.4020 C   0  0  0  0  0  0  0  0  0  0  0  0
  132.4210  120.9000   61.7520 O   0  0  0  0  0  0  0  0  0  0  0  0
  130.2630  120.4670   61.2100 N   0  0  0  0  0  0  0  0  0  0  0  0
  130.2720  119.0270   61.4410 C   0  0  0  0  0  0  0  0  0  0  0  0
  131.0240  118.2880   60.3190 C   0  0  2  0  0  0  0  0  0  0  0  0
  131.0120  116.7520   60.4160 C   0  0  0  0  0  0  0  0  0  0  0  0
  132.3670  116.3970   60.9780 C   0  0  0  0  0  0  0  0  0  0  0  0
  133.2370  117.4830   60.3690 C   0  0  0  0  0  0  0  0  0  0  0  0
  132.4080  118.6350   60.4700 O   0  0  0  0  0  0  0  0  0  0  0  0
  130.9860  123.6930   62.4410 C   0  0  0  0  0  0  0  0  0  0  0  0
  130.7060  123.0880   63.6730 C   0  0  0  0  0  0  0  0  0  0  0  0
  130.6650  123.8440   64.8410 C   0  0  0  0  0  0  0  0  0  0  0  0
  130.9060  125.2130   64.7860 C   0  0  0  0  0  0  0  0  0  0  0  0
  130.8680  125.9470   65.9210 F   0  0  0  0  0  0  0  0  0  0  0  0
  131.1880  125.8320   63.5710 C   0  0  0  0  0  0  0  0  0  0  0  0
  131.2280  125.0760   62.4030 C   0  0  0  0  0  0  0  0  0  0  0  0
  127.2030  126.1430   62.2260 N   0  0  0  0  0  0  0  0  0  0  0  0
  126.2020  128.7770   63.1520 C   0  0  0  0  0  0  0  0  0  0  0  0
  125.5920  129.9960   63.4940 C   0  0  0  0  0  0  0  0  0  0  0  0
  125.0470  130.2590   64.7380 O   0  0  0  0  0  0  0  0  0  0  0  0
  125.4560  129.4870   65.8630 C   0  0  0  0  0  0  0  0  0  0  0  0
  123.5599  133.7028   62.4599 H   0  0  0  0  0  0  0  0  0  0  0  0
  124.9360  133.5092   61.3217 H   0  0  0  0  0  0  0  0  0  0  0  0
  123.5954  132.3136   61.3217 H   0  0  0  0  0  0  0  0  0  0  0  0
  126.0065  131.6039   60.5067 H   0  0  0  0  0  0  0  0  0  0  0  0
  127.0869  129.4464   59.9328 H   0  0  0  0  0  0  0  0  0  0  0  0
  128.6094  123.6839   62.7653 H   0  0  0  0  0  0  0  0  0  0  0  0
  126.9381  123.5515   62.0144 H   0  0  0  0  0  0  0  0  0  0  0  0
  130.1385  124.8241   59.1703 H   0  0  0  0  0  0  0  0  0  0  0  0
  131.1569  123.3704   58.7351 H   0  0  0  0  0  0  0  0  0  0  0  0
  129.7517  123.3425   56.9528 H   0  0  0  0  0  0  0  0  0  0  0  0
  128.7536  122.3879   58.1647 H   0  0  0  0  0  0  0  0  0  0  0  0
  128.0734  125.1221   58.4843 H   0  0  0  0  0  0  0  0  0  0  0  0
  128.0525  124.7326   56.6974 H   0  0  0  0  0  0  0  0  0  0  0  0
  125.9516  124.8329   59.4626 H   0  0  0  0  0  0  0  0  0  0  0  0
  125.5720  125.4660   57.8087 H   0  0  0  0  0  0  0  0  0  0  0  0
  124.3224  123.0157   59.1651 H   0  0  0  0  0  0  0  0  0  0  0  0
  123.5222  124.5931   58.8208 H   0  0  0  0  0  0  0  0  0  0  0  0
  124.9180  121.6053   57.3152 H   0  0  0  0  0  0  0  0  0  0  0  0
  124.5440  122.1698   55.6480 H   0  0  0  0  0  0  0  0  0  0  0  0
  126.9889  122.3858   56.2364 H   0  0  0  0  0  0  0  0  0  0  0  0
  126.1998  123.9684   55.8385 H   0  0  0  0  0  0  0  0  0  0  0  0
  131.9286  123.1150   60.6661 H   0  0  0  0  0  0  0  0  0  0  0  0
  129.3740  120.8700   60.9510 H   0  0  0  0  0  0  0  0  0  0  0  0
  130.7673  118.8207   62.4013 H   0  0  0  0  0  0  0  0  0  0  0  0
  129.2316  118.6702   61.4568 H   0  0  0  0  0  0  0  0  0  0  0  0
  130.5328  118.5776   59.3783 H   0  0  0  0  0  0  0  0  0  0  0  0
  130.2110  116.4113   61.0885 H   0  0  0  0  0  0  0  0  0  0  0  0
  130.8246  116.2734   59.4434 H   0  0  0  0  0  0  0  0  0  0  0  0
  132.3724  116.4460   62.0769 H   0  0  0  0  0  0  0  0  0  0  0  0
  132.6964  115.3735   60.7458 H   0  0  0  0  0  0  0  0  0  0  0  0
  134.1686  117.6125   60.9394 H   0  0  0  0  0  0  0  0  0  0  0  0
  133.5575  117.2624   59.3401 H   0  0  0  0  0  0  0  0  0  0  0  0
  130.5168  122.0053   63.7178 H   0  0  0  0  0  0  0  0  0  0  0  0
  130.4429  123.3608   65.8039 H   0  0  0  0  0  0  0  0  0  0  0  0
  131.3785  126.9148   63.5344 H   0  0  0  0  0  0  0  0  0  0  0  0
  131.4507  125.5652   61.4433 H   0  0  0  0  0  0  0  0  0  0  0  0
  126.2566  127.9745   63.9024 H   0  0  0  0  0  0  0  0  0  0  0  0
  125.1778  130.0121   66.7887 H   0  0  0  0  0  0  0  0  0  0  0  0
  124.9594  128.5059   65.8345 H   0  0  0  0  0  0  0  0  0  0  0  0
  126.5467  129.3468   65.8345 H   0  0  0  0  0  0  0  0  0  0  0  0
  1  2  1  0
  2  3  1  0
  3  4  2  0
  4  5  1  0
  5  6  2  0
  6  7  1  0
  7  8  1  0
  8  9  2  0
  9 10  1  0
 10 11  1  0
 11 12  1  0
 12 13  2  0
 12 14  1  0
 14 15  1  0
 15 16  1  0
 16 17  1  0
 17 18  1  0
 18 19  1  0
 19 20  1  0
 20 21  1  0
 21 22  1  0
 22 23  1  0
 14 24  1  0
 24 25  1  0
 25 26  2  0
 25 27  1  0
 27 28  1  0
 28 29  1  0
 29 30  1  0
 30 31  1  0
 31 32  1  0
 32 33  1  0
 24 34  1  0
 34 35  2  0
 35 36  1  0
 36 37  2  0
 37 38  1  0
 37 39  1  0
 39 40  2  0
 10 41  1  0
  6 42  1  0
 42 43  2  0
 43 44  1  0
 44 45  1  0
 43  3  1  0
 41  7  2  0
 23 18  1  0
 33 29  1  0
 40 34  1  0
  1 46  1  0
  1 47  1  0
  1 48  1  0
  4 49  1  0
  5 50  1  0
 11 51  1  0
 11 52  1  0
 15 53  1  0
 15 54  1  0
 16 55  1  0
 16 56  1  0
 17 57  1  0
 17 58  1  0
 19 59  1  0
 19 60  1  0
 20 61  1  0
 20 62  1  0
 22 63  1  0
 22 64  1  0
 23 65  1  0
 23 66  1  0
 24 67  1  6
 27 68  1  0
 28 69  1  0
 28 70  1  0
 29 71  1  6
 30 72  1  0
 30 73  1  0
 31 74  1  0
 31 75  1  0
 32 76  1  0
 32 77  1  0
 35 78  1  0
 36 79  1  0
 39 80  1  0
 40 81  1  0
 42 82  1  0
 45 83  1  0
 45 84  1  0
 45 85  1  0
M  END
>  <Binding energies>  (1) 
[-8.09]

>  <Ligand effiencies>  (1) 
[-0.1758695652173913]

>  <Interactions>  (1) 
["H-B:ARG:545:NH2:9900, V-B:ALA:541:CB:9864, V-B:TYR:539:CE1:9847, V-B:ILE:369:CG2:8208, V-B:ARG:545:CZ:9898, V-B:ILE:369:CD1:8210, V-A:LEU:475:CD2:4256, V-B:PRO:540:CA:9855, V-B:ILE:538:CG2:9835, V-B:ASP:366:CG:8184, V-B:PRO:540:CB:9857, H-B:TYR:484:OH:9319, V-B:PRO:540:CD:9859, V-B:ILE:538:CB:9834, V-B:LEU:363:CD1:8160, V-B:TYR:539:CD1:9845, V-B:LEU:363:CA:8156, H-B:GLY:454:N:9021, V-B:PRO:540:N:9856, V-B:TYR:539:CG:9844, V-B:GLU:543:CD:9880, V-B:GLU:543:CB:9878, V-A:HIS:456:CE1:4066, V-B:TYR:539:CZ:9849, V-B:HIS:456:CE1:9040, V-A:GLU:543:CD:4906, H-B:ALA:541:N:9863, V-B:PRO:540:CG:9858, V-A:PRO:482:CB:4323, V-A:TYR:484:CZ:4344, V-A:TYR:484:CE2:4343, V-A:PRO:482:CG:4324, V-B:TYR:539:CB:9843, H-B:TYR:539:O:9840, V-A:LEU:373:CD1:3277, V-A:SER:385:CA:3404, V-A:SER:385:CB:3406, V-B:VAL:344:CG1:7972, V-B:ARG:545:CG:9894, V-B:ARG:545:CD:9895"]

$$$$
RR16_Rahimova_2017
     RDKit          3D

 80 85  0  0  0  0  0  0  0  0999 V2000
  132.9810  121.7160   62.9990 O   0  0  0  0  0  0  0  0  0  0  0  0
  133.4190  122.2780   61.7160 S   0  0  0  0  0  0  0  0  0  0  0  0
  134.3180  121.5270   60.8320 O   0  0  0  0  0  0  0  0  0  0  0  0
  134.1600  123.8450   62.0470 N   0  0  0  0  0  0  0  0  0  0  0  0
  133.4850  124.8370   62.9170 C   0  0  0  0  0  0  0  0  0  0  0  0
  132.5520  125.7220   62.0500 C   0  0  0  0  0  0  0  0  0  0  0  0
  131.0530  125.3640   62.0330 C   0  0  0  0  0  0  0  0  0  0  0  0
  130.3050  125.7440   63.3220 C   0  0  0  0  0  0  0  0  0  0  0  0
  131.1900  126.1030   64.5310 C   0  0  0  0  0  0  0  0  0  0  0  0
  132.0870  124.9890   65.1050 C   0  0  0  0  0  0  0  0  0  0  0  0
  132.8030  124.0840   64.0820 C   0  0  0  0  0  0  0  0  0  0  0  0
  131.9390  122.6720   60.7900 C   0  0  0  0  0  0  0  0  0  0  0  0
  131.9720  123.6470   59.7910 C   0  0  0  0  0  0  0  0  0  0  0  0
  130.7900  124.0300   59.1640 C   0  0  0  0  0  0  0  0  0  0  0  0
  129.5820  123.4370   59.5370 C   0  0  0  0  0  0  0  0  0  0  0  0
  128.0440  124.0270   58.8340 S   0  0  0  0  0  0  0  0  0  0  0  0
  127.0060  123.0370   59.1540 O   0  0  0  0  0  0  0  0  0  0  0  0
  128.3110  124.3950   57.4380 O   0  0  0  0  0  0  0  0  0  0  0  0
  127.6930  125.5120   59.7390 N   0  0  0  0  0  0  0  0  0  0  0  0
  126.9100  126.5230   58.9840 C   0  0  0  0  0  0  0  0  0  0  0  0
  126.9250  127.8780   59.7200 C   0  0  0  0  0  0  0  0  0  0  0  0
  126.4680  127.7360   61.1930 C   0  0  0  0  0  0  0  0  0  0  0  0
  126.5200  129.0630   61.9560 C   0  0  0  0  0  0  0  0  0  0  0  0
  126.1390  129.1060   63.3040 C   0  0  0  0  0  0  0  0  0  0  0  0
  126.1780  130.2910   64.0400 C   0  0  0  0  0  0  0  0  0  0  0  0
  125.8060  130.3130   65.3590 O   0  0  0  0  0  0  0  0  0  0  0  0
  126.6140  131.4570   63.3930 C   0  0  0  0  0  0  0  0  0  0  0  0
  126.7710  132.7330   63.8540 N   0  0  0  0  0  0  0  0  0  0  0  0
  127.2600  133.4920   62.8130 N   0  0  0  0  0  0  0  0  0  0  0  0
  127.3580  132.7070   61.7230 N   0  0  0  0  0  0  0  0  0  0  0  0
  127.9320  133.2320   60.4910 C   0  0  0  0  0  0  0  0  0  0  0  0
  129.2300  132.5380   60.1040 C   0  0  0  0  0  0  0  0  0  0  0  0
  129.4700  132.1900   58.7710 C   0  0  0  0  0  0  0  0  0  0  0  0
  130.6690  131.5730   58.4100 C   0  0  0  0  0  0  0  0  0  0  0  0
  131.6350  131.3040   59.3810 C   0  0  0  0  0  0  0  0  0  0  0  0
  131.4030  131.6510   60.7120 C   0  0  0  0  0  0  0  0  0  0  0  0
  132.5990  131.3280   61.9130 Cl  0  0  0  0  0  0  0  0  0  0  0  0
  130.2010  132.2640   61.0740 C   0  0  0  0  0  0  0  0  0  0  0  0
  126.9890  131.4080   62.0290 C   0  0  0  0  0  0  0  0  0  0  0  0
  126.9470  130.2210   61.2900 C   0  0  0  0  0  0  0  0  0  0  0  0
  127.2080  126.5900   61.9310 C   0  0  0  0  0  0  0  0  0  0  0  0
  127.1940  125.2790   61.1200 C   0  0  0  0  0  0  0  0  0  0  0  0
  129.5580  122.4320   60.5080 C   0  0  0  0  0  0  0  0  0  0  0  0
  130.7380  122.0520   61.1370 C   0  0  0  0  0  0  0  0  0  0  0  0
  135.1810  123.8960   62.0030 H   0  0  0  0  0  0  0  0  0  0  0  0
  134.1890  125.5392   63.3873 H   0  0  0  0  0  0  0  0  0  0  0  0
  132.6409  126.7549   62.4177 H   0  0  0  0  0  0  0  0  0  0  0  0
  132.8921  125.5625   61.0161 H   0  0  0  0  0  0  0  0  0  0  0  0
  130.5809  125.8911   61.1908 H   0  0  0  0  0  0  0  0  0  0  0  0
  130.9879  124.2701   61.9377 H   0  0  0  0  0  0  0  0  0  0  0  0
  129.6694  126.6137   63.0992 H   0  0  0  0  0  0  0  0  0  0  0  0
  129.7456  124.8445   63.6185 H   0  0  0  0  0  0  0  0  0  0  0  0
  131.8462  126.9315   64.2259 H   0  0  0  0  0  0  0  0  0  0  0  0
  130.4822  126.3405   65.3389 H   0  0  0  0  0  0  0  0  0  0  0  0
  132.8592  125.4682   65.7247 H   0  0  0  0  0  0  0  0  0  0  0  0
  131.4063  124.3229   65.6554 H   0  0  0  0  0  0  0  0  0  0  0  0
  133.5737  123.5079   64.6150 H   0  0  0  0  0  0  0  0  0  0  0  0
  132.0248  123.4520   63.6292 H   0  0  0  0  0  0  0  0  0  0  0  0
  132.9269  124.1098   59.5012 H   0  0  0  0  0  0  0  0  0  0  0  0
  130.8073  124.7979   58.3766 H   0  0  0  0  0  0  0  0  0  0  0  0
  127.3508  126.6493   57.9841 H   0  0  0  0  0  0  0  0  0  0  0  0
  125.8696  126.1760   58.8989 H   0  0  0  0  0  0  0  0  0  0  0  0
  127.9479  128.2821   59.7017 H   0  0  0  0  0  0  0  0  0  0  0  0
  126.2244  128.5538   59.2077 H   0  0  0  0  0  0  0  0  0  0  0  0
  125.4069  127.4475   61.1628 H   0  0  0  0  0  0  0  0  0  0  0  0
  125.8004  128.1816   63.7947 H   0  0  0  0  0  0  0  0  0  0  0  0
  126.1440  131.0750   65.8360 H   0  0  0  0  0  0  0  0  0  0  0  0
  127.2041  133.0953   59.6777 H   0  0  0  0  0  0  0  0  0  0  0  0
  128.1612  134.2948   60.6583 H   0  0  0  0  0  0  0  0  0  0  0  0
  128.7110  132.4033   58.0039 H   0  0  0  0  0  0  0  0  0  0  0  0
  130.8525  131.2989   57.3606 H   0  0  0  0  0  0  0  0  0  0  0  0
  132.5799  130.8180   59.0964 H   0  0  0  0  0  0  0  0  0  0  0  0
  130.0171  132.5322   62.1248 H   0  0  0  0  0  0  0  0  0  0  0  0
  127.2372  130.1969   60.2292 H   0  0  0  0  0  0  0  0  0  0  0  0
  128.2521  126.8921   62.1001 H   0  0  0  0  0  0  0  0  0  0  0  0
  126.6883  126.4069   62.8830 H   0  0  0  0  0  0  0  0  0  0  0  0
  127.8388  124.5395   61.6173 H   0  0  0  0  0  0  0  0  0  0  0  0
  126.1602  124.9072   61.0653 H   0  0  0  0  0  0  0  0  0  0  0  0
  128.6089  121.9435   60.7735 H   0  0  0  0  0  0  0  0  0  0  0  0
  130.7250  121.2652   61.9057 H   0  0  0  0  0  0  0  0  0  0  0  0
  1  2  2  0
  2  3  2  0
  2  4  1  0
  4  5  1  0
  5  6  1  0
  6  7  1  0
  7  8  1  0
  8  9  1  0
  9 10  1  0
 10 11  1  0
  2 12  1  0
 12 13  2  0
 13 14  1  0
 14 15  2  0
 15 16  1  0
 16 17  2  0
 16 18  2  0
 16 19  1  0
 19 20  1  0
 20 21  1  0
 21 22  1  0
 22 23  1  0
 23 24  2  0
 24 25  1  0
 25 26  1  0
 25 27  2  0
 27 28  1  0
 28 29  2  0
 29 30  1  0
 30 31  1  0
 31 32  1  0
 32 33  2  0
 33 34  1  0
 34 35  2  0
 35 36  1  0
 36 37  1  0
 36 38  2  0
 30 39  1  0
 39 40  2  0
 22 41  1  0
 41 42  1  0
 15 43  1  0
 43 44  2  0
 11  5  1  0
 44 12  1  0
 42 19  1  0
 40 23  1  0
 39 27  1  0
 38 32  1  0
  4 45  1  0
  5 46  1  0
  6 47  1  0
  6 48  1  0
  7 49  1  0
  7 50  1  0
  8 51  1  0
  8 52  1  0
  9 53  1  0
  9 54  1  0
 10 55  1  0
 10 56  1  0
 11 57  1  0
 11 58  1  0
 13 59  1  0
 14 60  1  0
 20 61  1  0
 20 62  1  0
 21 63  1  0
 21 64  1  0
 22 65  1  0
 24 66  1  0
 26 67  1  0
 31 68  1  0
 31 69  1  0
 33 70  1  0
 34 71  1  0
 35 72  1  0
 38 73  1  0
 40 74  1  0
 41 75  1  0
 41 76  1  0
 42 77  1  0
 42 78  1  0
 43 79  1  0
 44 80  1  0
M  END
>  <Binding energies>  (1) 
[-7.58]

>  <Ligand effiencies>  (1) 
[-0.15791666666666668]

>  <Interactions>  (1) 
["V-A:PRO:540:CA:4881, V-A:ARG:545:CZ:4924, V-A:GLY:454:CA:4046, V-B:TYR:539:CE1:9847, V-A:PRO:540:CB:4883, V-B:ARG:545:CZ:9898, V-A:ILE:369:CD1:3236, H-A:GLY:454:N:4047, V-A:PRO:540:N:4882, V-A:ASP:366:CG:3210, V-A:LEU:475:CD2:4256, V-A:TYR:539:CE1:4873, V-B:ASP:366:CG:8184, H-B:TYR:484:OH:9319, V-B:TYR:539:CD1:9845, V-A:TYR:539:CD1:4871, V-B:GLU:543:CD:9880, V-B:TYR:539:CZ:9849, V-A:GLU:543:CD:4906, V-A:PRO:540:C:4879, V-A:TYR:539:C:4865, H-A:ASP:366:OD1:3211, V-A:ASN:362:CB:3173"]

$$$$
RR17_Rahimova_2017
     RDKit          3D

 63 66  0  0  0  0  0  0  0  0999 V2000
  131.3170  124.9910   74.2670 C   0  0  0  0  0  0  0  0  0  0  0  0
  131.0790  126.4900   74.4730 C   0  0  0  0  0  0  0  0  0  0  0  0
  129.8030  126.8290   73.9390 O   0  0  0  0  0  0  0  0  0  0  0  0
  129.6700  127.0340   72.5780 C   0  0  0  0  0  0  0  0  0  0  0  0
  130.8270  127.3920   71.8870 C   0  0  0  0  0  0  0  0  0  0  0  0
  130.7910  127.6200   70.5150 C   0  0  0  0  0  0  0  0  0  0  0  0
  129.5900  127.4950   69.8020 C   0  0  0  0  0  0  0  0  0  0  0  0
  129.5820  127.7460   68.3220 C   0  0  0  0  0  0  0  0  0  0  0  0
  128.6850  128.3850   67.7640 O   0  0  0  0  0  0  0  0  0  0  0  0
  130.7510  127.1520   67.5040 C   0  0  0  0  0  0  0  0  0  0  0  0
  130.2220  125.7350   66.4760 S   0  0  0  0  0  0  0  0  0  0  0  0
  131.6990  125.4740   65.5340 C   0  0  0  0  0  0  0  0  0  0  0  0
  132.9170  125.7490   65.9380 N   0  0  0  0  0  0  0  0  0  0  0  0
  133.7930  125.3950   64.9200 N   0  0  0  0  0  0  0  0  0  0  0  0
  133.0710  124.9160   63.9390 C   0  0  0  0  0  0  0  0  0  0  0  0
  133.6350  124.3960   62.6250 C   0  0  0  0  0  0  0  0  0  0  0  0
  132.6370  123.7690   61.7610 N   0  0  0  0  0  0  0  0  0  0  0  0
  132.6190  122.3960   61.4580 C   0  0  0  0  0  0  0  0  0  0  0  0
  133.8420  121.7250   61.4450 C   0  0  0  0  0  0  0  0  0  0  0  0
  133.8970  120.3660   61.1480 C   0  0  0  0  0  0  0  0  0  0  0  0
  132.7250  119.6600   60.8640 C   0  0  0  0  0  0  0  0  0  0  0  0
  132.8030  118.1700   60.5330 C   0  0  0  0  0  0  0  0  0  0  0  0
  132.6270  117.4030   61.6120 F   0  0  0  0  0  0  0  0  0  0  0  0
  131.8690  117.8420   59.6390 F   0  0  0  0  0  0  0  0  0  0  0  0
  134.0020  117.8990   60.0180 F   0  0  0  0  0  0  0  0  0  0  0  0
  131.4960  120.3290   60.8840 C   0  0  0  0  0  0  0  0  0  0  0  0
  131.4430  121.6870   61.1820 C   0  0  0  0  0  0  0  0  0  0  0  0
  131.7290  124.9490   64.2580 N   0  0  0  0  0  0  0  0  0  0  0  0
  130.6480  124.5150   63.4760 C   0  0  0  0  0  0  0  0  0  0  0  0
  130.2030  123.1980   63.5880 C   0  0  0  0  0  0  0  0  0  0  0  0
  129.1330  122.7670   62.8090 C   0  0  0  0  0  0  0  0  0  0  0  0
  128.5040  123.6520   61.9170 C   0  0  0  0  0  0  0  0  0  0  0  0
  127.4380  123.3130   61.1070 O   0  0  0  0  0  0  0  0  0  0  0  0
  126.1750  123.9310   61.3270 C   0  0  0  0  0  0  0  0  0  0  0  0
  128.9650  124.9660   61.8170 C   0  0  0  0  0  0  0  0  0  0  0  0
  130.0340  125.4040   62.5940 C   0  0  0  0  0  0  0  0  0  0  0  0
  128.4270  127.1330   70.4980 C   0  0  0  0  0  0  0  0  0  0  0  0
  128.4660  126.9050   71.8710 C   0  0  0  0  0  0  0  0  0  0  0  0
  131.3958  124.4944   75.2454 H   0  0  0  0  0  0  0  0  0  0  0  0
  130.4760  124.5602   73.7039 H   0  0  0  0  0  0  0  0  0  0  0  0
  132.2501  124.8419   73.7039 H   0  0  0  0  0  0  0  0  0  0  0  0
  131.1044  126.7243   75.5475 H   0  0  0  0  0  0  0  0  0  0  0  0
  131.8637  127.0671   73.9619 H   0  0  0  0  0  0  0  0  0  0  0  0
  131.7771  127.4951   72.4317 H   0  0  0  0  0  0  0  0  0  0  0  0
  131.7129  127.9008   69.9848 H   0  0  0  0  0  0  0  0  0  0  0  0
  131.1576  127.9347   66.8467 H   0  0  0  0  0  0  0  0  0  0  0  0
  131.5110  126.7911   68.2126 H   0  0  0  0  0  0  0  0  0  0  0  0
  134.0825  125.2410   62.0812 H   0  0  0  0  0  0  0  0  0  0  0  0
  134.3723  123.6198   62.8780 H   0  0  0  0  0  0  0  0  0  0  0  0
  132.0640  124.3790   61.1970 H   0  0  0  0  0  0  0  0  0  0  0  0
  134.7686  122.2731   61.6708 H   0  0  0  0  0  0  0  0  0  0  0  0
  134.8664  119.8462   61.1369 H   0  0  0  0  0  0  0  0  0  0  0  0
  130.5690  119.7795   60.6634 H   0  0  0  0  0  0  0  0  0  0  0  0
  130.4734  122.2061   61.2009 H   0  0  0  0  0  0  0  0  0  0  0  0
  130.6940  122.5049   64.2869 H   0  0  0  0  0  0  0  0  0  0  0  0
  128.7783  121.7291   62.8920 H   0  0  0  0  0  0  0  0  0  0  0  0
  125.9936  124.0198   62.4083 H   0  0  0  0  0  0  0  0  0  0  0  0
  126.1724  124.9322   60.8714 H   0  0  0  0  0  0  0  0  0  0  0  0
  125.3829  123.3187   60.8714 H   0  0  0  0  0  0  0  0  0  0  0  0
  128.4789  125.6620   61.1175 H   0  0  0  0  0  0  0  0  0  0  0  0
  130.3910  126.4413   62.5130 H   0  0  0  0  0  0  0  0  0  0  0  0
  127.4764  127.0284   69.9545 H   0  0  0  0  0  0  0  0  0  0  0  0
  127.5466  126.6219   72.4044 H   0  0  0  0  0  0  0  0  0  0  0  0
  1  2  1  0
  2  3  1  0
  3  4  1  0
  4  5  2  0
  5  6  1  0
  6  7  2  0
  7  8  1  0
  8  9  2  0
  8 10  1  0
 10 11  1  0
 11 12  1  0
 12 13  2  0
 13 14  1  0
 14 15  2  0
 15 16  1  0
 16 17  1  0
 17 18  1  0
 18 19  2  0
 19 20  1  0
 20 21  2  0
 21 22  1  0
 22 23  1  0
 22 24  1  0
 22 25  1  0
 21 26  1  0
 26 27  2  0
 15 28  1  0
 28 29  1  0
 29 30  2  0
 30 31  1  0
 31 32  2  0
 32 33  1  0
 33 34  1  0
 32 35  1  0
 35 36  2  0
  7 37  1  0
 37 38  2  0
 38  4  1  0
 28 12  1  0
 36 29  1  0
 27 18  1  0
  1 39  1  0
  1 40  1  0
  1 41  1  0
  2 42  1  0
  2 43  1  0
  5 44  1  0
  6 45  1  0
 10 46  1  0
 10 47  1  0
 16 48  1  0
 16 49  1  0
 17 50  1  0
 19 51  1  0
 20 52  1  0
 26 53  1  0
 27 54  1  0
 30 55  1  0
 31 56  1  0
 34 57  1  0
 34 58  1  0
 34 59  1  0
 35 60  1  0
 36 61  1  0
 37 62  1  0
 38 63  1  0
M  END
>  <Binding energies>  (1) 
[-8.78]

>  <Ligand effiencies>  (1) 
[-0.2251282051282051]

>  <Interactions>  (1) 
["V-A:ARG:545:CZ:4924, H-A:ARG:545:NE:4922, V-B:ALA:541:CB:9864, V-B:TYR:539:CE1:9847, V-A:ILE:369:CG2:3234, V-A:ILE:369:CD1:3236, H-A:GLY:454:N:4047, H-A:TYR:484:OH:4345, V-A:LEU:475:CD2:4256, V-B:PRO:540:CA:9855, H-A:ARG:545:NH2:4926, V-B:TYR:539:CD1:9845, V-B:TYR:539:CG:9844, V-B:GLU:543:CD:9880, V-A:HIS:456:CE1:4066, V-B:HIS:456:CE1:9040, V-A:GLU:543:CD:4906, V-A:GLU:543:CG:4905, V-B:GLU:543:C:9874, V-B:GLY:544:CA:9886, V-A:GLU:543:C:4900, V-A:LYS:547:CE:4948, V-A:GLY:544:C:4910, V-A:HIS:456:CG:4063, V-B:GLY:544:C:9884, V-A:HIS:456:CD2:4065, H-A:LYS:547:NZ:4949, V-A:HIS:456:CB:4062, H-B:LYS:547:NZ:9923, V-A:GLY:544:CA:4912, H-B:HIS:456:NE2:9041, H-B:ALA:541:N:9863, V-B:TYR:539:CB:9843, V-A:ARG:545:CG:4920, V-B:ALA:541:CA:9862, V-A:LEU:373:CD1:3277, V-A:SER:385:CA:3404, V-A:SER:385:CB:3406, V-A:SER:385:C:3402, V-A:GLY:453:CA:4041, V-A:LEU:475:CG:4254, V-A:VAL:384:C:3394, V-A:LEU:373:CG:3276"]

$$$$
RR18_Rahimova_2017
     RDKit          3D

 56 61  0  0  0  0  0  0  0  0999 V2000
  132.9440  125.6520   56.3070 C   0  0  0  0  0  0  0  0  0  0  0  0
  132.6830  125.2220   57.7290 C   0  0  0  0  0  0  0  0  0  0  0  0
  133.4340  124.5690   58.6930 C   0  0  0  0  0  0  0  0  0  0  0  0
  132.6280  124.4600   59.8260 C   0  0  0  0  0  0  0  0  0  0  0  0
  131.4150  125.0520   59.5140 C   0  0  0  0  0  0  0  0  0  0  0  0
  130.1180  125.2780   60.2870 C   0  0  1  0  0  0  0  0  0  0  0  0
  129.9750  124.2740   61.4690 C   0  0  0  0  0  0  0  0  0  0  0  0
  129.8340  122.8440   61.2110 C   0  0  0  0  0  0  0  0  0  0  0  0
  128.7500  122.3410   60.9090 O   0  0  0  0  0  0  0  0  0  0  0  0
  130.9890  122.1450   61.3160 N   0  0  0  0  0  0  0  0  0  0  0  0
  131.2380  120.7650   61.1610 C   0  0  0  0  0  0  0  0  0  0  0  0
  130.2490  119.7760   61.3180 C   0  0  0  0  0  0  0  0  0  0  0  0
  130.5630  118.4280   61.1570 C   0  0  0  0  0  0  0  0  0  0  0  0
  131.8640  118.0450   60.8440 C   0  0  0  0  0  0  0  0  0  0  0  0
  132.8550  119.0130   60.6970 C   0  0  0  0  0  0  0  0  0  0  0  0
  132.5560  120.3700   60.8540 C   0  0  0  0  0  0  0  0  0  0  0  0
  133.6790  121.3890   60.6870 C   0  0  0  0  0  0  0  0  0  0  0  0
  130.0870  124.7470   62.7380 C   0  0  0  0  0  0  0  0  0  0  0  0
  130.2000  126.0640   63.0680 N   0  0  0  0  0  0  0  0  0  0  0  0
  130.1190  126.9540   62.1500 C   0  0  0  0  0  0  0  0  0  0  0  0
  130.0940  128.6770   62.4380 S   0  0  0  0  0  0  0  0  0  0  0  0
  129.9330  129.0210   60.6870 C   0  0  0  0  0  0  0  0  0  0  0  0
  129.8420  130.2580   60.0860 C   0  0  0  0  0  0  0  0  0  0  0  0
  129.7880  131.4780   60.9040 C   0  0  0  0  0  0  0  0  0  0  0  0
  129.8370  131.6150   62.1250 O   0  0  0  0  0  0  0  0  0  0  0  0
  129.6480  132.5120   60.0680 N   0  0  0  0  0  0  0  0  0  0  0  0
  129.6340  132.1390   58.7580 C   0  0  0  0  0  0  0  0  0  0  0  0
  129.5180  132.9590   57.6370 C   0  0  0  0  0  0  0  0  0  0  0  0
  129.5570  132.3790   56.3720 C   0  0  0  0  0  0  0  0  0  0  0  0
  129.7190  131.0000   56.2510 C   0  0  0  0  0  0  0  0  0  0  0  0
  129.8330  130.1990   57.3900 C   0  0  0  0  0  0  0  0  0  0  0  0
  129.7720  130.7640   58.6780 C   0  0  0  0  0  0  0  0  0  0  0  0
  129.8980  127.7420   59.9770 C   0  0  0  0  0  0  0  0  0  0  0  0
  129.7430  127.5810   58.7700 O   0  0  0  0  0  0  0  0  0  0  0  0
  130.0370  126.6840   60.8220 N   0  0  0  0  0  0  0  0  0  0  0  0
  131.4560  125.5120   58.2350 O   0  0  0  0  0  0  0  0  0  0  0  0
  133.5148  126.5923   56.3072 H   0  0  0  0  0  0  0  0  0  0  0  0
  133.5216  124.8726   55.7884 H   0  0  0  0  0  0  0  0  0  0  0  0
  131.9860  125.8047   55.7884 H   0  0  0  0  0  0  0  0  0  0  0  0
  134.4669  124.2064   58.5855 H   0  0  0  0  0  0  0  0  0  0  0  0
  132.9027  123.9935   60.7835 H   0  0  0  0  0  0  0  0  0  0  0  0
  129.2947  125.1136   59.5762 H   0  0  0  0  0  0  0  0  0  0  0  0
  131.8190  122.6930   61.4860 H   0  0  0  0  0  0  0  0  0  0  0  0
  129.2193  120.0697   61.5700 H   0  0  0  0  0  0  0  0  0  0  0  0
  129.7805  117.6644   61.2776 H   0  0  0  0  0  0  0  0  0  0  0  0
  132.1091  116.9807   60.7130 H   0  0  0  0  0  0  0  0  0  0  0  0
  133.8834  118.7067   60.4549 H   0  0  0  0  0  0  0  0  0  0  0  0
  134.0330  121.7102   61.6777 H   0  0  0  0  0  0  0  0  0  0  0  0
  134.5104  120.9306   60.1314 H   0  0  0  0  0  0  0  0  0  0  0  0
  133.3033  122.2609   60.1314 H   0  0  0  0  0  0  0  0  0  0  0  0
  130.0864  124.0137   63.5579 H   0  0  0  0  0  0  0  0  0  0  0  0
  129.5820  133.4700   60.3810 H   0  0  0  0  0  0  0  0  0  0  0  0
  129.3976  134.0465   57.7499 H   0  0  0  0  0  0  0  0  0  0  0  0
  129.4605  133.0056   55.4730 H   0  0  0  0  0  0  0  0  0  0  0  0
  129.7573  130.5395   55.2527 H   0  0  0  0  0  0  0  0  0  0  0  0
  129.9721  129.1135   57.2790 H   0  0  0  0  0  0  0  0  0  0  0  0
  1  2  1  0
  2  3  2  0
  3  4  1  0
  4  5  2  0
  5  6  1  0
  6  7  1  0
  7  8  1  0
  8  9  2  0
  8 10  1  0
 10 11  1  0
 11 12  2  0
 12 13  1  0
 13 14  2  0
 14 15  1  0
 15 16  2  0
 16 17  1  0
  7 18  2  0
 18 19  1  0
 19 20  2  0
 20 21  1  0
 21 22  1  0
 22 23  2  0
 23 24  1  0
 24 25  2  0
 24 26  1  0
 26 27  1  0
 27 28  2  0
 28 29  1  0
 29 30  2  0
 30 31  1  0
 31 32  2  0
 22 33  1  0
 33 34  2  0
 33 35  1  0
  5 36  1  0
 36  2  1  0
 35  6  1  0
 16 11  1  0
 35 20  1  0
 32 23  1  0
 32 27  1  0
  1 37  1  0
  1 38  1  0
  1 39  1  0
  3 40  1  0
  4 41  1  0
  6 42  1  6
 10 43  1  0
 12 44  1  0
 13 45  1  0
 14 46  1  0
 15 47  1  0
 17 48  1  0
 17 49  1  0
 17 50  1  0
 18 51  1  0
 26 52  1  0
 28 53  1  0
 29 54  1  0
 30 55  1  0
 31 56  1  0
M  END
>  <Binding energies>  (1) 
[-8.45]

>  <Ligand effiencies>  (1) 
[-0.22236842105263155]

>  <Interactions>  (1) 
["V-A:PRO:540:CA:4881, V-B:ALA:541:CB:9864, V-B:TYR:539:CE1:9847, V-A:ILE:369:CG2:3234, V-A:ILE:369:CD1:3236, V-A:PRO:540:N:4882, V-A:ASP:366:CG:3210, V-A:LEU:475:CD2:4256, V-A:TYR:539:CE1:4873, V-B:TYR:539:CD1:9845, V-A:TYR:539:CD1:4871, V-B:TYR:539:C:9839, V-B:GLU:543:CD:9880, V-A:ASP:366:CA:3207, V-A:ASP:366:CB:3209, V-B:TYR:539:CZ:9849, V-A:GLU:543:CD:4906, H-B:ALA:541:N:9863, V-A:TYR:531:CZ:4792, V-A:TYR:531:CE1:4790, V-A:TYR:539:C:4865, V-A:ASP:366:C:3205, V-A:MET:535:CE:4833, V-A:TYR:539:CG:4870, V-A:TYR:539:CA:4867, V-A:PRO:482:CB:4323, V-A:PRO:482:CG:4324, H-A:ALA:541:N:4889, V-A:LEU:373:CD1:3277, V-A:SER:385:CA:3404, V-A:SER:385:CB:3406, H-A:TYR:539:O:4866, V-A:ASN:370:CB:3242"]

$$$$
RR19_Rahimova_2017
     RDKit          3D

 72 77  0  0  0  0  0  0  0  0999 V2000
  133.4030  124.0440   58.9440 O   0  0  0  0  0  0  0  0  0  0  0  0
  132.4490  124.4260   59.6270 C   0  0  0  0  0  0  0  0  0  0  0  0
  131.5550  125.3870   59.2800 N   0  0  0  0  0  0  0  0  0  0  0  0
  131.2860  126.0310   58.0980 C   0  0  0  0  0  0  0  0  0  0  0  0
  131.8940  125.5980   56.5780 S   0  0  0  0  0  0  0  0  0  0  0  0
  130.4420  127.0830   58.3530 N   0  0  0  0  0  0  0  0  0  0  0  0
  129.7640  127.9410   57.5490 C   0  0  0  0  0  0  0  0  0  0  0  0
  129.6190  127.8390   56.3280 O   0  0  0  0  0  0  0  0  0  0  0  0
  129.1570  129.1550   58.2950 C   0  0  2  0  0  0  0  0  0  0  0  0
  128.3550  130.1410   57.3950 C   0  0  0  0  0  0  0  0  0  0  0  0
  126.8480  130.1160   57.5910 C   0  0  0  0  0  0  0  0  0  0  0  0
  126.2690  130.5260   58.8110 C   0  0  0  0  0  0  0  0  0  0  0  0
  124.8880  130.5720   58.9440 C   0  0  0  0  0  0  0  0  0  0  0  0
  124.0690  130.2330   57.8740 C   0  0  0  0  0  0  0  0  0  0  0  0
  124.6250  129.8560   56.6580 C   0  0  0  0  0  0  0  0  0  0  0  0
  126.0030  129.8060   56.5030 C   0  0  0  0  0  0  0  0  0  0  0  0
  130.1880  129.8660   59.1000 N   0  0  0  0  0  0  0  0  0  0  0  0
  130.1330  129.8870   60.4630 C   0  0  0  0  0  0  0  0  0  0  0  0
  129.2690  129.3840   61.1830 O   0  0  0  0  0  0  0  0  0  0  0  0
  131.3360  130.6390   60.8960 C   0  0  0  0  0  0  0  0  0  0  0  0
  131.7940  130.9760   62.1700 C   0  0  0  0  0  0  0  0  0  0  0  0
  132.9870  131.6980   62.2850 C   0  0  0  0  0  0  0  0  0  0  0  0
  133.7000  132.0700   61.1360 C   0  0  0  0  0  0  0  0  0  0  0  0
  133.2240  131.7210   59.8670 C   0  0  0  0  0  0  0  0  0  0  0  0
  132.0320  131.0020   59.7750 C   0  0  0  0  0  0  0  0  0  0  0  0
  131.2930  130.4900   58.5940 C   0  0  0  0  0  0  0  0  0  0  0  0
  131.6180  130.5990   57.4110 O   0  0  0  0  0  0  0  0  0  0  0  0
  132.2060  123.7970   61.0250 C   0  0  2  0  0  0  0  0  0  0  0  0
  133.2290  124.2500   62.1060 C   0  0  0  0  0  0  0  0  0  0  0  0
  132.6050  124.5500   63.4570 C   0  0  0  0  0  0  0  0  0  0  0  0
  133.2790  125.3780   64.3810 C   0  0  0  0  0  0  0  0  0  0  0  0
  132.6620  125.7340   65.5730 C   0  0  0  0  0  0  0  0  0  0  0  0
  131.3720  125.3020   65.8510 C   0  0  0  0  0  0  0  0  0  0  0  0
  130.6810  124.5190   64.9340 C   0  0  0  0  0  0  0  0  0  0  0  0
  131.2800  124.1510   63.7360 C   0  0  0  0  0  0  0  0  0  0  0  0
  132.0700  122.3130   60.9890 N   0  0  0  0  0  0  0  0  0  0  0  0
  133.1540  121.4970   60.8590 C   0  0  0  0  0  0  0  0  0  0  0  0
  134.3320  121.8340   60.7400 O   0  0  0  0  0  0  0  0  0  0  0  0
  132.6120  120.1150   60.8930 C   0  0  0  0  0  0  0  0  0  0  0  0
  133.2530  118.8790   60.7960 C   0  0  0  0  0  0  0  0  0  0  0  0
  132.4780  117.7160   60.8630 C   0  0  0  0  0  0  0  0  0  0  0  0
  131.0890  117.8010   61.0260 C   0  0  0  0  0  0  0  0  0  0  0  0
  130.4650  119.0500   61.1240 C   0  0  0  0  0  0  0  0  0  0  0  0
  131.2560  120.1980   61.0520 C   0  0  0  0  0  0  0  0  0  0  0  0
  130.8920  121.6340   61.1260 C   0  0  0  0  0  0  0  0  0  0  0  0
  129.7680  122.1120   61.2770 O   0  0  0  0  0  0  0  0  0  0  0  0
  130.8970  125.6030   60.0140 H   0  0  0  0  0  0  0  0  0  0  0  0
  130.3850  127.3270   59.3310 H   0  0  0  0  0  0  0  0  0  0  0  0
  128.4085  128.7254   58.9770 H   0  0  0  0  0  0  0  0  0  0  0  0
  128.7090  131.1606   57.6076 H   0  0  0  0  0  0  0  0  0  0  0  0
  128.5333  129.8214   56.3577 H   0  0  0  0  0  0  0  0  0  0  0  0
  126.9124  130.8093   59.6570 H   0  0  0  0  0  0  0  0  0  0  0  0
  124.4400  130.8782   59.9008 H   0  0  0  0  0  0  0  0  0  0  0  0
  122.9756  130.2633   57.9903 H   0  0  0  0  0  0  0  0  0  0  0  0
  123.9696  129.5958   55.8138 H   0  0  0  0  0  0  0  0  0  0  0  0
  126.4373  129.5248   55.5323 H   0  0  0  0  0  0  0  0  0  0  0  0
  131.2286  130.6801   63.0660 H   0  0  0  0  0  0  0  0  0  0  0  0
  133.3668  131.9747   63.2796 H   0  0  0  0  0  0  0  0  0  0  0  0
  134.6369  132.6382   61.2326 H   0  0  0  0  0  0  0  0  0  0  0  0
  133.7782  132.0076   58.9611 H   0  0  0  0  0  0  0  0  0  0  0  0
  131.2308  124.2005   61.3353 H   0  0  0  0  0  0  0  0  0  0  0  0
  133.9712  123.4488   62.2377 H   0  0  0  0  0  0  0  0  0  0  0  0
  133.6784  125.1876   61.7469 H   0  0  0  0  0  0  0  0  0  0  0  0
  134.2928  125.7411   64.1566 H   0  0  0  0  0  0  0  0  0  0  0  0
  133.1978  126.3613   66.3006 H   0  0  0  0  0  0  0  0  0  0  0  0
  130.8945  125.5809   66.8019 H   0  0  0  0  0  0  0  0  0  0  0  0
  129.6557  124.1894   65.1578 H   0  0  0  0  0  0  0  0  0  0  0  0
  130.7217  123.5484   63.0044 H   0  0  0  0  0  0  0  0  0  0  0  0
  134.3441  118.8204   60.6696 H   0  0  0  0  0  0  0  0  0  0  0  0
  132.9613  116.7307   60.7874 H   0  0  0  0  0  0  0  0  0  0  0  0
  130.4864  116.8822   61.0772 H   0  0  0  0  0  0  0  0  0  0  0  0
  129.3754  119.1253   61.2549 H   0  0  0  0  0  0  0  0  0  0  0  0
  1  2  2  0
  2  3  1  0
  3  4  1  0
  4  5  2  0
  4  6  1  0
  6  7  1  0
  7  8  2  0
  7  9  1  0
  9 10  1  0
 10 11  1  0
 11 12  2  0
 12 13  1  0
 13 14  2  0
 14 15  1  0
 15 16  2  0
  9 17  1  0
 17 18  1  0
 18 19  2  0
 18 20  1  0
 20 21  2  0
 21 22  1  0
 22 23  2  0
 23 24  1  0
 24 25  2  0
 25 26  1  0
 26 27  2  0
  2 28  1  0
 28 29  1  0
 29 30  1  0
 30 31  2  0
 31 32  1  0
 32 33  2  0
 33 34  1  0
 34 35  2  0
 28 36  1  0
 36 37  1  0
 37 38  2  0
 37 39  1  0
 39 40  2  0
 40 41  1  0
 41 42  2  0
 42 43  1  0
 43 44  2  0
 44 45  1  0
 45 46  2  0
 16 11  1  0
 26 17  1  0
 35 30  1  0
 45 36  1  0
 25 20  1  0
 44 39  1  0
  3 47  1  0
  6 48  1  0
  9 49  1  1
 10 50  1  0
 10 51  1  0
 12 52  1  0
 13 53  1  0
 14 54  1  0
 15 55  1  0
 16 56  1  0
 21 57  1  0
 22 58  1  0
 23 59  1  0
 24 60  1  0
 28 61  1  1
 29 62  1  0
 29 63  1  0
 31 64  1  0
 32 65  1  0
 33 66  1  0
 34 67  1  0
 35 68  1  0
 40 69  1  0
 41 70  1  0
 42 71  1  0
 43 72  1  0
M  END
>  <Binding energies>  (1) 
[-11.65]

>  <Ligand effiencies>  (1) 
[-0.24270833333333333]

>  <Interactions>  (1) 
["V-A:PRO:540:CA:4881, V-A:ARG:545:CZ:4924, V-B:ALA:541:CB:9864, V-B:TYR:539:CE1:9847, V-A:ILE:369:CG2:3234, V-A:PRO:540:CB:4883, V-A:LEU:363:CA:3182, V-A:ASP:366:CG:3210, V-A:LEU:475:CD2:4256, V-A:TYR:539:CE1:4873, V-B:ASP:366:CG:8184, V-B:TYR:539:CD1:9845, V-B:ASP:366:CB:8183, V-B:GLU:543:CD:9880, V-B:GLU:543:CB:9878, V-A:HIS:456:CE1:4066, V-B:TYR:539:CZ:9849, V-A:TYR:539:CZ:4875, V-A:GLU:543:CD:4906, V-B:TYR:531:CE1:9764, V-B:TYR:531:CZ:9766, V-B:ASN:370:CB:8216, V-A:PRO:540:C:4879, H-A:TYR:531:OH:4793, V-A:TYR:531:CZ:4792, V-A:TYR:531:CE1:4790, H-B:TYR:539:OH:9850, H-A:ASP:366:OD2:3212, V-B:ASP:366:CA:8181, V-A:MET:535:CE:4833, V-A:PRO:482:CB:4323, V-A:TYR:484:CZ:4344, V-A:PRO:482:CG:4324, V-A:ARG:545:CG:4920, V-A:ARG:545:CD:4921, V-A:ASN:362:CB:3173, V-A:ALA:541:C:4886, V-B:ASP:366:C:8179, V-A:LEU:373:CD1:3277, V-A:SER:385:CA:3404, V-A:SER:385:CB:3406, V-A:ASN:362:C:3169, V-A:ASN:362:CG:3174"]

$$$$
RR19_Rahimova_2017-again1
     RDKit          3D

 71 76  0  0  0  0  0  0  0  0999 V2000
  134.3180  122.7010   60.4520 O   0  0  0  0  0  0  0  0  0  0  0  0
  133.1510  123.0130   60.7030 C   0  0  0  0  0  0  0  0  0  0  0  0
  132.4040  123.9080   60.0130 N   0  0  0  0  0  0  0  0  0  0  0  0
  132.6100  124.5810   58.8410 C   0  0  0  0  0  0  0  0  0  0  0  0
  133.9620  124.6360   57.8440 S   0  0  0  0  0  0  0  0  0  0  0  0
  131.4150  125.2040   58.5270 N   0  0  0  0  0  0  0  0  0  0  0  0
  131.0570  125.7760   57.4240 C   0  0  0  0  0  0  0  0  0  0  0  0
  131.6440  125.8540   56.3260 O   0  0  0  0  0  0  0  0  0  0  0  0
  129.6730  126.5080   57.4660 C   0  0  2  0  0  0  0  0  0  0  0  0
  129.6170  127.5560   58.6270 C   0  0  0  0  0  0  0  0  0  0  0  0
  129.6820  126.9530   60.0290 C   0  0  0  0  0  0  0  0  0  0  0  0
  130.5970  127.4530   60.9600 C   0  0  0  0  0  0  0  0  0  0  0  0
  130.6470  126.9150   62.2430 C   0  0  0  0  0  0  0  0  0  0  0  0
  129.7840  125.8760   62.5900 C   0  0  0  0  0  0  0  0  0  0  0  0
  128.8730  125.3700   61.6650 C   0  0  0  0  0  0  0  0  0  0  0  0
  128.8240  125.9080   60.3820 C   0  0  0  0  0  0  0  0  0  0  0  0
  128.4990  125.5760   57.4090 N   0  0  0  0  0  0  0  0  0  0  0  0
  127.2430  125.9890   57.7370 C   0  0  0  0  0  0  0  0  0  0  0  0
  126.8990  127.1080   58.1190 O   0  0  0  0  0  0  0  0  0  0  0  0
  126.3730  124.8000   57.5400 C   0  0  0  0  0  0  0  0  0  0  0  0
  125.0000  124.6320   57.7250 C   0  0  0  0  0  0  0  0  0  0  0  0
  124.4380  123.3790   57.4570 C   0  0  0  0  0  0  0  0  0  0  0  0
  125.2440  122.3230   57.0100 C   0  0  0  0  0  0  0  0  0  0  0  0
  126.6180  122.5130   56.8310 C   0  0  0  0  0  0  0  0  0  0  0  0
  127.1600  123.7700   57.1060 C   0  0  0  0  0  0  0  0  0  0  0  0
  128.5530  124.2670   57.0110 C   0  0  0  0  0  0  0  0  0  0  0  0
  129.5440  123.6340   56.6500 O   0  0  0  0  0  0  0  0  0  0  0  0
  132.4200  122.3550   61.9110 C   0  0  2  0  0  0  0  0  0  0  0  0
  131.1880  121.4970   61.5050 C   0  0  0  0  0  0  0  0  0  0  0  0
  131.5360  120.0860   61.0650 C   0  0  0  0  0  0  0  0  0  0  0  0
  132.8690  119.7540   60.7450 C   0  0  0  0  0  0  0  0  0  0  0  0
  133.2040  118.4410   60.4390 C   0  0  0  0  0  0  0  0  0  0  0  0
  132.2360  117.4460   60.4730 C   0  0  0  0  0  0  0  0  0  0  0  0
  130.9270  117.7520   60.8230 C   0  0  0  0  0  0  0  0  0  0  0  0
  130.5720  119.0580   61.1330 C   0  0  0  0  0  0  0  0  0  0  0  0
  132.1020  123.3050   63.0210 N   0  0  0  0  0  0  0  0  0  0  0  0
  130.9950  123.1480   63.8000 C   0  0  0  0  0  0  0  0  0  0  0  0
  130.1020  122.3100   63.6690 O   0  0  0  0  0  0  0  0  0  0  0  0
  131.0960  124.1950   64.8460 C   0  0  0  0  0  0  0  0  0  0  0  0
  130.2550  124.5010   65.9170 C   0  0  0  0  0  0  0  0  0  0  0  0
  130.6160  125.5480   66.7730 C   0  0  0  0  0  0  0  0  0  0  0  0
  131.7960  126.2690   66.5480 C   0  0  0  0  0  0  0  0  0  0  0  0
  132.6240  125.9490   65.4670 C   0  0  0  0  0  0  0  0  0  0  0  0
  132.2480  124.9000   64.6270 C   0  0  0  0  0  0  0  0  0  0  0  0
  132.9190  124.3170   63.4390 C   0  0  0  0  0  0  0  0  0  0  0  0
  133.9920  124.6650   62.9450 O   0  0  0  0  0  0  0  0  0  0  0  0
  131.4780  124.0420   60.3900 H   0  0  0  0  0  0  0  0  0  0  0  0
  129.5832  127.0850   56.5338 H   0  0  0  0  0  0  0  0  0  0  0  0
  130.4668  128.2445   58.5095 H   0  0  0  0  0  0  0  0  0  0  0  0
  128.6417  128.0586   58.5477 H   0  0  0  0  0  0  0  0  0  0  0  0
  131.2769  128.2708   60.6791 H   0  0  0  0  0  0  0  0  0  0  0  0
  131.3637  127.3075   62.9794 H   0  0  0  0  0  0  0  0  0  0  0  0
  129.8228  125.4516   63.6041 H   0  0  0  0  0  0  0  0  0  0  0  0
  128.1963  124.5499   61.9470 H   0  0  0  0  0  0  0  0  0  0  0  0
  128.1098  125.5105   59.6459 H   0  0  0  0  0  0  0  0  0  0  0  0
  124.3735  125.4662   58.0738 H   0  0  0  0  0  0  0  0  0  0  0  0
  123.3584  123.2219   57.5978 H   0  0  0  0  0  0  0  0  0  0  0  0
  124.7943  121.3415   56.7993 H   0  0  0  0  0  0  0  0  0  0  0  0
  127.2580  121.6897   56.4810 H   0  0  0  0  0  0  0  0  0  0  0  0
  133.1625  121.6533   62.3188 H   0  0  0  0  0  0  0  0  0  0  0  0
  130.5112  121.4326   62.3698 H   0  0  0  0  0  0  0  0  0  0  0  0
  130.7245  121.9948   60.6405 H   0  0  0  0  0  0  0  0  0  0  0  0
  133.6436  120.5350   60.7377 H   0  0  0  0  0  0  0  0  0  0  0  0
  134.2400  118.1886   60.1687 H   0  0  0  0  0  0  0  0  0  0  0  0
  132.5072  116.4100   60.2215 H   0  0  0  0  0  0  0  0  0  0  0  0
  130.1683  116.9561   60.8547 H   0  0  0  0  0  0  0  0  0  0  0  0
  129.5393  119.2912   61.4316 H   0  0  0  0  0  0  0  0  0  0  0  0
  129.3288  123.9318   66.0847 H   0  0  0  0  0  0  0  0  0  0  0  0
  129.9707  125.8057   67.6257 H   0  0  0  0  0  0  0  0  0  0  0  0
  132.0727  127.0908   67.2248 H   0  0  0  0  0  0  0  0  0  0  0  0
  133.5511  126.5118   65.2831 H   0  0  0  0  0  0  0  0  0  0  0  0
  1  2  2  0
  2  3  1  0
  3  4  1  0
  4  5  2  0
  4  6  1  0
  6  7  2  0
  7  8  1  0
  7  9  1  0
  9 10  1  0
 10 11  1  0
 11 12  2  0
 12 13  1  0
 13 14  2  0
 14 15  1  0
 15 16  2  0
  9 17  1  0
 17 18  1  0
 18 19  2  0
 18 20  1  0
 20 21  2  0
 21 22  1  0
 22 23  2  0
 23 24  1  0
 24 25  2  0
 25 26  1  0
 26 27  2  0
  2 28  1  0
 28 29  1  0
 29 30  1  0
 30 31  2  0
 31 32  1  0
 32 33  2  0
 33 34  1  0
 34 35  2  0
 28 36  1  0
 36 37  1  0
 37 38  2  0
 37 39  1  0
 39 40  2  0
 40 41  1  0
 41 42  2  0
 42 43  1  0
 43 44  2  0
 44 45  1  0
 45 46  2  0
 16 11  1  0
 26 17  1  0
 35 30  1  0
 45 36  1  0
 25 20  1  0
 44 39  1  0
  3 47  1  0
  9 48  1  6
 10 49  1  0
 10 50  1  0
 12 51  1  0
 13 52  1  0
 14 53  1  0
 15 54  1  0
 16 55  1  0
 21 56  1  0
 22 57  1  0
 23 58  1  0
 24 59  1  0
 28 60  1  1
 29 61  1  0
 29 62  1  0
 31 63  1  0
 32 64  1  0
 33 65  1  0
 34 66  1  0
 35 67  1  0
 40 68  1  0
 41 69  1  0
 42 70  1  0
 43 71  1  0
M  CHG  1   8  -1
M  END
>  <Binding energies>  (1) 
[-10.73]

>  <Ligand effiencies>  (1) 
[-0.22829787234042553]

>  <Interactions>  (1) 
["V-A:ARG:545:CZ:4924, V-A:GLY:454:CA:4046, V-B:TYR:539:CE1:9847, V-A:ILE:369:CG2:3234, V-A:ILE:369:CD1:3236, H-A:GLY:454:N:4047, V-A:ASP:366:CG:3210, V-A:LEU:475:CD2:4256, V-B:TYR:531:CE2:9765, V-B:ILE:538:CA:9832, V-B:PRO:540:CA:9855, V-B:ILE:538:CG2:9835, V-B:ASP:366:CG:8184, V-B:PRO:540:CB:9857, V-B:PRO:540:CD:9859, V-B:ILE:538:CB:9834, V-B:LEU:363:CD1:8160, V-B:TYR:539:CD1:9845, V-B:ASP:366:CB:8183, V-B:PRO:540:N:9856, H-B:TYR:531:OH:9767, V-B:TYR:539:C:9839, V-B:GLU:543:CD:9880, V-B:GLU:543:CG:9879, V-B:GLU:543:CB:9878, V-A:HIS:456:CE1:4066, V-A:ASP:366:CA:3207, V-A:ASP:366:CB:3209, V-B:TYR:539:CZ:9849, V-A:GLU:543:CD:4906, V-B:TYR:531:CZ:9766, V-B:PRO:540:CG:9858, H-A:TYR:531:OH:4793, H-B:TYR:539:OH:9850, V-A:ILE:369:CB:3233, V-A:ASP:366:C:3205, V-B:MET:535:CE:9807, V-A:PRO:482:CB:4323, V-A:TYR:484:CZ:4344, V-A:TYR:484:CE2:4343, V-A:PRO:482:CG:4324, V-A:ARG:545:CG:4920, V-A:ARG:545:CD:4921, V-A:LEU:373:CD1:3277, V-A:SER:385:CA:3404, V-A:SER:385:CB:3406"]

$$$$
RR1_Rahimova_2017
     RDKit          3D

 68 71  0  0  0  0  0  0  0  0999 V2000
  133.5630  131.2910   57.1160 C   0  0  0  0  0  0  0  0  0  0  0  0
  132.3190  131.9320   56.8570 O   0  0  0  0  0  0  0  0  0  0  0  0
  131.3040  131.8350   57.7890 C   0  0  0  0  0  0  0  0  0  0  0  0
  129.9640  132.1680   57.5360 C   0  0  0  0  0  0  0  0  0  0  0  0
  129.0090  132.0450   58.5420 C   0  0  0  0  0  0  0  0  0  0  0  0
  129.3720  131.5860   59.8080 C   0  0  0  0  0  0  0  0  0  0  0  0
  128.3450  131.5400   60.7700 N   0  0  0  0  0  0  0  0  0  0  0  0
  127.9200  132.5050   61.6130 C   0  0  0  0  0  0  0  0  0  0  0  0
  128.4380  133.6170   61.7260 O   0  0  0  0  0  0  0  0  0  0  0  0
  126.7010  132.1180   62.4660 C   0  0  0  0  0  0  0  0  0  0  0  0
  125.9230  130.5200   62.0420 S   0  0  0  0  0  0  0  0  0  0  0  0
  127.1420  129.4630   62.7490 C   0  0  0  0  0  0  0  0  0  0  0  0
  128.0130  128.7760   62.0540 N   0  0  0  0  0  0  0  0  0  0  0  0
  128.7290  128.1430   62.9780 C   0  0  0  0  0  0  0  0  0  0  0  0
  129.8720  127.2340   62.6260 C   0  0  0  0  0  0  0  0  0  0  0  0
  130.5650  127.3620   61.4120 C   0  0  0  0  0  0  0  0  0  0  0  0
  131.6210  126.5000   61.1110 C   0  0  0  0  0  0  0  0  0  0  0  0
  131.9650  125.5200   62.0410 C   0  0  0  0  0  0  0  0  0  0  0  0
  131.3170  125.3680   63.2230 N   0  0  0  0  0  0  0  0  0  0  0  0
  130.2930  126.2170   63.4970 C   0  0  0  0  0  0  0  0  0  0  0  0
  128.3700  128.3730   64.2270 N   0  0  0  0  0  0  0  0  0  0  0  0
  127.3480  129.2210   64.0830 N   0  0  0  0  0  0  0  0  0  0  0  0
  126.6570  129.7590   65.2550 C   0  0  0  0  0  0  0  0  0  0  0  0
  127.4670  129.7190   66.5620 C   0  0  0  0  0  0  0  0  0  0  0  0
  127.6290  130.7410   67.2380 O   0  0  0  0  0  0  0  0  0  0  0  0
  127.9650  128.5090   66.8840 N   0  0  0  0  0  0  0  0  0  0  0  0
  128.5800  128.3630   68.1200 N   0  0  0  0  0  0  0  0  0  0  0  0
  128.1310  127.3850   68.9360 C   0  0  0  0  0  0  0  0  0  0  0  0
  127.2810  126.5480   68.6110 O   0  0  0  0  0  0  0  0  0  0  0  0
  128.7610  127.3380   70.3130 C   0  0  0  0  0  0  0  0  0  0  0  0
  130.1530  127.2920   70.4430 C   0  0  0  0  0  0  0  0  0  0  0  0
  130.7520  127.2370   71.6970 C   0  0  0  0  0  0  0  0  0  0  0  0
  129.9730  127.2180   72.8650 C   0  0  0  0  0  0  0  0  0  0  0  0
  130.5050  127.1500   74.1400 O   0  0  0  0  0  0  0  0  0  0  0  0
  131.6830  126.3850   74.3690 C   0  0  0  0  0  0  0  0  0  0  0  0
  128.5770  127.2570   72.7560 C   0  0  0  0  0  0  0  0  0  0  0  0
  127.8540  127.2160   73.9360 O   0  0  0  0  0  0  0  0  0  0  0  0
  126.8330  128.1800   74.1700 C   0  0  0  0  0  0  0  0  0  0  0  0
  127.9840  127.3190   71.4820 C   0  0  0  0  0  0  0  0  0  0  0  0
  130.7110  131.2520   60.0640 C   0  0  0  0  0  0  0  0  0  0  0  0
  131.6630  131.3750   59.0560 C   0  0  0  0  0  0  0  0  0  0  0  0
  133.7157  131.2123   58.2025 H   0  0  0  0  0  0  0  0  0  0  0  0
  133.5560  130.2842   56.6728 H   0  0  0  0  0  0  0  0  0  0  0  0
  134.3788  131.8810   56.6728 H   0  0  0  0  0  0  0  0  0  0  0  0
  129.6673  132.5274   56.5396 H   0  0  0  0  0  0  0  0  0  0  0  0
  127.9617  132.3115   58.3369 H   0  0  0  0  0  0  0  0  0  0  0  0
  127.8910  130.6420   60.8530 H   0  0  0  0  0  0  0  0  0  0  0  0
  127.0234  132.0703   63.5166 H   0  0  0  0  0  0  0  0  0  0  0  0
  125.9389  132.8870   62.2718 H   0  0  0  0  0  0  0  0  0  0  0  0
  130.2749  128.1444   60.6952 H   0  0  0  0  0  0  0  0  0  0  0  0
  132.1691  126.5919   60.1617 H   0  0  0  0  0  0  0  0  0  0  0  0
  132.7978  124.8408   61.8062 H   0  0  0  0  0  0  0  0  0  0  0  0
  129.7642  126.1012   64.4546 H   0  0  0  0  0  0  0  0  0  0  0  0
  126.3970  130.8073   65.0465 H   0  0  0  0  0  0  0  0  0  0  0  0
  125.7797  129.1155   65.4171 H   0  0  0  0  0  0  0  0  0  0  0  0
  127.6750  127.6350   66.4680 H   0  0  0  0  0  0  0  0  0  0  0  0
  128.8860  129.2530   68.4880 H   0  0  0  0  0  0  0  0  0  0  0  0
  130.7826  127.2994   69.5410 H   0  0  0  0  0  0  0  0  0  0  0  0
  131.8489  127.2080   71.7747 H   0  0  0  0  0  0  0  0  0  0  0  0
  131.8465  126.2788   75.4516 H   0  0  0  0  0  0  0  0  0  0  0  0
  131.5673  125.3892   73.9162 H   0  0  0  0  0  0  0  0  0  0  0  0
  132.5456  126.8957   73.9162 H   0  0  0  0  0  0  0  0  0  0  0  0
  126.6940  128.3113   75.2533 H   0  0  0  0  0  0  0  0  0  0  0  0
  127.1246  129.1399   73.7188 H   0  0  0  0  0  0  0  0  0  0  0  0
  125.8914  127.8338   73.7188 H   0  0  0  0  0  0  0  0  0  0  0  0
  126.8876  127.3533   71.3999 H   0  0  0  0  0  0  0  0  0  0  0  0
  131.0079  130.8933   61.0606 H   0  0  0  0  0  0  0  0  0  0  0  0
  132.7099  131.1065   59.2608 H   0  0  0  0  0  0  0  0  0  0  0  0
  1  2  1  0
  2  3  1  0
  3  4  2  0
  4  5  1  0
  5  6  2  0
  6  7  1  0
  7  8  1  0
  8  9  2  0
  8 10  1  0
 10 11  1  0
 11 12  1  0
 12 13  2  0
 13 14  1  0
 14 15  1  0
 15 16  2  0
 16 17  1  0
 17 18  2  0
 18 19  1  0
 19 20  2  0
 14 21  2  0
 21 22  1  0
 22 23  1  0
 23 24  1  0
 24 25  2  0
 24 26  1  0
 26 27  1  0
 27 28  1  0
 28 29  2  0
 28 30  1  0
 30 31  2  0
 31 32  1  0
 32 33  2  0
 33 34  1  0
 34 35  1  0
 33 36  1  0
 36 37  1  0
 37 38  1  0
 36 39  2  0
  6 40  1  0
 40 41  2  0
 41  3  1  0
 22 12  1  0
 39 30  1  0
 20 15  1  0
  1 42  1  0
  1 43  1  0
  1 44  1  0
  4 45  1  0
  5 46  1  0
  7 47  1  0
 10 48  1  0
 10 49  1  0
 16 50  1  0
 17 51  1  0
 18 52  1  0
 20 53  1  0
 23 54  1  0
 23 55  1  0
 26 56  1  0
 27 57  1  0
 31 58  1  0
 32 59  1  0
 35 60  1  0
 35 61  1  0
 35 62  1  0
 38 63  1  0
 38 64  1  0
 38 65  1  0
 39 66  1  0
 40 67  1  0
 41 68  1  0
M  END
>  <Binding energies>  (1) 
[-8.28]

>  <Ligand effiencies>  (1) 
[-0.18818181818181817]

>  <Interactions>  (1) 
["V-A:PRO:540:CA:4881, V-A:TYR:531:CE2:4791, V-A:PRO:540:CB:4883, V-A:LEU:363:CA:3182, V-A:PRO:540:N:4882, V-A:ASP:366:CG:3210, V-A:LEU:363:CD1:3186, V-A:TYR:539:CE1:4873, H-A:ARG:545:NH2:4926, H-B:TYR:484:OH:9319, V-A:TYR:539:CD1:4871, V-B:GLU:543:CD:9880, V-B:GLU:543:CG:9879, H-A:GLU:543:OE2:4908, V-A:HIS:456:CE1:4066, V-A:ASP:366:CB:3209, V-A:ALA:541:CB:4890, H-B:GLU:543:OE2:9882, V-B:HIS:456:CE1:9040, V-A:GLU:543:CB:4904, V-A:GLU:543:CD:4906, V-A:GLU:543:CG:4905, V-B:GLU:543:C:9874, V-B:GLY:544:CA:9886, V-B:HIS:456:CD2:9039, V-B:LYS:547:CE:9922, V-A:LYS:547:CE:4948, V-A:GLY:544:C:4910, V-A:HIS:456:CG:4063, V-B:GLY:544:C:9884, V-A:HIS:456:CD2:4065, H-A:LYS:547:NZ:4949, V-B:HIS:456:CG:9037, H-B:LYS:547:NZ:9923, V-A:GLY:544:CA:4912, H-B:HIS:456:NE2:9041, V-B:HIS:456:CB:9036, H-A:TYR:531:OH:4793, V-A:TYR:531:CZ:4792, V-B:TYR:484:CZ:9318, H-A:ALA:541:N:4889, H-A:GLU:543:O:4901"]

$$$$
RR20_Rahimova_2017
     RDKit          3D

 68 73  0  0  0  0  0  0  0  0999 V2000
  131.4580  116.4440   60.0420 C   0  0  0  0  0  0  0  0  0  0  0  0
  131.9330  117.8360   60.4160 C   0  0  0  0  0  0  0  0  0  0  0  0
  133.2870  118.1590   60.3130 C   0  0  0  0  0  0  0  0  0  0  0  0
  133.7240  119.4380   60.6470 C   0  0  0  0  0  0  0  0  0  0  0  0
  132.8130  120.4010   61.0980 C   0  0  0  0  0  0  0  0  0  0  0  0
  133.3050  121.7910   61.4350 C   0  0  0  0  0  0  0  0  0  0  0  0
  134.0620  121.9100   62.4020 O   0  0  0  0  0  0  0  0  0  0  0  0
  132.9130  122.8460   60.6630 N   0  0  0  0  0  0  0  0  0  0  0  0
  133.8500  123.5310   59.7580 C   0  0  0  0  0  0  0  0  0  0  0  0
  133.0260  124.5320   58.9660 C   0  0  0  0  0  0  0  0  0  0  0  0
  131.6200  124.0760   59.2120 C   0  0  0  0  0  0  0  0  0  0  0  0
  130.4310  124.5630   58.6690 C   0  0  0  0  0  0  0  0  0  0  0  0
  129.1930  124.1150   59.1470 C   0  0  0  0  0  0  0  0  0  0  0  0
  127.9110  124.6320   58.5570 C   0  0  0  0  0  0  0  0  0  0  0  0
  127.6320  125.9190   58.6900 N   0  0  0  0  0  0  0  0  0  0  0  0
  126.5040  126.2630   58.1220 C   0  0  0  0  0  0  0  0  0  0  0  0
  125.9220  127.5200   58.0690 N   0  0  0  0  0  0  0  0  0  0  0  0
  126.4940  128.6650   57.6230 C   0  0  0  0  0  0  0  0  0  0  0  0
  127.6390  128.7320   57.1720 O   0  0  0  0  0  0  0  0  0  0  0  0
  125.6500  129.9610   57.6580 C   0  0  0  0  0  0  0  0  0  0  0  0
  125.4380  130.4730   59.0250 N   0  0  0  0  0  0  0  0  0  0  0  0
  124.0290  130.8010   59.2900 C   0  0  0  0  0  0  0  0  0  0  0  0
  123.9040  131.5750   60.6220 C   0  0  0  0  0  0  0  0  0  0  0  0
  124.7150  130.9480   61.7560 C   0  0  0  0  0  0  0  0  0  0  0  0
  124.5200  131.3410   63.0840 C   0  0  0  0  0  0  0  0  0  0  0  0
  125.2860  130.7980   64.1130 C   0  0  0  0  0  0  0  0  0  0  0  0
  126.2600  129.8480   63.8220 C   0  0  0  0  0  0  0  0  0  0  0  0
  126.4580  129.4410   62.5050 C   0  0  0  0  0  0  0  0  0  0  0  0
  125.6970  129.9790   61.4620 C   0  0  0  0  0  0  0  0  0  0  0  0
  125.8750  129.4900   60.0240 C   0  0  0  0  0  0  0  0  0  0  0  0
  125.6670  124.9660   57.3620 S   0  0  0  0  0  0  0  0  0  0  0  0
  126.9410  123.8790   57.8610 C   0  0  0  0  0  0  0  0  0  0  0  0
  126.8550  122.4020   57.5470 C   0  0  0  0  0  0  0  0  0  0  0  0
  129.1770  123.2100   60.2190 C   0  0  0  0  0  0  0  0  0  0  0  0
  130.3650  122.7360   60.7760 C   0  0  0  0  0  0  0  0  0  0  0  0
  131.5960  123.1260   60.2330 C   0  0  0  0  0  0  0  0  0  0  0  0
  131.4520  120.0790   61.1700 C   0  0  0  0  0  0  0  0  0  0  0  0
  131.0140  118.8000   60.8360 C   0  0  0  0  0  0  0  0  0  0  0  0
  131.2607  115.8658   60.9567 H   0  0  0  0  0  0  0  0  0  0  0  0
  130.5345  116.5187   59.4491 H   0  0  0  0  0  0  0  0  0  0  0  0
  132.2345  115.9386   59.4491 H   0  0  0  0  0  0  0  0  0  0  0  0
  134.0083  117.4035   59.9682 H   0  0  0  0  0  0  0  0  0  0  0  0
  134.7901  119.6933   60.5562 H   0  0  0  0  0  0  0  0  0  0  0  0
  134.6269  124.0513   60.3373 H   0  0  0  0  0  0  0  0  0  0  0  0
  134.3569  122.8163   59.0929 H   0  0  0  0  0  0  0  0  0  0  0  0
  133.1812  125.5553   59.3385 H   0  0  0  0  0  0  0  0  0  0  0  0
  133.2915  124.5663   57.8991 H   0  0  0  0  0  0  0  0  0  0  0  0
  130.4659  125.3055   57.8582 H   0  0  0  0  0  0  0  0  0  0  0  0
  124.9720  127.5830   58.4080 H   0  0  0  0  0  0  0  0  0  0  0  0
  126.1686  130.7332   57.0708 H   0  0  0  0  0  0  0  0  0  0  0  0
  124.6615  129.7218   57.2389 H   0  0  0  0  0  0  0  0  0  0  0  0
  123.6400  131.4229   58.4702 H   0  0  0  0  0  0  0  0  0  0  0  0
  123.4499  129.8684   59.3604 H   0  0  0  0  0  0  0  0  0  0  0  0
  124.2596  132.6039   60.4642 H   0  0  0  0  0  0  0  0  0  0  0  0
  122.8456  131.5473   60.9203 H   0  0  0  0  0  0  0  0  0  0  0  0
  123.7499  132.0904   63.3195 H   0  0  0  0  0  0  0  0  0  0  0  0
  125.1214  131.1192   65.1521 H   0  0  0  0  0  0  0  0  0  0  0  0
  126.8717  129.4198   64.6297 H   0  0  0  0  0  0  0  0  0  0  0  0
  127.2248  128.6847   62.2815 H   0  0  0  0  0  0  0  0  0  0  0  0
  126.9401  129.2711   59.8576 H   0  0  0  0  0  0  0  0  0  0  0  0
  125.2474  128.5950   59.9010 H   0  0  0  0  0  0  0  0  0  0  0  0
  126.8216  121.8290   58.4854 H   0  0  0  0  0  0  0  0  0  0  0  0
  125.9438  122.2036   56.9636 H   0  0  0  0  0  0  0  0  0  0  0  0
  127.7370  122.0992   56.9636 H   0  0  0  0  0  0  0  0  0  0  0  0
  128.2137  122.8692   60.6262 H   0  0  0  0  0  0  0  0  0  0  0  0
  130.3351  122.0567   61.6407 H   0  0  0  0  0  0  0  0  0  0  0  0
  130.7257  120.8398   61.4918 H   0  0  0  0  0  0  0  0  0  0  0  0
  129.9451  118.5492   60.9029 H   0  0  0  0  0  0  0  0  0  0  0  0
  1  2  1  0
  2  3  2  0
  3  4  1  0
  4  5  2  0
  5  6  1  0
  6  7  2  0
  6  8  1  0
  8  9  1  0
  9 10  1  0
 10 11  1  0
 11 12  2  0
 12 13  1  0
 13 14  1  0
 14 15  1  0
 15 16  2  0
 16 17  1  0
 17 18  1  0
 18 19  2  0
 18 20  1  0
 20 21  1  0
 21 22  1  0
 22 23  1  0
 23 24  1  0
 24 25  2  0
 25 26  1  0
 26 27  2  0
 27 28  1  0
 28 29  2  0
 29 30  1  0
 16 31  1  0
 31 32  1  0
 32 33  1  0
 13 34  2  0
 34 35  1  0
 35 36  2  0
  5 37  1  0
 37 38  2  0
 38  2  1  0
 36  8  1  0
 36 11  1  0
 32 14  2  0
 30 21  1  0
 29 24  1  0
  1 39  1  0
  1 40  1  0
  1 41  1  0
  3 42  1  0
  4 43  1  0
  9 44  1  0
  9 45  1  0
 10 46  1  0
 10 47  1  0
 12 48  1  0
 17 49  1  0
 20 50  1  0
 20 51  1  0
 22 52  1  0
 22 53  1  0
 23 54  1  0
 23 55  1  0
 25 56  1  0
 26 57  1  0
 27 58  1  0
 28 59  1  0
 30 60  1  0
 30 61  1  0
 33 62  1  0
 33 63  1  0
 33 64  1  0
 34 65  1  0
 35 66  1  0
 37 67  1  0
 38 68  1  0
M  END
>  <Binding energies>  (1) 
[-9.79]

>  <Ligand effiencies>  (1) 
[-0.251025641025641]

>  <Interactions>  (1) 
["V-B:TYR:539:CE1:9847, V-A:ILE:369:CG2:3234, V-B:ILE:369:CG2:8208, V-A:ILE:369:CD1:3236, H-A:GLY:454:N:4047, V-B:ILE:369:CD1:8210, V-A:ASP:366:CG:3210, V-A:LEU:475:CD2:4256, V-A:TYR:539:CE1:4873, V-B:TYR:531:CE2:9765, V-B:PRO:540:CA:9855, V-B:ASP:366:CG:8184, V-B:PRO:540:CB:9857, V-B:PRO:540:CD:9859, V-B:TYR:539:CD1:9845, V-B:ASP:366:CB:8183, V-B:PRO:540:N:9856, H-B:TYR:531:OH:9767, V-B:ILE:369:CB:8207, H-A:TYR:539:OH:4876, V-B:TYR:539:C:9839, V-A:ASP:366:CA:3207, V-A:ASP:366:CB:3209, V-B:TYR:539:CZ:9849, V-A:TYR:539:CZ:4875, V-B:TYR:531:CZ:9766, V-B:GLY:454:CA:9020, V-A:ILE:369:CB:3233, V-B:ASP:366:CA:8181, H-B:ASP:366:OD2:8186, V-A:PRO:482:CG:4324, V-B:TYR:539:CA:9841, V-A:LEU:373:CD1:3277, V-A:SER:385:CA:3404, V-A:SER:385:CB:3406, V-A:SER:385:C:3402, H-B:ASP:366:OD1:8185"]

$$$$
RR20_Rahimova_2017-again1
     RDKit          3D

 68 73  0  0  0  0  0  0  0  0999 V2000
  131.3090  116.4600   59.9440 C   0  0  0  0  0  0  0  0  0  0  0  0
  131.8270  117.8250   60.3640 C   0  0  0  0  0  0  0  0  0  0  0  0
  133.1930  118.1030   60.2890 C   0  0  0  0  0  0  0  0  0  0  0  0
  133.6680  119.3560   60.6660 C   0  0  0  0  0  0  0  0  0  0  0  0
  132.7840  120.3370   61.1320 C   0  0  0  0  0  0  0  0  0  0  0  0
  133.3170  121.6980   61.5200 C   0  0  0  0  0  0  0  0  0  0  0  0
  134.0930  121.7580   62.4760 O   0  0  0  0  0  0  0  0  0  0  0  0
  132.9470  122.7920   60.7920 N   0  0  0  0  0  0  0  0  0  0  0  0
  133.8850  123.4550   59.8710 C   0  0  0  0  0  0  0  0  0  0  0  0
  133.0860  124.5190   59.1370 C   0  0  0  0  0  0  0  0  0  0  0  0
  131.6670  124.1270   59.4260 C   0  0  0  0  0  0  0  0  0  0  0  0
  130.4850  124.6920   58.9470 C   0  0  0  0  0  0  0  0  0  0  0  0
  129.2420  124.2950   59.4630 C   0  0  0  0  0  0  0  0  0  0  0  0
  127.9700  124.9070   58.9520 C   0  0  0  0  0  0  0  0  0  0  0  0
  127.8090  126.2150   59.0800 N   0  0  0  0  0  0  0  0  0  0  0  0
  126.6670  126.6620   58.6160 C   0  0  0  0  0  0  0  0  0  0  0  0
  126.1710  127.9390   58.6290 N   0  0  0  0  0  0  0  0  0  0  0  0
  126.5000  128.8520   59.4800 C   0  0  0  0  0  0  0  0  0  0  0  0
  127.3430  128.8610   60.3970 O   0  0  0  0  0  0  0  0  0  0  0  0
  125.7140  130.1690   59.3190 C   0  0  0  0  0  0  0  0  0  0  0  0
  124.6020  130.2590   60.4030 N   0  0  2  0  0  0  0  0  0  0  0  0
  123.9490  131.6550   60.4670 C   0  0  0  0  0  0  0  0  0  0  0  0
  124.9800  132.6970   60.9370 C   0  0  0  0  0  0  0  0  0  0  0  0
  125.7420  132.2670   62.1870 C   0  0  0  0  0  0  0  0  0  0  0  0
  126.3900  133.2290   62.9710 C   0  0  0  0  0  0  0  0  0  0  0  0
  127.1340  132.8690   64.0910 C   0  0  0  0  0  0  0  0  0  0  0  0
  127.2390  131.5290   64.4450 C   0  0  0  0  0  0  0  0  0  0  0  0
  126.5890  130.5620   63.6830 C   0  0  0  0  0  0  0  0  0  0  0  0
  125.8300  130.9050   62.5590 C   0  0  0  0  0  0  0  0  0  0  0  0
  125.0960  129.7960   61.7950 C   0  0  0  0  0  0  0  0  0  0  0  0
  125.6580  125.4170   57.9800 S   0  0  0  0  0  0  0  0  0  0  0  0
  126.8950  124.2360   58.3350 C   0  0  0  0  0  0  0  0  0  0  0  0
  126.7010  122.7820   57.9580 C   0  0  0  0  0  0  0  0  0  0  0  0
  129.2210  123.3550   60.5020 C   0  0  0  0  0  0  0  0  0  0  0  0
  130.4030  122.8020   60.9960 C   0  0  0  0  0  0  0  0  0  0  0  0
  131.6310  123.1470   60.4190 C   0  0  0  0  0  0  0  0  0  0  0  0
  131.4120  120.0600   61.1740 C   0  0  0  0  0  0  0  0  0  0  0  0
  130.9360  118.8070   60.7970 C   0  0  0  0  0  0  0  0  0  0  0  0
  131.0823  115.8625   60.8393 H   0  0  0  0  0  0  0  0  0  0  0  0
  130.3951  116.5832   59.3443 H   0  0  0  0  0  0  0  0  0  0  0  0
  132.0746  115.9459   59.3443 H   0  0  0  0  0  0  0  0  0  0  0  0
  133.8930  117.3330   59.9325 H   0  0  0  0  0  0  0  0  0  0  0  0
  134.7435  119.5767   60.5975 H   0  0  0  0  0  0  0  0  0  0  0  0
  134.7079  123.9186   60.4348 H   0  0  0  0  0  0  0  0  0  0  0  0
  134.3299  122.7350   59.1684 H   0  0  0  0  0  0  0  0  0  0  0  0
  133.3078  125.5223   59.5296 H   0  0  0  0  0  0  0  0  0  0  0  0
  133.3134  124.5704   58.0620 H   0  0  0  0  0  0  0  0  0  0  0  0
  130.5277  125.4563   58.1570 H   0  0  0  0  0  0  0  0  0  0  0  0
  126.4019  131.0201   59.4308 H   0  0  0  0  0  0  0  0  0  0  0  0
  125.2501  130.1938   58.3219 H   0  0  0  0  0  0  0  0  0  0  0  0
  123.8760  129.6170   60.1110 H   0  0  0  0  0  0  0  0  0  0  0  0
  123.5812  131.9313   59.4678 H   0  0  0  0  0  0  0  0  0  0  0  0
  123.1109  131.6295   61.1790 H   0  0  0  0  0  0  0  0  0  0  0  0
  125.7042  132.8628   60.1258 H   0  0  0  0  0  0  0  0  0  0  0  0
  124.4266  133.6132   61.1905 H   0  0  0  0  0  0  0  0  0  0  0  0
  126.3095  134.2911   62.6963 H   0  0  0  0  0  0  0  0  0  0  0  0
  127.6362  133.6409   64.6927 H   0  0  0  0  0  0  0  0  0  0  0  0
  127.8327  131.2340   65.3228 H   0  0  0  0  0  0  0  0  0  0  0  0
  126.6742  129.5039   63.9714 H   0  0  0  0  0  0  0  0  0  0  0  0
  125.7823  128.9469   61.6608 H   0  0  0  0  0  0  0  0  0  0  0  0
  124.2119  129.5135   62.3854 H   0  0  0  0  0  0  0  0  0  0  0  0
  126.6199  122.1741   58.8712 H   0  0  0  0  0  0  0  0  0  0  0  0
  125.7808  122.6767   57.3645 H   0  0  0  0  0  0  0  0  0  0  0  0
  127.5614  122.4392   57.3645 H   0  0  0  0  0  0  0  0  0  0  0  0
  128.2575  123.0482   60.9350 H   0  0  0  0  0  0  0  0  0  0  0  0
  130.3700  122.0954   61.8384 H   0  0  0  0  0  0  0  0  0  0  0  0
  130.7069  120.8361   61.5064 H   0  0  0  0  0  0  0  0  0  0  0  0
  129.8582  118.5917   60.8406 H   0  0  0  0  0  0  0  0  0  0  0  0
  1  2  1  0
  2  3  2  0
  3  4  1  0
  4  5  2  0
  5  6  1  0
  6  7  2  0
  6  8  1  0
  8  9  1  0
  9 10  1  0
 10 11  1  0
 11 12  2  0
 12 13  1  0
 13 14  1  0
 14 15  1  0
 15 16  2  0
 16 17  1  0
 17 18  2  0
 18 19  1  0
 18 20  1  0
 20 21  1  0
 21 22  1  0
 22 23  1  0
 23 24  1  0
 24 25  2  0
 25 26  1  0
 26 27  2  0
 27 28  1  0
 28 29  2  0
 29 30  1  0
 16 31  1  0
 31 32  1  0
 32 33  1  0
 13 34  2  0
 34 35  1  0
 35 36  2  0
  5 37  1  0
 37 38  2  0
 38  2  1  0
 36  8  1  0
 36 11  1  0
 32 14  2  0
 30 21  1  0
 29 24  1  0
  1 39  1  0
  1 40  1  0
  1 41  1  0
  3 42  1  0
  4 43  1  0
  9 44  1  0
  9 45  1  0
 10 46  1  0
 10 47  1  0
 12 48  1  0
 20 49  1  0
 20 50  1  0
 21 51  1  6
 22 52  1  0
 22 53  1  0
 23 54  1  0
 23 55  1  0
 25 56  1  0
 26 57  1  0
 27 58  1  0
 28 59  1  0
 30 60  1  0
 30 61  1  0
 33 62  1  0
 33 63  1  0
 33 64  1  0
 34 65  1  0
 35 66  1  0
 37 67  1  0
 38 68  1  0
M  CHG  2  19  -1  21   1
M  END
>  <Binding energies>  (1) 
[-8.56]

>  <Ligand effiencies>  (1) 
[-0.2194871794871795]

>  <Interactions>  (1) 
["V-B:TYR:539:CE1:9847, V-A:ILE:369:CG2:3234, V-B:ILE:369:CG2:8208, V-A:ILE:369:CD1:3236, H-A:GLY:454:N:4047, V-B:ILE:369:CD1:8210, V-A:ASP:366:CG:3210, V-A:LEU:475:CD2:4256, V-A:TYR:539:CE1:4873, V-B:PRO:540:CA:9855, V-B:ASP:366:CG:8184, V-B:PRO:540:CB:9857, V-B:PRO:540:CD:9859, V-B:LEU:475:CD2:9230, V-B:TYR:539:CD1:9845, V-A:TYR:539:CD1:4871, V-B:ASP:366:CB:8183, V-B:PRO:540:N:9856, H-B:TYR:531:OH:9767, V-B:ILE:369:CB:8207, V-B:TYR:539:C:9839, V-A:ASP:366:CA:3207, V-A:ASP:366:CB:3209, V-A:ALA:541:CB:4890, V-B:TYR:531:CZ:9766, V-A:ILE:369:CB:3233, H-B:ASP:366:OD2:8186, V-A:PRO:482:CG:4324, V-B:TYR:539:CB:9843, V-A:LEU:373:CD1:3277, V-A:SER:385:CA:3404, V-A:SER:385:CB:3406, V-A:SER:385:C:3402, H-B:ASP:366:OD1:8185, V-B:VAL:344:CG1:7972"]

$$$$
RR21_Rahimova_2017
     RDKit          3D

 62 67  0  0  0  0  0  0  0  0999 V2000
  131.0390  126.9920   67.4970 C   0  0  0  0  0  0  0  0  0  0  0  0
  132.0940  126.5440   66.6520 O   0  0  0  0  0  0  0  0  0  0  0  0
  131.8130  125.6510   65.6350 C   0  0  0  0  0  0  0  0  0  0  0  0
  132.4270  125.6730   64.3710 C   0  0  0  0  0  0  0  0  0  0  0  0
  132.0880  124.7320   63.4000 C   0  0  0  0  0  0  0  0  0  0  0  0
  131.1330  123.7440   63.6660 C   0  0  0  0  0  0  0  0  0  0  0  0
  130.7740  122.7300   62.6230 C   0  0  0  0  0  0  0  0  0  0  0  0
  131.5030  121.6390   62.4910 N   0  0  0  0  0  0  0  0  0  0  0  0
  130.9530  120.9270   61.4960 N   0  0  0  0  0  0  0  0  0  0  0  0
  131.4840  119.6710   61.1020 C   0  0  0  0  0  0  0  0  0  0  0  0
  130.6670  118.5310   61.0520 C   0  0  0  0  0  0  0  0  0  0  0  0
  131.1990  117.3050   60.6590 C   0  0  0  0  0  0  0  0  0  0  0  0
  132.5460  117.2140   60.3170 C   0  0  0  0  0  0  0  0  0  0  0  0
  133.3680  118.3380   60.3660 C   0  0  0  0  0  0  0  0  0  0  0  0
  132.8390  119.5650   60.7590 C   0  0  0  0  0  0  0  0  0  0  0  0
  129.8480  121.5750   61.0030 C   0  0  0  0  0  0  0  0  0  0  0  0
  129.7030  122.7650   61.7010 C   0  0  0  0  0  0  0  0  0  0  0  0
  128.6530  123.7630   61.5660 C   0  0  0  0  0  0  0  0  0  0  0  0
  128.5380  124.7360   60.6340 C   0  0  0  0  0  0  0  0  0  0  0  0
  129.6440  125.0970   59.2900 S   0  0  0  0  0  0  0  0  0  0  0  0
  128.5790  126.3990   58.7800 C   0  0  0  0  0  0  0  0  0  0  0  0
  128.7190  127.1900   57.7620 N   0  0  0  0  0  0  0  0  0  0  0  0
  127.7700  128.2020   57.4520 C   0  0  0  0  0  0  0  0  0  0  0  0
  127.8190  128.9760   56.4960 O   0  0  0  0  0  0  0  0  0  0  0  0
  126.6180  128.2720   58.4170 C   0  0  0  0  0  0  0  0  0  0  0  0
  125.5400  129.3400   58.1950 C   0  0  0  0  0  0  0  0  0  0  0  0
  125.2440  130.2000   59.4220 C   0  0  0  0  0  0  0  0  0  0  0  0
  124.1500  131.0700   59.4200 C   0  0  0  0  0  0  0  0  0  0  0  0
  123.8710  131.8420   60.5450 C   0  0  0  0  0  0  0  0  0  0  0  0
  124.6840  131.7440   61.6760 C   0  0  0  0  0  0  0  0  0  0  0  0
  124.3680  132.5790   62.9040 C   0  0  0  0  0  0  0  0  0  0  0  0
  125.7710  130.8670   61.6850 C   0  0  0  0  0  0  0  0  0  0  0  0
  126.0500  130.0960   60.5600 C   0  0  0  0  0  0  0  0  0  0  0  0
  126.4940  127.4800   59.4320 N   0  0  0  0  0  0  0  0  0  0  0  0
  127.4980  126.5200   59.6130 N   0  0  0  0  0  0  0  0  0  0  0  0
  127.4060  125.6530   60.6520 C   0  0  0  0  0  0  0  0  0  0  0  0
  126.4910  125.6430   61.4830 O   0  0  0  0  0  0  0  0  0  0  0  0
  130.5170  123.7240   64.9220 C   0  0  0  0  0  0  0  0  0  0  0  0
  130.8540  124.6650   65.8950 C   0  0  0  0  0  0  0  0  0  0  0  0
  130.2410  124.6180   67.1010 F   0  0  0  0  0  0  0  0  0  0  0  0
  131.3338  126.8668   68.5493 H   0  0  0  0  0  0  0  0  0  0  0  0
  130.8352  128.0543   67.2972 H   0  0  0  0  0  0  0  0  0  0  0  0
  130.1331  126.4009   67.2972 H   0  0  0  0  0  0  0  0  0  0  0  0
  133.1824  126.4402   64.1457 H   0  0  0  0  0  0  0  0  0  0  0  0
  132.5760  124.7663   62.4148 H   0  0  0  0  0  0  0  0  0  0  0  0
  129.6037  118.6058   61.3239 H   0  0  0  0  0  0  0  0  0  0  0  0
  130.5577  116.4122   60.6189 H   0  0  0  0  0  0  0  0  0  0  0  0
  132.9648  116.2458   60.0053 H   0  0  0  0  0  0  0  0  0  0  0  0
  134.4310  118.2566   60.0952 H   0  0  0  0  0  0  0  0  0  0  0  0
  133.4863  120.4534   60.8003 H   0  0  0  0  0  0  0  0  0  0  0  0
  129.1928  121.2142   60.1964 H   0  0  0  0  0  0  0  0  0  0  0  0
  127.8508  123.7207   62.3175 H   0  0  0  0  0  0  0  0  0  0  0  0
  125.8736  130.0024   57.3826 H   0  0  0  0  0  0  0  0  0  0  0  0
  124.6102  128.8034   57.9551 H   0  0  0  0  0  0  0  0  0  0  0  0
  123.5090  131.1449   58.5292 H   0  0  0  0  0  0  0  0  0  0  0  0
  123.0112  132.5281   60.5426 H   0  0  0  0  0  0  0  0  0  0  0  0
  124.5886  131.9961   63.8104 H   0  0  0  0  0  0  0  0  0  0  0  0
  124.9832  133.4908   62.8956 H   0  0  0  0  0  0  0  0  0  0  0  0
  123.3032  132.8550   62.8956 H   0  0  0  0  0  0  0  0  0  0  0  0
  126.4057  130.7857   62.5797 H   0  0  0  0  0  0  0  0  0  0  0  0
  126.9053  129.4043   60.5662 H   0  0  0  0  0  0  0  0  0  0  0  0
  129.7592  122.9584   65.1445 H   0  0  0  0  0  0  0  0  0  0  0  0
  1  2  1  0
  2  3  1  0
  3  4  2  0
  4  5  1  0
  5  6  2  0
  6  7  1  0
  7  8  2  0
  8  9  1  0
  9 10  1  0
 10 11  2  0
 11 12  1  0
 12 13  2  0
 13 14  1  0
 14 15  2  0
  9 16  1  0
 16 17  2  0
 17 18  1  0
 18 19  2  0
 19 20  1  0
 20 21  1  0
 21 22  2  0
 22 23  1  0
 23 24  2  0
 23 25  1  0
 25 26  1  0
 26 27  1  0
 27 28  2  0
 28 29  1  0
 29 30  2  0
 30 31  1  0
 30 32  1  0
 32 33  2  0
 25 34  2  0
 34 35  1  0
 35 36  1  0
 36 37  2  0
  6 38  1  0
 38 39  2  0
 39 40  1  0
 39  3  1  0
 17  7  1  0
 36 19  1  0
 15 10  1  0
 35 21  1  0
 33 27  1  0
  1 41  1  0
  1 42  1  0
  1 43  1  0
  4 44  1  0
  5 45  1  0
 11 46  1  0
 12 47  1  0
 13 48  1  0
 14 49  1  0
 15 50  1  0
 16 51  1  0
 18 52  1  0
 26 53  1  0
 26 54  1  0
 28 55  1  0
 29 56  1  0
 31 57  1  0
 31 58  1  0
 31 59  1  0
 32 60  1  0
 33 61  1  0
 38 62  1  0
M  END
>  <Binding energies>  (1) 
[-8.87]

>  <Ligand effiencies>  (1) 
[-0.22174999999999997]

>  <Interactions>  (1) 
["V-A:ARG:545:CZ:4924, H-B:ARG:545:NH2:9900, H-A:ARG:545:NE:4922, V-B:ALA:541:CB:9864, V-B:TYR:539:CE1:9847, V-A:ILE:369:CG2:3234, V-B:ILE:369:CG2:8208, V-B:ILE:369:CD1:8210, V-A:LEU:475:CD2:4256, V-A:TYR:539:CE1:4873, V-B:ASP:366:CG:8184, V-B:LEU:475:CD2:9230, V-B:TYR:539:CD1:9845, V-B:ASP:366:CB:8183, V-B:ILE:369:CB:8207, V-B:GLU:543:CD:9880, V-B:GLU:543:CG:9879, V-B:GLU:543:CB:9878, V-A:HIS:456:CE1:4066, V-A:TYR:539:CZ:4875, V-A:GLU:543:CD:4906, V-A:GLU:543:CG:4905, V-B:GLY:454:CA:9020, V-B:ASP:366:CA:8181, V-A:PRO:482:CB:4323, V-A:TYR:484:CZ:4344, V-A:TYR:484:CE2:4343, V-A:PRO:482:CG:4324, V-A:ARG:545:CG:4920, V-A:LEU:373:CD1:3277, V-A:SER:385:CA:3404, V-A:SER:385:CB:3406, V-B:GLU:543:CA:9876"]

$$$$
RR22_Rahimova_2017
     RDKit          3D

 49 54  0  0  0  0  0  0  0  0999 V2000
  123.8900  129.7370   56.2760 O   0  0  0  0  0  0  0  0  0  0  0  0
  124.8000  129.8760   57.0910 C   0  0  0  0  0  0  0  0  0  0  0  0
  124.7070  129.8520   58.4710 N   0  0  0  0  0  0  0  0  0  0  0  0
  125.8810  129.9710   59.2820 C   0  0  1  0  0  0  0  0  0  0  0  0
  125.6270  131.0790   60.1500 O   0  0  0  0  0  0  0  0  0  0  0  0
  125.6390  130.8590   61.5270 C   0  0  0  0  0  0  0  0  0  0  0  0
  125.0370  131.8380   62.3190 C   0  0  0  0  0  0  0  0  0  0  0  0
  125.0450  131.7070   63.7080 C   0  0  0  0  0  0  0  0  0  0  0  0
  125.6610  130.6050   64.3020 C   0  0  0  0  0  0  0  0  0  0  0  0
  126.2630  129.6260   63.5100 C   0  0  0  0  0  0  0  0  0  0  0  0
  126.2410  129.7310   62.1160 C   0  0  0  0  0  0  0  0  0  0  0  0
  126.9010  128.7500   61.1730 C   0  0  1  0  0  0  0  0  0  0  0  0
  127.0210  127.2730   61.4890 C   0  0  0  0  0  0  0  0  0  0  0  0
  126.9870  126.6980   60.0690 C   0  0  0  0  0  0  0  0  0  0  0  0
  127.4530  125.3350   59.7490 C   0  0  0  0  0  0  0  0  0  0  0  0
  127.6760  124.9510   58.4180 C   0  0  0  0  0  0  0  0  0  0  0  0
  128.1160  123.6640   58.1210 C   0  0  0  0  0  0  0  0  0  0  0  0
  128.3360  122.7540   59.1510 C   0  0  0  0  0  0  0  0  0  0  0  0
  128.1190  123.1190   60.4780 C   0  0  0  0  0  0  0  0  0  0  0  0
  127.6800  124.4060   60.7760 C   0  0  0  0  0  0  0  0  0  0  0  0
  126.4900  127.5400   59.2430 N   0  0  0  0  0  0  0  0  0  0  0  0
  126.1380  128.6930   59.9630 N   0  0  0  0  0  0  0  0  0  0  0  0
  127.0120  130.3820   58.3520 C   0  0  0  0  0  0  0  0  0  0  0  0
  128.1750  130.9150   58.7960 C   0  0  0  0  0  0  0  0  0  0  0  0
  129.3530  131.3350   58.0120 C   0  0  0  0  0  0  0  0  0  0  0  0
  130.5630  130.6270   58.0050 C   0  0  0  0  0  0  0  0  0  0  0  0
  131.6360  131.0860   57.2390 C   0  0  0  0  0  0  0  0  0  0  0  0
  131.4710  132.2560   56.4980 C   0  0  0  0  0  0  0  0  0  0  0  0
  130.3150  132.9660   56.4910 N   0  0  0  0  0  0  0  0  0  0  0  0
  129.2830  132.5020   57.2420 C   0  0  0  0  0  0  0  0  0  0  0  0
  126.5440  130.1600   56.6600 S   0  0  0  0  0  0  0  0  0  0  0  0
  123.8100  129.7950   58.9280 H   0  0  0  0  0  0  0  0  0  0  0  0
  124.5579  132.7099   61.8497 H   0  0  0  0  0  0  0  0  0  0  0  0
  124.5654  132.4729   64.3352 H   0  0  0  0  0  0  0  0  0  0  0  0
  125.6722  130.5075   65.3976 H   0  0  0  0  0  0  0  0  0  0  0  0
  126.7579  128.7664   63.9856 H   0  0  0  0  0  0  0  0  0  0  0  0
  127.9183  129.1682   61.1880 H   0  0  0  0  0  0  0  0  0  0  0  0
  127.9657  127.0400   62.0020 H   0  0  0  0  0  0  0  0  0  0  0  0
  126.2512  126.8789   62.1688 H   0  0  0  0  0  0  0  0  0  0  0  0
  127.5022  125.6709   57.6046 H   0  0  0  0  0  0  0  0  0  0  0  0
  128.2892  123.3673   57.0760 H   0  0  0  0  0  0  0  0  0  0  0  0
  128.6843  121.7376   58.9152 H   0  0  0  0  0  0  0  0  0  0  0  0
  128.2937  122.3937   61.2863 H   0  0  0  0  0  0  0  0  0  0  0  0
  127.5100  124.6966   61.8232 H   0  0  0  0  0  0  0  0  0  0  0  0
  128.2520  131.0532   59.8846 H   0  0  0  0  0  0  0  0  0  0  0  0
  130.6669  129.7097   58.6032 H   0  0  0  0  0  0  0  0  0  0  0  0
  132.5894  130.5377   57.2203 H   0  0  0  0  0  0  0  0  0  0  0  0
  132.3149  132.6189   55.8929 H   0  0  0  0  0  0  0  0  0  0  0  0
  128.3429  133.0731   57.2454 H   0  0  0  0  0  0  0  0  0  0  0  0
  1  2  2  0
  2  3  1  0
  3  4  1  0
  4  5  1  1
  5  6  1  0
  6  7  2  0
  7  8  1  0
  8  9  2  0
  9 10  1  0
 10 11  2  0
 11 12  1  0
 12 13  1  0
 13 14  1  0
 14 15  1  0
 15 16  2  0
 16 17  1  0
 17 18  2  0
 18 19  1  0
 19 20  2  0
 14 21  2  0
 21 22  1  0
  4 23  1  0
 23 24  2  0
 24 25  1  0
 25 26  2  0
 26 27  1  0
 27 28  2  0
 28 29  1  0
 29 30  2  0
 23 31  1  0
 31  2  1  0
 22  4  1  0
 30 25  1  0
 11  6  1  0
 22 12  1  0
 20 15  1  0
  3 32  1  0
  7 33  1  0
  8 34  1  0
  9 35  1  0
 10 36  1  0
 12 37  1  6
 13 38  1  0
 13 39  1  0
 16 40  1  0
 17 41  1  0
 18 42  1  0
 19 43  1  0
 20 44  1  0
 24 45  1  0
 26 46  1  0
 27 47  1  0
 28 48  1  0
 30 49  1  0
M  END
>  <Binding energies>  (1) 
[-8.86]

>  <Ligand effiencies>  (1) 
[-0.276875]

>  <Interactions>  (1) 
["V-A:ILE:538:CB:4860, V-B:TYR:539:CE1:9847, V-A:ILE:538:CG2:4861, V-B:ARG:545:CZ:9898, V-A:TYR:539:CE1:4873, V-B:PRO:540:CA:9855, V-B:ASP:366:CG:8184, V-B:TYR:539:CD1:9845, V-A:TYR:539:CD1:4871, V-B:ASP:366:CB:8183, V-B:PRO:540:N:9856, H-B:TYR:531:OH:9767, H-A:TYR:539:OH:4876, V-B:TYR:539:C:9839, V-A:TYR:539:CZ:4875, V-B:TYR:531:CE1:9764, V-B:TYR:531:CZ:9766, V-B:ASN:370:CB:8216, V-B:GLY:454:CA:9020, V-A:TYR:539:C:4865, H-A:TYR:539:N:4868, V-B:ASP:366:CA:8181, H-B:ASP:366:OD2:8186, V-A:TYR:539:CG:4870, V-B:ASP:366:C:8179, H-B:ASP:366:OD1:8185, H-B:ASP:366:O:8180, H-B:ASN:370:ND2:8219"]

$$$$
RR23_Rahimova_2017
     RDKit          3D

 65 70  0  0  0  0  0  0  0  0999 V2000
  133.2500  131.5260   61.6340 C   0  0  0  0  0  0  0  0  0  0  0  0
  132.2220  131.5900   60.5190 C   0  0  0  0  0  0  0  0  0  0  0  0
  132.6220  131.4370   59.1910 C   0  0  0  0  0  0  0  0  0  0  0  0
  131.6770  131.4870   58.1700 C   0  0  0  0  0  0  0  0  0  0  0  0
  130.3260  131.7010   58.4670 C   0  0  0  0  0  0  0  0  0  0  0  0
  129.3130  131.7310   57.3450 C   0  0  0  0  0  0  0  0  0  0  0  0
  129.4040  132.6410   56.5170 O   0  0  0  0  0  0  0  0  0  0  0  0
  128.3570  130.7580   57.2800 N   0  0  0  0  0  0  0  0  0  0  0  0
  127.2810  130.8010   56.2760 C   0  0  0  0  0  0  0  0  0  0  0  0
  126.5130  129.4970   56.4150 C   0  0  0  0  0  0  0  0  0  0  0  0
  127.4410  128.6490   57.2320 C   0  0  0  0  0  0  0  0  0  0  0  0
  127.3090  127.3110   57.6050 C   0  0  0  0  0  0  0  0  0  0  0  0
  128.2120  126.7360   58.5130 C   0  0  0  0  0  0  0  0  0  0  0  0
  128.1030  125.2670   58.9500 C   0  0  2  0  0  0  0  0  0  0  0  0
  129.1090  124.9140   59.9290 N   0  0  0  0  0  0  0  0  0  0  0  0
  129.4690  123.6980   59.8200 C   0  0  0  0  0  0  0  0  0  0  0  0
  130.4050  123.0320   60.5490 N   0  0  0  0  0  0  0  0  0  0  0  0
  131.2720  123.5310   61.4620 C   0  0  0  0  0  0  0  0  0  0  0  0
  131.3310  124.7080   61.8270 O   0  0  0  0  0  0  0  0  0  0  0  0
  132.2530  122.5140   62.0690 C   0  0  0  0  0  0  0  0  0  0  0  0
  131.8890  121.1550   61.6080 N   0  0  0  0  0  0  0  0  0  0  0  0
  130.5390  120.8380   61.6950 N   0  0  0  0  0  0  0  0  0  0  0  0
  130.0910  119.6810   61.3250 N   0  0  0  0  0  0  0  0  0  0  0  0
  130.9750  118.7220   60.8240 C   0  0  0  0  0  0  0  0  0  0  0  0
  130.4600  117.4830   60.4360 C   0  0  0  0  0  0  0  0  0  0  0  0
  131.3180  116.5040   59.9320 C   0  0  0  0  0  0  0  0  0  0  0  0
  132.6860  116.7610   59.8180 C   0  0  0  0  0  0  0  0  0  0  0  0
  133.2030  117.9980   60.2060 C   0  0  0  0  0  0  0  0  0  0  0  0
  132.3420  118.9810   60.7090 C   0  0  0  0  0  0  0  0  0  0  0  0
  132.8820  120.3250   61.1390 C   0  0  0  0  0  0  0  0  0  0  0  0
  134.0760  120.6340   61.0840 O   0  0  0  0  0  0  0  0  0  0  0  0
  128.6710  122.7270   58.5490 S   0  0  0  0  0  0  0  0  0  0  0  0
  128.1000  124.2540   57.7820 C   0  0  2  0  0  0  0  0  0  0  0  0
  129.0070  124.5820   56.5780 C   0  0  0  0  0  0  0  0  0  0  0  0
  129.2120  127.5400   59.0710 C   0  0  0  0  0  0  0  0  0  0  0  0
  129.3310  128.8840   58.7150 C   0  0  0  0  0  0  0  0  0  0  0  0
  128.4770  129.4300   57.7470 C   0  0  0  0  0  0  0  0  0  0  0  0
  129.9280  131.8270   59.8050 C   0  0  0  0  0  0  0  0  0  0  0  0
  130.8730  131.7760   60.8260 C   0  0  0  0  0  0  0  0  0  0  0  0
  132.7380  131.5579   62.6071 H   0  0  0  0  0  0  0  0  0  0  0  0
  133.8227  130.5905   61.5515 H   0  0  0  0  0  0  0  0  0  0  0  0
  133.9343  132.3833   61.5515 H   0  0  0  0  0  0  0  0  0  0  0  0
  133.6835  131.2770   58.9510 H   0  0  0  0  0  0  0  0  0  0  0  0
  131.9936  131.3577   57.1245 H   0  0  0  0  0  0  0  0  0  0  0  0
  126.6163  131.6564   56.4670 H   0  0  0  0  0  0  0  0  0  0  0  0
  127.6872  130.9186   55.2605 H   0  0  0  0  0  0  0  0  0  0  0  0
  125.5574  129.6539   56.9366 H   0  0  0  0  0  0  0  0  0  0  0  0
  126.2468  129.0438   55.4487 H   0  0  0  0  0  0  0  0  0  0  0  0
  126.4933  126.7038   57.1855 H   0  0  0  0  0  0  0  0  0  0  0  0
  127.1119  125.1931   59.4215 H   0  0  0  0  0  0  0  0  0  0  0  0
  130.4990  122.0470   60.3520 H   0  0  0  0  0  0  0  0  0  0  0  0
  133.2770  122.7511   61.7445 H   0  0  0  0  0  0  0  0  0  0  0  0
  132.2013  122.5591   63.1669 H   0  0  0  0  0  0  0  0  0  0  0  0
  129.3828  117.2795   60.5272 H   0  0  0  0  0  0  0  0  0  0  0  0
  130.9156  115.5277   59.6239 H   0  0  0  0  0  0  0  0  0  0  0  0
  133.3582  115.9860   59.4211 H   0  0  0  0  0  0  0  0  0  0  0  0
  134.2807  118.1995   60.1171 H   0  0  0  0  0  0  0  0  0  0  0  0
  127.0941  124.2315   57.3375 H   0  0  0  0  0  0  0  0  0  0  0  0
  129.9837  124.9352   56.9402 H   0  0  0  0  0  0  0  0  0  0  0  0
  129.1474  123.6777   55.9676 H   0  0  0  0  0  0  0  0  0  0  0  0
  128.5366  125.3669   55.9676 H   0  0  0  0  0  0  0  0  0  0  0  0
  129.9133  127.1071   59.7996 H   0  0  0  0  0  0  0  0  0  0  0  0
  130.0946  129.5146   59.1938 H   0  0  0  0  0  0  0  0  0  0  0  0
  128.8646  131.9668   60.0493 H   0  0  0  0  0  0  0  0  0  0  0  0
  130.5568  131.8822   61.8742 H   0  0  0  0  0  0  0  0  0  0  0  0
  1  2  1  0
  2  3  2  0
  3  4  1  0
  4  5  2  0
  5  6  1  0
  6  7  2  0
  6  8  1  0
  8  9  1  0
  9 10  1  0
 10 11  1  0
 11 12  2  0
 12 13  1  0
 13 14  1  0
 14 15  1  0
 15 16  2  0
 16 17  1  0
 17 18  1  0
 18 19  2  0
 18 20  1  0
 20 21  1  0
 21 22  1  0
 22 23  2  0
 23 24  1  0
 24 25  2  0
 25 26  1  0
 26 27  2  0
 27 28  1  0
 28 29  2  0
 29 30  1  0
 30 31  2  0
 16 32  1  0
 32 33  1  0
 33 34  1  0
 13 35  2  0
 35 36  1  0
 36 37  2  0
  5 38  1  0
 38 39  2  0
 39  2  1  0
 37  8  1  0
 37 11  1  0
 33 14  1  0
 30 21  1  0
 29 24  1  0
  1 40  1  0
  1 41  1  0
  1 42  1  0
  3 43  1  0
  4 44  1  0
  9 45  1  0
  9 46  1  0
 10 47  1  0
 10 48  1  0
 12 49  1  0
 14 50  1  1
 17 51  1  0
 20 52  1  0
 20 53  1  0
 25 54  1  0
 26 55  1  0
 27 56  1  0
 28 57  1  0
 33 58  1  6
 34 59  1  0
 34 60  1  0
 34 61  1  0
 35 62  1  0
 36 63  1  0
 38 64  1  0
 39 65  1  0
M  END
>  <Binding energies>  (1) 
[-10.24]

>  <Ligand effiencies>  (1) 
[-0.256]

>  <Interactions>  (1) 
["V-A:PRO:540:CA:4881, V-B:TYR:539:CE1:9847, V-A:ILE:369:CG2:3234, V-A:PRO:540:CB:4883, V-A:ASP:366:CG:3210, V-A:LEU:475:CD2:4256, V-A:TYR:539:CE1:4873, V-B:TYR:539:CD1:9845, V-A:TYR:539:CZ:4875, V-A:PRO:540:C:4879, H-A:TYR:539:N:4868, V-B:MET:535:CE:9807, V-A:MET:535:CE:4833, V-A:PRO:482:CB:4323, V-A:TYR:539:CE2:4874, V-A:PRO:482:CG:4324, V-B:TYR:539:CB:9843, H-B:TYR:539:O:9840, V-A:ASN:362:CB:3173, V-A:LEU:373:CD1:3277, V-A:SER:385:CA:3404, V-A:SER:385:CB:3406, V-B:VAL:344:CG1:7972"]

$$$$
RR24_Rahimova_2017
     RDKit          3D

 65 71  0  0  0  0  0  0  0  0999 V2000
  124.6190  123.8800   56.5360 C   0  0  0  0  0  0  0  0  0  0  0  0
  126.1340  124.0470   56.7200 C   0  0  2  0  0  0  0  0  0  0  0  0
  126.8970  122.6910   56.7870 C   0  0  0  0  0  0  0  0  0  0  0  0
  126.3200  121.6250   57.0250 O   0  0  0  0  0  0  0  0  0  0  0  0
  128.2390  122.8350   56.5830 O   0  0  0  0  0  0  0  0  0  0  0  0
  128.9830  123.5880   57.4630 C   0  0  0  0  0  0  0  0  0  0  0  0
  129.7330  124.6630   56.9810 C   0  0  0  0  0  0  0  0  0  0  0  0
  130.4810  125.4370   57.8630 C   0  0  0  0  0  0  0  0  0  0  0  0
  130.4790  125.1450   59.2300 C   0  0  0  0  0  0  0  0  0  0  0  0
  131.3210  125.9880   60.1940 C   0  0  1  0  0  0  0  0  0  0  0  0
  131.0060  127.4970   60.0670 C   0  0  0  0  0  0  0  0  0  0  0  0
  130.7130  128.2720   61.1280 C   0  0  0  0  0  0  0  0  0  0  0  0
  130.6710  127.7750   62.4080 N   0  0  0  0  0  0  0  0  0  0  0  0
  130.9270  126.4490   62.6690 C   0  0  0  0  0  0  0  0  0  0  0  0
  130.8540  126.1210   63.9840 N   0  0  0  0  0  0  0  0  0  0  0  0
  131.0000  124.8410   64.4240 C   0  0  0  0  0  0  0  0  0  0  0  0
  130.6150  124.5470   65.5580 O   0  0  0  0  0  0  0  0  0  0  0  0
  131.4300  123.9540   63.4500 N   0  0  0  0  0  0  0  0  0  0  0  0
  131.6920  122.5700   63.8960 C   0  0  0  0  0  0  0  0  0  0  0  0
  131.5370  124.1810   62.0890 C   0  0  0  0  0  0  0  0  0  0  0  0
  131.8790  123.3240   61.2680 O   0  0  0  0  0  0  0  0  0  0  0  0
  131.2290  125.5580   61.6880 C   0  0  0  0  0  0  0  0  0  0  0  0
  130.4610  129.6420   60.7150 C   0  0  0  0  0  0  0  0  0  0  0  0
  130.1210  130.8000   61.4160 C   0  0  0  0  0  0  0  0  0  0  0  0
  129.9420  131.9940   60.7130 C   0  0  0  0  0  0  0  0  0  0  0  0
  130.1040  132.0250   59.3250 C   0  0  0  0  0  0  0  0  0  0  0  0
  130.4450  130.8620   58.6290 C   0  0  0  0  0  0  0  0  0  0  0  0
  130.6210  129.6720   59.3360 C   0  0  0  0  0  0  0  0  0  0  0  0
  130.9790  128.3180   58.8620 C   0  0  0  0  0  0  0  0  0  0  0  0
  131.2120  127.9200   57.7210 O   0  0  0  0  0  0  0  0  0  0  0  0
  129.7130  124.0780   59.7120 C   0  0  0  0  0  0  0  0  0  0  0  0
  128.9620  123.3050   58.8310 C   0  0  0  0  0  0  0  0  0  0  0  0
  126.4650  124.9420   57.8670 N   0  0  0  0  0  0  0  0  0  0  0  0
  126.3090  124.5350   59.1580 C   0  0  0  0  0  0  0  0  0  0  0  0
  125.8920  123.4450   59.5530 O   0  0  0  0  0  0  0  0  0  0  0  0
  126.7480  125.6830   59.9900 C   0  0  0  0  0  0  0  0  0  0  0  0
  126.8050  125.8370   61.3760 C   0  0  0  0  0  0  0  0  0  0  0  0
  127.2720  127.0500   61.8950 C   0  0  0  0  0  0  0  0  0  0  0  0
  127.6740  128.0790   61.0340 C   0  0  0  0  0  0  0  0  0  0  0  0
  127.6100  127.9040   59.6480 C   0  0  0  0  0  0  0  0  0  0  0  0
  127.1400  126.6890   59.1490 C   0  0  0  0  0  0  0  0  0  0  0  0
  126.9620  126.2120   57.7550 C   0  0  0  0  0  0  0  0  0  0  0  0
  127.2140  126.8280   56.7190 O   0  0  0  0  0  0  0  0  0  0  0  0
  124.1336  123.8265   57.5217 H   0  0  0  0  0  0  0  0  0  0  0  0
  124.2205  124.7397   55.9772 H   0  0  0  0  0  0  0  0  0  0  0  0
  124.4173  122.9542   55.9772 H   0  0  0  0  0  0  0  0  0  0  0  0
  126.4960  124.5466   55.8093 H   0  0  0  0  0  0  0  0  0  0  0  0
  129.7325  124.8974   55.9063 H   0  0  0  0  0  0  0  0  0  0  0  0
  131.0756  126.2810   57.4834 H   0  0  0  0  0  0  0  0  0  0  0  0
  132.3570  125.7973   59.8773 H   0  0  0  0  0  0  0  0  0  0  0  0
  130.4500  128.3930   63.1760 H   0  0  0  0  0  0  0  0  0  0  0  0
  130.6600  126.8230   64.6830 H   0  0  0  0  0  0  0  0  0  0  0  0
  131.6988  122.5341   64.9954 H   0  0  0  0  0  0  0  0  0  0  0  0
  130.9037  121.9057   63.5123 H   0  0  0  0  0  0  0  0  0  0  0  0
  132.6686  122.2398   63.5123 H   0  0  0  0  0  0  0  0  0  0  0  0
  129.9955  130.7729   62.5085 H   0  0  0  0  0  0  0  0  0  0  0  0
  129.6726  132.9132   61.2539 H   0  0  0  0  0  0  0  0  0  0  0  0
  129.9625  132.9689   58.7781 H   0  0  0  0  0  0  0  0  0  0  0  0
  130.5731  130.8845   57.5367 H   0  0  0  0  0  0  0  0  0  0  0  0
  129.7042  123.8498   60.7880 H   0  0  0  0  0  0  0  0  0  0  0  0
  128.3525  122.4721   59.2115 H   0  0  0  0  0  0  0  0  0  0  0  0
  126.4899  125.0231   62.0456 H   0  0  0  0  0  0  0  0  0  0  0  0
  127.3236  127.1959   62.9841 H   0  0  0  0  0  0  0  0  0  0  0  0
  128.0416  129.0288   61.4497 H   0  0  0  0  0  0  0  0  0  0  0  0
  127.9237  128.7076   58.9655 H   0  0  0  0  0  0  0  0  0  0  0  0
  1  2  1  0
  2  3  1  0
  3  4  2  0
  3  5  1  0
  5  6  1  0
  6  7  2  0
  7  8  1  0
  8  9  2  0
  9 10  1  0
 10 11  1  0
 11 12  2  0
 12 13  1  0
 13 14  1  0
 14 15  1  0
 15 16  1  0
 16 17  2  0
 16 18  1  0
 18 19  1  0
 18 20  1  0
 20 21  2  0
 20 22  1  0
 12 23  1  0
 23 24  2  0
 24 25  1  0
 25 26  2  0
 26 27  1  0
 27 28  2  0
 28 29  1  0
 29 30  2  0
  9 31  1  0
 31 32  2  0
  2 33  1  0
 33 34  1  0
 34 35  2  0
 34 36  1  0
 36 37  2  0
 37 38  1  0
 38 39  2  0
 39 40  1  0
 40 41  2  0
 41 42  1  0
 42 43  2  0
 32  6  1  0
 42 33  1  0
 22 10  1  0
 28 23  1  0
 41 36  1  0
 29 11  1  0
 22 14  2  0
  1 44  1  0
  1 45  1  0
  1 46  1  0
  2 47  1  6
  7 48  1  0
  8 49  1  0
 10 50  1  6
 13 51  1  0
 15 52  1  0
 19 53  1  0
 19 54  1  0
 19 55  1  0
 24 56  1  0
 25 57  1  0
 26 58  1  0
 27 59  1  0
 31 60  1  0
 32 61  1  0
 37 62  1  0
 38 63  1  0
 39 64  1  0
 40 65  1  0
M  END
>  <Binding energies>  (1) 
[-9.42]

>  <Ligand effiencies>  (1) 
[-0.20933333333333334]

>  <Interactions>  (1) 
["V-A:PRO:540:CA:4881, V-A:ARG:545:CZ:4924, V-B:TYR:539:CE1:9847, H-A:TYR:484:OH:4345, V-A:PRO:540:N:4882, V-A:ASP:366:CG:3210, V-A:LEU:475:CD2:4256, V-B:TYR:531:CE2:9765, V-B:ILE:538:CA:9832, V-B:ASP:366:CG:8184, V-B:LEU:363:CD1:8160, V-B:TYR:539:CD1:9845, V-B:PRO:540:N:9856, H-B:TYR:531:OH:9767, V-B:TYR:539:C:9839, V-B:GLU:543:CD:9880, H-A:GLU:543:OE2:4908, H-A:GLU:543:OE1:4907, V-B:TYR:539:CZ:9849, H-B:GLU:543:OE2:9882, V-A:GLU:543:CD:4906, V-B:TYR:531:CZ:9766, H-A:TYR:531:OH:4793, V-A:TYR:539:C:4865, V-B:MET:535:CE:9807, H-B:TYR:539:N:9842"]

$$$$
RR24_Rahimova_2017-again1
     RDKit          3D

 63 69  0  0  0  0  0  0  0  0999 V2000
  128.7980  132.5960   56.6630 C   0  0  0  0  0  0  0  0  0  0  0  0
  129.6920  131.3570   56.8020 C   0  0  2  0  0  0  0  0  0  0  0  0
  128.9150  130.0160   56.6650 C   0  0  0  0  0  0  0  0  0  0  0  0
  127.6970  129.9400   56.8690 O   0  0  0  0  0  0  0  0  0  0  0  0
  129.7250  128.9690   56.3290 O   0  0  0  0  0  0  0  0  0  0  0  0
  129.5280  127.7400   56.9150 C   0  0  0  0  0  0  0  0  0  0  0  0
  130.6280  127.0050   57.3590 C   0  0  0  0  0  0  0  0  0  0  0  0
  130.4360  125.7700   57.9710 C   0  0  0  0  0  0  0  0  0  0  0  0
  129.1430  125.2670   58.1500 C   0  0  0  0  0  0  0  0  0  0  0  0
  128.9250  123.9050   58.8240 C   0  0  1  0  0  0  0  0  0  0  0  0
  129.9470  123.6710   59.9610 C   0  0  0  0  0  0  0  0  0  0  0  0
  131.2930  123.5450   59.9620 C   0  0  0  0  0  0  0  0  0  0  0  0
  132.0370  123.5630   58.9090 O   0  0  0  0  0  0  0  0  0  0  0  0
  131.7890  123.4120   61.3320 C   0  0  0  0  0  0  0  0  0  0  0  0
  133.0790  123.2700   61.8600 C   0  0  0  0  0  0  0  0  0  0  0  0
  133.2500  123.1710   63.2410 C   0  0  0  0  0  0  0  0  0  0  0  0
  132.1420  123.2120   64.0890 C   0  0  0  0  0  0  0  0  0  0  0  0
  130.8580  123.3520   63.5580 C   0  0  0  0  0  0  0  0  0  0  0  0
  130.6890  123.4550   62.1750 C   0  0  0  0  0  0  0  0  0  0  0  0
  129.5060  123.5890   61.3440 C   0  0  0  0  0  0  0  0  0  0  0  0
  128.2690  123.6250   61.6720 N   0  0  0  0  0  0  0  0  0  0  0  0
  127.2790  123.6320   60.7350 C   0  0  0  0  0  0  0  0  0  0  0  0
  126.0310  123.5060   61.2730 N   0  0  0  0  0  0  0  0  0  0  0  0
  125.0060  123.5150   60.4970 C   0  0  0  0  0  0  0  0  0  0  0  0
  123.9240  123.3990   61.0950 O   0  0  0  0  0  0  0  0  0  0  0  0
  125.1200  123.6410   59.1130 N   0  0  0  0  0  0  0  0  0  0  0  0
  123.9580  123.6570   58.1930 C   0  0  0  0  0  0  0  0  0  0  0  0
  126.3420  123.7560   58.4800 C   0  0  0  0  0  0  0  0  0  0  0  0
  126.4880  123.8450   57.2560 O   0  0  0  0  0  0  0  0  0  0  0  0
  127.4930  123.7560   59.3880 C   0  0  0  0  0  0  0  0  0  0  0  0
  128.0420  126.0120   57.7140 C   0  0  0  0  0  0  0  0  0  0  0  0
  128.2340  127.2480   57.1040 C   0  0  0  0  0  0  0  0  0  0  0  0
  130.5260  131.4050   58.0400 N   0  0  0  0  0  0  0  0  0  0  0  0
  129.9770  131.2390   59.2760 C   0  0  0  0  0  0  0  0  0  0  0  0
  128.7910  131.0430   59.5490 O   0  0  0  0  0  0  0  0  0  0  0  0
  131.1100  131.3470   60.2290 C   0  0  0  0  0  0  0  0  0  0  0  0
  131.1450  131.2640   61.6220 C   0  0  0  0  0  0  0  0  0  0  0  0
  132.3760  131.4060   62.2700 C   0  0  0  0  0  0  0  0  0  0  0  0
  133.5450  131.6250   61.5290 C   0  0  0  0  0  0  0  0  0  0  0  0
  133.4900  131.7040   60.1330 C   0  0  0  0  0  0  0  0  0  0  0  0
  132.2510  131.5610   59.5050 C   0  0  0  0  0  0  0  0  0  0  0  0
  131.8800  131.5940   58.0680 C   0  0  0  0  0  0  0  0  0  0  0  0
  132.6330  131.7560   57.1070 O   0  0  0  0  0  0  0  0  0  0  0  0
  128.5294  132.9683   57.6626 H   0  0  0  0  0  0  0  0  0  0  0  0
  129.3402  133.3796   56.1134 H   0  0  0  0  0  0  0  0  0  0  0  0
  127.8835  132.3285   56.1134 H   0  0  0  0  0  0  0  0  0  0  0  0
  130.3817  131.3862   55.9456 H   0  0  0  0  0  0  0  0  0  0  0  0
  131.6454  127.4013   57.2254 H   0  0  0  0  0  0  0  0  0  0  0  0
  131.3035  125.1876   58.3150 H   0  0  0  0  0  0  0  0  0  0  0  0
  129.0712  123.1468   58.0405 H   0  0  0  0  0  0  0  0  0  0  0  0
  133.9510  123.2368   61.1902 H   0  0  0  0  0  0  0  0  0  0  0  0
  134.2600  123.0604   63.6625 H   0  0  0  0  0  0  0  0  0  0  0  0
  132.2805  123.1339   65.1774 H   0  0  0  0  0  0  0  0  0  0  0  0
  129.9840  123.3810   64.2253 H   0  0  0  0  0  0  0  0  0  0  0  0
  123.0269  123.6698   58.7785 H   0  0  0  0  0  0  0  0  0  0  0  0
  124.0047  124.5546   57.5588 H   0  0  0  0  0  0  0  0  0  0  0  0
  123.9800  122.7585   57.5588 H   0  0  0  0  0  0  0  0  0  0  0  0
  127.0236  125.6204   57.8535 H   0  0  0  0  0  0  0  0  0  0  0  0
  127.3672  127.8375   56.7707 H   0  0  0  0  0  0  0  0  0  0  0  0
  130.2239  131.0906   62.1977 H   0  0  0  0  0  0  0  0  0  0  0  0
  132.4270  131.3455   63.3672 H   0  0  0  0  0  0  0  0  0  0  0  0
  134.5094  131.7352   62.0466 H   0  0  0  0  0  0  0  0  0  0  0  0
  134.4027  131.8750   59.5433 H   0  0  0  0  0  0  0  0  0  0  0  0
  1  2  1  0
  2  3  1  0
  3  4  2  0
  3  5  1  0
  5  6  1  0
  6  7  2  0
  7  8  1  0
  8  9  2  0
  9 10  1  0
 10 11  1  0
 11 12  2  0
 12 13  1  0
 12 14  1  0
 14 15  2  0
 15 16  1  0
 16 17  2  0
 17 18  1  0
 18 19  2  0
 19 20  1  0
 20 21  2  0
 21 22  1  0
 22 23  1  0
 23 24  2  0
 24 25  1  0
 24 26  1  0
 26 27  1  0
 26 28  1  0
 28 29  2  0
 28 30  1  0
  9 31  1  0
 31 32  2  0
  2 33  1  0
 33 34  1  0
 34 35  2  0
 34 36  1  0
 36 37  2  0
 37 38  1  0
 38 39  2  0
 39 40  1  0
 40 41  2  0
 41 42  1  0
 42 43  2  0
 32  6  1  0
 42 33  1  0
 30 10  1  0
 41 36  1  0
 20 11  1  0
 30 22  2  0
 19 14  1  0
  1 44  1  0
  1 45  1  0
  1 46  1  0
  2 47  1  6
  7 48  1  0
  8 49  1  0
 10 50  1  6
 15 51  1  0
 16 52  1  0
 17 53  1  0
 18 54  1  0
 27 55  1  0
 27 56  1  0
 27 57  1  0
 31 58  1  0
 32 59  1  0
 37 60  1  0
 38 61  1  0
 39 62  1  0
 40 63  1  0
M  CHG  2  13  -1  25  -1
M  END
>  <Binding energies>  (1) 
[-8.61]

>  <Ligand effiencies>  (1) 
[-0.20023255813953486]

>  <Interactions>  (1) 
["V-A:PRO:540:CA:4881, V-A:ARG:545:CZ:4924, V-A:GLY:454:CA:4046, V-B:TYR:539:CE1:9847, V-A:PRO:540:CB:4883, V-A:LEU:363:CA:3182, V-A:ASP:366:CG:3210, V-A:LEU:475:CD2:4256, V-A:TYR:539:CE1:4873, V-B:PRO:540:CA:9855, V-B:PRO:540:CB:9857, V-B:LEU:363:CD1:8160, V-B:TYR:539:CD1:9845, V-B:LEU:363:CA:8156, V-A:TYR:539:CD1:4871, H-B:TYR:531:OH:9767, V-A:TYR:539:CZ:4875, V-A:GLU:543:CD:4906, H-B:ALA:541:N:9863, H-A:TYR:531:OH:4793, H-B:TYR:539:OH:9850, V-B:MET:535:CE:9807, V-A:MET:535:CE:4833, V-A:TYR:539:CG:4870, V-A:TYR:539:CE2:4874, V-A:TYR:539:CD2:4872, V-A:TYR:484:CZ:4344, V-B:LEU:363:CB:8158, V-A:ASN:362:CB:3173, V-A:ASN:362:C:3169, H-B:LEU:363:N:8157"]

$$$$
RR25_Rahimova_2017
     RDKit          3D

 63 68  0  0  0  0  0  0  0  0999 V2000
  127.8190  122.7960   59.8260 O   0  0  0  0  0  0  0  0  0  0  0  0
  128.4480  123.5000   60.6170 C   0  0  0  0  0  0  0  0  0  0  0  0
  128.9630  122.8630   61.7190 O   0  0  0  0  0  0  0  0  0  0  0  0
  129.8870  123.4800   62.5430 C   0  0  0  0  0  0  0  0  0  0  0  0
  130.7450  122.6450   63.2590 C   0  0  0  0  0  0  0  0  0  0  0  0
  131.6950  123.1990   64.1140 C   0  0  0  0  0  0  0  0  0  0  0  0
  131.7990  124.5890   64.2690 C   0  0  0  0  0  0  0  0  0  0  0  0
  132.8170  125.1770   65.1750 N   0  0  0  0  0  0  0  0  0  0  0  0
  133.9510  125.3640   64.7410 O   0  0  0  0  0  0  0  0  0  0  0  0
  132.4900  125.4550   66.3240 O   0  0  0  0  0  0  0  0  0  0  0  0
  130.9170  125.4120   63.5490 C   0  0  0  0  0  0  0  0  0  0  0  0
  129.9530  124.8720   62.6930 C   0  0  0  0  0  0  0  0  0  0  0  0
  128.9860  125.7180   61.8850 C   0  0  0  0  0  0  0  0  0  0  0  0
  128.7060  125.0320   60.5180 C   0  0  2  0  0  0  0  0  0  0  0  0
  127.6410  125.8210   59.7020 C   0  0  0  0  0  0  0  0  0  0  0  0
  126.7800  125.1430   59.1350 O   0  0  0  0  0  0  0  0  0  0  0  0
  127.5810  127.1870   59.7140 N   0  0  0  0  0  0  0  0  0  0  0  0
  128.7290  128.0360   60.0990 C   0  0  0  0  0  0  0  0  0  0  0  0
  128.2060  129.2660   60.8700 C   0  0  0  0  0  0  0  0  0  0  0  0
  127.1960  129.9930   60.0970 N   0  0  0  0  0  0  0  0  0  0  0  0
  126.7950  131.2360   60.7700 C   0  0  0  0  0  0  0  0  0  0  0  0
  127.6300  132.4630   60.3170 C   0  0  0  0  0  0  0  0  0  0  0  0
  129.0410  132.1860   59.9200 N   0  0  0  0  0  0  0  0  0  0  0  0
  129.2830  132.1890   58.5630 C   0  0  0  0  0  0  0  0  0  0  0  0
  128.3980  132.3690   57.7180 O   0  0  0  0  0  0  0  0  0  0  0  0
  130.7340  131.9710   58.1790 C   0  0  0  0  0  0  0  0  0  0  0  0
  131.0960  131.9800   56.8260 C   0  0  0  0  0  0  0  0  0  0  0  0
  132.4220  131.7910   56.4380 C   0  0  0  0  0  0  0  0  0  0  0  0
  133.4240  131.5910   57.3860 C   0  0  0  0  0  0  0  0  0  0  0  0
  133.1050  131.5730   58.7650 C   0  0  0  0  0  0  0  0  0  0  0  0
  134.0720  131.3760   59.7790 C   0  0  0  0  0  0  0  0  0  0  0  0
  133.6900  131.3730   61.1190 C   0  0  0  0  0  0  0  0  0  0  0  0
  132.3590  131.5610   61.4840 C   0  0  0  0  0  0  0  0  0  0  0  0
  131.3670  131.7600   60.5150 C   0  0  0  0  0  0  0  0  0  0  0  0
  131.7480  131.7650   59.1490 C   0  0  0  0  0  0  0  0  0  0  0  0
  129.9300  131.9700   60.9530 C   0  0  0  0  0  0  0  0  0  0  0  0
  129.6000  131.9620   62.1440 O   0  0  0  0  0  0  0  0  0  0  0  0
  126.0470  129.1230   59.8380 C   0  0  0  0  0  0  0  0  0  0  0  0
  126.4530  127.8640   59.0350 C   0  0  0  0  0  0  0  0  0  0  0  0
  130.6716  121.5530   63.1488 H   0  0  0  0  0  0  0  0  0  0  0  0
  132.3722  122.5379   64.6747 H   0  0  0  0  0  0  0  0  0  0  0  0
  130.9865  126.5040   63.6612 H   0  0  0  0  0  0  0  0  0  0  0  0
  128.0425  125.8258   62.4401 H   0  0  0  0  0  0  0  0  0  0  0  0
  129.4275  126.7104   61.7111 H   0  0  0  0  0  0  0  0  0  0  0  0
  129.6379  125.0821   59.9358 H   0  0  0  0  0  0  0  0  0  0  0  0
  129.4137  127.4620   60.7406 H   0  0  0  0  0  0  0  0  0  0  0  0
  129.2687  128.3632   59.1981 H   0  0  0  0  0  0  0  0  0  0  0  0
  127.7585  128.9307   61.8172 H   0  0  0  0  0  0  0  0  0  0  0  0
  129.0527  129.9432   61.0558 H   0  0  0  0  0  0  0  0  0  0  0  0
  125.7356  131.4303   60.5466 H   0  0  0  0  0  0  0  0  0  0  0  0
  126.9670  131.0987   61.8478 H   0  0  0  0  0  0  0  0  0  0  0  0
  127.1207  132.9159   59.4536 H   0  0  0  0  0  0  0  0  0  0  0  0
  127.6941  133.1184   61.1981 H   0  0  0  0  0  0  0  0  0  0  0  0
  130.3237  132.1383   56.0589 H   0  0  0  0  0  0  0  0  0  0  0  0
  132.6808  131.7999   55.3689 H   0  0  0  0  0  0  0  0  0  0  0  0
  134.4652  131.4468   57.0618 H   0  0  0  0  0  0  0  0  0  0  0  0
  135.1276  131.2249   59.5089 H   0  0  0  0  0  0  0  0  0  0  0  0
  134.4500  131.2201   61.8994 H   0  0  0  0  0  0  0  0  0  0  0  0
  132.0827  131.5531   62.5487 H   0  0  0  0  0  0  0  0  0  0  0  0
  125.6138  128.8087   60.7990 H   0  0  0  0  0  0  0  0  0  0  0  0
  125.3153  129.6888   59.2425 H   0  0  0  0  0  0  0  0  0  0  0  0
  125.5965  127.1766   58.9734 H   0  0  0  0  0  0  0  0  0  0  0  0
  126.7601  128.1596   58.0209 H   0  0  0  0  0  0  0  0  0  0  0  0
  1  2  2  0
  2  3  1  0
  3  4  1  0
  4  5  2  0
  5  6  1  0
  6  7  2  0
  7  8  1  0
  8  9  2  0
  8 10  1  0
  7 11  1  0
 11 12  2  0
 12 13  1  0
 13 14  1  0
 14 15  1  0
 15 16  2  0
 15 17  1  0
 17 18  1  0
 18 19  1  0
 19 20  1  0
 20 21  1  0
 21 22  1  0
 22 23  1  0
 23 24  1  0
 24 25  2  0
 24 26  1  0
 26 27  2  0
 27 28  1  0
 28 29  2  0
 29 30  1  0
 30 31  2  0
 31 32  1  0
 32 33  2  0
 33 34  1  0
 34 35  2  0
 34 36  1  0
 36 37  2  0
 20 38  1  0
 38 39  1  0
 14  2  1  0
 39 17  1  0
 12  4  1  0
 36 23  1  0
 35 26  1  0
 35 30  1  0
  5 40  1  0
  6 41  1  0
 11 42  1  0
 13 43  1  0
 13 44  1  0
 14 45  1  6
 18 46  1  0
 18 47  1  0
 19 48  1  0
 19 49  1  0
 21 50  1  0
 21 51  1  0
 22 52  1  0
 22 53  1  0
 27 54  1  0
 28 55  1  0
 29 56  1  0
 31 57  1  0
 32 58  1  0
 33 59  1  0
 38 60  1  0
 38 61  1  0
 39 62  1  0
 39 63  1  0
M  CHG  2   8   1  10  -1
M  END
>  <Binding energies>  (1) 
[-9.67]

>  <Ligand effiencies>  (1) 
[-0.24794871794871795]

>  <Interactions>  (1) 
["V-A:PRO:540:CA:4881, V-A:ARG:545:CZ:4924, V-A:TYR:531:CE2:4791, H-A:ARG:545:NE:4922, V-B:ALA:541:CB:9864, V-A:ILE:538:CG2:4861, V-A:PRO:540:CB:4883, V-A:LEU:363:CA:3182, H-A:GLY:454:N:4047, H-A:TYR:484:OH:4345, V-A:PRO:540:N:4882, V-A:ASP:366:CG:3210, V-A:LEU:475:CD2:4256, V-A:LEU:363:CD1:3186, V-A:TYR:539:CE1:4873, V-B:ASP:366:CG:8184, H-A:ARG:545:NH2:4926, V-A:TYR:539:CD1:4871, V-B:ASP:366:CB:8183, V-B:GLU:543:CD:9880, V-A:PRO:540:C:4879, V-A:TYR:531:CZ:4792, V-A:TYR:539:C:4865, H-A:ARG:545:NH1:4925, V-A:TYR:484:CZ:4344, V-A:ARG:545:CD:4921, H-A:ALA:541:N:4889, V-A:ASN:362:CB:3173, V-A:ASN:362:C:3169, V-A:LEU:363:CB:3184, V-A:ASN:362:CA:3171"]

$$$$
RR26_Rahimova_2017
     RDKit          3D

 59 65  0  0  0  0  0  0  0  0999 V2000
  133.6320  121.3200   60.8690 C   0  0  0  0  0  0  0  0  0  0  0  0
  132.5780  120.2270   60.9890 C   0  0  0  0  0  0  0  0  0  0  0  0
  133.0090  118.9020   61.1160 C   0  0  0  0  0  0  0  0  0  0  0  0
  132.0910  117.8660   61.2700 C   0  0  0  0  0  0  0  0  0  0  0  0
  130.7290  118.1470   61.3060 C   0  0  0  0  0  0  0  0  0  0  0  0
  130.2860  119.4620   61.1810 C   0  0  0  0  0  0  0  0  0  0  0  0
  131.1960  120.5180   61.0160 C   0  0  0  0  0  0  0  0  0  0  0  0
  130.6350  121.9030   60.8740 C   0  0  0  0  0  0  0  0  0  0  0  0
  131.4030  122.9590   60.6170 N   0  0  0  0  0  0  0  0  0  0  0  0
  130.5260  123.9250   60.5650 C   0  0  0  0  0  0  0  0  0  0  0  0
  130.5760  125.6280   60.2960 S   0  0  0  0  0  0  0  0  0  0  0  0
  128.7830  125.6860   60.4820 C   0  0  0  0  0  0  0  0  0  0  0  0
  127.9780  126.7700   60.4080 C   0  0  0  0  0  0  0  0  0  0  0  0
  128.3560  128.1510   60.1560 C   0  0  0  0  0  0  0  0  0  0  0  0
  129.2280  128.6390   59.1950 C   0  0  0  0  0  0  0  0  0  0  0  0
  129.2460  130.0070   59.2970 N   0  0  0  0  0  0  0  0  0  0  0  0
  129.9860  130.9350   58.5190 C   0  0  0  0  0  0  0  0  0  0  0  0
  131.3510  131.1470   58.7610 C   0  0  0  0  0  0  0  0  0  0  0  0
  132.0650  132.0630   57.9920 C   0  0  0  0  0  0  0  0  0  0  0  0
  131.4180  132.7670   56.9800 C   0  0  0  0  0  0  0  0  0  0  0  0
  130.0630  132.5630   56.7270 C   0  0  0  0  0  0  0  0  0  0  0  0
  129.3470  131.6500   57.4950 C   0  0  0  0  0  0  0  0  0  0  0  0
  128.4040  130.4130   60.2590 N   0  0  0  0  0  0  0  0  0  0  0  0
  127.8740  129.3240   60.7800 C   0  0  0  0  0  0  0  0  0  0  0  0
  126.8870  129.4380   61.9010 C   0  0  0  0  0  0  0  0  0  0  0  0
  125.5480  129.7670   61.6370 C   0  0  0  0  0  0  0  0  0  0  0  0
  124.6210  129.8790   62.6740 C   0  0  0  0  0  0  0  0  0  0  0  0
  125.0280  129.6630   63.9890 C   0  0  0  0  0  0  0  0  0  0  0  0
  126.3590  129.3160   64.2640 C   0  0  0  0  0  0  0  0  0  0  0  0
  127.2840  129.2110   63.2270 C   0  0  0  0  0  0  0  0  0  0  0  0
  126.8180  129.1370   65.5550 O   0  0  0  0  0  0  0  0  0  0  0  0
  125.7840  128.8960   66.5140 C   0  0  0  0  0  0  0  0  0  0  0  0
  124.6040  129.8750   66.3010 C   0  0  0  0  0  0  0  0  0  0  0  0
  124.0690  129.7370   64.9800 O   0  0  0  0  0  0  0  0  0  0  0  0
  128.2100  124.3710   60.7540 C   0  0  0  0  0  0  0  0  0  0  0  0
  127.0320  124.0590   60.9370 O   0  0  0  0  0  0  0  0  0  0  0  0
  129.2800  123.4640   60.7760 N   0  0  0  0  0  0  0  0  0  0  0  0
  129.3370  122.1440   60.9750 N   0  0  0  0  0  0  0  0  0  0  0  0
  133.9424  121.6419   61.8740 H   0  0  0  0  0  0  0  0  0  0  0  0
  134.5039  120.9303   60.3232 H   0  0  0  0  0  0  0  0  0  0  0  0
  133.2109  122.1772   60.3232 H   0  0  0  0  0  0  0  0  0  0  0  0
  134.0853  118.6759   61.0940 H   0  0  0  0  0  0  0  0  0  0  0  0
  132.4422  116.8277   61.3630 H   0  0  0  0  0  0  0  0  0  0  0  0
  130.0021  117.3313   61.4331 H   0  0  0  0  0  0  0  0  0  0  0  0
  129.2074  119.6758   61.2121 H   0  0  0  0  0  0  0  0  0  0  0  0
  126.9041  126.5838   60.5569 H   0  0  0  0  0  0  0  0  0  0  0  0
  129.8037  128.0359   58.4775 H   0  0  0  0  0  0  0  0  0  0  0  0
  131.8594  130.5882   59.5606 H   0  0  0  0  0  0  0  0  0  0  0  0
  133.1354  132.2294   58.1834 H   0  0  0  0  0  0  0  0  0  0  0  0
  131.9821  133.4914   56.3742 H   0  0  0  0  0  0  0  0  0  0  0  0
  129.5613  133.1216   55.9231 H   0  0  0  0  0  0  0  0  0  0  0  0
  128.2768  131.4884   57.2987 H   0  0  0  0  0  0  0  0  0  0  0  0
  125.2255  129.9387   60.5995 H   0  0  0  0  0  0  0  0  0  0  0  0
  123.5743  130.1365   62.4545 H   0  0  0  0  0  0  0  0  0  0  0  0
  128.3291  128.9492   63.4491 H   0  0  0  0  0  0  0  0  0  0  0  0
  125.4215  127.8634   66.4029 H   0  0  0  0  0  0  0  0  0  0  0  0
  126.1939  129.0491   67.5233 H   0  0  0  0  0  0  0  0  0  0  0  0
  123.8151  129.6560   67.0356 H   0  0  0  0  0  0  0  0  0  0  0  0
  124.9686  130.9046   66.4310 H   0  0  0  0  0  0  0  0  0  0  0  0
  1  2  1  0
  2  3  2  0
  3  4  1  0
  4  5  2  0
  5  6  1  0
  6  7  2  0
  7  8  1  0
  8  9  1  0
  9 10  2  0
 10 11  1  0
 11 12  1  0
 12 13  2  0
 13 14  1  0
 14 15  2  0
 15 16  1  0
 16 17  1  0
 17 18  2  0
 18 19  1  0
 19 20  2  0
 20 21  1  0
 21 22  2  0
 16 23  1  0
 23 24  2  0
 24 25  1  0
 25 26  2  0
 26 27  1  0
 27 28  2  0
 28 29  1  0
 29 30  2  0
 29 31  1  0
 31 32  1  0
 32 33  1  0
 33 34  1  0
 12 35  1  0
 35 36  2  0
 35 37  1  0
 37 38  1  0
  7  2  1  0
 38  8  2  0
 37 10  1  0
 24 14  1  0
 30 25  1  0
 22 17  1  0
 34 28  1  0
  1 39  1  0
  1 40  1  0
  1 41  1  0
  3 42  1  0
  4 43  1  0
  5 44  1  0
  6 45  1  0
 13 46  1  0
 15 47  1  0
 18 48  1  0
 19 49  1  0
 20 50  1  0
 21 51  1  0
 22 52  1  0
 26 53  1  0
 27 54  1  0
 30 55  1  0
 32 56  1  0
 32 57  1  0
 33 58  1  0
 33 59  1  0
M  END
>  <Binding energies>  (1) 
[-8.63]

>  <Ligand effiencies>  (1) 
[-0.22710526315789475]

>  <Interactions>  (1) 
["V-A:PRO:540:CA:4881, H-B:ARG:545:NH2:9900, V-A:ILE:538:CB:4860, V-B:ALA:541:CB:9864, V-B:TYR:539:CE1:9847, V-A:ILE:369:CG2:3234, V-A:PRO:540:CD:4885, V-A:PRO:540:CB:4883, V-B:ARG:545:CZ:9898, V-A:ILE:369:CD1:3236, V-A:PRO:540:N:4882, V-A:LEU:475:CD2:4256, V-B:ASP:366:CG:8184, H-B:TYR:484:OH:9319, V-B:TYR:539:CD1:9845, H-B:GLY:454:N:9021, H-B:ARG:545:NE:9896, V-B:TYR:539:C:9839, V-B:HIS:456:CE1:9040, V-B:GLY:454:CA:9020, V-A:TYR:539:C:4865, H-B:ARG:545:NH1:9899, V-A:PRO:482:CB:4323, V-B:TYR:484:CZ:9318, V-A:PRO:482:CG:4324, V-A:SER:385:CA:3404, V-A:SER:385:CB:3406, V-A:LEU:475:CG:4254, V-B:ARG:545:CG:9894, V-B:ARG:545:CD:9895"]

$$$$
RR27_Rahimova_2017
     RDKit          3D

 66 71  0  0  0  0  0  0  0  0999 V2000
  125.9490  128.9620   60.1650 O   0  0  0  0  0  0  0  0  0  0  0  0
  126.8220  129.1430   61.0190 C   0  0  0  0  0  0  0  0  0  0  0  0
  127.3200  130.5960   61.2700 C   0  0  0  0  0  0  0  0  0  0  0  0
  126.2300  131.5170   61.8500 C   0  0  0  0  0  0  0  0  0  0  0  0
  126.0290  131.6470   63.2330 C   0  0  0  0  0  0  0  0  0  0  0  0
  125.0360  132.4910   63.7230 C   0  0  0  0  0  0  0  0  0  0  0  0
  124.2400  133.2070   62.8340 C   0  0  0  0  0  0  0  0  0  0  0  0
  124.4250  133.0870   61.4600 C   0  0  0  0  0  0  0  0  0  0  0  0
  125.4180  132.2440   60.9700 C   0  0  0  0  0  0  0  0  0  0  0  0
  128.0660  131.1640   60.0470 C   0  0  0  0  0  0  0  0  0  0  0  0
  129.1880  131.9920   60.1870 C   0  0  0  0  0  0  0  0  0  0  0  0
  129.8320  132.4970   59.0600 C   0  0  0  0  0  0  0  0  0  0  0  0
  129.3540  132.1810   57.7920 C   0  0  0  0  0  0  0  0  0  0  0  0
  128.2330  131.3690   57.6380 C   0  0  0  0  0  0  0  0  0  0  0  0
  127.5900  130.8660   58.7640 C   0  0  0  0  0  0  0  0  0  0  0  0
  127.2410  128.1360   61.8380 N   0  0  0  0  0  0  0  0  0  0  0  0
  128.4380  128.2260   62.6870 C   0  0  0  0  0  0  0  0  0  0  0  0
  129.6340  127.7670   61.8240 C   0  0  0  0  0  0  0  0  0  0  0  0
  129.4230  126.3480   61.2060 C   0  0  0  0  0  0  0  0  0  0  0  0
  130.5360  125.8890   60.2460 C   0  0  0  0  0  0  0  0  0  0  0  0
  130.6260  126.5550   59.0580 N   0  0  0  0  0  0  0  0  0  0  0  0
  131.6100  126.2070   58.1840 C   0  0  0  0  0  0  0  0  0  0  0  0
  131.8040  126.8030   56.9650 O   0  0  0  0  0  0  0  0  0  0  0  0
  132.4950  125.1710   58.5410 C   0  0  0  0  0  0  0  0  0  0  0  0
  133.5640  124.5920   57.9230 N   0  0  0  0  0  0  0  0  0  0  0  0
  134.0420  123.6060   58.7660 N   0  0  0  0  0  0  0  0  0  0  0  0
  133.2860  123.5860   59.8850 N   0  0  0  0  0  0  0  0  0  0  0  0
  133.5560  122.6160   60.9440 C   0  0  0  0  0  0  0  0  0  0  0  0
  132.5460  121.4780   61.0030 C   0  0  0  0  0  0  0  0  0  0  0  0
  131.2110  121.7370   61.3300 C   0  0  0  0  0  0  0  0  0  0  0  0
  130.2840  120.6950   61.3730 C   0  0  0  0  0  0  0  0  0  0  0  0
  130.6840  119.3910   61.0850 C   0  0  0  0  0  0  0  0  0  0  0  0
  132.0130  119.1270   60.7480 C   0  0  0  0  0  0  0  0  0  0  0  0
  132.5050  117.5170   60.3650 Cl  0  0  0  0  0  0  0  0  0  0  0  0
  132.9420  120.1670   60.7120 C   0  0  0  0  0  0  0  0  0  0  0  0
  132.2950  124.5490   59.7920 C   0  0  0  0  0  0  0  0  0  0  0  0
  131.3340  124.8650   60.6640 N   0  0  0  0  0  0  0  0  0  0  0  0
  127.9890  126.1780   60.6160 C   0  0  0  0  0  0  0  0  0  0  0  0
  126.8790  126.7420   61.5390 C   0  0  0  0  0  0  0  0  0  0  0  0
  128.0727  130.5505   62.0709 H   0  0  0  0  0  0  0  0  0  0  0  0
  126.6592  131.0792   63.9333 H   0  0  0  0  0  0  0  0  0  0  0  0
  124.8814  132.5914   64.8075 H   0  0  0  0  0  0  0  0  0  0  0  0
  123.4564  133.8748   63.2214 H   0  0  0  0  0  0  0  0  0  0  0  0
  123.7897  133.6555   60.7648 H   0  0  0  0  0  0  0  0  0  0  0  0
  125.5663  132.1479   59.8843 H   0  0  0  0  0  0  0  0  0  0  0  0
  129.5614  132.2440   61.1905 H   0  0  0  0  0  0  0  0  0  0  0  0
  130.7151  133.1432   59.1719 H   0  0  0  0  0  0  0  0  0  0  0  0
  129.8665  132.5764   56.9026 H   0  0  0  0  0  0  0  0  0  0  0  0
  127.8586  131.1271   56.6324 H   0  0  0  0  0  0  0  0  0  0  0  0
  126.7008  130.2293   58.6460 H   0  0  0  0  0  0  0  0  0  0  0  0
  128.5881  129.2633   63.0208 H   0  0  0  0  0  0  0  0  0  0  0  0
  128.3340  127.5967   63.5832 H   0  0  0  0  0  0  0  0  0  0  0  0
  129.7756  128.4892   61.0065 H   0  0  0  0  0  0  0  0  0  0  0  0
  130.5160  127.7158   62.4794 H   0  0  0  0  0  0  0  0  0  0  0  0
  129.5086  125.6490   62.0510 H   0  0  0  0  0  0  0  0  0  0  0  0
  132.3630  127.5810   57.0180 H   0  0  0  0  0  0  0  0  0  0  0  0
  134.5543  122.1860   60.7750 H   0  0  0  0  0  0  0  0  0  0  0  0
  133.4883  123.1561   61.8999 H   0  0  0  0  0  0  0  0  0  0  0  0
  130.8909  122.7653   61.5540 H   0  0  0  0  0  0  0  0  0  0  0  0
  129.2360  120.9028   61.6346 H   0  0  0  0  0  0  0  0  0  0  0  0
  129.9527  118.5702   61.1232 H   0  0  0  0  0  0  0  0  0  0  0  0
  133.9903  119.9562   60.4538 H   0  0  0  0  0  0  0  0  0  0  0  0
  127.9430  126.7048   59.6514 H   0  0  0  0  0  0  0  0  0  0  0  0
  127.8062  125.0989   60.5061 H   0  0  0  0  0  0  0  0  0  0  0  0
  125.9061  126.7051   61.0271 H   0  0  0  0  0  0  0  0  0  0  0  0
  126.7952  126.1497   62.4622 H   0  0  0  0  0  0  0  0  0  0  0  0
  1  2  2  0
  2  3  1  0
  3  4  1  0
  4  5  2  0
  5  6  1  0
  6  7  2  0
  7  8  1  0
  8  9  2  0
  3 10  1  0
 10 11  2  0
 11 12  1  0
 12 13  2  0
 13 14  1  0
 14 15  2  0
  2 16  1  0
 16 17  1  0
 17 18  1  0
 18 19  1  0
 19 20  1  0
 20 21  2  0
 21 22  1  0
 22 23  1  0
 22 24  2  0
 24 25  1  0
 25 26  2  0
 26 27  1  0
 27 28  1  0
 28 29  1  0
 29 30  2  0
 30 31  1  0
 31 32  2  0
 32 33  1  0
 33 34  1  0
 33 35  2  0
 27 36  1  0
 36 37  2  0
 19 38  1  0
 38 39  1  0
  9  4  1  0
 15 10  1  0
 39 16  1  0
 37 20  1  0
 36 24  1  0
 35 29  1  0
  3 40  1  0
  5 41  1  0
  6 42  1  0
  7 43  1  0
  8 44  1  0
  9 45  1  0
 11 46  1  0
 12 47  1  0
 13 48  1  0
 14 49  1  0
 15 50  1  0
 17 51  1  0
 17 52  1  0
 18 53  1  0
 18 54  1  0
 19 55  1  0
 23 56  1  0
 28 57  1  0
 28 58  1  0
 30 59  1  0
 31 60  1  0
 32 61  1  0
 35 62  1  0
 38 63  1  0
 38 64  1  0
 39 65  1  0
 39 66  1  0
M  END
>  <Binding energies>  (1) 
[-10.13]

>  <Ligand effiencies>  (1) 
[-0.25325000000000003]

>  <Interactions>  (1) 
["V-A:PRO:540:CA:4881, V-B:ALA:541:CB:9864, V-B:TYR:539:CE1:9847, V-A:ILE:369:CG2:3234, V-B:ILE:369:CG2:8208, V-A:ILE:369:CD1:3236, V-A:PRO:540:N:4882, V-B:ILE:369:CD1:8210, V-A:ASP:366:CG:3210, V-A:LEU:475:CD2:4256, V-A:TYR:539:CE1:4873, V-B:LEU:475:CD2:9230, V-B:TYR:539:CD1:9845, V-A:TYR:539:CD1:4871, V-A:ASP:366:CB:3209, V-A:TYR:539:CZ:4875, V-A:GLU:543:CD:4906, V-B:GLY:454:CA:9020, H-A:TYR:531:OH:4793, V-A:TYR:539:C:4865, H-B:TYR:539:OH:9850, H-A:ASP:366:OD2:3212, V-A:LEU:373:CD1:3277, V-A:SER:385:CA:3404, V-A:SER:385:CB:3406"]

$$$$
RR27_Rahimova_2017-again1
     RDKit          3D

 66 71  0  0  0  0  0  0  0  0999 V2000
  128.8030  126.2440   58.7310 O   0  0  0  0  0  0  0  0  0  0  0  0
  129.0620  125.7280   59.8220 C   0  0  0  0  0  0  0  0  0  0  0  0
  128.4750  124.3170   60.1280 C   0  0  0  0  0  0  0  0  0  0  0  0
  129.5650  123.2870   60.4780 C   0  0  0  0  0  0  0  0  0  0  0  0
  130.9160  123.4950   60.1610 C   0  0  0  0  0  0  0  0  0  0  0  0
  131.8730  122.5410   60.4960 C   0  0  0  0  0  0  0  0  0  0  0  0
  131.4860  121.3740   61.1490 C   0  0  0  0  0  0  0  0  0  0  0  0
  130.1510  121.1540   61.4720 C   0  0  0  0  0  0  0  0  0  0  0  0
  129.1940  122.1080   61.1370 C   0  0  0  0  0  0  0  0  0  0  0  0
  127.5070  123.8430   59.0270 C   0  0  0  0  0  0  0  0  0  0  0  0
  126.1190  124.0010   59.1550 C   0  0  0  0  0  0  0  0  0  0  0  0
  125.2620  123.5460   58.1560 C   0  0  0  0  0  0  0  0  0  0  0  0
  125.7890  122.9340   57.0220 C   0  0  0  0  0  0  0  0  0  0  0  0
  127.1630  122.7680   56.8810 C   0  0  0  0  0  0  0  0  0  0  0  0
  128.0200  123.2160   57.8840 C   0  0  0  0  0  0  0  0  0  0  0  0
  129.9670  126.2920   60.6750 N   0  0  0  0  0  0  0  0  0  0  0  0
  130.1170  125.8980   62.0820 C   0  0  0  0  0  0  0  0  0  0  0  0
  129.0790  126.6940   62.9070 C   0  0  0  0  0  0  0  0  0  0  0  0
  128.9520  128.2130   62.5530 C   0  0  0  0  0  0  0  0  0  0  0  0
  127.5820  128.8070   62.8960 C   0  0  0  0  0  0  0  0  0  0  0  0
  126.8320  129.3140   61.9690 N   0  0  0  0  0  0  0  0  0  0  0  0
  125.6390  129.8180   62.3890 C   0  0  0  0  0  0  0  0  0  0  0  0
  125.1700  129.8390   63.6940 C   0  0  0  0  0  0  0  0  0  0  0  0
  123.9800  130.4110   63.7460 N   0  0  0  0  0  0  0  0  0  0  0  0
  123.6380  130.7830   62.4500 N   0  0  0  0  0  0  0  0  0  0  0  0
  124.6460  130.4000   61.6460 N   0  0  0  0  0  0  0  0  0  0  0  0
  124.6030  130.6680   60.2140 C   0  0  0  0  0  0  0  0  0  0  0  0
  125.9350  130.4330   59.5170 C   0  0  0  0  0  0  0  0  0  0  0  0
  126.1330  129.2770   58.7530 C   0  0  0  0  0  0  0  0  0  0  0  0
  127.3570  129.0550   58.1200 C   0  0  0  0  0  0  0  0  0  0  0  0
  128.3870  129.9870   58.2450 C   0  0  0  0  0  0  0  0  0  0  0  0
  128.1940  131.1440   59.0000 C   0  0  0  0  0  0  0  0  0  0  0  0
  129.4700  132.2940   59.1570 Cl  0  0  0  0  0  0  0  0  0  0  0  0
  126.9700  131.3680   59.6330 C   0  0  0  0  0  0  0  0  0  0  0  0
  125.9940  129.2660   64.7590 C   0  0  0  0  0  0  0  0  0  0  0  0
  125.7480  129.1890   65.9600 O   0  0  0  0  0  0  0  0  0  0  0  0
  127.1700  128.7830   64.2250 N   0  0  0  0  0  0  0  0  0  0  0  0
  129.4340  128.6260   61.1260 C   0  0  0  0  0  0  0  0  0  0  0  0
  130.4370  127.6650   60.4410 C   0  0  0  0  0  0  0  0  0  0  0  0
  127.8667  124.4119   61.0396 H   0  0  0  0  0  0  0  0  0  0  0  0
  131.2207  124.4173   59.6447 H   0  0  0  0  0  0  0  0  0  0  0  0
  132.9309  122.7087   60.2457 H   0  0  0  0  0  0  0  0  0  0  0  0
  132.2422  120.6196   61.4117 H   0  0  0  0  0  0  0  0  0  0  0  0
  129.8528  120.2304   61.9898 H   0  0  0  0  0  0  0  0  0  0  0  0
  128.1381  121.9345   61.3919 H   0  0  0  0  0  0  0  0  0  0  0  0
  125.7048  124.4875   60.0504 H   0  0  0  0  0  0  0  0  0  0  0  0
  124.1741  123.6695   58.2624 H   0  0  0  0  0  0  0  0  0  0  0  0
  125.1129  122.5785   56.2304 H   0  0  0  0  0  0  0  0  0  0  0  0
  127.5713  122.2849   55.9810 H   0  0  0  0  0  0  0  0  0  0  0  0
  129.1059  123.0766   57.7778 H   0  0  0  0  0  0  0  0  0  0  0  0
  129.9336  124.8188   62.1903 H   0  0  0  0  0  0  0  0  0  0  0  0
  131.1363  126.1128   62.4354 H   0  0  0  0  0  0  0  0  0  0  0  0
  128.0949  126.2275   62.7525 H   0  0  0  0  0  0  0  0  0  0  0  0
  129.4314  126.6571   63.9484 H   0  0  0  0  0  0  0  0  0  0  0  0
  129.6864  128.6768   63.2280 H   0  0  0  0  0  0  0  0  0  0  0  0
  123.8494  130.0091   59.7580 H   0  0  0  0  0  0  0  0  0  0  0  0
  124.3535  131.7320   60.0892 H   0  0  0  0  0  0  0  0  0  0  0  0
  125.3216  128.5413   58.6512 H   0  0  0  0  0  0  0  0  0  0  0  0
  127.5094  128.1443   57.5221 H   0  0  0  0  0  0  0  0  0  0  0  0
  129.3521  129.8096   57.7479 H   0  0  0  0  0  0  0  0  0  0  0  0
  126.8185  132.2826   60.2250 H   0  0  0  0  0  0  0  0  0  0  0  0
  127.8010  128.3710   64.8970 H   0  0  0  0  0  0  0  0  0  0  0  0
  128.5466  128.7017   60.4804 H   0  0  0  0  0  0  0  0  0  0  0  0
  129.9769  129.5733   61.2601 H   0  0  0  0  0  0  0  0  0  0  0  0
  130.4747  127.8697   59.3609 H   0  0  0  0  0  0  0  0  0  0  0  0
  131.4475  127.8031   60.8531 H   0  0  0  0  0  0  0  0  0  0  0  0
  1  2  2  0
  2  3  1  0
  3  4  1  0
  4  5  2  0
  5  6  1  0
  6  7  2  0
  7  8  1  0
  8  9  2  0
  3 10  1  0
 10 11  2  0
 11 12  1  0
 12 13  2  0
 13 14  1  0
 14 15  2  0
  2 16  1  0
 16 17  1  0
 17 18  1  0
 18 19  1  0
 19 20  1  0
 20 21  2  0
 21 22  1  0
 22 23  2  0
 23 24  1  0
 24 25  2  0
 25 26  1  0
 26 27  1  0
 27 28  1  0
 28 29  2  0
 29 30  1  0
 30 31  2  0
 31 32  1  0
 32 33  1  0
 32 34  2  0
 23 35  1  0
 35 36  2  0
 35 37  1  0
 19 38  1  0
 38 39  1  0
  9  4  1  0
 15 10  1  0
 39 16  1  0
 37 20  1  0
 26 22  1  0
 34 28  1  0
  3 40  1  0
  5 41  1  0
  6 42  1  0
  7 43  1  0
  8 44  1  0
  9 45  1  0
 11 46  1  0
 12 47  1  0
 13 48  1  0
 14 49  1  0
 15 50  1  0
 17 51  1  0
 17 52  1  0
 18 53  1  0
 18 54  1  0
 19 55  1  0
 27 56  1  0
 27 57  1  0
 29 58  1  0
 30 59  1  0
 31 60  1  0
 34 61  1  0
 37 62  1  0
 38 63  1  0
 38 64  1  0
 39 65  1  0
 39 66  1  0
M  END
>  <Binding energies>  (1) 
[-9.45]

>  <Ligand effiencies>  (1) 
[-0.23625]

>  <Interactions>  (1) 
["V-A:PRO:540:CA:4881, V-B:ALA:541:CB:9864, V-B:TYR:539:CE1:9847, V-B:ARG:545:CZ:9898, V-A:PRO:540:N:4882, V-A:LEU:475:CD2:4256, V-A:TYR:539:CE1:4873, V-B:PRO:540:CA:9855, V-B:ASP:366:CG:8184, V-B:PRO:540:CB:9857, H-B:TYR:484:OH:9319, V-B:PRO:540:CD:9859, V-B:TYR:539:CD1:9845, H-B:GLY:454:N:9021, V-A:TYR:539:CD1:4871, V-B:ASP:366:CB:8183, V-B:PRO:540:N:9856, H-B:ARG:545:NE:9896, V-B:TYR:539:C:9839, V-B:GLU:543:CD:9880, H-A:GLU:543:OE2:4908, H-A:GLU:543:OE1:4907, H-B:GLU:543:OE2:9882, V-A:TYR:539:CZ:4875, V-A:GLU:543:CD:4906, V-A:TYR:539:C:4865"]

$$$$
RR28_Rahimova_2017
     RDKit          3D

 82 85  0  0  0  0  0  0  0  0999 V2000
  124.2550  132.8460   60.5500 C   0  0  0  0  0  0  0  0  0  0  0  0
  125.2780  131.8260   61.0380 C   0  0  0  0  0  0  0  0  0  0  0  0
  124.8970  130.8290   61.6490 O   0  0  0  0  0  0  0  0  0  0  0  0
  126.5690  132.0940   60.7590 N   0  0  0  0  0  0  0  0  0  0  0  0
  127.7670  131.2980   61.1110 C   0  0  0  0  0  0  0  0  0  0  0  0
  127.6090  130.8060   62.5780 C   0  0  0  0  0  0  0  0  0  0  0  0
  127.4110  131.7450   63.6020 C   0  0  0  0  0  0  0  0  0  0  0  0
  127.2710  131.3410   64.9260 C   0  0  0  0  0  0  0  0  0  0  0  0
  127.3260  129.9860   65.2580 C   0  0  0  0  0  0  0  0  0  0  0  0
  127.1740  129.5620   66.7180 C   0  0  0  0  0  0  0  0  0  0  0  0
  127.8130  128.4200   66.9830 F   0  0  0  0  0  0  0  0  0  0  0  0
  127.6600  130.5030   67.5270 F   0  0  0  0  0  0  0  0  0  0  0  0
  125.8800  129.3880   66.9920 F   0  0  0  0  0  0  0  0  0  0  0  0
  127.5240  129.0410   64.2480 C   0  0  0  0  0  0  0  0  0  0  0  0
  127.6650  129.4460   62.9240 C   0  0  0  0  0  0  0  0  0  0  0  0
  129.0750  132.1320   60.8620 C   0  0  0  0  0  0  0  0  0  0  0  0
  129.3190  132.4560   59.3660 C   0  0  0  0  0  0  0  0  0  0  0  0
  129.3960  131.1630   58.6660 N   0  0  0  0  0  0  0  0  0  0  0  0
  130.6010  130.5650   58.4580 C   0  0  0  0  0  0  0  0  0  0  0  0
  131.6660  131.1430   58.6860 O   0  0  0  0  0  0  0  0  0  0  0  0
  130.6390  129.1830   57.7620 C   0  0  0  0  0  0  0  0  0  0  0  0
  131.0020  127.9760   58.6690 C   0  0  0  0  0  0  0  0  0  0  0  0
  129.8820  126.9230   58.8390 C   0  0  0  0  0  0  0  0  0  0  0  0
  128.7120  127.3160   58.8290 O   0  0  0  0  0  0  0  0  0  0  0  0
  130.1970  125.5970   58.8560 N   0  0  0  0  0  0  0  0  0  0  0  0
  131.5350  125.0890   59.1840 C   0  0  0  0  0  0  0  0  0  0  0  0
  131.6010  124.9800   60.7230 C   0  0  0  0  0  0  0  0  0  0  0  0
  130.4840  124.0850   61.3650 C   0  0  0  0  0  0  0  0  0  0  0  0
  130.4020  124.3770   62.8120 N   0  0  0  0  0  0  0  0  0  0  0  0
  131.4100  124.4470   63.7050 C   0  0  0  0  0  0  0  0  0  0  0  0
  131.0160  124.7500   65.1470 C   0  0  0  0  0  0  0  0  0  0  0  0
  132.5960  124.2820   63.4200 O   0  0  0  0  0  0  0  0  0  0  0  0
  130.9300  122.5950   61.2090 C   0  0  0  0  0  0  0  0  0  0  0  0
  130.0440  121.5160   61.3590 C   0  0  0  0  0  0  0  0  0  0  0  0
  130.4820  120.2020   61.2100 C   0  0  0  0  0  0  0  0  0  0  0  0
  131.8200  119.9340   60.9110 C   0  0  0  0  0  0  0  0  0  0  0  0
  132.3150  118.4990   60.7410 C   0  0  0  0  0  0  0  0  0  0  0  0
  131.7910  117.9480   59.6440 F   0  0  0  0  0  0  0  0  0  0  0  0
  133.6420  118.5060   60.6220 F   0  0  0  0  0  0  0  0  0  0  0  0
  131.9920  117.7290   61.7820 F   0  0  0  0  0  0  0  0  0  0  0  0
  132.7140  120.9960   60.7670 C   0  0  0  0  0  0  0  0  0  0  0  0
  132.2730  122.3070   60.9160 C   0  0  0  0  0  0  0  0  0  0  0  0
  129.1070  124.3980   60.6620 C   0  0  0  0  0  0  0  0  0  0  0  0
  129.1570  124.5950   59.1230 C   0  0  0  0  0  0  0  0  0  0  0  0
  128.1320  130.4140   58.6860 C   0  0  0  0  0  0  0  0  0  0  0  0
  127.8400  130.0540   60.1660 C   0  0  0  0  0  0  0  0  0  0  0  0
  123.7740  133.3256   61.4152 H   0  0  0  0  0  0  0  0  0  0  0  0
  124.7607  133.6101   59.9414 H   0  0  0  0  0  0  0  0  0  0  0  0
  123.4924  132.3381   59.9414 H   0  0  0  0  0  0  0  0  0  0  0  0
  126.7640  132.9550   60.2690 H   0  0  0  0  0  0  0  0  0  0  0  0
  127.3658  132.8158   63.3543 H   0  0  0  0  0  0  0  0  0  0  0  0
  127.1163  132.0923   65.7145 H   0  0  0  0  0  0  0  0  0  0  0  0
  127.5687  127.9713   64.5007 H   0  0  0  0  0  0  0  0  0  0  0  0
  127.8222  128.6917   62.1389 H   0  0  0  0  0  0  0  0  0  0  0  0
  128.9963  133.0789   61.4162 H   0  0  0  0  0  0  0  0  0  0  0  0
  129.9222  131.5204   61.2057 H   0  0  0  0  0  0  0  0  0  0  0  0
  128.4879  133.0556   58.9665 H   0  0  0  0  0  0  0  0  0  0  0  0
  130.2427  133.0377   59.2302 H   0  0  0  0  0  0  0  0  0  0  0  0
  129.6440  128.9945   57.3326 H   0  0  0  0  0  0  0  0  0  0  0  0
  131.4450  129.2476   57.0162 H   0  0  0  0  0  0  0  0  0  0  0  0
  131.8785  127.4739   58.2335 H   0  0  0  0  0  0  0  0  0  0  0  0
  131.1875  128.3905   59.6709 H   0  0  0  0  0  0  0  0  0  0  0  0
  131.6882  124.1004   58.7267 H   0  0  0  0  0  0  0  0  0  0  0  0
  132.3186  125.7587   58.8000 H   0  0  0  0  0  0  0  0  0  0  0  0
  132.5787  124.5555   60.9949 H   0  0  0  0  0  0  0  0  0  0  0  0
  131.4472  125.9968   61.1135 H   0  0  0  0  0  0  0  0  0  0  0  0
  129.4660  124.4990   63.1670 H   0  0  0  0  0  0  0  0  0  0  0  0
  131.6985  124.2251   65.8316 H   0  0  0  0  0  0  0  0  0  0  0  0
  131.0802  125.8337   65.3247 H   0  0  0  0  0  0  0  0  0  0  0  0
  129.9851  124.4097   65.3247 H   0  0  0  0  0  0  0  0  0  0  0  0
  128.9881  121.7113   61.5978 H   0  0  0  0  0  0  0  0  0  0  0  0
  129.7707  119.3713   61.3284 H   0  0  0  0  0  0  0  0  0  0  0  0
  133.7705  120.7958   60.5350 H   0  0  0  0  0  0  0  0  0  0  0  0
  132.9897  123.1336   60.8022 H   0  0  0  0  0  0  0  0  0  0  0  0
  128.4243  123.5615   60.8721 H   0  0  0  0  0  0  0  0  0  0  0  0
  128.7770  125.3632   61.0736 H   0  0  0  0  0  0  0  0  0  0  0  0
  129.4099  123.6458   58.6279 H   0  0  0  0  0  0  0  0  0  0  0  0
  128.1820  124.9260   58.7360 H   0  0  0  0  0  0  0  0  0  0  0  0
  127.3190  131.0345   58.2809 H   0  0  0  0  0  0  0  0  0  0  0  0
  128.2044  129.5064   58.0687 H   0  0  0  0  0  0  0  0  0  0  0  0
  126.8762  129.5257   60.2116 H   0  0  0  0  0  0  0  0  0  0  0  0
  128.6759  129.4312   60.5171 H   0  0  0  0  0  0  0  0  0  0  0  0
  1  2  1  0
  2  3  2  0
  2  4  1  0
  4  5  1  0
  5  6  1  0
  6  7  2  0
  7  8  1  0
  8  9  2  0
  9 10  1  0
 10 11  1  0
 10 12  1  0
 10 13  1  0
  9 14  1  0
 14 15  2  0
  5 16  1  0
 16 17  1  0
 17 18  1  0
 18 19  1  0
 19 20  2  0
 19 21  1  0
 21 22  1  0
 22 23  1  0
 23 24  2  0
 23 25  1  0
 25 26  1  0
 26 27  1  0
 27 28  1  0
 28 29  1  0
 29 30  1  0
 30 31  1  0
 30 32  2  0
 28 33  1  0
 33 34  2  0
 34 35  1  0
 35 36  2  0
 36 37  1  0
 37 38  1  0
 37 39  1  0
 37 40  1  0
 36 41  1  0
 41 42  2  0
 28 43  1  0
 43 44  1  0
 18 45  1  0
 45 46  1  0
 46  5  1  0
 15  6  1  0
 44 25  1  0
 42 33  1  0
  1 47  1  0
  1 48  1  0
  1 49  1  0
  4 50  1  0
  7 51  1  0
  8 52  1  0
 14 53  1  0
 15 54  1  0
 16 55  1  0
 16 56  1  0
 17 57  1  0
 17 58  1  0
 21 59  1  0
 21 60  1  0
 22 61  1  0
 22 62  1  0
 26 63  1  0
 26 64  1  0
 27 65  1  0
 27 66  1  0
 29 67  1  0
 31 68  1  0
 31 69  1  0
 31 70  1  0
 34 71  1  0
 35 72  1  0
 41 73  1  0
 42 74  1  0
 43 75  1  0
 43 76  1  0
 44 77  1  0
 44 78  1  0
 45 79  1  0
 45 80  1  0
 46 81  1  0
 46 82  1  0
M  END
>  <Binding energies>  (1) 
[-7.53]

>  <Ligand effiencies>  (1) 
[-0.15687500000000001]

>  <Interactions>  (1) 
["V-A:PRO:540:CA:4881, V-B:ALA:541:CB:9864, V-B:TYR:539:CE1:9847, V-A:ILE:369:CG2:3234, V-B:ILE:369:CG2:8208, H-A:GLY:454:N:4047, H-A:TYR:484:OH:4345, V-A:PRO:540:N:4882, V-B:ILE:369:CD1:8210, V-A:ASP:366:CG:3210, V-A:LEU:475:CD2:4256, V-A:TYR:539:CE1:4873, V-B:TYR:539:CD1:9845, V-A:TYR:539:CD1:4871, V-B:TYR:539:CG:9844, V-B:ILE:369:CB:8207, V-B:GLU:543:CD:9880, V-A:ASP:366:CB:3209, V-A:ALA:541:CB:4890, H-B:GLU:543:OE1:9881, V-B:HIS:456:CE1:9040, V-A:GLU:543:CB:4904, V-A:GLU:543:CD:4906, V-A:GLU:543:CG:4905, V-A:TYR:539:C:4865, V-A:PRO:482:CB:4323, V-B:TYR:484:CE2:9317, V-B:TYR:484:CZ:9318, V-A:PRO:482:CG:4324, V-B:TYR:539:CB:9843, V-A:LEU:373:CD1:3277, V-A:SER:385:CA:3404, V-A:SER:385:CB:3406, V-A:SER:385:C:3402, V-A:LEU:475:CG:4254, V-B:ARG:545:CG:9894, V-B:ARG:545:CD:9895, V-A:GLU:543:CA:4902"]

$$$$
RR29_Rahimova_2017
     RDKit          3D

 35 36  0  0  0  0  0  0  0  0999 V2000
  134.8740  124.9870   61.8810 C   0  0  0  0  0  0  0  0  0  0  0  0
  133.7200  124.3300   62.6230 C   0  0  0  0  0  0  0  0  0  0  0  0
  132.8760  123.3990   61.7230 C   0  0  0  0  0  0  0  0  0  0  0  0
  133.7270  122.2590   61.1260 C   0  0  0  0  0  0  0  0  0  0  0  0
  132.9450  120.9600   61.0020 C   0  0  0  0  0  0  0  0  0  0  0  0
  131.5560  120.9500   61.2350 C   0  0  0  0  0  0  0  0  0  0  0  0
  130.8160  119.7640   61.1260 C   0  0  0  0  0  0  0  0  0  0  0  0
  131.5070  118.6040   60.7930 C   0  0  0  0  0  0  0  0  0  0  0  0
  132.8550  118.6080   60.5680 C   0  0  0  0  0  0  0  0  0  0  0  0
  133.6120  119.7710   60.6590 C   0  0  0  0  0  0  0  0  0  0  0  0
  133.2570  117.3540   60.2290 O   0  0  0  0  0  0  0  0  0  0  0  0
  132.1490  116.5250   60.4600 C   0  0  0  0  0  0  0  0  0  0  0  0
  131.0220  117.3490   60.6010 O   0  0  0  0  0  0  0  0  0  0  0  0
  133.5530  124.6020   63.8640 N   0  0  0  0  0  0  0  0  0  0  0  0
  132.4600  124.0760   64.5170 N   0  0  0  0  0  0  0  0  0  0  0  0
  131.3940  124.7980   64.8990 C   0  0  0  0  0  0  0  0  0  0  0  0
  131.2420  126.1060   64.6840 N   0  0  0  0  0  0  0  0  0  0  0  0
  130.4180  124.1680   65.5360 N   0  0  0  0  0  0  0  0  0  0  0  0
  135.5918  125.3957   62.6075 H   0  0  0  0  0  0  0  0  0  0  0  0
  135.3767  124.2397   61.2495 H   0  0  0  0  0  0  0  0  0  0  0  0
  134.4880  125.8007   61.2495 H   0  0  0  0  0  0  0  0  0  0  0  0
  132.0648  122.9616   62.3236 H   0  0  0  0  0  0  0  0  0  0  0  0
  132.4726  123.9973   60.8928 H   0  0  0  0  0  0  0  0  0  0  0  0
  134.0720  122.5612   60.1262 H   0  0  0  0  0  0  0  0  0  0  0  0
  134.5734  122.0792   61.8052 H   0  0  0  0  0  0  0  0  0  0  0  0
  131.0447  121.8854   61.5062 H   0  0  0  0  0  0  0  0  0  0  0  0
  129.7295  119.7516   61.2975 H   0  0  0  0  0  0  0  0  0  0  0  0
  134.6954  119.7609   60.4691 H   0  0  0  0  0  0  0  0  0  0  0  0
  132.0091  115.8410   59.6099 H   0  0  0  0  0  0  0  0  0  0  0  0
  132.3014  115.9219   61.3672 H   0  0  0  0  0  0  0  0  0  0  0  0
  132.4930  123.0910   64.7360 H   0  0  0  0  0  0  0  0  0  0  0  0
  130.3220  126.5210   64.7050 H   0  0  0  0  0  0  0  0  0  0  0  0
  132.0540  126.6750   64.4910 H   0  0  0  0  0  0  0  0  0  0  0  0
  130.6020  123.2900   66.0000 H   0  0  0  0  0  0  0  0  0  0  0  0
  129.4920  124.5690   65.5610 H   0  0  0  0  0  0  0  0  0  0  0  0
  1  2  1  0
  2  3  1  0
  3  4  1  0
  4  5  1  0
  5  6  2  0
  6  7  1  0
  7  8  2  0
  8  9  1  0
  9 10  2  0
  9 11  1  0
 11 12  1  0
 12 13  1  0
  2 14  2  0
 14 15  1  0
 15 16  1  0
 16 17  1  0
 16 18  2  0
 10  5  1  0
 13  8  1  0
  1 19  1  0
  1 20  1  0
  1 21  1  0
  3 22  1  0
  3 23  1  0
  4 24  1  0
  4 25  1  0
  6 26  1  0
  7 27  1  0
 10 28  1  0
 12 29  1  0
 12 30  1  0
 15 31  1  0
 17 32  1  0
 17 33  1  0
 18 34  1  0
 18 35  1  0
M  CHG  1  18   1
M  END
>  <Binding energies>  (1) 
[-7.42]

>  <Ligand effiencies>  (1) 
[-0.3226086956521739]

>  <Interactions>  (1) 
["V-A:ARG:545:CZ:4924, V-A:GLY:454:CA:4046, V-B:TYR:539:CE1:9847, V-A:ILE:369:CG2:3234, V-A:ILE:369:CD1:3236, H-A:GLY:454:N:4047, H-A:TYR:484:OH:4345, V-A:ASP:366:CG:3210, V-A:LEU:475:CD2:4256, V-A:GLY:453:C:4039, V-B:TYR:539:CD1:9845, V-B:GLU:543:CD:9880, V-B:GLU:543:CG:9879, H-A:GLU:543:OE2:4908, V-B:GLU:543:CB:9878, H-B:GLU:543:OE1:9881, H-B:GLU:543:OE2:9882, V-A:GLU:543:CD:4906, V-A:TYR:484:CZ:4344, V-A:TYR:484:CE2:4343, V-A:PRO:482:CG:4324, V-A:LEU:373:CD1:3277, V-A:SER:385:CA:3404, V-A:SER:385:CB:3406, V-A:SER:385:C:3402, V-A:GLY:453:CA:4041"]

$$$$
RR29_Rahimova_2017-again1
     RDKit          3D

 34 35  0  0  0  0  0  0  0  0999 V2000
  134.2570  124.2190   61.1490 C   0  0  0  0  0  0  0  0  0  0  0  0
  133.6210  124.0480   62.5200 C   0  0  0  0  0  0  0  0  0  0  0  0
  132.7610  122.7750   62.6420 C   0  0  0  0  0  0  0  0  0  0  0  0
  132.1270  122.3880   61.2890 C   0  0  0  0  0  0  0  0  0  0  0  0
  131.9120  120.8870   61.1620 C   0  0  0  0  0  0  0  0  0  0  0  0
  130.6510  120.3310   61.4550 C   0  0  0  0  0  0  0  0  0  0  0  0
  130.4300  118.9510   61.3440 C   0  0  0  0  0  0  0  0  0  0  0  0
  131.5000  118.1580   60.9440 C   0  0  0  0  0  0  0  0  0  0  0  0
  132.7260  118.6920   60.6610 C   0  0  0  0  0  0  0  0  0  0  0  0
  132.9700  120.0580   60.7530 C   0  0  0  0  0  0  0  0  0  0  0  0
  133.5670  117.7010   60.2670 O   0  0  0  0  0  0  0  0  0  0  0  0
  132.8850  116.5020   60.5220 C   0  0  0  0  0  0  0  0  0  0  0  0
  131.5350  116.8160   60.7360 O   0  0  0  0  0  0  0  0  0  0  0  0
  133.8220  124.9420   63.4220 N   0  0  0  0  0  0  0  0  0  0  0  0
  133.2390  124.7730   64.5650 N   0  0  0  0  0  0  0  0  0  0  0  0
  132.1810  125.4610   64.7950 C   0  0  0  0  0  0  0  0  0  0  0  0
  131.5500  126.4100   63.9420 N   0  0  0  0  0  0  0  0  0  0  0  0
  131.4770  125.3380   66.0120 N   0  0  0  0  0  0  0  0  0  0  0  0
  135.3131  124.5029   61.2676 H   0  0  0  0  0  0  0  0  0  0  0  0
  134.1921  123.2715   60.5940 H   0  0  0  0  0  0  0  0  0  0  0  0
  133.7257  125.0062   60.5940 H   0  0  0  0  0  0  0  0  0  0  0  0
  133.3961  121.9466   62.9889 H   0  0  0  0  0  0  0  0  0  0  0  0
  131.9503  122.9739   63.3584 H   0  0  0  0  0  0  0  0  0  0  0  0
  131.1547  122.8940   61.1960 H   0  0  0  0  0  0  0  0  0  0  0  0
  132.8184  122.6982   60.4917 H   0  0  0  0  0  0  0  0  0  0  0  0
  129.8291  120.9883   61.7750 H   0  0  0  0  0  0  0  0  0  0  0  0
  129.4461  118.5116   61.5652 H   0  0  0  0  0  0  0  0  0  0  0  0
  133.9590  120.4757   60.5134 H   0  0  0  0  0  0  0  0  0  0  0  0
  132.9802  115.8262   59.6593 H   0  0  0  0  0  0  0  0  0  0  0  0
  133.3077  115.9986   61.4040 H   0  0  0  0  0  0  0  0  0  0  0  0
  131.9160  126.6360   63.0280 H   0  0  0  0  0  0  0  0  0  0  0  0
  130.7170  126.9100   64.2100 H   0  0  0  0  0  0  0  0  0  0  0  0
  131.7790  124.7130   66.7450 H   0  0  0  0  0  0  0  0  0  0  0  0
  130.6460  125.8720   66.2140 H   0  0  0  0  0  0  0  0  0  0  0  0
  1  2  1  0
  2  3  1  0
  3  4  1  0
  4  5  1  0
  5  6  2  0
  6  7  1  0
  7  8  2  0
  8  9  1  0
  9 10  2  0
  9 11  1  0
 11 12  1  0
 12 13  1  0
  2 14  2  0
 14 15  1  0
 15 16  2  0
 16 17  1  0
 16 18  1  0
 10  5  1  0
 13  8  1  0
  1 19  1  0
  1 20  1  0
  1 21  1  0
  3 22  1  0
  3 23  1  0
  4 24  1  0
  4 25  1  0
  6 26  1  0
  7 27  1  0
 10 28  1  0
 12 29  1  0
 12 30  1  0
 17 31  1  0
 17 32  1  0
 18 33  1  0
 18 34  1  0
M  END
>  <Binding energies>  (1) 
[-6.9]

>  <Ligand effiencies>  (1) 
[-0.31363636363636366]

>  <Interactions>  (1) 
["V-A:ARG:545:CZ:4924, V-A:GLY:454:CA:4046, V-B:ALA:541:CB:9864, V-B:TYR:539:CE1:9847, V-A:ILE:369:CG2:3234, V-A:ILE:369:CD1:3236, H-A:GLY:454:N:4047, H-A:TYR:484:OH:4345, V-A:LEU:475:CD2:4256, H-A:ARG:545:NH2:4926, V-B:TYR:539:CD1:9845, H-A:GLU:543:OE2:4908, V-A:HIS:456:CE1:4066, H-B:GLU:543:OE1:9881, H-B:GLU:543:OE2:9882, V-A:GLU:543:CD:4906, H-A:ARG:545:NH1:4925, V-A:PRO:482:CB:4323, V-A:TYR:484:CZ:4344, V-A:PRO:482:CG:4324, V-A:LEU:373:CD1:3277, V-A:SER:385:CA:3404, V-A:SER:385:CB:3406, H-A:SER:385:N:3405, H-A:HIS:456:ND1:4064"]

$$$$
RR2_Rahimova_2017
     RDKit          3D

 76 80  0  0  0  0  0  0  0  0999 V2000
  130.6320  127.7200   68.7080 C   0  0  0  0  0  0  0  0  0  0  0  0
  129.2630  127.4500   68.9860 O   0  0  0  0  0  0  0  0  0  0  0  0
  128.2890  127.9950   68.1710 C   0  0  0  0  0  0  0  0  0  0  0  0
  127.0090  127.4500   67.9950 C   0  0  0  0  0  0  0  0  0  0  0  0
  126.0930  128.0680   67.1480 C   0  0  0  0  0  0  0  0  0  0  0  0
  126.4330  129.2400   66.4580 C   0  0  0  0  0  0  0  0  0  0  0  0
  125.4190  129.8890   65.5360 C   0  0  0  0  0  0  0  0  0  0  0  0
  124.2090  129.7160   65.7200 O   0  0  0  0  0  0  0  0  0  0  0  0
  125.9290  130.6330   64.5270 N   0  0  0  0  0  0  0  0  0  0  0  0
  125.0470  131.1750   63.5990 N   0  0  0  0  0  0  0  0  0  0  0  0
  125.3970  132.3190   62.9780 C   0  0  0  0  0  0  0  0  0  0  0  0
  126.3580  133.0270   63.2930 O   0  0  0  0  0  0  0  0  0  0  0  0
  124.5190  132.7190   61.7850 C   0  0  0  0  0  0  0  0  0  0  0  0
  124.7690  131.7220   60.2710 S   0  0  0  0  0  0  0  0  0  0  0  0
  125.6670  130.3500   60.9290 C   0  0  0  0  0  0  0  0  0  0  0  0
  125.1360  129.4750   61.7460 N   0  0  0  0  0  0  0  0  0  0  0  0
  126.1370  128.5880   62.1160 N   0  0  0  0  0  0  0  0  0  0  0  0
  127.2310  128.9430   61.4840 C   0  0  0  0  0  0  0  0  0  0  0  0
  128.5280  128.2120   61.6140 C   0  0  0  0  0  0  0  0  0  0  0  0
  129.1210  127.6440   60.4840 C   0  0  0  0  0  0  0  0  0  0  0  0
  130.3250  126.9550   60.5960 C   0  0  0  0  0  0  0  0  0  0  0  0
  130.9570  126.8430   61.8400 C   0  0  0  0  0  0  0  0  0  0  0  0
  132.1660  126.1510   62.0140 N   0  0  0  0  0  0  0  0  0  0  0  0
  132.4700  124.9500   63.2880 S   0  0  0  0  0  0  0  0  0  0  0  0
  131.2370  124.8810   64.0810 O   0  0  0  0  0  0  0  0  0  0  0  0
  133.7550  125.2720   63.9200 O   0  0  0  0  0  0  0  0  0  0  0  0
  132.6190  123.3850   62.4300 C   0  0  0  0  0  0  0  0  0  0  0  0
  131.4810  122.6720   62.0460 C   0  0  0  0  0  0  0  0  0  0  0  0
  131.6180  121.4500   61.3940 C   0  0  0  0  0  0  0  0  0  0  0  0
  132.8910  120.9440   61.1210 C   0  0  0  0  0  0  0  0  0  0  0  0
  133.0390  119.6040   60.4230 C   0  0  0  0  0  0  0  0  0  0  0  0
  134.0280  121.6560   61.5090 C   0  0  0  0  0  0  0  0  0  0  0  0
  133.8920  122.8780   62.1630 C   0  0  0  0  0  0  0  0  0  0  0  0
  130.3660  127.4130   62.9670 C   0  0  0  0  0  0  0  0  0  0  0  0
  129.1580  128.0970   62.8570 C   0  0  0  0  0  0  0  0  0  0  0  0
  127.0030  130.0670   60.7090 N   0  0  0  0  0  0  0  0  0  0  0  0
  127.9210  130.7870   59.9170 C   0  0  0  0  0  0  0  0  0  0  0  0
  127.7690  130.8190   58.5300 C   0  0  0  0  0  0  0  0  0  0  0  0
  128.6760  131.5350   57.7540 C   0  0  0  0  0  0  0  0  0  0  0  0
  129.7360  132.2200   58.3500 C   0  0  0  0  0  0  0  0  0  0  0  0
  130.5840  132.9010   57.4980 O   0  0  0  0  0  0  0  0  0  0  0  0
  131.8170  132.2980   57.1160 C   0  0  0  0  0  0  0  0  0  0  0  0
  129.8810  132.1820   59.7470 C   0  0  0  0  0  0  0  0  0  0  0  0
  128.9760  131.4690   60.5270 C   0  0  0  0  0  0  0  0  0  0  0  0
  127.7140  129.7820   66.6440 C   0  0  0  0  0  0  0  0  0  0  0  0
  128.6280  129.1630   67.4920 C   0  0  0  0  0  0  0  0  0  0  0  0
  131.1836  127.8288   69.6535 H   0  0  0  0  0  0  0  0  0  0  0  0
  131.0592  126.8888   68.1278 H   0  0  0  0  0  0  0  0  0  0  0  0
  130.7116  128.6511   68.1278 H   0  0  0  0  0  0  0  0  0  0  0  0
  126.7274  126.5302   68.5285 H   0  0  0  0  0  0  0  0  0  0  0  0
  125.0915  127.6318   67.0188 H   0  0  0  0  0  0  0  0  0  0  0  0
  126.8230  130.4140   64.1100 H   0  0  0  0  0  0  0  0  0  0  0  0
  124.4230  130.4900   63.1940 H   0  0  0  0  0  0  0  0  0  0  0  0
  123.4662  132.6207   62.0882 H   0  0  0  0  0  0  0  0  0  0  0  0
  124.8047  133.7490   61.5251 H   0  0  0  0  0  0  0  0  0  0  0  0
  128.6347  127.7416   59.5022 H   0  0  0  0  0  0  0  0  0  0  0  0
  130.7808  126.4976   59.7054 H   0  0  0  0  0  0  0  0  0  0  0  0
  132.9080  126.3300   61.3530 H   0  0  0  0  0  0  0  0  0  0  0  0
  130.4797  123.0750   62.2582 H   0  0  0  0  0  0  0  0  0  0  0  0
  130.7244  120.8831   61.0939 H   0  0  0  0  0  0  0  0  0  0  0  0
  133.1271  118.8064   61.1754 H   0  0  0  0  0  0  0  0  0  0  0  0
  132.1559  119.4187   59.7939 H   0  0  0  0  0  0  0  0  0  0  0  0
  133.9413  119.6159   59.7939 H   0  0  0  0  0  0  0  0  0  0  0  0
  135.0293  121.2523   61.2984 H   0  0  0  0  0  0  0  0  0  0  0  0
  134.7854  123.4423   62.4684 H   0  0  0  0  0  0  0  0  0  0  0  0
  130.8563  127.3219   63.9475 H   0  0  0  0  0  0  0  0  0  0  0  0
  128.6987  128.5475   63.7493 H   0  0  0  0  0  0  0  0  0  0  0  0
  126.9367  130.2811   58.0525 H   0  0  0  0  0  0  0  0  0  0  0  0
  128.5562  131.5612   56.6609 H   0  0  0  0  0  0  0  0  0  0  0  0
  132.3841  132.0207   58.0168 H   0  0  0  0  0  0  0  0  0  0  0  0
  131.6148  131.3971   56.5181 H   0  0  0  0  0  0  0  0  0  0  0  0
  132.4040  133.0107   56.5181 H   0  0  0  0  0  0  0  0  0  0  0  0
  130.7135  132.7182   60.2260 H   0  0  0  0  0  0  0  0  0  0  0  0
  129.0911  131.4426   61.6206 H   0  0  0  0  0  0  0  0  0  0  0  0
  127.9982  130.7037   66.1152 H   0  0  0  0  0  0  0  0  0  0  0  0
  129.6281  129.6007   67.6273 H   0  0  0  0  0  0  0  0  0  0  0  0
  1  2  1  0
  2  3  1  0
  3  4  2  0
  4  5  1  0
  5  6  2  0
  6  7  1  0
  7  8  2  0
  7  9  1  0
  9 10  1  0
 10 11  1  0
 11 12  2  0
 11 13  1  0
 13 14  1  0
 14 15  1  0
 15 16  2  0
 16 17  1  0
 17 18  2  0
 18 19  1  0
 19 20  2  0
 20 21  1  0
 21 22  2  0
 22 23  1  0
 23 24  1  0
 24 25  2  0
 24 26  2  0
 24 27  1  0
 27 28  2  0
 28 29  1  0
 29 30  2  0
 30 31  1  0
 30 32  1  0
 32 33  2  0
 22 34  1  0
 34 35  2  0
 18 36  1  0
 36 37  1  0
 37 38  2  0
 38 39  1  0
 39 40  2  0
 40 41  1  0
 41 42  1  0
 40 43  1  0
 43 44  2  0
  6 45  1  0
 45 46  2  0
 46  3  1  0
 36 15  1  0
 44 37  1  0
 35 19  1  0
 33 27  1  0
  1 47  1  0
  1 48  1  0
  1 49  1  0
  4 50  1  0
  5 51  1  0
  9 52  1  0
 10 53  1  0
 13 54  1  0
 13 55  1  0
 20 56  1  0
 21 57  1  0
 23 58  1  0
 28 59  1  0
 29 60  1  0
 31 61  1  0
 31 62  1  0
 31 63  1  0
 32 64  1  0
 33 65  1  0
 34 66  1  0
 35 67  1  0
 38 68  1  0
 39 69  1  0
 42 70  1  0
 42 71  1  0
 42 72  1  0
 43 73  1  0
 44 74  1  0
 45 75  1  0
 46 76  1  0
M  END
>  <Binding energies>  (1) 
[-9.38]

>  <Ligand effiencies>  (1) 
[-0.19142857142857145]

>  <Interactions>  (1) 
["V-A:PRO:540:CA:4881, V-A:ARG:545:CZ:4924, H-B:ARG:545:NH2:9900, H-A:ARG:545:NE:4922, V-A:GLY:454:CA:4046, V-B:TYR:539:CE1:9847, V-A:ILE:369:CG2:3234, V-B:ILE:369:CG2:8208, V-A:PRO:540:CD:4885, V-A:PRO:540:CB:4883, V-B:ARG:545:CZ:9898, V-A:ILE:369:CD1:3236, H-A:GLY:454:N:4047, H-A:TYR:484:OH:4345, V-A:PRO:540:N:4882, V-B:ILE:369:CD1:8210, V-A:ASP:366:CG:3210, V-A:LEU:475:CD2:4256, V-A:TYR:539:CE1:4873, H-A:ARG:545:NH2:4926, H-B:TYR:484:OH:9319, V-B:LEU:475:CD2:9230, V-B:TYR:539:CD1:9845, H-B:GLY:454:N:9021, H-B:ARG:545:NE:9896, V-B:GLU:543:CD:9880, V-B:GLU:543:CG:9879, V-A:HIS:456:CE1:4066, H-A:GLU:543:OE1:4907, V-B:HIS:456:CE1:9040, V-A:GLU:543:CB:4904, V-A:TYR:539:CZ:4875, V-A:GLU:543:CD:4906, V-A:GLU:543:CG:4905, V-A:GLU:543:C:4900, H-A:HIS:456:NE2:4067, V-B:GLY:454:CA:9020, V-A:TYR:539:C:4865, H-A:ASP:366:OD2:3212, H-A:TYR:539:N:4868, H-A:ASP:366:OD1:3211, H-A:ARG:545:NH1:4925, V-B:TYR:484:CE2:9317, V-B:TYR:484:CZ:9318, V-A:LEU:373:CD1:3277, V-A:SER:385:CA:3404, H-B:ASP:366:OD1:8185, V-B:ARG:545:CG:9894, V-B:ARG:545:CD:9895, V-A:GLU:543:CA:4902"]

$$$$
RR30_Rahimova_2017
     RDKit          3D

 29 30  0  0  0  0  0  0  0  0999 V2000
  131.3890  116.5570   59.3220 C   0  0  0  0  0  0  0  0  0  0  0  0
  131.9420  117.2040   60.6000 C   0  0  0  0  0  0  0  0  0  0  0  0
  131.2270  118.4910   60.9480 C   0  0  0  0  0  0  0  0  0  0  0  0
  130.0270  118.6400   61.4540 N   0  0  0  0  0  0  0  0  0  0  0  0
  129.8330  120.0130   61.5770 N   0  0  0  0  0  0  0  0  0  0  0  0
  130.9250  120.5750   61.1260 C   0  0  0  0  0  0  0  0  0  0  0  0
  131.2890  122.2990   61.0360 S   0  0  0  0  0  0  0  0  0  0  0  0
  129.7770  122.9780   61.7890 C   0  0  0  0  0  0  0  0  0  0  0  0
  128.5630  122.8510   60.8640 C   0  0  0  0  0  0  0  0  0  0  0  0
  127.4400  122.7310   61.3580 O   0  0  0  0  0  0  0  0  0  0  0  0
  128.8280  122.8470   59.5390 N   0  0  0  0  0  0  0  0  0  0  0  0
  127.9000  122.7410   58.5130 C   0  0  0  0  0  0  0  0  0  0  0  0
  128.0100  122.0830   57.3810 N   0  0  0  0  0  0  0  0  0  0  0  0
  126.8750  122.2020   56.5890 N   0  0  0  0  0  0  0  0  0  0  0  0
  125.9360  122.9420   57.1330 C   0  0  0  0  0  0  0  0  0  0  0  0
  124.6110  123.2220   56.4620 C   0  0  0  0  0  0  0  0  0  0  0  0
  126.3820  123.5630   58.6990 S   0  0  0  0  0  0  0  0  0  0  0  0
  131.8520  119.6720   60.7160 O   0  0  0  0  0  0  0  0  0  0  0  0
  130.6961  115.7463   59.5917 H   0  0  0  0  0  0  0  0  0  0  0  0
  130.8546  117.3141   58.7294 H   0  0  0  0  0  0  0  0  0  0  0  0
  132.2201  116.1470   58.7294 H   0  0  0  0  0  0  0  0  0  0  0  0
  131.8235  116.4969   61.4342 H   0  0  0  0  0  0  0  0  0  0  0  0
  133.0009  117.4444   60.4243 H   0  0  0  0  0  0  0  0  0  0  0  0
  129.5702  122.4329   62.7218 H   0  0  0  0  0  0  0  0  0  0  0  0
  129.9458  124.0481   61.9797 H   0  0  0  0  0  0  0  0  0  0  0  0
  129.7940  122.9230   59.2540 H   0  0  0  0  0  0  0  0  0  0  0  0
  123.8391  123.3851   57.2285 H   0  0  0  0  0  0  0  0  0  0  0  0
  124.7005  124.1211   55.8346 H   0  0  0  0  0  0  0  0  0  0  0  0
  124.3291  122.3636   55.8346 H   0  0  0  0  0  0  0  0  0  0  0  0
  1  2  1  0
  2  3  1  0
  3  4  2  0
  4  5  1  0
  5  6  2  0
  6  7  1  0
  7  8  1  0
  8  9  1  0
  9 10  2  0
  9 11  1  0
 11 12  1  0
 12 13  2  0
 13 14  1  0
 14 15  2  0
 15 16  1  0
 15 17  1  0
  6 18  1  0
 18  3  1  0
 17 12  1  0
  1 19  1  0
  1 20  1  0
  1 21  1  0
  2 22  1  0
  2 23  1  0
  8 24  1  0
  8 25  1  0
 11 26  1  0
 16 27  1  0
 16 28  1  0
 16 29  1  0
M  END
>  <Binding energies>  (1) 
[-7.16]

>  <Ligand effiencies>  (1) 
[-0.3768421052631579]

>  <Interactions>  (1) 
["V-B:ALA:541:CB:9864, V-B:TYR:539:CE1:9847, V-A:LEU:475:CD2:4256, V-B:TYR:531:CE2:9765, V-B:PRO:540:CA:9855, V-B:ILE:538:CG2:9835, V-B:PRO:540:CB:9857, V-B:PRO:540:CD:9859, V-B:ILE:538:CB:9834, V-B:LEU:363:CD1:8160, V-B:TYR:539:CD1:9845, V-B:PRO:540:N:9856, V-B:TYR:539:CG:9844, V-B:TYR:539:C:9839, H-B:ALA:541:N:9863, V-A:PRO:482:CB:4323, H-B:TYR:539:N:9842, V-A:PRO:482:CG:4324, V-B:TYR:539:CB:9843, V-A:LEU:373:CD1:3277, V-B:VAL:344:CG1:7972"]

$$$$
RR31_Rahimova_2017
     RDKit          3D

 44 45  0  0  0  0  0  0  0  0999 V2000
  133.0590  116.9790   60.1150 C   0  0  0  0  0  0  0  0  0  0  0  0
  132.7400  118.4120   60.5170 C   0  0  0  0  0  0  0  0  0  0  0  0
  133.7820  119.3330   60.6420 C   0  0  0  0  0  0  0  0  0  0  0  0
  133.5220  120.6520   61.0050 C   0  0  0  0  0  0  0  0  0  0  0  0
  132.2120  121.0950   61.2460 C   0  0  0  0  0  0  0  0  0  0  0  0
  131.9360  122.4120   61.6210 N   0  0  0  0  0  0  0  0  0  0  0  0
  131.6990  123.4740   60.6250 C   0  0  0  0  0  0  0  0  0  0  0  0
  131.8210  124.9090   61.1910 C   0  0  0  0  0  0  0  0  0  0  0  0
  130.9240  125.0990   62.3340 N   0  0  0  0  0  0  0  0  0  0  0  0
  130.9920  126.4610   62.8710 C   0  0  0  0  0  0  0  0  0  0  0  0
  130.2050  127.4820   62.0260 C   0  0  0  0  0  0  0  0  0  0  0  0
  128.7550  127.6460   62.5100 C   0  0  0  0  0  0  0  0  0  0  0  0
  128.7400  128.0640   63.9850 N   0  0  0  0  0  0  0  0  0  0  0  0
  131.3220  124.1420   63.3660 C   0  0  0  0  0  0  0  0  0  0  0  0
  131.1750  122.6910   62.8550 C   0  0  0  0  0  0  0  0  0  0  0  0
  131.1750  120.1570   61.1260 C   0  0  0  0  0  0  0  0  0  0  0  0
  131.4220  118.8280   60.7630 C   0  0  0  0  0  0  0  0  0  0  0  0
  130.2520  117.8580   60.6530 C   0  0  0  0  0  0  0  0  0  0  0  0
  133.1954  116.3664   61.0184 H   0  0  0  0  0  0  0  0  0  0  0  0
  132.2294  116.5723   59.5180 H   0  0  0  0  0  0  0  0  0  0  0  0
  133.9828  116.9626   59.5180 H   0  0  0  0  0  0  0  0  0  0  0  0
  134.8174  119.0138   60.4521 H   0  0  0  0  0  0  0  0  0  0  0  0
  134.3583  121.3596   61.1047 H   0  0  0  0  0  0  0  0  0  0  0  0
  132.4342  123.3584   59.8150 H   0  0  0  0  0  0  0  0  0  0  0  0
  130.6620  123.3571   60.2771 H   0  0  0  0  0  0  0  0  0  0  0  0
  132.8581  125.0814   61.5147 H   0  0  0  0  0  0  0  0  0  0  0  0
  131.5407  125.6226   60.4022 H   0  0  0  0  0  0  0  0  0  0  0  0
  130.5785  126.4569   63.8903 H   0  0  0  0  0  0  0  0  0  0  0  0
  132.0483  126.7675   62.8574 H   0  0  0  0  0  0  0  0  0  0  0  0
  130.7108  128.4568   62.0876 H   0  0  0  0  0  0  0  0  0  0  0  0
  130.1743  127.1099   60.9913 H   0  0  0  0  0  0  0  0  0  0  0  0
  128.2547  128.4182   61.9072 H   0  0  0  0  0  0  0  0  0  0  0  0
  128.2266  126.6875   62.4004 H   0  0  0  0  0  0  0  0  0  0  0  0
  128.7990  129.0690   64.0620 H   0  0  0  0  0  0  0  0  0  0  0  0
  129.5240  127.6540   64.4710 H   0  0  0  0  0  0  0  0  0  0  0  0
  127.8860  127.7540   64.4260 H   0  0  0  0  0  0  0  0  0  0  0  0
  132.3718  124.3231   63.6402 H   0  0  0  0  0  0  0  0  0  0  0  0
  130.6691  124.2754   64.2412 H   0  0  0  0  0  0  0  0  0  0  0  0
  131.5291  122.0090   63.6421 H   0  0  0  0  0  0  0  0  0  0  0  0
  130.1117  122.5428   62.6151 H   0  0  0  0  0  0  0  0  0  0  0  0
  130.1404  120.4748   61.3225 H   0  0  0  0  0  0  0  0  0  0  0  0
  129.9128  117.5768   61.6609 H   0  0  0  0  0  0  0  0  0  0  0  0
  129.4260  118.3399   60.1093 H   0  0  0  0  0  0  0  0  0  0  0  0
  130.5725  116.9571   60.1093 H   0  0  0  0  0  0  0  0  0  0  0  0
  1  2  1  0
  2  3  2  0
  3  4  1  0
  4  5  2  0
  5  6  1  0
  6  7  1  0
  7  8  1  0
  8  9  1  0
  9 10  1  0
 10 11  1  0
 11 12  1  0
 12 13  1  0
  9 14  1  0
 14 15  1  0
  5 16  1  0
 16 17  2  0
 17 18  1  0
 17  2  1  0
 15  6  1  0
  1 19  1  0
  1 20  1  0
  1 21  1  0
  3 22  1  0
  4 23  1  0
  7 24  1  0
  7 25  1  0
  8 26  1  0
  8 27  1  0
 10 28  1  0
 10 29  1  0
 11 30  1  0
 11 31  1  0
 12 32  1  0
 12 33  1  0
 13 34  1  0
 13 35  1  0
 13 36  1  0
 14 37  1  0
 14 38  1  0
 15 39  1  0
 15 40  1  0
 16 41  1  0
 18 42  1  0
 18 43  1  0
 18 44  1  0
M  CHG  1  13   1
M  END
>  <Binding energies>  (1) 
[-7.23]

>  <Ligand effiencies>  (1) 
[-0.3442857142857143]

>  <Interactions>  (1) 
["V-A:ARG:545:CZ:4924, V-B:TYR:539:CE1:9847, V-A:ILE:369:CG2:3234, V-A:LEU:475:CD2:4256, V-B:TYR:539:CD1:9845, V-B:TYR:539:C:9839, V-B:GLU:543:CD:9880, H-A:GLU:543:OE2:4908, H-B:GLU:543:OE1:9881, H-A:GLU:543:OE1:4907, H-B:GLU:543:OE2:9882, V-A:GLU:543:CD:4906, V-A:PRO:482:CB:4323, V-A:PRO:482:CG:4324, V-B:TYR:539:CB:9843, V-A:LEU:373:CD1:3277, V-A:SER:385:CA:3404, V-A:SER:385:CB:3406, V-A:SER:385:C:3402"]

$$$$
RR32_Rahimova_2017
     RDKit          3D

 37 39  0  0  0  0  0  0  0  0999 V2000
  125.3650  124.0000   61.4930 C   0  0  0  0  0  0  0  0  0  0  0  0
  126.2850  123.5420   60.3670 C   0  0  0  0  0  0  0  0  0  0  0  0
  127.5920  123.1760   60.6890 C   0  0  0  0  0  0  0  0  0  0  0  0
  128.4590  122.7490   59.6880 C   0  0  0  0  0  0  0  0  0  0  0  0
  129.7550  122.3870   60.0120 N   0  0  0  0  0  0  0  0  0  0  0  0
  130.7230  123.4740   60.2400 C   0  0  0  0  0  0  0  0  0  0  0  0
  132.1760  122.9720   60.4160 C   0  0  0  0  0  0  0  0  0  0  0  0
  132.2540  122.0350   61.5360 N   0  0  0  0  0  0  0  0  0  0  0  0
  133.6290  121.5860   61.7220 C   0  0  0  0  0  0  0  0  0  0  0  0
  131.3860  120.8990   61.2360 C   0  0  0  0  0  0  0  0  0  0  0  0
  129.9220  121.3700   61.0680 C   0  0  0  0  0  0  0  0  0  0  0  0
  128.0890  122.6720   58.3830 N   0  0  0  0  0  0  0  0  0  0  0  0
  126.8210  123.0260   58.0360 C   0  0  0  0  0  0  0  0  0  0  0  0
  126.4640  122.9380   56.6690 C   0  0  0  0  0  0  0  0  0  0  0  0
  125.1830  123.2860   56.2560 C   0  0  0  0  0  0  0  0  0  0  0  0
  124.2390  123.7220   57.1790 C   0  0  0  0  0  0  0  0  0  0  0  0
  124.5580  123.8200   58.5300 C   0  0  0  0  0  0  0  0  0  0  0  0
  125.8590  123.4750   58.9990 C   0  0  0  0  0  0  0  0  0  0  0  0
  125.8295  123.7688   62.4630 H   0  0  0  0  0  0  0  0  0  0  0  0
  125.2011  125.0849   61.4143 H   0  0  0  0  0  0  0  0  0  0  0  0
  124.4006  123.4768   61.4143 H   0  0  0  0  0  0  0  0  0  0  0  0
  127.9366  123.2249   61.7325 H   0  0  0  0  0  0  0  0  0  0  0  0
  130.6913  124.1564   59.3778 H   0  0  0  0  0  0  0  0  0  0  0  0
  130.4357  123.9754   61.1760 H   0  0  0  0  0  0  0  0  0  0  0  0
  132.4995  122.4651   59.4949 H   0  0  0  0  0  0  0  0  0  0  0  0
  132.8307  123.8319   60.6209 H   0  0  0  0  0  0  0  0  0  0  0  0
  133.8490  121.5142   62.7974 H   0  0  0  0  0  0  0  0  0  0  0  0
  133.7588  120.5988   61.2545 H   0  0  0  0  0  0  0  0  0  0  0  0
  134.3164  122.3064   61.2545 H   0  0  0  0  0  0  0  0  0  0  0  0
  131.7226  120.4216   60.3039 H   0  0  0  0  0  0  0  0  0  0  0  0
  131.4371  120.1809   62.0677 H   0  0  0  0  0  0  0  0  0  0  0  0
  129.3013  120.4979   60.8145 H   0  0  0  0  0  0  0  0  0  0  0  0
  129.6170  121.8329   62.0181 H   0  0  0  0  0  0  0  0  0  0  0  0
  127.2029  122.5930   55.9308 H   0  0  0  0  0  0  0  0  0  0  0  0
  124.9144  123.2159   55.1916 H   0  0  0  0  0  0  0  0  0  0  0  0
  123.2289  123.9924   56.8376 H   0  0  0  0  0  0  0  0  0  0  0  0
  123.7972  124.1678   59.2443 H   0  0  0  0  0  0  0  0  0  0  0  0
  1  2  1  0
  2  3  2  0
  3  4  1  0
  4  5  1  0
  5  6  1  0
  6  7  1  0
  7  8  1  0
  8  9  1  0
  8 10  1  0
 10 11  1  0
  4 12  2  0
 12 13  1  0
 13 14  2  0
 14 15  1  0
 15 16  2  0
 16 17  1  0
 17 18  2  0
 18  2  1  0
 11  5  1  0
 18 13  1  0
  1 19  1  0
  1 20  1  0
  1 21  1  0
  3 22  1  0
  6 23  1  0
  6 24  1  0
  7 25  1  0
  7 26  1  0
  9 27  1  0
  9 28  1  0
  9 29  1  0
 10 30  1  0
 10 31  1  0
 11 32  1  0
 11 33  1  0
 14 34  1  0
 15 35  1  0
 16 36  1  0
 17 37  1  0
M  END
>  <Binding energies>  (1) 
[-6.65]

>  <Ligand effiencies>  (1) 
[-0.36944444444444446]

>  <Interactions>  (1) 
["V-A:GLY:454:CA:4046, V-B:ALA:541:CB:9864, V-B:TYR:539:CE1:9847, V-A:ILE:369:CG2:3234, V-A:ILE:369:CD1:3236, V-A:LEU:475:CD2:4256, V-B:TYR:531:CE2:9765, V-B:PRO:540:CA:9855, V-B:ILE:538:CG2:9835, V-B:ASP:366:CG:8184, V-B:PRO:540:CB:9857, V-B:ILE:538:CB:9834, V-B:LEU:363:CD1:8160, V-B:TYR:539:CD1:9845, V-B:LEU:363:CA:8156, V-B:PRO:540:N:9856, V-B:TYR:539:C:9839, V-B:TYR:531:CZ:9766"]

$$$$
RR32_Rahimova_2017-again1
     RDKit          3D

 38 40  0  0  0  0  0  0  0  0999 V2000
  134.3470  121.2940   61.1360 C   0  0  0  0  0  0  0  0  0  0  0  0
  132.8960  120.8660   61.2960 C   0  0  0  0  0  0  0  0  0  0  0  0
  131.9550  121.7510   61.8220 C   0  0  0  0  0  0  0  0  0  0  0  0
  130.6200  121.3570   61.9640 C   0  0  0  0  0  0  0  0  0  0  0  0
  129.6620  122.2240   62.4990 N   0  0  0  0  0  0  0  0  0  0  0  0
  129.8750  122.8490   63.8200 C   0  0  0  0  0  0  0  0  0  0  0  0
  130.6920  124.1600   63.7330 C   0  0  0  0  0  0  0  0  0  0  0  0
  129.9150  125.1660   62.8610 N   0  0  0  0  0  0  0  0  0  0  0  0
  130.6930  126.4880   62.7260 C   0  0  0  0  0  0  0  0  0  0  0  0
  129.6690  124.5330   61.4760 C   0  0  0  0  0  0  0  0  0  0  0  0
  128.9160  123.1960   61.6710 C   0  0  0  0  0  0  0  0  0  0  0  0
  130.2120  120.1030   61.6230 N   0  0  0  0  0  0  0  0  0  0  0  0
  131.1060  119.2190   61.1040 C   0  0  0  0  0  0  0  0  0  0  0  0
  130.6430  117.9300   60.7460 C   0  0  0  0  0  0  0  0  0  0  0  0
  131.5230  116.9940   60.2090 C   0  0  0  0  0  0  0  0  0  0  0  0
  132.8640  117.3120   60.0200 C   0  0  0  0  0  0  0  0  0  0  0  0
  133.3500  118.5710   60.3650 C   0  0  0  0  0  0  0  0  0  0  0  0
  132.4810  119.5540   60.9140 C   0  0  0  0  0  0  0  0  0  0  0  0
  134.8014  121.4280   62.1288 H   0  0  0  0  0  0  0  0  0  0  0  0
  134.8985  120.5203   60.5818 H   0  0  0  0  0  0  0  0  0  0  0  0
  134.3903  122.2432   60.5818 H   0  0  0  0  0  0  0  0  0  0  0  0
  132.2635  122.7621   62.1262 H   0  0  0  0  0  0  0  0  0  0  0  0
  128.8947  123.0737   64.2657 H   0  0  0  0  0  0  0  0  0  0  0  0
  130.4476  122.1398   64.4358 H   0  0  0  0  0  0  0  0  0  0  0  0
  130.8341  124.5758   64.7414 H   0  0  0  0  0  0  0  0  0  0  0  0
  131.6780  123.9598   63.2883 H   0  0  0  0  0  0  0  0  0  0  0  0
  129.0210  125.3420   63.2960 H   0  0  0  0  0  0  0  0  0  0  0  0
  130.9244  126.8811   63.7270 H   0  0  0  0  0  0  0  0  0  0  0  0
  131.6292  126.3081   62.1773 H   0  0  0  0  0  0  0  0  0  0  0  0
  130.0811  127.2191   62.1773 H   0  0  0  0  0  0  0  0  0  0  0  0
  129.0626  125.2134   60.8600 H   0  0  0  0  0  0  0  0  0  0  0  0
  130.6286  124.3533   60.9692 H   0  0  0  0  0  0  0  0  0  0  0  0
  127.9528  123.4050   62.1594 H   0  0  0  0  0  0  0  0  0  0  0  0
  128.7850  122.7459   60.6759 H   0  0  0  0  0  0  0  0  0  0  0  0
  129.5850  117.6671   60.8925 H   0  0  0  0  0  0  0  0  0  0  0  0
  131.1548  115.9951   59.9320 H   0  0  0  0  0  0  0  0  0  0  0  0
  133.5470  116.5622   59.5941 H   0  0  0  0  0  0  0  0  0  0  0  0
  134.4135  118.8066   60.2117 H   0  0  0  0  0  0  0  0  0  0  0  0
  1  2  1  0
  2  3  2  0
  3  4  1  0
  4  5  1  0
  5  6  1  0
  6  7  1  0
  7  8  1  0
  8  9  1  0
  8 10  1  0
 10 11  1  0
  4 12  2  0
 12 13  1  0
 13 14  2  0
 14 15  1  0
 15 16  2  0
 16 17  1  0
 17 18  2  0
 18  2  1  0
 11  5  1  0
 18 13  1  0
  1 19  1  0
  1 20  1  0
  1 21  1  0
  3 22  1  0
  6 23  1  0
  6 24  1  0
  7 25  1  0
  7 26  1  0
  8 27  1  0
  9 28  1  0
  9 29  1  0
  9 30  1  0
 10 31  1  0
 10 32  1  0
 11 33  1  0
 11 34  1  0
 14 35  1  0
 15 36  1  0
 16 37  1  0
 17 38  1  0
M  CHG  1   8   1
M  END
>  <Binding energies>  (1) 
[-6.81]

>  <Ligand effiencies>  (1) 
[-0.3584210526315789]

>  <Interactions>  (1) 
["V-B:ALA:541:CB:9864, V-B:TYR:539:CE1:9847, V-A:ILE:369:CG2:3234, V-A:ILE:369:CD1:3236, V-A:LEU:475:CD2:4256, V-B:TYR:539:CD1:9845, V-B:GLU:543:CD:9880, H-B:GLU:543:OE1:9881, H-B:GLU:543:OE2:9882, V-A:ILE:369:CB:3233, V-A:PRO:482:CB:4323, V-A:PRO:482:CG:4324, V-B:TYR:539:CB:9843, V-A:ILE:369:CG1:3235, V-A:LEU:373:CD1:3277, V-A:SER:385:CA:3404, V-A:SER:385:CB:3406, V-A:SER:385:C:3402"]

$$$$
RR32_Rahimova_2017-again2
     RDKit          3D

 39 41  0  0  0  0  0  0  0  0999 V2000
  128.4890  123.0510   57.9870 C   0  0  0  0  0  0  0  0  0  0  0  0
  128.4340  123.1810   59.5030 C   0  0  0  0  0  0  0  0  0  0  0  0
  129.6070  123.0930   60.2580 C   0  0  0  0  0  0  0  0  0  0  0  0
  129.5760  123.2030   61.6550 C   0  0  0  0  0  0  0  0  0  0  0  0
  130.7570  123.1350   62.4770 N   0  0  0  0  0  0  0  0  0  0  0  0
  131.6550  124.3120   62.6220 C   0  0  0  0  0  0  0  0  0  0  0  0
  131.1450  125.2560   63.7450 C   0  0  0  0  0  0  0  0  0  0  0  0
  131.0920  124.4830   65.0840 N   0  0  0  0  0  0  0  0  0  0  0  0
  130.5370  125.3730   66.2130 C   0  0  0  0  0  0  0  0  0  0  0  0
  130.2470  123.1970   64.9260 C   0  0  0  0  0  0  0  0  0  0  0  0
  130.8060  122.3600   63.7440 C   0  0  0  0  0  0  0  0  0  0  0  0
  128.3800  123.4060   62.2450 N   0  0  0  0  0  0  0  0  0  0  0  0
  127.1770  123.5070   61.5860 C   0  0  0  0  0  0  0  0  0  0  0  0
  125.9780  123.7180   62.3030 C   0  0  0  0  0  0  0  0  0  0  0  0
  124.7790  123.8190   61.6030 C   0  0  0  0  0  0  0  0  0  0  0  0
  124.7570  123.7130   60.2140 C   0  0  0  0  0  0  0  0  0  0  0  0
  125.9330  123.5030   59.4930 C   0  0  0  0  0  0  0  0  0  0  0  0
  127.1840  123.3930   60.1640 C   0  0  0  0  0  0  0  0  0  0  0  0
  128.9046  122.0687   57.7181 H   0  0  0  0  0  0  0  0  0  0  0  0
  127.4739  123.1452   57.5738 H   0  0  0  0  0  0  0  0  0  0  0  0
  129.1282  123.8452   57.5738 H   0  0  0  0  0  0  0  0  0  0  0  0
  130.5689  122.9351   59.7482 H   0  0  0  0  0  0  0  0  0  0  0  0
  132.6678  123.9647   62.8744 H   0  0  0  0  0  0  0  0  0  0  0  0
  131.6676  124.8666   61.6721 H   0  0  0  0  0  0  0  0  0  0  0  0
  131.8286  126.1123   63.8428 H   0  0  0  0  0  0  0  0  0  0  0  0
  130.1379  125.6179   63.4905 H   0  0  0  0  0  0  0  0  0  0  0  0
  132.0360  124.2040   65.3170 H   0  0  0  0  0  0  0  0  0  0  0  0
  130.8070  124.9400   67.1875 H   0  0  0  0  0  0  0  0  0  0  0  0
  130.9660  126.3824   66.1287 H   0  0  0  0  0  0  0  0  0  0  0  0
  129.4418  125.4319   66.1287 H   0  0  0  0  0  0  0  0  0  0  0  0
  130.2997  122.6062   65.8524 H   0  0  0  0  0  0  0  0  0  0  0  0
  129.1994  123.4658   64.7252 H   0  0  0  0  0  0  0  0  0  0  0  0
  131.8494  122.0856   63.9585 H   0  0  0  0  0  0  0  0  0  0  0  0
  130.1879  121.4574   63.6286 H   0  0  0  0  0  0  0  0  0  0  0  0
  128.3700  123.4960   63.2500 H   0  0  0  0  0  0  0  0  0  0  0  0
  125.9918  123.8014   63.3998 H   0  0  0  0  0  0  0  0  0  0  0  0
  123.8400  123.9841   62.1517 H   0  0  0  0  0  0  0  0  0  0  0  0
  123.7997  123.7960   59.6786 H   0  0  0  0  0  0  0  0  0  0  0  0
  125.8933  123.4217   58.3967 H   0  0  0  0  0  0  0  0  0  0  0  0
  1  2  1  0
  2  3  2  0
  3  4  1  0
  4  5  1  0
  5  6  1  0
  6  7  1  0
  7  8  1  0
  8  9  1  0
  8 10  1  0
 10 11  1  0
  4 12  2  0
 12 13  1  0
 13 14  2  0
 14 15  1  0
 15 16  2  0
 16 17  1  0
 17 18  2  0
 18  2  1  0
 11  5  1  0
 18 13  1  0
  1 19  1  0
  1 20  1  0
  1 21  1  0
  3 22  1  0
  6 23  1  0
  6 24  1  0
  7 25  1  0
  7 26  1  0
  8 27  1  0
  9 28  1  0
  9 29  1  0
  9 30  1  0
 10 31  1  0
 10 32  1  0
 11 33  1  0
 11 34  1  0
 12 35  1  0
 14 36  1  0
 15 37  1  0
 16 38  1  0
 17 39  1  0
M  CHG  2   8   1  12   1
M  END
>  <Binding energies>  (1) 
[-7.43]

>  <Ligand effiencies>  (1) 
[-0.3715]

>  <Interactions>  (1) 
["V-B:ALA:541:CB:9864, V-B:TYR:539:CE1:9847, H-A:TYR:484:OH:4345, V-A:LEU:475:CD2:4256, V-B:PRO:540:CA:9855, V-B:ASP:366:CG:8184, V-B:PRO:540:CB:9857, V-B:TYR:539:CD1:9845, V-B:PRO:540:N:9856, V-B:TYR:539:C:9839, V-B:GLU:543:CD:9880, V-B:GLU:543:CG:9879, V-B:GLU:543:CB:9878, V-A:HIS:456:CE1:4066, H-B:GLU:543:OE1:9881, V-A:TYR:484:CZ:4344, V-A:TYR:484:CE2:4343, V-B:ASN:362:CB:8147"]

$$$$
RR33_Rahimova_2017
     RDKit          3D

 36 37  0  0  0  0  0  0  0  0999 V2000
  131.8040  125.7070   65.7600 C   0  0  0  0  0  0  0  0  0  0  0  0
  133.2460  125.3710   65.3650 C   0  0  0  0  0  0  0  0  0  0  0  0
  133.2250  124.6170   64.1560 O   0  0  0  0  0  0  0  0  0  0  0  0
  132.0150  124.3500   63.5440 C   0  0  0  0  0  0  0  0  0  0  0  0
  131.5620  125.2960   62.6250 C   0  0  0  0  0  0  0  0  0  0  0  0
  130.3520  125.1140   61.9610 C   0  0  0  0  0  0  0  0  0  0  0  0
  129.5750  123.9780   62.2080 C   0  0  0  0  0  0  0  0  0  0  0  0
  128.2750  123.7850   61.4950 C   0  0  0  0  0  0  0  0  0  0  0  0
  128.0620  123.7890   60.1980 N   0  0  0  0  0  0  0  0  0  0  0  0
  126.7630  123.5770   60.0550 C   0  0  0  0  0  0  0  0  0  0  0  0
  126.1340  123.5020   58.6810 C   0  0  0  0  0  0  0  0  0  0  0  0
  124.7250  123.8600   58.7410 N   0  0  0  0  0  0  0  0  0  0  0  0
  124.1500  123.9090   57.4070 C   0  0  0  0  0  0  0  0  0  0  0  0
  126.1730  123.4410   61.3050 C   0  0  0  0  0  0  0  0  0  0  0  0
  124.7730  123.1880   61.8090 C   0  0  0  0  0  0  0  0  0  0  0  0
  127.1510  123.5770   62.2300 O   0  0  0  0  0  0  0  0  0  0  0  0
  130.0280  123.0260   63.1260 C   0  0  0  0  0  0  0  0  0  0  0  0
  131.2380  123.2080   63.7910 C   0  0  0  0  0  0  0  0  0  0  0  0
  131.7193  125.7267   66.8566 H   0  0  0  0  0  0  0  0  0  0  0  0
  131.5326  126.6924   65.3535 H   0  0  0  0  0  0  0  0  0  0  0  0
  131.1250  124.9430   65.3535 H   0  0  0  0  0  0  0  0  0  0  0  0
  133.8139  126.3005   65.2116 H   0  0  0  0  0  0  0  0  0  0  0  0
  133.7264  124.7860   66.1631 H   0  0  0  0  0  0  0  0  0  0  0  0
  132.1656  126.1932   62.4231 H   0  0  0  0  0  0  0  0  0  0  0  0
  130.0055  125.8676   61.2385 H   0  0  0  0  0  0  0  0  0  0  0  0
  126.6551  124.1976   58.0067 H   0  0  0  0  0  0  0  0  0  0  0  0
  126.2217  122.4711   58.3073 H   0  0  0  0  0  0  0  0  0  0  0  0
  124.6310  124.7700   59.1710 H   0  0  0  0  0  0  0  0  0  0  0  0
  123.0565  124.0022   57.4822 H   0  0  0  0  0  0  0  0  0  0  0  0
  124.5554  124.7759   56.8646 H   0  0  0  0  0  0  0  0  0  0  0  0
  124.4029  122.9860   56.8646 H   0  0  0  0  0  0  0  0  0  0  0  0
  124.7737  123.1881   62.9090 H   0  0  0  0  0  0  0  0  0  0  0  0
  124.1028  123.9796   61.4427 H   0  0  0  0  0  0  0  0  0  0  0  0
  124.4222  122.2119   61.4427 H   0  0  0  0  0  0  0  0  0  0  0  0
  129.4250  122.1276   63.3243 H   0  0  0  0  0  0  0  0  0  0  0  0
  131.5858  122.4539   64.5124 H   0  0  0  0  0  0  0  0  0  0  0  0
  1  2  1  0
  2  3  1  0
  3  4  1  0
  4  5  2  0
  5  6  1  0
  6  7  2  0
  7  8  1  0
  8  9  2  0
  9 10  1  0
 10 11  1  0
 11 12  1  0
 12 13  1  0
 10 14  2  0
 14 15  1  0
 14 16  1  0
  7 17  1  0
 17 18  2  0
 18  4  1  0
 16  8  1  0
  1 19  1  0
  1 20  1  0
  1 21  1  0
  2 22  1  0
  2 23  1  0
  5 24  1  0
  6 25  1  0
 11 26  1  0
 11 27  1  0
 12 28  1  0
 13 29  1  0
 13 30  1  0
 13 31  1  0
 15 32  1  0
 15 33  1  0
 15 34  1  0
 17 35  1  0
 18 36  1  0
M  END
>  <Binding energies>  (1) 
[-5.3]

>  <Ligand effiencies>  (1) 
[-0.2789473684210526]

>  <Interactions>  (1) 
["V-A:ARG:545:CZ:4924, V-B:ALA:541:CB:9864, H-A:GLY:454:N:4047, H-A:TYR:484:OH:4345, V-B:TYR:531:CE2:9765, V-B:PRO:540:CA:9855, V-B:PRO:540:CB:9857, V-B:LEU:363:CD1:8160, V-B:LEU:363:CA:8156, V-B:PRO:540:N:9856, V-A:HIS:456:CE1:4066, H-B:ALA:541:N:9863, V-B:TYR:531:CZ:9766, H-B:ASP:366:OD2:8186, V-B:PRO:540:C:9853, V-B:ASN:362:CB:8147, V-A:ARG:545:CG:4920, V-A:ARG:545:CD:4921"]

$$$$
RR33_Rahimova_2017-again1
     RDKit          3D

 37 38  0  0  0  0  0  0  0  0999 V2000
  132.4300  116.4730   61.0510 C   0  0  0  0  0  0  0  0  0  0  0  0
  131.6480  117.4990   60.2270 C   0  0  0  0  0  0  0  0  0  0  0  0
  132.5050  118.5960   59.9260 O   0  0  0  0  0  0  0  0  0  0  0  0
  132.4500  119.7350   60.7070 C   0  0  0  0  0  0  0  0  0  0  0  0
  131.1830  120.1400   61.1280 C   0  0  0  0  0  0  0  0  0  0  0  0
  131.0280  121.2750   61.9190 C   0  0  0  0  0  0  0  0  0  0  0  0
  132.1440  122.0260   62.3010 C   0  0  0  0  0  0  0  0  0  0  0  0
  131.9810  123.2450   63.1510 C   0  0  0  0  0  0  0  0  0  0  0  0
  130.9460  124.0550   63.2030 N   0  0  0  0  0  0  0  0  0  0  0  0
  131.2670  124.9800   64.0960 C   0  0  0  0  0  0  0  0  0  0  0  0
  130.3150  126.1130   64.4280 C   0  0  0  0  0  0  0  0  0  0  0  0
  129.2190  126.1810   63.3520 N   0  0  0  0  0  0  0  0  0  0  0  0
  129.5690  127.1030   62.1760 C   0  0  0  0  0  0  0  0  0  0  0  0
  132.5400  124.7240   64.5920 C   0  0  0  0  0  0  0  0  0  0  0  0
  133.4550  125.3820   65.5940 C   0  0  0  0  0  0  0  0  0  0  0  0
  132.9940  123.6040   63.9810 O   0  0  0  0  0  0  0  0  0  0  0  0
  133.4160  121.6230   61.8800 C   0  0  0  0  0  0  0  0  0  0  0  0
  133.5700  120.4880   61.0900 C   0  0  0  0  0  0  0  0  0  0  0  0
  132.2789  116.6712   62.1224 H   0  0  0  0  0  0  0  0  0  0  0  0
  132.0722  115.4608   60.8114 H   0  0  0  0  0  0  0  0  0  0  0  0
  133.5008  116.5497   60.8114 H   0  0  0  0  0  0  0  0  0  0  0  0
  131.2999  117.0347   59.2925 H   0  0  0  0  0  0  0  0  0  0  0  0
  130.7769  117.8515   60.7988 H   0  0  0  0  0  0  0  0  0  0  0  0
  130.2983  119.5570   60.8322 H   0  0  0  0  0  0  0  0  0  0  0  0
  130.0234  121.5824   62.2449 H   0  0  0  0  0  0  0  0  0  0  0  0
  129.8555  125.9319   65.4109 H   0  0  0  0  0  0  0  0  0  0  0  0
  130.8666  127.0643   64.4557 H   0  0  0  0  0  0  0  0  0  0  0  0
  129.0490  125.2500   63.0000 H   0  0  0  0  0  0  0  0  0  0  0  0
  128.3660  126.5100   63.7830 H   0  0  0  0  0  0  0  0  0  0  0  0
  129.9346  128.0662   62.5614 H   0  0  0  0  0  0  0  0  0  0  0  0
  130.3513  126.6331   61.5618 H   0  0  0  0  0  0  0  0  0  0  0  0
  128.6719  127.2706   61.5618 H   0  0  0  0  0  0  0  0  0  0  0  0
  133.1180  125.1397   66.6127 H   0  0  0  0  0  0  0  0  0  0  0  0
  134.4816  125.0140   65.4501 H   0  0  0  0  0  0  0  0  0  0  0  0
  133.4328  126.4723   65.4501 H   0  0  0  0  0  0  0  0  0  0  0  0
  134.3000  122.2072   62.1755 H   0  0  0  0  0  0  0  0  0  0  0  0
  134.5744  120.1798   60.7643 H   0  0  0  0  0  0  0  0  0  0  0  0
  1  2  1  0
  2  3  1  0
  3  4  1  0
  4  5  2  0
  5  6  1  0
  6  7  2  0
  7  8  1  0
  8  9  2  0
  9 10  1  0
 10 11  1  0
 11 12  1  0
 12 13  1  0
 10 14  2  0
 14 15  1  0
 14 16  1  0
  7 17  1  0
 17 18  2  0
 18  4  1  0
 16  8  1  0
  1 19  1  0
  1 20  1  0
  1 21  1  0
  2 22  1  0
  2 23  1  0
  5 24  1  0
  6 25  1  0
 11 26  1  0
 11 27  1  0
 12 28  1  0
 12 29  1  0
 13 30  1  0
 13 31  1  0
 13 32  1  0
 15 33  1  0
 15 34  1  0
 15 35  1  0
 17 36  1  0
 18 37  1  0
M  CHG  1  12   1
M  END
>  <Binding energies>  (1) 
[-6.45]

>  <Ligand effiencies>  (1) 
[-0.3225]

>  <Interactions>  (1) 
["V-A:ARG:545:CZ:4924, V-A:GLY:454:CA:4046, V-B:ALA:541:CB:9864, V-B:TYR:539:CE1:9847, V-A:ILE:369:CG2:3234, H-A:GLY:454:N:4047, H-A:TYR:484:OH:4345, V-A:LEU:475:CD2:4256, V-B:TYR:539:CD1:9845, V-B:GLU:543:CD:9880, H-A:GLU:543:OE2:4908, H-B:GLU:543:OE1:9881, H-B:GLU:543:OE2:9882, V-A:GLU:543:CD:4906, V-A:PRO:482:CG:4324, V-B:TYR:539:CB:9843, V-A:ARG:545:CG:4920, V-A:ARG:545:CD:4921, V-A:LEU:373:CD1:3277, V-A:SER:385:CA:3404, V-A:SER:385:CB:3406, V-A:SER:385:C:3402"]

$$$$
RR3_Rahimova_2017
     RDKit          3D

 63 69  0  0  0  0  0  0  0  0999 V2000
  129.7500  130.9900   57.0800 C   0  0  0  0  0  0  0  0  0  0  0  0
  131.0640  130.7640   57.4770 C   0  0  0  0  0  0  0  0  0  0  0  0
  131.3990  129.5630   58.0960 C   0  0  0  0  0  0  0  0  0  0  0  0
  130.4300  128.5750   58.3240 C   0  0  0  0  0  0  0  0  0  0  0  0
  130.7930  127.2830   58.9890 C   0  0  0  0  0  0  0  0  0  0  0  0
  131.4330  126.2610   58.2760 C   0  0  0  0  0  0  0  0  0  0  0  0
  131.7670  125.0590   58.8930 C   0  0  0  0  0  0  0  0  0  0  0  0
  131.4600  124.8490   60.2400 C   0  0  0  0  0  0  0  0  0  0  0  0
  131.8110  123.5570   60.9090 C   0  0  0  0  0  0  0  0  0  0  0  0
  132.1240  122.4930   60.1770 N   0  0  0  0  0  0  0  0  0  0  0  0
  132.4260  121.5340   61.0190 C   0  0  0  0  0  0  0  0  0  0  0  0
  132.8310  120.1820   60.6440 C   0  0  0  0  0  0  0  0  0  0  0  0
  134.1260  119.7670   60.3840 C   0  0  0  0  0  0  0  0  0  0  0  0
  134.1410  118.4320   60.0720 N   0  0  0  0  0  0  0  0  0  0  0  0
  132.8610  117.9270   60.1130 C   0  0  0  0  0  0  0  0  0  0  0  0
  132.3810  116.6350   59.8720 C   0  0  0  0  0  0  0  0  0  0  0  0
  131.0060  116.4370   59.9960 C   0  0  0  0  0  0  0  0  0  0  0  0
  130.1440  117.4720   60.3430 C   0  0  0  0  0  0  0  0  0  0  0  0
  130.6220  118.7580   60.5840 C   0  0  0  0  0  0  0  0  0  0  0  0
  132.0010  119.0120   60.4720 C   0  0  0  0  0  0  0  0  0  0  0  0
  132.3050  121.9630   62.3120 N   0  0  0  0  0  0  0  0  0  0  0  0
  131.8840  123.2670   62.2820 C   0  0  0  0  0  0  0  0  0  0  0  0
  131.5850  124.0510   63.5180 C   0  0  0  0  0  0  0  0  0  0  0  0
  130.6680  123.5660   64.4500 C   0  0  0  0  0  0  0  0  0  0  0  0
  130.3770  124.2990   65.5960 C   0  0  0  0  0  0  0  0  0  0  0  0
  131.0000  125.5320   65.8400 C   0  0  0  0  0  0  0  0  0  0  0  0
  130.6700  126.3270   67.0640 C   0  0  0  0  0  0  0  0  0  0  0  0
  129.4450  126.1540   67.7260 C   0  0  0  0  0  0  0  0  0  0  0  0
  129.1400  126.8920   68.8680 C   0  0  0  0  0  0  0  0  0  0  0  0
  130.0610  127.8110   69.3610 C   0  0  0  0  0  0  0  0  0  0  0  0
  131.2820  127.9970   68.7220 C   0  0  0  0  0  0  0  0  0  0  0  0
  131.5820  127.2600   67.5800 C   0  0  0  0  0  0  0  0  0  0  0  0
  131.9330  126.0000   64.9040 C   0  0  0  0  0  0  0  0  0  0  0  0
  132.2260  125.2690   63.7570 C   0  0  0  0  0  0  0  0  0  0  0  0
  130.8340  125.8660   60.9630 C   0  0  0  0  0  0  0  0  0  0  0  0
  130.5000  127.0670   60.3420 C   0  0  0  0  0  0  0  0  0  0  0  0
  129.1120  128.8260   57.9150 C   0  0  0  0  0  0  0  0  0  0  0  0
  128.7720  130.0250   57.2960 C   0  0  0  0  0  0  0  0  0  0  0  0
  129.4826  131.9387   56.5917 H   0  0  0  0  0  0  0  0  0  0  0  0
  131.8340  131.5300   57.3028 H   0  0  0  0  0  0  0  0  0  0  0  0
  132.4381  129.3864   58.4107 H   0  0  0  0  0  0  0  0  0  0  0  0
  131.6750  126.4106   57.2134 H   0  0  0  0  0  0  0  0  0  0  0  0
  132.2749  124.2708   58.3178 H   0  0  0  0  0  0  0  0  0  0  0  0
  135.0143  120.4146   60.4222 H   0  0  0  0  0  0  0  0  0  0  0  0
  134.9920  117.9370   59.8510 H   0  0  0  0  0  0  0  0  0  0  0  0
  133.0576  115.8125   59.5971 H   0  0  0  0  0  0  0  0  0  0  0  0
  130.5917  115.4343   59.8143 H   0  0  0  0  0  0  0  0  0  0  0  0
  129.0658  117.2715   60.4286 H   0  0  0  0  0  0  0  0  0  0  0  0
  129.9285  119.5663   60.8590 H   0  0  0  0  0  0  0  0  0  0  0  0
  132.4680  121.4090   63.1400 H   0  0  0  0  0  0  0  0  0  0  0  0
  130.1724  122.5991   64.2782 H   0  0  0  0  0  0  0  0  0  0  0  0
  129.6485  123.9064   66.3207 H   0  0  0  0  0  0  0  0  0  0  0  0
  128.7163  125.4267   67.3387 H   0  0  0  0  0  0  0  0  0  0  0  0
  128.1756  126.7487   69.3773 H   0  0  0  0  0  0  0  0  0  0  0  0
  129.8217  128.3944   70.2623 H   0  0  0  0  0  0  0  0  0  0  0  0
  132.0075  128.7233   69.1173 H   0  0  0  0  0  0  0  0  0  0  0  0
  132.5475  127.4111   67.0750 H   0  0  0  0  0  0  0  0  0  0  0  0
  132.4411  126.9598   65.0791 H   0  0  0  0  0  0  0  0  0  0  0  0
  132.9642  125.6511   63.0366 H   0  0  0  0  0  0  0  0  0  0  0  0
  130.6034  125.7180   62.0283 H   0  0  0  0  0  0  0  0  0  0  0  0
  129.9994  127.8566   60.9215 H   0  0  0  0  0  0  0  0  0  0  0  0
  128.3366  128.0647   58.0859 H   0  0  0  0  0  0  0  0  0  0  0  0
  127.7348  130.2087   56.9791 H   0  0  0  0  0  0  0  0  0  0  0  0
  1  2  2  0
  2  3  1  0
  3  4  2  0
  4  5  1  0
  5  6  2  0
  6  7  1  0
  7  8  2  0
  8  9  1  0
  9 10  1  0
 10 11  2  0
 11 12  1  0
 12 13  2  0
 13 14  1  0
 14 15  1  0
 15 16  2  0
 16 17  1  0
 17 18  2  0
 18 19  1  0
 19 20  2  0
 11 21  1  0
 21 22  1  0
 22 23  1  0
 23 24  2  0
 24 25  1  0
 25 26  2  0
 26 27  1  0
 27 28  2  0
 28 29  1  0
 29 30  2  0
 30 31  1  0
 31 32  2  0
 26 33  1  0
 33 34  2  0
  8 35  1  0
 35 36  2  0
  4 37  1  0
 37 38  2  0
 38  1  1  0
 36  5  1  0
 22  9  2  0
 34 23  1  0
 20 12  1  0
 32 27  1  0
 20 15  1  0
  1 39  1  0
  2 40  1  0
  3 41  1  0
  6 42  1  0
  7 43  1  0
 13 44  1  0
 14 45  1  0
 16 46  1  0
 17 47  1  0
 18 48  1  0
 19 49  1  0
 21 50  1  0
 24 51  1  0
 25 52  1  0
 28 53  1  0
 29 54  1  0
 30 55  1  0
 31 56  1  0
 32 57  1  0
 33 58  1  0
 34 59  1  0
 35 60  1  0
 36 61  1  0
 37 62  1  0
 38 63  1  0
M  END
>  <Binding energies>  (1) 
[-8.76]

>  <Ligand effiencies>  (1) 
[-0.219]

>  <Interactions>  (1) 
["V-A:ARG:545:CZ:4924, V-B:TYR:539:CE1:9847, V-A:ILE:369:CG2:3234, V-A:ASP:366:CG:3210, V-A:LEU:475:CD2:4256, V-B:TYR:539:CD1:9845, V-B:TYR:539:CG:9844, V-B:TYR:539:C:9839, V-B:GLU:543:CD:9880, V-B:GLU:543:CG:9879, V-B:GLU:543:CB:9878, V-A:HIS:456:CE1:4066, V-A:ASP:366:CB:3209, V-A:GLU:543:CB:4904, V-A:GLU:543:CD:4906, V-A:GLU:543:CG:4905, V-B:GLU:543:C:9874, V-A:GLU:543:C:4900, V-A:GLY:544:C:4910, V-A:MET:535:CE:4833, V-A:PRO:482:CB:4323, V-A:TYR:484:CZ:4344, V-A:TYR:484:CE2:4343, V-A:PRO:482:CG:4324, V-B:TYR:539:CB:9843, V-A:ARG:545:CG:4920, V-A:LEU:373:CD1:3277, V-A:SER:385:CA:3404, V-A:SER:385:CB:3406, V-A:SER:385:C:3402, H-A:SER:385:O:3403, V-B:VAL:344:CG1:7972, H-A:VAL:384:O:3395, V-A:VAL:384:C:3394"]

$$$$
RR4_Rahimova_2017
     RDKit          3D

 66 70  0  0  0  0  0  0  0  0999 V2000
  131.9440  133.2040   56.3670 C   0  0  0  0  0  0  0  0  0  0  0  0
  130.6930  132.9260   56.9840 O   0  0  0  0  0  0  0  0  0  0  0  0
  130.5290  131.7390   57.6730 C   0  0  0  0  0  0  0  0  0  0  0  0
  130.0150  130.6640   56.9510 C   0  0  0  0  0  0  0  0  0  0  0  0
  129.8180  129.4290   57.5620 C   0  0  0  0  0  0  0  0  0  0  0  0
  130.1270  129.2330   58.9160 C   0  0  0  0  0  0  0  0  0  0  0  0
  129.9110  127.9000   59.5720 C   0  0  0  0  0  0  0  0  0  0  0  0
  130.7130  127.4310   60.6180 C   0  0  0  0  0  0  0  0  0  0  0  0
  130.4690  126.1810   61.2000 C   0  0  0  0  0  0  0  0  0  0  0  0
  131.3500  125.7590   62.3310 C   0  0  0  0  0  0  0  0  0  0  0  0
  130.9970  126.0690   63.6480 C   0  0  0  0  0  0  0  0  0  0  0  0
  131.8050  125.6700   64.7090 C   0  0  0  0  0  0  0  0  0  0  0  0
  132.9770  124.9500   64.4760 C   0  0  0  0  0  0  0  0  0  0  0  0
  133.7150  124.5960   65.5890 O   0  0  0  0  0  0  0  0  0  0  0  0
  133.6380  125.4050   66.7590 C   0  0  0  0  0  0  0  0  0  0  0  0
  133.3320  124.6330   63.1560 C   0  0  0  0  0  0  0  0  0  0  0  0
  132.5220  125.0320   62.0970 C   0  0  0  0  0  0  0  0  0  0  0  0
  129.4110  125.3920   60.6860 C   0  0  0  0  0  0  0  0  0  0  0  0
  129.1120  124.0760   61.2590 C   0  0  0  0  0  0  0  0  0  0  0  0
  128.8760  123.0370   61.7110 N   0  0  0  0  0  0  0  0  0  0  0  0
  128.6590  125.9140   59.6080 C   0  0  0  0  0  0  0  0  0  0  0  0
  127.3060  125.0590   58.8310 S   0  0  0  0  0  0  0  0  0  0  0  0
  126.4080  126.2630   57.7960 C   0  0  0  0  0  0  0  0  0  0  0  0
  126.4040  127.6960   58.3440 C   0  0  0  0  0  0  0  0  0  0  0  0
  126.5650  128.6570   57.5870 O   0  0  0  0  0  0  0  0  0  0  0  0
  126.2290  127.7910   59.6820 N   0  0  0  0  0  0  0  0  0  0  0  0
  126.1760  128.9410   60.4730 C   0  0  0  0  0  0  0  0  0  0  0  0
  127.0830  129.1190   61.9520 S   0  0  0  0  0  0  0  0  0  0  0  0
  126.4420  130.7110   62.2180 C   0  0  0  0  0  0  0  0  0  0  0  0
  125.5550  131.0880   61.1990 C   0  0  0  0  0  0  0  0  0  0  0  0
  125.4170  130.0910   60.2030 C   0  0  0  0  0  0  0  0  0  0  0  0
  124.5690  130.2420   59.0250 C   0  0  0  0  0  0  0  0  0  0  0  0
  123.8950  130.3620   58.0910 N   0  0  0  0  0  0  0  0  0  0  0  0
  124.8850  132.4670   61.1870 C   0  0  0  0  0  0  0  0  0  0  0  0
  125.6100  133.4340   62.1500 C   0  0  0  0  0  0  0  0  0  0  0  0
  125.9030  132.7830   63.5130 C   0  0  0  0  0  0  0  0  0  0  0  0
  126.8710  131.5870   63.3880 C   0  0  0  0  0  0  0  0  0  0  0  0
  128.8970  127.1400   59.0850 N   0  0  0  0  0  0  0  0  0  0  0  0
  130.6470  130.3220   59.6330 C   0  0  0  0  0  0  0  0  0  0  0  0
  130.8460  131.5580   59.0260 C   0  0  0  0  0  0  0  0  0  0  0  0
  132.7057  133.3733   57.1424 H   0  0  0  0  0  0  0  0  0  0  0  0
  132.2418  132.3501   55.7407 H   0  0  0  0  0  0  0  0  0  0  0  0
  131.8521  134.1036   55.7407 H   0  0  0  0  0  0  0  0  0  0  0  0
  129.7625  130.7925   55.8881 H   0  0  0  0  0  0  0  0  0  0  0  0
  129.4132  128.5927   56.9731 H   0  0  0  0  0  0  0  0  0  0  0  0
  131.5437  128.0505   60.9870 H   0  0  0  0  0  0  0  0  0  0  0  0
  130.0736  126.6326   63.8472 H   0  0  0  0  0  0  0  0  0  0  0  0
  131.5170  125.9245   65.7397 H   0  0  0  0  0  0  0  0  0  0  0  0
  133.6989  124.7653   67.6518 H   0  0  0  0  0  0  0  0  0  0  0  0
  134.4719  126.1223   66.7643 H   0  0  0  0  0  0  0  0  0  0  0  0
  132.6837  125.9521   66.7643 H   0  0  0  0  0  0  0  0  0  0  0  0
  134.2541  124.0670   62.9575 H   0  0  0  0  0  0  0  0  0  0  0  0
  132.8060  124.7733   61.0663 H   0  0  0  0  0  0  0  0  0  0  0  0
  126.8764  126.2772   56.8008 H   0  0  0  0  0  0  0  0  0  0  0  0
  125.3585  125.9342   57.7732 H   0  0  0  0  0  0  0  0  0  0  0  0
  126.1090  126.9230   60.1850 H   0  0  0  0  0  0  0  0  0  0  0  0
  124.9219  132.8777   60.1672 H   0  0  0  0  0  0  0  0  0  0  0  0
  123.8412  132.3563   61.5159 H   0  0  0  0  0  0  0  0  0  0  0  0
  126.5616  133.7427   61.6926 H   0  0  0  0  0  0  0  0  0  0  0  0
  124.9508  134.2976   62.3221 H   0  0  0  0  0  0  0  0  0  0  0  0
  126.3532  133.5361   64.1765 H   0  0  0  0  0  0  0  0  0  0  0  0
  124.9526  132.4089   63.9215 H   0  0  0  0  0  0  0  0  0  0  0  0
  127.8921  131.9575   63.2144 H   0  0  0  0  0  0  0  0  0  0  0  0
  126.8495  130.9975   64.3165 H   0  0  0  0  0  0  0  0  0  0  0  0
  130.9021  130.1957   60.6955 H   0  0  0  0  0  0  0  0  0  0  0  0
  131.2536  132.3962   59.6102 H   0  0  0  0  0  0  0  0  0  0  0  0
  1  2  1  0
  2  3  1  0
  3  4  2  0
  4  5  1  0
  5  6  2  0
  6  7  1  0
  7  8  2  0
  8  9  1  0
  9 10  1  0
 10 11  2  0
 11 12  1  0
 12 13  2  0
 13 14  1  0
 14 15  1  0
 13 16  1  0
 16 17  2  0
  9 18  2  0
 18 19  1  0
 19 20  3  0
 18 21  1  0
 21 22  1  0
 22 23  1  0
 23 24  1  0
 24 25  2  0
 24 26  1  0
 26 27  1  0
 27 28  1  0
 28 29  1  0
 29 30  2  0
 30 31  1  0
 31 32  1  0
 32 33  3  0
 30 34  1  0
 34 35  1  0
 35 36  1  0
 36 37  1  0
 21 38  2  0
  6 39  1  0
 39 40  2  0
 40  3  1  0
 38  7  1  0
 17 10  1  0
 31 27  2  0
 37 29  1  0
  1 41  1  0
  1 42  1  0
  1 43  1  0
  4 44  1  0
  5 45  1  0
  8 46  1  0
 11 47  1  0
 12 48  1  0
 15 49  1  0
 15 50  1  0
 15 51  1  0
 16 52  1  0
 17 53  1  0
 23 54  1  0
 23 55  1  0
 26 56  1  0
 34 57  1  0
 34 58  1  0
 35 59  1  0
 35 60  1  0
 36 61  1  0
 36 62  1  0
 37 63  1  0
 37 64  1  0
 39 65  1  0
 40 66  1  0
M  END
>  <Binding energies>  (1) 
[-8.08]

>  <Ligand effiencies>  (1) 
[-0.19707317073170733]

>  <Interactions>  (1) 
["V-A:PRO:540:CA:4881, V-A:ARG:545:CZ:4924, V-A:GLY:454:CA:4046, V-A:ILE:538:CB:4860, V-B:ILE:369:CG2:8208, V-A:PRO:540:CD:4885, V-A:ILE:538:CG2:4861, V-A:PRO:540:CB:4883, H-A:GLY:454:N:4047, H-A:TYR:484:OH:4345, V-A:PRO:540:N:4882, V-A:ASP:366:CG:3210, V-A:LEU:363:CD1:3186, V-A:TYR:539:CE1:4873, V-B:ASP:366:CG:8184, V-B:LEU:475:CD2:9230, V-B:ASP:366:CB:8183, H-B:TYR:531:OH:9767, H-A:TYR:539:OH:4876, V-A:HIS:456:CE1:4066, H-A:TYR:539:N:4868, V-B:ASP:366:CA:8181, H-B:ASP:366:OD2:8186, V-A:MET:535:CE:4833, V-A:TYR:484:CZ:4344, V-A:ARG:545:CG:4920, V-A:ARG:545:CD:4921, V-A:ILE:538:CA:4858, H-B:ASP:366:OD1:8185, V-A:ILE:538:C:4856"]

$$$$
RR5_Rahimova_2017
     RDKit          3D

 77 82  0  0  0  0  0  0  0  0999 V2000
  128.2330  122.6180   62.2910 O   0  0  0  0  0  0  0  0  0  0  0  0
  128.4390  123.0210   61.1470 C   0  0  0  0  0  0  0  0  0  0  0  0
  127.2490  123.4020   60.2460 C   0  0  0  0  0  0  0  0  0  0  0  0
  126.2420  124.4080   60.9090 C   0  0  2  0  0  0  0  0  0  0  0  0
  126.8640  125.4400   61.7630 N   0  0  0  0  0  0  0  0  0  0  0  0
  127.3780  126.6130   61.2290 C   0  0  0  0  0  0  0  0  0  0  0  0
  127.3460  126.9600   60.0450 O   0  0  0  0  0  0  0  0  0  0  0  0
  127.9410  127.3210   62.2230 O   0  0  0  0  0  0  0  0  0  0  0  0
  127.3160  128.4880   62.7510 C   0  0  0  0  0  0  0  0  0  0  0  0
  126.9600  129.4780   61.6210 C   0  0  0  0  0  0  0  0  0  0  0  0
  125.8320  130.4300   61.9780 C   0  0  0  0  0  0  0  0  0  0  0  0
  124.5200  130.1470   62.3710 C   0  0  0  0  0  0  0  0  0  0  0  0
  123.6460  131.1910   62.6780 C   0  0  0  0  0  0  0  0  0  0  0  0
  124.0780  132.5150   62.5910 C   0  0  0  0  0  0  0  0  0  0  0  0
  125.3860  132.8010   62.1960 C   0  0  0  0  0  0  0  0  0  0  0  0
  126.2590  131.7550   61.8890 C   0  0  0  0  0  0  0  0  0  0  0  0
  127.6620  131.7640   61.4460 C   0  0  0  0  0  0  0  0  0  0  0  0
  128.5390  132.8200   61.1920 C   0  0  0  0  0  0  0  0  0  0  0  0
  129.8360  132.5500   60.7520 C   0  0  0  0  0  0  0  0  0  0  0  0
  130.2530  131.2300   60.5700 C   0  0  0  0  0  0  0  0  0  0  0  0
  129.3750  130.1770   60.8290 C   0  0  0  0  0  0  0  0  0  0  0  0
  128.0770  130.4430   61.2720 C   0  0  0  0  0  0  0  0  0  0  0  0
  125.1570  123.6500   61.7130 C   0  0  0  0  0  0  0  0  0  0  0  0
  124.1360  123.1940   61.2380 O   0  0  0  0  0  0  0  0  0  0  0  0
  125.5340  123.5610   63.0220 O   0  0  0  0  0  0  0  0  0  0  0  0
  129.6620  123.1950   60.5990 N   0  0  0  0  0  0  0  0  0  0  0  0
  131.0520  122.9650   61.0950 C   0  0  0  0  0  0  0  0  0  0  0  0
  131.9120  123.6990   60.0120 C   0  0  0  0  0  0  0  0  0  0  0  0
  131.3140  124.4720   59.0020 C   0  0  0  0  0  0  0  0  0  0  0  0
  132.0890  125.1220   58.0450 C   0  0  0  0  0  0  0  0  0  0  0  0
  133.4740  125.0010   58.0750 C   0  0  0  0  0  0  0  0  0  0  0  0
  134.0920  124.2440   59.0630 C   0  0  0  0  0  0  0  0  0  0  0  0
  133.3180  123.6030   60.0260 C   0  0  0  0  0  0  0  0  0  0  0  0
  131.1620  123.6350   62.5060 C   0  0  0  0  0  0  0  0  0  0  0  0
  131.8000  124.8720   62.6880 C   0  0  0  0  0  0  0  0  0  0  0  0
  131.9020  125.4410   63.9550 C   0  0  0  0  0  0  0  0  0  0  0  0
  131.3700  124.7780   65.0570 C   0  0  0  0  0  0  0  0  0  0  0  0
  130.7300  123.5530   64.9010 C   0  0  0  0  0  0  0  0  0  0  0  0
  130.6210  122.9910   63.6330 C   0  0  0  0  0  0  0  0  0  0  0  0
  131.2640  121.4130   61.0910 C   0  0  0  0  0  0  0  0  0  0  0  0
  130.2070  120.5370   61.3970 C   0  0  0  0  0  0  0  0  0  0  0  0
  130.3920  119.1570   61.4030 C   0  0  0  0  0  0  0  0  0  0  0  0
  131.6390  118.6270   61.0960 C   0  0  0  0  0  0  0  0  0  0  0  0
  132.6990  119.4660   60.7750 C   0  0  0  0  0  0  0  0  0  0  0  0
  132.5110  120.8450   60.7710 C   0  0  0  0  0  0  0  0  0  0  0  0
  127.6436  123.8621   59.3281 H   0  0  0  0  0  0  0  0  0  0  0  0
  126.6897  122.4755   60.0489 H   0  0  0  0  0  0  0  0  0  0  0  0
  125.7893  124.9477   60.0642 H   0  0  0  0  0  0  0  0  0  0  0  0
  127.0680  125.2060   62.7230 H   0  0  0  0  0  0  0  0  0  0  0  0
  126.3958  128.1969   63.2786 H   0  0  0  0  0  0  0  0  0  0  0  0
  128.0151  128.9798   63.4434 H   0  0  0  0  0  0  0  0  0  0  0  0
  126.7109  128.7870   60.8022 H   0  0  0  0  0  0  0  0  0  0  0  0
  124.1776  129.1038   62.4380 H   0  0  0  0  0  0  0  0  0  0  0  0
  122.6144  130.9696   62.9892 H   0  0  0  0  0  0  0  0  0  0  0  0
  123.3864  133.3351   62.8342 H   0  0  0  0  0  0  0  0  0  0  0  0
  125.7272  133.8445   62.1269 H   0  0  0  0  0  0  0  0  0  0  0  0
  128.2098  133.8594   61.3378 H   0  0  0  0  0  0  0  0  0  0  0  0
  130.5305  133.3784   60.5484 H   0  0  0  0  0  0  0  0  0  0  0  0
  131.2751  131.0199   60.2219 H   0  0  0  0  0  0  0  0  0  0  0  0
  129.7047  129.1376   60.6844 H   0  0  0  0  0  0  0  0  0  0  0  0
  126.4860  123.5030   63.1230 H   0  0  0  0  0  0  0  0  0  0  0  0
  129.6440  123.4370   59.6190 H   0  0  0  0  0  0  0  0  0  0  0  0
  130.2185  124.5648   58.9670 H   0  0  0  0  0  0  0  0  0  0  0  0
  131.6062  125.7305   57.2661 H   0  0  0  0  0  0  0  0  0  0  0  0
  134.0838  125.5074   57.3123 H   0  0  0  0  0  0  0  0  0  0  0  0
  135.1879  124.1518   59.0839 H   0  0  0  0  0  0  0  0  0  0  0  0
  133.8119  123.0116   60.8111 H   0  0  0  0  0  0  0  0  0  0  0  0
  132.2242  125.3979   61.8200 H   0  0  0  0  0  0  0  0  0  0  0  0
  132.4019  126.4122   64.0845 H   0  0  0  0  0  0  0  0  0  0  0  0
  131.4563  125.2258   66.0580 H   0  0  0  0  0  0  0  0  0  0  0  0
  130.3125  123.0316   65.7750 H   0  0  0  0  0  0  0  0  0  0  0  0
  130.1037  122.0281   63.5101 H   0  0  0  0  0  0  0  0  0  0  0  0
  129.2158  120.9498   61.6360 H   0  0  0  0  0  0  0  0  0  0  0  0
  129.5538  118.4888   61.6499 H   0  0  0  0  0  0  0  0  0  0  0  0
  131.7880  117.5372   61.1071 H   0  0  0  0  0  0  0  0  0  0  0  0
  133.6828  119.0420   60.5251 H   0  0  0  0  0  0  0  0  0  0  0  0
  133.3534  121.5035   60.5127 H   0  0  0  0  0  0  0  0  0  0  0  0
  1  2  2  0
  2  3  1  0
  3  4  1  0
  4  5  1  0
  5  6  1  0
  6  7  2  0
  6  8  1  0
  8  9  1  0
  9 10  1  0
 10 11  1  0
 11 12  2  0
 12 13  1  0
 13 14  2  0
 14 15  1  0
 15 16  2  0
 16 17  1  0
 17 18  2  0
 18 19  1  0
 19 20  2  0
 20 21  1  0
 21 22  2  0
  4 23  1  0
 23 24  2  0
 23 25  1  0
  2 26  1  0
 26 27  1  0
 27 28  1  0
 28 29  2  0
 29 30  1  0
 30 31  2  0
 31 32  1  0
 32 33  2  0
 27 34  1  0
 34 35  2  0
 35 36  1  0
 36 37  2  0
 37 38  1  0
 38 39  2  0
 27 40  1  0
 40 41  2  0
 41 42  1  0
 42 43  2  0
 43 44  1  0
 44 45  2  0
 22 10  1  0
 33 28  1  0
 39 34  1  0
 45 40  1  0
 16 11  1  0
 22 17  1  0
  3 46  1  0
  3 47  1  0
  4 48  1  6
  5 49  1  0
  9 50  1  0
  9 51  1  0
 10 52  1  0
 12 53  1  0
 13 54  1  0
 14 55  1  0
 15 56  1  0
 18 57  1  0
 19 58  1  0
 20 59  1  0
 21 60  1  0
 25 61  1  0
 26 62  1  0
 29 63  1  0
 30 64  1  0
 31 65  1  0
 32 66  1  0
 33 67  1  0
 35 68  1  0
 36 69  1  0
 37 70  1  0
 38 71  1  0
 39 72  1  0
 41 73  1  0
 42 74  1  0
 43 75  1  0
 44 76  1  0
 45 77  1  0
M  END
>  <Binding energies>  (1) 
[-10.8]

>  <Ligand effiencies>  (1) 
[-0.225]

>  <Interactions>  (1) 
["V-A:PRO:540:CA:4881, V-A:ARG:545:CZ:4924, H-B:ARG:545:NH2:9900, V-B:ALA:541:CB:9864, V-B:TYR:539:CE1:9847, V-A:ILE:369:CG2:3234, V-B:ARG:545:CZ:9898, V-B:GLY:453:CA:9015, V-A:ILE:369:CD1:3236, V-A:PRO:540:N:4882, V-B:ILE:369:CD1:8210, V-B:GLY:453:C:9013, V-A:ASP:366:CG:3210, V-A:LEU:475:CD2:4256, V-B:PRO:540:CA:9855, V-B:ASP:366:CG:8184, V-B:PRO:540:CB:9857, V-B:LEU:475:CD2:9230, V-B:TYR:539:CD1:9845, V-B:GLU:543:CD:9880, V-B:GLU:543:CB:9878, V-A:ASP:366:CA:3207, V-A:ASP:366:CB:3209, V-A:ALA:541:CB:4890, H-B:GLU:543:OE1:9881, V-B:TYR:539:CZ:9849, H-B:GLU:543:OE2:9882, H-B:ALA:541:N:9863, V-A:PRO:540:C:4879, V-B:GLY:454:CA:9020, V-A:TYR:539:C:4865, V-A:ILE:369:CB:3233, V-A:ASP:366:C:3205, V-A:PRO:482:CB:4323, V-A:TYR:484:CZ:4344, V-A:TYR:484:CE2:4343, V-A:PRO:482:CG:4324, V-B:ASN:362:CB:8147, H-B:ALA:541:O:9861, V-A:LEU:373:CD1:3277, V-A:SER:385:CA:3404"]

$$$$
RR5_Rahimova_2017-again1
     RDKit          3D

 76 81  0  0  0  0  0  0  0  0999 V2000
  129.7090  128.2050   57.3540 O   0  0  0  0  0  0  0  0  0  0  0  0
  129.6550  128.0780   58.5770 C   0  0  0  0  0  0  0  0  0  0  0  0
  130.3280  126.8500   59.2270 C   0  0  0  0  0  0  0  0  0  0  0  0
  130.1990  125.4930   58.4610 C   0  0  2  0  0  0  0  0  0  0  0  0
  129.9360  124.4110   59.4340 N   0  0  0  0  0  0  0  0  0  0  0  0
  128.7420  124.3430   60.1440 C   0  0  0  0  0  0  0  0  0  0  0  0
  127.8030  125.1420   60.0810 O   0  0  0  0  0  0  0  0  0  0  0  0
  128.7680  123.2480   60.9280 O   0  0  0  0  0  0  0  0  0  0  0  0
  129.4190  122.0580   60.5000 C   0  0  0  0  0  0  0  0  0  0  0  0
  130.4640  121.6200   61.5450 C   0  0  0  0  0  0  0  0  0  0  0  0
  131.1660  120.3210   61.1920 C   0  0  0  0  0  0  0  0  0  0  0  0
  130.6320  119.0460   60.9830 C   0  0  0  0  0  0  0  0  0  0  0  0
  131.4740  117.9840   60.6490 C   0  0  0  0  0  0  0  0  0  0  0  0
  132.8490  118.1910   60.5280 C   0  0  0  0  0  0  0  0  0  0  0  0
  133.3870  119.4610   60.7410 C   0  0  0  0  0  0  0  0  0  0  0  0
  132.5430  120.5220   61.0740 C   0  0  0  0  0  0  0  0  0  0  0  0
  132.8330  121.9360   61.3600 C   0  0  0  0  0  0  0  0  0  0  0  0
  134.0390  122.6390   61.3870 C   0  0  0  0  0  0  0  0  0  0  0  0
  134.0390  123.9970   61.7070 C   0  0  0  0  0  0  0  0  0  0  0  0
  132.8390  124.6480   62.0000 C   0  0  0  0  0  0  0  0  0  0  0  0
  131.6340  123.9430   61.9710 C   0  0  0  0  0  0  0  0  0  0  0  0
  131.6300  122.5830   61.6470 C   0  0  0  0  0  0  0  0  0  0  0  0
  131.4740  125.1890   57.5750 C   0  0  0  0  0  0  0  0  0  0  0  0
  132.2750  124.3710   58.0850 O   0  0  0  0  0  0  0  0  0  0  0  0
  131.5330  125.7550   56.4570 O   0  0  0  0  0  0  0  0  0  0  0  0
  129.1420  129.0250   59.3910 N   0  0  0  0  0  0  0  0  0  0  0  0
  128.4620  130.3000   59.0480 C   0  0  0  0  0  0  0  0  0  0  0  0
  129.3430  131.1290   58.0610 C   0  0  0  0  0  0  0  0  0  0  0  0
  130.7400  130.9690   58.0300 C   0  0  0  0  0  0  0  0  0  0  0  0
  131.5260  131.6980   57.1420 C   0  0  0  0  0  0  0  0  0  0  0  0
  130.9250  132.5960   56.2670 C   0  0  0  0  0  0  0  0  0  0  0  0
  129.5450  132.7700   56.2730 C   0  0  0  0  0  0  0  0  0  0  0  0
  128.7600  132.0410   57.1630 C   0  0  0  0  0  0  0  0  0  0  0  0
  127.1040  130.1470   58.2900 C   0  0  0  0  0  0  0  0  0  0  0  0
  125.8850  130.4280   58.9300 C   0  0  0  0  0  0  0  0  0  0  0  0
  124.6730  130.2920   58.2580 C   0  0  0  0  0  0  0  0  0  0  0  0
  124.6650  129.8770   56.9300 C   0  0  0  0  0  0  0  0  0  0  0  0
  125.8590  129.6020   56.2710 C   0  0  0  0  0  0  0  0  0  0  0  0
  127.0680  129.7390   56.9460 C   0  0  0  0  0  0  0  0  0  0  0  0
  128.3230  131.0430   60.4220 C   0  0  0  0  0  0  0  0  0  0  0  0
  128.6340  132.4070   60.5590 C   0  0  0  0  0  0  0  0  0  0  0  0
  128.4880  133.0570   61.7800 C   0  0  0  0  0  0  0  0  0  0  0  0
  128.0150  132.3540   62.8830 C   0  0  0  0  0  0  0  0  0  0  0  0
  127.6790  131.0100   62.7710 C   0  0  0  0  0  0  0  0  0  0  0  0
  127.8260  130.3620   61.5470 C   0  0  0  0  0  0  0  0  0  0  0  0
  131.4000  127.0734   59.3316 H   0  0  0  0  0  0  0  0  0  0  0  0
  129.7964  126.6977   60.1779 H   0  0  0  0  0  0  0  0  0  0  0  0
  129.3530  125.5597   57.7611 H   0  0  0  0  0  0  0  0  0  0  0  0
  130.6170  123.6720   59.5320 H   0  0  0  0  0  0  0  0  0  0  0  0
  128.6725  121.2597   60.3754 H   0  0  0  0  0  0  0  0  0  0  0  0
  129.9259  122.2496   59.5427 H   0  0  0  0  0  0  0  0  0  0  0  0
  129.8614  121.5505   62.4626 H   0  0  0  0  0  0  0  0  0  0  0  0
  129.5491  118.8798   61.0817 H   0  0  0  0  0  0  0  0  0  0  0  0
  131.0530  116.9818   60.4808 H   0  0  0  0  0  0  0  0  0  0  0  0
  133.5096  117.3519   60.2644 H   0  0  0  0  0  0  0  0  0  0  0  0
  134.4706  119.6252   60.6470 H   0  0  0  0  0  0  0  0  0  0  0  0
  134.9840  122.1250   61.1572 H   0  0  0  0  0  0  0  0  0  0  0  0
  134.9862  124.5559   61.7285 H   0  0  0  0  0  0  0  0  0  0  0  0
  132.8429  125.7182   62.2541 H   0  0  0  0  0  0  0  0  0  0  0  0
  130.6894  124.4569   62.2027 H   0  0  0  0  0  0  0  0  0  0  0  0
  129.0930  128.7860   60.3710 H   0  0  0  0  0  0  0  0  0  0  0  0
  131.2189  130.2568   58.7181 H   0  0  0  0  0  0  0  0  0  0  0  0
  132.6178  131.5642   57.1326 H   0  0  0  0  0  0  0  0  0  0  0  0
  131.5452  133.1728   55.5651 H   0  0  0  0  0  0  0  0  0  0  0  0
  129.0753  133.4809   55.5773 H   0  0  0  0  0  0  0  0  0  0  0  0
  127.6689  132.1805   57.1636 H   0  0  0  0  0  0  0  0  0  0  0  0
  125.8882  130.7607   59.9785 H   0  0  0  0  0  0  0  0  0  0  0  0
  123.7269  130.5115   58.7744 H   0  0  0  0  0  0  0  0  0  0  0  0
  123.7087  129.7657   56.3979 H   0  0  0  0  0  0  0  0  0  0  0  0
  125.8473  129.2774   55.2200 H   0  0  0  0  0  0  0  0  0  0  0  0
  128.0097  129.5247   56.4195 H   0  0  0  0  0  0  0  0  0  0  0  0
  128.9986  132.9693   59.6867 H   0  0  0  0  0  0  0  0  0  0  0  0
  128.7455  134.1224   61.8729 H   0  0  0  0  0  0  0  0  0  0  0  0
  127.9061  132.8653   63.8508 H   0  0  0  0  0  0  0  0  0  0  0  0
  127.2988  130.4607   63.6449 H   0  0  0  0  0  0  0  0  0  0  0  0
  127.5490  129.3011   61.4592 H   0  0  0  0  0  0  0  0  0  0  0  0
  1  2  2  0
  2  3  1  0
  3  4  1  0
  4  5  1  0
  5  6  1  0
  6  7  2  0
  6  8  1  0
  8  9  1  0
  9 10  1  0
 10 11  1  0
 11 12  2  0
 12 13  1  0
 13 14  2  0
 14 15  1  0
 15 16  2  0
 16 17  1  0
 17 18  2  0
 18 19  1  0
 19 20  2  0
 20 21  1  0
 21 22  2  0
  4 23  1  0
 23 24  2  0
 23 25  1  0
  2 26  1  0
 26 27  1  0
 27 28  1  0
 28 29  2  0
 29 30  1  0
 30 31  2  0
 31 32  1  0
 32 33  2  0
 27 34  1  0
 34 35  2  0
 35 36  1  0
 36 37  2  0
 37 38  1  0
 38 39  2  0
 27 40  1  0
 40 41  2  0
 41 42  1  0
 42 43  2  0
 43 44  1  0
 44 45  2  0
 22 10  1  0
 33 28  1  0
 39 34  1  0
 45 40  1  0
 16 11  1  0
 22 17  1  0
  3 46  1  0
  3 47  1  0
  4 48  1  6
  5 49  1  0
  9 50  1  0
  9 51  1  0
 10 52  1  0
 12 53  1  0
 13 54  1  0
 14 55  1  0
 15 56  1  0
 18 57  1  0
 19 58  1  0
 20 59  1  0
 21 60  1  0
 26 61  1  0
 29 62  1  0
 30 63  1  0
 31 64  1  0
 32 65  1  0
 33 66  1  0
 35 67  1  0
 36 68  1  0
 37 69  1  0
 38 70  1  0
 39 71  1  0
 41 72  1  0
 42 73  1  0
 43 74  1  0
 44 75  1  0
 45 76  1  0
M  CHG  1  25  -1
M  END
>  <Binding energies>  (1) 
[-10.04]

>  <Ligand effiencies>  (1) 
[-0.21361702127659574]

>  <Interactions>  (1) 
["V-A:ILE:538:CB:4860, V-B:ALA:541:CB:9864, V-B:TYR:539:CE1:9847, V-A:ILE:369:CG2:3234, V-A:ILE:538:CG2:4861, V-A:ILE:369:CD1:3236, V-A:LEU:475:CD2:4256, V-A:TYR:539:CE1:4873, V-B:ASP:366:CG:8184, V-B:TYR:539:CD1:9845, V-A:TYR:539:CD1:4871, V-B:ASP:366:CB:8183, V-B:TYR:539:C:9839, V-A:ALA:541:CB:4890, V-B:TYR:539:CZ:9849, V-A:TYR:539:CZ:4875, V-B:TYR:531:CE1:9764, V-B:TYR:531:CZ:9766, V-B:ASN:370:CB:8216, H-A:TYR:531:OH:4793, H-B:TYR:539:OH:9850, V-B:ASP:366:CA:8181, V-A:MET:535:CE:4833, V-A:TYR:539:CG:4870, V-A:PRO:482:CB:4323, V-A:TYR:539:CE2:4874, V-A:TYR:539:CD2:4872, V-A:PRO:482:CG:4324, V-A:ILE:538:CA:4858, V-B:ASP:366:C:8179, V-A:LEU:373:CD1:3277, V-A:SER:385:CA:3404, V-A:SER:385:CB:3406, V-A:SER:385:C:3402, V-A:ILE:538:C:4856"]

$$$$
RR6_Rahimova_2017
     RDKit          3D

 63 66  0  0  0  0  0  0  0  0999 V2000
  130.6020  125.7060   66.4100 C   0  0  0  0  0  0  0  0  0  0  0  0
  131.9460  125.7580   65.9530 O   0  0  0  0  0  0  0  0  0  0  0  0
  132.2770  125.3320   64.7060 C   0  0  0  0  0  0  0  0  0  0  0  0
  133.4150  124.9670   64.3920 O   0  0  0  0  0  0  0  0  0  0  0  0
  131.1220  125.3470   63.7470 C   0  0  0  0  0  0  0  0  0  0  0  0
  130.5950  126.5430   63.2370 C   0  0  0  0  0  0  0  0  0  0  0  0
  129.5180  126.5240   62.3540 C   0  0  0  0  0  0  0  0  0  0  0  0
  128.9440  125.3030   61.9700 C   0  0  0  0  0  0  0  0  0  0  0  0
  127.8380  125.1710   61.1090 N   0  0  0  0  0  0  0  0  0  0  0  0
  127.1480  124.0620   60.7660 C   0  0  0  0  0  0  0  0  0  0  0  0
  127.3750  122.9240   61.1770 O   0  0  0  0  0  0  0  0  0  0  0  0
  126.0380  124.2670   59.7300 C   0  0  0  0  0  0  0  0  0  0  0  0
  126.6460  124.8230   58.1030 S   0  0  0  0  0  0  0  0  0  0  0  0
  128.1920  125.6580   58.3910 C   0  0  0  0  0  0  0  0  0  0  0  0
  129.1520  124.8780   58.9430 N   0  0  0  0  0  0  0  0  0  0  0  0
  130.3840  125.3950   59.1820 C   0  0  0  0  0  0  0  0  0  0  0  0
  131.4080  124.4500   59.7370 C   0  0  0  0  0  0  0  0  0  0  0  0
  132.7580  124.8230   59.8370 C   0  0  0  0  0  0  0  0  0  0  0  0
  133.7100  123.9410   60.3400 C   0  0  0  0  0  0  0  0  0  0  0  0
  133.3280  122.6670   60.7590 C   0  0  0  0  0  0  0  0  0  0  0  0
  134.3710  121.7050   61.2980 C   0  0  0  0  0  0  0  0  0  0  0  0
  131.9940  122.2780   60.6700 C   0  0  0  0  0  0  0  0  0  0  0  0
  131.0460  123.1630   60.1680 C   0  0  0  0  0  0  0  0  0  0  0  0
  130.6710  126.7300   58.8780 C   0  0  0  0  0  0  0  0  0  0  0  0
  129.6920  127.5590   58.3100 C   0  0  0  0  0  0  0  0  0  0  0  0
  130.0720  128.9680   57.9930 C   0  0  0  0  0  0  0  0  0  0  0  0
  129.9150  129.4620   56.6950 C   0  0  0  0  0  0  0  0  0  0  0  0
  130.2520  130.7800   56.3940 C   0  0  0  0  0  0  0  0  0  0  0  0
  130.7450  131.6280   57.3840 C   0  0  0  0  0  0  0  0  0  0  0  0
  131.0500  132.9180   56.9950 O   0  0  0  0  0  0  0  0  0  0  0  0
  132.3690  133.2150   56.5510 C   0  0  0  0  0  0  0  0  0  0  0  0
  130.8990  131.1380   58.6900 C   0  0  0  0  0  0  0  0  0  0  0  0
  130.5610  129.8210   58.9870 C   0  0  0  0  0  0  0  0  0  0  0  0
  128.4090  127.0120   58.0620 C   0  0  0  0  0  0  0  0  0  0  0  0
  127.3310  127.8300   57.4980 C   0  0  0  0  0  0  0  0  0  0  0  0
  126.4820  128.4760   57.0500 N   0  0  0  0  0  0  0  0  0  0  0  0
  129.4760  124.1110   62.4620 C   0  0  0  0  0  0  0  0  0  0  0  0
  130.5510  124.1320   63.3470 C   0  0  0  0  0  0  0  0  0  0  0  0
  130.5885  125.7055   67.5099 H   0  0  0  0  0  0  0  0  0  0  0  0
  130.0537  126.5836   66.0370 H   0  0  0  0  0  0  0  0  0  0  0  0
  130.1231  124.7887   66.0370 H   0  0  0  0  0  0  0  0  0  0  0  0
  131.0365  127.5047   63.5373 H   0  0  0  0  0  0  0  0  0  0  0  0
  129.1168  127.4682   61.9570 H   0  0  0  0  0  0  0  0  0  0  0  0
  127.5870  126.0190   60.6220 H   0  0  0  0  0  0  0  0  0  0  0  0
  125.5086  123.3123   59.5950 H   0  0  0  0  0  0  0  0  0  0  0  0
  125.3813  125.0607   60.1158 H   0  0  0  0  0  0  0  0  0  0  0  0
  133.0679  125.8275   59.5129 H   0  0  0  0  0  0  0  0  0  0  0  0
  134.7639  124.2490   60.4070 H   0  0  0  0  0  0  0  0  0  0  0  0
  134.3522  121.7223   62.3977 H   0  0  0  0  0  0  0  0  0  0  0  0
  134.1494  120.6876   60.9435 H   0  0  0  0  0  0  0  0  0  0  0  0
  135.3673  122.0080   60.9435 H   0  0  0  0  0  0  0  0  0  0  0  0
  131.6905  121.2723   60.9962 H   0  0  0  0  0  0  0  0  0  0  0  0
  129.9934  122.8495   60.1073 H   0  0  0  0  0  0  0  0  0  0  0  0
  131.6730  127.1333   59.0861 H   0  0  0  0  0  0  0  0  0  0  0  0
  129.5223  128.8051   55.9049 H   0  0  0  0  0  0  0  0  0  0  0  0
  130.1280  131.1541   55.3670 H   0  0  0  0  0  0  0  0  0  0  0  0
  133.0245  133.3626   57.4219 H   0  0  0  0  0  0  0  0  0  0  0  0
  132.7483  132.3798   55.9439 H   0  0  0  0  0  0  0  0  0  0  0  0
  132.3537  134.1322   55.9439 H   0  0  0  0  0  0  0  0  0  0  0  0
  131.2878  131.7964   59.4808 H   0  0  0  0  0  0  0  0  0  0  0  0
  130.6798  129.4472   60.0147 H   0  0  0  0  0  0  0  0  0  0  0  0
  129.0439  123.1490   62.1491 H   0  0  0  0  0  0  0  0  0  0  0  0
  130.9555  123.1857   63.7356 H   0  0  0  0  0  0  0  0  0  0  0  0
  1  2  1  0
  2  3  1  0
  3  4  2  0
  3  5  1  0
  5  6  2  0
  6  7  1  0
  7  8  2  0
  8  9  1  0
  9 10  1  0
 10 11  2  0
 10 12  1  0
 12 13  1  0
 13 14  1  0
 14 15  2  0
 15 16  1  0
 16 17  1  0
 17 18  2  0
 18 19  1  0
 19 20  2  0
 20 21  1  0
 20 22  1  0
 22 23  2  0
 16 24  2  0
 24 25  1  0
 25 26  1  0
 26 27  2  0
 27 28  1  0
 28 29  2  0
 29 30  1  0
 30 31  1  0
 29 32  1  0
 32 33  2  0
 25 34  2  0
 34 35  1  0
 35 36  3  0
  8 37  1  0
 37 38  2  0
 38  5  1  0
 34 14  1  0
 23 17  1  0
 33 26  1  0
  1 39  1  0
  1 40  1  0
  1 41  1  0
  6 42  1  0
  7 43  1  0
  9 44  1  0
 12 45  1  0
 12 46  1  0
 18 47  1  0
 19 48  1  0
 21 49  1  0
 21 50  1  0
 21 51  1  0
 22 52  1  0
 23 53  1  0
 24 54  1  0
 27 55  1  0
 28 56  1  0
 31 57  1  0
 31 58  1  0
 31 59  1  0
 32 60  1  0
 33 61  1  0
 37 62  1  0
 38 63  1  0
M  END
>  <Binding energies>  (1) 
[-7.66]

>  <Ligand effiencies>  (1) 
[-0.19641025641025642]

>  <Interactions>  (1) 
["V-A:PRO:540:CA:4881, V-A:ARG:545:CZ:4924, H-A:ARG:545:NE:4922, V-A:ILE:538:CB:4860, V-B:TYR:539:CE1:9847, V-A:ILE:369:CG2:3234, V-A:PRO:540:CD:4885, V-A:ILE:538:CG2:4861, V-A:PRO:540:CB:4883, V-A:ILE:369:CD1:3236, H-A:GLY:454:N:4047, H-A:TYR:484:OH:4345, V-A:PRO:540:N:4882, V-A:ASP:366:CG:3210, V-A:LEU:363:CD1:3186, V-B:PRO:540:CA:9855, V-B:TYR:539:CD1:9845, H-B:TYR:531:OH:9767, V-B:GLU:543:CD:9880, V-B:GLU:543:CG:9879, V-B:GLU:543:CB:9878, V-A:HIS:456:CE1:4066, V-A:GLU:543:CD:4906, H-B:ALA:541:N:9863, V-A:ILE:369:CB:3233, H-A:TYR:539:N:4868, H-B:ASP:366:OD2:8186, V-A:MET:535:CE:4833, V-A:ILE:369:CG1:3235, V-A:ILE:538:CA:4858, V-A:SER:385:C:3402, V-A:PRO:540:CG:4884"]

$$$$
RR7_Rahimova_2017
     RDKit          3D

 80 86  0  0  0  0  0  0  0  0999 V2000
  130.7470  125.1440   62.3230 C   0  0  0  0  0  0  0  0  0  0  0  0
  130.7680  125.3610   60.9160 O   0  0  0  0  0  0  0  0  0  0  0  0
  130.4420  126.6100   60.4230 C   0  0  0  0  0  0  0  0  0  0  0  0
  131.0420  126.9810   59.2210 C   0  0  0  0  0  0  0  0  0  0  0  0
  130.7710  128.2180   58.6440 C   0  0  0  0  0  0  0  0  0  0  0  0
  129.8980  129.1220   59.2660 C   0  0  0  0  0  0  0  0  0  0  0  0
  129.5490  130.5020   58.6270 C   0  0  0  0  0  0  0  0  0  0  0  0
  128.5520  130.2410   57.6140 O   0  0  0  0  0  0  0  0  0  0  0  0
  128.6610  129.0820   56.7820 C   0  0  0  0  0  0  0  0  0  0  0  0
  127.2810  128.4140   56.6700 C   0  0  1  0  0  0  0  0  0  0  0  0
  127.5010  127.0060   56.6970 O   0  0  0  0  0  0  0  0  0  0  0  0
  126.8280  126.3910   57.7570 C   0  0  1  0  0  0  0  0  0  0  0  0
  127.5910  125.2580   58.2440 N   0  0  0  0  0  0  0  0  0  0  0  0
  128.5580  124.5310   57.5730 C   0  0  0  0  0  0  0  0  0  0  0  0
  129.0610  123.5190   58.2360 N   0  0  0  0  0  0  0  0  0  0  0  0
  128.3660  123.5250   59.4150 C   0  0  0  0  0  0  0  0  0  0  0  0
  128.4220  122.6870   60.5470 C   0  0  0  0  0  0  0  0  0  0  0  0
  129.3480  121.6270   60.5570 N   0  0  0  0  0  0  0  0  0  0  0  0
  130.4040  121.4260   61.3800 C   0  0  0  0  0  0  0  0  0  0  0  0
  130.7380  122.1970   62.2830 O   0  0  0  0  0  0  0  0  0  0  0  0
  131.2130  120.1740   61.1140 C   0  0  0  0  0  0  0  0  0  0  0  0
  132.5840  120.2800   60.8350 C   0  0  0  0  0  0  0  0  0  0  0  0
  133.3470  119.1410   60.5930 C   0  0  0  0  0  0  0  0  0  0  0  0
  132.7480  117.8870   60.6320 C   0  0  0  0  0  0  0  0  0  0  0  0
  131.3900  117.7600   60.9110 C   0  0  0  0  0  0  0  0  0  0  0  0
  130.6240  118.8980   61.1520 C   0  0  0  0  0  0  0  0  0  0  0  0
  127.5780  122.9240   61.5950 N   0  0  0  0  0  0  0  0  0  0  0  0
  126.7150  123.9690   61.4910 C   0  0  0  0  0  0  0  0  0  0  0  0
  126.5800  124.8380   60.4530 N   0  0  0  0  0  0  0  0  0  0  0  0
  127.4250  124.5850   59.4440 C   0  0  0  0  0  0  0  0  0  0  0  0
  126.5950  127.4970   58.7800 C   0  0  0  0  0  0  0  0  0  0  0  0
  126.3370  128.6720   57.8530 C   0  0  2  0  0  0  0  0  0  0  0  0
  124.9780  128.7470   57.4550 O   0  0  0  0  0  0  0  0  0  0  0  0
  128.9130  131.4830   59.6480 C   0  0  0  0  0  0  0  0  0  0  0  0
  127.5200  131.5160   59.8240 C   0  0  0  0  0  0  0  0  0  0  0  0
  126.9370  132.4000   60.7260 C   0  0  0  0  0  0  0  0  0  0  0  0
  127.7420  133.2630   61.4620 C   0  0  0  0  0  0  0  0  0  0  0  0
  129.1250  133.2480   61.3040 C   0  0  0  0  0  0  0  0  0  0  0  0
  129.7070  132.3640   60.4000 C   0  0  0  0  0  0  0  0  0  0  0  0
  130.7410  131.2750   57.9930 C   0  0  0  0  0  0  0  0  0  0  0  0
  130.5270  132.1590   56.9240 C   0  0  0  0  0  0  0  0  0  0  0  0
  131.5880  132.8480   56.3450 C   0  0  0  0  0  0  0  0  0  0  0  0
  132.8800  132.6520   56.8240 C   0  0  0  0  0  0  0  0  0  0  0  0
  133.1180  131.7700   57.8740 C   0  0  0  0  0  0  0  0  0  0  0  0
  132.0550  131.0830   58.4520 C   0  0  0  0  0  0  0  0  0  0  0  0
  129.2860  128.7380   60.4690 C   0  0  0  0  0  0  0  0  0  0  0  0
  129.5570  127.5010   61.0450 C   0  0  0  0  0  0  0  0  0  0  0  0
  130.8403  126.1082   62.8441 H   0  0  0  0  0  0  0  0  0  0  0  0
  129.7983  124.6646   62.6059 H   0  0  0  0  0  0  0  0  0  0  0  0
  131.5862  124.4916   62.6059 H   0  0  0  0  0  0  0  0  0  0  0  0
  131.7370  126.2888   58.7232 H   0  0  0  0  0  0  0  0  0  0  0  0
  131.2466  128.4895   57.6900 H   0  0  0  0  0  0  0  0  0  0  0  0
  129.0097  129.3778   55.7816 H   0  0  0  0  0  0  0  0  0  0  0  0
  129.3809  128.3758   57.2214 H   0  0  0  0  0  0  0  0  0  0  0  0
  126.8189  128.8212   55.7586 H   0  0  0  0  0  0  0  0  0  0  0  0
  125.8582  125.9552   57.4748 H   0  0  0  0  0  0  0  0  0  0  0  0
  128.8823  124.7851   56.5531 H   0  0  0  0  0  0  0  0  0  0  0  0
  129.1930  120.9290   59.8440 H   0  0  0  0  0  0  0  0  0  0  0  0
  133.0599  121.2713   60.8073 H   0  0  0  0  0  0  0  0  0  0  0  0
  134.4206  119.2329   60.3716 H   0  0  0  0  0  0  0  0  0  0  0  0
  133.3520  116.9878   60.4408 H   0  0  0  0  0  0  0  0  0  0  0  0
  130.9235  116.7642   60.9410 H   0  0  0  0  0  0  0  0  0  0  0  0
  129.5512  118.7977   61.3735 H   0  0  0  0  0  0  0  0  0  0  0  0
  126.0457  124.1315   62.3487 H   0  0  0  0  0  0  0  0  0  0  0  0
  125.7255  127.2840   59.4191 H   0  0  0  0  0  0  0  0  0  0  0  0
  127.4184  127.6454   59.4941 H   0  0  0  0  0  0  0  0  0  0  0  0
  126.5266  129.6427   58.3344 H   0  0  0  0  0  0  0  0  0  0  0  0
  124.6340  127.8540   57.3720 H   0  0  0  0  0  0  0  0  0  0  0  0
  126.8824  130.8346   59.2416 H   0  0  0  0  0  0  0  0  0  0  0  0
  125.8449  132.4164   60.8565 H   0  0  0  0  0  0  0  0  0  0  0  0
  127.2820  133.9632   62.1748 H   0  0  0  0  0  0  0  0  0  0  0  0
  129.7553  133.9320   61.8912 H   0  0  0  0  0  0  0  0  0  0  0  0
  130.7997  132.3554   60.2734 H   0  0  0  0  0  0  0  0  0  0  0  0
  129.5075  132.3090   56.5391 H   0  0  0  0  0  0  0  0  0  0  0  0
  131.4067  133.5441   55.5128 H   0  0  0  0  0  0  0  0  0  0  0  0
  133.7194  133.1984   56.3692 H   0  0  0  0  0  0  0  0  0  0  0  0
  134.1420  131.6167   58.2453 H   0  0  0  0  0  0  0  0  0  0  0  0
  132.2455  130.3816   59.2777 H   0  0  0  0  0  0  0  0  0  0  0  0
  128.5826  129.4243   60.9632 H   0  0  0  0  0  0  0  0  0  0  0  0
  129.0744  127.2210   61.9930 H   0  0  0  0  0  0  0  0  0  0  0  0
  1  2  1  0
  2  3  1  0
  3  4  2  0
  4  5  1  0
  5  6  2  0
  6  7  1  0
  7  8  1  0
  8  9  1  0
  9 10  1  0
 10 11  1  0
 11 12  1  0
 12 13  1  0
 13 14  1  0
 14 15  2  0
 15 16  1  0
 16 17  2  0
 17 18  1  0
 18 19  1  0
 19 20  2  0
 19 21  1  0
 21 22  2  0
 22 23  1  0
 23 24  2  0
 24 25  1  0
 25 26  2  0
 17 27  1  0
 27 28  2  0
 28 29  1  0
 29 30  2  0
 12 31  1  0
 31 32  1  0
 32 33  1  0
  7 34  1  0
 34 35  2  0
 35 36  1  0
 36 37  2  0
 37 38  1  0
 38 39  2  0
  7 40  1  0
 40 41  2  0
 41 42  1  0
 42 43  2  0
 43 44  1  0
 44 45  2  0
  6 46  1  0
 46 47  2  0
 47  3  1  0
 32 10  1  0
 39 34  1  0
 45 40  1  0
 30 13  1  0
 30 16  1  0
 26 21  1  0
  1 48  1  0
  1 49  1  0
  1 50  1  0
  4 51  1  0
  5 52  1  0
  9 53  1  0
  9 54  1  0
 10 55  1  6
 12 56  1  6
 14 57  1  0
 18 58  1  0
 22 59  1  0
 23 60  1  0
 24 61  1  0
 25 62  1  0
 26 63  1  0
 28 64  1  0
 31 65  1  0
 31 66  1  0
 32 67  1  1
 33 68  1  0
 35 69  1  0
 36 70  1  0
 37 71  1  0
 38 72  1  0
 39 73  1  0
 41 74  1  0
 42 75  1  0
 43 76  1  0
 44 77  1  0
 45 78  1  0
 46 79  1  0
 47 80  1  0
M  END
>  <Binding energies>  (1) 
[-10.56]

>  <Ligand effiencies>  (1) 
[-0.21551020408163266]

>  <Interactions>  (1) 
["V-A:PRO:540:CA:4881, V-A:ILE:538:CB:4860, V-B:ALA:541:CB:9864, V-B:TYR:539:CE1:9847, V-A:ILE:369:CG2:3234, V-A:PRO:540:CD:4885, V-A:ILE:538:CG2:4861, V-A:PRO:540:CB:4883, V-A:LEU:363:CA:3182, V-A:PRO:540:N:4882, V-A:ASP:366:CG:3210, V-A:LEU:475:CD2:4256, V-A:LEU:363:CD1:3186, V-A:TYR:539:CE1:4873, V-B:PRO:540:CA:9855, V-B:ASP:366:CG:8184, V-B:TYR:539:CD1:9845, V-A:TYR:539:CD1:4871, V-B:ASP:366:CB:8183, H-B:TYR:531:OH:9767, V-B:TYR:539:C:9839, V-A:ALA:541:CB:4890, V-A:ALA:541:CA:4888, H-B:ALA:541:N:9863, V-A:PRO:540:C:4879, V-A:TYR:539:C:4865, H-B:ASP:366:OD2:8186, V-A:MET:535:CE:4833, V-A:PRO:482:CB:4323, V-A:PRO:482:CG:4324, H-B:TYR:539:O:9840, V-A:ILE:538:CA:4858, V-A:LEU:373:CD1:3277, V-A:SER:385:CA:3404, V-A:SER:385:CB:3406, V-A:PRO:540:CG:4884"]

$$$$
RR8_A_Rahimova_2017
     RDKit          3D

 73 77  0  0  0  0  0  0  0  0999 V2000
  128.2800  122.6810   61.2420 O   0  0  0  0  0  0  0  0  0  0  0  0
  128.6960  123.8350   61.3910 C   0  0  0  0  0  0  0  0  0  0  0  0
  128.2180  124.9230   60.7120 O   0  0  0  0  0  0  0  0  0  0  0  0
  128.8670  125.2830   59.5240 C   0  0  1  0  0  0  0  0  0  0  0  0
  129.7100  126.3820   59.7090 O   0  0  0  0  0  0  0  0  0  0  0  0
  130.9160  126.2580   58.9600 C   0  0  2  0  0  0  0  0  0  0  0  0
  131.0650  127.4980   58.0610 C   0  0  0  0  0  0  0  0  0  0  0  0
  130.8470  128.6620   58.8460 O   0  0  0  0  0  0  0  0  0  0  0  0
  130.0360  129.6430   58.2130 C   0  0  0  0  0  0  0  0  0  0  0  0
  130.9140  130.7360   57.6230 C   0  0  0  0  0  0  0  0  0  0  0  0
  132.3000  130.6830   57.7910 C   0  0  0  0  0  0  0  0  0  0  0  0
  133.1070  131.6790   57.2470 C   0  0  0  0  0  0  0  0  0  0  0  0
  132.5260  132.7250   56.5330 C   0  0  0  0  0  0  0  0  0  0  0  0
  131.1450  132.7830   56.3560 C   0  0  0  0  0  0  0  0  0  0  0  0
  130.3390  131.7860   56.8990 C   0  0  0  0  0  0  0  0  0  0  0  0
  130.7510  124.9230   58.2220 C   0  0  1  0  0  0  0  0  0  0  0  0
  131.9600  124.1720   58.1440 O   0  0  0  0  0  0  0  0  0  0  0  0
  133.0520  124.6800   58.9030 C   0  0  0  0  0  0  0  0  0  0  0  0
  133.3320  123.7640   60.0860 C   0  0  0  0  0  0  0  0  0  0  0  0
  134.0770  124.2400   61.1700 C   0  0  0  0  0  0  0  0  0  0  0  0
  134.3460  123.4050   62.2510 C   0  0  0  0  0  0  0  0  0  0  0  0
  133.8720  122.0940   62.2460 C   0  0  0  0  0  0  0  0  0  0  0  0
  133.1350  121.6100   61.1680 C   0  0  0  0  0  0  0  0  0  0  0  0
  132.8680  122.4440   60.0850 C   0  0  0  0  0  0  0  0  0  0  0  0
  129.7940  124.1480   59.1090 C   0  0  2  0  0  0  0  0  0  0  0  0
  129.1440  123.1190   58.3690 O   0  0  0  0  0  0  0  0  0  0  0  0
  128.6140  123.5080   57.1060 C   0  0  0  0  0  0  0  0  0  0  0  0
  127.0940  123.4880   57.1540 C   0  0  0  0  0  0  0  0  0  0  0  0
  126.3950  124.5460   57.7450 C   0  0  0  0  0  0  0  0  0  0  0  0
  125.0030  124.5280   57.7780 C   0  0  0  0  0  0  0  0  0  0  0  0
  124.3130  123.4550   57.2170 C   0  0  0  0  0  0  0  0  0  0  0  0
  125.0020  122.4000   56.6220 C   0  0  0  0  0  0  0  0  0  0  0  0
  126.3940  122.4170   56.5890 C   0  0  0  0  0  0  0  0  0  0  0  0
  129.7860  124.1910   62.3600 C   0  0  0  0  0  0  0  0  0  0  0  0
  130.4220  123.2210   63.1510 C   0  0  0  0  0  0  0  0  0  0  0  0
  131.4290  123.5830   64.0410 C   0  0  0  0  0  0  0  0  0  0  0  0
  131.8260  124.9210   64.1650 C   0  0  0  0  0  0  0  0  0  0  0  0
  132.9010  125.3050   65.1120 N   0  0  0  0  0  0  0  0  0  0  0  0
  134.0530  125.3810   64.6960 O   0  0  0  0  0  0  0  0  0  0  0  0
  132.6000  125.5350   66.2810 O   0  0  0  0  0  0  0  0  0  0  0  0
  131.1900  125.8880   63.3770 C   0  0  0  0  0  0  0  0  0  0  0  0
  130.1830  125.5280   62.4860 C   0  0  0  0  0  0  0  0  0  0  0  0
  128.0848  125.5084   58.7842 H   0  0  0  0  0  0  0  0  0  0  0  0
  131.8466  126.2333   59.5460 H   0  0  0  0  0  0  0  0  0  0  0  0
  132.0781  127.5250   57.6334 H   0  0  0  0  0  0  0  0  0  0  0  0
  130.3311  127.4565   57.2426 H   0  0  0  0  0  0  0  0  0  0  0  0
  129.4518  129.1706   57.4095 H   0  0  0  0  0  0  0  0  0  0  0  0
  129.3556  130.0854   58.9555 H   0  0  0  0  0  0  0  0  0  0  0  0
  132.7541  129.8539   58.3534 H   0  0  0  0  0  0  0  0  0  0  0  0
  134.1982  131.6402   57.3804 H   0  0  0  0  0  0  0  0  0  0  0  0
  133.1636  133.5126   56.1049 H   0  0  0  0  0  0  0  0  0  0  0  0
  130.6942  133.6118   55.7905 H   0  0  0  0  0  0  0  0  0  0  0  0
  129.2487  131.8239   56.7586 H   0  0  0  0  0  0  0  0  0  0  0  0
  130.4183  125.0943   57.1876 H   0  0  0  0  0  0  0  0  0  0  0  0
  133.9460  124.7344   58.2643 H   0  0  0  0  0  0  0  0  0  0  0  0
  132.7985  125.6838   59.2746 H   0  0  0  0  0  0  0  0  0  0  0  0
  134.4505  125.2746   61.1683 H   0  0  0  0  0  0  0  0  0  0  0  0
  134.9300  123.7780   63.1053 H   0  0  0  0  0  0  0  0  0  0  0  0
  134.0821  121.4355   63.1017 H   0  0  0  0  0  0  0  0  0  0  0  0
  132.7655  120.5739   61.1719 H   0  0  0  0  0  0  0  0  0  0  0  0
  132.2919  122.0646   59.2282 H   0  0  0  0  0  0  0  0  0  0  0  0
  130.2368  123.6043   59.9565 H   0  0  0  0  0  0  0  0  0  0  0  0
  128.9579  124.5243   56.8636 H   0  0  0  0  0  0  0  0  0  0  0  0
  128.9612  122.8041   56.3353 H   0  0  0  0  0  0  0  0  0  0  0  0
  126.9448  125.3918   58.1835 H   0  0  0  0  0  0  0  0  0  0  0  0
  124.4506  125.3569   58.2447 H   0  0  0  0  0  0  0  0  0  0  0  0
  123.2134  123.4407   57.2442 H   0  0  0  0  0  0  0  0  0  0  0  0
  124.4490  121.5578   56.1805 H   0  0  0  0  0  0  0  0  0  0  0  0
  126.9431  121.5881   56.1185 H   0  0  0  0  0  0  0  0  0  0  0  0
  130.1219  122.1661   63.0667 H   0  0  0  0  0  0  0  0  0  0  0  0
  131.9181  122.8110   64.6532 H   0  0  0  0  0  0  0  0  0  0  0  0
  131.4892  126.9430   63.4629 H   0  0  0  0  0  0  0  0  0  0  0  0
  129.6943  126.3012   61.8750 H   0  0  0  0  0  0  0  0  0  0  0  0
  1  2  2  0
  2  3  1  0
  3  4  1  0
  4  5  1  0
  5  6  1  0
  6  7  1  0
  7  8  1  0
  8  9  1  0
  9 10  1  0
 10 11  2  0
 11 12  1  0
 12 13  2  0
 13 14  1  0
 14 15  2  0
  6 16  1  0
 16 17  1  0
 17 18  1  0
 18 19  1  0
 19 20  2  0
 20 21  1  0
 21 22  2  0
 22 23  1  0
 23 24  2  0
 16 25  1  0
 25 26  1  0
 26 27  1  0
 27 28  1  0
 28 29  2  0
 29 30  1  0
 30 31  2  0
 31 32  1  0
 32 33  2  0
  2 34  1  0
 34 35  2  0
 35 36  1  0
 36 37  2  0
 37 38  1  0
 38 39  2  0
 38 40  1  0
 37 41  1  0
 41 42  2  0
 25  4  1  0
 33 28  1  0
 42 34  1  0
 15 10  1  0
 24 19  1  0
  4 43  1  6
  6 44  1  1
  7 45  1  0
  7 46  1  0
  9 47  1  0
  9 48  1  0
 11 49  1  0
 12 50  1  0
 13 51  1  0
 14 52  1  0
 15 53  1  0
 16 54  1  6
 18 55  1  0
 18 56  1  0
 20 57  1  0
 21 58  1  0
 22 59  1  0
 23 60  1  0
 24 61  1  0
 25 62  1  1
 27 63  1  0
 27 64  1  0
 29 65  1  0
 30 66  1  0
 31 67  1  0
 32 68  1  0
 33 69  1  0
 35 70  1  0
 36 71  1  0
 41 72  1  0
 42 73  1  0
M  CHG  2  38   1  40  -1
M  END
>  <Binding energies>  (1) 
[-10.11]

>  <Ligand effiencies>  (1) 
[-0.24071428571428571]

>  <Interactions>  (1) 
["V-A:ARG:545:CZ:4924, V-A:TYR:531:CE2:4791, H-A:ARG:545:NE:4922, V-A:GLY:454:CA:4046, V-A:ILE:538:CB:4860, V-B:ALA:541:CB:9864, V-B:TYR:539:CE1:9847, V-A:ILE:369:CG2:3234, V-A:PRO:540:CD:4885, V-A:ILE:538:CG2:4861, V-A:PRO:540:CB:4883, V-A:ILE:369:CD1:3236, V-A:LEU:363:CA:3182, H-A:GLY:454:N:4047, H-A:TYR:484:OH:4345, V-A:PRO:540:N:4882, V-A:ASP:366:CG:3210, V-A:LEU:475:CD2:4256, V-A:LEU:363:CD1:3186, V-B:TYR:531:CE2:9765, V-A:GLY:453:C:4039, V-B:ILE:538:CA:9832, V-B:PRO:540:CA:9855, V-B:ILE:538:CG2:9835, V-B:ASP:366:CG:8184, V-B:PRO:540:CB:9857, H-A:ARG:545:NH2:4926, V-B:PRO:540:CD:9859, V-B:ILE:538:CB:9834, V-B:LEU:363:CD1:8160, V-B:TYR:539:CD1:9845, V-B:ASP:366:CB:8183, V-B:PRO:540:N:9856, V-B:TYR:539:C:9839, V-A:ASP:366:CA:3207, V-A:ASP:366:CB:3209, V-B:TYR:539:CZ:9849, H-B:ALA:541:N:9863, V-B:TYR:531:CZ:9766, V-B:PRO:540:CG:9858, H-B:TYR:539:OH:9850, V-B:ILE:538:C:9830, V-A:MET:535:CE:4833, H-A:ARG:545:NH1:4925, V-A:ARG:545:CD:4921, V-A:ILE:538:CA:4858, V-A:GLY:453:CA:4041, V-A:ILE:538:C:4856"]

$$$$
RR8_B_Rahimova_2017
     RDKit          3D

 73 77  0  0  0  0  0  0  0  0999 V2000
  128.9380  126.6640   56.4650 O   0  0  0  0  0  0  0  0  0  0  0  0
  128.2720  126.5550   57.5000 C   0  0  0  0  0  0  0  0  0  0  0  0
  128.2520  125.4390   58.2910 O   0  0  0  0  0  0  0  0  0  0  0  0
  129.1010  125.4050   59.4120 C   0  0  2  0  0  0  0  0  0  0  0  0
  130.0220  126.4590   59.4020 O   0  0  0  0  0  0  0  0  0  0  0  0
  131.2370  126.0840   58.7560 C   0  0  2  0  0  0  0  0  0  0  0  0
  131.5060  127.0350   57.5750 C   0  0  0  0  0  0  0  0  0  0  0  0
  130.5940  128.1250   57.6360 O   0  0  0  0  0  0  0  0  0  0  0  0
  131.0290  129.2240   58.4230 C   0  0  0  0  0  0  0  0  0  0  0  0
  130.3630  130.4950   57.9190 C   0  0  0  0  0  0  0  0  0  0  0  0
  129.2100  130.9720   58.5490 C   0  0  0  0  0  0  0  0  0  0  0  0
  128.5820  132.1220   58.0770 C   0  0  0  0  0  0  0  0  0  0  0  0
  129.1120  132.7930   56.9760 C   0  0  0  0  0  0  0  0  0  0  0  0
  130.2640  132.3270   56.3470 C   0  0  0  0  0  0  0  0  0  0  0  0
  130.8900  131.1750   56.8170 C   0  0  0  0  0  0  0  0  0  0  0  0
  131.0300  124.6110   58.3830 C   0  0  1  0  0  0  0  0  0  0  0  0
  132.2650  123.9010   58.5090 O   0  0  0  0  0  0  0  0  0  0  0  0
  133.2470  124.4530   59.3900 C   0  0  0  0  0  0  0  0  0  0  0  0
  133.1290  123.8990   60.8060 C   0  0  0  0  0  0  0  0  0  0  0  0
  132.8160  124.7520   61.8690 C   0  0  0  0  0  0  0  0  0  0  0  0
  132.6770  124.2380   63.1550 C   0  0  0  0  0  0  0  0  0  0  0  0
  132.8550  122.8730   63.3760 C   0  0  0  0  0  0  0  0  0  0  0  0
  133.1720  122.0180   62.3220 C   0  0  0  0  0  0  0  0  0  0  0  0
  133.3070  122.5320   61.0340 C   0  0  0  0  0  0  0  0  0  0  0  0
  129.9600  124.1420   59.3610 C   0  0  2  0  0  0  0  0  0  0  0  0
  129.2780  123.0030   58.8430 O   0  0  0  0  0  0  0  0  0  0  0  0
  128.0550  122.6750   59.4840 C   0  0  0  0  0  0  0  0  0  0  0  0
  126.9210  122.9430   58.5100 C   0  0  0  0  0  0  0  0  0  0  0  0
  126.9630  122.4170   57.2160 C   0  0  0  0  0  0  0  0  0  0  0  0
  125.9270  122.6850   56.3250 C   0  0  0  0  0  0  0  0  0  0  0  0
  124.8550  123.4760   56.7300 C   0  0  0  0  0  0  0  0  0  0  0  0
  124.8060  124.0030   58.0200 C   0  0  0  0  0  0  0  0  0  0  0  0
  125.8400  123.7350   58.9110 C   0  0  0  0  0  0  0  0  0  0  0  0
  127.3600  127.6340   58.0070 C   0  0  0  0  0  0  0  0  0  0  0  0
  126.7630  128.5640   57.1430 C   0  0  0  0  0  0  0  0  0  0  0  0
  125.9290  129.5580   57.6420 C   0  0  0  0  0  0  0  0  0  0  0  0
  125.6780  129.6560   59.0160 C   0  0  0  0  0  0  0  0  0  0  0  0
  124.8090  130.7340   59.5490 N   0  0  0  0  0  0  0  0  0  0  0  0
  123.8800  131.1380   58.8550 O   0  0  0  0  0  0  0  0  0  0  0  0
  125.0470  131.1810   60.6690 O   0  0  0  0  0  0  0  0  0  0  0  0
  126.2700  128.7230   59.8780 C   0  0  0  0  0  0  0  0  0  0  0  0
  127.0980  127.7240   59.3790 C   0  0  0  0  0  0  0  0  0  0  0  0
  128.4496  125.4570   60.2969 H   0  0  0  0  0  0  0  0  0  0  0  0
  132.1411  126.1731   59.3762 H   0  0  0  0  0  0  0  0  0  0  0  0
  132.5369  127.4139   57.6350 H   0  0  0  0  0  0  0  0  0  0  0  0
  131.3728  126.4939   56.6266 H   0  0  0  0  0  0  0  0  0  0  0  0
  130.7526  129.0559   59.4743 H   0  0  0  0  0  0  0  0  0  0  0  0
  132.1217  129.3240   58.3460 H   0  0  0  0  0  0  0  0  0  0  0  0
  128.7982  130.4386   59.4184 H   0  0  0  0  0  0  0  0  0  0  0  0
  127.6735  132.4985   58.5699 H   0  0  0  0  0  0  0  0  0  0  0  0
  128.6154  133.6997   56.6002 H   0  0  0  0  0  0  0  0  0  0  0  0
  130.6778  132.8667   55.4824 H   0  0  0  0  0  0  0  0  0  0  0  0
  131.7980  130.8006   56.3217 H   0  0  0  0  0  0  0  0  0  0  0  0
  130.7134  124.4440   57.3429 H   0  0  0  0  0  0  0  0  0  0  0  0
  134.2472  124.2149   58.9989 H   0  0  0  0  0  0  0  0  0  0  0  0
  133.0836  125.5397   59.4385 H   0  0  0  0  0  0  0  0  0  0  0  0
  132.6797  125.8286   61.6889 H   0  0  0  0  0  0  0  0  0  0  0  0
  132.4279  124.9056   63.9930 H   0  0  0  0  0  0  0  0  0  0  0  0
  132.7442  122.4668   64.3922 H   0  0  0  0  0  0  0  0  0  0  0  0
  133.3149  120.9430   62.5060 H   0  0  0  0  0  0  0  0  0  0  0  0
  133.5536  121.8620   60.1971 H   0  0  0  0  0  0  0  0  0  0  0  0
  130.3039  123.8016   60.3489 H   0  0  0  0  0  0  0  0  0  0  0  0
  128.0575  121.6126   59.7692 H   0  0  0  0  0  0  0  0  0  0  0  0
  127.9273  123.2829   60.3919 H   0  0  0  0  0  0  0  0  0  0  0  0
  127.8125  121.7927   56.9020 H   0  0  0  0  0  0  0  0  0  0  0  0
  125.9553  122.2735   55.3053 H   0  0  0  0  0  0  0  0  0  0  0  0
  124.0379  123.6874   56.0246 H   0  0  0  0  0  0  0  0  0  0  0  0
  123.9550  124.6267   58.3311 H   0  0  0  0  0  0  0  0  0  0  0  0
  125.8076  124.1459   59.9309 H   0  0  0  0  0  0  0  0  0  0  0  0
  126.9564  128.5063   56.0617 H   0  0  0  0  0  0  0  0  0  0  0  0
  125.4617  130.2746   56.9506 H   0  0  0  0  0  0  0  0  0  0  0  0
  126.0777  128.7817   60.9595 H   0  0  0  0  0  0  0  0  0  0  0  0
  127.5516  126.9973   60.0690 H   0  0  0  0  0  0  0  0  0  0  0  0
  1  2  2  0
  2  3  1  0
  3  4  1  0
  4  5  1  0
  5  6  1  0
  6  7  1  0
  7  8  1  0
  8  9  1  0
  9 10  1  0
 10 11  2  0
 11 12  1  0
 12 13  2  0
 13 14  1  0
 14 15  2  0
  6 16  1  0
 16 17  1  0
 17 18  1  0
 18 19  1  0
 19 20  2  0
 20 21  1  0
 21 22  2  0
 22 23  1  0
 23 24  2  0
 16 25  1  0
 25 26  1  0
 26 27  1  0
 27 28  1  0
 28 29  2  0
 29 30  1  0
 30 31  2  0
 31 32  1  0
 32 33  2  0
  2 34  1  0
 34 35  2  0
 35 36  1  0
 36 37  2  0
 37 38  1  0
 38 39  2  0
 38 40  1  0
 37 41  1  0
 41 42  2  0
 25  4  1  0
 33 28  1  0
 42 34  1  0
 15 10  1  0
 24 19  1  0
  4 43  1  1
  6 44  1  1
  7 45  1  0
  7 46  1  0
  9 47  1  0
  9 48  1  0
 11 49  1  0
 12 50  1  0
 13 51  1  0
 14 52  1  0
 15 53  1  0
 16 54  1  6
 18 55  1  0
 18 56  1  0
 20 57  1  0
 21 58  1  0
 22 59  1  0
 23 60  1  0
 24 61  1  0
 25 62  1  1
 27 63  1  0
 27 64  1  0
 29 65  1  0
 30 66  1  0
 31 67  1  0
 32 68  1  0
 33 69  1  0
 35 70  1  0
 36 71  1  0
 41 72  1  0
 42 73  1  0
M  CHG  2  38   1  40  -1
M  END
>  <Binding energies>  (1) 
[-8.9]

>  <Ligand effiencies>  (1) 
[-0.2119047619047619]

>  <Interactions>  (1) 
["V-A:GLY:454:CA:4046, V-B:TYR:539:CE1:9847, V-A:ILE:369:CG2:3234, V-A:ILE:369:CD1:3236, V-A:ASP:366:CG:3210, V-A:LEU:475:CD2:4256, V-A:TYR:539:CE1:4873, V-B:TYR:531:CE2:9765, V-B:ILE:538:CA:9832, V-B:PRO:540:CA:9855, V-B:ILE:538:CG2:9835, V-B:ASP:366:CG:8184, V-B:PRO:540:CB:9857, V-B:PRO:540:CD:9859, V-B:ILE:538:CB:9834, V-B:LEU:363:CD1:8160, V-B:TYR:539:CD1:9845, V-A:TYR:539:CD1:4871, V-B:ASP:366:CB:8183, V-B:PRO:540:N:9856, H-A:TYR:539:OH:4876, V-B:TYR:539:C:9839, V-A:ASP:366:CA:3207, V-A:ASP:366:CB:3209, V-B:TYR:539:CZ:9849, V-A:TYR:539:CZ:4875, V-B:TYR:531:CZ:9766, H-A:TYR:531:OH:4793, V-A:TYR:531:CZ:4792, V-A:TYR:539:C:4865, H-B:TYR:539:OH:9850, V-A:MET:535:CE:4833, V-A:TYR:539:CG:4870, V-A:TYR:539:CA:4867, V-A:TYR:539:CE2:4874, V-A:TYR:539:CD2:4872, V-B:TYR:539:CA:9841, V-A:ILE:538:CA:4858"]

$$$$
RR9_Rahimova_2017
     RDKit          3D

 64 68  0  0  0  0  0  0  0  0999 V2000
  124.2010  133.5620   62.0250 C   0  0  0  0  0  0  0  0  0  0  0  0
  123.8960  132.0810   61.7830 C   0  0  0  0  0  0  0  0  0  0  0  0
  124.3400  131.3320   62.9100 O   0  0  0  0  0  0  0  0  0  0  0  0
  125.2590  130.3160   62.7290 C   0  0  0  0  0  0  0  0  0  0  0  0
  125.9430  129.8840   63.8640 C   0  0  0  0  0  0  0  0  0  0  0  0
  126.8880  128.8680   63.7790 C   0  0  0  0  0  0  0  0  0  0  0  0
  127.1780  128.2520   62.5520 C   0  0  0  0  0  0  0  0  0  0  0  0
  128.2000  127.1580   62.4530 C   0  0  0  0  0  0  0  0  0  0  0  0
  128.1280  126.1720   61.4570 C   0  0  0  0  0  0  0  0  0  0  0  0
  129.0960  125.1560   61.3600 C   0  0  0  0  0  0  0  0  0  0  0  0
  129.0200  124.1890   60.2100 C   0  0  0  0  0  0  0  0  0  0  0  0
  128.8100  122.9940   60.4150 O   0  0  0  0  0  0  0  0  0  0  0  0
  129.2190  124.7180   58.9860 N   0  0  0  0  0  0  0  0  0  0  0  0
  129.3230  123.9660   57.7310 C   0  0  0  0  0  0  0  0  0  0  0  0
  128.3610  122.7570   57.6680 C   0  0  0  0  0  0  0  0  0  0  0  0
  126.8900  123.1220   57.5010 C   0  0  0  0  0  0  0  0  0  0  0  0
  126.0830  122.3970   56.6180 C   0  0  0  0  0  0  0  0  0  0  0  0
  124.7320  122.7110   56.4930 C   0  0  0  0  0  0  0  0  0  0  0  0
  124.1940  123.7500   57.2480 C   0  0  0  0  0  0  0  0  0  0  0  0
  124.9920  124.4800   58.1270 C   0  0  0  0  0  0  0  0  0  0  0  0
  126.3440  124.1660   58.2520 C   0  0  0  0  0  0  0  0  0  0  0  0
  130.1190  125.1690   62.3400 C   0  0  0  0  0  0  0  0  0  0  0  0
  131.2750  124.3890   62.7150 C   0  0  0  0  0  0  0  0  0  0  0  0
  131.7790  123.1050   62.1430 C   0  0  0  0  0  0  0  0  0  0  0  0
  130.9250  122.0040   62.0250 C   0  0  0  0  0  0  0  0  0  0  0  0
  131.4010  120.8030   61.5060 C   0  0  0  0  0  0  0  0  0  0  0  0
  132.7330  120.6990   61.1010 C   0  0  0  0  0  0  0  0  0  0  0  0
  133.2570  119.3840   60.5520 C   0  0  0  0  0  0  0  0  0  0  0  0
  133.5890  121.7950   61.2190 C   0  0  0  0  0  0  0  0  0  0  0  0
  133.1100  122.9960   61.7350 C   0  0  0  0  0  0  0  0  0  0  0  0
  131.9010  124.9500   63.7250 N   0  0  0  0  0  0  0  0  0  0  0  0
  131.2030  126.0350   64.0940 N   0  0  0  0  0  0  0  0  0  0  0  0
  130.0980  126.2140   63.2950 C   0  0  0  0  0  0  0  0  0  0  0  0
  129.1920  127.1860   63.3870 N   0  0  0  0  0  0  0  0  0  0  0  0
  126.4870  128.6920   61.4140 C   0  0  0  0  0  0  0  0  0  0  0  0
  125.5390  129.7090   61.4970 C   0  0  0  0  0  0  0  0  0  0  0  0
  124.2410  133.7561   63.1070 H   0  0  0  0  0  0  0  0  0  0  0  0
  125.1702  133.8157   61.5709 H   0  0  0  0  0  0  0  0  0  0  0  0
  123.4109  134.1780   61.5709 H   0  0  0  0  0  0  0  0  0  0  0  0
  122.8127  131.9432   61.6508 H   0  0  0  0  0  0  0  0  0  0  0  0
  124.4142  131.7355   60.8763 H   0  0  0  0  0  0  0  0  0  0  0  0
  125.7329  130.3519   64.8371 H   0  0  0  0  0  0  0  0  0  0  0  0
  127.4163  128.5421   64.6871 H   0  0  0  0  0  0  0  0  0  0  0  0
  127.2969  126.1941   60.7368 H   0  0  0  0  0  0  0  0  0  0  0  0
  129.2980  125.7210   58.9080 H   0  0  0  0  0  0  0  0  0  0  0  0
  129.0894  124.6434   56.8964 H   0  0  0  0  0  0  0  0  0  0  0  0
  130.3486  123.5734   57.6674 H   0  0  0  0  0  0  0  0  0  0  0  0
  128.6569  122.1276   56.8157 H   0  0  0  0  0  0  0  0  0  0  0  0
  128.4455  122.2416   58.6361 H   0  0  0  0  0  0  0  0  0  0  0  0
  126.5153  121.5793   56.0226 H   0  0  0  0  0  0  0  0  0  0  0  0
  124.0935  122.1414   55.8017 H   0  0  0  0  0  0  0  0  0  0  0  0
  123.1267  123.9975   57.1495 H   0  0  0  0  0  0  0  0  0  0  0  0
  124.5573  125.2992   58.7186 H   0  0  0  0  0  0  0  0  0  0  0  0
  126.9808  124.7397   58.9414 H   0  0  0  0  0  0  0  0  0  0  0  0
  129.8752  122.0870   62.3428 H   0  0  0  0  0  0  0  0  0  0  0  0
  130.7285  119.9373   61.4152 H   0  0  0  0  0  0  0  0  0  0  0  0
  133.5224  118.7181   61.3863 H   0  0  0  0  0  0  0  0  0  0  0  0
  132.4798  118.9081   59.9360 H   0  0  0  0  0  0  0  0  0  0  0  0
  134.1485  119.5731   59.9360 H   0  0  0  0  0  0  0  0  0  0  0  0
  134.6398  121.7100   60.9050 H   0  0  0  0  0  0  0  0  0  0  0  0
  133.7824  123.8622   61.8216 H   0  0  0  0  0  0  0  0  0  0  0  0
  131.5100  126.6060   64.8690 H   0  0  0  0  0  0  0  0  0  0  0  0
  126.6971  128.2264   60.4398 H   0  0  0  0  0  0  0  0  0  0  0  0
  125.0076  130.0373   60.5916 H   0  0  0  0  0  0  0  0  0  0  0  0
  1  2  1  0
  2  3  1  0
  3  4  1  0
  4  5  2  0
  5  6  1  0
  6  7  2  0
  7  8  1  0
  8  9  2  0
  9 10  1  0
 10 11  1  0
 11 12  2  0
 11 13  1  0
 13 14  1  0
 14 15  1  0
 15 16  1  0
 16 17  2  0
 17 18  1  0
 18 19  2  0
 19 20  1  0
 20 21  2  0
 10 22  2  0
 22 23  1  0
 23 24  1  0
 24 25  2  0
 25 26  1  0
 26 27  2  0
 27 28  1  0
 27 29  1  0
 29 30  2  0
 23 31  2  0
 31 32  1  0
 32 33  1  0
 33 34  2  0
  7 35  1  0
 35 36  2  0
 36  4  1  0
 34  8  1  0
 21 16  1  0
 33 22  1  0
 30 24  1  0
  1 37  1  0
  1 38  1  0
  1 39  1  0
  2 40  1  0
  2 41  1  0
  5 42  1  0
  6 43  1  0
  9 44  1  0
 13 45  1  0
 14 46  1  0
 14 47  1  0
 15 48  1  0
 15 49  1  0
 17 50  1  0
 18 51  1  0
 19 52  1  0
 20 53  1  0
 21 54  1  0
 25 55  1  0
 26 56  1  0
 28 57  1  0
 28 58  1  0
 28 59  1  0
 29 60  1  0
 30 61  1  0
 32 62  1  0
 35 63  1  0
 36 64  1  0
M  END
>  <Binding energies>  (1) 
[-8.57]

>  <Ligand effiencies>  (1) 
[-0.22552631578947369]

>  <Interactions>  (1) 
["V-A:ARG:545:CZ:4924, V-B:ALA:541:CB:9864, V-B:TYR:539:CE1:9847, V-A:ILE:369:CG2:3234, V-B:ILE:369:CG2:8208, V-B:ARG:545:CZ:9898, V-A:ILE:369:CD1:3236, V-B:ILE:369:CD1:8210, V-A:LEU:475:CD2:4256, V-B:TYR:531:CE2:9765, V-B:ILE:538:CA:9832, V-B:PRO:540:CA:9855, V-B:ILE:538:CG2:9835, V-B:ASP:366:CG:8184, V-B:PRO:540:CB:9857, V-B:PRO:540:CD:9859, V-B:LEU:475:CD2:9230, V-B:ILE:538:CB:9834, V-B:LEU:363:CD1:8160, V-B:TYR:539:CD1:9845, V-B:LEU:363:CA:8156, H-B:GLY:454:N:9021, V-B:ASP:366:CB:8183, V-B:PRO:540:N:9856, V-B:TYR:539:CG:9844, V-B:TYR:539:C:9839, V-B:GLU:543:CD:9880, H-A:GLU:543:OE2:4908, V-B:TYR:539:CZ:9849, V-B:TYR:531:CZ:9766, V-B:ILE:538:C:9830, V-A:LEU:373:CD1:3277, V-A:SER:385:CA:3404, V-A:SER:385:CB:3406"]

$$$$
