1a_Grossjean_2025
     RDKit          3D

 26 27  0  0  0  0  0  0  0  0999 V2000
  133.8040  124.1390   62.7290 C   0  0  0  0  0  0  0  0  0  0  0  0
  134.3650  122.9980   61.8760 C   0  0  0  0  0  0  0  0  0  0  0  0
  133.5670  121.8350   62.0570 O   0  0  0  0  0  0  0  0  0  0  0  0
  132.8720  121.2940   61.0220 C   0  0  0  0  0  0  0  0  0  0  0  0
  133.3510  120.4670   60.2400 O   0  0  0  0  0  0  0  0  0  0  0  0
  131.4680  121.8150   60.9140 C   0  0  0  0  0  0  0  0  0  0  0  0
  131.2610  123.1510   60.5460 C   0  0  0  0  0  0  0  0  0  0  0  0
  129.9720  123.6650   60.4410 C   0  0  0  0  0  0  0  0  0  0  0  0
  128.8650  122.8580   60.7030 C   0  0  0  0  0  0  0  0  0  0  0  0
  127.6090  123.4820   60.5700 N   0  0  0  0  0  0  0  0  0  0  0  0
  126.5180  123.4150   61.3620 C   0  0  0  0  0  0  0  0  0  0  0  0
  126.4260  122.7590   62.4000 O   0  0  0  0  0  0  0  0  0  0  0  0
  125.3160  124.2380   60.8920 C   0  0  0  0  0  0  0  0  0  0  0  0
  124.9860  124.0190   59.1180 S   0  0  0  0  0  0  0  0  0  0  0  0
  126.3560  124.7250   58.2290 C   0  0  0  0  0  0  0  0  0  0  0  0
  126.8070  125.8910   58.7560 N   0  0  0  0  0  0  0  0  0  0  0  0
  127.8460  126.5180   58.1540 C   0  0  0  0  0  0  0  0  0  0  0  0
  128.2870  127.8230   58.7900 C   0  0  0  0  0  0  0  0  0  0  0  0
  128.4770  126.0090   57.0210 C   0  0  0  0  0  0  0  0  0  0  0  0
  128.0330  124.7970   56.4830 C   0  0  0  0  0  0  0  0  0  0  0  0
  128.7500  124.2500   55.2500 C   0  0  0  0  0  0  0  0  0  0  0  0
  126.9520  124.1220   57.0960 C   0  0  0  0  0  0  0  0  0  0  0  0
  126.5020  122.8270   56.5790 C   0  0  0  0  0  0  0  0  0  0  0  0
  126.1480  121.8050   56.1690 N   0  0  0  0  0  0  0  0  0  0  0  0
  129.0620  121.5160   61.0650 C   0  0  0  0  0  0  0  0  0  0  0  0
  130.3520  121.0040   61.1690 C   0  0  0  0  0  0  0  0  0  0  0  0
  1  2  1  0
  2  3  1  0
  3  4  1  0
  4  5  2  0
  4  6  1  0
  6  7  2  0
  7  8  1  0
  8  9  2  0
  9 10  1  0
 10 11  1  0
 11 12  2  0
 11 13  1  0
 13 14  1  0
 14 15  1  0
 15 16  2  0
 16 17  1  0
 17 18  1  0
 17 19  2  0
 19 20  1  0
 20 21  1  0
 20 22  2  0
 22 23  1  0
 23 24  3  0
  9 25  1  0
 25 26  2  0
 26  6  1  0
 22 15  1  0
M  END
>  <Binding energies>  (1) 
[-7.22]

>  <Ligand effiencies>  (1) 
[-0.26740740740740737]

>  <Interactions>  (1) 
["V-B:TYR:539:CZ:9849, V-B:PRO:540:N:9856, V-B:TYR:539:CE1:9847, V-B:PRO:540:CB:9857, V-B:TYR:539:CD1:9845, V-B:PRO:540:CA:9855, V-B:TYR:539:CE2:9848, H-B:TYR:539:N:9842, V-B:MET:535:CE:9807, V-B:TYR:539:C:9839, V-B:PRO:540:C:9853, H-B:ALA:541:N:9863, V-B:TYR:539:CD2:9846, V-B:ALA:541:CB:9864, V-A:ILE:369:CD1:3239, V-A:ILE:369:CG2:3237, V-A:LEU:475:CD2:4259, V-A:GLY:454:CA:4049, H-A:SER:385:OG:3410"]

$$$$
1aa_Ghoteimi_2023
     RDKit          3D

 40 43  0  0  0  0  0  0  0  0999 V2000
  127.8740  132.3440   56.4330 C   0  0  0  0  0  0  0  0  0  0  0  0
  129.1590  133.0140   55.9380 C   0  0  0  0  0  0  0  0  0  0  0  0
  129.8690  133.5520   57.0470 O   0  0  0  0  0  0  0  0  0  0  0  0
  130.8960  132.8730   57.6180 C   0  0  0  0  0  0  0  0  0  0  0  0
  131.9870  132.6990   57.0660 O   0  0  0  0  0  0  0  0  0  0  0  0
  130.5750  132.3540   58.9900 C   0  0  0  0  0  0  0  0  0  0  0  0
  131.3360  131.3440   59.5980 C   0  0  0  0  0  0  0  0  0  0  0  0
  131.0140  130.8810   60.8720 C   0  0  0  0  0  0  0  0  0  0  0  0
  129.9220  131.4260   61.5640 C   0  0  0  0  0  0  0  0  0  0  0  0
  129.5040  131.0390   62.8500 N   0  0  0  0  0  0  0  0  0  0  0  0
  128.2630  130.8070   63.3360 C   0  0  0  0  0  0  0  0  0  0  0  0
  127.2240  130.8970   62.6820 O   0  0  0  0  0  0  0  0  0  0  0  0
  128.1500  130.3980   64.8130 C   0  0  0  0  0  0  0  0  0  0  0  0
  127.6390  129.0630   64.9260 O   0  0  0  0  0  0  0  0  0  0  0  0
  128.3640  128.0900   65.6000 C   0  0  0  0  0  0  0  0  0  0  0  0
  128.2960  128.0670   66.9600 N   0  0  0  0  0  0  0  0  0  0  0  0
  129.0020  127.1380   67.6570 C   0  0  0  0  0  0  0  0  0  0  0  0
  128.8720  127.1790   69.1520 C   0  0  0  0  0  0  0  0  0  0  0  0
  127.6620  126.8520   69.7810 C   0  0  0  0  0  0  0  0  0  0  0  0
  127.5390  126.8910   71.1670 C   0  0  0  0  0  0  0  0  0  0  0  0
  128.6190  127.2560   71.9670 C   0  0  0  0  0  0  0  0  0  0  0  0
  128.4040  127.2670   73.3320 O   0  0  0  0  0  0  0  0  0  0  0  0
  127.5450  128.2560   73.8910 C   0  0  0  0  0  0  0  0  0  0  0  0
  129.8370  127.5810   71.3540 C   0  0  0  0  0  0  0  0  0  0  0  0
  129.9580  127.5400   69.9680 C   0  0  0  0  0  0  0  0  0  0  0  0
  129.7850  126.1890   66.9890 C   0  0  0  0  0  0  0  0  0  0  0  0
  129.8630  126.1830   65.5890 C   0  0  0  0  0  0  0  0  0  0  0  0
  130.7070  125.1380   64.9360 C   0  0  0  0  0  0  0  0  0  0  0  0
  132.0570  125.3890   64.6700 C   0  0  0  0  0  0  0  0  0  0  0  0
  132.8520  124.4170   64.0710 C   0  0  0  0  0  0  0  0  0  0  0  0
  132.3190  123.1740   63.7310 C   0  0  0  0  0  0  0  0  0  0  0  0
  133.1820  122.2720   63.1400 O   0  0  0  0  0  0  0  0  0  0  0  0
  133.9820  122.6930   62.0410 C   0  0  0  0  0  0  0  0  0  0  0  0
  130.9670  122.9150   64.0040 C   0  0  0  0  0  0  0  0  0  0  0  0
  130.1730  123.8890   64.6030 C   0  0  0  0  0  0  0  0  0  0  0  0
  129.1390  127.1670   64.8770 C   0  0  0  0  0  0  0  0  0  0  0  0
  129.1940  127.2670   63.4180 C   0  0  0  0  0  0  0  0  0  0  0  0
  129.2360  127.3470   62.2640 N   0  0  0  0  0  0  0  0  0  0  0  0
  129.1620  132.4300   60.9600 C   0  0  0  0  0  0  0  0  0  0  0  0
  129.4840  132.8900   59.6870 C   0  0  0  0  0  0  0  0  0  0  0  0
  1  2  1  0
  2  3  1  0
  3  4  1  0
  4  5  2  0
  4  6  1  0
  6  7  2  0
  7  8  1  0
  8  9  2  0
  9 10  1  0
 10 11  1  0
 11 12  2  0
 11 13  1  0
 13 14  1  0
 14 15  1  0
 15 16  2  0
 16 17  1  0
 17 18  1  0
 18 19  2  0
 19 20  1  0
 20 21  2  0
 21 22  1  0
 22 23  1  0
 21 24  1  0
 24 25  2  0
 17 26  2  0
 26 27  1  0
 27 28  1  0
 28 29  2  0
 29 30  1  0
 30 31  2  0
 31 32  1  0
 32 33  1  0
 31 34  1  0
 34 35  2  0
 27 36  2  0
 36 37  1  0
 37 38  3  0
  9 39  1  0
 39 40  2  0
 40  6  1  0
 36 15  1  0
 25 18  1  0
 35 28  1  0
M  END
>  <Binding energies>  (2) 
[-9.48]

>  <Ligand effiencies>  (2) 
[-0.23121951219512196]

>  <Interactions>  (2) 
["V-A:PRO:540:CA:4883, V-A:PRO:540:CB:4885, V-A:PRO:540:CD:4887, V-A:PRO:540:N:4884, V-A:TYR:539:C:4867, H-A:TYR:539:N:4870, V-A:MET:535:CE:4835, V-A:ILE:369:CD1:3239, V-B:GLU:543:CG:9879, V-A:LEU:475:CD2:4259, V-B:GLU:543:CB:9878, V-A:GLU:543:CD:4908, V-A:GLY:454:CA:4049, V-A:ARG:545:CZ:4926, V-B:GLU:543:CD:9880, V-B:HIS:456:CE1:9041, V-B:GLY:544:C:9884, V-B:GLU:543:C:9874, V-B:HIS:456:CD2:9039, V-A:HIS:456:CE1:4070, V-A:GLU:543:CG:4907, V-B:HIS:456:CG:9037, V-B:GLY:544:CA:9886, H-B:LYS:547:NZ:9923, H-A:GLU:543:OE1:4909, H-B:TYR:484:OH:9319, V-A:TYR:539:CE1:4875, V-A:TYR:539:CZ:4877, H-A:GLY:454:N:4050, V-A:TYR:539:CD1:4873, V-A:ILE:538:CA:4860, V-A:TYR:539:CE2:4876, V-A:ILE:538:C:4858, V-A:ILE:538:CB:4862"]

$$$$
1b_Grossjean_2025
     RDKit          3D

 25 26  0  0  0  0  0  0  0  0999 V2000
  131.0220  126.8710   73.5720 C   0  0  0  0  0  0  0  0  0  0  0  0
  130.0530  127.9100   73.6180 O   0  0  0  0  0  0  0  0  0  0  0  0
  129.9610  128.8230   72.6180 C   0  0  0  0  0  0  0  0  0  0  0  0
  129.8710  130.0390   72.8120 O   0  0  0  0  0  0  0  0  0  0  0  0
  129.9860  128.2070   71.2480 C   0  0  0  0  0  0  0  0  0  0  0  0
  131.1370  128.2270   70.4460 C   0  0  0  0  0  0  0  0  0  0  0  0
  131.1260  127.6480   69.1810 C   0  0  0  0  0  0  0  0  0  0  0  0
  129.9720  127.0380   68.6900 C   0  0  0  0  0  0  0  0  0  0  0  0
  130.0760  126.4870   67.3990 N   0  0  0  0  0  0  0  0  0  0  0  0
  129.8720  125.2210   66.9730 C   0  0  0  0  0  0  0  0  0  0  0  0
  129.5330  124.2740   67.6820 O   0  0  0  0  0  0  0  0  0  0  0  0
  130.0790  124.9920   65.4750 C   0  0  0  0  0  0  0  0  0  0  0  0
  130.2460  123.2280   65.0680 S   0  0  0  0  0  0  0  0  0  0  0  0
  130.7870  123.1240   63.3750 C   0  0  0  0  0  0  0  0  0  0  0  0
  129.8920  122.5230   62.5510 N   0  0  0  0  0  0  0  0  0  0  0  0
  130.2020  122.3920   61.2400 C   0  0  0  0  0  0  0  0  0  0  0  0
  129.1470  121.7240   60.3770 C   0  0  0  0  0  0  0  0  0  0  0  0
  131.4070  122.8390   60.7040 C   0  0  0  0  0  0  0  0  0  0  0  0
  132.3460  123.4400   61.5490 C   0  0  0  0  0  0  0  0  0  0  0  0
  133.6670  123.9070   60.9420 C   0  0  0  0  0  0  0  0  0  0  0  0
  132.0450  123.5870   62.9220 C   0  0  0  0  0  0  0  0  0  0  0  0
  133.0300  124.1730   63.8350 C   0  0  0  0  0  0  0  0  0  0  0  0
  133.8100  124.6370   64.5530 N   0  0  0  0  0  0  0  0  0  0  0  0
  128.8170  127.0130   69.4860 C   0  0  0  0  0  0  0  0  0  0  0  0
  128.8290  127.5920   70.7520 C   0  0  0  0  0  0  0  0  0  0  0  0
  1  2  1  0
  2  3  1  0
  3  4  2  0
  3  5  1  0
  5  6  2  0
  6  7  1  0
  7  8  2  0
  8  9  1  0
  9 10  1  0
 10 11  2  0
 10 12  1  0
 12 13  1  0
 13 14  1  0
 14 15  2  0
 15 16  1  0
 16 17  1  0
 16 18  2  0
 18 19  1  0
 19 20  1  0
 19 21  2  0
 21 22  1  0
 22 23  3  0
  8 24  1  0
 24 25  2  0
 25  5  1  0
 21 14  1  0
M  END
>  <Binding energies>  (3) 
[-7.73]

>  <Ligand effiencies>  (3) 
[-0.29730769230769233]

>  <Interactions>  (3) 
["V-B:PRO:540:CA:9855, V-B:TYR:539:CE2:9848, V-B:TYR:539:C:9839, V-B:TYR:539:CD2:9846, V-A:ILE:369:CD1:3239, V-B:GLU:543:CG:9879, V-A:LEU:475:CD2:4259, V-B:GLU:543:CB:9878, H-A:TYR:484:OH:4348, V-A:GLU:543:CD:4908, V-A:TYR:484:CE2:4346, H-A:ARG:545:NE:4924, V-A:GLY:454:CA:4049, V-B:GLU:543:CD:9880, V-B:HIS:456:CE1:9041, V-A:GLY:544:CA:4914, V-A:GLY:544:C:4912, H-A:LYS:547:NZ:4951, V-A:HIS:456:CE1:4070, V-A:GLU:543:C:4902, V-A:GLU:543:CB:4906, H-A:GLU:543:OE1:4909, V-A:ARG:545:CG:4922, H-A:GLU:543:OE2:4910, V-A:HIS:456:CD2:4068, V-A:HIS:456:CG:4066, H-A:ARG:545:NH2:4928, V-B:GLU:543:CA:9876, H-A:GLY:454:N:4050"]

$$$$
1c_Grossjean_2025
     RDKit          3D

 23 24  0  0  0  0  0  0  0  0999 V2000
  129.5720  127.4040   70.0060 C   0  0  0  0  0  0  0  0  0  0  0  0
  129.1670  126.7020   68.8350 O   0  0  0  0  0  0  0  0  0  0  0  0
  128.8790  127.4150   67.6880 C   0  0  0  0  0  0  0  0  0  0  0  0
  128.3520  128.6950   67.8670 C   0  0  0  0  0  0  0  0  0  0  0  0
  128.0310  129.4920   66.7720 C   0  0  0  0  0  0  0  0  0  0  0  0
  128.2410  129.0130   65.4710 C   0  0  0  0  0  0  0  0  0  0  0  0
  127.9420  129.7290   64.2950 N   0  0  0  0  0  0  0  0  0  0  0  0
  127.9960  131.0580   64.0650 C   0  0  0  0  0  0  0  0  0  0  0  0
  128.3500  131.9110   64.8790 O   0  0  0  0  0  0  0  0  0  0  0  0
  127.5800  131.4970   62.6590 C   0  0  0  0  0  0  0  0  0  0  0  0
  128.5330  132.9360   62.0900 S   0  0  0  0  0  0  0  0  0  0  0  0
  130.0480  132.3530   61.3570 C   0  0  0  0  0  0  0  0  0  0  0  0
  131.0200  132.0890   62.2660 N   0  0  0  0  0  0  0  0  0  0  0  0
  132.2190  131.6390   61.8260 C   0  0  0  0  0  0  0  0  0  0  0  0
  133.2520  131.3560   62.9010 C   0  0  0  0  0  0  0  0  0  0  0  0
  132.4990  131.4470   60.4750 C   0  0  0  0  0  0  0  0  0  0  0  0
  131.5130  131.7390   59.5280 C   0  0  0  0  0  0  0  0  0  0  0  0
  131.8510  131.5360   58.0520 C   0  0  0  0  0  0  0  0  0  0  0  0
  130.2540  132.2120   59.9640 C   0  0  0  0  0  0  0  0  0  0  0  0
  129.2280  132.5760   58.9840 C   0  0  0  0  0  0  0  0  0  0  0  0
  128.4170  132.8620   58.2090 N   0  0  0  0  0  0  0  0  0  0  0  0
  128.7570  127.7290   65.2870 C   0  0  0  0  0  0  0  0  0  0  0  0
  129.0770  126.9350   66.3850 C   0  0  0  0  0  0  0  0  0  0  0  0
  1  2  1  0
  2  3  1  0
  3  4  2  0
  4  5  1  0
  5  6  2  0
  6  7  1  0
  7  8  1  0
  8  9  2  0
  8 10  1  0
 10 11  1  0
 11 12  1  0
 12 13  2  0
 13 14  1  0
 14 15  1  0
 14 16  2  0
 16 17  1  0
 17 18  1  0
 17 19  2  0
 19 20  1  0
 20 21  3  0
  6 22  1  0
 22 23  2  0
 23  3  1  0
 19 12  1  0
M  END
>  <Binding energies>  (4) 
[-6.92]

>  <Ligand effiencies>  (4) 
[-0.28833333333333333]

>  <Interactions>  (4) 
["V-A:LEU:363:CD1:3189, V-A:PRO:540:CA:4883, V-A:PRO:540:CB:4885, V-A:PRO:540:N:4884, V-A:TYR:539:C:4867, V-B:GLU:543:CG:9879, V-B:GLU:543:CB:9878, V-A:GLU:543:CD:4908, V-B:GLU:543:CD:9880, V-B:HIS:456:CE1:9041, V-A:HIS:456:CE1:4070, V-A:GLU:543:CG:4907, V-A:GLU:543:CB:4906, H-A:GLU:543:OE1:4909, V-B:TYR:484:CZ:9318, H-B:GLU:543:OE2:9882, H-B:TYR:484:OH:9319, V-A:PRO:540:C:4881, H-A:ALA:541:N:4891, V-B:TYR:484:CE2:9317, V-A:ASN:362:CB:3176, V-A:ASN:362:CG:3177"]

$$$$
1d_Grossjean_2025
     RDKit          3D

 21 22  0  0  0  0  0  0  0  0999 V2000
  127.1260  127.8630   59.1920 C   0  0  0  0  0  0  0  0  0  0  0  0
  126.8920  126.5380   58.4930 C   0  0  0  0  0  0  0  0  0  0  0  0
  127.7560  126.0700   57.5050 C   0  0  0  0  0  0  0  0  0  0  0  0
  127.4950  124.8360   56.9020 C   0  0  0  0  0  0  0  0  0  0  0  0
  128.4660  124.3370   55.8330 C   0  0  0  0  0  0  0  0  0  0  0  0
  126.3570  124.0970   57.3020 C   0  0  0  0  0  0  0  0  0  0  0  0
  126.0900  122.7810   56.7180 C   0  0  0  0  0  0  0  0  0  0  0  0
  125.8830  121.7410   56.2550 N   0  0  0  0  0  0  0  0  0  0  0  0
  125.5210  124.6610   58.2940 C   0  0  0  0  0  0  0  0  0  0  0  0
  124.0520  123.8720   58.9150 S   0  0  0  0  0  0  0  0  0  0  0  0
  123.9860  124.1790   60.7060 C   0  0  0  0  0  0  0  0  0  0  0  0
  125.0960  123.4420   61.4580 C   0  0  0  0  0  0  0  0  0  0  0  0
  124.8040  122.7500   62.4330 O   0  0  0  0  0  0  0  0  0  0  0  0
  126.3390  123.6000   60.9540 N   0  0  0  0  0  0  0  0  0  0  0  0
  127.5680  123.0840   61.4060 C   0  0  0  0  0  0  0  0  0  0  0  0
  128.3890  122.5250   60.4220 C   0  0  0  0  0  0  0  0  0  0  0  0
  129.6280  121.9910   60.7610 C   0  0  0  0  0  0  0  0  0  0  0  0
  130.0540  122.0210   62.0870 C   0  0  0  0  0  0  0  0  0  0  0  0
  129.2500  122.5830   63.0760 C   0  0  0  0  0  0  0  0  0  0  0  0
  128.0090  123.1170   62.7400 C   0  0  0  0  0  0  0  0  0  0  0  0
  125.7950  125.8500   58.8890 N   0  0  0  0  0  0  0  0  0  0  0  0
  1  2  1  0
  2  3  2  0
  3  4  1  0
  4  5  1  0
  4  6  2  0
  6  7  1  0
  7  8  3  0
  6  9  1  0
  9 10  1  0
 10 11  1  0
 11 12  1  0
 12 13  2  0
 12 14  1  0
 14 15  1  0
 15 16  2  0
 16 17  1  0
 17 18  2  0
 18 19  1  0
 19 20  2  0
  9 21  2  0
 21  2  1  0
 20 15  1  0
M  END
>  <Binding energies>  (5) 
[-6.61]

>  <Ligand effiencies>  (5) 
[-0.3004545454545455]

>  <Interactions>  (5) 
["V-B:TYR:539:CZ:9849, V-B:PRO:540:N:9856, V-B:TYR:539:CE1:9847, V-B:PRO:540:CB:9857, V-B:PRO:540:CA:9855, V-B:TYR:539:CE2:9848, H-B:TYR:539:N:9842, V-B:PRO:540:CD:9859, H-B:ASP:366:OD1:8185, V-B:ASP:366:CG:8184, V-B:MET:535:CE:9807, V-B:PRO:540:C:9853, H-B:ALA:541:N:9863, V-B:TYR:539:CD2:9846, V-B:LEU:363:CA:8156, V-B:ALA:541:CB:9864, V-B:GLU:543:CG:9879, V-A:LEU:475:CD2:4259, V-B:GLU:543:CD:9880, V-B:ASN:362:CB:8147, V-B:ASN:362:C:8143"]

$$$$
1e_Grossjean_2025
     RDKit          3D

 22 23  0  0  0  0  0  0  0  0999 V2000
  126.8790  122.3750   55.5480 C   0  0  0  0  0  0  0  0  0  0  0  0
  126.3180  122.9360   56.8400 C   0  0  0  0  0  0  0  0  0  0  0  0
  125.0050  123.4080   56.9230 C   0  0  0  0  0  0  0  0  0  0  0  0
  124.5580  123.9130   58.1450 C   0  0  0  0  0  0  0  0  0  0  0  0
  125.4230  123.9360   59.2410 C   0  0  0  0  0  0  0  0  0  0  0  0
  126.7240  123.4430   59.0900 C   0  0  0  0  0  0  0  0  0  0  0  0
  127.5520  123.5030   60.2250 N   0  0  0  0  0  0  0  0  0  0  0  0
  127.2550  123.1740   61.5010 C   0  0  0  0  0  0  0  0  0  0  0  0
  126.1600  122.7610   61.8880 O   0  0  0  0  0  0  0  0  0  0  0  0
  128.3810  123.3690   62.5190 C   0  0  0  0  0  0  0  0  0  0  0  0
  129.8540  122.3880   62.1000 S   0  0  0  0  0  0  0  0  0  0  0  0
  130.8500  123.3170   60.9510 C   0  0  0  0  0  0  0  0  0  0  0  0
  130.1210  123.9610   60.0040 N   0  0  0  0  0  0  0  0  0  0  0  0
  130.7690  124.6990   59.0720 C   0  0  0  0  0  0  0  0  0  0  0  0
  129.8890  125.3940   58.0510 C   0  0  0  0  0  0  0  0  0  0  0  0
  132.1570  124.8150   59.0370 C   0  0  0  0  0  0  0  0  0  0  0  0
  132.9190  124.1370   59.9940 C   0  0  0  0  0  0  0  0  0  0  0  0
  134.4400  124.2660   59.9230 C   0  0  0  0  0  0  0  0  0  0  0  0
  132.2650  123.3570   60.9750 C   0  0  0  0  0  0  0  0  0  0  0  0
  133.0500  122.5940   61.9470 C   0  0  0  0  0  0  0  0  0  0  0  0
  133.6740  121.9910   62.7140 N   0  0  0  0  0  0  0  0  0  0  0  0
  127.1700  122.9510   57.8960 N   0  0  0  0  0  0  0  0  0  0  0  0
  1  2  1  0
  2  3  2  0
  3  4  1  0
  4  5  2  0
  5  6  1  0
  6  7  1  0
  7  8  1  0
  8  9  2  0
  8 10  1  0
 10 11  1  0
 11 12  1  0
 12 13  2  0
 13 14  1  0
 14 15  1  0
 14 16  2  0
 16 17  1  0
 17 18  1  0
 17 19  2  0
 19 20  1  0
 20 21  3  0
  6 22  2  0
 22  2  1  0
 19 12  1  0
M  END
>  <Binding energies>  (6) 
[-6.62]

>  <Ligand effiencies>  (6) 
[-0.28782608695652173]

>  <Interactions>  (6) 
["V-A:ASP:366:CG:3213, V-A:ASP:366:CB:3212, V-B:TYR:539:CZ:9849, V-B:PRO:540:N:9856, V-B:TYR:539:CE1:9847, V-B:PRO:540:CB:9857, V-B:TYR:539:CD1:9845, V-B:PRO:540:CA:9855, V-B:TYR:539:CE2:9848, V-B:PRO:540:CD:9859, V-B:MET:535:CE:9807, V-B:LEU:363:CD1:8160, V-B:PRO:540:C:9853, H-B:ALA:541:N:9863, V-B:LEU:363:CA:8156, V-A:ASP:366:CA:3210, V-A:ILE:369:CD1:3239, V-B:GLU:543:CG:9879, V-A:ILE:369:CB:3236, V-A:ILE:369:CG2:3237, V-A:LEU:475:CD2:4259, V-B:GLU:543:CD:9880, H-A:GLY:454:N:4050, V-B:ILE:538:CA:9832, V-B:ILE:538:C:9830, V-A:ILE:369:CG1:3238"]

$$$$
1f_Grossjean_2025
     RDKit          3D

 21 22  0  0  0  0  0  0  0  0999 V2000
  131.3610  125.4110   66.7070 C   0  0  0  0  0  0  0  0  0  0  0  0
  131.5940  124.8330   65.3230 C   0  0  0  0  0  0  0  0  0  0  0  0
  132.8230  124.9550   64.6800 C   0  0  0  0  0  0  0  0  0  0  0  0
  132.9750  124.4130   63.3990 C   0  0  0  0  0  0  0  0  0  0  0  0
  134.3270  124.5750   62.7060 C   0  0  0  0  0  0  0  0  0  0  0  0
  131.8830  123.7480   62.7950 C   0  0  0  0  0  0  0  0  0  0  0  0
  132.0070  123.2230   61.4320 C   0  0  0  0  0  0  0  0  0  0  0  0
  132.1060  122.8090   60.3570 N   0  0  0  0  0  0  0  0  0  0  0  0
  130.6810  123.6470   63.5330 C   0  0  0  0  0  0  0  0  0  0  0  0
  129.2040  122.8490   62.9370 S   0  0  0  0  0  0  0  0  0  0  0  0
  128.1700  124.1000   62.1010 C   0  0  0  0  0  0  0  0  0  0  0  0
  127.1500  123.5330   61.1020 C   0  0  0  0  0  0  0  0  0  0  0  0
  126.1150  122.9990   61.5020 O   0  0  0  0  0  0  0  0  0  0  0  0
  127.5070  123.6540   59.8060 N   0  0  0  0  0  0  0  0  0  0  0  0
  126.8190  123.2570   58.6440 C   0  0  0  0  0  0  0  0  0  0  0  0
  125.5070  123.6320   58.3000 C   0  0  0  0  0  0  0  0  0  0  0  0
  124.9450  123.1660   57.1080 C   0  0  0  0  0  0  0  0  0  0  0  0
  125.7110  122.3390   56.2860 C   0  0  0  0  0  0  0  0  0  0  0  0
  126.9790  121.9670   56.5920 N   0  0  0  0  0  0  0  0  0  0  0  0
  127.5110  122.4280   57.7540 C   0  0  0  0  0  0  0  0  0  0  0  0
  130.5370  124.1980   64.7650 N   0  0  0  0  0  0  0  0  0  0  0  0
  1  2  1  0
  2  3  2  0
  3  4  1  0
  4  5  1  0
  4  6  2  0
  6  7  1  0
  7  8  3  0
  6  9  1  0
  9 10  1  0
 10 11  1  0
 11 12  1  0
 12 13  2  0
 12 14  1  0
 14 15  1  0
 15 16  2  0
 16 17  1  0
 17 18  2  0
 18 19  1  0
 19 20  2  0
  9 21  2  0
 21  2  1  0
 20 15  1  0
M  END
>  <Binding energies>  (7) 
[-6.84]

>  <Ligand effiencies>  (7) 
[-0.3109090909090909]

>  <Interactions>  (7) 
["V-B:TYR:539:CZ:9849, V-B:PRO:540:N:9856, V-B:PRO:540:CB:9857, V-B:TYR:539:CD1:9845, V-B:PRO:540:CA:9855, V-B:TYR:539:CE2:9848, H-B:TYR:539:N:9842, V-B:PRO:540:CD:9859, V-B:MET:535:CE:9807, V-B:LEU:363:CD1:8160, V-B:TYR:539:C:9839, V-B:TYR:539:CG:9844, H-B:ALA:541:N:9863, V-B:TYR:539:CD2:9846, V-A:ILE:369:CD1:3239, V-B:GLU:543:CG:9879, V-A:TYR:484:CZ:4347, V-A:GLY:453:CA:4044, H-A:TYR:484:OH:4348, V-A:ARG:545:CZ:4926, V-B:GLU:543:CD:9880, V-A:HIS:456:CE1:4070, V-A:GLY:453:C:4042, V-B:ILE:538:CG2:9835, V-B:TYR:539:CA:9841"]

$$$$
1g_Grossjean_2025
     RDKit          3D

 22 23  0  0  0  0  0  0  0  0999 V2000
  126.4700  128.1520   58.6620 C   0  0  0  0  0  0  0  0  0  0  0  0
  126.4660  126.7340   58.1220 C   0  0  0  0  0  0  0  0  0  0  0  0
  127.4990  126.2560   57.3170 C   0  0  0  0  0  0  0  0  0  0  0  0
  127.4330  124.9450   56.8350 C   0  0  0  0  0  0  0  0  0  0  0  0
  128.5690  124.4480   55.9420 C   0  0  0  0  0  0  0  0  0  0  0  0
  126.3280  124.1350   57.1820 C   0  0  0  0  0  0  0  0  0  0  0  0
  126.2110  122.7760   56.6460 C   0  0  0  0  0  0  0  0  0  0  0  0
  126.1220  121.7040   56.2200 N   0  0  0  0  0  0  0  0  0  0  0  0
  125.3380  124.6950   58.0240 C   0  0  0  0  0  0  0  0  0  0  0  0
  123.8890  123.8160   58.5660 S   0  0  0  0  0  0  0  0  0  0  0  0
  123.8700  123.8750   60.3830 C   0  0  0  0  0  0  0  0  0  0  0  0
  125.2800  123.8160   60.9730 C   0  0  0  0  0  0  0  0  0  0  0  0
  125.6610  122.8010   61.5590 O   0  0  0  0  0  0  0  0  0  0  0  0
  126.0380  124.9140   60.8140 N   0  0  0  0  0  0  0  0  0  0  0  0
  127.4290  125.0550   61.2450 C   0  0  0  0  0  0  0  0  0  0  0  0
  128.1930  123.7380   61.3400 C   0  0  0  0  0  0  0  0  0  0  0  0
  128.6550  123.2860   62.5800 C   0  0  0  0  0  0  0  0  0  0  0  0
  129.3520  122.0840   62.6660 C   0  0  0  0  0  0  0  0  0  0  0  0
  129.5810  121.3350   61.5130 C   0  0  0  0  0  0  0  0  0  0  0  0
  129.1190  121.7770   60.2760 C   0  0  0  0  0  0  0  0  0  0  0  0
  128.4230  122.9800   60.1880 C   0  0  0  0  0  0  0  0  0  0  0  0
  125.3990  125.9760   58.4690 N   0  0  0  0  0  0  0  0  0  0  0  0
  1  2  1  0
  2  3  2  0
  3  4  1  0
  4  5  1  0
  4  6  2  0
  6  7  1  0
  7  8  3  0
  6  9  1  0
  9 10  1  0
 10 11  1  0
 11 12  1  0
 12 13  2  0
 12 14  1  0
 14 15  1  0
 15 16  1  0
 16 17  2  0
 17 18  1  0
 18 19  2  0
 19 20  1  0
 20 21  2  0
  9 22  2  0
 22  2  1  0
 21 16  1  0
M  END
>  <Binding energies>  (8) 
[-7.27]

>  <Ligand effiencies>  (8) 
[-0.3160869565217391]

>  <Interactions>  (8) 
["V-B:TYR:539:CZ:9849, V-B:PRO:540:N:9856, V-B:TYR:539:CE1:9847, V-B:PRO:540:CB:9857, V-B:PRO:540:CA:9855, V-B:TYR:539:CE2:9848, H-B:TYR:539:N:9842, H-B:TYR:531:OH:9767, V-B:PRO:540:CD:9859, H-B:ASP:366:OD1:8185, V-B:ASP:366:CG:8184, V-B:MET:535:CE:9807, V-B:TYR:539:C:9839, H-B:GLU:543:OE1:9881, H-B:ALA:541:N:9863, V-B:TYR:539:CD2:9846, V-B:LEU:363:CA:8156, V-B:ALA:541:CB:9864, V-B:GLU:543:CG:9879, V-A:LEU:475:CD2:4259, V-B:GLU:543:CD:9880, V-B:ASN:362:CB:8147, V-B:ASN:362:C:8143"]

$$$$
1h_Grossjean_2025
     RDKit          3D

 28 29  0  0  0  0  0  0  0  0999 V2000
  133.5610  121.5930   61.2070 C   0  0  0  0  0  0  0  0  0  0  0  0
  134.0910  122.8460   60.7900 O   0  0  0  0  0  0  0  0  0  0  0  0
  133.2310  123.9060   60.5660 C   0  0  0  0  0  0  0  0  0  0  0  0
  132.7970  124.3070   59.2930 C   0  0  0  0  0  0  0  0  0  0  0  0
  131.9380  125.3960   59.1410 C   0  0  0  0  0  0  0  0  0  0  0  0
  131.4560  125.8080   57.7530 C   0  0  0  0  0  0  0  0  0  0  0  0
  130.0810  125.4050   57.4580 N   0  0  0  0  0  0  0  0  0  0  0  0
  129.3990  125.7250   56.3430 C   0  0  0  0  0  0  0  0  0  0  0  0
  129.8740  126.3830   55.4180 O   0  0  0  0  0  0  0  0  0  0  0  0
  127.9550  125.2300   56.2610 C   0  0  0  0  0  0  0  0  0  0  0  0
  127.8080  123.4790   56.7280 S   0  0  0  0  0  0  0  0  0  0  0  0
  127.6320  123.3930   58.5030 C   0  0  0  0  0  0  0  0  0  0  0  0
  128.7590  123.0770   59.1930 N   0  0  0  0  0  0  0  0  0  0  0  0
  128.6970  122.9980   60.5430 C   0  0  0  0  0  0  0  0  0  0  0  0
  129.9960  122.6460   61.2420 C   0  0  0  0  0  0  0  0  0  0  0  0
  127.5220  123.2260   61.2560 C   0  0  0  0  0  0  0  0  0  0  0  0
  126.3550  123.5500   60.5570 C   0  0  0  0  0  0  0  0  0  0  0  0
  125.0790  123.7980   61.3590 C   0  0  0  0  0  0  0  0  0  0  0  0
  126.3970  123.6380   59.1470 C   0  0  0  0  0  0  0  0  0  0  0  0
  125.1890  123.9730   58.3880 C   0  0  0  0  0  0  0  0  0  0  0  0
  124.2340  124.2370   57.7900 N   0  0  0  0  0  0  0  0  0  0  0  0
  131.4760  126.0730   60.2710 C   0  0  0  0  0  0  0  0  0  0  0  0
  131.8900  125.6900   61.5570 C   0  0  0  0  0  0  0  0  0  0  0  0
  131.4750  126.3140   62.7190 O   0  0  0  0  0  0  0  0  0  0  0  0
  130.0830  126.4950   62.9570 C   0  0  0  0  0  0  0  0  0  0  0  0
  132.7760  124.6110   61.6900 C   0  0  0  0  0  0  0  0  0  0  0  0
  133.1850  124.2220   62.9420 O   0  0  0  0  0  0  0  0  0  0  0  0
  132.1600  123.6270   63.7260 C   0  0  0  0  0  0  0  0  0  0  0  0
  1  2  1  0
  2  3  1  0
  3  4  2  0
  4  5  1  0
  5  6  1  0
  6  7  1  0
  7  8  1  0
  8  9  2  0
  8 10  1  0
 10 11  1  0
 11 12  1  0
 12 13  2  0
 13 14  1  0
 14 15  1  0
 14 16  2  0
 16 17  1  0
 17 18  1  0
 17 19  2  0
 19 20  1  0
 20 21  3  0
  5 22  2  0
 22 23  1  0
 23 24  1  0
 24 25  1  0
 23 26  2  0
 26 27  1  0
 27 28  1  0
 26  3  1  0
 19 12  1  0
M  END
>  <Binding energies>  (9) 
[-5.97]

>  <Ligand effiencies>  (9) 
[-0.20586206896551723]

>  <Interactions>  (9) 
["V-A:ASP:366:CG:3213, H-A:TYR:531:OH:4795, H-B:TYR:539:OH:9850, V-A:ASP:366:CB:3212, V-B:TYR:539:CZ:9849, V-B:PRO:540:CB:9857, V-B:PRO:540:CA:9855, V-B:TYR:539:CE2:9848, V-A:ILE:369:CG2:3237, V-A:LEU:475:CD2:4259, V-A:GLU:543:CD:4908, H-A:ARG:545:NH2:4928"]

$$$$
1i_Grossjean_2025
     RDKit          3D

 20 21  0  0  0  0  0  0  0  0999 V2000
  127.3840  122.3640   55.0970 C   0  0  0  0  0  0  0  0  0  0  0  0
  126.9230  122.8220   56.4670 C   0  0  0  0  0  0  0  0  0  0  0  0
  125.6400  123.3230   56.6750 C   0  0  0  0  0  0  0  0  0  0  0  0
  125.2660  123.7210   57.9640 C   0  0  0  0  0  0  0  0  0  0  0  0
  123.8480  124.2510   58.1710 C   0  0  0  0  0  0  0  0  0  0  0  0
  126.2000  123.6120   59.0200 C   0  0  0  0  0  0  0  0  0  0  0  0
  125.8140  123.9750   60.3850 C   0  0  0  0  0  0  0  0  0  0  0  0
  125.5060  124.2620   61.4640 N   0  0  0  0  0  0  0  0  0  0  0  0
  127.4890  123.1150   58.7110 C   0  0  0  0  0  0  0  0  0  0  0  0
  128.7850  122.9120   59.9130 S   0  0  0  0  0  0  0  0  0  0  0  0
  129.9210  124.3200   59.7400 C   0  0  0  0  0  0  0  0  0  0  0  0
  129.4240  125.3380   58.7100 C   0  0  0  0  0  0  0  0  0  0  0  0
  128.7840  126.3180   59.0910 O   0  0  0  0  0  0  0  0  0  0  0  0
  129.7430  125.0680   57.4250 N   0  0  0  0  0  0  0  0  0  0  0  0
  129.4160  125.8160   56.3030 C   0  0  0  0  0  0  0  0  0  0  0  0
  128.1530  126.3690   56.0990 C   0  0  0  0  0  0  0  0  0  0  0  0
  128.2390  127.0220   54.8910 C   0  0  0  0  0  0  0  0  0  0  0  0
  129.4880  126.8690   54.3920 O   0  0  0  0  0  0  0  0  0  0  0  0
  130.2250  126.1010   55.2960 N   0  0  0  0  0  0  0  0  0  0  0  0
  127.8350  122.7130   57.4620 N   0  0  0  0  0  0  0  0  0  0  0  0
  1  2  1  0
  2  3  2  0
  3  4  1  0
  4  5  1  0
  4  6  2  0
  6  7  1  0
  7  8  3  0
  6  9  1  0
  9 10  1  0
 10 11  1  0
 11 12  1  0
 12 13  2  0
 12 14  1  0
 14 15  1  0
 15 16  1  0
 16 17  2  0
 17 18  1  0
 18 19  1  0
  9 20  2  0
 20  2  1  0
 19 15  2  0
M  END
>  <Binding energies>  (10) 
[-6.31]

>  <Ligand effiencies>  (10) 
[-0.30047619047619045]

>  <Interactions>  (10) 
["H-A:TYR:531:OH:4795, H-B:TYR:539:OH:9850, V-B:TYR:539:CZ:9849, V-B:PRO:540:N:9856, V-B:TYR:539:CE1:9847, V-B:PRO:540:CB:9857, V-B:TYR:539:CD1:9845, V-B:PRO:540:CA:9855, V-B:TYR:539:CE2:9848, V-B:ASP:366:CB:8183, V-B:ASP:366:CG:8184, V-B:MET:535:CE:9807, V-B:LEU:363:CD1:8160, V-B:TYR:539:C:9839, V-B:TYR:539:CG:9844, H-A:ASN:370:ND2:3248, V-B:LEU:363:CA:8156, V-A:MET:535:CE:4835, V-B:TYR:531:CE2:9765, V-B:MET:535:CG:9805, V-B:ILE:538:CA:9832, H-B:ARG:545:NH2:9900, V-B:ILE:538:C:9830, V-B:LEU:363:CB:8158"]

$$$$
1k_Grossjean_2025
     RDKit          3D

 25 25  0  0  0  0  0  0  0  0999 V2000
  132.8170  125.0160   64.9000 C   0  0  0  0  0  0  0  0  0  0  0  0
  133.9470  124.6080   64.1460 O   0  0  0  0  0  0  0  0  0  0  0  0
  133.6160  123.8080   63.0190 C   0  0  0  0  0  0  0  0  0  0  0  0
  133.4090  124.7080   61.7940 C   0  0  0  0  0  0  0  0  0  0  0  0
  134.2480  124.2660   60.7340 O   0  0  0  0  0  0  0  0  0  0  0  0
  133.5470  123.6050   59.6890 C   0  0  0  0  0  0  0  0  0  0  0  0
  132.0460  123.6020   60.0040 C   0  0  0  0  0  0  0  0  0  0  0  0
  131.4230  124.7070   59.3600 O   0  0  0  0  0  0  0  0  0  0  0  0
  132.3150  125.4840   58.5710 C   0  0  0  0  0  0  0  0  0  0  0  0
  131.5470  126.1160   57.3950 C   0  0  0  0  0  0  0  0  0  0  0  0
  130.1800  125.6180   57.2400 N   0  0  0  0  0  0  0  0  0  0  0  0
  129.4040  125.8080   56.1590 C   0  0  0  0  0  0  0  0  0  0  0  0
  129.7770  126.4330   55.1640 O   0  0  0  0  0  0  0  0  0  0  0  0
  127.9960  125.1960   56.2370 C   0  0  0  0  0  0  0  0  0  0  0  0
  127.9250  123.4400   56.7350 S   0  0  0  0  0  0  0  0  0  0  0  0
  127.5450  123.3390   58.4790 C   0  0  0  0  0  0  0  0  0  0  0  0
  128.5550  122.9130   59.2810 N   0  0  0  0  0  0  0  0  0  0  0  0
  128.3320  122.8040   60.6110 C   0  0  0  0  0  0  0  0  0  0  0  0
  129.5040  122.3140   61.4380 C   0  0  0  0  0  0  0  0  0  0  0  0
  127.1070  123.1200   61.1960 C   0  0  0  0  0  0  0  0  0  0  0  0
  126.0620  123.5670   60.3810 C   0  0  0  0  0  0  0  0  0  0  0  0
  124.7270  123.9080   61.0420 C   0  0  0  0  0  0  0  0  0  0  0  0
  126.2730  123.6830   58.9890 C   0  0  0  0  0  0  0  0  0  0  0  0
  125.1940  124.1460   58.1110 C   0  0  0  0  0  0  0  0  0  0  0  0
  124.3410  124.5110   57.4190 N   0  0  0  0  0  0  0  0  0  0  0  0
  1  2  1  0
  2  3  1  0
  3  4  1  0
  4  5  1  0
  5  6  1  0
  6  7  1  0
  7  8  1  0
  8  9  1  0
  9 10  1  0
 10 11  1  0
 11 12  1  0
 12 13  2  0
 12 14  1  0
 14 15  1  0
 15 16  1  0
 16 17  2  0
 17 18  1  0
 18 19  1  0
 18 20  2  0
 20 21  1  0
 21 22  1  0
 21 23  2  0
 23 24  1  0
 24 25  3  0
 23 16  1  0
M  END
>  <Binding energies>  (11) 
[-5.62]

>  <Ligand effiencies>  (11) 
[-0.21615384615384617]

>  <Interactions>  (11) 
["V-A:ASP:366:CG:3213, H-A:TYR:531:OH:4795, H-B:TYR:539:OH:9850, V-A:ASP:366:CB:3212, V-B:TYR:539:CZ:9849, V-B:PRO:540:N:9856, V-B:PRO:540:CB:9857, V-B:PRO:540:CA:9855, V-B:TYR:539:CE2:9848, V-B:PRO:540:C:9853, V-A:ILE:369:CD1:3239, V-A:ILE:369:CB:3236, V-A:ILE:369:CG2:3237, H-A:TYR:484:OH:4348, H-A:ARG:545:NE:4924, V-A:GLY:454:CA:4049, V-A:ARG:545:CZ:4926, V-A:TYR:531:CZ:4794, H-A:ARG:545:NH2:4928, H-A:GLY:454:N:4050, V-B:ASN:362:CB:8147"]

$$$$
1l_Grossjean_2025
     RDKit          3D

 17 17  0  0  0  0  0  0  0  0999 V2000
  127.6810  126.4770   61.4680 C   0  0  0  0  0  0  0  0  0  0  0  0
  127.3050  125.1360   61.1880 O   0  0  0  0  0  0  0  0  0  0  0  0
  125.9480  125.0780   60.8740 N   0  0  0  0  0  0  0  0  0  0  0  0
  125.3100  123.8950   60.9510 C   0  0  0  0  0  0  0  0  0  0  0  0
  125.7850  122.8950   61.4970 O   0  0  0  0  0  0  0  0  0  0  0  0
  123.9130  123.8650   60.3150 C   0  0  0  0  0  0  0  0  0  0  0  0
  123.8870  124.0400   58.4990 S   0  0  0  0  0  0  0  0  0  0  0  0
  125.3450  124.9430   58.0070 C   0  0  0  0  0  0  0  0  0  0  0  0
  125.4350  126.2160   58.4720 N   0  0  0  0  0  0  0  0  0  0  0  0
  126.5160  126.9600   58.1360 C   0  0  0  0  0  0  0  0  0  0  0  0
  126.5450  128.3700   58.6940 C   0  0  0  0  0  0  0  0  0  0  0  0
  127.5430  126.4730   57.3310 C   0  0  0  0  0  0  0  0  0  0  0  0
  127.4620  125.1630   56.8470 C   0  0  0  0  0  0  0  0  0  0  0  0
  128.6000  124.6480   55.9670 C   0  0  0  0  0  0  0  0  0  0  0  0
  126.3430  124.3700   57.1850 C   0  0  0  0  0  0  0  0  0  0  0  0
  126.2320  122.9930   56.6910 C   0  0  0  0  0  0  0  0  0  0  0  0
  126.1460  121.9080   56.3010 N   0  0  0  0  0  0  0  0  0  0  0  0
  1  2  1  0
  2  3  1  0
  3  4  1  0
  4  5  2  0
  4  6  1  0
  6  7  1  0
  7  8  1  0
  8  9  2  0
  9 10  1  0
 10 11  1  0
 10 12  2  0
 12 13  1  0
 13 14  1  0
 13 15  2  0
 15 16  1  0
 16 17  3  0
 15  8  1  0
M  END
>  <Binding energies>  (12) 
[-5.76]

>  <Ligand effiencies>  (12) 
[-0.32]

>  <Interactions>  (12) 
["V-B:TYR:539:CZ:9849, V-B:PRO:540:N:9856, V-B:TYR:539:CE1:9847, V-B:PRO:540:CB:9857, V-B:PRO:540:CA:9855, H-B:TYR:539:N:9842, H-B:TYR:531:OH:9767, H-B:ASP:366:OD1:8185, V-B:ASP:366:CG:8184, V-B:MET:535:CE:9807, H-B:GLU:543:OE1:9881, H-B:ALA:541:N:9863, V-B:LEU:363:CA:8156, V-B:GLU:543:CD:9880, V-B:ASN:362:CB:8147, V-B:ASN:362:C:8143"]

$$$$
1m_Grossjean_2025
     RDKit          3D

 20 20  0  0  0  0  0  0  0  0999 V2000
  128.3720  127.2420   57.3620 C   0  0  0  0  0  0  0  0  0  0  0  0
  128.0220  126.5770   56.1570 O   0  0  0  0  0  0  0  0  0  0  0  0
  128.8960  125.7460   55.5530 C   0  0  0  0  0  0  0  0  0  0  0  0
  129.8690  126.0950   54.8780 O   0  0  0  0  0  0  0  0  0  0  0  0
  128.5440  124.2660   55.8150 C   0  0  0  0  0  0  0  0  0  0  0  0
  127.2950  124.1040   56.5740 N   0  0  0  0  0  0  0  0  0  0  0  0
  126.5120  123.0080   56.5730 C   0  0  0  0  0  0  0  0  0  0  0  0
  126.7610  122.0050   55.9010 O   0  0  0  0  0  0  0  0  0  0  0  0
  125.2650  123.0860   57.4630 C   0  0  0  0  0  0  0  0  0  0  0  0
  125.3380  124.3600   58.7680 S   0  0  0  0  0  0  0  0  0  0  0  0
  126.8190  124.0910   59.7180 C   0  0  0  0  0  0  0  0  0  0  0  0
  127.9570  124.4140   59.0530 N   0  0  0  0  0  0  0  0  0  0  0  0
  129.1460  124.2560   59.6800 C   0  0  0  0  0  0  0  0  0  0  0  0
  130.3710  124.6570   58.8800 C   0  0  0  0  0  0  0  0  0  0  0  0
  129.2510  123.7640   60.9790 C   0  0  0  0  0  0  0  0  0  0  0  0
  128.0870  123.4030   61.6650 C   0  0  0  0  0  0  0  0  0  0  0  0
  128.2280  122.8500   63.0820 C   0  0  0  0  0  0  0  0  0  0  0  0
  126.8330  123.5580   61.0300 C   0  0  0  0  0  0  0  0  0  0  0  0
  125.6060  123.1390   61.7110 C   0  0  0  0  0  0  0  0  0  0  0  0
  124.6370  122.8100   62.2500 N   0  0  0  0  0  0  0  0  0  0  0  0
  1  2  1  0
  2  3  1  0
  3  4  2  0
  3  5  1  0
  5  6  1  0
  6  7  1  0
  7  8  2  0
  7  9  1  0
  9 10  1  0
 10 11  1  0
 11 12  2  0
 12 13  1  0
 13 14  1  0
 13 15  2  0
 15 16  1  0
 16 17  1  0
 16 18  2  0
 18 19  1  0
 19 20  3  0
 18 11  1  0
M  END
>  <Binding energies>  (13) 
[-5.51]

>  <Ligand effiencies>  (13) 
[-0.2623809523809524]

>  <Interactions>  (13) 
["H-A:TYR:531:OH:4795, H-B:TYR:539:OH:9850, V-B:TYR:539:CZ:9849, V-B:PRO:540:N:9856, V-B:TYR:539:CE1:9847, V-B:PRO:540:CB:9857, V-B:PRO:540:CA:9855, V-B:TYR:539:CE2:9848, H-B:TYR:539:N:9842, H-B:TYR:531:OH:9767, V-B:PRO:540:CD:9859, V-B:MET:535:CE:9807, V-B:LEU:363:CD1:8160, V-B:PRO:540:CG:9858, H-A:ASN:370:ND2:3248, V-B:PRO:540:C:9853, H-B:ALA:541:N:9863, V-B:ALA:541:CB:9864, V-B:GLU:543:CG:9879, V-B:GLU:543:CD:9880, V-B:ALA:541:CA:9862, H-B:MET:535:SD:9806"]

$$$$
1n_Grossjean_2025
     RDKit          3D

 27 28  0  0  0  0  0  0  0  0999 V2000
  128.4050  126.8770   71.7190 C   0  0  0  0  0  0  0  0  0  0  0  0
  127.9930  126.9120   70.2440 C   0  0  0  0  0  0  0  0  0  0  0  0
  129.1560  127.0300   69.4320 O   0  0  0  0  0  0  0  0  0  0  0  0
  129.1810  126.5330   68.1680 C   0  0  0  0  0  0  0  0  0  0  0  0
  129.5160  125.3760   67.8990 O   0  0  0  0  0  0  0  0  0  0  0  0
  128.7490  127.5300   67.1310 C   0  0  0  0  0  0  0  0  0  0  0  0
  128.7650  127.2290   65.7600 C   0  0  0  0  0  0  0  0  0  0  0  0
  128.3600  128.1760   64.8250 C   0  0  0  0  0  0  0  0  0  0  0  0
  127.9400  129.4420   65.2350 C   0  0  0  0  0  0  0  0  0  0  0  0
  127.5570  130.3230   64.2050 N   0  0  0  0  0  0  0  0  0  0  0  0
  127.7870  131.6470   64.0720 C   0  0  0  0  0  0  0  0  0  0  0  0
  128.4100  132.3470   64.8710 O   0  0  0  0  0  0  0  0  0  0  0  0
  127.2100  132.2970   62.8080 C   0  0  0  0  0  0  0  0  0  0  0  0
  128.1090  133.4140   62.2360 C   0  0  0  0  0  0  0  0  0  0  0  0
  128.3070  133.3720   60.4300 S   0  0  0  0  0  0  0  0  0  0  0  0
  129.8880  132.6330   60.0770 C   0  0  0  0  0  0  0  0  0  0  0  0
  130.5810  132.2790   61.1880 N   0  0  0  0  0  0  0  0  0  0  0  0
  131.7920  131.6920   61.0400 C   0  0  0  0  0  0  0  0  0  0  0  0
  132.5040  131.3150   62.3250 C   0  0  0  0  0  0  0  0  0  0  0  0
  132.3580  131.4410   59.7920 C   0  0  0  0  0  0  0  0  0  0  0  0
  131.6600  131.8220   58.6400 C   0  0  0  0  0  0  0  0  0  0  0  0
  132.3060  131.5490   57.2840 C   0  0  0  0  0  0  0  0  0  0  0  0
  130.3960  132.4410   58.7710 C   0  0  0  0  0  0  0  0  0  0  0  0
  129.6720  132.8930   57.5820 C   0  0  0  0  0  0  0  0  0  0  0  0
  129.1010  133.2510   56.6410 N   0  0  0  0  0  0  0  0  0  0  0  0
  127.9110  129.7460   66.6040 C   0  0  0  0  0  0  0  0  0  0  0  0
  128.3130  128.7960   67.5390 C   0  0  0  0  0  0  0  0  0  0  0  0
  1  2  1  0
  2  3  1  0
  3  4  1  0
  4  5  2  0
  4  6  1  0
  6  7  2  0
  7  8  1  0
  8  9  2  0
  9 10  1  0
 10 11  1  0
 11 12  2  0
 11 13  1  0
 13 14  1  0
 14 15  1  0
 15 16  1  0
 16 17  2  0
 17 18  1  0
 18 19  1  0
 18 20  2  0
 20 21  1  0
 21 22  1  0
 21 23  2  0
 23 24  1  0
 24 25  3  0
  9 26  1  0
 26 27  2  0
 27  6  1  0
 23 16  1  0
M  END
>  <Binding energies>  (14) 
[-7.79]

>  <Ligand effiencies>  (14) 
[-0.2782142857142857]

>  <Interactions>  (14) 
["V-A:LEU:363:CD1:3189, V-A:PRO:540:CA:4883, V-A:PRO:540:CB:4885, V-A:PRO:540:N:4884, V-A:TYR:539:C:4867, H-A:TYR:539:N:4870, V-B:GLU:543:CG:9879, V-B:GLU:543:CB:9878, V-A:GLU:543:CD:4908, V-B:GLU:543:CD:9880, V-B:HIS:456:CE1:9041, V-B:GLU:543:C:9874, V-A:HIS:456:CE1:4070, V-A:GLU:543:CG:4907, V-A:GLU:543:CB:4906, V-B:TYR:484:CZ:9318, H-B:TYR:484:OH:9319, V-A:ALA:541:CB:4892, V-A:PRO:540:C:4881, H-A:ALA:541:N:4891, V-B:TYR:484:CE2:9317, V-B:LEU:475:CD2:9230, V-A:ASN:362:CB:3176"]

$$$$
1q_Grossjean_2025
     RDKit          3D

 21 21  0  0  0  0  0  0  0  0999 V2000
  133.2700  124.5970   61.2820 C   0  0  0  0  0  0  0  0  0  0  0  0
  133.8960  124.3070   60.0410 O   0  0  0  0  0  0  0  0  0  0  0  0
  133.2480  124.5370   58.8730 C   0  0  0  0  0  0  0  0  0  0  0  0
  133.6310  124.1780   57.7580 O   0  0  0  0  0  0  0  0  0  0  0  0
  131.9430  125.3470   59.0270 C   0  0  0  0  0  0  0  0  0  0  0  0
  131.1320  125.3700   57.8000 N   0  0  0  0  0  0  0  0  0  0  0  0
  129.8230  125.6770   57.7240 C   0  0  0  0  0  0  0  0  0  0  0  0
  129.1450  125.9830   58.7070 O   0  0  0  0  0  0  0  0  0  0  0  0
  129.2050  125.6430   56.3190 C   0  0  0  0  0  0  0  0  0  0  0  0
  127.7130  125.2560   56.2930 C   0  0  0  0  0  0  0  0  0  0  0  0
  127.4060  123.5130   56.7090 S   0  0  0  0  0  0  0  0  0  0  0  0
  127.1660  123.3840   58.4690 C   0  0  0  0  0  0  0  0  0  0  0  0
  128.2740  122.9710   59.1360 N   0  0  0  0  0  0  0  0  0  0  0  0
  128.2130  122.8330   60.4800 C   0  0  0  0  0  0  0  0  0  0  0  0
  129.4850  122.3510   61.1520 C   0  0  0  0  0  0  0  0  0  0  0  0
  127.0600  123.1080   61.2130 C   0  0  0  0  0  0  0  0  0  0  0  0
  125.9200  123.5590   60.5400 C   0  0  0  0  0  0  0  0  0  0  0  0
  124.6740  123.8720   61.3680 C   0  0  0  0  0  0  0  0  0  0  0  0
  125.9600  123.7140   59.1360 C   0  0  0  0  0  0  0  0  0  0  0  0
  124.7950  124.2390   58.4220 C   0  0  0  0  0  0  0  0  0  0  0  0
  123.8710  124.6550   57.8620 N   0  0  0  0  0  0  0  0  0  0  0  0
  1  2  1  0
  2  3  1  0
  3  4  2  0
  3  5  1  0
  5  6  1  0
  6  7  1  0
  7  8  2  0
  7  9  1  0
  9 10  1  0
 10 11  1  0
 11 12  1  0
 12 13  2  0
 13 14  1  0
 14 15  1  0
 14 16  2  0
 16 17  1  0
 17 18  1  0
 17 19  2  0
 19 20  1  0
 20 21  3  0
 19 12  1  0
M  END
>  <Binding energies>  (15) 
[-5.76]

>  <Ligand effiencies>  (15) 
[-0.2618181818181818]

>  <Interactions>  (15) 
["V-A:ASP:366:CG:3213, H-A:TYR:531:OH:4795, H-B:TYR:539:OH:9850, V-A:ASP:366:CB:3212, V-B:TYR:539:CZ:9849, V-B:PRO:540:N:9856, V-B:PRO:540:CB:9857, V-B:PRO:540:CA:9855, V-B:TYR:539:CE2:9848, V-B:LEU:363:CD1:8160, V-B:PRO:540:C:9853, V-A:ASP:366:CA:3210, V-A:ILE:369:CG2:3237, V-B:ASN:362:CB:8147"]

$$$$
2a_Grossjean_2025
     RDKit          3D

 29 30  0  0  0  0  0  0  0  0999 V2000
  128.6100  131.4390   74.3070 C   0  0  0  0  0  0  0  0  0  0  0  0
  129.4950  131.0120   73.1310 C   0  0  0  0  0  0  0  0  0  0  0  0
  129.8650  129.6480   73.2920 O   0  0  0  0  0  0  0  0  0  0  0  0
  129.0340  128.6460   72.9050 C   0  0  0  0  0  0  0  0  0  0  0  0
  128.1060  128.2240   73.6000 O   0  0  0  0  0  0  0  0  0  0  0  0
  129.3450  128.1180   71.5330 C   0  0  0  0  0  0  0  0  0  0  0  0
  128.4110  127.3780   70.7940 C   0  0  0  0  0  0  0  0  0  0  0  0
  128.7310  126.9020   69.5260 C   0  0  0  0  0  0  0  0  0  0  0  0
  129.9890  127.1470   68.9740 C   0  0  0  0  0  0  0  0  0  0  0  0
  130.2080  126.6060   67.6940 N   0  0  0  0  0  0  0  0  0  0  0  0
  129.9720  125.3620   67.2250 C   0  0  0  0  0  0  0  0  0  0  0  0
  129.5220  124.4230   67.8830 O   0  0  0  0  0  0  0  0  0  0  0  0
  130.3100  125.1380   65.7470 C   0  0  0  0  0  0  0  0  0  0  0  0
  130.2290  123.3860   65.2460 S   0  0  0  0  0  0  0  0  0  0  0  0
  130.6000  123.2390   63.5020 C   0  0  0  0  0  0  0  0  0  0  0  0
  129.6100  122.7220   62.7300 N   0  0  0  0  0  0  0  0  0  0  0  0
  129.8260  122.5710   61.4040 C   0  0  0  0  0  0  0  0  0  0  0  0
  128.6830  121.9610   60.6140 C   0  0  0  0  0  0  0  0  0  0  0  0
  131.0230  122.9320   60.7930 C   0  0  0  0  0  0  0  0  0  0  0  0
  132.0570  123.4770   61.5690 C   0  0  0  0  0  0  0  0  0  0  0  0
  133.3750  123.8730   60.8760 C   0  0  0  0  0  0  0  0  0  0  0  0
  134.4000  123.2420   61.4480 F   0  0  0  0  0  0  0  0  0  0  0  0
  133.3280  123.5430   59.5850 F   0  0  0  0  0  0  0  0  0  0  0  0
  133.6210  125.1840   60.9470 F   0  0  0  0  0  0  0  0  0  0  0  0
  131.8450  123.6380   62.9620 C   0  0  0  0  0  0  0  0  0  0  0  0
  132.8930  124.1990   63.8210 C   0  0  0  0  0  0  0  0  0  0  0  0
  133.7200  124.6420   64.4990 N   0  0  0  0  0  0  0  0  0  0  0  0
  130.9260  127.8930   69.7040 C   0  0  0  0  0  0  0  0  0  0  0  0
  130.6020  128.3720   70.9710 C   0  0  0  0  0  0  0  0  0  0  0  0
  1  2  1  0
  2  3  1  0
  3  4  1  0
  4  5  2  0
  4  6  1  0
  6  7  2  0
  7  8  1  0
  8  9  2  0
  9 10  1  0
 10 11  1  0
 11 12  2  0
 11 13  1  0
 13 14  1  0
 14 15  1  0
 15 16  2  0
 16 17  1  0
 17 18  1  0
 17 19  2  0
 19 20  1  0
 20 21  1  0
 21 22  1  0
 21 23  1  0
 21 24  1  0
 20 25  2  0
 25 26  1  0
 26 27  3  0
  9 28  1  0
 28 29  2  0
 29  6  1  0
 25 15  1  0
M  END
>  <Binding energies>  (16) 
[-7.51]

>  <Ligand effiencies>  (16) 
[-0.25033333333333335]

>  <Interactions>  (16) 
["V-A:ASP:366:CG:3213, V-A:ASP:366:CB:3212, V-B:PRO:540:N:9856, V-B:PRO:540:CA:9855, V-B:TYR:539:CE2:9848, V-B:TYR:539:C:9839, V-B:PRO:540:C:9853, V-B:TYR:539:CD2:9846, V-A:ASP:366:CA:3210, V-A:ILE:369:CD1:3239, V-B:GLU:543:CG:9879, V-A:ILE:369:CB:3236, V-A:ILE:369:CG2:3237, V-A:LEU:475:CD2:4259, V-B:GLU:543:CB:9878, H-A:TYR:484:OH:4348, V-A:GLU:543:CD:4908, V-A:TYR:484:CE2:4346, H-A:ARG:545:NE:4924, V-B:HIS:456:CE1:9041, V-A:GLY:544:CA:4914, V-A:GLY:544:C:4912, H-A:LYS:547:NZ:4951, V-B:GLU:543:C:9874, V-B:HIS:456:CD2:9039, V-A:HIS:456:CE1:4070, V-A:GLU:543:C:4902, V-A:GLU:543:CB:4906, H-B:LYS:547:NZ:9923, H-A:GLU:543:OE2:4910, H-A:ARG:545:NH2:4928, H-A:GLY:454:N:4050, V-A:LYS:547:CE:4950"]

$$$$
2b_Grossjean_2025
     RDKit          3D

 28 29  0  0  0  0  0  0  0  0999 V2000
  129.4440  131.1680   73.2710 C   0  0  0  0  0  0  0  0  0  0  0  0
  130.0180  129.8770   73.1200 O   0  0  0  0  0  0  0  0  0  0  0  0
  129.2440  128.7970   72.8410 C   0  0  0  0  0  0  0  0  0  0  0  0
  128.4240  128.3240   73.6350 O   0  0  0  0  0  0  0  0  0  0  0  0
  129.4870  128.2300   71.4720 C   0  0  0  0  0  0  0  0  0  0  0  0
  128.4790  127.5730   70.7510 C   0  0  0  0  0  0  0  0  0  0  0  0
  128.7380  127.0580   69.4840 C   0  0  0  0  0  0  0  0  0  0  0  0
  130.0020  127.1920   68.9100 C   0  0  0  0  0  0  0  0  0  0  0  0
  130.1570  126.6290   67.6290 N   0  0  0  0  0  0  0  0  0  0  0  0
  129.9070  125.3730   67.2040 C   0  0  0  0  0  0  0  0  0  0  0  0
  129.5030  124.4480   67.9100 O   0  0  0  0  0  0  0  0  0  0  0  0
  130.1800  125.1200   65.7170 C   0  0  0  0  0  0  0  0  0  0  0  0
  130.0920  123.3570   65.2620 S   0  0  0  0  0  0  0  0  0  0  0  0
  130.6220  123.1370   63.5690 C   0  0  0  0  0  0  0  0  0  0  0  0
  129.7130  122.5710   62.7350 N   0  0  0  0  0  0  0  0  0  0  0  0
  130.0490  122.3700   61.4420 C   0  0  0  0  0  0  0  0  0  0  0  0
  128.9820  121.7200   60.5800 C   0  0  0  0  0  0  0  0  0  0  0  0
  131.2890  122.7280   60.9230 C   0  0  0  0  0  0  0  0  0  0  0  0
  132.2430  123.3220   61.7640 C   0  0  0  0  0  0  0  0  0  0  0  0
  133.6090  123.7170   61.1730 C   0  0  0  0  0  0  0  0  0  0  0  0
  134.5720  122.9650   61.7080 F   0  0  0  0  0  0  0  0  0  0  0  0
  133.6060  123.5390   59.8510 F   0  0  0  0  0  0  0  0  0  0  0  0
  133.9230  124.9940   61.4050 F   0  0  0  0  0  0  0  0  0  0  0  0
  131.9060  123.5330   63.1260 C   0  0  0  0  0  0  0  0  0  0  0  0
  132.8660  124.1440   64.0510 C   0  0  0  0  0  0  0  0  0  0  0  0
  133.6230  124.6270   64.7810 N   0  0  0  0  0  0  0  0  0  0  0  0
  131.0180  127.8410   69.6280 C   0  0  0  0  0  0  0  0  0  0  0  0
  130.7580  128.3550   70.8950 C   0  0  0  0  0  0  0  0  0  0  0  0
  1  2  1  0
  2  3  1  0
  3  4  2  0
  3  5  1  0
  5  6  2  0
  6  7  1  0
  7  8  2  0
  8  9  1  0
  9 10  1  0
 10 11  2  0
 10 12  1  0
 12 13  1  0
 13 14  1  0
 14 15  2  0
 15 16  1  0
 16 17  1  0
 16 18  2  0
 18 19  1  0
 19 20  1  0
 20 21  1  0
 20 22  1  0
 20 23  1  0
 19 24  2  0
 24 25  1  0
 25 26  3  0
  8 27  1  0
 27 28  2  0
 28  5  1  0
 24 14  1  0
M  END
>  <Binding energies>  (17) 
[-7.56]

>  <Ligand effiencies>  (17) 
[-0.26068965517241377]

>  <Interactions>  (17) 
["V-A:ASP:366:CG:3213, V-A:ASP:366:CB:3212, V-B:PRO:540:N:9856, V-B:PRO:540:CA:9855, V-B:TYR:539:CE2:9848, V-B:TYR:539:C:9839, V-B:PRO:540:C:9853, V-B:TYR:539:CD2:9846, V-A:ILE:369:CD1:3239, V-B:GLU:543:CG:9879, V-A:ILE:369:CB:3236, V-A:ILE:369:CG2:3237, V-A:LEU:475:CD2:4259, V-B:GLU:543:CB:9878, H-A:TYR:484:OH:4348, V-A:GLU:543:CD:4908, H-A:ARG:545:NE:4924, V-A:GLY:454:CA:4049, V-B:HIS:456:CE1:9041, V-A:GLY:544:CA:4914, V-A:GLY:544:C:4912, H-A:LYS:547:NZ:4951, V-B:HIS:456:CD2:9039, V-A:HIS:456:CE1:4070, V-A:GLU:543:C:4902, V-A:GLU:543:CB:4906, H-B:LYS:547:NZ:9923, H-A:GLU:543:OE1:4909, H-A:GLU:543:OE2:4910, H-A:ARG:545:NH2:4928, V-B:GLU:543:CA:9876, H-A:GLY:454:N:4050, V-A:LYS:547:CE:4950"]

$$$$
2c_Grossjean_2025
     RDKit          3D

 26 27  0  0  0  0  0  0  0  0999 V2000
  125.1010  122.0310   55.9730 C   0  0  0  0  0  0  0  0  0  0  0  0
  126.4390  122.0160   56.4610 O   0  0  0  0  0  0  0  0  0  0  0  0
  126.7530  122.7430   57.5930 C   0  0  0  0  0  0  0  0  0  0  0  0
  125.7220  123.4960   58.1530 C   0  0  0  0  0  0  0  0  0  0  0  0
  125.9410  124.2630   59.2950 C   0  0  0  0  0  0  0  0  0  0  0  0
  127.2130  124.2910   59.8850 C   0  0  0  0  0  0  0  0  0  0  0  0
  127.5260  125.0200   61.0470 N   0  0  0  0  0  0  0  0  0  0  0  0
  128.4770  125.9620   61.2210 C   0  0  0  0  0  0  0  0  0  0  0  0
  129.2900  126.3040   60.3600 O   0  0  0  0  0  0  0  0  0  0  0  0
  128.5220  126.5860   62.6240 C   0  0  0  0  0  0  0  0  0  0  0  0
  129.4590  125.6400   63.8750 S   0  0  0  0  0  0  0  0  0  0  0  0
  130.4490  124.3940   63.0590 C   0  0  0  0  0  0  0  0  0  0  0  0
  131.7770  124.6630   62.9730 N   0  0  0  0  0  0  0  0  0  0  0  0
  132.5860  123.7700   62.3610 C   0  0  0  0  0  0  0  0  0  0  0  0
  134.0520  124.1510   62.2900 C   0  0  0  0  0  0  0  0  0  0  0  0
  132.1130  122.5760   61.8200 C   0  0  0  0  0  0  0  0  0  0  0  0
  130.7470  122.2740   61.9050 C   0  0  0  0  0  0  0  0  0  0  0  0
  130.2400  120.9480   61.3040 C   0  0  0  0  0  0  0  0  0  0  0  0
  129.2620  121.1880   60.4300 F   0  0  0  0  0  0  0  0  0  0  0  0
  131.2360  120.3180   60.6790 F   0  0  0  0  0  0  0  0  0  0  0  0
  129.7560  120.1150   62.2290 F   0  0  0  0  0  0  0  0  0  0  0  0
  129.8860  123.2040   62.5400 C   0  0  0  0  0  0  0  0  0  0  0  0
  128.4470  122.9410   62.6550 C   0  0  0  0  0  0  0  0  0  0  0  0
  127.3130  122.7330   62.7460 N   0  0  0  0  0  0  0  0  0  0  0  0
  128.2440  123.5260   59.3370 C   0  0  0  0  0  0  0  0  0  0  0  0
  128.0200  122.7600   58.1970 C   0  0  0  0  0  0  0  0  0  0  0  0
  1  2  1  0
  2  3  1  0
  3  4  2  0
  4  5  1  0
  5  6  2  0
  6  7  1  0
  7  8  1  0
  8  9  2  0
  8 10  1  0
 10 11  1  0
 11 12  1  0
 12 13  2  0
 13 14  1  0
 14 15  1  0
 14 16  2  0
 16 17  1  0
 17 18  1  0
 18 19  1  0
 18 20  1  0
 18 21  1  0
 17 22  2  0
 22 23  1  0
 23 24  3  0
  6 25  1  0
 25 26  2  0
 26  3  1  0
 22 12  1  0
M  END
>  <Binding energies>  (18) 
[-6.01]

>  <Ligand effiencies>  (18) 
[-0.2225925925925926]

>  <Interactions>  (18) 
["V-B:TYR:539:CZ:9849, V-B:PRO:540:N:9856, V-B:PRO:540:CB:9857, V-B:PRO:540:CA:9855, V-B:TYR:539:CE2:9848, H-B:TYR:539:N:9842, V-B:PRO:540:CD:9859, V-B:MET:535:CE:9807, V-B:LEU:363:CD1:8160, V-B:PRO:540:CG:9858, V-B:TYR:539:C:9839, V-B:TYR:539:CG:9844, H-B:GLU:543:OE1:9881, V-B:PRO:540:C:9853, H-B:ALA:541:N:9863, V-B:TYR:539:CD2:9846, V-B:ALA:541:CB:9864, V-A:ILE:369:CD1:3239, V-B:GLU:543:CG:9879, V-A:LEU:475:CD2:4259, V-B:GLU:543:CD:9880, V-B:ALA:541:CA:9862, V-B:ILE:538:CG2:9835, V-B:ILE:538:CA:9832, V-A:LEU:475:CG:4257, V-A:LEU:475:CD1:4258, V-B:ILE:538:CB:9834"]

$$$$
2d_Ghoteimi_2023
     RDKit          3D

 38 42  0  0  0  0  0  0  0  0999 V2000
  132.4180  131.4110   62.2490 C   0  0  0  0  0  0  0  0  0  0  0  0
  131.1960  132.1320   62.2520 O   0  0  0  0  0  0  0  0  0  0  0  0
  130.3240  132.0080   61.2300 C   0  0  0  0  0  0  0  0  0  0  0  0
  130.4470  131.2380   60.2730 O   0  0  0  0  0  0  0  0  0  0  0  0
  129.1260  132.9540   61.4010 C   0  0  0  0  0  0  0  0  0  0  0  0
  127.5500  132.0890   61.0830 S   0  0  0  0  0  0  0  0  0  0  0  0
  127.6190  130.4940   61.8720 C   0  0  0  0  0  0  0  0  0  0  0  0
  127.4220  129.4630   61.0130 N   0  0  0  0  0  0  0  0  0  0  0  0
  127.4400  128.1890   61.4790 C   0  0  0  0  0  0  0  0  0  0  0  0
  127.1980  127.1070   60.4770 C   0  0  0  0  0  0  0  0  0  0  0  0
  126.8930  125.8060   60.8930 C   0  0  0  0  0  0  0  0  0  0  0  0
  126.6660  124.7930   59.9650 C   0  0  0  0  0  0  0  0  0  0  0  0
  126.7250  125.0470   58.5860 C   0  0  0  0  0  0  0  0  0  0  0  0
  126.5180  124.0370   57.6400 N   0  0  0  0  0  0  0  0  0  0  0  0
  127.6250  123.1850   57.1650 C   0  0  0  0  0  0  0  0  0  0  0  0
  127.2930  122.4000   55.8790 C   0  0  0  0  0  0  0  0  0  0  0  0
  126.1140  121.6340   56.0700 O   0  0  0  0  0  0  0  0  0  0  0  0
  125.0010  122.4580   56.3750 C   0  0  0  0  0  0  0  0  0  0  0  0
  125.2670  123.2510   57.6720 C   0  0  0  0  0  0  0  0  0  0  0  0
  127.0440  126.3490   58.1740 C   0  0  0  0  0  0  0  0  0  0  0  0
  127.2740  127.3610   59.1020 C   0  0  0  0  0  0  0  0  0  0  0  0
  127.6640  127.9190   62.8320 C   0  0  0  0  0  0  0  0  0  0  0  0
  127.9040  128.9630   63.7340 C   0  0  0  0  0  0  0  0  0  0  0  0
  128.1630  128.5980   65.1590 C   0  0  0  0  0  0  0  0  0  0  0  0
  128.8100  127.4010   65.4700 C   0  0  0  0  0  0  0  0  0  0  0  0
  129.0670  127.0570   66.7940 C   0  0  0  0  0  0  0  0  0  0  0  0
  128.6810  127.9030   67.8470 C   0  0  0  0  0  0  0  0  0  0  0  0
  128.9400  127.5840   69.1830 N   0  0  0  0  0  0  0  0  0  0  0  0
  127.8610  127.1600   70.0960 C   0  0  0  0  0  0  0  0  0  0  0  0
  128.3770  126.5140   71.4000 C   0  0  0  0  0  0  0  0  0  0  0  0
  129.2790  127.3930   72.0540 O   0  0  0  0  0  0  0  0  0  0  0  0
  130.4000  127.6960   71.2380 C   0  0  0  0  0  0  0  0  0  0  0  0
  129.9360  128.3750   69.9320 C   0  0  0  0  0  0  0  0  0  0  0  0
  128.0480  129.1110   67.5240 C   0  0  0  0  0  0  0  0  0  0  0  0
  127.7910  129.4540   66.1990 C   0  0  0  0  0  0  0  0  0  0  0  0
  127.8880  130.2940   63.2460 C   0  0  0  0  0  0  0  0  0  0  0  0
  128.1520  131.4190   64.1470 C   0  0  0  0  0  0  0  0  0  0  0  0
  128.3610  132.3050   64.8620 N   0  0  0  0  0  0  0  0  0  0  0  0
  1  2  1  0
  2  3  1  0
  3  4  2  0
  3  5  1  0
  5  6  1  0
  6  7  1  0
  7  8  2  0
  8  9  1  0
  9 10  1  0
 10 11  2  0
 11 12  1  0
 12 13  2  0
 13 14  1  0
 14 15  1  0
 15 16  1  0
 16 17  1  0
 17 18  1  0
 18 19  1  0
 13 20  1  0
 20 21  2  0
  9 22  2  0
 22 23  1  0
 23 24  1  0
 24 25  2  0
 25 26  1  0
 26 27  2  0
 27 28  1  0
 28 29  1  0
 29 30  1  0
 30 31  1  0
 31 32  1  0
 32 33  1  0
 27 34  1  0
 34 35  2  0
 23 36  2  0
 36 37  1  0
 37 38  3  0
 36  7  1  0
 21 10  1  0
 35 24  1  0
 19 14  1  0
 33 28  1  0
M  END
>  <Binding energies>  (19) 
[-10.07]

>  <Ligand effiencies>  (19) 
[-0.265]

>  <Interactions>  (19) 
["V-A:PRO:540:CA:4883, V-B:TYR:539:CZ:9849, V-B:PRO:540:N:9856, V-B:TYR:539:CE1:9847, V-B:PRO:540:CB:9857, V-B:TYR:539:CD1:9845, V-B:PRO:540:CA:9855, V-B:TYR:539:CE2:9848, H-B:TYR:539:N:9842, V-B:PRO:540:CD:9859, V-B:MET:535:CE:9807, V-B:LEU:363:CD1:8160, V-B:PRO:540:CG:9858, V-B:TYR:539:CG:9844, V-B:TYR:539:CD2:9846, V-B:GLU:543:CG:9879, V-B:GLU:543:CB:9878, V-A:GLU:543:CD:4908, V-B:GLU:543:CD:9880, V-B:HIS:456:CE1:9041, V-A:GLY:544:C:4912, V-B:GLU:543:C:9874, V-A:HIS:456:CE1:4070, V-A:GLU:543:CG:4907, V-A:GLU:543:C:4902, V-A:GLU:543:CB:4906, V-B:TYR:484:CZ:9318, H-B:TYR:484:OH:9319, V-A:PRO:540:C:4881, H-A:ALA:541:N:4891, V-B:ILE:538:CG2:9835, V-B:ILE:538:CA:9832"]

$$$$
2d_Grossjean_2025
     RDKit          3D

 24 25  0  0  0  0  0  0  0  0999 V2000
  129.1940  122.4980   61.2490 C   0  0  0  0  0  0  0  0  0  0  0  0
  129.0150  123.2170   59.9250 C   0  0  0  0  0  0  0  0  0  0  0  0
  128.1640  122.7270   58.9380 C   0  0  0  0  0  0  0  0  0  0  0  0
  128.0290  123.4300   57.7320 C   0  0  0  0  0  0  0  0  0  0  0  0
  127.0740  122.8780   56.6560 C   0  0  0  0  0  0  0  0  0  0  0  0
  126.6300  121.6730   57.0150 F   0  0  0  0  0  0  0  0  0  0  0  0
  126.0310  123.6960   56.5060 F   0  0  0  0  0  0  0  0  0  0  0  0
  127.6580  122.7510   55.4630 F   0  0  0  0  0  0  0  0  0  0  0  0
  128.7760  124.6230   57.5550 C   0  0  0  0  0  0  0  0  0  0  0  0
  128.6350  125.4180   56.3330 C   0  0  0  0  0  0  0  0  0  0  0  0
  128.5220  126.0470   55.3680 N   0  0  0  0  0  0  0  0  0  0  0  0
  129.6350  125.0310   58.6030 C   0  0  0  0  0  0  0  0  0  0  0  0
  130.6670  126.4830   58.5350 S   0  0  0  0  0  0  0  0  0  0  0  0
  132.2370  126.0480   57.7180 C   0  0  0  0  0  0  0  0  0  0  0  0
  132.9500  124.8650   58.3800 C   0  0  0  0  0  0  0  0  0  0  0  0
  133.8090  124.2530   57.7450 O   0  0  0  0  0  0  0  0  0  0  0  0
  132.5430  124.5650   59.6310 N   0  0  0  0  0  0  0  0  0  0  0  0
  132.9990  123.5510   60.4950 C   0  0  0  0  0  0  0  0  0  0  0  0
  133.6510  123.9810   61.6530 C   0  0  0  0  0  0  0  0  0  0  0  0
  134.1440  123.0530   62.5660 C   0  0  0  0  0  0  0  0  0  0  0  0
  133.9920  121.6910   62.3160 C   0  0  0  0  0  0  0  0  0  0  0  0
  133.3560  121.2510   61.1580 C   0  0  0  0  0  0  0  0  0  0  0  0
  132.8610  122.1760   60.2440 C   0  0  0  0  0  0  0  0  0  0  0  0
  129.7370  124.3500   59.7700 N   0  0  0  0  0  0  0  0  0  0  0  0
  1  2  1  0
  2  3  2  0
  3  4  1  0
  4  5  1  0
  5  6  1  0
  5  7  1  0
  5  8  1  0
  4  9  2  0
  9 10  1  0
 10 11  3  0
  9 12  1  0
 12 13  1  0
 13 14  1  0
 14 15  1  0
 15 16  2  0
 15 17  1  0
 17 18  1  0
 18 19  2  0
 19 20  1  0
 20 21  2  0
 21 22  1  0
 22 23  2  0
 12 24  2  0
 24  2  1  0
 23 18  1  0
M  END
>  <Binding energies>  (20) 
[-6.28]

>  <Ligand effiencies>  (20) 
[-0.25120000000000003]

>  <Interactions>  (20) 
["H-A:TYR:531:OH:4795, H-B:TYR:539:OH:9850, V-A:ASP:366:CB:3212, V-B:TYR:539:CZ:9849, V-B:PRO:540:N:9856, V-B:TYR:539:CE1:9847, V-B:PRO:540:CB:9857, V-B:TYR:539:CD1:9845, V-B:PRO:540:CA:9855, V-B:TYR:539:CE2:9848, V-B:PRO:540:CD:9859, V-B:MET:535:CE:9807, V-B:PRO:540:CG:9858, V-B:TYR:539:C:9839, V-B:TYR:539:CG:9844, V-B:TYR:539:CD2:9846, V-A:ASP:366:CA:3210, V-A:ILE:369:CD1:3239, H-A:ASN:370:N:3244, V-A:ILE:369:CG2:3237, V-A:LEU:475:CD2:4259, V-A:GLY:454:CA:4049, V-A:TYR:531:CZ:4794, V-A:GLY:453:C:4042, V-B:TYR:539:CA:9841, V-B:ILE:538:C:9830, V-A:SER:385:CB:3409, V-A:SER:385:C:3405"]

$$$$
2e_Grossjean_2025
     RDKit          3D

 25 26  0  0  0  0  0  0  0  0999 V2000
  132.1050  120.1010   60.8120 C   0  0  0  0  0  0  0  0  0  0  0  0
  132.7680  121.4450   61.0500 C   0  0  0  0  0  0  0  0  0  0  0  0
  133.7580  121.6110   62.0220 C   0  0  0  0  0  0  0  0  0  0  0  0
  134.3310  122.8740   62.1760 C   0  0  0  0  0  0  0  0  0  0  0  0
  133.9060  123.9290   61.3660 C   0  0  0  0  0  0  0  0  0  0  0  0
  132.9030  123.6960   60.4180 C   0  0  0  0  0  0  0  0  0  0  0  0
  132.5440  124.7810   59.6000 N   0  0  0  0  0  0  0  0  0  0  0  0
  132.9330  125.0320   58.3310 C   0  0  0  0  0  0  0  0  0  0  0  0
  133.6330  124.2850   57.6450 O   0  0  0  0  0  0  0  0  0  0  0  0
  132.4880  126.3790   57.7520 C   0  0  0  0  0  0  0  0  0  0  0  0
  130.9620  126.9900   58.5360 S   0  0  0  0  0  0  0  0  0  0  0  0
  129.8680  125.5890   58.6010 C   0  0  0  0  0  0  0  0  0  0  0  0
  129.7770  124.9980   59.8180 N   0  0  0  0  0  0  0  0  0  0  0  0
  129.0010  123.8980   59.9460 C   0  0  0  0  0  0  0  0  0  0  0  0
  128.9440  123.2890   61.3330 C   0  0  0  0  0  0  0  0  0  0  0  0
  128.2980  123.3450   58.8770 C   0  0  0  0  0  0  0  0  0  0  0  0
  128.3880  123.9390   57.6090 C   0  0  0  0  0  0  0  0  0  0  0  0
  127.6220  123.3040   56.4340 C   0  0  0  0  0  0  0  0  0  0  0  0
  127.4910  121.9910   56.6280 F   0  0  0  0  0  0  0  0  0  0  0  0
  126.4100  123.8490   56.3320 F   0  0  0  0  0  0  0  0  0  0  0  0
  128.2400  123.4760   55.2630 F   0  0  0  0  0  0  0  0  0  0  0  0
  129.1930  125.0960   57.4600 C   0  0  0  0  0  0  0  0  0  0  0  0
  129.3530  125.7450   56.1560 C   0  0  0  0  0  0  0  0  0  0  0  0
  129.4790  126.2570   55.1250 N   0  0  0  0  0  0  0  0  0  0  0  0
  132.3430  122.4610   60.2550 N   0  0  0  0  0  0  0  0  0  0  0  0
  1  2  1  0
  2  3  2  0
  3  4  1  0
  4  5  2  0
  5  6  1  0
  6  7  1  0
  7  8  1  0
  8  9  2  0
  8 10  1  0
 10 11  1  0
 11 12  1  0
 12 13  2  0
 13 14  1  0
 14 15  1  0
 14 16  2  0
 16 17  1  0
 17 18  1  0
 18 19  1  0
 18 20  1  0
 18 21  1  0
 17 22  2  0
 22 23  1  0
 23 24  3  0
  6 25  2  0
 25  2  1  0
 22 12  1  0
M  END
>  <Binding energies>  (21) 
[-6.35]

>  <Ligand effiencies>  (21) 
[-0.24423076923076922]

>  <Interactions>  (21) 
["V-A:ASP:366:CG:3213, H-A:TYR:531:OH:4795, H-B:TYR:539:OH:9850, V-A:ASP:366:CB:3212, V-B:TYR:539:CZ:9849, V-B:PRO:540:N:9856, V-B:TYR:539:CE1:9847, V-B:TYR:539:CD1:9845, V-B:TYR:539:CE2:9848, V-B:PRO:540:CD:9859, V-B:MET:535:CE:9807, V-B:TYR:539:C:9839, V-B:TYR:539:CG:9844, V-B:TYR:539:CD2:9846, V-A:ASP:366:C:3208, V-A:ASP:366:CA:3210, V-A:ILE:369:CD1:3239, V-A:ILE:369:CG2:3237, V-A:LEU:475:CD2:4259, V-A:GLY:454:CA:4049, V-A:TYR:531:CZ:4794, V-B:TYR:539:CA:9841, V-B:TYR:539:CB:9843, V-B:ILE:538:C:9830, V-A:SER:385:CB:3409"]

$$$$
2f_Grossjean_2025
     RDKit          3D

 24 25  0  0  0  0  0  0  0  0999 V2000
  129.3090  122.4840   61.1580 C   0  0  0  0  0  0  0  0  0  0  0  0
  129.0790  123.2100   59.8460 C   0  0  0  0  0  0  0  0  0  0  0  0
  128.1720  122.7390   58.8990 C   0  0  0  0  0  0  0  0  0  0  0  0
  128.0010  123.4420   57.6970 C   0  0  0  0  0  0  0  0  0  0  0  0
  127.0020  122.8980   56.6580 C   0  0  0  0  0  0  0  0  0  0  0  0
  125.9780  123.7430   56.5210 F   0  0  0  0  0  0  0  0  0  0  0  0
  127.6050  122.7560   55.4780 F   0  0  0  0  0  0  0  0  0  0  0  0
  126.4970  121.7100   56.9980 F   0  0  0  0  0  0  0  0  0  0  0  0
  128.7600  124.6230   57.4880 C   0  0  0  0  0  0  0  0  0  0  0  0
  128.6590  125.3600   56.2260 C   0  0  0  0  0  0  0  0  0  0  0  0
  128.5780  125.9420   55.2290 N   0  0  0  0  0  0  0  0  0  0  0  0
  129.6380  125.0400   58.5160 C   0  0  0  0  0  0  0  0  0  0  0  0
  130.6560  126.5000   58.4290 S   0  0  0  0  0  0  0  0  0  0  0  0
  132.2550  126.0310   57.6840 C   0  0  0  0  0  0  0  0  0  0  0  0
  132.9950  124.8890   58.3960 C   0  0  0  0  0  0  0  0  0  0  0  0
  133.8840  124.2610   57.8190 O   0  0  0  0  0  0  0  0  0  0  0  0
  132.5730  124.6480   59.6560 N   0  0  0  0  0  0  0  0  0  0  0  0
  133.0310  123.6960   60.5860 C   0  0  0  0  0  0  0  0  0  0  0  0
  133.0370  122.3020   60.3920 C   0  0  0  0  0  0  0  0  0  0  0  0
  133.5250  121.4660   61.3980 C   0  0  0  0  0  0  0  0  0  0  0  0
  134.0010  122.0450   62.5750 C   0  0  0  0  0  0  0  0  0  0  0  0
  134.0130  123.3860   62.7840 N   0  0  0  0  0  0  0  0  0  0  0  0
  133.5360  124.1850   61.7960 C   0  0  0  0  0  0  0  0  0  0  0  0
  129.8070  124.3350   59.6620 N   0  0  0  0  0  0  0  0  0  0  0  0
  1  2  1  0
  2  3  2  0
  3  4  1  0
  4  5  1  0
  5  6  1  0
  5  7  1  0
  5  8  1  0
  4  9  2  0
  9 10  1  0
 10 11  3  0
  9 12  1  0
 12 13  1  0
 13 14  1  0
 14 15  1  0
 15 16  2  0
 15 17  1  0
 17 18  1  0
 18 19  2  0
 19 20  1  0
 20 21  2  0
 21 22  1  0
 22 23  2  0
 12 24  2  0
 24  2  1  0
 23 18  1  0
M  END
>  <Binding energies>  (22) 
[-6.14]

>  <Ligand effiencies>  (22) 
[-0.24559999999999998]

>  <Interactions>  (22) 
["V-A:ASP:366:CG:3213, H-A:TYR:531:OH:4795, H-B:TYR:539:OH:9850, V-A:ASP:366:CB:3212, V-B:TYR:539:CZ:9849, V-B:PRO:540:N:9856, V-B:TYR:539:CE1:9847, V-B:PRO:540:CB:9857, V-B:TYR:539:CD1:9845, V-B:PRO:540:CA:9855, V-B:TYR:539:CE2:9848, V-B:PRO:540:CD:9859, V-B:MET:535:CE:9807, V-B:PRO:540:CG:9858, V-B:TYR:539:C:9839, V-B:TYR:539:CG:9844, V-B:TYR:539:CD2:9846, V-A:ASP:366:CA:3210, V-A:ILE:369:CD1:3239, H-A:ASN:370:N:3244, V-A:ILE:369:CG2:3237, V-A:LEU:475:CD2:4259, V-A:GLY:454:CA:4049, V-A:TYR:531:CZ:4794, H-A:GLY:454:N:4050, V-B:TYR:539:CA:9841, V-B:ILE:538:C:9830, V-A:SER:385:CB:3409"]

$$$$
2g_Grossjean_2025
     RDKit          3D

 25 26  0  0  0  0  0  0  0  0999 V2000
  126.3760  128.6680   58.6880 C   0  0  0  0  0  0  0  0  0  0  0  0
  126.4980  127.2170   58.2640 C   0  0  0  0  0  0  0  0  0  0  0  0
  127.6710  126.7180   57.7020 C   0  0  0  0  0  0  0  0  0  0  0  0
  127.7330  125.3700   57.3190 C   0  0  0  0  0  0  0  0  0  0  0  0
  129.0360  124.8380   56.6910 C   0  0  0  0  0  0  0  0  0  0  0  0
  129.8100  124.2890   57.6280 F   0  0  0  0  0  0  0  0  0  0  0  0
  128.7500  123.9150   55.7710 F   0  0  0  0  0  0  0  0  0  0  0  0
  129.7500  125.7950   56.0940 F   0  0  0  0  0  0  0  0  0  0  0  0
  126.5920  124.5530   57.5260 C   0  0  0  0  0  0  0  0  0  0  0  0
  126.5840  123.1530   57.0910 C   0  0  0  0  0  0  0  0  0  0  0  0
  126.5780  122.0480   56.7480 N   0  0  0  0  0  0  0  0  0  0  0  0
  125.4540  125.1400   58.1310 C   0  0  0  0  0  0  0  0  0  0  0  0
  123.9510  124.2550   58.4860 S   0  0  0  0  0  0  0  0  0  0  0  0
  123.9390  123.8890   60.2740 C   0  0  0  0  0  0  0  0  0  0  0  0
  125.3270  123.8400   60.9280 C   0  0  0  0  0  0  0  0  0  0  0  0
  125.7150  122.8400   61.5350 O   0  0  0  0  0  0  0  0  0  0  0  0
  126.0680  124.9550   60.7940 N   0  0  0  0  0  0  0  0  0  0  0  0
  127.4210  125.1430   61.3210 C   0  0  0  0  0  0  0  0  0  0  0  0
  128.2300  123.8570   61.4520 C   0  0  0  0  0  0  0  0  0  0  0  0
  128.5510  123.1180   60.3100 C   0  0  0  0  0  0  0  0  0  0  0  0
  129.3220  121.9640   60.4220 C   0  0  0  0  0  0  0  0  0  0  0  0
  129.7770  121.5580   61.6740 C   0  0  0  0  0  0  0  0  0  0  0  0
  129.4710  122.2970   62.8150 C   0  0  0  0  0  0  0  0  0  0  0  0
  128.7010  123.4510   62.7030 C   0  0  0  0  0  0  0  0  0  0  0  0
  125.4050  126.4500   58.4740 N   0  0  0  0  0  0  0  0  0  0  0  0
  1  2  1  0
  2  3  2  0
  3  4  1  0
  4  5  1  0
  5  6  1  0
  5  7  1  0
  5  8  1  0
  4  9  2  0
  9 10  1  0
 10 11  3  0
  9 12  1  0
 12 13  1  0
 13 14  1  0
 14 15  1  0
 15 16  2  0
 15 17  1  0
 17 18  1  0
 18 19  1  0
 19 20  2  0
 20 21  1  0
 21 22  2  0
 22 23  1  0
 23 24  2  0
 12 25  2  0
 25  2  1  0
 24 19  1  0
M  END
>  <Binding energies>  (23) 
[-6.59]

>  <Ligand effiencies>  (23) 
[-0.25346153846153846]

>  <Interactions>  (23) 
["V-B:TYR:539:CZ:9849, V-B:PRO:540:N:9856, V-B:TYR:539:CE1:9847, V-B:PRO:540:CB:9857, V-B:TYR:539:CD1:9845, V-B:PRO:540:CA:9855, V-B:TYR:539:CE2:9848, H-B:TYR:539:N:9842, H-B:TYR:531:OH:9767, H-B:ASP:366:OD1:8185, V-B:ASP:366:CG:8184, V-B:TYR:539:C:9839, H-B:GLU:543:OE1:9881, H-B:ALA:541:N:9863, V-B:TYR:539:CD2:9846, V-B:LEU:363:CA:8156, V-B:ALA:541:CB:9864, V-B:GLU:543:CG:9879, V-A:LEU:475:CD2:4259, V-B:GLU:543:CD:9880, V-B:ASN:362:CB:8147, V-B:ASN:362:C:8143"]

$$$$
2h_Grossjean_2025
     RDKit          3D

 31 32  0  0  0  0  0  0  0  0999 V2000
  128.3320  133.2510   55.1750 C   0  0  0  0  0  0  0  0  0  0  0  0
  129.5340  133.5580   55.8720 O   0  0  0  0  0  0  0  0  0  0  0  0
  129.7950  132.9390   57.0810 C   0  0  0  0  0  0  0  0  0  0  0  0
  128.8310  132.7360   58.0810 C   0  0  0  0  0  0  0  0  0  0  0  0
  129.1660  132.0970   59.2720 C   0  0  0  0  0  0  0  0  0  0  0  0
  130.4690  131.6470   59.4920 C   0  0  0  0  0  0  0  0  0  0  0  0
  130.8090  130.9300   60.7970 C   0  0  0  0  0  0  0  0  0  0  0  0
  131.2090  129.5350   60.6140 N   0  0  0  0  0  0  0  0  0  0  0  0
  130.5130  128.6190   59.9160 C   0  0  0  0  0  0  0  0  0  0  0  0
  129.4090  128.8450   59.4190 O   0  0  0  0  0  0  0  0  0  0  0  0
  131.1900  127.2500   59.7610 C   0  0  0  0  0  0  0  0  0  0  0  0
  130.1310  125.8180   60.1540 S   0  0  0  0  0  0  0  0  0  0  0  0
  129.2750  125.3860   58.6540 C   0  0  0  0  0  0  0  0  0  0  0  0
  129.4130  126.3020   57.6640 N   0  0  0  0  0  0  0  0  0  0  0  0
  128.7870  126.0820   56.4870 C   0  0  0  0  0  0  0  0  0  0  0  0
  128.9790  127.1510   55.4280 C   0  0  0  0  0  0  0  0  0  0  0  0
  128.0110  124.9500   56.2470 C   0  0  0  0  0  0  0  0  0  0  0  0
  127.8730  123.9810   57.2520 C   0  0  0  0  0  0  0  0  0  0  0  0
  127.0180  122.7320   56.9660 C   0  0  0  0  0  0  0  0  0  0  0  0
  125.8520  122.8210   57.6060 F   0  0  0  0  0  0  0  0  0  0  0  0
  126.7500  122.5760   55.6670 F   0  0  0  0  0  0  0  0  0  0  0  0
  127.6550  121.6350   57.3780 F   0  0  0  0  0  0  0  0  0  0  0  0
  128.5300  124.1940   58.4920 C   0  0  0  0  0  0  0  0  0  0  0  0
  128.4660  123.1850   59.5530 C   0  0  0  0  0  0  0  0  0  0  0  0
  128.4170  122.3860   60.3880 N   0  0  0  0  0  0  0  0  0  0  0  0
  131.4490  131.8640   58.5110 C   0  0  0  0  0  0  0  0  0  0  0  0
  132.7350  131.4270   58.7210 O   0  0  0  0  0  0  0  0  0  0  0  0
  133.0830  130.2560   57.9940 C   0  0  0  0  0  0  0  0  0  0  0  0
  131.1040  132.4920   57.3020 C   0  0  0  0  0  0  0  0  0  0  0  0
  132.0570  132.6900   56.3320 O   0  0  0  0  0  0  0  0  0  0  0  0
  132.0040  131.7520   55.2660 C   0  0  0  0  0  0  0  0  0  0  0  0
  1  2  1  0
  2  3  1  0
  3  4  2  0
  4  5  1  0
  5  6  2  0
  6  7  1  0
  7  8  1  0
  8  9  1  0
  9 10  2  0
  9 11  1  0
 11 12  1  0
 12 13  1  0
 13 14  2  0
 14 15  1  0
 15 16  1  0
 15 17  2  0
 17 18  1  0
 18 19  1  0
 19 20  1  0
 19 21  1  0
 19 22  1  0
 18 23  2  0
 23 24  1  0
 24 25  3  0
  6 26  1  0
 26 27  1  0
 27 28  1  0
 26 29  2  0
 29 30  1  0
 30 31  1  0
 29  3  1  0
 23 13  1  0
M  END
>  <Binding energies>  (24) 
[-6.2]

>  <Ligand effiencies>  (24) 
[-0.19375]

>  <Interactions>  (24) 
["V-A:LEU:363:CD1:3189, V-A:ASP:366:CG:3213, V-A:PRO:540:CA:4883, V-A:PRO:540:CB:4885, H-A:ASP:366:OD2:3215, V-A:PRO:540:N:4884, V-A:TYR:539:C:4867, V-A:ASP:366:CB:3212, H-A:TYR:539:N:4870, V-B:TYR:539:CZ:9849, V-B:PRO:540:N:9856, V-B:TYR:539:CE1:9847, V-B:PRO:540:CB:9857, V-B:TYR:539:CD1:9845, V-B:PRO:540:CA:9855, V-B:TYR:539:CE2:9848, V-B:PRO:540:CD:9859, V-B:MET:535:CE:9807, V-B:PRO:540:CG:9858, V-B:TYR:539:C:9839, V-B:TYR:539:CG:9844, V-B:TYR:539:CD2:9846, V-A:MET:535:CE:4835, V-A:TYR:531:CZ:4794, H-A:GLU:543:OE1:4909, V-A:TYR:539:CE1:4875, V-A:TYR:539:CZ:4877, V-A:TYR:539:CD1:4873, V-A:TYR:539:CD2:4874, V-A:ILE:538:CA:4860, V-A:TYR:539:CG:4872, V-A:TYR:539:CE2:4876, V-A:TYR:531:CE2:4793, V-A:ILE:538:C:4858, V-A:ILE:538:CG2:4863, V-A:ILE:538:CB:4862, V-B:ILE:538:CA:9832, V-B:TYR:539:CA:9841, V-B:TYR:539:CB:9843, H-A:ASP:366:OD1:3214, V-A:MET:535:CG:4833"]

$$$$
2i_Grossjean_2025
     RDKit          3D

 23 24  0  0  0  0  0  0  0  0999 V2000
  129.9870  127.1420   62.2500 C   0  0  0  0  0  0  0  0  0  0  0  0
  130.9210  126.3940   61.3160 C   0  0  0  0  0  0  0  0  0  0  0  0
  131.9610  125.6060   61.8020 C   0  0  0  0  0  0  0  0  0  0  0  0
  132.7950  124.9330   60.8980 C   0  0  0  0  0  0  0  0  0  0  0  0
  133.9410  124.0650   61.4530 C   0  0  0  0  0  0  0  0  0  0  0  0
  133.8530  122.8260   60.9650 F   0  0  0  0  0  0  0  0  0  0  0  0
  135.1190  124.5840   61.1040 F   0  0  0  0  0  0  0  0  0  0  0  0
  133.9230  123.9740   62.7850 F   0  0  0  0  0  0  0  0  0  0  0  0
  132.5490  125.0800   59.5100 C   0  0  0  0  0  0  0  0  0  0  0  0
  133.3900  124.3980   58.5210 C   0  0  0  0  0  0  0  0  0  0  0  0
  134.0530  123.8600   57.7400 N   0  0  0  0  0  0  0  0  0  0  0  0
  131.4730  125.9030   59.1040 C   0  0  0  0  0  0  0  0  0  0  0  0
  131.0730  126.1690   57.3840 S   0  0  0  0  0  0  0  0  0  0  0  0
  129.2660  126.3110   57.2390 C   0  0  0  0  0  0  0  0  0  0  0  0
  128.5680  124.9530   57.3320 C   0  0  0  0  0  0  0  0  0  0  0  0
  129.1100  124.0430   57.9610 O   0  0  0  0  0  0  0  0  0  0  0  0
  127.3920  124.8500   56.6750 N   0  0  0  0  0  0  0  0  0  0  0  0
  126.5850  123.7270   56.5950 C   0  0  0  0  0  0  0  0  0  0  0  0
  125.2250  123.5690   56.8970 C   0  0  0  0  0  0  0  0  0  0  0  0
  124.9580  122.2470   56.6270 C   0  0  0  0  0  0  0  0  0  0  0  0
  126.0880  121.6490   56.1810 O   0  0  0  0  0  0  0  0  0  0  0  0
  127.1090  122.6020   56.1610 N   0  0  0  0  0  0  0  0  0  0  0  0
  130.6750  126.5450   59.9960 N   0  0  0  0  0  0  0  0  0  0  0  0
  1  2  1  0
  2  3  2  0
  3  4  1  0
  4  5  1  0
  5  6  1  0
  5  7  1  0
  5  8  1  0
  4  9  2  0
  9 10  1  0
 10 11  3  0
  9 12  1  0
 12 13  1  0
 13 14  1  0
 14 15  1  0
 15 16  2  0
 15 17  1  0
 17 18  1  0
 18 19  1  0
 19 20  2  0
 20 21  1  0
 21 22  1  0
 12 23  2  0
 23  2  1  0
 22 18  2  0
M  END
>  <Binding energies>  (25) 
[-6.02]

>  <Ligand effiencies>  (25) 
[-0.2508333333333333]

>  <Interactions>  (25) 
["V-A:ASP:366:CG:3213, H-A:TYR:531:OH:4795, H-B:TYR:539:OH:9850, V-A:ASP:366:CB:3212, V-B:TYR:539:CZ:9849, V-B:PRO:540:N:9856, V-B:PRO:540:CB:9857, V-B:PRO:540:CA:9855, V-B:TYR:539:CE2:9848, H-B:TYR:539:N:9842, H-B:TYR:531:OH:9767, V-B:PRO:540:CD:9859, V-B:MET:535:CE:9807, V-B:LEU:363:CD1:8160, V-B:PRO:540:CG:9858, V-A:ASP:366:C:3208, V-A:ASP:366:CA:3210, V-A:ILE:369:CD1:3239, H-A:ASN:370:N:3244, V-A:ILE:369:CG2:3237, V-A:GLU:543:CD:4908, V-A:GLY:454:CA:4049, V-B:ILE:538:CG2:9835, H-B:MET:535:SD:9806, V-A:ILE:369:CG1:3238"]

$$$$
2k_Grossjean_2025
     RDKit          3D

 28 28  0  0  0  0  0  0  0  0999 V2000
  125.0820  122.7690   56.8690 C   0  0  0  0  0  0  0  0  0  0  0  0
  125.9940  121.9130   56.2000 O   0  0  0  0  0  0  0  0  0  0  0  0
  127.2560  122.5170   55.9450 C   0  0  0  0  0  0  0  0  0  0  0  0
  127.5180  123.6230   56.9760 C   0  0  0  0  0  0  0  0  0  0  0  0
  128.6070  123.2380   57.8020 O   0  0  0  0  0  0  0  0  0  0  0  0
  128.2310  122.8180   59.1080 C   0  0  0  0  0  0  0  0  0  0  0  0
  128.4410  123.9910   60.0740 C   0  0  0  0  0  0  0  0  0  0  0  0
  129.1830  123.5120   61.1840 O   0  0  0  0  0  0  0  0  0  0  0  0
  128.5710  122.4560   61.9100 C   0  0  0  0  0  0  0  0  0  0  0  0
  129.5040  121.2310   61.8920 C   0  0  0  0  0  0  0  0  0  0  0  0
  130.8120  121.5170   61.2970 N   0  0  0  0  0  0  0  0  0  0  0  0
  131.6440  120.6050   60.7590 C   0  0  0  0  0  0  0  0  0  0  0  0
  131.3750  119.4040   60.6830 O   0  0  0  0  0  0  0  0  0  0  0  0
  132.9890  121.1460   60.2530 C   0  0  0  0  0  0  0  0  0  0  0  0
  133.6880  122.5310   61.2180 S   0  0  0  0  0  0  0  0  0  0  0  0
  132.6650  123.9810   61.0020 C   0  0  0  0  0  0  0  0  0  0  0  0
  131.9630  124.3740   62.0960 N   0  0  0  0  0  0  0  0  0  0  0  0
  131.1650  125.4610   62.0040 C   0  0  0  0  0  0  0  0  0  0  0  0
  130.4060  125.8280   63.2640 C   0  0  0  0  0  0  0  0  0  0  0  0
  131.0420  126.2050   60.8340 C   0  0  0  0  0  0  0  0  0  0  0  0
  131.7650  125.8230   59.6930 C   0  0  0  0  0  0  0  0  0  0  0  0
  131.6200  126.6610   58.4080 C   0  0  0  0  0  0  0  0  0  0  0  0
  130.6920  126.1800   57.5800 F   0  0  0  0  0  0  0  0  0  0  0  0
  131.2740  127.9120   58.7150 F   0  0  0  0  0  0  0  0  0  0  0  0
  132.7770  126.6830   57.7450 F   0  0  0  0  0  0  0  0  0  0  0  0
  132.6000  124.6790   59.7730 C   0  0  0  0  0  0  0  0  0  0  0  0
  133.3750  124.2320   58.6120 C   0  0  0  0  0  0  0  0  0  0  0  0
  133.9870  123.8800   57.6940 N   0  0  0  0  0  0  0  0  0  0  0  0
  1  2  1  0
  2  3  1  0
  3  4  1  0
  4  5  1  0
  5  6  1  0
  6  7  1  0
  7  8  1  0
  8  9  1  0
  9 10  1  0
 10 11  1  0
 11 12  1  0
 12 13  2  0
 12 14  1  0
 14 15  1  0
 15 16  1  0
 16 17  2  0
 17 18  1  0
 18 19  1  0
 18 20  2  0
 20 21  1  0
 21 22  1  0
 22 23  1  0
 22 24  1  0
 22 25  1  0
 21 26  2  0
 26 27  1  0
 27 28  3  0
 26 16  1  0
M  END
>  <Binding energies>  (26) 
[-4.91]

>  <Ligand effiencies>  (26) 
[-0.16931034482758622]

>  <Interactions>  (26) 
["V-A:ASP:366:CG:3213, H-B:TYR:539:OH:9850, V-A:ASP:366:CB:3212, V-B:TYR:539:CZ:9849, V-B:PRO:540:N:9856, V-B:TYR:539:CE1:9847, V-B:PRO:540:CB:9857, V-B:TYR:539:CD1:9845, V-B:PRO:540:CA:9855, V-B:TYR:539:CE2:9848, H-B:TYR:539:N:9842, V-B:PRO:540:CD:9859, V-B:MET:535:CE:9807, V-B:LEU:363:CD1:8160, V-B:PRO:540:CG:9858, V-B:TYR:539:C:9839, V-B:TYR:539:CG:9844, V-B:TYR:539:CD2:9846, V-B:ALA:541:CB:9864, V-A:ASP:366:C:3208, V-A:ASP:366:CA:3210, H-A:ASN:370:N:3244, V-A:ILE:369:CB:3236, V-A:ILE:369:CG2:3237, V-A:LEU:475:CD2:4259, V-A:TYR:531:CZ:4794, H-A:SER:385:OG:3410, H-A:HIS:383:HE2:3395"]

$$$$
3aa_Grossjean_2025
     RDKit          3D

 34 36  0  0  0  0  0  0  0  0999 V2000
  128.9530  125.3400   55.4850 C   0  0  0  0  0  0  0  0  0  0  0  0
  128.3350  124.8490   56.7980 C   0  0  0  0  0  0  0  0  0  0  0  0
  127.1680  124.0870   56.5170 O   0  0  0  0  0  0  0  0  0  0  0  0
  126.8890  122.9540   57.2100 C   0  0  0  0  0  0  0  0  0  0  0  0
  126.3940  121.9460   56.6970 O   0  0  0  0  0  0  0  0  0  0  0  0
  127.2270  123.0530   58.6710 C   0  0  0  0  0  0  0  0  0  0  0  0
  128.3700  122.4450   59.2120 C   0  0  0  0  0  0  0  0  0  0  0  0
  128.6570  122.5610   60.5700 C   0  0  0  0  0  0  0  0  0  0  0  0
  127.8140  123.2900   61.4110 C   0  0  0  0  0  0  0  0  0  0  0  0
  128.1970  123.3480   62.7660 N   0  0  0  0  0  0  0  0  0  0  0  0
  129.2150  122.7250   63.4000 C   0  0  0  0  0  0  0  0  0  0  0  0
  130.0090  121.9410   62.8780 O   0  0  0  0  0  0  0  0  0  0  0  0
  129.3510  123.0350   64.8910 C   0  0  0  0  0  0  0  0  0  0  0  0
  130.6320  124.2870   65.2060 S   0  0  0  0  0  0  0  0  0  0  0  0
  129.7930  125.7860   65.6670 C   0  0  0  0  0  0  0  0  0  0  0  0
  129.7510  125.9950   67.0050 N   0  0  0  0  0  0  0  0  0  0  0  0
  129.1370  127.1040   67.4940 C   0  0  0  0  0  0  0  0  0  0  0  0
  129.1450  127.2710   68.9830 C   0  0  0  0  0  0  0  0  0  0  0  0
  128.0320  126.8930   69.7510 C   0  0  0  0  0  0  0  0  0  0  0  0
  128.0320  127.0440   71.1360 C   0  0  0  0  0  0  0  0  0  0  0  0
  129.1490  127.5780   71.7710 C   0  0  0  0  0  0  0  0  0  0  0  0
  130.2650  127.9580   71.0330 C   0  0  0  0  0  0  0  0  0  0  0  0
  130.2620  127.8030   69.6500 C   0  0  0  0  0  0  0  0  0  0  0  0
  128.5530  128.0400   66.6350 C   0  0  0  0  0  0  0  0  0  0  0  0
  128.5690  127.8360   65.2460 C   0  0  0  0  0  0  0  0  0  0  0  0
  127.9050  128.8840   64.3340 C   0  0  0  0  0  0  0  0  0  0  0  0
  128.7050  129.2940   63.3470 F   0  0  0  0  0  0  0  0  0  0  0  0
  126.8080  128.3760   63.7710 F   0  0  0  0  0  0  0  0  0  0  0  0
  127.5650  129.9580   65.0480 F   0  0  0  0  0  0  0  0  0  0  0  0
  129.1950  126.6700   64.7420 C   0  0  0  0  0  0  0  0  0  0  0  0
  129.1920  126.3770   63.3060 C   0  0  0  0  0  0  0  0  0  0  0  0
  129.1880  126.1450   62.1720 N   0  0  0  0  0  0  0  0  0  0  0  0
  126.6630  123.8900   60.8790 C   0  0  0  0  0  0  0  0  0  0  0  0
  126.3770  123.7710   59.5220 C   0  0  0  0  0  0  0  0  0  0  0  0
  1  2  1  0
  2  3  1  0
  3  4  1  0
  4  5  2  0
  4  6  1  0
  6  7  2  0
  7  8  1  0
  8  9  2  0
  9 10  1  0
 10 11  1  0
 11 12  2  0
 11 13  1  0
 13 14  1  0
 14 15  1  0
 15 16  2  0
 16 17  1  0
 17 18  1  0
 18 19  2  0
 19 20  1  0
 20 21  2  0
 21 22  1  0
 22 23  2  0
 17 24  2  0
 24 25  1  0
 25 26  1  0
 26 27  1  0
 26 28  1  0
 26 29  1  0
 25 30  2  0
 30 31  1  0
 31 32  3  0
  9 33  1  0
 33 34  2  0
 34  6  1  0
 30 15  1  0
 23 18  1  0
M  END
>  <Binding energies>  (27) 
[-8.62]

>  <Ligand effiencies>  (27) 
[-0.24628571428571427]

>  <Interactions>  (27) 
["V-B:TYR:539:CZ:9849, V-B:PRO:540:N:9856, V-B:TYR:539:CE1:9847, V-B:PRO:540:CB:9857, V-B:PRO:540:CA:9855, V-B:TYR:539:CE2:9848, H-B:TYR:539:N:9842, V-B:TYR:539:C:9839, V-B:TYR:539:CG:9844, H-B:GLU:543:OE1:9881, V-B:TYR:539:CD2:9846, V-B:ALA:541:CB:9864, V-B:GLU:543:CG:9879, V-B:GLU:543:CB:9878, H-A:TYR:484:OH:4348, V-A:GLU:543:CD:4908, V-A:TYR:484:CE2:4346, V-B:GLU:543:CD:9880, V-B:HIS:456:CE1:9041, V-A:GLY:544:C:4912, V-B:GLU:543:C:9874, V-A:HIS:456:CE1:4070, V-A:GLU:543:CG:4907, V-A:GLU:543:C:4902, V-A:GLU:543:CB:4906, V-B:TYR:484:CZ:9318"]

$$$$
3ad_Grossjean_2025
     RDKit          3D

 29 31  0  0  0  0  0  0  0  0999 V2000
  129.4370  126.8100   62.9720 N   0  0  0  0  0  0  0  0  0  0  0  0
  129.2990  126.8970   64.1180 C   0  0  0  0  0  0  0  0  0  0  0  0
  129.1220  127.0090   65.5690 C   0  0  0  0  0  0  0  0  0  0  0  0
  128.3510  128.0580   66.1250 C   0  0  0  0  0  0  0  0  0  0  0  0
  127.6230  129.1050   65.2610 C   0  0  0  0  0  0  0  0  0  0  0  0
  126.4650  129.5020   65.7930 F   0  0  0  0  0  0  0  0  0  0  0  0
  128.3900  130.1860   65.1140 F   0  0  0  0  0  0  0  0  0  0  0  0
  127.3540  128.5980   64.0560 F   0  0  0  0  0  0  0  0  0  0  0  0
  128.2510  128.1480   67.5220 C   0  0  0  0  0  0  0  0  0  0  0  0
  128.9050  127.2200   68.3400 C   0  0  0  0  0  0  0  0  0  0  0  0
  128.8450  127.2790   69.8370 C   0  0  0  0  0  0  0  0  0  0  0  0
  129.9480  127.7230   70.5830 C   0  0  0  0  0  0  0  0  0  0  0  0
  129.8980  127.7810   71.9720 C   0  0  0  0  0  0  0  0  0  0  0  0
  128.7390  127.3940   72.6380 C   0  0  0  0  0  0  0  0  0  0  0  0
  127.6320  126.9520   71.9230 C   0  0  0  0  0  0  0  0  0  0  0  0
  127.6850  126.8970   70.5320 C   0  0  0  0  0  0  0  0  0  0  0  0
  129.6480  126.2200   67.8010 N   0  0  0  0  0  0  0  0  0  0  0  0
  129.7420  126.1000   66.4560 C   0  0  0  0  0  0  0  0  0  0  0  0
  130.7440  124.7280   65.9300 S   0  0  0  0  0  0  0  0  0  0  0  0
  132.4170  125.3680   65.6220 C   0  0  0  0  0  0  0  0  0  0  0  0
  132.9340  124.9890   64.2320 C   0  0  0  0  0  0  0  0  0  0  0  0
  133.9570  124.3100   64.1390 O   0  0  0  0  0  0  0  0  0  0  0  0
  132.2000  125.4480   63.1960 N   0  0  0  0  0  0  0  0  0  0  0  0
  132.3860  125.2720   61.8120 C   0  0  0  0  0  0  0  0  0  0  0  0
  131.6540  126.1330   60.9890 C   0  0  0  0  0  0  0  0  0  0  0  0
  131.7610  126.0410   59.6040 C   0  0  0  0  0  0  0  0  0  0  0  0
  132.5990  125.0840   59.0390 C   0  0  0  0  0  0  0  0  0  0  0  0
  133.3290  124.2170   59.8460 C   0  0  0  0  0  0  0  0  0  0  0  0
  133.2250  124.3040   61.2320 C   0  0  0  0  0  0  0  0  0  0  0  0
  1  2  3  0
  2  3  1  0
  3  4  2  0
  4  5  1  0
  5  6  1  0
  5  7  1  0
  5  8  1  0
  4  9  1  0
  9 10  2  0
 10 11  1  0
 11 12  2  0
 12 13  1  0
 13 14  2  0
 14 15  1  0
 15 16  2  0
 10 17  1  0
 17 18  2  0
 18 19  1  0
 19 20  1  0
 20 21  1  0
 21 22  2  0
 21 23  1  0
 23 24  1  0
 24 25  2  0
 25 26  1  0
 26 27  2  0
 27 28  1  0
 28 29  2  0
 18  3  1  0
 29 24  1  0
 16 11  1  0
M  END
>  <Binding energies>  (28) 
[-7.62]

>  <Ligand effiencies>  (28) 
[-0.254]

>  <Interactions>  (28) 
["V-A:ASP:366:CG:3213, V-A:ASP:366:CB:3212, V-B:TYR:539:CE2:9848, V-B:GLU:543:CG:9879, V-A:ILE:369:CG2:3237, V-B:GLU:543:CB:9878, H-A:TYR:484:OH:4348, V-A:GLU:543:CD:4908, V-A:ARG:545:CZ:4926, V-B:GLU:543:CD:9880, V-B:HIS:456:CE1:9041, V-B:GLY:544:C:9884, V-B:GLU:543:C:9874, V-B:HIS:456:CD2:9039, V-A:HIS:456:CE1:4070, V-A:GLU:543:CG:4907, V-A:GLU:543:CB:4906, V-B:GLY:544:CA:9886, H-A:GLU:543:OE1:4909, H-A:GLU:543:OE2:4910, V-B:TYR:484:CZ:9318, H-A:GLY:454:N:4050"]

$$$$
3ai_Grossjean_2025
     RDKit          3D

 28 30  0  0  0  0  0  0  0  0999 V2000
  133.4230  123.9560   59.3780 N   0  0  0  0  0  0  0  0  0  0  0  0
  132.2980  123.8720   59.6360 C   0  0  0  0  0  0  0  0  0  0  0  0
  130.8730  123.7650   59.9650 C   0  0  0  0  0  0  0  0  0  0  0  0
  130.3650  122.6160   60.6190 C   0  0  0  0  0  0  0  0  0  0  0  0
  131.2640  121.4460   61.0610 C   0  0  0  0  0  0  0  0  0  0  0  0
  132.0660  121.7650   62.0790 F   0  0  0  0  0  0  0  0  0  0  0  0
  130.5100  120.4160   61.4500 F   0  0  0  0  0  0  0  0  0  0  0  0
  132.0400  121.0560   60.0500 F   0  0  0  0  0  0  0  0  0  0  0  0
  128.9860  122.5420   60.8680 C   0  0  0  0  0  0  0  0  0  0  0  0
  128.1380  123.5820   60.4730 C   0  0  0  0  0  0  0  0  0  0  0  0
  126.6580  123.5500   60.7040 C   0  0  0  0  0  0  0  0  0  0  0  0
  126.1340  123.1340   61.9380 C   0  0  0  0  0  0  0  0  0  0  0  0
  124.7600  123.1070   62.1610 C   0  0  0  0  0  0  0  0  0  0  0  0
  123.8890  123.4970   61.1490 C   0  0  0  0  0  0  0  0  0  0  0  0
  124.3820  123.9150   59.9180 C   0  0  0  0  0  0  0  0  0  0  0  0
  125.7560  123.9410   59.6990 C   0  0  0  0  0  0  0  0  0  0  0  0
  128.6290  124.6770   59.8390 N   0  0  0  0  0  0  0  0  0  0  0  0
  129.9600  124.7840   59.6090 C   0  0  0  0  0  0  0  0  0  0  0  0
  130.4190  126.2960   58.7900 S   0  0  0  0  0  0  0  0  0  0  0  0
  129.1650  126.6430   57.5100 C   0  0  0  0  0  0  0  0  0  0  0  0
  128.6230  125.4050   56.7800 C   0  0  0  0  0  0  0  0  0  0  0  0
  129.1290  125.0250   55.7210 O   0  0  0  0  0  0  0  0  0  0  0  0
  127.5790  124.8020   57.3920 N   0  0  0  0  0  0  0  0  0  0  0  0
  126.8960  123.6690   56.9680 C   0  0  0  0  0  0  0  0  0  0  0  0
  125.5400  123.6740   56.6420 C   0  0  0  0  0  0  0  0  0  0  0  0
  125.2540  122.3780   56.2800 C   0  0  0  0  0  0  0  0  0  0  0  0
  126.3790  121.6310   56.3820 O   0  0  0  0  0  0  0  0  0  0  0  0
  127.4130  122.4610   56.8190 N   0  0  0  0  0  0  0  0  0  0  0  0
  1  2  3  0
  2  3  1  0
  3  4  2  0
  4  5  1  0
  5  6  1  0
  5  7  1  0
  5  8  1  0
  4  9  1  0
  9 10  2  0
 10 11  1  0
 11 12  2  0
 12 13  1  0
 13 14  2  0
 14 15  1  0
 15 16  2  0
 10 17  1  0
 17 18  2  0
 18 19  1  0
 19 20  1  0
 20 21  1  0
 21 22  2  0
 21 23  1  0
 23 24  1  0
 24 25  1  0
 25 26  2  0
 26 27  1  0
 27 28  1  0
 18  3  1  0
 28 24  2  0
 16 11  1  0
M  END
>  <Binding energies>  (29) 
[-6.64]

>  <Ligand effiencies>  (29) 
[-0.2289655172413793]

>  <Interactions>  (29) 
["H-B:TYR:539:OH:9850, V-B:TYR:539:CZ:9849, V-B:PRO:540:N:9856, V-B:PRO:540:CB:9857, V-B:PRO:540:CA:9855, V-B:TYR:539:CE2:9848, H-B:TYR:539:N:9842, V-B:PRO:540:CD:9859, V-B:ASP:366:CG:8184, V-B:MET:535:CE:9807, V-B:LEU:363:CD1:8160, V-B:PRO:540:CG:9858, V-B:PRO:540:C:9853, V-B:TYR:539:CD2:9846, V-B:LEU:363:CA:8156, V-B:ALA:541:CB:9864, V-A:ILE:369:CG2:3237, V-A:LEU:475:CD2:4259, V-B:GLU:543:CD:9880, V-B:ILE:538:CG2:9835, V-B:ASN:362:CB:8147, V-B:ASN:362:C:8143, V-B:ASN:362:CA:8145, V-B:ALA:541:C:9860"]

$$$$
3aj_Grossjean_2025
     RDKit          3D

 28 30  0  0  0  0  0  0  0  0999 V2000
  129.3240  126.7770   63.1000 N   0  0  0  0  0  0  0  0  0  0  0  0
  129.2350  126.8840   64.2490 C   0  0  0  0  0  0  0  0  0  0  0  0
  129.1200  127.0220   65.7040 C   0  0  0  0  0  0  0  0  0  0  0  0
  128.3730  128.0820   66.2740 C   0  0  0  0  0  0  0  0  0  0  0  0
  127.6110  129.1150   65.4210 C   0  0  0  0  0  0  0  0  0  0  0  0
  127.3010  128.6560   64.2060 F   0  0  0  0  0  0  0  0  0  0  0  0
  126.4730  129.4550   66.0260 F   0  0  0  0  0  0  0  0  0  0  0  0
  128.3560  130.2090   65.2560 F   0  0  0  0  0  0  0  0  0  0  0  0
  128.3330  128.1970   67.6720 C   0  0  0  0  0  0  0  0  0  0  0  0
  129.0220  127.2830   68.4770 C   0  0  0  0  0  0  0  0  0  0  0  0
  129.0200  127.3660   69.9730 C   0  0  0  0  0  0  0  0  0  0  0  0
  130.1200  127.9020   70.6610 C   0  0  0  0  0  0  0  0  0  0  0  0
  130.1240  127.9850   72.0520 C   0  0  0  0  0  0  0  0  0  0  0  0
  129.0240  127.5310   72.7730 C   0  0  0  0  0  0  0  0  0  0  0  0
  127.9220  126.9970   72.1140 C   0  0  0  0  0  0  0  0  0  0  0  0
  127.9220  126.9170   70.7250 C   0  0  0  0  0  0  0  0  0  0  0  0
  129.7420  126.2730   67.9250 N   0  0  0  0  0  0  0  0  0  0  0  0
  129.7760  126.1270   66.5790 C   0  0  0  0  0  0  0  0  0  0  0  0
  130.7490  124.7370   66.0410 S   0  0  0  0  0  0  0  0  0  0  0  0
  132.4200  125.3480   65.6340 C   0  0  0  0  0  0  0  0  0  0  0  0
  132.9160  124.9920   64.2240 C   0  0  0  0  0  0  0  0  0  0  0  0
  133.9940  124.4160   64.0620 O   0  0  0  0  0  0  0  0  0  0  0  0
  132.0840  125.3580   63.2240 N   0  0  0  0  0  0  0  0  0  0  0  0
  132.2810  125.1530   61.8650 C   0  0  0  0  0  0  0  0  0  0  0  0
  131.8800  125.9110   60.8670 N   0  0  0  0  0  0  0  0  0  0  0  0
  132.2470  125.4150   59.7020 C   0  0  0  0  0  0  0  0  0  0  0  0
  132.9650  124.2230   59.7400 C   0  0  0  0  0  0  0  0  0  0  0  0
  133.1630  123.7350   61.3960 S   0  0  0  0  0  0  0  0  0  0  0  0
  1  2  3  0
  2  3  1  0
  3  4  2  0
  4  5  1  0
  5  6  1  0
  5  7  1  0
  5  8  1  0
  4  9  1  0
  9 10  2  0
 10 11  1  0
 11 12  2  0
 12 13  1  0
 13 14  2  0
 14 15  1  0
 15 16  2  0
 10 17  1  0
 17 18  2  0
 18 19  1  0
 19 20  1  0
 20 21  1  0
 21 22  2  0
 21 23  1  0
 23 24  1  0
 24 25  2  0
 25 26  1  0
 26 27  2  0
 27 28  1  0
 18  3  1  0
 28 24  1  0
 16 11  1  0
M  END
>  <Binding energies>  (30) 
[-7.1]

>  <Ligand effiencies>  (30) 
[-0.24482758620689654]

>  <Interactions>  (30) 
["V-A:ASP:366:CG:3213, V-A:ASP:366:CB:3212, V-B:TYR:539:CE2:9848, V-B:GLU:543:CG:9879, V-B:GLU:543:CB:9878, H-A:TYR:484:OH:4348, V-A:GLU:543:CD:4908, V-A:ARG:545:CZ:4926, V-B:GLU:543:CD:9880, V-B:HIS:456:CE1:9041, V-A:GLY:544:C:4912, V-B:GLY:544:C:9884, V-B:GLU:543:C:9874, V-B:HIS:456:CD2:9039, V-A:HIS:456:CE1:4070, V-A:GLU:543:CG:4907, V-A:GLU:543:C:4902, V-A:GLU:543:CB:4906, H-A:GLU:543:OE1:4909, H-A:GLU:543:OE2:4910, V-B:TYR:484:CZ:9318, H-A:ARG:545:NH2:4928, H-A:GLY:454:N:4050"]

$$$$
3ak_Grossjean_2025
     RDKit          3D

 33 34  0  0  0  0  0  0  0  0999 V2000
  127.4190  122.5180   56.0180 C   0  0  0  0  0  0  0  0  0  0  0  0
  126.1380  121.9090   56.0610 O   0  0  0  0  0  0  0  0  0  0  0  0
  125.2000  122.6240   56.8520 C   0  0  0  0  0  0  0  0  0  0  0  0
  125.9360  123.7150   57.6390 C   0  0  0  0  0  0  0  0  0  0  0  0
  124.9880  124.4610   58.3940 O   0  0  0  0  0  0  0  0  0  0  0  0
  124.7150  123.9640   59.7020 C   0  0  0  0  0  0  0  0  0  0  0  0
  125.8020  124.3090   60.7360 C   0  0  0  0  0  0  0  0  0  0  0  0
  126.1630  123.1330   61.4460 O   0  0  0  0  0  0  0  0  0  0  0  0
  127.4840  122.6810   61.1790 C   0  0  0  0  0  0  0  0  0  0  0  0
  128.2180  122.3770   62.4980 C   0  0  0  0  0  0  0  0  0  0  0  0
  128.5850  123.5770   63.2540 N   0  0  0  0  0  0  0  0  0  0  0  0
  129.7370  123.7670   63.9240 C   0  0  0  0  0  0  0  0  0  0  0  0
  130.6370  122.9260   63.9540 O   0  0  0  0  0  0  0  0  0  0  0  0
  129.9430  125.0870   64.6850 C   0  0  0  0  0  0  0  0  0  0  0  0
  130.6210  126.4890   63.7220 S   0  0  0  0  0  0  0  0  0  0  0  0
  131.1580  125.8840   62.1300 C   0  0  0  0  0  0  0  0  0  0  0  0
  130.3060  126.1080   61.0990 N   0  0  0  0  0  0  0  0  0  0  0  0
  130.6230  125.6800   59.8510 C   0  0  0  0  0  0  0  0  0  0  0  0
  129.6240  125.9710   58.7710 C   0  0  0  0  0  0  0  0  0  0  0  0
  129.9610  125.8080   57.4190 C   0  0  0  0  0  0  0  0  0  0  0  0
  129.0360  126.0730   56.4120 C   0  0  0  0  0  0  0  0  0  0  0  0
  127.7570  126.5050   56.7460 C   0  0  0  0  0  0  0  0  0  0  0  0
  127.3970  126.6720   58.0780 C   0  0  0  0  0  0  0  0  0  0  0  0
  128.3230  126.4050   59.0830 C   0  0  0  0  0  0  0  0  0  0  0  0
  131.8320  125.0200   59.6050 C   0  0  0  0  0  0  0  0  0  0  0  0
  132.7320  124.7760   60.6530 C   0  0  0  0  0  0  0  0  0  0  0  0
  134.0530  124.0440   60.3440 C   0  0  0  0  0  0  0  0  0  0  0  0
  133.9810  122.7790   60.7560 F   0  0  0  0  0  0  0  0  0  0  0  0
  134.2870  124.0590   59.0300 F   0  0  0  0  0  0  0  0  0  0  0  0
  135.1070  124.6030   60.9430 F   0  0  0  0  0  0  0  0  0  0  0  0
  132.3900  125.2170   61.9540 C   0  0  0  0  0  0  0  0  0  0  0  0
  133.2930  124.9900   63.0880 C   0  0  0  0  0  0  0  0  0  0  0  0
  134.0040  124.8100   63.9840 N   0  0  0  0  0  0  0  0  0  0  0  0
  1  2  1  0
  2  3  1  0
  3  4  1  0
  4  5  1  0
  5  6  1  0
  6  7  1  0
  7  8  1  0
  8  9  1  0
  9 10  1  0
 10 11  1  0
 11 12  1  0
 12 13  2  0
 12 14  1  0
 14 15  1  0
 15 16  1  0
 16 17  2  0
 17 18  1  0
 18 19  1  0
 19 20  2  0
 20 21  1  0
 21 22  2  0
 22 23  1  0
 23 24  2  0
 18 25  2  0
 25 26  1  0
 26 27  1  0
 27 28  1  0
 27 29  1  0
 27 30  1  0
 26 31  2  0
 31 32  1  0
 32 33  3  0
 31 16  1  0
 24 19  1  0
M  END
>  <Binding energies>  (31) 
[-6.03]

>  <Ligand effiencies>  (31) 
[-0.1773529411764706]

>  <Interactions>  (31) 
["V-A:ASP:366:CG:3213, V-A:ASP:366:CB:3212, V-B:TYR:539:CZ:9849, V-B:PRO:540:N:9856, V-B:TYR:539:CE1:9847, V-B:PRO:540:CB:9857, V-B:TYR:539:CD1:9845, V-B:PRO:540:CA:9855, V-B:TYR:539:CE2:9848, H-B:TYR:539:N:9842, V-B:PRO:540:CD:9859, V-B:MET:535:CE:9807, V-B:LEU:363:CD1:8160, V-B:PRO:540:CG:9858, V-B:TYR:539:CG:9844, H-B:GLU:543:OE1:9881, V-B:PRO:540:C:9853, H-B:ALA:541:N:9863, V-B:ALA:541:CB:9864, V-A:ASP:366:C:3208, V-A:ASP:366:CA:3210, V-A:ILE:369:CD1:3239, V-B:GLU:543:CG:9879, V-A:ILE:369:CB:3236, V-A:ILE:369:CG2:3237, H-A:ARG:545:NE:4924, V-A:ARG:545:CZ:4926, V-B:GLU:543:CD:9880, H-A:ARG:545:NH2:4928, H-A:GLY:454:N:4050, V-B:ALA:541:CA:9862, V-A:ILE:369:CG1:3238, H-A:ARG:545:NH1:4927"]

$$$$
3bk_Grossjean_2025
     RDKit          3D

 30 31  0  0  0  0  0  0  0  0999 V2000
  125.0710  122.8080   56.9920 C   0  0  0  0  0  0  0  0  0  0  0  0
  125.9260  121.9410   56.2630 O   0  0  0  0  0  0  0  0  0  0  0  0
  127.2510  122.4350   56.1260 C   0  0  0  0  0  0  0  0  0  0  0  0
  127.8210  122.7740   57.5110 C   0  0  0  0  0  0  0  0  0  0  0  0
  128.6720  123.9070   57.4060 O   0  0  0  0  0  0  0  0  0  0  0  0
  128.1010  124.9890   56.6830 C   0  0  0  0  0  0  0  0  0  0  0  0
  129.2130  125.7510   55.9510 C   0  0  0  0  0  0  0  0  0  0  0  0
  129.5670  126.9050   56.7010 O   0  0  0  0  0  0  0  0  0  0  0  0
  130.1130  126.6140   57.9810 C   0  0  0  0  0  0  0  0  0  0  0  0
  131.5450  126.0830   57.8160 C   0  0  0  0  0  0  0  0  0  0  0  0
  131.9490  125.2170   58.9250 N   0  0  0  0  0  0  0  0  0  0  0  0
  132.9420  124.3110   58.8860 C   0  0  0  0  0  0  0  0  0  0  0  0
  133.6510  124.1160   57.8970 O   0  0  0  0  0  0  0  0  0  0  0  0
  133.1910  123.5170   60.1700 C   0  0  0  0  0  0  0  0  0  0  0  0
  133.4460  124.6060   61.6060 S   0  0  0  0  0  0  0  0  0  0  0  0
  131.9080  124.7620   62.4980 C   0  0  0  0  0  0  0  0  0  0  0  0
  130.7790  124.7180   61.7460 N   0  0  0  0  0  0  0  0  0  0  0  0
  129.5620  124.8320   62.3390 C   0  0  0  0  0  0  0  0  0  0  0  0
  128.3660  124.7520   61.4380 C   0  0  0  0  0  0  0  0  0  0  0  0
  127.5800  123.5900   61.3910 C   0  0  0  0  0  0  0  0  0  0  0  0
  126.4710  123.5080   60.5510 C   0  0  0  0  0  0  0  0  0  0  0  0
  126.1330  124.5900   59.7460 C   0  0  0  0  0  0  0  0  0  0  0  0
  126.8940  125.7550   59.7770 C   0  0  0  0  0  0  0  0  0  0  0  0
  128.0000  125.8330   60.6180 C   0  0  0  0  0  0  0  0  0  0  0  0
  129.4510  124.9890   63.7260 C   0  0  0  0  0  0  0  0  0  0  0  0
  130.6050  125.0380   64.5160 C   0  0  0  0  0  0  0  0  0  0  0  0
  130.4390  125.2120   66.0250 C   0  0  0  0  0  0  0  0  0  0  0  0
  131.8680  124.9230   63.9000 C   0  0  0  0  0  0  0  0  0  0  0  0
  133.0940  124.9680   64.7030 C   0  0  0  0  0  0  0  0  0  0  0  0
  134.0610  125.0050   65.3370 N   0  0  0  0  0  0  0  0  0  0  0  0
  1  2  1  0
  2  3  1  0
  3  4  1  0
  4  5  1  0
  5  6  1  0
  6  7  1  0
  7  8  1  0
  8  9  1  0
  9 10  1  0
 10 11  1  0
 11 12  1  0
 12 13  2  0
 12 14  1  0
 14 15  1  0
 15 16  1  0
 16 17  2  0
 17 18  1  0
 18 19  1  0
 19 20  2  0
 20 21  1  0
 21 22  2  0
 22 23  1  0
 23 24  2  0
 18 25  2  0
 25 26  1  0
 26 27  1  0
 26 28  2  0
 28 29  1  0
 29 30  3  0
 28 16  1  0
 24 19  1  0
M  END
>  <Binding energies>  (32) 
[-6.75]

>  <Ligand effiencies>  (32) 
[-0.21774193548387097]

>  <Interactions>  (32) 
["H-A:TYR:531:OH:4795, H-B:TYR:539:OH:9850, V-B:TYR:539:CZ:9849, V-B:PRO:540:N:9856, V-B:TYR:539:CE1:9847, V-B:PRO:540:CB:9857, V-B:TYR:539:CD1:9845, V-B:PRO:540:CA:9855, V-B:TYR:539:CE2:9848, H-B:TYR:539:N:9842, V-B:PRO:540:CD:9859, V-B:MET:535:CE:9807, V-B:LEU:363:CD1:8160, V-B:PRO:540:CG:9858, V-B:TYR:539:C:9839, V-B:TYR:539:CG:9844, V-B:TYR:539:CD2:9846, V-B:GLU:543:CG:9879, V-A:ILE:369:CG2:3237, H-A:TYR:484:OH:4348, H-A:ARG:545:NE:4924, V-A:ARG:545:CZ:4926, V-B:GLU:543:CD:9880, H-A:ARG:545:NH2:4928, H-A:GLY:454:N:4050, H-A:ARG:545:NH1:4927"]

$$$$
3cb_Grossjean_2025
     RDKit          3D

 30 32  0  0  0  0  0  0  0  0999 V2000
  127.4390  127.7660   73.1310 C   0  0  0  0  0  0  0  0  0  0  0  0
  128.8180  127.4500   73.0200 O   0  0  0  0  0  0  0  0  0  0  0  0
  129.6480  128.1990   72.2500 C   0  0  0  0  0  0  0  0  0  0  0  0
  130.2690  129.1790   72.6720 O   0  0  0  0  0  0  0  0  0  0  0  0
  129.7350  127.7190   70.8290 C   0  0  0  0  0  0  0  0  0  0  0  0
  130.8430  127.9980   70.0150 C   0  0  0  0  0  0  0  0  0  0  0  0
  130.8920  127.5350   68.7040 C   0  0  0  0  0  0  0  0  0  0  0  0
  129.8380  126.7890   68.1750 C   0  0  0  0  0  0  0  0  0  0  0  0
  129.9950  126.3690   66.8390 N   0  0  0  0  0  0  0  0  0  0  0  0
  129.8500  125.1430   66.2920 C   0  0  0  0  0  0  0  0  0  0  0  0
  129.5170  124.1300   66.9100 O   0  0  0  0  0  0  0  0  0  0  0  0
  130.1170  125.0840   64.7810 C   0  0  0  0  0  0  0  0  0  0  0  0
  129.7100  123.4900   63.9890 S   0  0  0  0  0  0  0  0  0  0  0  0
  129.6760  123.7500   62.2270 C   0  0  0  0  0  0  0  0  0  0  0  0
  130.8460  124.2210   61.7290 N   0  0  0  0  0  0  0  0  0  0  0  0
  130.9380  124.4560   60.4020 C   0  0  0  0  0  0  0  0  0  0  0  0
  132.2790  124.9690   59.9140 C   0  0  0  0  0  0  0  0  0  0  0  0
  129.8770  124.2390   59.5270 C   0  0  0  0  0  0  0  0  0  0  0  0
  128.6530  123.7680   60.0210 C   0  0  0  0  0  0  0  0  0  0  0  0
  127.5430  123.5570   59.0430 C   0  0  0  0  0  0  0  0  0  0  0  0
  126.3460  124.2730   59.1710 C   0  0  0  0  0  0  0  0  0  0  0  0
  125.3100  124.0910   58.2580 C   0  0  0  0  0  0  0  0  0  0  0  0
  125.4700  123.1920   57.2060 C   0  0  0  0  0  0  0  0  0  0  0  0
  126.6550  122.4780   57.0590 C   0  0  0  0  0  0  0  0  0  0  0  0
  127.6900  122.6640   57.9730 C   0  0  0  0  0  0  0  0  0  0  0  0
  128.5370  123.5290   61.4150 C   0  0  0  0  0  0  0  0  0  0  0  0
  127.2540  123.1260   62.0000 C   0  0  0  0  0  0  0  0  0  0  0  0
  126.2420  122.8080   62.4610 N   0  0  0  0  0  0  0  0  0  0  0  0
  128.7280  126.5020   68.9840 C   0  0  0  0  0  0  0  0  0  0  0  0
  128.6800  126.9650   70.2960 C   0  0  0  0  0  0  0  0  0  0  0  0
  1  2  1  0
  2  3  1  0
  3  4  2  0
  3  5  1  0
  5  6  2  0
  6  7  1  0
  7  8  2  0
  8  9  1  0
  9 10  1  0
 10 11  2  0
 10 12  1  0
 12 13  1  0
 13 14  1  0
 14 15  2  0
 15 16  1  0
 16 17  1  0
 16 18  2  0
 18 19  1  0
 19 20  1  0
 20 21  2  0
 21 22  1  0
 22 23  2  0
 23 24  1  0
 24 25  2  0
 19 26  2  0
 26 27  1  0
 27 28  3  0
  8 29  1  0
 29 30  2  0
 30  5  1  0
 26 14  1  0
 25 20  1  0
M  END
>  <Binding energies>  (33) 
[-9.25]

>  <Ligand effiencies>  (33) 
[-0.29838709677419356]

>  <Interactions>  (33) 
["V-A:ASP:366:CG:3213, V-B:TYR:539:CZ:9849, V-B:PRO:540:N:9856, V-B:PRO:540:CB:9857, V-B:PRO:540:CA:9855, V-B:TYR:539:CE2:9848, V-B:PRO:540:CD:9859, V-B:MET:535:CE:9807, V-B:LEU:363:CD1:8160, V-B:TYR:539:C:9839, V-B:TYR:539:CG:9844, V-B:PRO:540:C:9853, H-B:ALA:541:N:9863, V-B:TYR:539:CD2:9846, V-B:GLU:543:CG:9879, V-B:GLU:543:CB:9878, H-A:TYR:484:OH:4348, V-A:GLU:543:CD:4908, V-B:GLU:543:CD:9880, V-B:HIS:456:CE1:9041, V-A:GLY:544:C:4912, H-A:LYS:547:NZ:4951, V-B:GLU:543:C:9874, V-B:HIS:456:CD2:9039, V-B:LYS:547:CE:9922, V-A:HIS:456:CE1:4070, V-A:GLU:543:C:4902, V-A:GLU:543:CB:4906, V-B:HIS:456:CG:9037, H-B:LYS:547:NZ:9923, H-A:GLU:543:OE1:4909, V-A:ARG:545:CG:4922, H-A:GLU:543:OE2:4910, V-B:GLU:543:CA:9876"]

$$$$
3ch_Grossjean_2025
     RDKit          3D

 32 34  0  0  0  0  0  0  0  0999 V2000
  132.4930  131.7420   54.9410 C   0  0  0  0  0  0  0  0  0  0  0  0
  131.7350  132.5660   55.8200 O   0  0  0  0  0  0  0  0  0  0  0  0
  131.0660  131.9910   56.8860 C   0  0  0  0  0  0  0  0  0  0  0  0
  131.5570  130.9040   57.6270 C   0  0  0  0  0  0  0  0  0  0  0  0
  130.8260  130.3790   58.7030 C   0  0  0  0  0  0  0  0  0  0  0  0
  131.2370  129.2980   59.5060 N   0  0  0  0  0  0  0  0  0  0  0  0
  130.6490  128.0980   59.7040 C   0  0  0  0  0  0  0  0  0  0  0  0
  129.6020  127.7200   59.1780 O   0  0  0  0  0  0  0  0  0  0  0  0
  131.3960  127.1420   60.6330 C   0  0  0  0  0  0  0  0  0  0  0  0
  131.8140  125.5740   59.8130 S   0  0  0  0  0  0  0  0  0  0  0  0
  130.3740  124.5400   59.9640 C   0  0  0  0  0  0  0  0  0  0  0  0
  130.2620  123.9250   61.1670 N   0  0  0  0  0  0  0  0  0  0  0  0
  129.2050  123.1090   61.3800 C   0  0  0  0  0  0  0  0  0  0  0  0
  129.1440  122.4490   62.7440 C   0  0  0  0  0  0  0  0  0  0  0  0
  128.2300  122.8760   60.4130 C   0  0  0  0  0  0  0  0  0  0  0  0
  128.3230  123.5090   59.1660 C   0  0  0  0  0  0  0  0  0  0  0  0
  127.2590  123.2210   58.1560 C   0  0  0  0  0  0  0  0  0  0  0  0
  127.5950  122.6380   56.9280 C   0  0  0  0  0  0  0  0  0  0  0  0
  126.6100  122.3750   55.9790 C   0  0  0  0  0  0  0  0  0  0  0  0
  125.2840  122.6980   56.2540 C   0  0  0  0  0  0  0  0  0  0  0  0
  124.9350  123.2840   57.4680 C   0  0  0  0  0  0  0  0  0  0  0  0
  125.9230  123.5470   58.4140 C   0  0  0  0  0  0  0  0  0  0  0  0
  129.4160  124.3820   58.9340 C   0  0  0  0  0  0  0  0  0  0  0  0
  129.5140  125.1430   57.6840 C   0  0  0  0  0  0  0  0  0  0  0  0
  129.5930  125.7420   56.6980 N   0  0  0  0  0  0  0  0  0  0  0  0
  129.5880  130.9390   59.0220 C   0  0  0  0  0  0  0  0  0  0  0  0
  129.0750  132.0250   58.2950 C   0  0  0  0  0  0  0  0  0  0  0  0
  127.8600  132.6300   58.5640 O   0  0  0  0  0  0  0  0  0  0  0  0
  127.4900  132.8890   59.9140 C   0  0  0  0  0  0  0  0  0  0  0  0
  129.8230  132.5400   57.2280 C   0  0  0  0  0  0  0  0  0  0  0  0
  129.3400  133.6140   56.5200 O   0  0  0  0  0  0  0  0  0  0  0  0
  128.4150  133.2670   55.4990 C   0  0  0  0  0  0  0  0  0  0  0  0
  1  2  1  0
  2  3  1  0
  3  4  2  0
  4  5  1  0
  5  6  1  0
  6  7  1  0
  7  8  2  0
  7  9  1  0
  9 10  1  0
 10 11  1  0
 11 12  2  0
 12 13  1  0
 13 14  1  0
 13 15  2  0
 15 16  1  0
 16 17  1  0
 17 18  2  0
 18 19  1  0
 19 20  2  0
 20 21  1  0
 21 22  2  0
 16 23  2  0
 23 24  1  0
 24 25  3  0
  5 26  2  0
 26 27  1  0
 27 28  1  0
 28 29  1  0
 27 30  2  0
 30 31  1  0
 31 32  1  0
 30  3  1  0
 23 11  1  0
 22 17  1  0
M  END
>  <Binding energies>  (34) 
[-7.85]

>  <Ligand effiencies>  (34) 
[-0.23787878787878786]

>  <Interactions>  (34) 
["V-A:LEU:363:CD1:3189, V-A:ASP:366:CG:3213, H-A:TYR:531:OH:4795, H-B:TYR:539:OH:9850, H-A:ASP:366:OD2:3215, H-A:TYR:539:N:4870, V-B:TYR:539:CZ:9849, V-B:PRO:540:N:9856, V-B:TYR:539:CE1:9847, V-B:PRO:540:CB:9857, V-B:TYR:539:CD1:9845, V-B:PRO:540:CA:9855, V-B:TYR:539:CE2:9848, V-B:PRO:540:CD:9859, V-B:MET:535:CE:9807, V-B:LEU:363:CD1:8160, V-B:TYR:539:C:9839, V-B:TYR:539:CG:9844, V-B:TYR:539:CD2:9846, V-A:MET:535:CE:4835, V-B:ALA:541:CB:9864, V-A:TYR:531:CZ:4794, V-A:TYR:539:CE1:4875, V-A:TYR:539:CZ:4877, V-B:ILE:538:CG2:9835, V-A:TYR:539:CD1:4873, V-A:TYR:539:CD2:4874, V-A:ILE:538:CA:4860, V-A:TYR:539:CG:4872, V-A:TYR:539:CE2:4876, V-A:TYR:531:CE2:4793, V-A:ILE:538:C:4858, V-A:ILE:538:CG2:4863, V-A:ILE:538:CB:4862, V-B:ILE:538:CA:9832, V-A:MET:535:CG:4833, V-A:TYR:531:CD2:4791"]

$$$$
3ci_Grossjean_2025
     RDKit          3D

 25 27  0  0  0  0  0  0  0  0999 V2000
  129.8980  121.7670   62.1650 C   0  0  0  0  0  0  0  0  0  0  0  0
  129.7360  122.6280   60.9270 C   0  0  0  0  0  0  0  0  0  0  0  0
  128.6040  122.5430   60.1210 C   0  0  0  0  0  0  0  0  0  0  0  0
  128.4930  123.3710   58.9950 C   0  0  0  0  0  0  0  0  0  0  0  0
  127.2540  123.2570   58.1680 C   0  0  0  0  0  0  0  0  0  0  0  0
  126.0660  123.8830   58.5660 C   0  0  0  0  0  0  0  0  0  0  0  0
  124.9120  123.7660   57.7960 C   0  0  0  0  0  0  0  0  0  0  0  0
  124.9400  123.0150   56.6240 C   0  0  0  0  0  0  0  0  0  0  0  0
  126.1100  122.3780   56.2190 C   0  0  0  0  0  0  0  0  0  0  0  0
  127.2620  122.4980   56.9910 C   0  0  0  0  0  0  0  0  0  0  0  0
  129.5550  124.2670   58.7090 C   0  0  0  0  0  0  0  0  0  0  0  0
  129.5130  125.1270   57.5210 C   0  0  0  0  0  0  0  0  0  0  0  0
  129.4780  125.8060   56.5840 N   0  0  0  0  0  0  0  0  0  0  0  0
  130.6670  124.2920   59.5850 C   0  0  0  0  0  0  0  0  0  0  0  0
  132.0500  125.3970   59.3320 S   0  0  0  0  0  0  0  0  0  0  0  0
  133.6000  124.5380   59.7580 C   0  0  0  0  0  0  0  0  0  0  0  0
  133.9450  124.6070   61.2500 C   0  0  0  0  0  0  0  0  0  0  0  0
  135.1150  124.4540   61.6060 O   0  0  0  0  0  0  0  0  0  0  0  0
  132.9030  124.8230   62.0830 N   0  0  0  0  0  0  0  0  0  0  0  0
  132.9440  124.9570   63.4640 C   0  0  0  0  0  0  0  0  0  0  0  0
  131.8440  125.3540   64.2230 C   0  0  0  0  0  0  0  0  0  0  0  0
  132.2910  125.3650   65.5250 C   0  0  0  0  0  0  0  0  0  0  0  0
  133.5940  124.9920   65.5470 O   0  0  0  0  0  0  0  0  0  0  0  0
  133.9960  124.7370   64.2350 N   0  0  0  0  0  0  0  0  0  0  0  0
  130.7520  123.4790   60.6680 N   0  0  0  0  0  0  0  0  0  0  0  0
  1  2  1  0
  2  3  2  0
  3  4  1  0
  4  5  1  0
  5  6  2  0
  6  7  1  0
  7  8  2  0
  8  9  1  0
  9 10  2  0
  4 11  2  0
 11 12  1  0
 12 13  3  0
 11 14  1  0
 14 15  1  0
 15 16  1  0
 16 17  1  0
 17 18  2  0
 17 19  1  0
 19 20  1  0
 20 21  1  0
 21 22  2  0
 22 23  1  0
 23 24  1  0
 14 25  2  0
 25  2  1  0
 10  5  1  0
 24 20  2  0
M  END
>  <Binding energies>  (35) 
[-7.73]

>  <Ligand effiencies>  (35) 
[-0.29730769230769233]

>  <Interactions>  (35) 
["V-A:ASP:366:CG:3213, H-A:TYR:531:OH:4795, H-B:TYR:539:OH:9850, V-A:ASP:366:CB:3212, V-B:TYR:539:CZ:9849, V-B:PRO:540:N:9856, V-B:TYR:539:CE1:9847, V-B:PRO:540:CB:9857, V-B:TYR:539:CD1:9845, V-B:PRO:540:CA:9855, V-B:TYR:539:CE2:9848, V-B:PRO:540:CD:9859, V-B:MET:535:CE:9807, V-B:LEU:363:CD1:8160, V-B:TYR:539:C:9839, V-B:TYR:539:CG:9844, V-B:TYR:539:CD2:9846, V-B:ALA:541:CB:9864, V-A:ASP:366:CA:3210, V-A:ILE:369:CD1:3239, V-A:ILE:369:CG2:3237, V-A:LEU:475:CD2:4259, H-A:TYR:484:OH:4348, H-A:ARG:545:NE:4924, V-A:ARG:545:CZ:4926, H-A:ARG:545:NH2:4928, H-A:GLY:454:N:4050, V-B:ILE:538:CG2:9835, H-A:ARG:545:NH1:4927"]

$$$$
3ck_Grossjean_2025
     RDKit          3D

 30 31  0  0  0  0  0  0  0  0999 V2000
  125.0390  122.5190   56.6420 C   0  0  0  0  0  0  0  0  0  0  0  0
  126.1420  121.6990   56.2900 O   0  0  0  0  0  0  0  0  0  0  0  0
  127.2700  122.4320   55.8310 C   0  0  0  0  0  0  0  0  0  0  0  0
  127.7580  123.3710   56.9420 C   0  0  0  0  0  0  0  0  0  0  0  0
  127.6140  122.7250   58.2010 O   0  0  0  0  0  0  0  0  0  0  0  0
  127.2100  123.5940   59.2510 C   0  0  0  0  0  0  0  0  0  0  0  0
  127.9250  124.9410   59.0900 C   0  0  0  0  0  0  0  0  0  0  0  0
  129.2690  124.7890   59.5210 O   0  0  0  0  0  0  0  0  0  0  0  0
  130.2350  124.8280   58.4820 C   0  0  0  0  0  0  0  0  0  0  0  0
  131.2900  125.9050   58.8010 C   0  0  0  0  0  0  0  0  0  0  0  0
  132.3900  125.4220   59.6420 N   0  0  0  0  0  0  0  0  0  0  0  0
  133.3790  124.6010   59.2450 C   0  0  0  0  0  0  0  0  0  0  0  0
  133.4820  124.1750   58.0930 O   0  0  0  0  0  0  0  0  0  0  0  0
  134.3970  124.2190   60.3310 C   0  0  0  0  0  0  0  0  0  0  0  0
  133.9600  122.7590   61.3370 S   0  0  0  0  0  0  0  0  0  0  0  0
  132.3010  122.9600   61.9700 C   0  0  0  0  0  0  0  0  0  0  0  0
  131.3320  122.2890   61.2970 N   0  0  0  0  0  0  0  0  0  0  0  0
  130.0530  122.3990   61.7180 C   0  0  0  0  0  0  0  0  0  0  0  0
  129.0260  121.6230   60.9160 C   0  0  0  0  0  0  0  0  0  0  0  0
  129.6870  123.1750   62.8150 C   0  0  0  0  0  0  0  0  0  0  0  0
  130.6700  123.8820   63.5210 C   0  0  0  0  0  0  0  0  0  0  0  0
  130.2290  124.7190   64.6760 C   0  0  0  0  0  0  0  0  0  0  0  0
  129.5630  125.9300   64.4530 C   0  0  0  0  0  0  0  0  0  0  0  0
  129.1570  126.7220   65.5260 C   0  0  0  0  0  0  0  0  0  0  0  0
  129.4240  126.3070   66.8270 C   0  0  0  0  0  0  0  0  0  0  0  0
  130.0940  125.1090   67.0660 C   0  0  0  0  0  0  0  0  0  0  0  0
  130.4970  124.3200   65.9920 C   0  0  0  0  0  0  0  0  0  0  0  0
  132.0190  123.7650   63.0970 C   0  0  0  0  0  0  0  0  0  0  0  0
  133.0950  124.4490   63.8240 C   0  0  0  0  0  0  0  0  0  0  0  0
  133.9430  124.9890   64.3970 N   0  0  0  0  0  0  0  0  0  0  0  0
  1  2  1  0
  2  3  1  0
  3  4  1  0
  4  5  1  0
  5  6  1  0
  6  7  1  0
  7  8  1  0
  8  9  1  0
  9 10  1  0
 10 11  1  0
 11 12  1  0
 12 13  2  0
 12 14  1  0
 14 15  1  0
 15 16  1  0
 16 17  2  0
 17 18  1  0
 18 19  1  0
 18 20  2  0
 20 21  1  0
 21 22  1  0
 22 23  2  0
 23 24  1  0
 24 25  2  0
 25 26  1  0
 26 27  2  0
 21 28  2  0
 28 29  1  0
 29 30  3  0
 28 16  1  0
 27 22  1  0
M  END
>  <Binding energies>  (36) 
[-7.21]

>  <Ligand effiencies>  (36) 
[-0.23258064516129032]

>  <Interactions>  (36) 
["V-A:ASP:366:CG:3213, H-B:TYR:539:OH:9850, H-A:ASP:366:OD2:3215, V-A:ASP:366:CB:3212, V-B:TYR:539:CZ:9849, V-B:PRO:540:N:9856, V-B:TYR:539:CE1:9847, V-B:PRO:540:CB:9857, V-B:TYR:539:CD1:9845, V-B:PRO:540:CA:9855, V-B:TYR:539:CE2:9848, H-B:TYR:539:N:9842, V-B:PRO:540:CD:9859, V-B:MET:535:CE:9807, V-B:LEU:363:CD1:8160, V-B:PRO:540:CG:9858, V-B:TYR:539:C:9839, V-B:TYR:539:CG:9844, V-B:PRO:540:C:9853, V-B:TYR:539:CD2:9846, V-B:ALA:541:CB:9864, V-A:ASP:366:CA:3210, V-A:ILE:369:CD1:3239, V-B:GLU:543:CG:9879, V-A:ILE:369:CB:3236, V-A:ILE:369:CG2:3237, V-A:LEU:475:CD2:4259, V-A:TYR:484:CZ:4347, V-B:GLU:543:CB:9878, H-A:TYR:484:OH:4348, V-A:GLU:543:CD:4908, V-A:TYR:484:CE2:4346, H-A:ARG:545:NE:4924, V-A:ARG:545:CZ:4926, V-B:GLU:543:CD:9880, V-A:HIS:456:CE1:4070, H-A:ARG:545:NH2:4928, H-A:GLY:454:N:4050, V-B:ILE:538:CG2:9835, V-B:ILE:538:CA:9832, H-A:ASP:366:OD1:3214, H-A:ARG:545:NH1:4927"]

$$$$
4aa_Grossjean_2025
     RDKit          3D

 26 28  0  0  0  0  0  0  0  0999 V2000
  130.4780  127.9470   69.4710 C   0  0  0  0  0  0  0  0  0  0  0  0
  131.6370  127.4540   68.5990 C   0  0  0  0  0  0  0  0  0  0  0  0
  131.2320  126.2920   67.8880 O   0  0  0  0  0  0  0  0  0  0  0  0
  132.0460  125.7130   66.9680 C   0  0  0  0  0  0  0  0  0  0  0  0
  133.2450  125.4880   67.1660 O   0  0  0  0  0  0  0  0  0  0  0  0
  131.3460  125.3770   65.6830 C   0  0  0  0  0  0  0  0  0  0  0  0
  130.2050  124.5640   65.7180 C   0  0  0  0  0  0  0  0  0  0  0  0
  129.5370  124.2310   64.5430 C   0  0  0  0  0  0  0  0  0  0  0  0
  129.9880  124.7100   63.3130 C   0  0  0  0  0  0  0  0  0  0  0  0
  129.2430  124.3040   62.1890 N   0  0  0  0  0  0  0  0  0  0  0  0
  128.1860  123.4610   62.0990 C   0  0  0  0  0  0  0  0  0  0  0  0
  127.7100  122.8440   63.0530 O   0  0  0  0  0  0  0  0  0  0  0  0
  127.6320  123.2940   60.7540 C   0  0  0  0  0  0  0  0  0  0  0  0
  128.5190  122.3780   59.5330 S   0  0  0  0  0  0  0  0  0  0  0  0
  127.2850  122.6910   58.3340 C   0  0  0  0  0  0  0  0  0  0  0  0
  127.3770  122.2230   57.0880 N   0  0  0  0  0  0  0  0  0  0  0  0
  126.3550  122.5420   56.2570 C   0  0  0  0  0  0  0  0  0  0  0  0
  126.4810  122.0050   54.8430 C   0  0  0  0  0  0  0  0  0  0  0  0
  125.2530  123.3050   56.6390 C   0  0  0  0  0  0  0  0  0  0  0  0
  125.1600  123.7930   57.9470 C   0  0  0  0  0  0  0  0  0  0  0  0
  123.9390  124.6210   58.3170 C   0  0  0  0  0  0  0  0  0  0  0  0
  126.2150  123.4830   58.8470 C   0  0  0  0  0  0  0  0  0  0  0  0
  126.4400  123.8170   60.2290 C   0  0  0  0  0  0  0  0  0  0  0  0
  125.5550  124.5770   60.9510 N   0  0  0  0  0  0  0  0  0  0  0  0
  131.1320  125.5190   63.2670 C   0  0  0  0  0  0  0  0  0  0  0  0
  131.8020  125.8490   64.4430 C   0  0  0  0  0  0  0  0  0  0  0  0
  1  2  1  0
  2  3  1  0
  3  4  1  0
  4  5  2  0
  4  6  1  0
  6  7  2  0
  7  8  1  0
  8  9  2  0
  9 10  1  0
 10 11  1  0
 11 12  2  0
 11 13  1  0
 13 14  1  0
 14 15  1  0
 15 16  2  0
 16 17  1  0
 17 18  1  0
 17 19  2  0
 19 20  1  0
 20 21  1  0
 20 22  2  0
 22 23  1  0
 23 24  1  0
  9 25  1  0
 25 26  2  0
 26  6  1  0
 23 13  2  0
 22 15  1  0
M  END
>  <Binding energies>  (37) 
[-7.22]

>  <Ligand effiencies>  (37) 
[-0.2489655172413793]

>  <Interactions>  (37) 
["V-B:PRO:540:N:9856, V-B:PRO:540:CB:9857, V-B:TYR:539:CD1:9845, V-B:PRO:540:CA:9855, V-B:TYR:539:CE2:9848, H-B:TYR:539:N:9842, V-B:ASP:366:CB:8183, V-B:PRO:540:CD:9859, H-B:ASP:366:OD1:8185, V-B:ASP:366:CG:8184, V-B:MET:535:CE:9807, V-B:LEU:363:CD1:8160, V-B:TYR:539:C:9839, H-B:GLU:543:OE1:9881, H-B:ALA:541:N:9863, V-B:TYR:539:CD2:9846, V-B:LEU:363:CA:8156, V-B:TYR:531:CE2:9765, V-B:GLU:543:CG:9879, V-A:TYR:484:CZ:4347, H-A:TYR:484:OH:4348, V-A:GLU:543:CD:4908, V-A:TYR:484:CE2:4346, H-A:ARG:545:NE:4924, V-A:ARG:545:CZ:4926, V-B:GLU:543:CD:9880, V-A:HIS:456:CE1:4070, V-A:GLU:543:C:4902, V-A:GLU:543:CB:4906, V-A:ARG:545:CG:4922, H-A:HIS:456:ND1:4067, V-B:ILE:538:CG2:9835, V-B:ILE:538:CA:9832, V-B:ILE:538:C:9830, V-B:LEU:363:CB:8158, V-B:ILE:538:CB:9834, V-B:ILE:538:CG1:9836"]

$$$$
4ab_Grossjean_2025
     RDKit          3D

 25 27  0  0  0  0  0  0  0  0999 V2000
  130.1290  126.7460   67.8750 C   0  0  0  0  0  0  0  0  0  0  0  0
  131.5470  126.6630   67.8910 O   0  0  0  0  0  0  0  0  0  0  0  0
  132.2030  125.7660   67.1110 C   0  0  0  0  0  0  0  0  0  0  0  0
  133.3570  125.3840   67.3350 O   0  0  0  0  0  0  0  0  0  0  0  0
  131.3890  125.2890   65.9430 C   0  0  0  0  0  0  0  0  0  0  0  0
  131.7340  125.7110   64.6520 C   0  0  0  0  0  0  0  0  0  0  0  0
  130.9970  125.2870   63.5490 C   0  0  0  0  0  0  0  0  0  0  0  0
  129.9100  124.4290   63.7110 C   0  0  0  0  0  0  0  0  0  0  0  0
  129.2340  124.0710   62.5300 N   0  0  0  0  0  0  0  0  0  0  0  0
  128.1740  123.2460   62.3460 C   0  0  0  0  0  0  0  0  0  0  0  0
  127.6270  122.6090   63.2460 O   0  0  0  0  0  0  0  0  0  0  0  0
  127.7070  123.1290   60.9630 C   0  0  0  0  0  0  0  0  0  0  0  0
  128.6460  122.2120   59.7810 S   0  0  0  0  0  0  0  0  0  0  0  0
  127.5060  122.5910   58.5100 C   0  0  0  0  0  0  0  0  0  0  0  0
  127.6680  122.1520   57.2620 N   0  0  0  0  0  0  0  0  0  0  0  0
  126.7140  122.5190   56.3720 C   0  0  0  0  0  0  0  0  0  0  0  0
  126.9200  122.0120   54.9570 C   0  0  0  0  0  0  0  0  0  0  0  0
  125.6110  123.3050   56.6990 C   0  0  0  0  0  0  0  0  0  0  0  0
  125.4440  123.7660   58.0100 C   0  0  0  0  0  0  0  0  0  0  0  0
  124.2250  124.6220   58.3170 C   0  0  0  0  0  0  0  0  0  0  0  0
  126.4270  123.4040   58.9710 C   0  0  0  0  0  0  0  0  0  0  0  0
  126.5700  123.7010   60.3710 C   0  0  0  0  0  0  0  0  0  0  0  0
  125.6630  124.4730   61.0520 N   0  0  0  0  0  0  0  0  0  0  0  0
  129.5540  124.0050   65.0000 C   0  0  0  0  0  0  0  0  0  0  0  0
  130.2900  124.4310   66.1030 C   0  0  0  0  0  0  0  0  0  0  0  0
  1  2  1  0
  2  3  1  0
  3  4  2  0
  3  5  1  0
  5  6  2  0
  6  7  1  0
  7  8  2  0
  8  9  1  0
  9 10  1  0
 10 11  2  0
 10 12  1  0
 12 13  1  0
 13 14  1  0
 14 15  2  0
 15 16  1  0
 16 17  1  0
 16 18  2  0
 18 19  1  0
 19 20  1  0
 19 21  2  0
 21 22  1  0
 22 23  1  0
  8 24  1  0
 24 25  2  0
 25  5  1  0
 22 12  2  0
 21 14  1  0
M  END
>  <Binding energies>  (38) 
[-7.58]

>  <Ligand effiencies>  (38) 
[-0.27071428571428574]

>  <Interactions>  (38) 
["V-B:PRO:540:N:9856, V-B:TYR:539:CE1:9847, V-B:PRO:540:CB:9857, V-B:TYR:539:CD1:9845, V-B:PRO:540:CA:9855, V-B:TYR:539:CE2:9848, H-B:TYR:539:N:9842, V-B:ASP:366:CB:8183, V-B:PRO:540:CD:9859, H-B:ASP:366:OD1:8185, V-B:ASP:366:CG:8184, V-B:MET:535:CE:9807, V-B:LEU:363:CD1:8160, V-B:TYR:539:C:9839, H-B:GLU:543:OE1:9881, H-B:ALA:541:N:9863, V-B:TYR:539:CD2:9846, V-B:LEU:363:CA:8156, V-B:TYR:531:CE2:9765, V-B:ALA:541:CB:9864, V-B:GLU:543:CG:9879, V-A:TYR:484:CZ:4347, V-B:GLU:543:CB:9878, H-A:TYR:484:OH:4348, V-A:GLU:543:CD:4908, V-A:TYR:484:CE2:4346, H-A:ARG:545:NE:4924, V-A:ARG:545:CZ:4926, V-B:GLU:543:CD:9880, V-A:HIS:456:CE1:4070, V-A:GLU:543:CB:4906, V-A:ARG:545:CG:4922, H-A:HIS:456:ND1:4067, V-B:ILE:538:CG2:9835, V-B:ILE:538:CA:9832, V-B:ILE:538:C:9830, V-A:ARG:545:CD:4923, V-B:ILE:538:CB:9834, V-B:ILE:538:CG1:9836"]

$$$$
4ac_Grossjean_2025
     RDKit          3D

 23 25  0  0  0  0  0  0  0  0999 V2000
  129.9000  127.1300   68.2000 C   0  0  0  0  0  0  0  0  0  0  0  0
  130.7120  126.1700   67.5320 O   0  0  0  0  0  0  0  0  0  0  0  0
  130.2690  125.6220   66.3440 C   0  0  0  0  0  0  0  0  0  0  0  0
  129.6070  126.4820   65.4700 C   0  0  0  0  0  0  0  0  0  0  0  0
  129.1250  126.0190   64.2480 C   0  0  0  0  0  0  0  0  0  0  0  0
  129.3080  124.6860   63.8810 C   0  0  0  0  0  0  0  0  0  0  0  0
  128.7760  124.3050   62.6350 N   0  0  0  0  0  0  0  0  0  0  0  0
  127.8070  123.4010   62.3570 C   0  0  0  0  0  0  0  0  0  0  0  0
  127.2390  122.7150   63.2100 O   0  0  0  0  0  0  0  0  0  0  0  0
  127.4590  123.2680   60.9400 C   0  0  0  0  0  0  0  0  0  0  0  0
  128.5060  122.3640   59.8460 S   0  0  0  0  0  0  0  0  0  0  0  0
  127.4480  122.6850   58.4910 C   0  0  0  0  0  0  0  0  0  0  0  0
  127.7110  122.2290   57.2660 N   0  0  0  0  0  0  0  0  0  0  0  0
  126.8100  122.5490   56.3050 C   0  0  0  0  0  0  0  0  0  0  0  0
  127.1270  122.0200   54.9190 C   0  0  0  0  0  0  0  0  0  0  0  0
  125.6660  123.3110   56.5380 C   0  0  0  0  0  0  0  0  0  0  0  0
  125.3940  123.7890   57.8250 C   0  0  0  0  0  0  0  0  0  0  0  0
  124.1330  124.6140   58.0290 C   0  0  0  0  0  0  0  0  0  0  0  0
  126.3150  123.4700   58.8590 C   0  0  0  0  0  0  0  0  0  0  0  0
  126.3440  123.7870   60.2620 C   0  0  0  0  0  0  0  0  0  0  0  0
  125.3630  124.5330   60.8640 N   0  0  0  0  0  0  0  0  0  0  0  0
  129.9620  123.8100   64.7600 C   0  0  0  0  0  0  0  0  0  0  0  0
  130.4420  124.2770   65.9810 C   0  0  0  0  0  0  0  0  0  0  0  0
  1  2  1  0
  2  3  1  0
  3  4  2  0
  4  5  1  0
  5  6  2  0
  6  7  1  0
  7  8  1  0
  8  9  2  0
  8 10  1  0
 10 11  1  0
 11 12  1  0
 12 13  2  0
 13 14  1  0
 14 15  1  0
 14 16  2  0
 16 17  1  0
 17 18  1  0
 17 19  2  0
 19 20  1  0
 20 21  1  0
  6 22  1  0
 22 23  2  0
 23  3  1  0
 20 10  2  0
 19 12  1  0
M  END
>  <Binding energies>  (39) 
[-7.19]

>  <Ligand effiencies>  (39) 
[-0.27653846153846157]

>  <Interactions>  (39) 
["V-B:PRO:540:N:9856, V-B:TYR:539:CE1:9847, V-B:PRO:540:CB:9857, V-B:TYR:539:CD1:9845, V-B:PRO:540:CA:9855, V-B:TYR:539:CE2:9848, H-B:TYR:539:N:9842, V-B:ASP:366:CB:8183, H-B:ASP:366:OD1:8185, V-B:ASP:366:CG:8184, V-B:MET:535:CE:9807, V-B:LEU:363:CD1:8160, V-B:TYR:539:C:9839, V-B:TYR:539:CG:9844, H-B:GLU:543:OE1:9881, H-B:ALA:541:N:9863, V-B:TYR:539:CD2:9846, V-B:LEU:363:CA:8156, V-B:TYR:531:CE2:9765, V-B:GLU:543:CG:9879, V-A:TYR:484:CZ:4347, V-A:GLU:543:CD:4908, V-A:TYR:484:CE2:4346, V-B:GLU:543:CD:9880, V-A:HIS:456:CE1:4070, V-A:GLU:543:CB:4906, V-B:ILE:538:CG2:9835, V-B:ILE:538:CA:9832, V-B:ILE:538:C:9830, V-B:ILE:538:CB:9834"]

$$$$
4ad_Grossjean_2025
     RDKit          3D

 21 23  0  0  0  0  0  0  0  0999 V2000
  126.8940  122.0020   55.0410 C   0  0  0  0  0  0  0  0  0  0  0  0
  126.6990  122.5260   56.4520 C   0  0  0  0  0  0  0  0  0  0  0  0
  125.5560  123.2410   56.8010 C   0  0  0  0  0  0  0  0  0  0  0  0
  125.3990  123.7160   58.1090 C   0  0  0  0  0  0  0  0  0  0  0  0
  124.1350  124.4940   58.4410 C   0  0  0  0  0  0  0  0  0  0  0  0
  126.4350  123.4430   59.0420 C   0  0  0  0  0  0  0  0  0  0  0  0
  126.5990  123.7710   60.4330 C   0  0  0  0  0  0  0  0  0  0  0  0
  125.6540  124.4770   61.1340 N   0  0  0  0  0  0  0  0  0  0  0  0
  127.7990  123.3040   60.9920 C   0  0  0  0  0  0  0  0  0  0  0  0
  128.2930  123.4700   62.3600 C   0  0  0  0  0  0  0  0  0  0  0  0
  127.7080  122.9410   63.3080 O   0  0  0  0  0  0  0  0  0  0  0  0
  129.4150  124.2200   62.4860 N   0  0  0  0  0  0  0  0  0  0  0  0
  130.1120  124.6020   63.6490 C   0  0  0  0  0  0  0  0  0  0  0  0
  131.5060  124.6070   63.5520 C   0  0  0  0  0  0  0  0  0  0  0  0
  132.2840  124.9800   64.6450 C   0  0  0  0  0  0  0  0  0  0  0  0
  131.6670  125.3570   65.8340 C   0  0  0  0  0  0  0  0  0  0  0  0
  130.2780  125.3700   65.9390 C   0  0  0  0  0  0  0  0  0  0  0  0
  129.4980  124.9960   64.8490 C   0  0  0  0  0  0  0  0  0  0  0  0
  128.7620  122.4330   59.7960 S   0  0  0  0  0  0  0  0  0  0  0  0
  127.5550  122.7010   58.5590 C   0  0  0  0  0  0  0  0  0  0  0  0
  127.7070  122.2460   57.3140 N   0  0  0  0  0  0  0  0  0  0  0  0
  1  2  1  0
  2  3  2  0
  3  4  1  0
  4  5  1  0
  4  6  2  0
  6  7  1  0
  7  8  1  0
  7  9  2  0
  9 10  1  0
 10 11  2  0
 10 12  1  0
 12 13  1  0
 13 14  2  0
 14 15  1  0
 15 16  2  0
 16 17  1  0
 17 18  2  0
  9 19  1  0
 19 20  1  0
 20 21  2  0
 21  2  1  0
 20  6  1  0
 18 13  1  0
M  END
>  <Binding energies>  (40) 
[-7.36]

>  <Ligand effiencies>  (40) 
[-0.3066666666666667]

>  <Interactions>  (40) 
["V-B:PRO:540:N:9856, V-B:TYR:539:CE1:9847, V-B:PRO:540:CB:9857, V-B:TYR:539:CD1:9845, V-B:PRO:540:CA:9855, V-B:TYR:539:CE2:9848, H-B:TYR:539:N:9842, V-B:ASP:366:CB:8183, V-B:PRO:540:CD:9859, H-B:ASP:366:OD1:8185, V-B:ASP:366:CG:8184, V-B:MET:535:CE:9807, V-B:LEU:363:CD1:8160, V-B:TYR:539:C:9839, H-B:GLU:543:OE1:9881, H-B:ALA:541:N:9863, V-B:TYR:539:CD2:9846, V-B:LEU:363:CA:8156, V-B:GLU:543:CG:9879, V-B:GLU:543:CB:9878, V-A:ARG:545:CZ:4926, V-B:GLU:543:CD:9880, V-B:ILE:538:CG2:9835, V-B:ILE:538:CA:9832, V-B:ILE:538:C:9830, V-B:ILE:538:CB:9834, V-B:ILE:538:CG1:9836"]

$$$$
4ae_Grossjean_2025
     RDKit          3D

 22 24  0  0  0  0  0  0  0  0999 V2000
  129.5230  125.7340   67.0490 C   0  0  0  0  0  0  0  0  0  0  0  0
  130.2860  125.3180   65.8060 C   0  0  0  0  0  0  0  0  0  0  0  0
  131.6820  125.3070   65.7750 C   0  0  0  0  0  0  0  0  0  0  0  0
  132.3160  124.9200   64.5940 C   0  0  0  0  0  0  0  0  0  0  0  0
  131.5480  124.5600   63.4850 C   0  0  0  0  0  0  0  0  0  0  0  0
  130.1530  124.5860   63.5860 C   0  0  0  0  0  0  0  0  0  0  0  0
  129.4350  124.2330   62.4310 N   0  0  0  0  0  0  0  0  0  0  0  0
  128.3300  123.4530   62.3240 C   0  0  0  0  0  0  0  0  0  0  0  0
  127.7780  122.9110   63.2830 O   0  0  0  0  0  0  0  0  0  0  0  0
  127.8130  123.2800   60.9650 C   0  0  0  0  0  0  0  0  0  0  0  0
  128.7540  122.3990   59.7600 S   0  0  0  0  0  0  0  0  0  0  0  0
  127.5390  122.6810   58.5350 C   0  0  0  0  0  0  0  0  0  0  0  0
  127.6760  122.2280   57.2880 N   0  0  0  0  0  0  0  0  0  0  0  0
  126.6650  122.5200   56.4350 C   0  0  0  0  0  0  0  0  0  0  0  0
  126.8440  122.0010   55.0190 C   0  0  0  0  0  0  0  0  0  0  0  0
  125.5300  123.2440   56.7960 C   0  0  0  0  0  0  0  0  0  0  0  0
  125.3890  123.7160   58.1060 C   0  0  0  0  0  0  0  0  0  0  0  0
  124.1350  124.5050   58.4510 C   0  0  0  0  0  0  0  0  0  0  0  0
  126.4310  123.4320   59.0300 C   0  0  0  0  0  0  0  0  0  0  0  0
  126.6110  123.7590   60.4190 C   0  0  0  0  0  0  0  0  0  0  0  0
  125.6830  124.4770   61.1300 N   0  0  0  0  0  0  0  0  0  0  0  0
  129.5260  124.9700   64.7370 N   0  0  0  0  0  0  0  0  0  0  0  0
  1  2  1  0
  2  3  2  0
  3  4  1  0
  4  5  2  0
  5  6  1  0
  6  7  1  0
  7  8  1  0
  8  9  2  0
  8 10  1  0
 10 11  1  0
 11 12  1  0
 12 13  2  0
 13 14  1  0
 14 15  1  0
 14 16  2  0
 16 17  1  0
 17 18  1  0
 17 19  2  0
 19 20  1  0
 20 21  1  0
  6 22  2  0
 22  2  1  0
 20 10  2  0
 19 12  1  0
M  END
>  <Binding energies>  (41) 
[-7.62]

>  <Ligand effiencies>  (41) 
[-0.3048]

>  <Interactions>  (41) 
["V-B:PRO:540:N:9856, V-B:TYR:539:CE1:9847, V-B:PRO:540:CB:9857, V-B:TYR:539:CD1:9845, V-B:PRO:540:CA:9855, V-B:TYR:539:CE2:9848, H-B:TYR:539:N:9842, V-B:ASP:366:CB:8183, V-B:PRO:540:CD:9859, H-B:ASP:366:OD1:8185, V-B:ASP:366:CG:8184, V-B:MET:535:CE:9807, V-B:LEU:363:CD1:8160, V-B:TYR:539:C:9839, H-B:GLU:543:OE1:9881, H-B:ALA:541:N:9863, V-B:TYR:539:CD2:9846, V-B:LEU:363:CA:8156, V-B:GLU:543:CG:9879, V-B:GLU:543:CB:9878, V-A:ARG:545:CZ:4926, V-B:GLU:543:CD:9880, V-A:HIS:456:CE1:4070, V-B:GLU:543:CA:9876, V-B:ILE:538:CG2:9835, V-B:ILE:538:CA:9832, V-B:ILE:538:C:9830, V-B:ILE:538:CB:9834, V-B:ILE:538:CG1:9836"]

$$$$
4af_Grossjean_2025
     RDKit          3D

 21 23  0  0  0  0  0  0  0  0999 V2000
  126.8700  122.0100   55.0160 C   0  0  0  0  0  0  0  0  0  0  0  0
  126.7000  122.5350   56.4300 C   0  0  0  0  0  0  0  0  0  0  0  0
  125.5730  123.2710   56.7910 C   0  0  0  0  0  0  0  0  0  0  0  0
  125.4380  123.7460   58.1010 C   0  0  0  0  0  0  0  0  0  0  0  0
  124.1930  124.5460   58.4470 C   0  0  0  0  0  0  0  0  0  0  0  0
  126.4790  123.4520   59.0240 C   0  0  0  0  0  0  0  0  0  0  0  0
  126.6630  123.7780   60.4130 C   0  0  0  0  0  0  0  0  0  0  0  0
  125.7420  124.5070   61.1220 N   0  0  0  0  0  0  0  0  0  0  0  0
  127.8580  123.2840   60.9600 C   0  0  0  0  0  0  0  0  0  0  0  0
  128.3750  123.4520   62.3200 C   0  0  0  0  0  0  0  0  0  0  0  0
  127.7660  122.9860   63.2840 O   0  0  0  0  0  0  0  0  0  0  0  0
  129.5460  124.1260   62.4160 N   0  0  0  0  0  0  0  0  0  0  0  0
  130.2770  124.4950   63.5610 C   0  0  0  0  0  0  0  0  0  0  0  0
  129.7820  124.4980   64.8780 C   0  0  0  0  0  0  0  0  0  0  0  0
  130.6100  124.9050   65.9260 C   0  0  0  0  0  0  0  0  0  0  0  0
  131.9140  125.3040   65.6320 C   0  0  0  0  0  0  0  0  0  0  0  0
  132.4130  125.3170   64.3700 N   0  0  0  0  0  0  0  0  0  0  0  0
  131.5960  124.9200   63.3620 C   0  0  0  0  0  0  0  0  0  0  0  0
  128.7930  122.3970   59.7540 S   0  0  0  0  0  0  0  0  0  0  0  0
  127.5790  122.6900   58.5290 C   0  0  0  0  0  0  0  0  0  0  0  0
  127.7100  122.2340   57.2830 N   0  0  0  0  0  0  0  0  0  0  0  0
  1  2  1  0
  2  3  2  0
  3  4  1  0
  4  5  1  0
  4  6  2  0
  6  7  1  0
  7  8  1  0
  7  9  2  0
  9 10  1  0
 10 11  2  0
 10 12  1  0
 12 13  1  0
 13 14  2  0
 14 15  1  0
 15 16  2  0
 16 17  1  0
 17 18  2  0
  9 19  1  0
 19 20  1  0
 20 21  2  0
 21  2  1  0
 20  6  1  0
 18 13  1  0
M  END
>  <Binding energies>  (42) 
[-7.09]

>  <Ligand effiencies>  (42) 
[-0.29541666666666666]

>  <Interactions>  (42) 
["V-B:PRO:540:N:9856, V-B:TYR:539:CE1:9847, V-B:PRO:540:CB:9857, V-B:TYR:539:CD1:9845, V-B:PRO:540:CA:9855, V-B:TYR:539:CE2:9848, H-B:TYR:539:N:9842, V-B:ASP:366:CB:8183, V-B:PRO:540:CD:9859, H-B:ASP:366:OD1:8185, V-B:ASP:366:CG:8184, V-B:MET:535:CE:9807, V-B:LEU:363:CD1:8160, V-B:TYR:539:C:9839, H-B:GLU:543:OE1:9881, H-B:ALA:541:N:9863, V-B:TYR:539:CD2:9846, V-B:LEU:363:CA:8156, V-B:GLU:543:CG:9879, V-A:TYR:484:CZ:4347, H-A:TYR:484:OH:4348, V-A:TYR:484:CE2:4346, H-A:ARG:545:NE:4924, V-B:GLU:543:CD:9880, H-A:ARG:545:NH2:4928, V-B:ILE:538:CG2:9835, V-B:ILE:538:CA:9832, V-B:ILE:538:C:9830, V-B:ILE:538:CB:9834, V-B:ILE:538:CG1:9836"]

$$$$
4ag_Grossjean_2025
     RDKit          3D

 22 24  0  0  0  0  0  0  0  0999 V2000
  127.3350  122.3660   54.9910 C   0  0  0  0  0  0  0  0  0  0  0  0
  126.9690  122.7510   56.4120 C   0  0  0  0  0  0  0  0  0  0  0  0
  125.8110  123.4780   56.6820 C   0  0  0  0  0  0  0  0  0  0  0  0
  125.4920  123.8220   58.0010 C   0  0  0  0  0  0  0  0  0  0  0  0
  124.2170  124.6160   58.2450 C   0  0  0  0  0  0  0  0  0  0  0  0
  126.3800  123.4060   59.0280 C   0  0  0  0  0  0  0  0  0  0  0  0
  126.3610  123.5810   60.4550 C   0  0  0  0  0  0  0  0  0  0  0  0
  125.3550  124.2580   61.0980 N   0  0  0  0  0  0  0  0  0  0  0  0
  127.4570  123.0040   61.1140 C   0  0  0  0  0  0  0  0  0  0  0  0
  127.7470  122.9830   62.5470 C   0  0  0  0  0  0  0  0  0  0  0  0
  126.8650  122.7530   63.3780 O   0  0  0  0  0  0  0  0  0  0  0  0
  129.0230  123.2460   62.8990 N   0  0  0  0  0  0  0  0  0  0  0  0
  129.5420  123.2520   64.2660 C   0  0  0  0  0  0  0  0  0  0  0  0
  130.9330  123.8620   64.3980 C   0  0  0  0  0  0  0  0  0  0  0  0
  131.1800  124.8220   65.3840 C   0  0  0  0  0  0  0  0  0  0  0  0
  132.4560  125.3630   65.5220 C   0  0  0  0  0  0  0  0  0  0  0  0
  133.4830  124.9340   64.6830 C   0  0  0  0  0  0  0  0  0  0  0  0
  133.2460  123.9660   63.7090 C   0  0  0  0  0  0  0  0  0  0  0  0
  131.9710  123.4250   63.5710 C   0  0  0  0  0  0  0  0  0  0  0  0
  128.5440  122.2110   59.9740 S   0  0  0  0  0  0  0  0  0  0  0  0
  127.5310  122.6660   58.6220 C   0  0  0  0  0  0  0  0  0  0  0  0
  127.8380  122.3360   57.3660 N   0  0  0  0  0  0  0  0  0  0  0  0
  1  2  1  0
  2  3  2  0
  3  4  1  0
  4  5  1  0
  4  6  2  0
  6  7  1  0
  7  8  1  0
  7  9  2  0
  9 10  1  0
 10 11  2  0
 10 12  1  0
 12 13  1  0
 13 14  1  0
 14 15  2  0
 15 16  1  0
 16 17  2  0
 17 18  1  0
 18 19  2  0
  9 20  1  0
 20 21  1  0
 21 22  2  0
 22  2  1  0
 21  6  1  0
 19 14  1  0
M  END
>  <Binding energies>  (43) 
[-7.73]

>  <Ligand effiencies>  (43) 
[-0.30920000000000003]

>  <Interactions>  (43) 
["V-B:TYR:539:CZ:9849, V-B:PRO:540:N:9856, V-B:TYR:539:CE1:9847, V-B:PRO:540:CB:9857, V-B:TYR:539:CD1:9845, V-B:PRO:540:CA:9855, V-B:TYR:539:CE2:9848, H-B:TYR:539:N:9842, V-B:ASP:366:CB:8183, H-B:ASP:366:OD1:8185, V-B:ASP:366:CG:8184, V-B:MET:535:CE:9807, V-B:LEU:363:CD1:8160, V-B:TYR:539:C:9839, V-B:TYR:539:CG:9844, H-B:GLU:543:OE1:9881, V-B:PRO:540:C:9853, H-B:ALA:541:N:9863, V-B:TYR:539:CD2:9846, V-B:LEU:363:CA:8156, V-B:TYR:531:CE2:9765, V-B:ALA:541:CB:9864, V-B:GLU:543:CG:9879, V-A:LEU:475:CD2:4259, V-A:TYR:484:CZ:4347, V-A:GLY:454:CA:4049, V-A:ARG:545:CZ:4926, V-B:GLU:543:CD:9880, V-B:ALA:541:CA:9862, V-B:ILE:538:CA:9832, V-B:ILE:538:C:9830"]

$$$$
4ah_Grossjean_2025
     RDKit          3D

 28 30  0  0  0  0  0  0  0  0999 V2000
  127.1980  128.6670   62.9350 C   0  0  0  0  0  0  0  0  0  0  0  0
  128.2730  128.7910   63.8600 O   0  0  0  0  0  0  0  0  0  0  0  0
  128.7200  127.6690   64.5360 C   0  0  0  0  0  0  0  0  0  0  0  0
  129.1390  126.4890   63.9040 C   0  0  0  0  0  0  0  0  0  0  0  0
  129.5770  125.3940   64.6510 C   0  0  0  0  0  0  0  0  0  0  0  0
  130.0720  124.1370   63.9450 C   0  0  0  0  0  0  0  0  0  0  0  0
  129.4310  123.9010   62.6520 N   0  0  0  0  0  0  0  0  0  0  0  0
  128.2270  123.3190   62.4710 C   0  0  0  0  0  0  0  0  0  0  0  0
  127.5510  122.8860   63.4050 O   0  0  0  0  0  0  0  0  0  0  0  0
  127.7790  123.1910   61.0840 C   0  0  0  0  0  0  0  0  0  0  0  0
  128.7570  122.3010   59.9160 S   0  0  0  0  0  0  0  0  0  0  0  0
  127.6210  122.6510   58.6320 C   0  0  0  0  0  0  0  0  0  0  0  0
  127.8060  122.2110   57.3870 N   0  0  0  0  0  0  0  0  0  0  0  0
  126.8510  122.5510   56.4880 C   0  0  0  0  0  0  0  0  0  0  0  0
  127.0820  122.0430   55.0770 C   0  0  0  0  0  0  0  0  0  0  0  0
  125.7260  123.3100   56.8020 C   0  0  0  0  0  0  0  0  0  0  0  0
  125.5350  123.7730   58.1090 C   0  0  0  0  0  0  0  0  0  0  0  0
  124.2930  124.6000   58.4020 C   0  0  0  0  0  0  0  0  0  0  0  0
  126.5180  123.4390   59.0800 C   0  0  0  0  0  0  0  0  0  0  0  0
  126.6400  123.7430   60.4810 C   0  0  0  0  0  0  0  0  0  0  0  0
  125.7110  124.4970   61.1520 N   0  0  0  0  0  0  0  0  0  0  0  0
  129.6240  125.4860   66.0420 C   0  0  0  0  0  0  0  0  0  0  0  0
  129.2060  126.6520   66.7020 C   0  0  0  0  0  0  0  0  0  0  0  0
  129.2130  126.8060   68.0770 O   0  0  0  0  0  0  0  0  0  0  0  0
  130.2120  127.6180   68.6830 C   0  0  0  0  0  0  0  0  0  0  0  0
  128.7500  127.7350   65.9370 C   0  0  0  0  0  0  0  0  0  0  0  0
  128.3550  128.8900   66.5690 O   0  0  0  0  0  0  0  0  0  0  0  0
  126.9480  129.0890   66.5830 C   0  0  0  0  0  0  0  0  0  0  0  0
  1  2  1  0
  2  3  1  0
  3  4  2  0
  4  5  1  0
  5  6  1  0
  6  7  1  0
  7  8  1  0
  8  9  2  0
  8 10  1  0
 10 11  1  0
 11 12  1  0
 12 13  2  0
 13 14  1  0
 14 15  1  0
 14 16  2  0
 16 17  1  0
 17 18  1  0
 17 19  2  0
 19 20  1  0
 20 21  1  0
  5 22  2  0
 22 23  1  0
 23 24  1  0
 24 25  1  0
 23 26  2  0
 26 27  1  0
 27 28  1  0
 26  3  1  0
 20 10  2  0
 19 12  1  0
M  END
>  <Binding energies>  (44) 
[-6.76]

>  <Ligand effiencies>  (44) 
[-0.21806451612903224]

>  <Interactions>  (44) 
["V-B:PRO:540:N:9856, V-B:TYR:539:CE1:9847, V-B:PRO:540:CB:9857, V-B:TYR:539:CD1:9845, V-B:PRO:540:CA:9855, V-B:TYR:539:CE2:9848, H-B:TYR:539:N:9842, V-B:ASP:366:CB:8183, V-B:PRO:540:CD:9859, H-B:ASP:366:OD1:8185, V-B:ASP:366:CG:8184, V-B:MET:535:CE:9807, V-B:LEU:363:CD1:8160, V-B:TYR:539:C:9839, V-B:TYR:539:CG:9844, H-B:GLU:543:OE1:9881, H-B:ALA:541:N:9863, V-B:TYR:539:CD2:9846, V-B:LEU:363:CA:8156, V-B:GLU:543:CG:9879, V-B:GLU:543:CB:9878, V-A:GLU:543:CD:4908, V-B:GLU:543:CD:9880, V-B:HIS:456:CE1:9041, V-A:HIS:456:CE1:4070, V-A:GLU:543:CG:4907, V-A:GLU:543:CB:4906, V-B:TYR:484:CZ:9318, V-B:ILE:538:CG2:9835, V-B:ILE:538:CA:9832, V-B:ILE:538:C:9830, V-B:ILE:538:CB:9834"]

$$$$
4ai_Grossjean_2025
     RDKit          3D

 20 22  0  0  0  0  0  0  0  0999 V2000
  127.2270  122.0540   54.9940 C   0  0  0  0  0  0  0  0  0  0  0  0
  126.9060  122.5690   56.3850 C   0  0  0  0  0  0  0  0  0  0  0  0
  125.7800  123.3570   56.6150 C   0  0  0  0  0  0  0  0  0  0  0  0
  125.5000  123.8170   57.9070 C   0  0  0  0  0  0  0  0  0  0  0  0
  124.2590  124.6720   58.1090 C   0  0  0  0  0  0  0  0  0  0  0  0
  126.3950  123.4520   58.9500 C   0  0  0  0  0  0  0  0  0  0  0  0
  126.4120  123.7410   60.3580 C   0  0  0  0  0  0  0  0  0  0  0  0
  125.4470  124.5100   60.9590 N   0  0  0  0  0  0  0  0  0  0  0  0
  127.4900  123.1630   61.0470 C   0  0  0  0  0  0  0  0  0  0  0  0
  127.8190  123.2590   62.4700 C   0  0  0  0  0  0  0  0  0  0  0  0
  127.0860  122.7500   63.3210 O   0  0  0  0  0  0  0  0  0  0  0  0
  128.9680  123.9200   62.7580 N   0  0  0  0  0  0  0  0  0  0  0  0
  129.5190  124.1480   64.0120 C   0  0  0  0  0  0  0  0  0  0  0  0
  130.0300  125.3850   64.4070 C   0  0  0  0  0  0  0  0  0  0  0  0
  130.4770  125.1940   65.6940 C   0  0  0  0  0  0  0  0  0  0  0  0
  130.2470  123.9100   66.0570 O   0  0  0  0  0  0  0  0  0  0  0  0
  129.6380  123.2570   64.9840 N   0  0  0  0  0  0  0  0  0  0  0  0
  128.5350  122.2590   59.9490 S   0  0  0  0  0  0  0  0  0  0  0  0
  127.5120  122.6420   58.5820 C   0  0  0  0  0  0  0  0  0  0  0  0
  127.7820  122.2030   57.3520 N   0  0  0  0  0  0  0  0  0  0  0  0
  1  2  1  0
  2  3  2  0
  3  4  1  0
  4  5  1  0
  4  6  2  0
  6  7  1  0
  7  8  1  0
  7  9  2  0
  9 10  1  0
 10 11  2  0
 10 12  1  0
 12 13  1  0
 13 14  1  0
 14 15  2  0
 15 16  1  0
 16 17  1  0
  9 18  1  0
 18 19  1  0
 19 20  2  0
 20  2  1  0
 19  6  1  0
 17 13  2  0
M  END
>  <Binding energies>  (45) 
[-7.12]

>  <Ligand effiencies>  (45) 
[-0.3095652173913043]

>  <Interactions>  (45) 
["V-B:PRO:540:N:9856, V-B:TYR:539:CE1:9847, V-B:PRO:540:CB:9857, V-B:TYR:539:CD1:9845, V-B:PRO:540:CA:9855, V-B:TYR:539:CE2:9848, H-B:TYR:539:N:9842, V-B:ASP:366:CB:8183, H-B:ASP:366:OD1:8185, V-B:ASP:366:CG:8184, V-B:MET:535:CE:9807, V-B:LEU:363:CD1:8160, V-B:TYR:539:C:9839, V-B:TYR:539:CG:9844, H-B:GLU:543:OE1:9881, H-B:ALA:541:N:9863, V-B:TYR:539:CD2:9846, V-B:LEU:363:CA:8156, V-B:TYR:531:CE2:9765, V-B:ALA:541:CB:9864, V-B:GLU:543:CG:9879, H-A:TYR:484:OH:4348, V-B:GLU:543:CD:9880, V-B:ILE:538:CG2:9835, V-B:ILE:538:CA:9832, V-B:ILE:538:C:9830, V-B:ILE:538:CB:9834"]

$$$$
4aj_Grossjean_2025
     RDKit          3D

 20 22  0  0  0  0  0  0  0  0999 V2000
  126.9880  122.0010   54.9150 C   0  0  0  0  0  0  0  0  0  0  0  0
  126.7000  122.5260   56.3100 C   0  0  0  0  0  0  0  0  0  0  0  0
  125.5620  123.2860   56.5680 C   0  0  0  0  0  0  0  0  0  0  0  0
  125.3180  123.7650   57.8610 C   0  0  0  0  0  0  0  0  0  0  0  0
  124.0620  124.5910   58.0920 C   0  0  0  0  0  0  0  0  0  0  0  0
  126.2610  123.4480   58.8740 C   0  0  0  0  0  0  0  0  0  0  0  0
  126.3240  123.7690   60.2750 C   0  0  0  0  0  0  0  0  0  0  0  0
  125.3610  124.5220   60.8970 N   0  0  0  0  0  0  0  0  0  0  0  0
  127.4450  123.2390   60.9310 C   0  0  0  0  0  0  0  0  0  0  0  0
  127.8270  123.3760   62.3390 C   0  0  0  0  0  0  0  0  0  0  0  0
  127.2290  122.7510   63.2170 O   0  0  0  0  0  0  0  0  0  0  0  0
  128.8670  124.2110   62.5810 N   0  0  0  0  0  0  0  0  0  0  0  0
  129.4300  124.5050   63.8150 C   0  0  0  0  0  0  0  0  0  0  0  0
  129.6950  125.6920   64.3190 N   0  0  0  0  0  0  0  0  0  0  0  0
  130.2250  125.5990   65.5230 C   0  0  0  0  0  0  0  0  0  0  0  0
  130.4020  124.3110   66.0210 C   0  0  0  0  0  0  0  0  0  0  0  0
  129.8380  123.1670   64.8390 S   0  0  0  0  0  0  0  0  0  0  0  0
  128.4690  122.3340   59.8140 S   0  0  0  0  0  0  0  0  0  0  0  0
  127.3840  122.6590   58.4810 C   0  0  0  0  0  0  0  0  0  0  0  0
  127.6200  122.2020   57.2510 N   0  0  0  0  0  0  0  0  0  0  0  0
  1  2  1  0
  2  3  2  0
  3  4  1  0
  4  5  1  0
  4  6  2  0
  6  7  1  0
  7  8  1  0
  7  9  2  0
  9 10  1  0
 10 11  2  0
 10 12  1  0
 12 13  1  0
 13 14  2  0
 14 15  1  0
 15 16  2  0
 16 17  1  0
  9 18  1  0
 18 19  1  0
 19 20  2  0
 20  2  1  0
 19  6  1  0
 17 13  1  0
M  END
>  <Binding energies>  (46) 
[-7.18]

>  <Ligand effiencies>  (46) 
[-0.31217391304347825]

>  <Interactions>  (46) 
["V-B:PRO:540:N:9856, V-B:TYR:539:CE1:9847, V-B:PRO:540:CB:9857, V-B:TYR:539:CD1:9845, V-B:PRO:540:CA:9855, V-B:TYR:539:CE2:9848, H-B:TYR:539:N:9842, V-B:ASP:366:CB:8183, V-B:PRO:540:CD:9859, H-B:ASP:366:OD1:8185, V-B:ASP:366:CG:8184, V-B:MET:535:CE:9807, V-B:LEU:363:CD1:8160, V-B:TYR:539:C:9839, H-B:GLU:543:OE1:9881, H-B:ALA:541:N:9863, V-B:TYR:539:CD2:9846, V-B:LEU:363:CA:8156, V-B:TYR:531:CE2:9765, V-B:GLU:543:CG:9879, V-A:TYR:484:CZ:4347, V-A:GLU:543:CD:4908, V-A:TYR:484:CE2:4346, V-B:GLU:543:CD:9880, V-B:ILE:538:CG2:9835, V-B:ILE:538:CA:9832, V-B:ILE:538:C:9830, V-B:ILE:538:CB:9834, V-B:ILE:538:CG1:9836"]

$$$$
4ak_Grossjean_2025
     RDKit          3D

 25 26  0  0  0  0  0  0  0  0999 V2000
  127.3180  122.7530   56.2290 C   0  0  0  0  0  0  0  0  0  0  0  0
  126.1010  122.0250   56.2640 O   0  0  0  0  0  0  0  0  0  0  0  0
  125.0600  122.6950   56.9640 C   0  0  0  0  0  0  0  0  0  0  0  0
  125.6710  123.7060   57.9430 C   0  0  0  0  0  0  0  0  0  0  0  0
  124.9510  123.6690   59.1680 O   0  0  0  0  0  0  0  0  0  0  0  0
  125.6260  124.2980   60.2500 C   0  0  0  0  0  0  0  0  0  0  0  0
  125.3790  123.4980   61.5350 C   0  0  0  0  0  0  0  0  0  0  0  0
  126.6280  123.1380   62.1100 O   0  0  0  0  0  0  0  0  0  0  0  0
  127.6300  122.8170   61.1550 C   0  0  0  0  0  0  0  0  0  0  0  0
  129.0120  123.1900   61.7210 C   0  0  0  0  0  0  0  0  0  0  0  0
  128.9470  124.0020   62.9370 N   0  0  0  0  0  0  0  0  0  0  0  0
  130.0110  124.4510   63.6330 C   0  0  0  0  0  0  0  0  0  0  0  0
  131.1710  124.2270   63.2840 O   0  0  0  0  0  0  0  0  0  0  0  0
  129.7120  125.2320   64.8320 C   0  0  0  0  0  0  0  0  0  0  0  0
  130.0610  124.5770   66.4310 S   0  0  0  0  0  0  0  0  0  0  0  0
  129.4660  126.0280   67.2060 C   0  0  0  0  0  0  0  0  0  0  0  0
  129.4550  126.1660   68.5320 N   0  0  0  0  0  0  0  0  0  0  0  0
  128.9660  127.3390   69.0040 C   0  0  0  0  0  0  0  0  0  0  0  0
  128.9620  127.4770   70.5160 C   0  0  0  0  0  0  0  0  0  0  0  0
  128.4950  128.3660   68.1890 C   0  0  0  0  0  0  0  0  0  0  0  0
  128.5090  128.2190   66.7970 C   0  0  0  0  0  0  0  0  0  0  0  0
  127.9800  129.3660   65.9500 C   0  0  0  0  0  0  0  0  0  0  0  0
  129.0130  127.0020   66.2650 C   0  0  0  0  0  0  0  0  0  0  0  0
  129.1700  126.5240   64.9180 C   0  0  0  0  0  0  0  0  0  0  0  0
  128.8140  127.2760   63.8270 N   0  0  0  0  0  0  0  0  0  0  0  0
  1  2  1  0
  2  3  1  0
  3  4  1  0
  4  5  1  0
  5  6  1  0
  6  7  1  0
  7  8  1  0
  8  9  1  0
  9 10  1  0
 10 11  1  0
 11 12  1  0
 12 13  2  0
 12 14  1  0
 14 15  1  0
 15 16  1  0
 16 17  2  0
 17 18  1  0
 18 19  1  0
 18 20  2  0
 20 21  1  0
 21 22  1  0
 21 23  2  0
 23 24  1  0
 24 25  1  0
 24 14  2  0
 23 16  1  0
M  END
>  <Binding energies>  (47) 
[-6.27]

>  <Ligand effiencies>  (47) 
[-0.22392857142857142]

>  <Interactions>  (47) 
["V-B:TYR:539:CZ:9849, V-B:PRO:540:N:9856, V-B:TYR:539:CE1:9847, V-B:PRO:540:CB:9857, V-B:TYR:539:CD1:9845, V-B:PRO:540:CA:9855, H-B:TYR:539:N:9842, V-B:PRO:540:CD:9859, V-B:MET:535:CE:9807, V-B:LEU:363:CD1:8160, V-B:PRO:540:CG:9858, V-B:TYR:539:CG:9844, H-B:GLU:543:OE1:9881, V-B:PRO:540:C:9853, H-B:ALA:541:N:9863, V-B:GLU:543:CG:9879, V-A:TYR:484:CZ:4347, V-B:GLU:543:CB:9878, V-A:GLU:543:CD:4908, V-A:TYR:484:CE2:4346, V-B:GLU:543:CD:9880, V-B:HIS:456:CE1:9041, V-A:HIS:456:CE1:4070, V-A:GLU:543:CG:4907, V-A:GLU:543:CB:4906, H-A:GLU:543:OE1:4909, H-A:GLU:543:OE2:4910, H-B:GLU:543:OE2:9882, V-B:GLU:543:CA:9876"]

$$$$
4al_Grossjean_2025
     RDKit          3D

 16 17  0  0  0  0  0  0  0  0999 V2000
  129.1280  125.2100   63.0930 C   0  0  0  0  0  0  0  0  0  0  0  0
  129.0960  123.8540   62.6750 O   0  0  0  0  0  0  0  0  0  0  0  0
  127.9140  123.2180   62.4640 C   0  0  0  0  0  0  0  0  0  0  0  0
  127.2080  122.7580   63.3640 O   0  0  0  0  0  0  0  0  0  0  0  0
  127.5550  123.1300   61.0310 C   0  0  0  0  0  0  0  0  0  0  0  0
  128.5690  122.2020   59.9240 S   0  0  0  0  0  0  0  0  0  0  0  0
  127.5240  122.5910   58.5770 C   0  0  0  0  0  0  0  0  0  0  0  0
  127.7690  122.1460   57.3440 N   0  0  0  0  0  0  0  0  0  0  0  0
  126.8820  122.5200   56.3880 C   0  0  0  0  0  0  0  0  0  0  0  0
  127.1790  122.0030   54.9930 C   0  0  0  0  0  0  0  0  0  0  0  0
  125.7670  123.3180   56.6360 C   0  0  0  0  0  0  0  0  0  0  0  0
  125.5130  123.7830   57.9310 C   0  0  0  0  0  0  0  0  0  0  0  0
  124.2850  124.6520   58.1520 C   0  0  0  0  0  0  0  0  0  0  0  0
  126.4220  123.4120   58.9580 C   0  0  0  0  0  0  0  0  0  0  0  0
  126.4660  123.7040   60.3640 C   0  0  0  0  0  0  0  0  0  0  0  0
  125.5210  124.4760   60.9880 N   0  0  0  0  0  0  0  0  0  0  0  0
  1  2  1  0
  2  3  1  0
  3  4  2  0
  3  5  1  0
  5  6  1  0
  6  7  1  0
  7  8  2  0
  8  9  1  0
  9 10  1  0
  9 11  2  0
 11 12  1  0
 12 13  1  0
 12 14  2  0
 14 15  1  0
 15 16  1  0
 15  5  2  0
 14  7  1  0
M  END
>  <Binding energies>  (48) 
[-5.94]

>  <Ligand effiencies>  (48) 
[-0.33]

>  <Interactions>  (48) 
["V-B:PRO:540:N:9856, V-B:TYR:539:CE1:9847, V-B:PRO:540:CB:9857, V-B:TYR:539:CD1:9845, V-B:PRO:540:CA:9855, V-B:TYR:539:CE2:9848, H-B:TYR:539:N:9842, V-B:ASP:366:CB:8183, V-B:PRO:540:CD:9859, H-B:ASP:366:OD1:8185, V-B:ASP:366:CG:8184, V-B:MET:535:CE:9807, V-B:LEU:363:CD1:8160, V-B:TYR:539:C:9839, V-B:TYR:539:CG:9844, H-B:GLU:543:OE1:9881, H-B:ALA:541:N:9863, V-B:TYR:539:CD2:9846, V-B:LEU:363:CA:8156, V-B:TYR:531:CE2:9765, V-B:ALA:541:CB:9864, V-B:GLU:543:CG:9879, V-B:GLU:543:CD:9880, V-B:ILE:538:CG2:9835, V-B:ILE:538:CA:9832, V-B:ILE:538:C:9830, V-B:ILE:538:CB:9834"]

$$$$
4bc_Grossjean_2025
     RDKit          3D

 26 28  0  0  0  0  0  0  0  0999 V2000
  130.5780  132.7990   56.6940 C   0  0  0  0  0  0  0  0  0  0  0  0
  129.8860  133.5070   57.7170 O   0  0  0  0  0  0  0  0  0  0  0  0
  129.6000  132.8640   58.9060 C   0  0  0  0  0  0  0  0  0  0  0  0
  130.4330  131.8010   59.2540 C   0  0  0  0  0  0  0  0  0  0  0  0
  130.2230  131.0920   60.4340 C   0  0  0  0  0  0  0  0  0  0  0  0
  129.1780  131.4460   61.2900 C   0  0  0  0  0  0  0  0  0  0  0  0
  129.0340  130.6640   62.4510 N   0  0  0  0  0  0  0  0  0  0  0  0
  127.9380  130.0180   62.9190 C   0  0  0  0  0  0  0  0  0  0  0  0
  126.8330  130.0570   62.3750 O   0  0  0  0  0  0  0  0  0  0  0  0
  128.1380  129.2510   64.1520 C   0  0  0  0  0  0  0  0  0  0  0  0
  127.5500  129.8760   65.6910 S   0  0  0  0  0  0  0  0  0  0  0  0
  128.1530  128.4750   66.5430 C   0  0  0  0  0  0  0  0  0  0  0  0
  128.0010  128.3440   67.8610 N   0  0  0  0  0  0  0  0  0  0  0  0
  128.5120  127.2170   68.4080 C   0  0  0  0  0  0  0  0  0  0  0  0
  128.3230  127.0840   69.9080 C   0  0  0  0  0  0  0  0  0  0  0  0
  129.1650  126.2270   67.6770 C   0  0  0  0  0  0  0  0  0  0  0  0
  129.3280  126.3610   66.2890 C   0  0  0  0  0  0  0  0  0  0  0  0
  130.0570  125.2470   65.5280 C   0  0  0  0  0  0  0  0  0  0  0  0
  129.4120  124.8610   64.4250 F   0  0  0  0  0  0  0  0  0  0  0  0
  131.2640  125.6700   65.1580 F   0  0  0  0  0  0  0  0  0  0  0  0
  130.1860  124.1750   66.3110 F   0  0  0  0  0  0  0  0  0  0  0  0
  128.8000  127.5370   65.6800 C   0  0  0  0  0  0  0  0  0  0  0  0
  128.7720  128.0100   64.3170 C   0  0  0  0  0  0  0  0  0  0  0  0
  129.3190  127.3010   63.2770 N   0  0  0  0  0  0  0  0  0  0  0  0
  128.3280  132.5060   60.9410 C   0  0  0  0  0  0  0  0  0  0  0  0
  128.5400  133.2110   59.7600 C   0  0  0  0  0  0  0  0  0  0  0  0
  1  2  1  0
  2  3  1  0
  3  4  2  0
  4  5  1  0
  5  6  2  0
  6  7  1  0
  7  8  1  0
  8  9  2  0
  8 10  1  0
 10 11  1  0
 11 12  1  0
 12 13  2  0
 13 14  1  0
 14 15  1  0
 14 16  2  0
 16 17  1  0
 17 18  1  0
 18 19  1  0
 18 20  1  0
 18 21  1  0
 17 22  2  0
 22 23  1  0
 23 24  1  0
  6 25  1  0
 25 26  2  0
 26  3  1  0
 23 10  2  0
 22 12  1  0
M  END
>  <Binding energies>  (49) 
[-5.84]

>  <Ligand effiencies>  (49) 
[-0.2013793103448276]

>  <Interactions>  (49) 
["V-A:PRO:540:CA:4883, V-A:PRO:540:CB:4885, V-A:PRO:540:N:4884, V-A:TYR:539:C:4867, H-A:TYR:539:N:4870, H-B:GLU:543:OE1:9881, V-B:GLU:543:CG:9879, V-A:TYR:484:CZ:4347, V-B:GLU:543:CB:9878, V-A:GLU:543:CD:4908, V-A:TYR:484:CE2:4346, V-B:GLU:543:CD:9880, V-B:HIS:456:CE1:9041, V-B:GLU:543:C:9874, V-A:HIS:456:CE1:4070, V-A:GLU:543:CG:4907, V-A:GLU:543:CB:4906, H-A:GLU:543:OE1:4909, H-A:GLU:543:OE2:4910, V-B:TYR:484:CZ:9318, V-A:TYR:539:CE1:4875, V-B:GLU:543:CA:9876, V-A:TYR:539:CD1:4873, V-A:ILE:538:CA:4860, V-A:ILE:538:CB:4862"]

$$$$
4bf_Grossjean_2025
     RDKit          3D

 24 26  0  0  0  0  0  0  0  0999 V2000
  133.0860  125.3640   65.6060 C   0  0  0  0  0  0  0  0  0  0  0  0
  132.4040  124.6180   64.4720 C   0  0  0  0  0  0  0  0  0  0  0  0
  133.1080  123.7090   63.6870 C   0  0  0  0  0  0  0  0  0  0  0  0
  132.4670  123.0290   62.6400 C   0  0  0  0  0  0  0  0  0  0  0  0
  133.2830  122.0400   61.8010 C   0  0  0  0  0  0  0  0  0  0  0  0
  132.6040  120.9320   61.4920 F   0  0  0  0  0  0  0  0  0  0  0  0
  133.6500  122.6150   60.6550 F   0  0  0  0  0  0  0  0  0  0  0  0
  134.3720  121.6660   62.4750 F   0  0  0  0  0  0  0  0  0  0  0  0
  131.0850  123.3110   62.4280 C   0  0  0  0  0  0  0  0  0  0  0  0
  130.1180  122.8230   61.4750 C   0  0  0  0  0  0  0  0  0  0  0  0
  130.4300  121.8930   60.5160 N   0  0  0  0  0  0  0  0  0  0  0  0
  128.8370  123.3790   61.6200 C   0  0  0  0  0  0  0  0  0  0  0  0
  127.6380  123.1350   60.8120 C   0  0  0  0  0  0  0  0  0  0  0  0
  126.5770  122.8100   61.3460 O   0  0  0  0  0  0  0  0  0  0  0  0
  127.7930  123.3080   59.4770 N   0  0  0  0  0  0  0  0  0  0  0  0
  126.8680  123.1100   58.4340 C   0  0  0  0  0  0  0  0  0  0  0  0
  125.5670  123.6420   58.3870 C   0  0  0  0  0  0  0  0  0  0  0  0
  124.7420  123.3550   57.2970 C   0  0  0  0  0  0  0  0  0  0  0  0
  125.2380  122.5370   56.2810 C   0  0  0  0  0  0  0  0  0  0  0  0
  126.4860  122.0060   56.3060 N   0  0  0  0  0  0  0  0  0  0  0  0
  127.2760  122.2940   57.3720 C   0  0  0  0  0  0  0  0  0  0  0  0
  128.7910  124.5350   62.9490 S   0  0  0  0  0  0  0  0  0  0  0  0
  130.4810  124.2650   63.3050 C   0  0  0  0  0  0  0  0  0  0  0  0
  131.0940  124.9070   64.2980 N   0  0  0  0  0  0  0  0  0  0  0  0
  1  2  1  0
  2  3  2  0
  3  4  1  0
  4  5  1  0
  5  6  1  0
  5  7  1  0
  5  8  1  0
  4  9  2  0
  9 10  1  0
 10 11  1  0
 10 12  2  0
 12 13  1  0
 13 14  2  0
 13 15  1  0
 15 16  1  0
 16 17  2  0
 17 18  1  0
 18 19  2  0
 19 20  1  0
 20 21  2  0
 12 22  1  0
 22 23  1  0
 23 24  2  0
 24  2  1  0
 23  9  1  0
 21 16  1  0
M  END
>  <Binding energies>  (50) 
[-6.2]

>  <Ligand effiencies>  (50) 
[-0.22962962962962963]

>  <Interactions>  (50) 
["V-B:PRO:540:N:9856, V-B:TYR:539:CE1:9847, V-B:PRO:540:CB:9857, V-B:TYR:539:CD1:9845, V-B:PRO:540:CA:9855, V-B:TYR:539:CE2:9848, H-B:TYR:539:N:9842, V-B:PRO:540:CD:9859, V-B:MET:535:CE:9807, V-B:LEU:363:CD1:8160, V-B:TYR:539:C:9839, V-B:TYR:539:CG:9844, H-B:ALA:541:N:9863, V-B:TYR:539:CD2:9846, V-A:ILE:369:CD1:3239, V-B:GLU:543:CG:9879, V-A:ILE:369:CG2:3237, V-A:LEU:475:CD2:4259, V-A:GLY:454:CA:4049, V-A:ARG:545:CZ:4926, V-B:GLU:543:CD:9880, V-B:ILE:538:CG2:9835, V-B:TYR:539:CA:9841, V-A:ARG:545:CD:4923, H-B:TYR:539:O:9840, V-A:SER:385:CB:3409, V-A:SER:385:C:3405"]

$$$$
4bh_Grossjean_2025
     RDKit          3D

 31 33  0  0  0  0  0  0  0  0999 V2000
  129.8920  127.5930   68.9460 C   0  0  0  0  0  0  0  0  0  0  0  0
  128.7490  127.2080   68.1900 O   0  0  0  0  0  0  0  0  0  0  0  0
  128.6750  127.5470   66.8510 C   0  0  0  0  0  0  0  0  0  0  0  0
  128.1330  128.7520   66.3770 C   0  0  0  0  0  0  0  0  0  0  0  0
  128.0880  129.0280   65.0100 C   0  0  0  0  0  0  0  0  0  0  0  0
  127.5390  130.3600   64.5160 C   0  0  0  0  0  0  0  0  0  0  0  0
  128.0080  130.7270   63.1790 N   0  0  0  0  0  0  0  0  0  0  0  0
  128.9320  131.6710   62.9070 C   0  0  0  0  0  0  0  0  0  0  0  0
  129.4520  132.3620   63.7850 O   0  0  0  0  0  0  0  0  0  0  0  0
  129.2540  131.8670   61.4930 C   0  0  0  0  0  0  0  0  0  0  0  0
  128.1360  132.7360   60.4460 S   0  0  0  0  0  0  0  0  0  0  0  0
  129.1730  132.4870   59.0600 C   0  0  0  0  0  0  0  0  0  0  0  0
  128.8490  132.9570   57.8570 N   0  0  0  0  0  0  0  0  0  0  0  0
  129.7320  132.7040   56.8630 C   0  0  0  0  0  0  0  0  0  0  0  0
  129.3430  133.2470   55.4990 C   0  0  0  0  0  0  0  0  0  0  0  0
  130.9200  132.0000   57.0420 C   0  0  0  0  0  0  0  0  0  0  0  0
  131.2660  131.5010   58.3080 C   0  0  0  0  0  0  0  0  0  0  0  0
  132.5840  130.7350   58.4580 C   0  0  0  0  0  0  0  0  0  0  0  0
  133.4050  131.2760   59.3610 F   0  0  0  0  0  0  0  0  0  0  0  0
  132.3380  129.4830   58.8440 F   0  0  0  0  0  0  0  0  0  0  0  0
  133.2300  130.7170   57.2920 F   0  0  0  0  0  0  0  0  0  0  0  0
  130.3550  131.7480   59.3770 C   0  0  0  0  0  0  0  0  0  0  0  0
  130.3650  131.3960   60.7760 C   0  0  0  0  0  0  0  0  0  0  0  0
  131.3770  130.6720   61.3530 N   0  0  0  0  0  0  0  0  0  0  0  0
  128.6150  128.1040   64.1050 C   0  0  0  0  0  0  0  0  0  0  0  0
  129.1560  126.8880   64.5500 C   0  0  0  0  0  0  0  0  0  0  0  0
  129.6820  125.9230   63.7100 O   0  0  0  0  0  0  0  0  0  0  0  0
  130.5510  126.3160   62.6530 C   0  0  0  0  0  0  0  0  0  0  0  0
  129.1740  126.6190   65.9260 C   0  0  0  0  0  0  0  0  0  0  0  0
  129.7180  125.4390   66.3780 O   0  0  0  0  0  0  0  0  0  0  0  0
  131.1340  125.3800   66.2770 C   0  0  0  0  0  0  0  0  0  0  0  0
  1  2  1  0
  2  3  1  0
  3  4  2  0
  4  5  1  0
  5  6  1  0
  6  7  1  0
  7  8  1  0
  8  9  2  0
  8 10  1  0
 10 11  1  0
 11 12  1  0
 12 13  2  0
 13 14  1  0
 14 15  1  0
 14 16  2  0
 16 17  1  0
 17 18  1  0
 18 19  1  0
 18 20  1  0
 18 21  1  0
 17 22  2  0
 22 23  1  0
 23 24  1  0
  5 25  2  0
 25 26  1  0
 26 27  1  0
 27 28  1  0
 26 29  2  0
 29 30  1  0
 30 31  1  0
 29  3  1  0
 23 10  2  0
 22 12  1  0
M  END
>  <Binding energies>  (51) 
[-6.02]

>  <Ligand effiencies>  (51) 
[-0.17705882352941174]

>  <Interactions>  (51) 
["V-A:LEU:363:CD1:3189, V-A:ASP:366:CG:3213, V-A:PRO:540:CA:4883, V-A:PRO:540:CB:4885, H-A:ASP:366:OD2:3215, V-A:PRO:540:N:4884, V-A:TYR:539:C:4867, V-A:ASP:366:CB:3212, V-A:MET:535:CE:4835, V-B:GLU:543:CG:9879, V-A:TYR:484:CZ:4347, V-B:GLU:543:CB:9878, V-A:GLU:543:CD:4908, V-B:GLU:543:CD:9880, V-A:HIS:456:CE1:4070, V-A:GLU:543:CG:4907, V-A:GLU:543:CB:4906, V-A:TYR:531:CZ:4794, H-A:GLU:543:OE1:4909, H-A:ALA:541:N:4891, V-A:ILE:538:CA:4860, V-A:TYR:531:CE2:4793, V-A:ILE:538:C:4858, V-A:ILE:538:CG2:4863, V-A:ILE:538:CB:4862, V-A:LEU:363:CA:3185, V-A:LEU:363:CB:3187"]

$$$$
4bi_Grossjean_2025
     RDKit          3D

 23 25  0  0  0  0  0  0  0  0999 V2000
  127.2830  122.0040   55.0160 C   0  0  0  0  0  0  0  0  0  0  0  0
  126.9710  122.5410   56.4010 C   0  0  0  0  0  0  0  0  0  0  0  0
  125.8730  123.3690   56.6190 C   0  0  0  0  0  0  0  0  0  0  0  0
  125.5930  123.8550   57.9070 C   0  0  0  0  0  0  0  0  0  0  0  0
  124.3700  124.7570   58.0990 C   0  0  0  0  0  0  0  0  0  0  0  0
  123.6530  124.4410   59.1800 F   0  0  0  0  0  0  0  0  0  0  0  0
  124.7590  126.0240   58.2360 F   0  0  0  0  0  0  0  0  0  0  0  0
  123.5630  124.6560   57.0420 F   0  0  0  0  0  0  0  0  0  0  0  0
  126.4780  123.4670   58.9570 C   0  0  0  0  0  0  0  0  0  0  0  0
  126.5150  123.7620   60.3680 C   0  0  0  0  0  0  0  0  0  0  0  0
  125.5900  124.5680   60.9820 N   0  0  0  0  0  0  0  0  0  0  0  0
  127.5740  123.1470   61.0560 C   0  0  0  0  0  0  0  0  0  0  0  0
  127.9160  123.2400   62.4780 C   0  0  0  0  0  0  0  0  0  0  0  0
  127.1870  122.7350   63.3350 O   0  0  0  0  0  0  0  0  0  0  0  0
  129.0730  123.8890   62.7580 N   0  0  0  0  0  0  0  0  0  0  0  0
  129.6390  124.1110   64.0070 C   0  0  0  0  0  0  0  0  0  0  0  0
  130.3550  125.2630   64.3260 C   0  0  0  0  0  0  0  0  0  0  0  0
  130.7400  125.0950   65.6370 C   0  0  0  0  0  0  0  0  0  0  0  0
  130.2780  123.9030   66.0840 O   0  0  0  0  0  0  0  0  0  0  0  0
  129.5820  123.2880   65.0410 N   0  0  0  0  0  0  0  0  0  0  0  0
  128.5780  122.1980   59.9630 S   0  0  0  0  0  0  0  0  0  0  0  0
  127.5670  122.6130   58.5990 C   0  0  0  0  0  0  0  0  0  0  0  0
  127.8260  122.1540   57.3750 N   0  0  0  0  0  0  0  0  0  0  0  0
  1  2  1  0
  2  3  2  0
  3  4  1  0
  4  5  1  0
  5  6  1  0
  5  7  1  0
  5  8  1  0
  4  9  2  0
  9 10  1  0
 10 11  1  0
 10 12  2  0
 12 13  1  0
 13 14  2  0
 13 15  1  0
 15 16  1  0
 16 17  1  0
 17 18  2  0
 18 19  1  0
 19 20  1  0
 12 21  1  0
 21 22  1  0
 22 23  2  0
 23  2  1  0
 22  9  1  0
 20 16  2  0
M  END
>  <Binding energies>  (52) 
[-6.51]

>  <Ligand effiencies>  (52) 
[-0.25038461538461537]

>  <Interactions>  (52) 
["V-B:PRO:540:N:9856, V-B:TYR:539:CE1:9847, V-B:PRO:540:CB:9857, V-B:TYR:539:CD1:9845, V-B:PRO:540:CA:9855, V-B:TYR:539:CE2:9848, H-B:TYR:539:N:9842, V-B:ASP:366:CB:8183, H-B:ASP:366:OD1:8185, V-B:ASP:366:CG:8184, V-B:MET:535:CE:9807, V-B:LEU:363:CD1:8160, V-B:TYR:539:C:9839, V-B:TYR:539:CG:9844, H-B:GLU:543:OE1:9881, V-B:TYR:531:CZ:9766, H-B:ALA:541:N:9863, V-B:TYR:539:CD2:9846, V-B:LEU:363:CA:8156, V-B:TYR:531:CE2:9765, V-B:ALA:541:CB:9864, V-B:GLU:543:CG:9879, H-A:TYR:484:OH:4348, V-B:GLU:543:CD:9880, V-B:ILE:538:CG2:9835, V-B:ILE:538:CA:9832, V-B:ILE:538:C:9830, V-B:ASN:362:C:8143, V-B:LEU:363:CB:8158, V-B:ILE:538:CB:9834, V-B:LEU:363:CG:8159, V-B:TYR:531:CD2:9763"]

$$$$
4bj_Grossjean_2025
     RDKit          3D

 23 25  0  0  0  0  0  0  0  0999 V2000
  127.2460  122.0140   54.9560 C   0  0  0  0  0  0  0  0  0  0  0  0
  126.9790  122.5540   56.3490 C   0  0  0  0  0  0  0  0  0  0  0  0
  125.8530  123.3300   56.6140 C   0  0  0  0  0  0  0  0  0  0  0  0
  125.6220  123.8280   57.9060 C   0  0  0  0  0  0  0  0  0  0  0  0
  124.3710  124.6790   58.1500 C   0  0  0  0  0  0  0  0  0  0  0  0
  124.6500  125.9620   58.3860 F   0  0  0  0  0  0  0  0  0  0  0  0
  123.5790  124.6330   57.0790 F   0  0  0  0  0  0  0  0  0  0  0  0
  123.7090  124.2120   59.2090 F   0  0  0  0  0  0  0  0  0  0  0  0
  126.5810  123.5030   58.9120 C   0  0  0  0  0  0  0  0  0  0  0  0
  126.6820  123.8290   60.3140 C   0  0  0  0  0  0  0  0  0  0  0  0
  125.7530  124.6010   60.9640 N   0  0  0  0  0  0  0  0  0  0  0  0
  127.8070  123.2810   60.9500 C   0  0  0  0  0  0  0  0  0  0  0  0
  128.2200  123.4160   62.3490 C   0  0  0  0  0  0  0  0  0  0  0  0
  127.5310  122.9500   63.2590 O   0  0  0  0  0  0  0  0  0  0  0  0
  129.3950  124.0640   62.5490 N   0  0  0  0  0  0  0  0  0  0  0  0
  130.0120  124.3150   63.7670 C   0  0  0  0  0  0  0  0  0  0  0  0
  129.5470  124.0750   64.9730 N   0  0  0  0  0  0  0  0  0  0  0  0
  130.4060  124.4350   65.9050 C   0  0  0  0  0  0  0  0  0  0  0  0
  131.6040  124.9840   65.4590 C   0  0  0  0  0  0  0  0  0  0  0  0
  131.5930  125.0280   63.7210 S   0  0  0  0  0  0  0  0  0  0  0  0
  128.7930  122.3570   59.8200 S   0  0  0  0  0  0  0  0  0  0  0  0
  127.6880  122.6960   58.5080 C   0  0  0  0  0  0  0  0  0  0  0  0
  127.9050  122.2270   57.2800 N   0  0  0  0  0  0  0  0  0  0  0  0
  1  2  1  0
  2  3  2  0
  3  4  1  0
  4  5  1  0
  5  6  1  0
  5  7  1  0
  5  8  1  0
  4  9  2  0
  9 10  1  0
 10 11  1  0
 10 12  2  0
 12 13  1  0
 13 14  2  0
 13 15  1  0
 15 16  1  0
 16 17  2  0
 17 18  1  0
 18 19  2  0
 19 20  1  0
 12 21  1  0
 21 22  1  0
 22 23  2  0
 23  2  1  0
 22  9  1  0
 20 16  1  0
M  END
>  <Binding energies>  (53) 
[-6.25]

>  <Ligand effiencies>  (53) 
[-0.2403846153846154]

>  <Interactions>  (53) 
["V-B:PRO:540:N:9856, V-B:TYR:539:CE1:9847, V-B:PRO:540:CB:9857, V-B:TYR:539:CD1:9845, V-B:PRO:540:CA:9855, V-B:TYR:539:CE2:9848, H-B:TYR:539:N:9842, V-B:ASP:366:CB:8183, H-B:ASP:366:OD1:8185, V-B:ASP:366:CG:8184, V-B:MET:535:CE:9807, V-B:LEU:363:CD1:8160, V-B:TYR:539:C:9839, V-B:TYR:539:CG:9844, H-B:GLU:543:OE1:9881, V-B:TYR:531:CZ:9766, H-B:ALA:541:N:9863, V-B:TYR:539:CD2:9846, V-B:LEU:363:CA:8156, V-B:TYR:531:CE2:9765, V-B:GLU:543:CG:9879, V-A:TYR:484:CZ:4347, V-A:TYR:484:CE2:4346, V-B:GLU:543:CD:9880, V-B:ILE:538:CG2:9835, V-B:ILE:538:CA:9832, V-B:ILE:538:C:9830, V-B:ASN:362:C:8143, V-B:LEU:363:CB:8158, V-B:ILE:538:CB:9834, V-B:LEU:363:CG:8159, V-B:TYR:531:CD2:9763"]

$$$$
4bk_Grossjean_2025
     RDKit          3D

 28 29  0  0  0  0  0  0  0  0999 V2000
  134.5260  126.8390   74.9540 C   0  0  0  0  0  0  0  0  0  0  0  0
  133.1570  127.2120   74.9210 O   0  0  0  0  0  0  0  0  0  0  0  0
  132.4240  126.5830   73.8780 C   0  0  0  0  0  0  0  0  0  0  0  0
  130.9290  126.8820   74.0500 C   0  0  0  0  0  0  0  0  0  0  0  0
  130.6360  128.1570   73.4950 O   0  0  0  0  0  0  0  0  0  0  0  0
  129.8620  128.1010   72.3040 C   0  0  0  0  0  0  0  0  0  0  0  0
  130.7970  127.9730   71.0940 C   0  0  0  0  0  0  0  0  0  0  0  0
  130.1240  127.2800   70.0520 O   0  0  0  0  0  0  0  0  0  0  0  0
  130.6180  127.5770   68.7510 C   0  0  0  0  0  0  0  0  0  0  0  0
  129.5010  127.3520   67.7180 C   0  0  0  0  0  0  0  0  0  0  0  0
  129.8670  126.4210   66.6500 N   0  0  0  0  0  0  0  0  0  0  0  0
  130.0040  125.0860   66.7920 C   0  0  0  0  0  0  0  0  0  0  0  0
  129.8060  124.5130   67.8640 O   0  0  0  0  0  0  0  0  0  0  0  0
  130.3930  124.3470   65.5900 C   0  0  0  0  0  0  0  0  0  0  0  0
  129.4960  122.9100   65.1070 S   0  0  0  0  0  0  0  0  0  0  0  0
  130.5090  122.6980   63.6990 C   0  0  0  0  0  0  0  0  0  0  0  0
  130.3180  121.6880   62.8500 N   0  0  0  0  0  0  0  0  0  0  0  0
  131.1640  121.6290   61.7960 C   0  0  0  0  0  0  0  0  0  0  0  0
  130.9270  120.4730   60.8420 C   0  0  0  0  0  0  0  0  0  0  0  0
  132.1870  122.5480   61.5720 C   0  0  0  0  0  0  0  0  0  0  0  0
  132.3950  123.6130   62.4620 C   0  0  0  0  0  0  0  0  0  0  0  0
  133.5350  124.5950   62.1760 C   0  0  0  0  0  0  0  0  0  0  0  0
  134.2800  124.2390   61.1270 F   0  0  0  0  0  0  0  0  0  0  0  0
  133.0350  125.8040   61.9200 F   0  0  0  0  0  0  0  0  0  0  0  0
  134.3430  124.6680   63.2320 F   0  0  0  0  0  0  0  0  0  0  0  0
  131.5180  123.7050   63.5850 C   0  0  0  0  0  0  0  0  0  0  0  0
  131.4220  124.6360   64.6810 C   0  0  0  0  0  0  0  0  0  0  0  0
  132.2660  125.7080   64.8200 N   0  0  0  0  0  0  0  0  0  0  0  0
  1  2  1  0
  2  3  1  0
  3  4  1  0
  4  5  1  0
  5  6  1  0
  6  7  1  0
  7  8  1  0
  8  9  1  0
  9 10  1  0
 10 11  1  0
 11 12  1  0
 12 13  2  0
 12 14  1  0
 14 15  1  0
 15 16  1  0
 16 17  2  0
 17 18  1  0
 18 19  1  0
 18 20  2  0
 20 21  1  0
 21 22  1  0
 22 23  1  0
 22 24  1  0
 22 25  1  0
 21 26  2  0
 26 27  1  0
 27 28  1  0
 27 14  2  0
 26 16  1  0
M  END
>  <Binding energies>  (54) 
[-5.65]

>  <Ligand effiencies>  (54) 
[-0.18225806451612905]

>  <Interactions>  (54) 
["V-A:ASP:366:CG:3213, V-B:TYR:539:CE2:9848, V-B:TYR:539:CD2:9846, V-B:ALA:541:CB:9864, V-A:ILE:369:CD1:3239, V-B:GLU:543:CG:9879, V-A:LEU:475:CD2:4259, V-A:TYR:484:CZ:4347, V-A:GLY:453:CA:4044, V-B:GLU:543:CB:9878, H-A:TYR:484:OH:4348, V-A:GLU:543:CD:4908, V-A:TYR:484:CE2:4346, V-A:GLY:454:CA:4049, V-A:ARG:545:CZ:4926, V-A:GLY:544:C:4912, H-A:LYS:547:NZ:4951, V-A:HIS:456:CE1:4070, V-A:GLU:543:C:4902, V-A:GLU:543:CB:4906, H-A:GLU:543:OE1:4909, H-A:GLU:543:OE2:4910, V-A:HIS:456:CD2:4068, V-A:HIS:456:CB:4065, V-A:ARG:545:C:4917, V-A:HIS:456:CG:4066, V-A:LYS:547:CG:4948, V-A:GLY:453:C:4042, V-A:LYS:547:CB:4947"]

$$$$
4cd_Grossjean_2025
     RDKit          3D

 29 32  0  0  0  0  0  0  0  0999 V2000
  129.0490  127.2270   63.7940 N   0  0  0  0  0  0  0  0  0  0  0  0
  129.3870  126.5070   64.9120 C   0  0  0  0  0  0  0  0  0  0  0  0
  130.0140  125.2520   64.8590 C   0  0  0  0  0  0  0  0  0  0  0  0
  130.4050  124.4750   63.6780 C   0  0  0  0  0  0  0  0  0  0  0  0
  129.7630  124.5580   62.6310 O   0  0  0  0  0  0  0  0  0  0  0  0
  131.5020  123.6940   63.8340 N   0  0  0  0  0  0  0  0  0  0  0  0
  132.1010  122.8000   62.9280 C   0  0  0  0  0  0  0  0  0  0  0  0
  131.2320  122.1340   62.0590 C   0  0  0  0  0  0  0  0  0  0  0  0
  131.7310  121.2390   61.1170 C   0  0  0  0  0  0  0  0  0  0  0  0
  133.1020  121.0130   61.0380 C   0  0  0  0  0  0  0  0  0  0  0  0
  133.9810  121.6790   61.8880 C   0  0  0  0  0  0  0  0  0  0  0  0
  133.4860  122.5760   62.8320 C   0  0  0  0  0  0  0  0  0  0  0  0
  130.3100  124.6200   66.4770 S   0  0  0  0  0  0  0  0  0  0  0  0
  129.5850  126.0300   67.2100 C   0  0  0  0  0  0  0  0  0  0  0  0
  129.4960  126.1580   68.5320 N   0  0  0  0  0  0  0  0  0  0  0  0
  128.9040  127.2850   69.0080 C   0  0  0  0  0  0  0  0  0  0  0  0
  128.8150  127.3990   70.5020 C   0  0  0  0  0  0  0  0  0  0  0  0
  129.8610  127.9750   71.2420 C   0  0  0  0  0  0  0  0  0  0  0  0
  129.7850  128.0860   72.6280 C   0  0  0  0  0  0  0  0  0  0  0  0
  128.6580  127.6200   73.2960 C   0  0  0  0  0  0  0  0  0  0  0  0
  127.6070  127.0480   72.5880 C   0  0  0  0  0  0  0  0  0  0  0  0
  127.6850  126.9420   71.2030 C   0  0  0  0  0  0  0  0  0  0  0  0
  128.4230  128.2840   68.1570 C   0  0  0  0  0  0  0  0  0  0  0  0
  128.5160  128.1600   66.7610 C   0  0  0  0  0  0  0  0  0  0  0  0
  127.9640  129.2920   65.8860 C   0  0  0  0  0  0  0  0  0  0  0  0
  128.6000  129.4090   64.7180 F   0  0  0  0  0  0  0  0  0  0  0  0
  126.6770  129.0710   65.6200 F   0  0  0  0  0  0  0  0  0  0  0  0
  128.0880  130.4560   66.5240 F   0  0  0  0  0  0  0  0  0  0  0  0
  129.1230  126.9780   66.2500 C   0  0  0  0  0  0  0  0  0  0  0  0
  1  2  1  0
  2  3  2  0
  3  4  1  0
  4  5  2  0
  4  6  1  0
  6  7  1  0
  7  8  2  0
  8  9  1  0
  9 10  2  0
 10 11  1  0
 11 12  2  0
  3 13  1  0
 13 14  1  0
 14 15  2  0
 15 16  1  0
 16 17  1  0
 17 18  2  0
 18 19  1  0
 19 20  2  0
 20 21  1  0
 21 22  2  0
 16 23  2  0
 23 24  1  0
 24 25  1  0
 25 26  1  0
 25 27  1  0
 25 28  1  0
 24 29  2  0
 29  2  1  0
 12  7  1  0
 29 14  1  0
 22 17  1  0
M  END
>  <Binding energies>  (55) 
[-7.28]

>  <Ligand effiencies>  (55) 
[-0.2275]

>  <Interactions>  (55) 
["V-B:TYR:539:CE2:9848, H-B:GLU:543:OE1:9881, V-B:TYR:539:CD2:9846, V-A:ILE:369:CD1:3239, V-B:GLU:543:CG:9879, V-A:ILE:369:CG2:3237, V-A:LEU:475:CD2:4259, V-A:TYR:484:CZ:4347, V-B:GLU:543:CB:9878, H-A:TYR:484:OH:4348, V-A:GLU:543:CD:4908, V-A:TYR:484:CE2:4346, V-A:GLY:454:CA:4049, V-B:GLU:543:CD:9880, V-B:HIS:456:CE1:9041, V-B:GLY:544:C:9884, V-B:GLU:543:C:9874, V-B:HIS:456:CD2:9039, V-B:LYS:547:CE:9922, V-A:HIS:456:CE1:4070, V-A:GLU:543:CG:4907, V-A:GLU:543:CB:4906, H-A:GLU:543:OE1:4909, H-A:GLU:543:OE2:4910, V-B:TYR:484:CZ:9318, V-A:GLU:543:CA:4904, H-B:GLU:543:OE2:9882, V-B:TYR:484:CE2:9317, V-A:SER:385:CB:3409, V-A:SER:385:C:3405"]

$$$$
4cg_Grossjean_2025
     RDKit          3D

 30 33  0  0  0  0  0  0  0  0999 V2000
  128.7330  127.2250   63.5400 N   0  0  0  0  0  0  0  0  0  0  0  0
  129.1260  126.4660   64.6120 C   0  0  0  0  0  0  0  0  0  0  0  0
  129.6070  125.1550   64.4890 C   0  0  0  0  0  0  0  0  0  0  0  0
  129.8290  124.3750   63.2720 C   0  0  0  0  0  0  0  0  0  0  0  0
  130.9660  124.0780   62.8970 O   0  0  0  0  0  0  0  0  0  0  0  0
  128.7240  124.0410   62.5730 N   0  0  0  0  0  0  0  0  0  0  0  0
  128.7050  123.2490   61.3440 C   0  0  0  0  0  0  0  0  0  0  0  0
  127.4430  123.4480   60.5130 C   0  0  0  0  0  0  0  0  0  0  0  0
  126.2280  123.7210   61.1500 C   0  0  0  0  0  0  0  0  0  0  0  0
  125.0790  123.9350   60.3940 C   0  0  0  0  0  0  0  0  0  0  0  0
  125.1500  123.8850   59.0030 C   0  0  0  0  0  0  0  0  0  0  0  0
  126.3600  123.6300   58.3620 C   0  0  0  0  0  0  0  0  0  0  0  0
  127.5100  123.4180   59.1180 C   0  0  0  0  0  0  0  0  0  0  0  0
  130.0410  124.4800   66.0570 S   0  0  0  0  0  0  0  0  0  0  0  0
  129.5540  125.9500   66.8690 C   0  0  0  0  0  0  0  0  0  0  0  0
  129.6460  126.0750   68.1900 N   0  0  0  0  0  0  0  0  0  0  0  0
  129.2490  127.2550   68.7330 C   0  0  0  0  0  0  0  0  0  0  0  0
  129.3630  127.3650   70.2270 C   0  0  0  0  0  0  0  0  0  0  0  0
  128.3340  126.9030   71.0650 C   0  0  0  0  0  0  0  0  0  0  0  0
  128.4340  127.0040   72.4490 C   0  0  0  0  0  0  0  0  0  0  0  0
  129.5690  127.5710   73.0200 C   0  0  0  0  0  0  0  0  0  0  0  0
  130.6020  128.0390   72.2150 C   0  0  0  0  0  0  0  0  0  0  0  0
  130.4970  127.9360   70.8310 C   0  0  0  0  0  0  0  0  0  0  0  0
  128.7430  128.2970   67.9460 C   0  0  0  0  0  0  0  0  0  0  0  0
  128.6420  128.1750   66.5520 C   0  0  0  0  0  0  0  0  0  0  0  0
  128.0790  129.3540   65.7500 C   0  0  0  0  0  0  0  0  0  0  0  0
  128.6950  129.5330   64.5790 F   0  0  0  0  0  0  0  0  0  0  0  0
  126.7860  129.1500   65.4950 F   0  0  0  0  0  0  0  0  0  0  0  0
  128.2170  130.4800   66.4480 F   0  0  0  0  0  0  0  0  0  0  0  0
  129.0700  126.9460   65.9710 C   0  0  0  0  0  0  0  0  0  0  0  0
  1  2  1  0
  2  3  2  0
  3  4  1  0
  4  5  2  0
  4  6  1  0
  6  7  1  0
  7  8  1  0
  8  9  2  0
  9 10  1  0
 10 11  2  0
 11 12  1  0
 12 13  2  0
  3 14  1  0
 14 15  1  0
 15 16  2  0
 16 17  1  0
 17 18  1  0
 18 19  2  0
 19 20  1  0
 20 21  2  0
 21 22  1  0
 22 23  2  0
 17 24  2  0
 24 25  1  0
 25 26  1  0
 26 27  1  0
 26 28  1  0
 26 29  1  0
 25 30  2  0
 30  2  1  0
 13  8  1  0
 30 15  1  0
 23 18  1  0
M  END
>  <Binding energies>  (56) 
[-7.52]

>  <Ligand effiencies>  (56) 
[-0.22787878787878788]

>  <Interactions>  (56) 
["V-B:PRO:540:CB:9857, V-B:PRO:540:CA:9855, H-B:GLU:543:OE1:9881, V-B:GLU:543:CG:9879, V-A:TYR:484:CZ:4347, V-B:GLU:543:CB:9878, V-A:GLU:543:CD:4908, V-A:TYR:484:CE2:4346, V-B:GLU:543:CD:9880, V-B:HIS:456:CE1:9041, V-A:GLY:544:C:4912, V-A:HIS:456:CE1:4070, V-A:GLU:543:CG:4907, V-A:GLU:543:C:4902, V-A:GLU:543:CB:4906, H-A:GLU:543:OE1:4909, H-A:GLU:543:OE2:4910, V-B:TYR:484:CZ:9318, V-A:GLU:543:CA:4904, H-B:GLU:543:OE2:9882, V-B:TYR:484:CE2:9317"]

$$$$
4ch_Grossjean_2025
     RDKit          3D

 36 39  0  0  0  0  0  0  0  0999 V2000
  127.6240  122.9400   55.8820 C   0  0  0  0  0  0  0  0  0  0  0  0
  127.4360  122.0530   56.9800 O   0  0  0  0  0  0  0  0  0  0  0  0
  127.3930  122.5640   58.2640 C   0  0  0  0  0  0  0  0  0  0  0  0
  128.4720  122.5180   59.1630 C   0  0  0  0  0  0  0  0  0  0  0  0
  128.3580  123.0560   60.4450 C   0  0  0  0  0  0  0  0  0  0  0  0
  129.5300  122.9710   61.4160 C   0  0  0  0  0  0  0  0  0  0  0  0
  129.3690  123.7830   62.6240 N   0  0  0  0  0  0  0  0  0  0  0  0
  130.3430  124.5010   63.2210 C   0  0  0  0  0  0  0  0  0  0  0  0
  131.4900  124.5640   62.7740 O   0  0  0  0  0  0  0  0  0  0  0  0
  129.9500  125.2400   64.4220 C   0  0  0  0  0  0  0  0  0  0  0  0
  130.2520  124.5580   66.0160 S   0  0  0  0  0  0  0  0  0  0  0  0
  129.5700  125.9650   66.7960 C   0  0  0  0  0  0  0  0  0  0  0  0
  129.4980  126.0580   68.1210 N   0  0  0  0  0  0  0  0  0  0  0  0
  128.9570  127.1930   68.6360 C   0  0  0  0  0  0  0  0  0  0  0  0
  128.8840  127.2640   70.1350 C   0  0  0  0  0  0  0  0  0  0  0  0
  127.7120  126.8970   70.8160 C   0  0  0  0  0  0  0  0  0  0  0  0
  127.6370  126.9620   72.2050 C   0  0  0  0  0  0  0  0  0  0  0  0
  128.7380  127.3970   72.9360 C   0  0  0  0  0  0  0  0  0  0  0  0
  129.9100  127.7700   72.2860 C   0  0  0  0  0  0  0  0  0  0  0  0
  129.9790  127.7050   70.8970 C   0  0  0  0  0  0  0  0  0  0  0  0
  128.4760  128.2190   67.8180 C   0  0  0  0  0  0  0  0  0  0  0  0
  128.5450  128.1310   66.4180 C   0  0  0  0  0  0  0  0  0  0  0  0
  127.9990  129.2930   65.5810 C   0  0  0  0  0  0  0  0  0  0  0  0
  128.7240  129.5360   64.4860 F   0  0  0  0  0  0  0  0  0  0  0  0
  126.7580  129.0190   65.1840 F   0  0  0  0  0  0  0  0  0  0  0  0
  127.9920  130.4090   66.3090 F   0  0  0  0  0  0  0  0  0  0  0  0
  129.1230  126.9510   65.8680 C   0  0  0  0  0  0  0  0  0  0  0  0
  129.3640  126.5130   64.5140 C   0  0  0  0  0  0  0  0  0  0  0  0
  129.0400  127.2710   63.4180 N   0  0  0  0  0  0  0  0  0  0  0  0
  127.1520  123.6330   60.8450 C   0  0  0  0  0  0  0  0  0  0  0  0
  126.0570  123.6910   59.9680 C   0  0  0  0  0  0  0  0  0  0  0  0
  124.8340  124.2490   60.2970 O   0  0  0  0  0  0  0  0  0  0  0  0
  124.1300  123.7670   61.4360 C   0  0  0  0  0  0  0  0  0  0  0  0
  126.1930  123.1590   58.6780 C   0  0  0  0  0  0  0  0  0  0  0  0
  125.1250  123.1970   57.8150 O   0  0  0  0  0  0  0  0  0  0  0  0
  124.7670  124.5060   57.3930 C   0  0  0  0  0  0  0  0  0  0  0  0
  1  2  1  0
  2  3  1  0
  3  4  2  0
  4  5  1  0
  5  6  1  0
  6  7  1  0
  7  8  1  0
  8  9  2  0
  8 10  1  0
 10 11  1  0
 11 12  1  0
 12 13  2  0
 13 14  1  0
 14 15  1  0
 15 16  2  0
 16 17  1  0
 17 18  2  0
 18 19  1  0
 19 20  2  0
 14 21  2  0
 21 22  1  0
 22 23  1  0
 23 24  1  0
 23 25  1  0
 23 26  1  0
 22 27  2  0
 27 28  1  0
 28 29  1  0
  5 30  2  0
 30 31  1  0
 31 32  1  0
 32 33  1  0
 31 34  2  0
 34 35  1  0
 35 36  1  0
 34  3  1  0
 28 10  2  0
 27 12  1  0
 20 15  1  0
M  END
>  <Binding energies>  (57) 
[-7.61]

>  <Ligand effiencies>  (57) 
[-0.19512820512820514]

>  <Interactions>  (57) 
["V-B:TYR:539:CZ:9849, V-B:PRO:540:N:9856, V-B:TYR:539:CE1:9847, V-B:PRO:540:CB:9857, V-B:TYR:539:CD1:9845, V-B:PRO:540:CA:9855, V-B:TYR:539:CE2:9848, H-B:TYR:539:N:9842, V-B:MET:535:CE:9807, V-B:LEU:363:CD1:8160, V-B:TYR:539:C:9839, V-B:TYR:539:CG:9844, H-B:GLU:543:OE1:9881, V-B:TYR:539:CD2:9846, V-B:TYR:531:CE2:9765, V-B:GLU:543:CG:9879, V-A:TYR:484:CZ:4347, V-B:GLU:543:CB:9878, V-A:GLU:543:CD:4908, V-A:TYR:484:CE2:4346, V-B:GLU:543:CD:9880, V-B:HIS:456:CE1:9041, V-B:GLY:544:C:9884, V-B:GLU:543:C:9874, V-B:HIS:456:CD2:9039, V-B:LYS:547:CE:9922, V-A:HIS:456:CE1:4070, V-A:GLU:543:CG:4907, V-A:GLU:543:CB:4906, H-A:GLU:543:OE1:4909, H-A:GLU:543:OE2:4910, V-B:TYR:484:CZ:9318, H-B:GLU:543:OE2:9882, V-B:ASN:362:CB:8147, V-B:TYR:484:CE2:9317, V-B:ASN:362:C:8143"]

$$$$
4cj_Grossjean_2025
     RDKit          3D

 28 31  0  0  0  0  0  0  0  0999 V2000
  129.0700  127.1860   63.7830 N   0  0  0  0  0  0  0  0  0  0  0  0
  129.4760  126.5240   64.9140 C   0  0  0  0  0  0  0  0  0  0  0  0
  130.2690  125.3650   64.8840 C   0  0  0  0  0  0  0  0  0  0  0  0
  130.8090  124.6580   63.7200 C   0  0  0  0  0  0  0  0  0  0  0  0
  130.4050  124.9130   62.5830 O   0  0  0  0  0  0  0  0  0  0  0  0
  131.7530  123.7230   63.9940 N   0  0  0  0  0  0  0  0  0  0  0  0
  132.4190  122.9190   63.0790 C   0  0  0  0  0  0  0  0  0  0  0  0
  133.7110  122.6760   63.0080 N   0  0  0  0  0  0  0  0  0  0  0  0
  133.9960  121.8610   62.0120 C   0  0  0  0  0  0  0  0  0  0  0  0
  132.9200  121.4220   61.2470 C   0  0  0  0  0  0  0  0  0  0  0  0
  131.4570  122.1220   61.8760 S   0  0  0  0  0  0  0  0  0  0  0  0
  130.6140  124.7870   66.5120 S   0  0  0  0  0  0  0  0  0  0  0  0
  129.6950  126.0950   67.2190 C   0  0  0  0  0  0  0  0  0  0  0  0
  129.5710  126.2230   68.5380 N   0  0  0  0  0  0  0  0  0  0  0  0
  128.8450  127.2750   68.9950 C   0  0  0  0  0  0  0  0  0  0  0  0
  128.7360  127.3980   70.4880 C   0  0  0  0  0  0  0  0  0  0  0  0
  127.5940  126.9420   71.1650 C   0  0  0  0  0  0  0  0  0  0  0  0
  127.4840  127.0580   72.5490 C   0  0  0  0  0  0  0  0  0  0  0  0
  128.5190  127.6370   73.2770 C   0  0  0  0  0  0  0  0  0  0  0  0
  129.6600  128.0990   72.6310 C   0  0  0  0  0  0  0  0  0  0  0  0
  129.7660  127.9790   71.2480 C   0  0  0  0  0  0  0  0  0  0  0  0
  128.2250  128.1790   68.1250 C   0  0  0  0  0  0  0  0  0  0  0  0
  128.3470  128.0520   66.7320 C   0  0  0  0  0  0  0  0  0  0  0  0
  127.6440  129.0790   65.8370 C   0  0  0  0  0  0  0  0  0  0  0  0
  127.3370  128.6000   64.6310 F   0  0  0  0  0  0  0  0  0  0  0  0
  126.5080  129.4740   66.4110 F   0  0  0  0  0  0  0  0  0  0  0  0
  128.4360  130.1370   65.6570 F   0  0  0  0  0  0  0  0  0  0  0  0
  129.1230  126.9630   66.2420 C   0  0  0  0  0  0  0  0  0  0  0  0
  1  2  1  0
  2  3  2  0
  3  4  1  0
  4  5  2  0
  4  6  1  0
  6  7  1  0
  7  8  2  0
  8  9  1  0
  9 10  2  0
 10 11  1  0
  3 12  1  0
 12 13  1  0
 13 14  2  0
 14 15  1  0
 15 16  1  0
 16 17  2  0
 17 18  1  0
 18 19  2  0
 19 20  1  0
 20 21  2  0
 15 22  2  0
 22 23  1  0
 23 24  1  0
 24 25  1  0
 24 26  1  0
 24 27  1  0
 23 28  2  0
 28  2  1  0
 11  7  1  0
 28 13  1  0
 21 16  1  0
M  END
>  <Binding energies>  (58) 
[-6.88]

>  <Ligand effiencies>  (58) 
[-0.22193548387096773]

>  <Interactions>  (58) 
["H-B:GLU:543:OE1:9881, V-A:ILE:369:CD1:3239, V-B:GLU:543:CG:9879, V-A:ILE:369:CG2:3237, V-A:LEU:475:CD2:4259, V-A:TYR:484:CZ:4347, V-B:GLU:543:CB:9878, H-A:TYR:484:OH:4348, V-A:GLU:543:CD:4908, V-A:TYR:484:CE2:4346, V-A:GLY:454:CA:4049, V-B:GLU:543:CD:9880, V-B:HIS:456:CE1:9041, V-B:GLY:544:C:9884, V-B:GLU:543:C:9874, V-B:HIS:456:CD2:9039, V-B:LYS:547:CE:9922, V-A:HIS:456:CE1:4070, V-A:GLU:543:CG:4907, V-A:GLU:543:CB:4906, V-B:GLY:544:CA:9886, H-A:GLU:543:OE1:4909, H-A:GLU:543:OE2:4910, V-B:TYR:484:CZ:9318, H-B:GLU:543:OE2:9882, H-A:GLY:454:N:4050, V-B:TYR:484:CE2:9317, V-A:SER:385:C:3405"]

$$$$
4ck_Grossjean_2025
     RDKit          3D

 33 35  0  0  0  0  0  0  0  0999 V2000
  125.1450  122.3810   56.2470 C   0  0  0  0  0  0  0  0  0  0  0  0
  126.5050  121.9850   56.1630 O   0  0  0  0  0  0  0  0  0  0  0  0
  127.3580  122.7040   57.0420 C   0  0  0  0  0  0  0  0  0  0  0  0
  126.5290  123.7470   57.8020 C   0  0  0  0  0  0  0  0  0  0  0  0
  126.1960  123.2310   59.0830 O   0  0  0  0  0  0  0  0  0  0  0  0
  125.7330  124.2210   59.9920 C   0  0  0  0  0  0  0  0  0  0  0  0
  126.7460  124.3690   61.1340 C   0  0  0  0  0  0  0  0  0  0  0  0
  126.9630  123.0930   61.7200 O   0  0  0  0  0  0  0  0  0  0  0  0
  128.0310  122.3620   61.1300 C   0  0  0  0  0  0  0  0  0  0  0  0
  129.3730  122.9800   61.5510 C   0  0  0  0  0  0  0  0  0  0  0  0
  129.2420  123.8190   62.7430 N   0  0  0  0  0  0  0  0  0  0  0  0
  130.2470  124.4700   63.3650 C   0  0  0  0  0  0  0  0  0  0  0  0
  131.4090  124.4440   62.9580 O   0  0  0  0  0  0  0  0  0  0  0  0
  129.8740  125.2310   64.5580 C   0  0  0  0  0  0  0  0  0  0  0  0
  130.1890  124.5710   66.1610 S   0  0  0  0  0  0  0  0  0  0  0  0
  129.5540  126.0090   66.9250 C   0  0  0  0  0  0  0  0  0  0  0  0
  129.5160  126.1330   68.2490 N   0  0  0  0  0  0  0  0  0  0  0  0
  129.0040  127.2860   68.7520 C   0  0  0  0  0  0  0  0  0  0  0  0
  128.9920  127.4030   70.2490 C   0  0  0  0  0  0  0  0  0  0  0  0
  127.8830  126.9710   70.9950 C   0  0  0  0  0  0  0  0  0  0  0  0
  127.8650  127.0780   72.3840 C   0  0  0  0  0  0  0  0  0  0  0  0
  128.9600  127.6210   73.0480 C   0  0  0  0  0  0  0  0  0  0  0  0
  130.0730  128.0510   72.3340 C   0  0  0  0  0  0  0  0  0  0  0  0
  130.0880  127.9410   70.9460 C   0  0  0  0  0  0  0  0  0  0  0  0
  128.5410  128.3130   67.9220 C   0  0  0  0  0  0  0  0  0  0  0  0
  128.5750  128.1920   66.5240 C   0  0  0  0  0  0  0  0  0  0  0  0
  128.0480  129.3540   65.6740 C   0  0  0  0  0  0  0  0  0  0  0  0
  128.7130  129.5090   64.5280 F   0  0  0  0  0  0  0  0  0  0  0  0
  126.7680  129.1440   65.3680 F   0  0  0  0  0  0  0  0  0  0  0  0
  128.1550  130.4950   66.3550 F   0  0  0  0  0  0  0  0  0  0  0  0
  129.1080  126.9850   65.9860 C   0  0  0  0  0  0  0  0  0  0  0  0
  129.3110  126.5140   64.6370 C   0  0  0  0  0  0  0  0  0  0  0  0
  128.9790  127.2560   63.5330 N   0  0  0  0  0  0  0  0  0  0  0  0
  1  2  1  0
  2  3  1  0
  3  4  1  0
  4  5  1  0
  5  6  1  0
  6  7  1  0
  7  8  1  0
  8  9  1  0
  9 10  1  0
 10 11  1  0
 11 12  1  0
 12 13  2  0
 12 14  1  0
 14 15  1  0
 15 16  1  0
 16 17  2  0
 17 18  1  0
 18 19  1  0
 19 20  2  0
 20 21  1  0
 21 22  2  0
 22 23  1  0
 23 24  2  0
 18 25  2  0
 25 26  1  0
 26 27  1  0
 27 28  1  0
 27 29  1  0
 27 30  1  0
 26 31  2  0
 31 32  1  0
 32 33  1  0
 32 14  2  0
 31 16  1  0
 24 19  1  0
M  END
>  <Binding energies>  (59) 
[-7.23]

>  <Ligand effiencies>  (59) 
[-0.20083333333333334]

>  <Interactions>  (59) 
["V-B:TYR:539:CZ:9849, V-B:PRO:540:N:9856, V-B:TYR:539:CE1:9847, V-B:PRO:540:CB:9857, V-B:TYR:539:CD1:9845, V-B:PRO:540:CA:9855, V-B:TYR:539:CE2:9848, H-B:TYR:539:N:9842, V-B:PRO:540:CD:9859, V-B:MET:535:CE:9807, V-B:LEU:363:CD1:8160, V-B:PRO:540:CG:9858, V-B:TYR:539:C:9839, V-B:TYR:539:CG:9844, H-B:GLU:543:OE1:9881, V-B:PRO:540:C:9853, H-B:ALA:541:N:9863, V-B:TYR:539:CD2:9846, V-B:GLU:543:CG:9879, V-A:TYR:484:CZ:4347, V-B:GLU:543:CB:9878, V-A:GLU:543:CD:4908, V-A:TYR:484:CE2:4346, V-B:GLU:543:CD:9880, V-B:HIS:456:CE1:9041, V-B:GLY:544:C:9884, V-B:GLU:543:C:9874, V-B:HIS:456:CD2:9039, V-B:LYS:547:CE:9922, V-A:HIS:456:CE1:4070, V-A:GLU:543:CG:4907, V-A:GLU:543:CB:4906, H-A:GLU:543:OE1:4909, H-A:GLU:543:OE2:4910, V-B:TYR:484:CZ:9318, V-A:GLU:543:CA:4904, H-B:GLU:543:OE2:9882, V-B:ILE:538:CG2:9835, V-B:TYR:484:CE2:9317"]

$$$$
4dd_Grossjean_2025
     RDKit          3D

 26 29  0  0  0  0  0  0  0  0999 V2000
  127.7050  129.0940   65.8910 C   0  0  0  0  0  0  0  0  0  0  0  0
  128.4030  128.0510   66.7510 C   0  0  0  0  0  0  0  0  0  0  0  0
  128.3240  128.1820   68.1430 C   0  0  0  0  0  0  0  0  0  0  0  0
  128.9450  127.2550   68.9890 C   0  0  0  0  0  0  0  0  0  0  0  0
  128.8810  127.3740   70.4830 C   0  0  0  0  0  0  0  0  0  0  0  0
  129.9500  127.9240   71.2080 C   0  0  0  0  0  0  0  0  0  0  0  0
  129.8960  128.0400   72.5950 C   0  0  0  0  0  0  0  0  0  0  0  0
  128.7680  127.6030   73.2790 C   0  0  0  0  0  0  0  0  0  0  0  0
  127.6930  127.0550   72.5870 C   0  0  0  0  0  0  0  0  0  0  0  0
  127.7500  126.9430   71.2000 C   0  0  0  0  0  0  0  0  0  0  0  0
  129.6570  126.2030   68.5030 N   0  0  0  0  0  0  0  0  0  0  0  0
  129.7280  126.0730   67.1790 C   0  0  0  0  0  0  0  0  0  0  0  0
  130.5950  124.7570   66.4200 S   0  0  0  0  0  0  0  0  0  0  0  0
  130.1770  125.3480   64.8100 C   0  0  0  0  0  0  0  0  0  0  0  0
  130.6220  124.6250   63.6170 C   0  0  0  0  0  0  0  0  0  0  0  0
  130.1690  124.9070   62.5060 O   0  0  0  0  0  0  0  0  0  0  0  0
  131.5480  123.6600   63.8340 N   0  0  0  0  0  0  0  0  0  0  0  0
  132.1350  122.7600   62.9260 C   0  0  0  0  0  0  0  0  0  0  0  0
  131.2540  122.0980   62.0660 C   0  0  0  0  0  0  0  0  0  0  0  0
  131.7390  121.1980   61.1210 C   0  0  0  0  0  0  0  0  0  0  0  0
  133.1080  120.9630   61.0300 C   0  0  0  0  0  0  0  0  0  0  0  0
  133.9980  121.6240   61.8730 C   0  0  0  0  0  0  0  0  0  0  0  0
  133.5160  122.5250   62.8190 C   0  0  0  0  0  0  0  0  0  0  0  0
  129.4050  126.5170   64.8860 C   0  0  0  0  0  0  0  0  0  0  0  0
  128.9410  127.1990   63.7880 N   0  0  0  0  0  0  0  0  0  0  0  0
  129.1320  126.9510   66.2300 C   0  0  0  0  0  0  0  0  0  0  0  0
  1  2  1  0
  2  3  2  0
  3  4  1  0
  4  5  1  0
  5  6  2  0
  6  7  1  0
  7  8  2  0
  8  9  1  0
  9 10  2  0
  4 11  2  0
 11 12  1  0
 12 13  1  0
 13 14  1  0
 14 15  1  0
 15 16  2  0
 15 17  1  0
 17 18  1  0
 18 19  2  0
 19 20  1  0
 20 21  2  0
 21 22  1  0
 22 23  2  0
 14 24  2  0
 24 25  1  0
 24 26  1  0
 26  2  1  0
 10  5  1  0
 26 12  2  0
 23 18  1  0
M  END
>  <Binding energies>  (60) 
[-7.17]

>  <Ligand effiencies>  (60) 
[-0.24724137931034482]

>  <Interactions>  (60) 
["V-B:TYR:539:CE2:9848, H-B:GLU:543:OE1:9881, V-B:TYR:539:CD2:9846, V-A:ILE:369:CD1:3239, V-B:GLU:543:CG:9879, V-A:ILE:369:CG2:3237, V-A:LEU:475:CD2:4259, V-A:TYR:484:CZ:4347, V-B:GLU:543:CB:9878, H-A:TYR:484:OH:4348, V-A:GLU:543:CD:4908, V-A:TYR:484:CE2:4346, V-A:GLY:454:CA:4049, V-B:GLU:543:CD:9880, V-B:HIS:456:CE1:9041, V-B:GLY:544:C:9884, V-B:GLU:543:C:9874, V-B:HIS:456:CD2:9039, V-B:LYS:547:CE:9922, V-A:HIS:456:CE1:4070, V-A:GLU:543:CG:4907, V-A:GLU:543:CB:4906, H-A:GLU:543:OE1:4909, H-B:GLU:543:OE2:9882, V-A:SER:385:CB:3409, V-A:SER:385:C:3405"]

$$$$
4dg_Grossjean_2025
     RDKit          3D

 27 30  0  0  0  0  0  0  0  0999 V2000
  128.1140  129.3820   65.9330 C   0  0  0  0  0  0  0  0  0  0  0  0
  128.6310  128.2180   66.7640 C   0  0  0  0  0  0  0  0  0  0  0  0
  128.6850  128.3720   68.1540 C   0  0  0  0  0  0  0  0  0  0  0  0
  129.1500  127.3380   68.9760 C   0  0  0  0  0  0  0  0  0  0  0  0
  129.2180  127.4740   70.4710 C   0  0  0  0  0  0  0  0  0  0  0  0
  128.1140  127.1480   71.2750 C   0  0  0  0  0  0  0  0  0  0  0  0
  128.1710  127.2760   72.6610 C   0  0  0  0  0  0  0  0  0  0  0  0
  129.3370  127.7330   73.2650 C   0  0  0  0  0  0  0  0  0  0  0  0
  130.4450  128.0680   72.4920 C   0  0  0  0  0  0  0  0  0  0  0  0
  130.3830  127.9390   71.1080 C   0  0  0  0  0  0  0  0  0  0  0  0
  129.5500  126.1420   68.4670 N   0  0  0  0  0  0  0  0  0  0  0  0
  129.5000  125.9930   67.1430 C   0  0  0  0  0  0  0  0  0  0  0  0
  129.9900  124.5100   66.3590 S   0  0  0  0  0  0  0  0  0  0  0  0
  129.6100  125.1730   64.7700 C   0  0  0  0  0  0  0  0  0  0  0  0
  129.8540  124.3810   63.5660 C   0  0  0  0  0  0  0  0  0  0  0  0
  130.9990  124.1330   63.1820 O   0  0  0  0  0  0  0  0  0  0  0  0
  128.7560  123.9800   62.8920 N   0  0  0  0  0  0  0  0  0  0  0  0
  128.7590  123.1630   61.6790 C   0  0  0  0  0  0  0  0  0  0  0  0
  127.5770  123.4440   60.7570 C   0  0  0  0  0  0  0  0  0  0  0  0
  127.7520  123.4020   59.3710 C   0  0  0  0  0  0  0  0  0  0  0  0
  126.6690  123.6270   58.5260 C   0  0  0  0  0  0  0  0  0  0  0  0
  125.4120  123.8810   59.0700 C   0  0  0  0  0  0  0  0  0  0  0  0
  125.2260  123.9070   60.4500 C   0  0  0  0  0  0  0  0  0  0  0  0
  126.3090  123.6820   61.2950 C   0  0  0  0  0  0  0  0  0  0  0  0
  129.1420  126.4920   64.8670 C   0  0  0  0  0  0  0  0  0  0  0  0
  128.7850  127.2570   63.7860 N   0  0  0  0  0  0  0  0  0  0  0  0
  129.0580  126.9800   66.2170 C   0  0  0  0  0  0  0  0  0  0  0  0
  1  2  1  0
  2  3  2  0
  3  4  1  0
  4  5  1  0
  5  6  2  0
  6  7  1  0
  7  8  2  0
  8  9  1  0
  9 10  2  0
  4 11  2  0
 11 12  1  0
 12 13  1  0
 13 14  1  0
 14 15  1  0
 15 16  2  0
 15 17  1  0
 17 18  1  0
 18 19  1  0
 19 20  2  0
 20 21  1  0
 21 22  2  0
 22 23  1  0
 23 24  2  0
 14 25  2  0
 25 26  1  0
 25 27  1  0
 27  2  1  0
 10  5  1  0
 27 12  2  0
 24 19  1  0
M  END
>  <Binding energies>  (61) 
[-7.79]

>  <Ligand effiencies>  (61) 
[-0.25966666666666666]

>  <Interactions>  (61) 
["V-B:PRO:540:CB:9857, V-B:PRO:540:CA:9855, H-B:GLU:543:OE1:9881, V-B:GLU:543:CG:9879, V-A:TYR:484:CZ:4347, V-B:GLU:543:CB:9878, V-A:GLU:543:CD:4908, V-A:TYR:484:CE2:4346, V-B:GLU:543:CD:9880, V-B:HIS:456:CE1:9041, V-A:GLY:544:C:4912, V-B:HIS:456:CD2:9039, V-A:HIS:456:CE1:4070, V-A:GLU:543:CG:4907, V-A:GLU:543:C:4902, V-A:GLU:543:CB:4906, H-A:GLU:543:OE1:4909, H-A:GLU:543:OE2:4910, H-B:GLU:543:OE2:9882, V-B:GLU:543:CA:9876"]

$$$$
4dj_Grossjean_2025
     RDKit          3D

 25 28  0  0  0  0  0  0  0  0999 V2000
  127.8430  129.1520   65.9440 C   0  0  0  0  0  0  0  0  0  0  0  0
  128.4680  128.0960   66.8440 C   0  0  0  0  0  0  0  0  0  0  0  0
  128.3370  128.2490   68.2290 C   0  0  0  0  0  0  0  0  0  0  0  0
  128.8900  127.3140   69.1120 C   0  0  0  0  0  0  0  0  0  0  0  0
  128.7600  127.4480   70.6030 C   0  0  0  0  0  0  0  0  0  0  0  0
  127.5620  127.1140   71.2550 C   0  0  0  0  0  0  0  0  0  0  0  0
  127.4350  127.2370   72.6360 C   0  0  0  0  0  0  0  0  0  0  0  0
  128.5090  127.7020   73.3880 C   0  0  0  0  0  0  0  0  0  0  0  0
  129.7060  128.0450   72.7690 C   0  0  0  0  0  0  0  0  0  0  0  0
  129.8280  127.9190   71.3880 C   0  0  0  0  0  0  0  0  0  0  0  0
  129.5590  126.2150   68.6680 N   0  0  0  0  0  0  0  0  0  0  0  0
  129.6860  126.0690   67.3500 C   0  0  0  0  0  0  0  0  0  0  0  0
  130.5290  124.7080   66.6430 S   0  0  0  0  0  0  0  0  0  0  0  0
  130.2140  125.3010   65.0110 C   0  0  0  0  0  0  0  0  0  0  0  0
  130.7050  124.5610   63.8480 C   0  0  0  0  0  0  0  0  0  0  0  0
  130.1610  124.6840   62.7470 O   0  0  0  0  0  0  0  0  0  0  0  0
  131.7660  123.7490   64.0780 N   0  0  0  0  0  0  0  0  0  0  0  0
  132.4160  122.9430   63.1540 C   0  0  0  0  0  0  0  0  0  0  0  0
  133.7030  122.6790   63.0770 N   0  0  0  0  0  0  0  0  0  0  0  0
  133.9720  121.8700   62.0710 C   0  0  0  0  0  0  0  0  0  0  0  0
  132.8860  121.4570   61.3050 C   0  0  0  0  0  0  0  0  0  0  0  0
  131.4380  122.1740   61.9460 S   0  0  0  0  0  0  0  0  0  0  0  0
  129.4900  126.5020   65.0400 C   0  0  0  0  0  0  0  0  0  0  0  0
  129.1080  127.1910   63.9160 N   0  0  0  0  0  0  0  0  0  0  0  0
  129.1730  126.9620   66.3660 C   0  0  0  0  0  0  0  0  0  0  0  0
  1  2  1  0
  2  3  2  0
  3  4  1  0
  4  5  1  0
  5  6  2  0
  6  7  1  0
  7  8  2  0
  8  9  1  0
  9 10  2  0
  4 11  2  0
 11 12  1  0
 12 13  1  0
 13 14  1  0
 14 15  1  0
 15 16  2  0
 15 17  1  0
 17 18  1  0
 18 19  2  0
 19 20  1  0
 20 21  2  0
 21 22  1  0
 14 23  2  0
 23 24  1  0
 23 25  1  0
 25  2  1  0
 10  5  1  0
 25 12  2  0
 22 18  1  0
M  END
>  <Binding energies>  (62) 
[-7.16]

>  <Ligand effiencies>  (62) 
[-0.2557142857142857]

>  <Interactions>  (62) 
["H-B:GLU:543:OE1:9881, V-A:ILE:369:CD1:3239, V-B:GLU:543:CG:9879, V-A:ILE:369:CG2:3237, V-A:LEU:475:CD2:4259, V-A:TYR:484:CZ:4347, V-B:GLU:543:CB:9878, H-A:TYR:484:OH:4348, V-A:GLU:543:CD:4908, V-A:TYR:484:CE2:4346, V-A:GLY:454:CA:4049, V-B:GLU:543:CD:9880, V-B:HIS:456:CE1:9041, V-B:GLY:544:C:9884, V-B:HIS:456:CD2:9039, V-B:LYS:547:CE:9922, V-A:HIS:456:CE1:4070, V-A:GLU:543:CG:4907, V-A:GLU:543:CB:4906, V-B:HIS:456:CG:9037, H-A:GLU:543:OE1:4909, H-A:GLU:543:OE2:4910, H-B:GLU:543:OE2:9882, H-A:GLY:454:N:4050"]

$$$$
4ea_Grossjean_2025
     RDKit          3D

 31 34  0  0  0  0  0  0  0  0999 V2000
  131.4160  131.9340   55.6710 C   0  0  0  0  0  0  0  0  0  0  0  0
  131.7510  132.6400   56.9880 C   0  0  0  0  0  0  0  0  0  0  0  0
  130.7550  133.6150   57.2680 O   0  0  0  0  0  0  0  0  0  0  0  0
  129.4790  133.2520   57.5570 C   0  0  0  0  0  0  0  0  0  0  0  0
  128.5200  133.4910   56.8160 O   0  0  0  0  0  0  0  0  0  0  0  0
  129.3490  132.5300   58.8670 C   0  0  0  0  0  0  0  0  0  0  0  0
  129.5560  131.1460   58.9080 C   0  0  0  0  0  0  0  0  0  0  0  0
  129.4430  130.4480   60.1070 C   0  0  0  0  0  0  0  0  0  0  0  0
  129.1220  131.1170   61.2880 C   0  0  0  0  0  0  0  0  0  0  0  0
  129.0350  130.3090   62.4390 N   0  0  0  0  0  0  0  0  0  0  0  0
  128.0080  129.5620   62.9120 C   0  0  0  0  0  0  0  0  0  0  0  0
  126.9090  129.4680   62.3640 O   0  0  0  0  0  0  0  0  0  0  0  0
  128.2820  128.8410   64.1580 C   0  0  0  0  0  0  0  0  0  0  0  0
  127.6550  129.4430   65.6950 S   0  0  0  0  0  0  0  0  0  0  0  0
  128.3820  128.1140   66.5670 C   0  0  0  0  0  0  0  0  0  0  0  0
  128.2590  127.9880   67.8900 N   0  0  0  0  0  0  0  0  0  0  0  0
  128.8700  126.9130   68.4450 C   0  0  0  0  0  0  0  0  0  0  0  0
  128.7180  126.7890   69.9500 C   0  0  0  0  0  0  0  0  0  0  0  0
  129.5930  125.9710   67.7170 C   0  0  0  0  0  0  0  0  0  0  0  0
  129.7200  126.1070   66.3310 C   0  0  0  0  0  0  0  0  0  0  0  0
  130.4920  125.0980   65.5710 C   0  0  0  0  0  0  0  0  0  0  0  0
  131.8150  125.3580   65.2000 C   0  0  0  0  0  0  0  0  0  0  0  0
  132.5420  124.4080   64.4870 C   0  0  0  0  0  0  0  0  0  0  0  0
  131.9440  123.1980   64.1430 C   0  0  0  0  0  0  0  0  0  0  0  0
  130.6260  122.9310   64.5030 C   0  0  0  0  0  0  0  0  0  0  0  0
  129.9000  123.8810   65.2160 C   0  0  0  0  0  0  0  0  0  0  0  0
  129.0930  127.2220   65.7090 C   0  0  0  0  0  0  0  0  0  0  0  0
  129.0200  127.6610   64.3400 C   0  0  0  0  0  0  0  0  0  0  0  0
  129.6240  126.9730   63.3180 N   0  0  0  0  0  0  0  0  0  0  0  0
  128.9130  132.5050   61.2570 C   0  0  0  0  0  0  0  0  0  0  0  0
  129.0260  133.2010   60.0570 C   0  0  0  0  0  0  0  0  0  0  0  0
  1  2  1  0
  2  3  1  0
  3  4  1  0
  4  5  2  0
  4  6  1  0
  6  7  2  0
  7  8  1  0
  8  9  2  0
  9 10  1  0
 10 11  1  0
 11 12  2  0
 11 13  1  0
 13 14  1  0
 14 15  1  0
 15 16  2  0
 16 17  1  0
 17 18  1  0
 17 19  2  0
 19 20  1  0
 20 21  1  0
 21 22  2  0
 22 23  1  0
 23 24  2  0
 24 25  1  0
 25 26  2  0
 20 27  2  0
 27 28  1  0
 28 29  1  0
  9 30  1  0
 30 31  2  0
 31  6  1  0
 28 13  2  0
 27 15  1  0
 26 21  1  0
M  END
>  <Binding energies>  (63) 
[-8.52]

>  <Ligand effiencies>  (63) 
[-0.2505882352941176]

>  <Interactions>  (63) 
["V-A:LEU:363:CD1:3189, V-A:PRO:540:CA:4883, V-A:PRO:540:CB:4885, V-A:PRO:540:CD:4887, V-A:PRO:540:N:4884, V-A:TYR:539:C:4867, H-A:TYR:539:N:4870, H-B:GLU:543:OE1:9881, V-A:MET:535:CE:4835, V-B:GLU:543:CG:9879, V-A:LEU:475:CD2:4259, V-A:TYR:484:CZ:4347, V-B:GLU:543:CB:9878, V-A:GLU:543:CD:4908, V-A:TYR:484:CE2:4346, V-A:ARG:545:CZ:4926, V-B:GLU:543:CD:9880, V-B:GLU:543:C:9874, V-A:HIS:456:CE1:4070, V-A:GLU:543:CG:4907, V-A:GLU:543:CB:4906, H-A:GLU:543:OE1:4909, H-A:GLU:543:OE2:4910, V-A:TYR:539:CD1:4873, V-A:TYR:539:CG:4872, V-A:TYR:539:CA:4869, V-A:ILE:538:CG2:4863, V-A:ILE:538:CB:4862"]

$$$$
4eb_Grossjean_2025
     RDKit          3D

 30 33  0  0  0  0  0  0  0  0999 V2000
  131.7530  132.7750   56.4900 C   0  0  0  0  0  0  0  0  0  0  0  0
  130.9660  133.5520   57.3800 O   0  0  0  0  0  0  0  0  0  0  0  0
  129.6580  133.2550   57.5970 C   0  0  0  0  0  0  0  0  0  0  0  0
  128.7490  133.5870   56.8310 O   0  0  0  0  0  0  0  0  0  0  0  0
  129.4280  132.4810   58.8630 C   0  0  0  0  0  0  0  0  0  0  0  0
  130.4470  131.6530   59.3530 C   0  0  0  0  0  0  0  0  0  0  0  0
  130.2640  130.9240   60.5240 C   0  0  0  0  0  0  0  0  0  0  0  0
  129.0630  131.0050   61.2290 C   0  0  0  0  0  0  0  0  0  0  0  0
  128.9910  130.2230   62.3990 N   0  0  0  0  0  0  0  0  0  0  0  0
  127.9530  129.5320   62.9310 C   0  0  0  0  0  0  0  0  0  0  0  0
  126.8280  129.4790   62.4340 O   0  0  0  0  0  0  0  0  0  0  0  0
  128.2480  128.8230   64.1780 C   0  0  0  0  0  0  0  0  0  0  0  0
  127.6440  129.4370   65.7190 S   0  0  0  0  0  0  0  0  0  0  0  0
  128.3870  128.1160   66.5920 C   0  0  0  0  0  0  0  0  0  0  0  0
  128.2850  128.0020   67.9170 N   0  0  0  0  0  0  0  0  0  0  0  0
  128.9060  126.9330   68.4720 C   0  0  0  0  0  0  0  0  0  0  0  0
  128.7770  126.8220   69.9810 C   0  0  0  0  0  0  0  0  0  0  0  0
  129.6190  125.9850   67.7420 C   0  0  0  0  0  0  0  0  0  0  0  0
  129.7230  126.1090   66.3520 C   0  0  0  0  0  0  0  0  0  0  0  0
  130.4850  125.0940   65.5890 C   0  0  0  0  0  0  0  0  0  0  0  0
  129.8970  123.8640   65.2750 C   0  0  0  0  0  0  0  0  0  0  0  0
  130.6120  122.9090   64.5560 C   0  0  0  0  0  0  0  0  0  0  0  0
  131.9170  123.1840   64.1530 C   0  0  0  0  0  0  0  0  0  0  0  0
  132.5120  124.4050   64.4630 C   0  0  0  0  0  0  0  0  0  0  0  0
  131.7960  125.3590   65.1820 C   0  0  0  0  0  0  0  0  0  0  0  0
  129.0850  127.2180   65.7310 C   0  0  0  0  0  0  0  0  0  0  0  0
  128.9900  127.6450   64.3600 C   0  0  0  0  0  0  0  0  0  0  0  0
  129.5780  126.9490   63.3330 N   0  0  0  0  0  0  0  0  0  0  0  0
  128.0370  131.8310   60.7460 C   0  0  0  0  0  0  0  0  0  0  0  0
  128.2210  132.5600   59.5750 C   0  0  0  0  0  0  0  0  0  0  0  0
  1  2  1  0
  2  3  1  0
  3  4  2  0
  3  5  1  0
  5  6  2  0
  6  7  1  0
  7  8  2  0
  8  9  1  0
  9 10  1  0
 10 11  2  0
 10 12  1  0
 12 13  1  0
 13 14  1  0
 14 15  2  0
 15 16  1  0
 16 17  1  0
 16 18  2  0
 18 19  1  0
 19 20  1  0
 20 21  2  0
 21 22  1  0
 22 23  2  0
 23 24  1  0
 24 25  2  0
 19 26  2  0
 26 27  1  0
 27 28  1  0
  8 29  1  0
 29 30  2  0
 30  5  1  0
 27 12  2  0
 26 14  1  0
 25 20  1  0
M  END
>  <Binding energies>  (64) 
[-8.28]

>  <Ligand effiencies>  (64) 
[-0.2509090909090909]

>  <Interactions>  (64) 
["V-A:LEU:363:CD1:3189, V-A:PRO:540:CA:4883, V-A:PRO:540:CD:4887, V-A:PRO:540:N:4884, V-A:TYR:539:C:4867, H-A:TYR:539:N:4870, H-B:GLU:543:OE1:9881, V-B:GLU:543:CG:9879, V-A:LEU:475:CD2:4259, V-A:TYR:484:CZ:4347, V-B:GLU:543:CB:9878, V-A:GLU:543:CD:4908, V-A:TYR:484:CE2:4346, V-A:ARG:545:CZ:4926, V-B:GLU:543:CD:9880, V-B:GLU:543:C:9874, V-A:HIS:456:CE1:4070, V-A:GLU:543:CG:4907, V-A:GLU:543:CB:4906, H-A:GLU:543:OE1:4909, H-A:GLU:543:OE2:4910, V-A:TYR:539:CE1:4875, V-A:TYR:539:CD1:4873, V-A:TYR:539:CA:4869, V-A:ILE:538:CG2:4863, V-A:ILE:538:CB:4862"]

$$$$
8b_Ghoteimi_2023
     RDKit          3D

 34 38  0  0  0  0  0  0  0  0999 V2000
  130.9670  126.8970   73.9930 C   0  0  0  0  0  0  0  0  0  0  0  0
  130.2940  127.9730   73.3470 O   0  0  0  0  0  0  0  0  0  0  0  0
  129.9660  127.8560   72.0100 C   0  0  0  0  0  0  0  0  0  0  0  0
  130.9910  128.0850   71.0940 C   0  0  0  0  0  0  0  0  0  0  0  0
  130.7530  127.9900   69.7270 C   0  0  0  0  0  0  0  0  0  0  0  0
  129.4790  127.6630   69.2380 C   0  0  0  0  0  0  0  0  0  0  0  0
  129.2170  127.5620   67.7690 C   0  0  0  0  0  0  0  0  0  0  0  0
  128.5730  128.5830   67.0630 C   0  0  0  0  0  0  0  0  0  0  0  0
  128.3410  128.4640   65.6900 C   0  0  0  0  0  0  0  0  0  0  0  0
  127.6480  129.5600   64.9740 C   0  0  0  0  0  0  0  0  0  0  0  0
  128.3690  130.6580   64.5010 C   0  0  0  0  0  0  0  0  0  0  0  0
  127.7180  131.6830   63.8200 C   0  0  0  0  0  0  0  0  0  0  0  0
  126.3400  131.6270   63.6040 C   0  0  0  0  0  0  0  0  0  0  0  0
  125.7790  132.6880   62.9170 O   0  0  0  0  0  0  0  0  0  0  0  0
  124.3690  132.8730   62.9580 C   0  0  0  0  0  0  0  0  0  0  0  0
  125.6170  130.5250   64.0840 C   0  0  0  0  0  0  0  0  0  0  0  0
  126.2690  129.5000   64.7640 C   0  0  0  0  0  0  0  0  0  0  0  0
  128.7830  127.2830   65.0360 C   0  0  0  0  0  0  0  0  0  0  0  0
  128.7170  126.8400   63.6680 C   0  0  0  0  0  0  0  0  0  0  0  0
  128.1430  127.5980   62.6790 N   0  0  0  0  0  0  0  0  0  0  0  0
  129.2900  125.5780   63.4500 C   0  0  0  0  0  0  0  0  0  0  0  0
  129.4020  124.8320   62.1950 C   0  0  0  0  0  0  0  0  0  0  0  0
  130.4970  124.6770   61.6500 O   0  0  0  0  0  0  0  0  0  0  0  0
  128.2350  124.3450   61.7020 N   0  0  0  0  0  0  0  0  0  0  0  0
  128.0500  123.6050   60.5420 C   0  0  0  0  0  0  0  0  0  0  0  0
  127.3610  124.0900   59.4310 C   0  0  0  0  0  0  0  0  0  0  0  0
  127.3970  123.0660   58.5130 C   0  0  0  0  0  0  0  0  0  0  0  0
  128.0770  122.0200   59.0410 O   0  0  0  0  0  0  0  0  0  0  0  0
  128.4870  122.3740   60.3280 N   0  0  0  0  0  0  0  0  0  0  0  0
  129.9330  124.9030   64.9490 S   0  0  0  0  0  0  0  0  0  0  0  0
  129.4310  126.3120   65.8540 C   0  0  0  0  0  0  0  0  0  0  0  0
  129.6510  126.4240   67.1630 N   0  0  0  0  0  0  0  0  0  0  0  0
  128.4540  127.4310   70.1640 C   0  0  0  0  0  0  0  0  0  0  0  0
  128.6890  127.5260   71.5330 C   0  0  0  0  0  0  0  0  0  0  0  0
  1  2  1  0
  2  3  1  0
  3  4  2  0
  4  5  1  0
  5  6  2  0
  6  7  1  0
  7  8  2  0
  8  9  1  0
  9 10  1  0
 10 11  2  0
 11 12  1  0
 12 13  2  0
 13 14  1  0
 14 15  1  0
 13 16  1  0
 16 17  2  0
  9 18  2  0
 18 19  1  0
 19 20  1  0
 19 21  2  0
 21 22  1  0
 22 23  2  0
 22 24  1  0
 24 25  1  0
 25 26  1  0
 26 27  2  0
 27 28  1  0
 28 29  1  0
 21 30  1  0
 30 31  1  0
 31 32  2  0
  6 33  1  0
 33 34  2  0
 34  3  1  0
 32  7  1  0
 17 10  1  0
 31 18  1  0
 29 25  2  0
M  END
>  <Binding energies>  (65) 
[-7.47]

>  <Ligand effiencies>  (65) 
[-0.20189189189189188]

>  <Interactions>  (65) 
["V-B:PRO:540:N:9856, V-B:PRO:540:CB:9857, V-B:PRO:540:CA:9855, V-B:TYR:539:C:9839, H-B:GLU:543:OE1:9881, V-B:GLU:543:CG:9879, V-B:GLU:543:CB:9878, V-A:GLU:543:CD:4908, V-B:GLU:543:CD:9880, V-B:HIS:456:CE1:9041, V-A:GLY:544:CA:4914, V-A:GLY:544:C:4912, H-A:LYS:547:NZ:4951, V-B:HIS:456:CD2:9039, V-A:HIS:456:CE1:4070, V-A:GLU:543:CG:4907, V-A:GLU:543:C:4902, V-A:GLU:543:CB:4906, H-A:GLU:543:OE1:4909, H-B:GLU:543:OE2:9882, V-A:HIS:456:CD2:4068, V-B:LEU:475:CD2:9230, V-B:GLY:454:CA:9020"]

$$$$
9d_Ghoteimi_2023
     RDKit          3D

 38 43  0  0  0  0  0  0  0  0999 V2000
  128.2360  132.8850   55.7740 C   0  0  0  0  0  0  0  0  0  0  0  0
  128.0630  132.2290   57.0220 O   0  0  0  0  0  0  0  0  0  0  0  0
  128.8310  132.5570   58.0940 C   0  0  0  0  0  0  0  0  0  0  0  0
  129.5700  133.5440   58.1360 O   0  0  0  0  0  0  0  0  0  0  0  0
  128.6950  131.6000   59.2140 C   0  0  0  0  0  0  0  0  0  0  0  0
  129.0490  132.1220   60.8610 S   0  0  0  0  0  0  0  0  0  0  0  0
  128.6420  130.5430   61.4900 C   0  0  0  0  0  0  0  0  0  0  0  0
  128.6810  130.2810   62.7960 N   0  0  0  0  0  0  0  0  0  0  0  0
  128.3300  129.0270   63.1850 C   0  0  0  0  0  0  0  0  0  0  0  0
  128.3560  128.7640   64.6570 C   0  0  0  0  0  0  0  0  0  0  0  0
  127.9980  129.7660   65.5640 C   0  0  0  0  0  0  0  0  0  0  0  0
  128.0210  129.5320   66.9360 C   0  0  0  0  0  0  0  0  0  0  0  0
  128.3930  128.2800   67.4510 C   0  0  0  0  0  0  0  0  0  0  0  0
  128.4390  128.0350   68.8280 N   0  0  0  0  0  0  0  0  0  0  0  0
  127.7330  126.8840   69.4270 C   0  0  0  0  0  0  0  0  0  0  0  0
  127.6010  126.9630   70.9620 C   0  0  0  0  0  0  0  0  0  0  0  0
  128.8780  127.1390   71.5510 O   0  0  0  0  0  0  0  0  0  0  0  0
  129.4930  128.3380   71.1090 C   0  0  0  0  0  0  0  0  0  0  0  0
  129.6840  128.3040   69.5770 C   0  0  0  0  0  0  0  0  0  0  0  0
  128.7670  127.2840   66.5380 C   0  0  0  0  0  0  0  0  0  0  0  0
  128.7460  127.5190   65.1660 C   0  0  0  0  0  0  0  0  0  0  0  0
  127.9740  128.0340   62.2690 C   0  0  0  0  0  0  0  0  0  0  0  0
  127.9510  128.2990   60.8950 C   0  0  0  0  0  0  0  0  0  0  0  0
  127.5920  127.1990   59.9610 C   0  0  0  0  0  0  0  0  0  0  0  0
  126.3950  127.2350   59.2430 C   0  0  0  0  0  0  0  0  0  0  0  0
  126.0720  126.2110   58.3560 C   0  0  0  0  0  0  0  0  0  0  0  0
  126.9470  125.1320   58.1520 C   0  0  0  0  0  0  0  0  0  0  0  0
  126.6420  124.0880   57.2750 N   0  0  0  0  0  0  0  0  0  0  0  0
  125.4020  123.3150   57.4830 C   0  0  0  0  0  0  0  0  0  0  0  0
  124.9930  122.4770   56.2530 C   0  0  0  0  0  0  0  0  0  0  0  0
  126.0620  121.6260   55.8670 O   0  0  0  0  0  0  0  0  0  0  0  0
  127.2260  122.3670   55.5280 C   0  0  0  0  0  0  0  0  0  0  0  0
  127.6910  123.1980   56.7430 C   0  0  0  0  0  0  0  0  0  0  0  0
  128.1460  125.1060   58.8800 C   0  0  0  0  0  0  0  0  0  0  0  0
  128.4670  126.1280   59.7670 C   0  0  0  0  0  0  0  0  0  0  0  0
  128.2750  129.6170   60.4690 C   0  0  0  0  0  0  0  0  0  0  0  0
  128.2960  130.2580   59.1800 C   0  0  0  0  0  0  0  0  0  0  0  0
  127.9350  129.6170   58.0230 N   0  0  0  0  0  0  0  0  0  0  0  0
  1  2  1  0
  2  3  1  0
  3  4  2  0
  3  5  1  0
  5  6  1  0
  6  7  1  0
  7  8  2  0
  8  9  1  0
  9 10  1  0
 10 11  2  0
 11 12  1  0
 12 13  2  0
 13 14  1  0
 14 15  1  0
 15 16  1  0
 16 17  1  0
 17 18  1  0
 18 19  1  0
 13 20  1  0
 20 21  2  0
  9 22  2  0
 22 23  1  0
 23 24  1  0
 24 25  2  0
 25 26  1  0
 26 27  2  0
 27 28  1  0
 28 29  1  0
 29 30  1  0
 30 31  1  0
 31 32  1  0
 32 33  1  0
 27 34  1  0
 34 35  2  0
 23 36  2  0
 36 37  1  0
 37 38  1  0
 37  5  2  0
 36  7  1  0
 21 10  1  0
 35 24  1  0
 19 14  1  0
 33 28  1  0
M  END
>  <Binding energies>  (66) 
[-8.43]

>  <Ligand effiencies>  (66) 
[-0.21075]

>  <Interactions>  (66) 
["H-A:TYR:539:N:4870, V-B:TYR:539:CZ:9849, V-B:PRO:540:N:9856, V-B:TYR:539:CE1:9847, V-B:PRO:540:CB:9857, V-B:TYR:539:CD1:9845, V-B:PRO:540:CA:9855, V-B:TYR:539:CE2:9848, H-B:TYR:539:N:9842, H-B:TYR:531:OH:9767, V-B:PRO:540:CD:9859, V-B:ASP:366:CG:8184, V-B:MET:535:CE:9807, V-B:LEU:363:CD1:8160, V-B:PRO:540:CG:9858, V-B:TYR:539:CG:9844, V-A:MET:535:CE:4835, V-B:GLU:543:CG:9879, V-B:GLU:543:CB:9878, V-A:GLU:543:CD:4908, V-B:GLU:543:CD:9880, V-B:HIS:456:CE1:9041, V-B:GLY:544:C:9884, V-B:GLU:543:C:9874, V-B:HIS:456:CD2:9039, V-A:GLU:543:CG:4907, V-A:GLU:543:C:4902, V-A:GLU:543:CB:4906, V-B:TYR:484:CZ:9318, V-A:TYR:539:CE1:4875, V-A:TYR:539:CZ:4877, V-B:ILE:538:CG2:9835, V-A:TYR:539:CD1:4873, V-A:TYR:539:CD2:4874, V-A:ILE:538:CA:4860, V-A:TYR:539:CG:4872, V-A:TYR:539:CE2:4876, V-B:TYR:484:CE2:9317, V-B:ILE:538:CA:9832, V-B:ILE:538:C:9830"]

$$$$
RR10_Rahimova_2017
     RDKit          3D

 34 38  0  0  0  0  0  0  0  0999 V2000
  133.6990  124.5720   58.6040 C   0  0  0  0  0  0  0  0  0  0  0  0
  133.5050  124.0080   60.0230 C   0  0  1  0  0  0  0  0  0  0  0  0
  132.6120  124.9250   60.8910 C   0  0  0  0  0  0  0  0  0  0  0  0
  132.4600  124.3580   62.3210 C   0  0  0  0  0  0  0  0  0  0  0  0
  131.8690  122.9250   62.3210 C   0  0  1  0  0  0  0  0  0  0  0  0
  130.4680  122.9400   61.8780 N   0  0  0  0  0  0  0  0  0  0  0  0
  129.8160  121.9050   61.3190 C   0  0  0  0  0  0  0  0  0  0  0  0
  130.3370  120.8020   61.1360 O   0  0  0  0  0  0  0  0  0  0  0  0
  128.3560  122.1550   60.8880 C   0  0  1  0  0  0  0  0  0  0  0  0
  127.7020  123.1770   61.8550 C   0  0  0  0  0  0  0  0  0  0  0  0
  126.2680  123.5010   61.3720 C   0  0  0  0  0  0  0  0  0  0  0  0
  126.2250  123.9260   59.8860 C   0  0  0  0  0  0  0  0  0  0  0  0
  126.9270  122.9280   59.0340 N   0  0  0  0  0  0  0  0  0  0  0  0
  126.6860  123.1500   57.2930 S   0  0  0  0  0  0  0  0  0  0  0  0
  125.2650  123.4340   57.0610 O   0  0  0  0  0  0  0  0  0  0  0  0
  127.3400  122.0330   56.6010 O   0  0  0  0  0  0  0  0  0  0  0  0
  127.5830  124.6490   56.8870 C   0  0  0  0  0  0  0  0  0  0  0  0
  128.5720  124.6090   55.8990 C   0  0  0  0  0  0  0  0  0  0  0  0
  129.3080  125.7420   55.5380 C   0  0  0  0  0  0  0  0  0  0  0  0
  129.0040  126.9250   56.2150 C   0  0  0  0  0  0  0  0  0  0  0  0
  129.4920  128.2090   56.1540 N   0  0  0  0  0  0  0  0  0  0  0  0
  128.8010  128.9700   57.0740 C   0  0  0  0  0  0  0  0  0  0  0  0
  129.0610  130.4310   57.3070 C   0  0  0  0  0  0  0  0  0  0  0  0
  130.2580  131.0170   56.8720 C   0  0  0  0  0  0  0  0  0  0  0  0
  130.4980  132.3720   57.0840 C   0  0  0  0  0  0  0  0  0  0  0  0
  129.5420  133.1490   57.7330 C   0  0  0  0  0  0  0  0  0  0  0  0
  128.3480  132.5830   58.1700 C   0  0  0  0  0  0  0  0  0  0  0  0
  128.1090  131.2270   57.9580 C   0  0  0  0  0  0  0  0  0  0  0  0
  127.8980  128.2640   57.7180 N   0  0  0  0  0  0  0  0  0  0  0  0
  128.0020  126.9950   57.2120 C   0  0  0  0  0  0  0  0  0  0  0  0
  127.2780  125.8440   57.5510 C   0  0  0  0  0  0  0  0  0  0  0  0
  128.3370  122.6940   59.4360 C   0  0  0  0  0  0  0  0  0  0  0  0
  132.7650  122.0200   61.4320 C   0  0  0  0  0  0  0  0  0  0  0  0
  132.9130  122.5800   60.0000 C   0  0  0  0  0  0  0  0  0  0  0  0
  2  1  1  6
  2  3  1  0
  3  4  1  0
  4  5  1  0
  5  6  1  6
  6  7  1  0
  7  8  2  0
  9  7  1  1
  9 10  1  0
 10 11  1  0
 11 12  1  0
 12 13  1  0
 13 14  1  0
 14 15  2  0
 14 16  2  0
 14 17  1  0
 17 18  2  0
 18 19  1  0
 19 20  2  0
 20 21  1  0
 21 22  1  0
 22 23  1  0
 23 24  2  0
 24 25  1  0
 25 26  2  0
 26 27  1  0
 27 28  2  0
 22 29  2  0
 29 30  1  0
 30 31  2  0
 13 32  1  0
  5 33  1  0
 33 34  1  0
 34  2  1  0
 32  9  1  0
 31 17  1  0
 30 20  1  0
 28 23  1  0
M  END
>  <Binding energies>  (67) 
[-10.45]

>  <Ligand effiencies>  (67) 
[-0.29027777777777775]

>  <Interactions>  (67) 
["V-A:ASP:366:CG:3213, H-A:TYR:531:OH:4795, V-A:PRO:540:CA:4883, V-A:PRO:540:N:4884, V-A:TYR:539:C:4867, V-A:ASP:366:CB:3212, V-B:TYR:539:CZ:9849, V-B:PRO:540:N:9856, V-B:TYR:539:CE1:9847, V-B:PRO:540:CB:9857, V-B:PRO:540:CA:9855, V-B:TYR:539:CE2:9848, H-B:TYR:539:N:9842, H-B:TYR:531:OH:9767, V-B:TYR:539:C:9839, V-B:PRO:540:C:9853, V-B:TYR:539:CD2:9846, V-A:MET:535:CE:4835, V-A:ASP:366:C:3208, V-A:ASP:366:CA:3210, V-A:ILE:369:CB:3236, V-A:ILE:369:CG2:3237, V-A:LEU:475:CD2:4259, V-A:TYR:531:CZ:4794, V-A:TYR:539:CE1:4875, V-A:TYR:539:CD1:4873, V-A:TYR:539:CA:4869, H-A:MET:535:SD:4834"]

$$$$
RR12_Rahimova_2017
     RDKit          3D

 26 28  0  0  0  0  0  0  0  0999 V2000
  132.3310  120.5400   60.6760 C   0  0  0  0  0  0  0  0  0  0  0  0
  133.5530  121.1260   61.3940 C   0  0  0  0  0  0  0  0  0  0  0  0
  133.2030  122.3570   62.2500 C   0  0  0  0  0  0  0  0  0  0  0  0
  132.3190  123.2610   61.5180 N   0  0  0  0  0  0  0  0  0  0  0  0
  131.0640  123.7080   61.9010 C   0  0  0  0  0  0  0  0  0  0  0  0
  130.3620  123.2720   63.1760 C   0  0  0  0  0  0  0  0  0  0  0  0
  129.5250  121.9950   62.9780 C   0  0  0  0  0  0  0  0  0  0  0  0
  129.0380  121.8210   61.5260 C   0  0  0  0  0  0  0  0  0  0  0  0
  128.3020  122.9740   61.0090 N   0  0  0  0  0  0  0  0  0  0  0  0
  127.0850  123.3640   61.4290 C   0  0  0  0  0  0  0  0  0  0  0  0
  126.4530  122.7750   62.3090 O   0  0  0  0  0  0  0  0  0  0  0  0
  126.5140  124.6120   60.7430 C   0  0  0  0  0  0  0  0  0  0  0  0
  127.1300  124.7770   59.4650 O   0  0  0  0  0  0  0  0  0  0  0  0
  126.7050  124.0000   58.4030 C   0  0  0  0  0  0  0  0  0  0  0  0
  127.6950  123.2930   57.7160 C   0  0  0  0  0  0  0  0  0  0  0  0
  127.3630  122.4820   56.6350 C   0  0  0  0  0  0  0  0  0  0  0  0
  126.0340  122.3750   56.2370 C   0  0  0  0  0  0  0  0  0  0  0  0
  125.0340  123.0750   56.9080 C   0  0  0  0  0  0  0  0  0  0  0  0
  125.3680  123.8870   57.9900 C   0  0  0  0  0  0  0  0  0  0  0  0
  130.5240  124.5380   61.0430 N   0  0  0  0  0  0  0  0  0  0  0  0
  131.4580  124.6790   60.0550 C   0  0  0  0  0  0  0  0  0  0  0  0
  131.4020  125.4640   58.8930 C   0  0  0  0  0  0  0  0  0  0  0  0
  132.5000  125.4430   58.0330 C   0  0  0  0  0  0  0  0  0  0  0  0
  133.6250  124.6660   58.3120 C   0  0  0  0  0  0  0  0  0  0  0  0
  133.7100  123.8730   59.4590 C   0  0  0  0  0  0  0  0  0  0  0  0
  132.6070  123.8940   60.3220 C   0  0  0  0  0  0  0  0  0  0  0  0
  1  2  1  0
  2  3  1  0
  3  4  1  0
  4  5  1  0
  5  6  1  0
  6  7  1  0
  7  8  1  0
  8  9  1  0
  9 10  1  0
 10 11  2  0
 10 12  1  0
 12 13  1  0
 13 14  1  0
 14 15  2  0
 15 16  1  0
 16 17  2  0
 17 18  1  0
 18 19  2  0
  5 20  2  0
 20 21  1  0
 21 22  2  0
 22 23  1  0
 23 24  2  0
 24 25  1  0
 25 26  2  0
 26  4  1  0
 19 14  1  0
 26 21  1  0
M  END
>  <Binding energies>  (68) 
[-6.35]

>  <Ligand effiencies>  (68) 
[-0.23518518518518516]

>  <Interactions>  (68) 
["V-A:ASP:366:CG:3213, V-A:ASP:366:CB:3212, V-B:TYR:539:CZ:9849, V-B:PRO:540:N:9856, V-B:TYR:539:CE1:9847, V-B:PRO:540:CB:9857, V-B:TYR:539:CD1:9845, V-B:PRO:540:CA:9855, V-B:TYR:539:CE2:9848, V-B:PRO:540:CD:9859, V-B:MET:535:CE:9807, V-B:LEU:363:CD1:8160, V-B:TYR:539:C:9839, V-B:TYR:539:CG:9844, V-B:PRO:540:C:9853, H-B:ALA:541:N:9863, V-B:TYR:539:CD2:9846, V-B:ALA:541:CB:9864, V-A:ASP:366:C:3208, V-A:ASP:366:CA:3210, V-A:ILE:369:CD1:3239, V-A:ILE:369:CB:3236, V-A:ILE:369:CG2:3237, V-A:LEU:475:CD2:4259, V-B:ILE:538:CG2:9835, V-A:SER:385:CA:3407, V-A:SER:385:CB:3409, V-A:SER:385:C:3405"]

$$$$
RR13_Rahimova_2017
     RDKit          3D

 48 54  0  0  0  0  0  0  0  0999 V2000
  128.4720  122.7770   60.9920 Cl  0  0  0  0  0  0  0  0  0  0  0  0
  128.3370  123.3400   59.3600 C   0  0  0  0  0  0  0  0  0  0  0  0
  127.2890  122.8380   58.5840 C   0  0  0  0  0  0  0  0  0  0  0  0
  127.1390  123.2350   57.2580 C   0  0  0  0  0  0  0  0  0  0  0  0
  128.0390  124.1370   56.6980 C   0  0  0  0  0  0  0  0  0  0  0  0
  129.0870  124.6420   57.4650 C   0  0  0  0  0  0  0  0  0  0  0  0
  129.2480  124.2630   58.8080 C   0  0  0  0  0  0  0  0  0  0  0  0
  130.4320  124.8180   59.6300 C   0  0  1  0  0  0  0  0  0  0  0  0
  131.7300  124.8000   58.8100 C   0  0  0  0  0  0  0  0  0  0  0  0
  132.0270  125.5790   57.7930 N   0  0  0  0  0  0  0  0  0  0  0  0
  133.2870  125.1780   57.3600 N   0  0  0  0  0  0  0  0  0  0  0  0
  133.7380  124.1220   58.1280 N   0  0  0  0  0  0  0  0  0  0  0  0
  132.7500  123.8920   58.9990 N   0  0  0  0  0  0  0  0  0  0  0  0
  132.8880  122.8540   60.0140 C   0  0  0  0  0  0  0  0  0  0  0  0
  133.6510  123.4000   61.2360 C   0  0  0  0  0  0  0  0  0  0  0  0
  132.7160  123.7970   62.3670 C   0  0  0  0  0  0  0  0  0  0  0  0
  131.6040  123.0040   62.6640 C   0  0  0  0  0  0  0  0  0  0  0  0
  130.7440  123.3730   63.6950 C   0  0  0  0  0  0  0  0  0  0  0  0
  130.9990  124.5330   64.4250 C   0  0  0  0  0  0  0  0  0  0  0  0
  132.1050  125.3270   64.1330 C   0  0  0  0  0  0  0  0  0  0  0  0
  132.9660  124.9590   63.1020 C   0  0  0  0  0  0  0  0  0  0  0  0
  130.1620  126.1460   60.2320 N   0  0  0  0  0  0  0  0  0  0  0  0
  129.2530  126.9270   59.3730 C   0  0  0  0  0  0  0  0  0  0  0  0
  128.8610  128.2590   60.0560 C   0  0  0  0  0  0  0  0  0  0  0  0
  130.0530  129.0870   60.3000 N   0  0  0  0  0  0  0  0  0  0  0  0
  129.7160  130.4080   60.8790 C   0  0  1  0  0  0  0  0  0  0  0  0
  128.6690  130.3900   62.0150 C   0  0  0  0  0  0  0  0  0  0  0  0
  128.6370  129.2560   62.8380 C   0  0  0  0  0  0  0  0  0  0  0  0
  127.7360  129.1600   63.8980 C   0  0  0  0  0  0  0  0  0  0  0  0
  126.8450  130.2000   64.1470 C   0  0  0  0  0  0  0  0  0  0  0  0
  126.8490  131.3280   63.3320 C   0  0  0  0  0  0  0  0  0  0  0  0
  127.7450  131.4320   62.2650 C   0  0  0  0  0  0  0  0  0  0  0  0
  127.6250  132.8430   61.2670 Cl  0  0  0  0  0  0  0  0  0  0  0  0
  130.9470  131.2070   61.3130 C   0  0  0  0  0  0  0  0  0  0  0  0
  131.0980  131.8050   62.4720 N   0  0  0  0  0  0  0  0  0  0  0  0
  132.3610  132.3870   62.4410 N   0  0  0  0  0  0  0  0  0  0  0  0
  132.9790  132.1130   61.2380 N   0  0  0  0  0  0  0  0  0  0  0  0
  132.0960  131.3640   60.5660 N   0  0  0  0  0  0  0  0  0  0  0  0
  132.4080  130.8990   59.2190 C   0  0  0  0  0  0  0  0  0  0  0  0
  132.4830  132.0880   58.2440 C   0  0  0  0  0  0  0  0  0  0  0  0
  131.1290  132.4180   57.6350 C   0  0  0  0  0  0  0  0  0  0  0  0
  130.0170  132.5950   58.4620 C   0  0  0  0  0  0  0  0  0  0  0  0
  128.7790  132.9040   57.9050 C   0  0  0  0  0  0  0  0  0  0  0  0
  128.6570  133.0340   56.5220 C   0  0  0  0  0  0  0  0  0  0  0  0
  129.7640  132.8590   55.6930 C   0  0  0  0  0  0  0  0  0  0  0  0
  131.0020  132.5510   56.2490 C   0  0  0  0  0  0  0  0  0  0  0  0
  130.9570  128.3050   61.1630 C   0  0  0  0  0  0  0  0  0  0  0  0
  131.3530  126.9800   60.4710 C   0  0  0  0  0  0  0  0  0  0  0  0
  1  2  1  0
  2  3  2  0
  3  4  1  0
  4  5  2  0
  5  6  1  0
  6  7  2  0
  7  8  1  0
  8  9  1  0
  9 10  2  0
 10 11  1  0
 11 12  2  0
 12 13  1  0
 13 14  1  0
 14 15  1  0
 15 16  1  0
 16 17  2  0
 17 18  1  0
 18 19  2  0
 19 20  1  0
 20 21  2  0
  8 22  1  6
 22 23  1  0
 23 24  1  0
 24 25  1  0
 26 25  1  1
 26 27  1  0
 27 28  2  0
 28 29  1  0
 29 30  2  0
 30 31  1  0
 31 32  2  0
 32 33  1  0
 26 34  1  0
 34 35  2  0
 35 36  1  0
 36 37  2  0
 37 38  1  0
 38 39  1  0
 39 40  1  0
 40 41  1  0
 41 42  2  0
 42 43  1  0
 43 44  2  0
 44 45  1  0
 45 46  2  0
 25 47  1  0
 47 48  1  0
  7  2  1  0
 13  9  1  0
 21 16  1  0
 48 22  1  0
 32 27  1  0
 38 34  1  0
 46 41  1  0
M  END
>  <Binding energies>  (69) 
[-12.78]

>  <Ligand effiencies>  (69) 
[-0.26625]

>  <Interactions>  (69) 
["V-A:LEU:363:CD1:3189, V-A:ASP:366:CG:3213, H-A:TYR:531:OH:4795, V-A:PRO:540:CA:4883, H-B:TYR:539:OH:9850, V-A:PRO:540:CB:4885, V-A:PRO:540:CG:4886, V-A:PRO:540:N:4884, V-A:TYR:539:C:4867, V-B:TYR:539:CZ:9849, V-B:PRO:540:N:9856, V-B:TYR:539:CE1:9847, V-B:PRO:540:CB:9857, V-B:PRO:540:CA:9855, V-B:TYR:539:CE2:9848, V-B:TYR:539:C:9839, V-B:TYR:539:CD2:9846, V-A:MET:535:CE:4835, V-A:ILE:369:CD1:3239, V-A:ILE:369:CG2:3237, V-A:LEU:475:CD2:4259, V-A:GLU:543:CD:4908, V-A:ARG:545:CZ:4926, V-A:TYR:539:CE1:4875, V-A:TYR:539:CZ:4877, H-A:ALA:541:N:4891, V-A:TYR:539:CD1:4873, V-A:TYR:539:CD2:4874, V-A:ILE:538:CA:4860, V-A:TYR:539:CG:4872, V-A:TYR:539:CE2:4876, V-A:ILE:538:C:4858, V-A:ILE:538:CG2:4863, V-A:ILE:538:CB:4862"]

$$$$
RR14_Rahimova_2017
     RDKit          3D

 39 43  0  0  0  0  0  0  0  0999 V2000
  133.0100  125.3760   66.1110 C   0  0  0  0  0  0  0  0  0  0  0  0
  133.9840  124.9970   65.1440 O   0  0  0  0  0  0  0  0  0  0  0  0
  133.5630  124.4870   63.9310 C   0  0  0  0  0  0  0  0  0  0  0  0
  134.3490  124.7950   62.8200 C   0  0  0  0  0  0  0  0  0  0  0  0
  133.9920  124.3460   61.5520 C   0  0  0  0  0  0  0  0  0  0  0  0
  132.8340  123.5830   61.3830 C   0  0  0  0  0  0  0  0  0  0  0  0
  132.4040  123.1450   59.9880 C   0  0  0  0  0  0  0  0  0  0  0  0
  132.5950  124.1790   58.9720 N   0  0  0  0  0  0  0  0  0  0  0  0
  133.6190  124.1040   58.1140 N   0  0  0  0  0  0  0  0  0  0  0  0
  133.5090  125.2380   57.3350 N   0  0  0  0  0  0  0  0  0  0  0  0
  132.4140  125.9940   57.7420 N   0  0  0  0  0  0  0  0  0  0  0  0
  131.8780  125.3340   58.7420 C   0  0  0  0  0  0  0  0  0  0  0  0
  130.6600  125.7840   59.5370 C   0  0  0  0  0  0  0  0  0  0  0  0
  130.2460  127.1570   59.2040 N   0  0  0  0  0  0  0  0  0  0  0  0
  131.3170  128.1290   59.4550 C   0  0  0  0  0  0  0  0  0  0  0  0
  131.6830  128.9730   58.2140 C   0  0  0  0  0  0  0  0  0  0  0  0
  131.7010  130.4930   58.4820 C   0  0  0  0  0  0  0  0  0  0  0  0
  130.7640  131.2420   57.6380 N   0  0  0  0  0  0  0  0  0  0  0  0
  131.4190  131.6540   56.3900 C   0  0  0  0  0  0  0  0  0  0  0  0
  130.4750  132.4910   55.5010 C   0  0  0  0  0  0  0  0  0  0  0  0
  129.9660  133.5990   56.2350 O   0  0  0  0  0  0  0  0  0  0  0  0
  129.2340  133.1940   57.3850 C   0  0  0  0  0  0  0  0  0  0  0  0
  130.1410  132.3800   58.3330 C   0  0  0  0  0  0  0  0  0  0  0  0
  129.8060  127.2260   57.8030 C   0  0  0  0  0  0  0  0  0  0  0  0
  128.9830  126.0420   57.2990 C   0  0  0  0  0  0  0  0  0  0  0  0
  127.9370  125.5620   58.0140 C   0  0  0  0  0  0  0  0  0  0  0  0
  127.1510  124.3930   57.5690 C   0  0  0  0  0  0  0  0  0  0  0  0
  126.0490  123.8820   58.2750 C   0  0  0  0  0  0  0  0  0  0  0  0
  125.5750  124.5090   59.5800 C   0  0  0  0  0  0  0  0  0  0  0  0
  125.3710  122.7720   57.7650 C   0  0  0  0  0  0  0  0  0  0  0  0
  125.7770  122.1760   56.5720 C   0  0  0  0  0  0  0  0  0  0  0  0
  126.8700  122.6790   55.8610 C   0  0  0  0  0  0  0  0  0  0  0  0
  127.2880  122.0070   54.5590 C   0  0  0  0  0  0  0  0  0  0  0  0
  127.5590  123.7940   56.3640 C   0  0  0  0  0  0  0  0  0  0  0  0
  128.6700  124.3340   55.6830 N   0  0  0  0  0  0  0  0  0  0  0  0
  129.4190  125.4020   56.0530 C   0  0  0  0  0  0  0  0  0  0  0  0
  130.3770  125.7600   55.3680 O   0  0  0  0  0  0  0  0  0  0  0  0
  132.0570  123.2440   62.4920 C   0  0  0  0  0  0  0  0  0  0  0  0
  132.4150  123.6950   63.7590 C   0  0  0  0  0  0  0  0  0  0  0  0
  1  2  1  0
  2  3  1  0
  3  4  2  0
  4  5  1  0
  5  6  2  0
  6  7  1  0
  7  8  1  0
  8  9  1  0
  9 10  2  0
 10 11  1  0
 11 12  2  0
 12 13  1  0
 13 14  1  0
 14 15  1  0
 15 16  1  0
 16 17  1  0
 17 18  1  0
 18 19  1  0
 19 20  1  0
 20 21  1  0
 21 22  1  0
 22 23  1  0
 14 24  1  0
 24 25  1  0
 25 26  2  0
 26 27  1  0
 27 28  2  0
 28 29  1  0
 28 30  1  0
 30 31  2  0
 31 32  1  0
 32 33  1  0
 32 34  2  0
 34 35  1  0
 35 36  1  0
 36 37  2  0
  6 38  1  0
 38 39  2  0
 39  3  1  0
 12  8  1  0
 23 18  1  0
 36 25  1  0
 34 27  1  0
M  END
>  <Binding energies>  (70) 
[-10.56]

>  <Ligand effiencies>  (70) 
[-0.264]

>  <Interactions>  (70) 
["V-A:LEU:363:CD1:3189, V-A:ASP:366:CG:3213, H-A:TYR:531:OH:4795, V-A:PRO:540:CA:4883, H-B:TYR:539:OH:9850, V-A:PRO:540:N:4884, V-A:TYR:539:C:4867, V-A:ASP:366:CB:3212, H-A:TYR:539:N:4870, V-B:TYR:539:CZ:9849, V-B:PRO:540:N:9856, V-B:TYR:539:CE1:9847, V-B:PRO:540:CB:9857, V-B:TYR:539:CD1:9845, V-B:PRO:540:CA:9855, V-B:TYR:539:CE2:9848, V-B:PRO:540:CD:9859, V-B:MET:535:CE:9807, V-B:LEU:363:CD1:8160, V-B:PRO:540:CG:9858, V-B:TYR:539:C:9839, V-B:TYR:539:CG:9844, H-A:ASN:370:ND2:3248, V-B:TYR:539:CD2:9846, V-A:MET:535:CE:4835, V-A:ILE:369:CD1:3239, V-A:ILE:369:CG2:3237, V-A:LEU:475:CD2:4259, V-A:TYR:484:CZ:4347, V-A:GLY:453:CA:4044, H-A:TYR:484:OH:4348, H-A:ARG:545:NE:4924, V-A:GLY:454:CA:4049, V-A:ARG:545:CZ:4926, V-A:TYR:531:CZ:4794, V-A:ARG:545:CG:4922, H-A:ARG:545:NH2:4928, H-A:GLY:454:N:4050, V-A:GLY:453:C:4042, V-B:ILE:538:CG2:9835, H-B:MET:535:SD:9806, V-A:TYR:539:CD1:4873, V-A:ILE:538:CA:4860, V-A:TYR:539:CG:4872, V-A:TYR:539:CA:4869, V-A:ILE:538:CG2:4863, V-A:ILE:538:CB:4862, V-B:ILE:538:CA:9832, V-B:ILE:538:C:9830, V-A:ARG:545:CD:4923, H-A:ARG:545:NH1:4927, V-B:ILE:538:CB:9834, V-B:ILE:538:CG1:9836, V-B:VAL:537:C:9822"]

$$$$
RR15_Rahimova_2017
     RDKit          3D

 45 49  0  0  0  0  0  0  0  0999 V2000
  130.0220  123.3080   65.3240 C   0  0  0  0  0  0  0  0  0  0  0  0
  129.5220  122.2460   64.5170 O   0  0  0  0  0  0  0  0  0  0  0  0
  129.1030  122.5120   63.2250 C   0  0  0  0  0  0  0  0  0  0  0  0
  127.7920  122.8890   62.8950 C   0  0  0  0  0  0  0  0  0  0  0  0
  127.4350  123.1390   61.5720 C   0  0  0  0  0  0  0  0  0  0  0  0
  128.3740  123.0190   60.5420 C   0  0  0  0  0  0  0  0  0  0  0  0
  127.9870  123.2830   59.1130 C   0  0  0  0  0  0  0  0  0  0  0  0
  126.8900  122.7840   58.5600 N   0  0  0  0  0  0  0  0  0  0  0  0
  126.8830  123.2330   57.2550 N   0  0  0  0  0  0  0  0  0  0  0  0
  127.9730  123.9970   57.1800 N   0  0  0  0  0  0  0  0  0  0  0  0
  128.4450  124.5510   55.9110 C   0  0  0  0  0  0  0  0  0  0  0  0
  129.1420  125.9300   56.0240 C   0  0  0  0  0  0  0  0  0  0  0  0
  130.0760  126.1740   55.2580 O   0  0  0  0  0  0  0  0  0  0  0  0
  128.6900  126.8440   56.9360 N   0  0  0  0  0  0  0  0  0  0  0  0
  127.2470  127.0310   57.1870 C   0  0  0  0  0  0  0  0  0  0  0  0
  126.9140  127.3720   58.6550 C   0  0  0  0  0  0  0  0  0  0  0  0
  126.8110  128.8850   58.9630 C   0  0  0  0  0  0  0  0  0  0  0  0
  125.5130  129.4710   58.6150 N   0  0  0  0  0  0  0  0  0  0  0  0
  124.9260  130.2820   59.6910 C   0  0  0  0  0  0  0  0  0  0  0  0
  123.6050  130.9450   59.2440 C   0  0  0  0  0  0  0  0  0  0  0  0
  123.8120  131.6970   58.0530 O   0  0  0  0  0  0  0  0  0  0  0  0
  124.2830  130.8920   56.9770 C   0  0  0  0  0  0  0  0  0  0  0  0
  125.6240  130.2310   57.3620 C   0  0  0  0  0  0  0  0  0  0  0  0
  129.5900  127.5770   57.8800 C   0  0  2  0  0  0  0  0  0  0  0  0
  130.0770  128.9620   57.3480 C   0  0  0  0  0  0  0  0  0  0  0  0
  129.6320  129.4330   56.3020 O   0  0  0  0  0  0  0  0  0  0  0  0
  130.9680  129.6020   58.1250 N   0  0  0  0  0  0  0  0  0  0  0  0
  131.4850  130.9450   57.8860 C   0  0  0  0  0  0  0  0  0  0  0  0
  130.5340  132.0160   58.4520 C   0  0  2  0  0  0  0  0  0  0  0  0
  129.1280  131.5170   58.8300 C   0  0  0  0  0  0  0  0  0  0  0  0
  128.2510  131.9530   57.6820 C   0  0  0  0  0  0  0  0  0  0  0  0
  128.9150  133.2570   57.2760 C   0  0  0  0  0  0  0  0  0  0  0  0
  130.2990  132.9440   57.3850 O   0  0  0  0  0  0  0  0  0  0  0  0
  130.6410  126.6380   58.4590 C   0  0  0  0  0  0  0  0  0  0  0  0
  130.4710  126.1880   59.7740 C   0  0  0  0  0  0  0  0  0  0  0  0
  131.3990  125.3300   60.3560 C   0  0  0  0  0  0  0  0  0  0  0  0
  132.5080  124.9130   59.6240 C   0  0  0  0  0  0  0  0  0  0  0  0
  133.4100  124.0790   60.1890 F   0  0  0  0  0  0  0  0  0  0  0  0
  132.6940  125.3490   58.3150 C   0  0  0  0  0  0  0  0  0  0  0  0
  131.7650  126.2090   57.7350 C   0  0  0  0  0  0  0  0  0  0  0  0
  128.7110  124.0250   58.2960 N   0  0  0  0  0  0  0  0  0  0  0  0
  129.6820  122.6440   60.8750 C   0  0  0  0  0  0  0  0  0  0  0  0
  130.0580  122.3920   62.2050 C   0  0  0  0  0  0  0  0  0  0  0  0
  131.3380  122.0230   62.5840 O   0  0  0  0  0  0  0  0  0  0  0  0
  132.3320  123.0240   62.7720 C   0  0  0  0  0  0  0  0  0  0  0  0
  1  2  1  0
  2  3  1  0
  3  4  2  0
  4  5  1  0
  5  6  2  0
  6  7  1  0
  7  8  1  0
  8  9  2  0
  9 10  1  0
 10 11  1  0
 11 12  1  0
 12 13  2  0
 12 14  1  0
 14 15  1  0
 15 16  1  0
 16 17  1  0
 17 18  1  0
 18 19  1  0
 19 20  1  0
 20 21  1  0
 21 22  1  0
 22 23  1  0
 24 14  1  6
 24 25  1  0
 25 26  2  0
 25 27  1  0
 27 28  1  0
 29 28  1  6
 29 30  1  0
 30 31  1  0
 31 32  1  0
 32 33  1  0
 24 34  1  0
 34 35  2  0
 35 36  1  0
 36 37  2  0
 37 38  1  0
 37 39  1  0
 39 40  2  0
 10 41  1  0
  6 42  1  0
 42 43  2  0
 43 44  1  0
 44 45  1  0
 43  3  1  0
 41  7  2  0
 23 18  1  0
 33 29  1  0
 40 34  1  0
M  END
>  <Binding energies>  (71) 
[-8.09]

>  <Ligand effiencies>  (71) 
[-0.1758695652173913]

>  <Interactions>  (71) 
["V-A:ASP:366:CG:3213, H-A:TYR:531:OH:4795, V-A:PRO:540:CA:4883, H-B:TYR:539:OH:9850, V-A:PRO:540:CB:4885, H-A:ASP:366:OD2:3215, V-A:PRO:540:N:4884, V-A:TYR:539:C:4867, V-A:ASP:366:CB:3212, H-A:TYR:539:N:4870, V-B:TYR:539:CZ:9849, V-B:TYR:539:CE1:9847, V-B:PRO:540:CA:9855, V-B:TYR:539:CE2:9848, V-B:ASP:366:CB:8183, H-B:TYR:531:OH:9767, V-B:ASP:366:CG:8184, V-B:TYR:531:CE1:9764, V-B:TYR:531:CZ:9766, V-B:TYR:539:CD2:9846, V-B:ALA:541:CB:9864, V-A:ASP:366:CA:3210, V-B:GLU:543:CG:9879, V-A:ILE:369:CG2:3237, V-A:LEU:475:CD2:4259, V-A:TYR:484:CZ:4347, V-A:TYR:484:CE2:4346, V-B:GLU:543:CD:9880, V-A:TYR:531:CZ:4794, H-A:TYR:539:OH:4878, V-A:TYR:539:CE1:4875, V-B:ASP:366:CA:8181, V-B:ILE:369:CG2:8208, V-A:TYR:539:CZ:4877, V-B:ASP:366:C:8179, V-B:ILE:369:CB:8207, V-B:ALA:541:CA:9862, V-A:TYR:539:CD1:4873, V-A:TYR:539:CG:4872, V-A:TYR:539:CA:4869"]

$$$$
RR17_Rahimova_2017
     RDKit          3D

 38 41  0  0  0  0  0  0  0  0999 V2000
  129.8420  116.9700   60.8530 C   0  0  0  0  0  0  0  0  0  0  0  0
  130.2540  118.3100   61.4700 C   0  0  0  0  0  0  0  0  0  0  0  0
  131.3650  118.8260   60.7430 O   0  0  0  0  0  0  0  0  0  0  0  0
  131.6120  120.1870   60.7580 C   0  0  0  0  0  0  0  0  0  0  0  0
  132.9220  120.5850   60.4970 C   0  0  0  0  0  0  0  0  0  0  0  0
  133.2660  121.9320   60.4930 C   0  0  0  0  0  0  0  0  0  0  0  0
  132.3010  122.9160   60.7530 C   0  0  0  0  0  0  0  0  0  0  0  0
  132.7020  124.3630   60.7400 C   0  0  0  0  0  0  0  0  0  0  0  0
  132.9120  124.9820   59.6930 O   0  0  0  0  0  0  0  0  0  0  0  0
  132.8600  125.0590   62.1110 C   0  0  0  0  0  0  0  0  0  0  0  0
  133.6120  123.9560   63.3610 S   0  0  0  0  0  0  0  0  0  0  0  0
  132.9700  124.6890   64.8390 C   0  0  0  0  0  0  0  0  0  0  0  0
  133.6880  125.2630   65.7760 N   0  0  0  0  0  0  0  0  0  0  0  0
  132.8180  125.7170   66.7600 N   0  0  0  0  0  0  0  0  0  0  0  0
  131.6060  125.4040   66.3780 C   0  0  0  0  0  0  0  0  0  0  0  0
  130.3420  125.7290   67.1600 C   0  0  0  0  0  0  0  0  0  0  0  0
  130.3760  127.0320   67.8210 N   0  0  0  0  0  0  0  0  0  0  0  0
  129.8550  127.2700   69.1050 C   0  0  0  0  0  0  0  0  0  0  0  0
  130.6870  127.9040   70.0280 C   0  0  0  0  0  0  0  0  0  0  0  0
  130.2360  128.1650   71.3190 C   0  0  0  0  0  0  0  0  0  0  0  0
  128.9430  127.7970   71.7020 C   0  0  0  0  0  0  0  0  0  0  0  0
  128.4660  128.0850   73.1250 C   0  0  0  0  0  0  0  0  0  0  0  0
  129.0640  127.3030   74.0260 F   0  0  0  0  0  0  0  0  0  0  0  0
  128.7160  129.3540   73.4510 F   0  0  0  0  0  0  0  0  0  0  0  0
  127.1520  127.8760   73.1950 F   0  0  0  0  0  0  0  0  0  0  0  0
  128.1050  127.1690   70.7750 C   0  0  0  0  0  0  0  0  0  0  0  0
  128.5550  126.9090   69.4840 C   0  0  0  0  0  0  0  0  0  0  0  0
  131.6310  124.7380   65.1700 N   0  0  0  0  0  0  0  0  0  0  0  0
  130.5410  124.2510   64.4330 C   0  0  0  0  0  0  0  0  0  0  0  0
  129.8830  125.0960   63.5390 C   0  0  0  0  0  0  0  0  0  0  0  0
  128.7990  124.6140   62.8110 C   0  0  0  0  0  0  0  0  0  0  0  0
  128.3700  123.2870   62.9740 C   0  0  0  0  0  0  0  0  0  0  0  0
  127.3070  122.7230   62.2950 O   0  0  0  0  0  0  0  0  0  0  0  0
  126.5310  123.5370   61.4220 C   0  0  0  0  0  0  0  0  0  0  0  0
  129.0400  122.4560   63.8750 C   0  0  0  0  0  0  0  0  0  0  0  0
  130.1250  122.9310   64.6060 C   0  0  0  0  0  0  0  0  0  0  0  0
  130.9830  122.5150   61.0150 C   0  0  0  0  0  0  0  0  0  0  0  0
  130.6410  121.1650   61.0170 C   0  0  0  0  0  0  0  0  0  0  0  0
  1  2  1  0
  2  3  1  0
  3  4  1  0
  4  5  2  0
  5  6  1  0
  6  7  2  0
  7  8  1  0
  8  9  2  0
  8 10  1  0
 10 11  1  0
 11 12  1  0
 12 13  2  0
 13 14  1  0
 14 15  2  0
 15 16  1  0
 16 17  1  0
 17 18  1  0
 18 19  2  0
 19 20  1  0
 20 21  2  0
 21 22  1  0
 22 23  1  0
 22 24  1  0
 22 25  1  0
 21 26  1  0
 26 27  2  0
 15 28  1  0
 28 29  1  0
 29 30  2  0
 30 31  1  0
 31 32  2  0
 32 33  1  0
 33 34  1  0
 32 35  1  0
 35 36  2  0
  7 37  1  0
 37 38  2  0
 38  4  1  0
 28 12  1  0
 36 29  1  0
 27 18  1  0
M  END
>  <Binding energies>  (72) 
[-9.17]

>  <Ligand effiencies>  (72) 
[-0.23512820512820512]

>  <Interactions>  (72) 
["V-A:ASP:366:CG:3213, V-B:PRO:540:CB:9857, V-B:PRO:540:CA:9855, V-B:TYR:539:CE2:9848, H-B:ALA:541:N:9863, V-B:TYR:539:CD2:9846, V-B:ALA:541:CB:9864, V-B:GLU:543:CG:9879, V-A:ILE:369:CG2:3237, V-A:LEU:475:CD2:4259, V-A:TYR:484:CZ:4347, V-B:GLU:543:CB:9878, H-A:TYR:484:OH:4348, V-A:GLU:543:CD:4908, V-A:TYR:484:CE2:4346, H-A:ARG:545:NE:4924, V-A:ARG:545:CZ:4926, V-B:GLU:543:CD:9880, V-B:HIS:456:CE1:9041, V-A:GLY:544:C:4912, V-B:GLU:543:C:9874, V-B:HIS:456:CD2:9039, V-B:LYS:547:CE:9922, V-A:HIS:456:CE1:4070, V-A:GLU:543:C:4902, V-A:GLU:543:CB:4906, V-B:HIS:456:CG:9037, H-A:GLU:543:OE1:4909, H-A:GLU:543:OE2:4910, H-A:ARG:545:NH2:4928, H-A:GLY:454:N:4050, H-A:SER:385:OG:3410, V-A:HIS:383:NE2:3394, V-A:LEU:475:CG:4257, V-A:HIS:383:CE1:3393, V-A:LEU:475:CD1:4258, V-A:PRO:482:CB:4326, V-A:PRO:482:CG:4327, H-A:HIS:383:HE2:3395, V-A:SER:385:CB:3409, V-B:VAL:344:CG1:7972"]

$$$$
RR19_Rahimova_2017
     RDKit          3D

 46 51  0  0  0  0  0  0  0  0999 V2000
  133.5250  124.2280   64.3040 O   0  0  0  0  0  0  0  0  0  0  0  0
  132.3670  124.3120   63.8840 C   0  0  0  0  0  0  0  0  0  0  0  0
  132.0010  124.6300   62.6160 N   0  0  0  0  0  0  0  0  0  0  0  0
  132.6980  124.7300   61.4380 C   0  0  0  0  0  0  0  0  0  0  0  0
  134.2920  124.2150   61.1890 S   0  0  0  0  0  0  0  0  0  0  0  0
  131.8880  125.3140   60.4960 N   0  0  0  0  0  0  0  0  0  0  0  0
  132.0190  125.5160   59.1600 C   0  0  0  0  0  0  0  0  0  0  0  0
  132.8830  125.0270   58.4280 O   0  0  0  0  0  0  0  0  0  0  0  0
  130.9640  126.4800   58.5630 C   0  0  2  0  0  0  0  0  0  0  0  0
  130.8010  127.8250   59.3290 C   0  0  0  0  0  0  0  0  0  0  0  0
  130.9310  129.0760   58.4750 C   0  0  0  0  0  0  0  0  0  0  0  0
  129.8310  129.5670   57.7380 C   0  0  0  0  0  0  0  0  0  0  0  0
  129.9450  130.7540   57.0270 C   0  0  0  0  0  0  0  0  0  0  0  0
  131.1340  131.4730   57.0510 C   0  0  0  0  0  0  0  0  0  0  0  0
  132.2150  131.0180   57.7950 C   0  0  0  0  0  0  0  0  0  0  0  0
  132.1200  129.8350   58.5150 C   0  0  0  0  0  0  0  0  0  0  0  0
  129.6540  125.7980   58.3730 N   0  0  0  0  0  0  0  0  0  0  0  0
  128.7870  125.6260   59.4110 C   0  0  0  0  0  0  0  0  0  0  0  0
  128.9540  125.9590   60.5860 O   0  0  0  0  0  0  0  0  0  0  0  0
  127.5970  124.9600   58.8280 C   0  0  0  0  0  0  0  0  0  0  0  0
  126.4040  124.5380   59.4160 C   0  0  0  0  0  0  0  0  0  0  0  0
  125.4350  123.9340   58.6080 C   0  0  0  0  0  0  0  0  0  0  0  0
  125.6670  123.7620   57.2360 C   0  0  0  0  0  0  0  0  0  0  0  0
  126.8690  124.1930   56.6650 C   0  0  0  0  0  0  0  0  0  0  0  0
  127.8230  124.7910   57.4890 C   0  0  0  0  0  0  0  0  0  0  0  0
  129.1640  125.3480   57.1800 C   0  0  0  0  0  0  0  0  0  0  0  0
  129.7100  125.3990   56.0770 O   0  0  0  0  0  0  0  0  0  0  0  0
  131.1810  124.0540   64.8510 C   0  0  2  0  0  0  0  0  0  0  0  0
  130.3430  122.7900   64.4990 C   0  0  0  0  0  0  0  0  0  0  0  0
  129.9310  122.7110   63.0400 C   0  0  0  0  0  0  0  0  0  0  0  0
  130.7670  122.0680   62.1020 C   0  0  0  0  0  0  0  0  0  0  0  0
  130.3420  121.9070   60.7890 C   0  0  0  0  0  0  0  0  0  0  0  0
  129.0850  122.3520   60.4000 C   0  0  0  0  0  0  0  0  0  0  0  0
  128.2360  122.9520   61.3220 C   0  0  0  0  0  0  0  0  0  0  0  0
  128.6420  123.1230   62.6390 C   0  0  0  0  0  0  0  0  0  0  0  0
  130.3100  125.2480   65.0500 N   0  0  0  0  0  0  0  0  0  0  0  0
  129.9570  125.6780   66.2940 C   0  0  0  0  0  0  0  0  0  0  0  0
  130.2640  125.1710   67.3740 O   0  0  0  0  0  0  0  0  0  0  0  0
  129.1240  126.8850   66.0700 C   0  0  0  0  0  0  0  0  0  0  0  0
  128.4840  127.7350   66.9740 C   0  0  0  0  0  0  0  0  0  0  0  0
  127.7550  128.8190   66.4740 C   0  0  0  0  0  0  0  0  0  0  0  0
  127.6760  129.0400   65.0920 C   0  0  0  0  0  0  0  0  0  0  0  0
  128.3270  128.1780   64.2020 C   0  0  0  0  0  0  0  0  0  0  0  0
  129.0470  127.1010   64.7220 C   0  0  0  0  0  0  0  0  0  0  0  0
  129.8290  126.0380   64.0450 C   0  0  0  0  0  0  0  0  0  0  0  0
  130.0070  125.8990   62.8340 O   0  0  0  0  0  0  0  0  0  0  0  0
  1  2  2  0
  2  3  1  0
  3  4  1  0
  4  5  2  0
  4  6  1  0
  6  7  1  0
  7  8  2  0
  7  9  1  0
  9 10  1  1
 10 11  1  0
 11 12  2  0
 12 13  1  0
 13 14  2  0
 14 15  1  0
 15 16  2  0
  9 17  1  0
 17 18  1  0
 18 19  2  0
 18 20  1  0
 20 21  2  0
 21 22  1  0
 22 23  2  0
 23 24  1  0
 24 25  2  0
 25 26  1  0
 26 27  2  0
  2 28  1  0
 28 29  1  6
 29 30  1  0
 30 31  2  0
 31 32  1  0
 32 33  2  0
 33 34  1  0
 34 35  2  0
 28 36  1  0
 36 37  1  0
 37 38  2  0
 37 39  1  0
 39 40  2  0
 40 41  1  0
 41 42  2  0
 42 43  1  0
 43 44  2  0
 44 45  1  0
 45 46  2  0
 16 11  1  0
 26 17  1  0
 35 30  1  0
 45 36  1  0
 25 20  1  0
 44 39  1  0
M  END
>  <Binding energies>  (73) 
[-10.87]

>  <Ligand effiencies>  (73) 
[-0.22645833333333332]

>  <Interactions>  (73) 
["V-A:LEU:363:CD1:3189, V-A:ASP:366:CG:3213, H-A:TYR:531:OH:4795, H-B:TYR:539:OH:9850, V-A:ASP:366:CB:3212, V-B:TYR:539:CZ:9849, V-B:PRO:540:CB:9857, V-B:PRO:540:CA:9855, V-B:TYR:539:CE2:9848, V-B:MET:535:CE:9807, V-B:TYR:539:CD2:9846, V-A:MET:535:CE:4835, V-B:ALA:541:CB:9864, V-A:ILE:369:CD1:3239, V-B:GLU:543:CG:9879, V-A:LEU:475:CD2:4259, V-A:TYR:484:CZ:4347, V-B:GLU:543:CB:9878, H-A:TYR:484:OH:4348, V-A:GLU:543:CD:4908, V-A:TYR:484:CE2:4346, V-B:GLU:543:CD:9880, V-B:HIS:456:CE1:9041, H-A:GLY:454:N:4050"]

$$$$
RR1_Rahimova_2017
     RDKit          3D

 41 44  0  0  0  0  0  0  0  0999 V2000
  131.4910  132.6920   56.6380 C   0  0  0  0  0  0  0  0  0  0  0  0
  130.1930  133.2350   56.4210 O   0  0  0  0  0  0  0  0  0  0  0  0
  129.1540  132.8460   57.2440 C   0  0  0  0  0  0  0  0  0  0  0  0
  128.0360  132.1140   56.8150 C   0  0  0  0  0  0  0  0  0  0  0  0
  127.0320  131.7740   57.7170 C   0  0  0  0  0  0  0  0  0  0  0  0
  127.1290  132.1500   59.0580 C   0  0  0  0  0  0  0  0  0  0  0  0
  126.0430  131.7980   59.8810 N   0  0  0  0  0  0  0  0  0  0  0  0
  125.2010  130.7470   59.7840 C   0  0  0  0  0  0  0  0  0  0  0  0
  125.2110  129.9220   58.8700 O   0  0  0  0  0  0  0  0  0  0  0  0
  124.1800  130.6370   60.9280 C   0  0  0  0  0  0  0  0  0  0  0  0
  124.5580  131.6300   62.4140 S   0  0  0  0  0  0  0  0  0  0  0  0
  126.2010  131.0530   62.6770 C   0  0  0  0  0  0  0  0  0  0  0  0
  127.2610  131.5580   62.0970 N   0  0  0  0  0  0  0  0  0  0  0  0
  128.2650  130.8390   62.5880 C   0  0  0  0  0  0  0  0  0  0  0  0
  129.6950  131.0870   62.2000 C   0  0  0  0  0  0  0  0  0  0  0  0
  130.2450  130.5370   61.0310 C   0  0  0  0  0  0  0  0  0  0  0  0
  131.5780  130.7830   60.6980 C   0  0  0  0  0  0  0  0  0  0  0  0
  132.3400  131.5800   61.5500 C   0  0  0  0  0  0  0  0  0  0  0  0
  131.8420  132.1260   62.6880 N   0  0  0  0  0  0  0  0  0  0  0  0
  130.5430  131.8770   62.9930 C   0  0  0  0  0  0  0  0  0  0  0  0
  127.9200  129.8950   63.4440 N   0  0  0  0  0  0  0  0  0  0  0  0
  126.5920  130.0300   63.5020 N   0  0  0  0  0  0  0  0  0  0  0  0
  125.7950  129.1700   64.3770 C   0  0  0  0  0  0  0  0  0  0  0  0
  126.2130  129.1840   65.8580 C   0  0  0  0  0  0  0  0  0  0  0  0
  125.3660  129.2630   66.7540 O   0  0  0  0  0  0  0  0  0  0  0  0
  127.5410  129.1100   66.0740 N   0  0  0  0  0  0  0  0  0  0  0  0
  127.9830  128.9700   67.3830 N   0  0  0  0  0  0  0  0  0  0  0  0
  128.8190  127.9450   67.6590 C   0  0  0  0  0  0  0  0  0  0  0  0
  129.2940  127.1890   66.8050 O   0  0  0  0  0  0  0  0  0  0  0  0
  129.1840  127.7730   69.1190 C   0  0  0  0  0  0  0  0  0  0  0  0
  130.4860  128.0510   69.5510 C   0  0  0  0  0  0  0  0  0  0  0  0
  130.8460  127.8880   70.8850 C   0  0  0  0  0  0  0  0  0  0  0  0
  129.9140  127.4330   71.8300 C   0  0  0  0  0  0  0  0  0  0  0  0
  130.2110  127.2370   73.1670 O   0  0  0  0  0  0  0  0  0  0  0  0
  131.5380  126.8930   73.5480 C   0  0  0  0  0  0  0  0  0  0  0  0
  128.6070  127.1420   71.4170 C   0  0  0  0  0  0  0  0  0  0  0  0
  127.7310  126.6770   72.3840 O   0  0  0  0  0  0  0  0  0  0  0  0
  126.9670  127.6050   73.1460 C   0  0  0  0  0  0  0  0  0  0  0  0
  128.2530  127.3170   70.0670 C   0  0  0  0  0  0  0  0  0  0  0  0
  128.2460  132.8810   59.4910 C   0  0  0  0  0  0  0  0  0  0  0  0
  129.2480  133.2190   58.5860 C   0  0  0  0  0  0  0  0  0  0  0  0
  1  2  1  0
  2  3  1  0
  3  4  2  0
  4  5  1  0
  5  6  2  0
  6  7  1  0
  7  8  1  0
  8  9  2  0
  8 10  1  0
 10 11  1  0
 11 12  1  0
 12 13  2  0
 13 14  1  0
 14 15  1  0
 15 16  2  0
 16 17  1  0
 17 18  2  0
 18 19  1  0
 19 20  2  0
 14 21  2  0
 21 22  1  0
 22 23  1  0
 23 24  1  0
 24 25  2  0
 24 26  1  0
 26 27  1  0
 27 28  1  0
 28 29  2  0
 28 30  1  0
 30 31  2  0
 31 32  1  0
 32 33  2  0
 33 34  1  0
 34 35  1  0
 33 36  1  0
 36 37  1  0
 37 38  1  0
 36 39  2  0
  6 40  1  0
 40 41  2  0
 41  3  1  0
 22 12  1  0
 39 30  1  0
 20 15  1  0
M  END
>  <Binding energies>  (74) 
[-8.27]

>  <Ligand effiencies>  (74) 
[-0.18795454545454546]

>  <Interactions>  (74) 
["V-A:LEU:363:CD1:3189, V-A:PRO:540:CA:4883, V-A:PRO:540:CB:4885, V-A:PRO:540:CD:4887, V-A:PRO:540:N:4884, V-A:TYR:539:C:4867, H-A:TYR:539:N:4870, H-B:TYR:531:OH:9767, V-B:ASP:366:CG:8184, V-A:MET:535:CE:4835, V-A:GLU:543:CD:4908, V-B:GLU:543:CD:9880, V-B:HIS:456:CE1:9041, V-A:GLY:544:C:4912, H-A:LYS:547:NZ:4951, V-B:GLY:544:C:9884, V-B:HIS:456:CD2:9039, V-B:LYS:547:CE:9922, V-A:HIS:456:CE1:4070, V-A:GLU:543:CG:4907, V-A:GLU:543:C:4902, V-A:GLU:543:CB:4906, V-B:HIS:456:CG:9037, H-B:LYS:547:NZ:9923, H-A:GLU:543:OE1:4909, H-A:GLU:543:OE2:4910, V-B:TYR:484:CZ:9318, H-B:GLU:543:OE2:9882, H-B:TYR:484:OH:9319, V-A:ALA:541:CB:4892, V-A:HIS:456:CD2:4068, H-B:HIS:456:NE2:9042, V-A:HIS:456:CG:4066, V-A:TYR:539:CE1:4875, V-A:ALA:541:CA:4890, V-A:TYR:539:CZ:4877, H-A:ALA:541:N:4891, V-A:TYR:539:CD1:4873, V-A:TYR:539:CA:4869, V-A:ILE:538:CG2:4863, V-A:ILE:538:CB:4862, V-B:ARG:545:CZ:9898, H-B:ARG:545:NE:9896"]

$$$$
RR22_Rahimova_2017
     RDKit          3D

 31 36  0  0  0  0  0  0  0  0999 V2000
  134.0020  124.2500   57.5450 O   0  0  0  0  0  0  0  0  0  0  0  0
  133.1830  124.9580   58.1270 C   0  0  0  0  0  0  0  0  0  0  0  0
  132.5900  126.1190   57.6630 N   0  0  0  0  0  0  0  0  0  0  0  0
  131.6020  126.7960   58.4470 C   0  0  1  0  0  0  0  0  0  0  0  0
  132.0910  128.1330   58.5930 O   0  0  0  0  0  0  0  0  0  0  0  0
  131.3080  129.1820   58.1100 C   0  0  0  0  0  0  0  0  0  0  0  0
  131.9510  130.4060   57.9290 C   0  0  0  0  0  0  0  0  0  0  0  0
  131.2250  131.5120   57.4880 C   0  0  0  0  0  0  0  0  0  0  0  0
  129.8570  131.3940   57.2360 C   0  0  0  0  0  0  0  0  0  0  0  0
  129.2130  130.1690   57.4180 C   0  0  0  0  0  0  0  0  0  0  0  0
  129.9340  129.0460   57.8360 C   0  0  0  0  0  0  0  0  0  0  0  0
  129.3230  127.6890   58.1040 C   0  0  1  0  0  0  0  0  0  0  0  0
  128.1280  127.1670   57.3320 C   0  0  0  0  0  0  0  0  0  0  0  0
  128.4170  125.6640   57.3880 C   0  0  0  0  0  0  0  0  0  0  0  0
  127.3830  124.6420   57.1270 C   0  0  0  0  0  0  0  0  0  0  0  0
  127.7370  123.3800   56.6290 C   0  0  0  0  0  0  0  0  0  0  0  0
  126.7590  122.4200   56.3860 C   0  0  0  0  0  0  0  0  0  0  0  0
  125.4220  122.7150   56.6390 C   0  0  0  0  0  0  0  0  0  0  0  0
  125.0540  123.9640   57.1340 C   0  0  0  0  0  0  0  0  0  0  0  0
  126.0310  124.9240   57.3790 C   0  0  0  0  0  0  0  0  0  0  0  0
  129.6470  125.4400   57.6590 N   0  0  0  0  0  0  0  0  0  0  0  0
  130.2920  126.6810   57.7910 N   0  0  0  0  0  0  0  0  0  0  0  0
  131.6300  126.1570   59.8280 C   0  0  0  0  0  0  0  0  0  0  0  0
  131.0910  126.7440   60.9220 C   0  0  0  0  0  0  0  0  0  0  0  0
  131.0310  126.2310   62.3050 C   0  0  0  0  0  0  0  0  0  0  0  0
  129.9120  126.3920   63.1350 C   0  0  0  0  0  0  0  0  0  0  0  0
  129.9280  125.8800   64.4330 C   0  0  0  0  0  0  0  0  0  0  0  0
  131.0740  125.2190   64.8740 C   0  0  0  0  0  0  0  0  0  0  0  0
  132.1730  125.0550   64.0970 N   0  0  0  0  0  0  0  0  0  0  0  0
  132.1380  125.5600   62.8360 C   0  0  0  0  0  0  0  0  0  0  0  0
  132.5350  124.6360   59.7950 S   0  0  0  0  0  0  0  0  0  0  0  0
  1  2  2  0
  2  3  1  0
  4  3  1  6
  4  5  1  0
  5  6  1  0
  6  7  2  0
  7  8  1  0
  8  9  2  0
  9 10  1  0
 10 11  2  0
 11 12  1  0
 12 13  1  6
 13 14  1  0
 14 15  1  0
 15 16  2  0
 16 17  1  0
 17 18  2  0
 18 19  1  0
 19 20  2  0
 14 21  2  0
 21 22  1  0
  4 23  1  0
 23 24  2  0
 24 25  1  0
 25 26  2  0
 26 27  1  0
 27 28  2  0
 28 29  1  0
 29 30  2  0
 23 31  1  0
 31  2  1  0
 22  4  1  0
 30 25  1  0
 11  6  1  0
 22 12  1  0
 20 15  1  0
M  END
>  <Binding energies>  (75) 
[-9.39]

>  <Ligand effiencies>  (75) 
[-0.2934375]

>  <Interactions>  (75) 
["V-A:ASP:366:CG:3213, H-A:TYR:531:OH:4795, H-B:TYR:539:OH:9850, V-A:ASP:366:CB:3212, V-B:TYR:539:CZ:9849, V-B:PRO:540:N:9856, V-B:TYR:539:CE1:9847, V-B:PRO:540:CB:9857, V-B:TYR:539:CD1:9845, V-B:TYR:539:CE2:9848, V-B:PRO:540:CD:9859, V-B:MET:535:CE:9807, V-B:LEU:363:CD1:8160, V-B:TYR:539:C:9839, V-A:MET:535:CE:4835, V-B:TYR:531:CE2:9765, V-A:ASP:366:C:3208, V-A:ASP:366:CA:3210, V-B:GLU:543:CG:9879, H-A:ASN:370:N:3244, H-A:ASP:366:O:3209, V-A:GLU:543:CD:4908, V-A:ARG:545:CZ:4926, V-B:GLU:543:CD:9880, V-A:TYR:531:CZ:4794, H-A:ARG:545:NH2:4928"]

$$$$
RR24_Rahimova_2017
     RDKit          3D

 43 49  0  0  0  0  0  0  0  0999 V2000
  124.6430  123.8760   57.9770 C   0  0  0  0  0  0  0  0  0  0  0  0
  125.7950  123.8610   56.9630 C   0  0  2  0  0  0  0  0  0  0  0  0
  126.6930  122.5940   57.0720 C   0  0  0  0  0  0  0  0  0  0  0  0
  126.9740  121.9020   56.0880 O   0  0  0  0  0  0  0  0  0  0  0  0
  127.0900  122.3430   58.3550 O   0  0  0  0  0  0  0  0  0  0  0  0
  127.7540  123.3190   59.0630 C   0  0  0  0  0  0  0  0  0  0  0  0
  127.1970  123.8030   60.2490 C   0  0  0  0  0  0  0  0  0  0  0  0
  127.8650  124.7820   60.9790 C   0  0  0  0  0  0  0  0  0  0  0  0
  129.0940  125.2750   60.5320 C   0  0  0  0  0  0  0  0  0  0  0  0
  129.8150  126.3670   61.3310 C   0  0  1  0  0  0  0  0  0  0  0  0
  128.8340  127.1960   62.1930 C   0  0  0  0  0  0  0  0  0  0  0  0
  129.0280  127.4170   63.5070 C   0  0  0  0  0  0  0  0  0  0  0  0
  130.1150  126.9190   64.1810 N   0  0  0  0  0  0  0  0  0  0  0  0
  131.0680  126.1620   63.5400 C   0  0  0  0  0  0  0  0  0  0  0  0
  132.0830  125.7550   64.3450 N   0  0  0  0  0  0  0  0  0  0  0  0
  133.0750  124.9330   63.9060 C   0  0  0  0  0  0  0  0  0  0  0  0
  133.7770  124.3440   64.7300 O   0  0  0  0  0  0  0  0  0  0  0  0
  133.0710  124.7240   62.5360 N   0  0  0  0  0  0  0  0  0  0  0  0
  134.1810  123.9120   61.9950 C   0  0  0  0  0  0  0  0  0  0  0  0
  132.0920  125.0900   61.6280 C   0  0  0  0  0  0  0  0  0  0  0  0
  132.1300  124.8240   60.4230 O   0  0  0  0  0  0  0  0  0  0  0  0
  130.9910  125.8590   62.2180 C   0  0  0  0  0  0  0  0  0  0  0  0
  127.9520  128.2230   64.0590 C   0  0  0  0  0  0  0  0  0  0  0  0
  127.6900  128.7100   65.3400 C   0  0  0  0  0  0  0  0  0  0  0  0
  126.5400  129.4750   65.5570 C   0  0  0  0  0  0  0  0  0  0  0  0
  125.6670  129.7480   64.5000 C   0  0  0  0  0  0  0  0  0  0  0  0
  125.9350  129.2570   63.2190 C   0  0  0  0  0  0  0  0  0  0  0  0
  127.0840  128.4920   63.0090 C   0  0  0  0  0  0  0  0  0  0  0  0
  127.6040  127.8610   61.7780 C   0  0  0  0  0  0  0  0  0  0  0  0
  127.1440  127.8640   60.6370 O   0  0  0  0  0  0  0  0  0  0  0  0
  129.6590  124.7740   59.3540 C   0  0  0  0  0  0  0  0  0  0  0  0
  128.9930  123.7940   58.6250 C   0  0  0  0  0  0  0  0  0  0  0  0
  126.5890  125.1250   56.9970 N   0  0  0  0  0  0  0  0  0  0  0  0
  126.2070  126.1870   57.7610 C   0  0  0  0  0  0  0  0  0  0  0  0
  125.2120  126.2690   58.4840 O   0  0  0  0  0  0  0  0  0  0  0  0
  127.2420  127.2270   57.5370 C   0  0  0  0  0  0  0  0  0  0  0  0
  127.3670  128.5170   58.0550 C   0  0  0  0  0  0  0  0  0  0  0  0
  128.4670  129.2900   57.6660 C   0  0  0  0  0  0  0  0  0  0  0  0
  129.4170  128.7700   56.7780 C   0  0  0  0  0  0  0  0  0  0  0  0
  129.2730  127.4750   56.2700 C   0  0  0  0  0  0  0  0  0  0  0  0
  128.1690  126.7200   56.6680 C   0  0  0  0  0  0  0  0  0  0  0  0
  127.7530  125.3410   56.3110 C   0  0  0  0  0  0  0  0  0  0  0  0
  128.3360  124.5570   55.5610 O   0  0  0  0  0  0  0  0  0  0  0  0
  2  1  1  1
  2  3  1  0
  3  4  2  0
  3  5  1  0
  5  6  1  0
  6  7  2  0
  7  8  1  0
  8  9  2  0
 10  9  1  1
 10 11  1  0
 11 12  2  0
 12 13  1  0
 13 14  1  0
 14 15  1  0
 15 16  1  0
 16 17  2  0
 16 18  1  0
 18 19  1  0
 18 20  1  0
 20 21  2  0
 20 22  1  0
 12 23  1  0
 23 24  2  0
 24 25  1  0
 25 26  2  0
 26 27  1  0
 27 28  2  0
 28 29  1  0
 29 30  2  0
  9 31  1  0
 31 32  2  0
  2 33  1  0
 33 34  1  0
 34 35  2  0
 34 36  1  0
 36 37  2  0
 37 38  1  0
 38 39  2  0
 39 40  1  0
 40 41  2  0
 41 42  1  0
 42 43  2  0
 32  6  1  0
 42 33  1  0
 22 10  1  0
 28 23  1  0
 41 36  1  0
 29 11  1  0
 22 14  2  0
M  END
>  <Binding energies>  (76) 
[-9.5]

>  <Ligand effiencies>  (76) 
[-0.2111111111111111]

>  <Interactions>  (76) 
["H-B:TYR:539:OH:9850, V-B:TYR:539:CZ:9849, V-B:PRO:540:N:9856, V-B:PRO:540:CB:9857, V-B:PRO:540:CA:9855, V-B:TYR:539:CE2:9848, H-B:TYR:539:N:9842, H-B:TYR:531:OH:9767, V-B:PRO:540:CD:9859, V-B:MET:535:CE:9807, V-B:LEU:363:CD1:8160, V-B:TYR:539:C:9839, V-B:TYR:531:CZ:9766, V-B:TYR:539:CD2:9846, V-A:MET:535:CE:4835, V-A:ILE:369:CD1:3239, H-A:TYR:484:OH:4348, V-A:GLU:543:CD:4908, V-A:ARG:545:CZ:4926, V-B:GLU:543:CD:9880, H-A:GLU:543:OE1:4909, H-A:GLU:543:OE2:4910, V-B:TYR:484:CZ:9318, H-A:GLY:454:N:4050, V-B:ARG:545:CZ:9898"]

$$$$
RR25_Rahimova_2017
     RDKit          3D

 39 44  0  0  0  0  0  0  0  0999 V2000
  130.5720  124.6500   65.6100 O   0  0  0  0  0  0  0  0  0  0  0  0
  130.7720  125.0800   64.4740 C   0  0  0  0  0  0  0  0  0  0  0  0
  131.8810  124.5930   63.8280 O   0  0  0  0  0  0  0  0  0  0  0  0
  132.0780  124.8010   62.4750 C   0  0  0  0  0  0  0  0  0  0  0  0
  132.8640  123.8660   61.8040 C   0  0  0  0  0  0  0  0  0  0  0  0
  133.1100  124.0180   60.4410 C   0  0  0  0  0  0  0  0  0  0  0  0
  132.5800  125.1060   59.7320 C   0  0  0  0  0  0  0  0  0  0  0  0
  132.8360  125.2620   58.2790 N   0  0  0  0  0  0  0  0  0  0  0  0
  133.6490  124.5130   57.7420 O   0  0  0  0  0  0  0  0  0  0  0  0
  132.2280  126.1340   57.6660 O   0  0  0  0  0  0  0  0  0  0  0  0
  131.8000  126.0440   60.4290 C   0  0  0  0  0  0  0  0  0  0  0  0
  131.5500  125.9100   61.7980 C   0  0  0  0  0  0  0  0  0  0  0  0
  130.7060  126.8890   62.5920 C   0  0  0  0  0  0  0  0  0  0  0  0
  129.9210  126.1270   63.6980 C   0  0  2  0  0  0  0  0  0  0  0  0
  129.1200  127.1130   64.5970 C   0  0  0  0  0  0  0  0  0  0  0  0
  129.1860  126.9130   65.8130 O   0  0  0  0  0  0  0  0  0  0  0  0
  128.4840  128.2100   64.0870 N   0  0  0  0  0  0  0  0  0  0  0  0
  128.1110  128.3290   62.6610 C   0  0  0  0  0  0  0  0  0  0  0  0
  128.2930  129.7950   62.2150 C   0  0  0  0  0  0  0  0  0  0  0  0
  127.5440  130.7130   63.0770 N   0  0  0  0  0  0  0  0  0  0  0  0
  127.6070  132.0930   62.5770 C   0  0  0  0  0  0  0  0  0  0  0  0
  129.0620  132.6020   62.3940 C   0  0  0  0  0  0  0  0  0  0  0  0
  129.6410  132.4570   61.0270 N   0  0  0  0  0  0  0  0  0  0  0  0
  130.8840  131.8650   60.9720 C   0  0  0  0  0  0  0  0  0  0  0  0
  131.5070  131.5060   61.9780 O   0  0  0  0  0  0  0  0  0  0  0  0
  131.4290  131.6660   59.5710 C   0  0  0  0  0  0  0  0  0  0  0  0
  132.6750  131.0490   59.3980 C   0  0  0  0  0  0  0  0  0  0  0  0
  133.2010  130.8430   58.1240 C   0  0  0  0  0  0  0  0  0  0  0  0
  132.5020  131.2420   56.9870 C   0  0  0  0  0  0  0  0  0  0  0  0
  131.2400  131.8700   57.1120 C   0  0  0  0  0  0  0  0  0  0  0  0
  130.4770  132.2990   56.0000 C   0  0  0  0  0  0  0  0  0  0  0  0
  129.2380  132.9080   56.1950 C   0  0  0  0  0  0  0  0  0  0  0  0
  128.7320  133.1070   57.4780 C   0  0  0  0  0  0  0  0  0  0  0  0
  129.4520  132.6990   58.6080 C   0  0  0  0  0  0  0  0  0  0  0  0
  130.7130  132.0770   58.4180 C   0  0  0  0  0  0  0  0  0  0  0  0
  128.8630  132.9240   59.9870 C   0  0  0  0  0  0  0  0  0  0  0  0
  127.7660  133.4690   60.1500 O   0  0  0  0  0  0  0  0  0  0  0  0
  128.0330  130.6140   64.4540 C   0  0  0  0  0  0  0  0  0  0  0  0
  127.8670  129.1830   65.0180 C   0  0  0  0  0  0  0  0  0  0  0  0
  1  2  2  0
  2  3  1  0
  3  4  1  0
  4  5  2  0
  5  6  1  0
  6  7  2  0
  7  8  1  0
  8  9  2  0
  8 10  1  0
  7 11  1  0
 11 12  2  0
 12 13  1  0
 13 14  1  0
 14 15  1  1
 15 16  2  0
 15 17  1  0
 17 18  1  0
 18 19  1  0
 19 20  1  0
 20 21  1  0
 21 22  1  0
 22 23  1  0
 23 24  1  0
 24 25  2  0
 24 26  1  0
 26 27  2  0
 27 28  1  0
 28 29  2  0
 29 30  1  0
 30 31  2  0
 31 32  1  0
 32 33  2  0
 33 34  1  0
 34 35  2  0
 34 36  1  0
 36 37  2  0
 20 38  1  0
 38 39  1  0
 14  2  1  0
 39 17  1  0
 12  4  1  0
 36 23  1  0
 35 26  1  0
 35 30  1  0
M  CHG  2   8   1  10  -1
M  END
>  <Binding energies>  (77) 
[-10.36]

>  <Ligand effiencies>  (77) 
[-0.26564102564102565]

>  <Interactions>  (77) 
["V-A:LEU:363:CD1:3189, V-A:ASP:366:CG:3213, H-A:TYR:531:OH:4795, V-A:PRO:540:CA:4883, H-B:TYR:539:OH:9850, V-A:PRO:540:CB:4885, V-A:PRO:540:N:4884, V-A:TYR:539:C:4867, V-A:ASP:366:CB:3212, V-B:TYR:539:CZ:9849, V-B:TYR:539:CE2:9848, V-A:MET:535:CE:4835, V-A:ASP:366:C:3208, V-A:ASP:366:CA:3210, V-B:GLU:543:CG:9879, H-A:TYR:484:OH:4348, V-A:GLU:543:CD:4908, V-B:GLU:543:CD:9880, V-A:GLU:543:CG:4907, V-A:TYR:531:CZ:4794, V-A:ALA:541:CB:4892, V-A:TYR:539:CE1:4875, V-A:PRO:540:C:4881, H-A:ALA:541:N:4891, V-A:TYR:539:CD1:4873, V-A:ILE:538:CA:4860, V-A:TYR:539:CG:4872, V-A:TYR:531:CE2:4793, V-A:ILE:538:CG2:4863, V-A:ILE:538:CB:4862, V-A:LEU:363:CA:3185"]

$$$$
RR27_Rahimova_2017
     RDKit          3D

 39 44  0  0  0  0  0  0  0  0999 V2000
  131.9360  128.6330   58.5260 O   0  0  0  0  0  0  0  0  0  0  0  0
  130.8800  128.9670   59.0720 C   0  0  0  0  0  0  0  0  0  0  0  0
  130.6570  130.4750   59.3860 C   0  0  0  0  0  0  0  0  0  0  0  0
  130.4910  131.3380   58.1210 C   0  0  0  0  0  0  0  0  0  0  0  0
  131.4320  131.3150   57.0810 C   0  0  0  0  0  0  0  0  0  0  0  0
  131.2500  132.1060   55.9500 C   0  0  0  0  0  0  0  0  0  0  0  0
  130.1280  132.9240   55.8540 C   0  0  0  0  0  0  0  0  0  0  0  0
  129.1870  132.9590   56.8800 C   0  0  0  0  0  0  0  0  0  0  0  0
  129.3690  132.1680   58.0100 C   0  0  0  0  0  0  0  0  0  0  0  0
  131.6840  131.0060   60.4040 C   0  0  0  0  0  0  0  0  0  0  0  0
  131.3520  131.2090   61.7500 C   0  0  0  0  0  0  0  0  0  0  0  0
  132.3020  131.7010   62.6410 C   0  0  0  0  0  0  0  0  0  0  0  0
  133.5860  131.9960   62.1890 C   0  0  0  0  0  0  0  0  0  0  0  0
  133.9270  131.8090   60.8520 C   0  0  0  0  0  0  0  0  0  0  0  0
  132.9760  131.3190   59.9620 C   0  0  0  0  0  0  0  0  0  0  0  0
  129.8630  128.0800   59.2640 N   0  0  0  0  0  0  0  0  0  0  0  0
  128.7010  128.3520   60.1240 C   0  0  0  0  0  0  0  0  0  0  0  0
  129.0940  127.9210   61.5550 C   0  0  0  0  0  0  0  0  0  0  0  0
  129.5800  126.4380   61.6270 C   0  0  0  0  0  0  0  0  0  0  0  0
  130.0890  125.9920   63.0100 C   0  0  0  0  0  0  0  0  0  0  0  0
  131.1420  125.1220   63.0170 N   0  0  0  0  0  0  0  0  0  0  0  0
  131.6480  124.7170   64.2150 C   0  0  0  0  0  0  0  0  0  0  0  0
  132.7030  123.8530   64.3510 O   0  0  0  0  0  0  0  0  0  0  0  0
  131.0630  125.2100   65.3970 C   0  0  0  0  0  0  0  0  0  0  0  0
  131.3180  125.0200   66.7230 N   0  0  0  0  0  0  0  0  0  0  0  0
  130.3980  125.7700   67.4310 N   0  0  0  0  0  0  0  0  0  0  0  0
  129.5980  126.4160   66.5560 N   0  0  0  0  0  0  0  0  0  0  0  0
  128.5120  127.2680   67.0350 C   0  0  0  0  0  0  0  0  0  0  0  0
  128.3640  127.2780   68.5500 C   0  0  0  0  0  0  0  0  0  0  0  0
  127.1660  126.8670   69.1430 C   0  0  0  0  0  0  0  0  0  0  0  0
  127.0350  126.8660   70.5330 C   0  0  0  0  0  0  0  0  0  0  0  0
  128.1010  127.2700   71.3360 C   0  0  0  0  0  0  0  0  0  0  0  0
  129.3020  127.6720   70.7510 C   0  0  0  0  0  0  0  0  0  0  0  0
  130.6320  128.1470   71.7440 Cl  0  0  0  0  0  0  0  0  0  0  0  0
  129.4320  127.6810   69.3620 C   0  0  0  0  0  0  0  0  0  0  0  0
  129.9720  126.0950   65.2620 C   0  0  0  0  0  0  0  0  0  0  0  0
  129.4510  126.5020   64.1010 N   0  0  0  0  0  0  0  0  0  0  0  0
  130.5600  126.0900   60.4640 C   0  0  0  0  0  0  0  0  0  0  0  0
  130.0970  126.6380   59.0910 C   0  0  0  0  0  0  0  0  0  0  0  0
  1  2  2  0
  2  3  1  0
  3  4  1  0
  4  5  2  0
  5  6  1  0
  6  7  2  0
  7  8  1  0
  8  9  2  0
  3 10  1  0
 10 11  2  0
 11 12  1  0
 12 13  2  0
 13 14  1  0
 14 15  2  0
  2 16  1  0
 16 17  1  0
 17 18  1  0
 18 19  1  0
 19 20  1  0
 20 21  2  0
 21 22  1  0
 22 23  1  0
 22 24  2  0
 24 25  1  0
 25 26  2  0
 26 27  1  0
 27 28  1  0
 28 29  1  0
 29 30  2  0
 30 31  1  0
 31 32  2  0
 32 33  1  0
 33 34  1  0
 33 35  2  0
 27 36  1  0
 36 37  2  0
 19 38  1  0
 38 39  1  0
  9  4  1  0
 15 10  1  0
 39 16  1  0
 37 20  1  0
 36 24  1  0
 35 29  1  0
M  END
>  <Binding energies>  (78) 
[-10.08]

>  <Ligand effiencies>  (78) 
[-0.252]

>  <Interactions>  (78) 
["V-A:LEU:363:CD1:3189, V-A:ASP:366:CG:3213, H-A:TYR:531:OH:4795, V-A:PRO:540:CA:4883, V-A:PRO:540:CB:4885, V-A:MET:535:CE:4835, V-B:GLU:543:CG:9879, V-B:GLU:543:CB:9878, H-A:TYR:484:OH:4348, V-A:GLU:543:CD:4908, V-B:GLU:543:CD:9880, V-B:HIS:456:CE1:9041, V-A:GLY:544:C:4912, V-B:GLY:544:C:9884, V-B:GLU:543:C:9874, V-B:HIS:456:CD2:9039, V-A:HIS:456:CE1:4070, V-A:GLU:543:CG:4907, V-A:GLU:543:C:4902, V-A:GLU:543:CB:4906, V-B:GLY:544:CA:9886, V-A:ALA:541:C:4888, V-B:GLU:543:CA:9876, H-A:GLY:454:N:4050, V-A:TYR:539:CD1:4873, V-A:ILE:538:CA:4860, V-A:ILE:538:C:4858, V-A:ILE:538:CG2:4863, V-A:ILE:538:CB:4862, V-A:LEU:363:CA:3185, V-A:ASN:362:CB:3176, V-A:LEU:363:CB:3187, V-A:ASN:362:C:3172, V-A:ASN:362:CG:3177"]

$$$$
RR28_Rahimova_2017
     RDKit          3D

 46 49  0  0  0  0  0  0  0  0999 V2000
  133.6870  124.5230   63.1420 C   0  0  0  0  0  0  0  0  0  0  0  0
  132.2560  125.0460   63.1280 C   0  0  0  0  0  0  0  0  0  0  0  0
  131.9570  125.9780   62.3830 O   0  0  0  0  0  0  0  0  0  0  0  0
  131.3870  124.4330   63.9570 N   0  0  0  0  0  0  0  0  0  0  0  0
  129.9510  124.7290   64.1600 C   0  0  0  0  0  0  0  0  0  0  0  0
  129.8030  125.5410   65.4790 C   0  0  0  0  0  0  0  0  0  0  0  0
  130.3400  125.0250   66.6680 C   0  0  0  0  0  0  0  0  0  0  0  0
  130.2220  125.7220   67.8670 C   0  0  0  0  0  0  0  0  0  0  0  0
  129.5640  126.9520   67.9040 C   0  0  0  0  0  0  0  0  0  0  0  0
  129.4410  127.7010   69.2310 C   0  0  0  0  0  0  0  0  0  0  0  0
  128.5610  127.1290   70.0560 F   0  0  0  0  0  0  0  0  0  0  0  0
  130.6210  127.7410   69.8500 F   0  0  0  0  0  0  0  0  0  0  0  0
  129.0380  128.9500   68.9930 F   0  0  0  0  0  0  0  0  0  0  0  0
  129.0230  127.4760   66.7270 C   0  0  0  0  0  0  0  0  0  0  0  0
  129.1410  126.7780   65.5280 C   0  0  0  0  0  0  0  0  0  0  0  0
  129.1070  123.4040   64.1360 C   0  0  0  0  0  0  0  0  0  0  0  0
  129.1100  122.7000   62.7550 C   0  0  0  0  0  0  0  0  0  0  0  0
  128.5650  123.6700   61.7920 N   0  0  0  0  0  0  0  0  0  0  0  0
  127.2370  123.6690   61.4920 C   0  0  0  0  0  0  0  0  0  0  0  0
  126.4820  122.7710   61.8710 O   0  0  0  0  0  0  0  0  0  0  0  0
  126.6910  124.7340   60.5110 C   0  0  0  0  0  0  0  0  0  0  0  0
  126.1650  124.1990   59.1510 C   0  0  0  0  0  0  0  0  0  0  0  0
  127.1420  124.3550   57.9620 C   0  0  0  0  0  0  0  0  0  0  0  0
  127.3720  123.3600   57.2690 O   0  0  0  0  0  0  0  0  0  0  0  0
  127.6080  125.5910   57.6280 N   0  0  0  0  0  0  0  0  0  0  0  0
  127.6340  126.7240   58.5620 C   0  0  0  0  0  0  0  0  0  0  0  0
  128.9450  126.6010   59.3680 C   0  0  0  0  0  0  0  0  0  0  0  0
  130.2490  126.5570   58.4970 C   0  0  0  0  0  0  0  0  0  0  0  0
  131.3650  126.0450   59.3200 N   0  0  0  0  0  0  0  0  0  0  0  0
  132.4840  125.4170   58.9060 C   0  0  0  0  0  0  0  0  0  0  0  0
  133.4580  124.9830   59.9970 C   0  0  0  0  0  0  0  0  0  0  0  0
  132.7470  125.1830   57.7270 O   0  0  0  0  0  0  0  0  0  0  0  0
  130.5950  128.0280   58.0970 C   0  0  0  0  0  0  0  0  0  0  0  0
  131.7830  128.6660   58.4920 C   0  0  0  0  0  0  0  0  0  0  0  0
  132.0540  129.9780   58.1130 C   0  0  0  0  0  0  0  0  0  0  0  0
  131.1400  130.6890   57.3310 C   0  0  0  0  0  0  0  0  0  0  0  0
  131.4250  132.1280   56.9040 C   0  0  0  0  0  0  0  0  0  0  0  0
  132.4930  132.6070   57.5450 F   0  0  0  0  0  0  0  0  0  0  0  0
  131.6660  132.1560   55.5940 F   0  0  0  0  0  0  0  0  0  0  0  0
  130.3960  132.9400   57.1570 F   0  0  0  0  0  0  0  0  0  0  0  0
  129.9520  130.0730   56.9380 C   0  0  0  0  0  0  0  0  0  0  0  0
  129.6850  128.7610   57.3180 C   0  0  0  0  0  0  0  0  0  0  0  0
  130.0050  125.6170   57.2540 C   0  0  0  0  0  0  0  0  0  0  0  0
  128.6160  125.7370   56.5700 C   0  0  0  0  0  0  0  0  0  0  0  0
  129.4170  124.8540   61.6120 C   0  0  0  0  0  0  0  0  0  0  0  0
  129.4440  125.6050   62.9680 C   0  0  0  0  0  0  0  0  0  0  0  0
  1  2  1  0
  2  3  2  0
  2  4  1  0
  4  5  1  0
  5  6  1  0
  6  7  2  0
  7  8  1  0
  8  9  2  0
  9 10  1  0
 10 11  1  0
 10 12  1  0
 10 13  1  0
  9 14  1  0
 14 15  2  0
  5 16  1  0
 16 17  1  0
 17 18  1  0
 18 19  1  0
 19 20  2  0
 19 21  1  0
 21 22  1  0
 22 23  1  0
 23 24  2  0
 23 25  1  0
 25 26  1  0
 26 27  1  0
 27 28  1  0
 28 29  1  0
 29 30  1  0
 30 31  1  0
 30 32  2  0
 28 33  1  0
 33 34  2  0
 34 35  1  0
 35 36  2  0
 36 37  1  0
 37 38  1  0
 37 39  1  0
 37 40  1  0
 36 41  1  0
 41 42  2  0
 28 43  1  0
 43 44  1  0
 18 45  1  0
 45 46  1  0
 46  5  1  0
 15  6  1  0
 44 25  1  0
 42 33  1  0
M  END
>  <Binding energies>  (79) 
[-9.03]

>  <Ligand effiencies>  (79) 
[-0.188125]

>  <Interactions>  (79) 
["V-A:LEU:363:CD1:3189, V-A:ASP:366:CG:3213, V-A:PRO:540:CA:4883, H-B:TYR:539:OH:9850, V-A:PRO:540:CB:4885, V-A:PRO:540:CD:4887, V-A:PRO:540:CG:4886, V-A:PRO:540:N:4884, V-A:TYR:539:C:4867, V-A:ASP:366:CB:3212, V-B:TYR:539:CZ:9849, V-B:PRO:540:CB:9857, V-B:PRO:540:CA:9855, V-B:TYR:539:CE2:9848, H-B:ALA:541:N:9863, V-A:MET:535:CE:4835, V-B:ALA:541:CB:9864, V-A:ASP:366:CA:3210, V-B:GLU:543:CG:9879, V-A:TYR:484:CZ:4347, V-B:GLU:543:CB:9878, H-A:TYR:484:OH:4348, V-A:GLU:543:CD:4908, V-A:TYR:484:CE2:4346, V-A:ARG:545:CZ:4926, V-B:GLU:543:CD:9880, V-B:HIS:456:CE1:9041, V-A:HIS:456:CE1:4070, V-A:GLU:543:CG:4907, V-A:GLU:543:C:4902, V-A:GLU:543:CB:4906, V-A:GLU:543:CA:4904, H-A:ARG:545:NH2:4928, V-A:ILE:538:CG2:4863, V-A:ILE:538:CB:4862"]

$$$$
RR29_Rahimova_2017
     RDKit          3D

 18 19  0  0  0  0  0  0  0  0999 V2000
  127.9450  133.5000   63.0850 C   0  0  0  0  0  0  0  0  0  0  0  0
  128.5680  132.1690   63.4790 C   0  0  0  0  0  0  0  0  0  0  0  0
  129.9920  131.9770   62.9110 C   0  0  0  0  0  0  0  0  0  0  0  0
  130.0090  130.9710   61.7420 C   0  0  0  0  0  0  0  0  0  0  0  0
  130.0180  131.6620   60.3870 C   0  0  0  0  0  0  0  0  0  0  0  0
  128.8990  132.4120   59.9720 C   0  0  0  0  0  0  0  0  0  0  0  0
  128.8870  133.0570   58.7270 C   0  0  0  0  0  0  0  0  0  0  0  0
  130.0100  132.9180   57.9200 C   0  0  0  0  0  0  0  0  0  0  0  0
  131.0970  132.1900   58.3160 C   0  0  0  0  0  0  0  0  0  0  0  0
  131.1410  131.5480   59.5490 C   0  0  0  0  0  0  0  0  0  0  0  0
  132.0540  132.2520   57.3540 O   0  0  0  0  0  0  0  0  0  0  0  0
  131.4440  132.8670   56.2510 C   0  0  0  0  0  0  0  0  0  0  0  0
  130.2530  133.4600   56.6970 O   0  0  0  0  0  0  0  0  0  0  0  0
  127.8840  131.3620   64.2040 N   0  0  0  0  0  0  0  0  0  0  0  0
  128.4120  130.1220   64.4910 N   0  0  0  0  0  0  0  0  0  0  0  0
  127.7740  129.1820   65.2070 C   0  0  0  0  0  0  0  0  0  0  0  0
  126.5490  129.3120   65.7170 N   0  0  0  0  0  0  0  0  0  0  0  0
  128.4070  128.0380   65.4250 N   0  0  0  0  0  0  0  0  0  0  0  0
  1  2  1  0
  2  3  1  0
  3  4  1  0
  4  5  1  0
  5  6  2  0
  6  7  1  0
  7  8  2  0
  8  9  1  0
  9 10  2  0
  9 11  1  0
 11 12  1  0
 12 13  1  0
  2 14  2  0
 14 15  1  0
 15 16  1  0
 16 17  1  0
 16 18  2  0
 10  5  1  0
 13  8  1  0
M  CHG  1  18   1
M  END
>  <Binding energies>  (80) 
[-7.32]

>  <Ligand effiencies>  (80) 
[-0.31826086956521743]

>  <Interactions>  (80) 
["V-A:LEU:363:CD1:3189, V-A:PRO:540:CA:4883, V-A:PRO:540:CB:4885, V-A:PRO:540:N:4884, V-A:TYR:539:C:4867, H-A:TYR:539:N:4870, H-B:GLU:543:OE1:9881, V-A:GLU:543:CD:4908, V-B:GLU:543:CD:9880, V-A:GLU:543:CG:4907, H-A:GLU:543:OE1:4909, H-A:GLU:543:OE2:4910, V-B:TYR:484:CZ:9318, H-B:GLU:543:OE2:9882, H-B:TYR:484:OH:9319, V-A:ALA:541:CB:4892, V-A:TYR:539:CE1:4875, V-A:TYR:539:CD1:4873, V-A:ILE:538:CA:4860, V-A:ILE:538:CG2:4863, V-A:ILE:538:CB:4862, V-B:LEU:475:CD2:9230"]

$$$$
RR30_Rahimova_2017
     RDKit          3D

 18 19  0  0  0  0  0  0  0  0999 V2000
  123.8040  129.5760   76.4720 C   0  0  0  0  0  0  0  0  0  0  0  0
  124.2520  128.4150   75.5720 C   0  0  0  0  0  0  0  0  0  0  0  0
  125.7580  128.3370   75.4450 C   0  0  0  0  0  0  0  0  0  0  0  0
  126.6170  127.8300   76.2940 N   0  0  0  0  0  0  0  0  0  0  0  0
  127.8730  128.0110   75.7190 N   0  0  0  0  0  0  0  0  0  0  0  0
  127.6650  128.6190   74.5790 C   0  0  0  0  0  0  0  0  0  0  0  0
  128.8690  129.1070   73.3860 S   0  0  0  0  0  0  0  0  0  0  0  0
  129.1830  127.5030   72.5840 C   0  0  0  0  0  0  0  0  0  0  0  0
  130.1790  126.6480   73.3710 C   0  0  0  0  0  0  0  0  0  0  0  0
  129.8540  125.5110   73.7190 O   0  0  0  0  0  0  0  0  0  0  0  0
  131.3610  127.2350   73.6630 N   0  0  0  0  0  0  0  0  0  0  0  0
  132.4140  126.6660   74.3640 C   0  0  0  0  0  0  0  0  0  0  0  0
  133.5940  127.1830   74.6220 N   0  0  0  0  0  0  0  0  0  0  0  0
  134.4000  126.3190   75.3530 N   0  0  0  0  0  0  0  0  0  0  0  0
  133.8200  125.1750   75.6310 C   0  0  0  0  0  0  0  0  0  0  0  0
  134.4960  124.0720   76.4130 C   0  0  0  0  0  0  0  0  0  0  0  0
  132.1970  125.0670   75.0050 S   0  0  0  0  0  0  0  0  0  0  0  0
  126.3500  128.8520   74.3390 O   0  0  0  0  0  0  0  0  0  0  0  0
  1  2  1  0
  2  3  1  0
  3  4  2  0
  4  5  1  0
  5  6  2  0
  6  7  1  0
  7  8  1  0
  8  9  1  0
  9 10  2  0
  9 11  1  0
 11 12  1  0
 12 13  2  0
 13 14  1  0
 14 15  2  0
 15 16  1  0
 15 17  1  0
  6 18  1  0
 18  3  1  0
 17 12  1  0
M  END
>  <Binding energies>  (81) 
[-6.54]

>  <Ligand effiencies>  (81) 
[-0.34421052631578947]

>  <Interactions>  (81) 
["V-A:GLY:544:C:4912, H-A:LYS:547:NZ:4951, V-B:HIS:456:CD2:9039, V-B:LYS:547:CE:9922, H-B:LYS:547:NZ:9923, V-A:HIS:456:CD2:4068, V-B:LYS:547:CD:9921, V-B:HIS:456:CB:9036, V-A:HIS:456:CB:4065, H-A:GLY:544:O:4913, V-A:HIS:456:CG:4066, V-B:LYS:471:CD:9190, V-B:VAL:457:CA:9046, V-B:HIS:456:C:9032, V-B:VAL:458:CG2:9058, V-B:VAL:457:C:9044, V-A:HIS:456:C:4061, V-A:VAL:458:CG2:4087, V-A:LYS:471:CD:4219, H-A:VAL:457:N:4076"]

$$$$
RR31_Rahimova_2017
     RDKit          3D

 18 19  0  0  0  0  0  0  0  0999 V2000
  133.1430  126.2920   77.4930 C   0  0  0  0  0  0  0  0  0  0  0  0
  132.3990  126.5130   76.1830 C   0  0  0  0  0  0  0  0  0  0  0  0
  131.0070  126.6150   76.2000 C   0  0  0  0  0  0  0  0  0  0  0  0
  130.2980  126.8210   75.0180 C   0  0  0  0  0  0  0  0  0  0  0  0
  130.9590  126.9380   73.7850 C   0  0  0  0  0  0  0  0  0  0  0  0
  130.2610  127.1340   72.5910 N   0  0  0  0  0  0  0  0  0  0  0  0
  130.9290  127.6070   71.3630 C   0  0  0  0  0  0  0  0  0  0  0  0
  129.9600  128.1520   70.2880 C   0  0  0  0  0  0  0  0  0  0  0  0
  128.9480  127.1510   69.9400 N   0  0  0  0  0  0  0  0  0  0  0  0
  128.0350  127.6260   68.8960 C   0  0  0  0  0  0  0  0  0  0  0  0
  128.6980  127.7040   67.5060 C   0  0  0  0  0  0  0  0  0  0  0  0
  128.1690  128.8820   66.6730 C   0  0  0  0  0  0  0  0  0  0  0  0
  126.6530  128.7520   66.4850 N   0  0  0  0  0  0  0  0  0  0  0  0
  128.1930  126.8520   71.1560 C   0  0  0  0  0  0  0  0  0  0  0  0
  129.1170  126.2660   72.2470 C   0  0  0  0  0  0  0  0  0  0  0  0
  132.3570  126.8240   73.7820 C   0  0  0  0  0  0  0  0  0  0  0  0
  133.0820  126.6160   74.9610 C   0  0  0  0  0  0  0  0  0  0  0  0
  134.5990  126.4980   74.8900 C   0  0  0  0  0  0  0  0  0  0  0  0
  1  2  1  0
  2  3  2  0
  3  4  1  0
  4  5  2  0
  5  6  1  0
  6  7  1  0
  7  8  1  0
  8  9  1  0
  9 10  1  0
 10 11  1  0
 11 12  1  0
 12 13  1  0
  9 14  1  0
 14 15  1  0
  5 16  1  0
 16 17  2  0
 17 18  1  0
 17  2  1  0
 15  6  1  0
M  CHG  1  13   1
M  END
>  <Binding energies>  (82) 
[-6.26]

>  <Ligand effiencies>  (82) 
[-0.2980952380952381]

>  <Interactions>  (82) 
["H-B:GLU:543:OE1:9881, V-B:GLU:543:CB:9878, V-A:GLU:543:CD:4908, V-B:GLU:543:CD:9880, V-B:HIS:456:CE1:9041, V-A:GLY:544:C:4912, V-B:GLU:543:C:9874, V-A:HIS:456:CE1:4070, V-A:GLU:543:CG:4907, V-A:GLU:543:C:4902, V-A:GLU:543:CB:4906, H-B:GLU:543:OE2:9882, H-B:TYR:484:OH:9319, V-A:HIS:456:CD2:4068, V-A:HIS:456:CB:4065, V-A:ARG:545:C:4917, V-A:HIS:456:CG:4066, V-A:HIS:456:CA:4063, V-A:LYS:547:CG:4948, V-A:HIS:456:C:4061, V-A:VAL:458:CG2:4087, V-A:VAL:457:C:4073"]

$$$$
RR32_Rahimova_2017
     RDKit          3D

 18 20  0  0  0  0  0  0  0  0999 V2000
  124.6210  123.4810   62.1480 C   0  0  0  0  0  0  0  0  0  0  0  0
  125.6910  123.5000   61.0620 C   0  0  0  0  0  0  0  0  0  0  0  0
  126.9960  123.1530   61.4140 C   0  0  0  0  0  0  0  0  0  0  0  0
  127.9980  123.1560   60.4480 C   0  0  0  0  0  0  0  0  0  0  0  0
  129.2910  122.8110   60.8020 N   0  0  0  0  0  0  0  0  0  0  0  0
  129.6450  121.3810   60.7580 C   0  0  0  0  0  0  0  0  0  0  0  0
  131.0460  121.0800   61.3410 C   0  0  0  0  0  0  0  0  0  0  0  0
  132.0670  121.8360   60.6180 N   0  0  0  0  0  0  0  0  0  0  0  0
  133.3910  121.5280   61.1470 C   0  0  0  0  0  0  0  0  0  0  0  0
  131.7750  123.2590   60.7800 C   0  0  0  0  0  0  0  0  0  0  0  0
  130.3840  123.5920   60.1920 C   0  0  0  0  0  0  0  0  0  0  0  0
  127.7650  123.4890   59.1520 N   0  0  0  0  0  0  0  0  0  0  0  0
  126.5030  123.8350   58.7780 C   0  0  0  0  0  0  0  0  0  0  0  0
  126.2890  124.1800   57.4210 C   0  0  0  0  0  0  0  0  0  0  0  0
  125.0210  124.5420   56.9820 C   0  0  0  0  0  0  0  0  0  0  0  0
  123.9490  124.5680   57.8670 C   0  0  0  0  0  0  0  0  0  0  0  0
  124.1250  124.2350   59.2070 C   0  0  0  0  0  0  0  0  0  0  0  0
  125.4080  123.8590   59.7020 C   0  0  0  0  0  0  0  0  0  0  0  0
  1  2  1  0
  2  3  2  0
  3  4  1  0
  4  5  1  0
  5  6  1  0
  6  7  1  0
  7  8  1  0
  8  9  1  0
  8 10  1  0
 10 11  1  0
  4 12  2  0
 12 13  1  0
 13 14  2  0
 14 15  1  0
 15 16  2  0
 16 17  1  0
 17 18  2  0
 18  2  1  0
 11  5  1  0
 18 13  1  0
M  END
>  <Binding energies>  (83) 
[-5.83]

>  <Ligand effiencies>  (83) 
[-0.3238888888888889]

>  <Interactions>  (83) 
["V-B:PRO:540:CB:9857, V-B:PRO:540:CA:9855, V-B:TYR:539:CE2:9848, V-B:ASP:366:CB:8183, V-B:ASP:366:CG:8184, V-B:MET:535:CE:9807, V-B:LEU:363:CD1:8160, V-B:TYR:539:C:9839, V-B:TYR:531:CZ:9766, V-B:PRO:540:C:9853, V-B:TYR:539:CD2:9846, V-B:LEU:363:CA:8156, V-B:TYR:531:CE2:9765, V-A:ILE:369:CG2:3237, V-A:LEU:475:CD2:4259, V-B:GLU:543:CD:9880, V-B:ASN:362:CB:8147, V-B:LEU:363:CB:8158"]

$$$$
RR5_Rahimova_2017
     RDKit          3D

 45 50  0  0  0  0  0  0  0  0999 V2000
  126.9470  127.2140   59.0520 O   0  0  0  0  0  0  0  0  0  0  0  0
  126.9570  126.7550   60.1930 C   0  0  0  0  0  0  0  0  0  0  0  0
  126.3520  127.5730   61.3500 C   0  0  0  0  0  0  0  0  0  0  0  0
  127.3900  128.4800   62.1020 C   0  0  2  0  0  0  0  0  0  0  0  0
  127.6070  129.8110   61.5000 N   0  0  0  0  0  0  0  0  0  0  0  0
  126.5610  130.5380   60.9470 C   0  0  0  0  0  0  0  0  0  0  0  0
  125.3710  130.2160   60.9260 O   0  0  0  0  0  0  0  0  0  0  0  0
  127.0640  131.6660   60.4150 O   0  0  0  0  0  0  0  0  0  0  0  0
  127.6670  131.6730   59.1240 C   0  0  0  0  0  0  0  0  0  0  0  0
  128.9320  132.5600   59.1140 C   0  0  0  0  0  0  0  0  0  0  0  0
  129.9470  132.1850   60.1790 C   0  0  0  0  0  0  0  0  0  0  0  0
  129.7980  132.1240   61.5680 C   0  0  0  0  0  0  0  0  0  0  0  0
  130.8730  131.7270   62.3650 C   0  0  0  0  0  0  0  0  0  0  0  0
  132.0950  131.3940   61.7800 C   0  0  0  0  0  0  0  0  0  0  0  0
  132.2480  131.4580   60.3930 C   0  0  0  0  0  0  0  0  0  0  0  0
  131.1710  131.8550   59.5980 C   0  0  0  0  0  0  0  0  0  0  0  0
  131.0530  132.0170   58.1400 C   0  0  0  0  0  0  0  0  0  0  0  0
  131.9840  131.8300   57.1160 C   0  0  0  0  0  0  0  0  0  0  0  0
  131.6150  132.0790   55.7930 C   0  0  0  0  0  0  0  0  0  0  0  0
  130.3200  132.5110   55.4960 C   0  0  0  0  0  0  0  0  0  0  0  0
  129.3930  132.6930   56.5220 C   0  0  0  0  0  0  0  0  0  0  0  0
  129.7570  132.4420   57.8470 C   0  0  0  0  0  0  0  0  0  0  0  0
  128.7480  127.7500   62.2560 C   0  0  0  0  0  0  0  0  0  0  0  0
  128.8780  126.6060   62.6420 O   0  0  0  0  0  0  0  0  0  0  0  0
  129.7610  128.5810   61.8730 O   0  0  0  0  0  0  0  0  0  0  0  0
  127.4410  125.5390   60.5320 N   0  0  0  0  0  0  0  0  0  0  0  0
  128.0930  124.4410   59.7570 C   0  0  0  0  0  0  0  0  0  0  0  0
  129.2560  125.1980   59.0330 C   0  0  0  0  0  0  0  0  0  0  0  0
  129.1650  125.5580   57.6780 C   0  0  0  0  0  0  0  0  0  0  0  0
  130.2050  126.2330   57.0440 C   0  0  0  0  0  0  0  0  0  0  0  0
  131.3590  126.5500   57.7520 C   0  0  0  0  0  0  0  0  0  0  0  0
  131.4760  126.2080   59.0940 C   0  0  0  0  0  0  0  0  0  0  0  0
  130.4320  125.5430   59.7290 C   0  0  0  0  0  0  0  0  0  0  0  0
  128.6140  123.3860   60.7910 C   0  0  0  0  0  0  0  0  0  0  0  0
  129.2280  122.1920   60.3810 C   0  0  0  0  0  0  0  0  0  0  0  0
  129.6670  121.2590   61.3180 C   0  0  0  0  0  0  0  0  0  0  0  0
  129.4940  121.5070   62.6750 C   0  0  0  0  0  0  0  0  0  0  0  0
  128.8910  122.6840   63.1060 C   0  0  0  0  0  0  0  0  0  0  0  0
  128.4620  123.6190   62.1690 C   0  0  0  0  0  0  0  0  0  0  0  0
  127.0070  123.9020   58.7660 C   0  0  0  0  0  0  0  0  0  0  0  0
  127.3370  122.9670   57.7690 C   0  0  0  0  0  0  0  0  0  0  0  0
  126.3780  122.4910   56.8790 C   0  0  0  0  0  0  0  0  0  0  0  0
  125.0650  122.9380   56.9760 C   0  0  0  0  0  0  0  0  0  0  0  0
  124.7050  123.8510   57.9600 C   0  0  0  0  0  0  0  0  0  0  0  0
  125.6680  124.3250   58.8470 C   0  0  0  0  0  0  0  0  0  0  0  0
  1  2  2  0
  2  3  1  0
  4  3  1  6
  4  5  1  0
  5  6  1  0
  6  7  2  0
  6  8  1  0
  8  9  1  0
  9 10  1  0
 10 11  1  0
 11 12  2  0
 12 13  1  0
 13 14  2  0
 14 15  1  0
 15 16  2  0
 16 17  1  0
 17 18  2  0
 18 19  1  0
 19 20  2  0
 20 21  1  0
 21 22  2  0
  4 23  1  0
 23 24  2  0
 23 25  1  0
  2 26  1  0
 26 27  1  0
 27 28  1  0
 28 29  2  0
 29 30  1  0
 30 31  2  0
 31 32  1  0
 32 33  2  0
 27 34  1  0
 34 35  2  0
 35 36  1  0
 36 37  2  0
 37 38  1  0
 38 39  2  0
 27 40  1  0
 40 41  2  0
 41 42  1  0
 42 43  2  0
 43 44  1  0
 44 45  2  0
 22 10  1  0
 33 28  1  0
 39 34  1  0
 45 40  1  0
 16 11  1  0
 22 17  1  0
M  END
>  <Binding energies>  (84) 
[-10.06]

>  <Ligand effiencies>  (84) 
[-0.20958333333333334]

>  <Interactions>  (84) 
["V-A:LEU:363:CD1:3189, V-A:ASP:366:CG:3213, V-A:PRO:540:CA:4883, V-A:PRO:540:CB:4885, V-A:PRO:540:N:4884, V-A:TYR:539:C:4867, V-A:ASP:366:CB:3212, V-B:PRO:540:N:9856, V-B:PRO:540:CB:9857, V-B:PRO:540:CA:9855, V-B:TYR:539:CE2:9848, V-B:PRO:540:CD:9859, V-B:ASP:366:CG:8184, V-B:MET:535:CE:9807, V-B:LEU:363:CD1:8160, V-B:PRO:540:CG:9858, V-B:TYR:539:C:9839, H-B:GLU:543:OE1:9881, V-B:TYR:539:CD2:9846, V-A:MET:535:CE:4835, V-B:ALA:541:CB:9864, V-B:GLU:543:CG:9879, V-A:LEU:475:CD2:4259, V-A:GLU:543:CD:4908, V-A:GLU:543:CG:4907, V-A:TYR:531:CZ:4794, H-A:GLU:543:OE1:4909, H-A:GLU:543:OE2:4910, V-A:TYR:539:CE1:4875, V-B:ALA:541:CA:9862, V-A:TYR:539:CD1:4873, V-A:ILE:538:CA:4860, V-A:ILE:538:CG2:4863, V-A:ILE:538:CB:4862"]

$$$$
1a_Grossjean_2025
     RDKit          3D

 26 27  0  0  0  0  0  0  0  0999 V2000
  133.8040  124.1390   62.7290 C   0  0  0  0  0  0  0  0  0  0  0  0
  134.3650  122.9980   61.8760 C   0  0  0  0  0  0  0  0  0  0  0  0
  133.5670  121.8350   62.0570 O   0  0  0  0  0  0  0  0  0  0  0  0
  132.8720  121.2940   61.0220 C   0  0  0  0  0  0  0  0  0  0  0  0
  133.3510  120.4670   60.2400 O   0  0  0  0  0  0  0  0  0  0  0  0
  131.4680  121.8150   60.9140 C   0  0  0  0  0  0  0  0  0  0  0  0
  131.2610  123.1510   60.5460 C   0  0  0  0  0  0  0  0  0  0  0  0
  129.9720  123.6650   60.4410 C   0  0  0  0  0  0  0  0  0  0  0  0
  128.8650  122.8580   60.7030 C   0  0  0  0  0  0  0  0  0  0  0  0
  127.6090  123.4820   60.5700 N   0  0  0  0  0  0  0  0  0  0  0  0
  126.5180  123.4150   61.3620 C   0  0  0  0  0  0  0  0  0  0  0  0
  126.4260  122.7590   62.4000 O   0  0  0  0  0  0  0  0  0  0  0  0
  125.3160  124.2380   60.8920 C   0  0  0  0  0  0  0  0  0  0  0  0
  124.9860  124.0190   59.1180 S   0  0  0  0  0  0  0  0  0  0  0  0
  126.3560  124.7250   58.2290 C   0  0  0  0  0  0  0  0  0  0  0  0
  126.8070  125.8910   58.7560 N   0  0  0  0  0  0  0  0  0  0  0  0
  127.8460  126.5180   58.1540 C   0  0  0  0  0  0  0  0  0  0  0  0
  128.2870  127.8230   58.7900 C   0  0  0  0  0  0  0  0  0  0  0  0
  128.4770  126.0090   57.0210 C   0  0  0  0  0  0  0  0  0  0  0  0
  128.0330  124.7970   56.4830 C   0  0  0  0  0  0  0  0  0  0  0  0
  128.7500  124.2500   55.2500 C   0  0  0  0  0  0  0  0  0  0  0  0
  126.9520  124.1220   57.0960 C   0  0  0  0  0  0  0  0  0  0  0  0
  126.5020  122.8270   56.5790 C   0  0  0  0  0  0  0  0  0  0  0  0
  126.1480  121.8050   56.1690 N   0  0  0  0  0  0  0  0  0  0  0  0
  129.0620  121.5160   61.0650 C   0  0  0  0  0  0  0  0  0  0  0  0
  130.3520  121.0040   61.1690 C   0  0  0  0  0  0  0  0  0  0  0  0
  1  2  1  0
  2  3  1  0
  3  4  1  0
  4  5  2  0
  4  6  1  0
  6  7  2  0
  7  8  1  0
  8  9  2  0
  9 10  1  0
 10 11  1  0
 11 12  2  0
 11 13  1  0
 13 14  1  0
 14 15  1  0
 15 16  2  0
 16 17  1  0
 17 18  1  0
 17 19  2  0
 19 20  1  0
 20 21  1  0
 20 22  2  0
 22 23  1  0
 23 24  3  0
  9 25  1  0
 25 26  2  0
 26  6  1  0
 22 15  1  0
M  END
>  <Binding energies>  (85) 
[-7.22]

>  <Ligand effiencies>  (85) 
[-0.26740740740740737]

>  <Interactions>  (85) 
["V-B:TYR:539:CZ:9849, V-B:PRO:540:N:9856, V-B:TYR:539:CE1:9847, V-B:PRO:540:CB:9857, V-B:TYR:539:CD1:9845, V-B:PRO:540:CA:9855, V-B:TYR:539:CE2:9848, H-B:TYR:539:N:9842, V-B:MET:535:CE:9807, V-B:TYR:539:C:9839, V-B:PRO:540:C:9853, H-B:ALA:541:N:9863, V-B:TYR:539:CD2:9846, V-B:ALA:541:CB:9864, V-A:ILE:369:CD1:3239, V-A:ILE:369:CG2:3237, V-A:LEU:475:CD2:4259, V-A:GLY:454:CA:4049, H-A:SER:385:OG:3410"]

$$$$
1aa_Ghoteimi_2023
     RDKit          3D

 40 43  0  0  0  0  0  0  0  0999 V2000
  127.8740  132.3440   56.4330 C   0  0  0  0  0  0  0  0  0  0  0  0
  129.1590  133.0140   55.9380 C   0  0  0  0  0  0  0  0  0  0  0  0
  129.8690  133.5520   57.0470 O   0  0  0  0  0  0  0  0  0  0  0  0
  130.8960  132.8730   57.6180 C   0  0  0  0  0  0  0  0  0  0  0  0
  131.9870  132.6990   57.0660 O   0  0  0  0  0  0  0  0  0  0  0  0
  130.5750  132.3540   58.9900 C   0  0  0  0  0  0  0  0  0  0  0  0
  131.3360  131.3440   59.5980 C   0  0  0  0  0  0  0  0  0  0  0  0
  131.0140  130.8810   60.8720 C   0  0  0  0  0  0  0  0  0  0  0  0
  129.9220  131.4260   61.5640 C   0  0  0  0  0  0  0  0  0  0  0  0
  129.5040  131.0390   62.8500 N   0  0  0  0  0  0  0  0  0  0  0  0
  128.2630  130.8070   63.3360 C   0  0  0  0  0  0  0  0  0  0  0  0
  127.2240  130.8970   62.6820 O   0  0  0  0  0  0  0  0  0  0  0  0
  128.1500  130.3980   64.8130 C   0  0  0  0  0  0  0  0  0  0  0  0
  127.6390  129.0630   64.9260 O   0  0  0  0  0  0  0  0  0  0  0  0
  128.3640  128.0900   65.6000 C   0  0  0  0  0  0  0  0  0  0  0  0
  128.2960  128.0670   66.9600 N   0  0  0  0  0  0  0  0  0  0  0  0
  129.0020  127.1380   67.6570 C   0  0  0  0  0  0  0  0  0  0  0  0
  128.8720  127.1790   69.1520 C   0  0  0  0  0  0  0  0  0  0  0  0
  127.6620  126.8520   69.7810 C   0  0  0  0  0  0  0  0  0  0  0  0
  127.5390  126.8910   71.1670 C   0  0  0  0  0  0  0  0  0  0  0  0
  128.6190  127.2560   71.9670 C   0  0  0  0  0  0  0  0  0  0  0  0
  128.4040  127.2670   73.3320 O   0  0  0  0  0  0  0  0  0  0  0  0
  127.5450  128.2560   73.8910 C   0  0  0  0  0  0  0  0  0  0  0  0
  129.8370  127.5810   71.3540 C   0  0  0  0  0  0  0  0  0  0  0  0
  129.9580  127.5400   69.9680 C   0  0  0  0  0  0  0  0  0  0  0  0
  129.7850  126.1890   66.9890 C   0  0  0  0  0  0  0  0  0  0  0  0
  129.8630  126.1830   65.5890 C   0  0  0  0  0  0  0  0  0  0  0  0
  130.7070  125.1380   64.9360 C   0  0  0  0  0  0  0  0  0  0  0  0
  132.0570  125.3890   64.6700 C   0  0  0  0  0  0  0  0  0  0  0  0
  132.8520  124.4170   64.0710 C   0  0  0  0  0  0  0  0  0  0  0  0
  132.3190  123.1740   63.7310 C   0  0  0  0  0  0  0  0  0  0  0  0
  133.1820  122.2720   63.1400 O   0  0  0  0  0  0  0  0  0  0  0  0
  133.9820  122.6930   62.0410 C   0  0  0  0  0  0  0  0  0  0  0  0
  130.9670  122.9150   64.0040 C   0  0  0  0  0  0  0  0  0  0  0  0
  130.1730  123.8890   64.6030 C   0  0  0  0  0  0  0  0  0  0  0  0
  129.1390  127.1670   64.8770 C   0  0  0  0  0  0  0  0  0  0  0  0
  129.1940  127.2670   63.4180 C   0  0  0  0  0  0  0  0  0  0  0  0
  129.2360  127.3470   62.2640 N   0  0  0  0  0  0  0  0  0  0  0  0
  129.1620  132.4300   60.9600 C   0  0  0  0  0  0  0  0  0  0  0  0
  129.4840  132.8900   59.6870 C   0  0  0  0  0  0  0  0  0  0  0  0
  1  2  1  0
  2  3  1  0
  3  4  1  0
  4  5  2  0
  4  6  1  0
  6  7  2  0
  7  8  1  0
  8  9  2  0
  9 10  1  0
 10 11  1  0
 11 12  2  0
 11 13  1  0
 13 14  1  0
 14 15  1  0
 15 16  2  0
 16 17  1  0
 17 18  1  0
 18 19  2  0
 19 20  1  0
 20 21  2  0
 21 22  1  0
 22 23  1  0
 21 24  1  0
 24 25  2  0
 17 26  2  0
 26 27  1  0
 27 28  1  0
 28 29  2  0
 29 30  1  0
 30 31  2  0
 31 32  1  0
 32 33  1  0
 31 34  1  0
 34 35  2  0
 27 36  2  0
 36 37  1  0
 37 38  3  0
  9 39  1  0
 39 40  2  0
 40  6  1  0
 36 15  1  0
 25 18  1  0
 35 28  1  0
M  END
>  <Binding energies>  (86) 
[-9.48]

>  <Ligand effiencies>  (86) 
[-0.23121951219512196]

>  <Interactions>  (86) 
["V-A:PRO:540:CA:4883, V-A:PRO:540:CB:4885, V-A:PRO:540:CD:4887, V-A:PRO:540:N:4884, V-A:TYR:539:C:4867, H-A:TYR:539:N:4870, V-A:MET:535:CE:4835, V-A:ILE:369:CD1:3239, V-B:GLU:543:CG:9879, V-A:LEU:475:CD2:4259, V-B:GLU:543:CB:9878, V-A:GLU:543:CD:4908, V-A:GLY:454:CA:4049, V-A:ARG:545:CZ:4926, V-B:GLU:543:CD:9880, V-B:HIS:456:CE1:9041, V-B:GLY:544:C:9884, V-B:GLU:543:C:9874, V-B:HIS:456:CD2:9039, V-A:HIS:456:CE1:4070, V-A:GLU:543:CG:4907, V-B:HIS:456:CG:9037, V-B:GLY:544:CA:9886, H-B:LYS:547:NZ:9923, H-A:GLU:543:OE1:4909, H-B:TYR:484:OH:9319, V-A:TYR:539:CE1:4875, V-A:TYR:539:CZ:4877, H-A:GLY:454:N:4050, V-A:TYR:539:CD1:4873, V-A:ILE:538:CA:4860, V-A:TYR:539:CE2:4876, V-A:ILE:538:C:4858, V-A:ILE:538:CB:4862"]

$$$$
1b_Grossjean_2025
     RDKit          3D

 25 26  0  0  0  0  0  0  0  0999 V2000
  131.0220  126.8710   73.5720 C   0  0  0  0  0  0  0  0  0  0  0  0
  130.0530  127.9100   73.6180 O   0  0  0  0  0  0  0  0  0  0  0  0
  129.9610  128.8230   72.6180 C   0  0  0  0  0  0  0  0  0  0  0  0
  129.8710  130.0390   72.8120 O   0  0  0  0  0  0  0  0  0  0  0  0
  129.9860  128.2070   71.2480 C   0  0  0  0  0  0  0  0  0  0  0  0
  131.1370  128.2270   70.4460 C   0  0  0  0  0  0  0  0  0  0  0  0
  131.1260  127.6480   69.1810 C   0  0  0  0  0  0  0  0  0  0  0  0
  129.9720  127.0380   68.6900 C   0  0  0  0  0  0  0  0  0  0  0  0
  130.0760  126.4870   67.3990 N   0  0  0  0  0  0  0  0  0  0  0  0
  129.8720  125.2210   66.9730 C   0  0  0  0  0  0  0  0  0  0  0  0
  129.5330  124.2740   67.6820 O   0  0  0  0  0  0  0  0  0  0  0  0
  130.0790  124.9920   65.4750 C   0  0  0  0  0  0  0  0  0  0  0  0
  130.2460  123.2280   65.0680 S   0  0  0  0  0  0  0  0  0  0  0  0
  130.7870  123.1240   63.3750 C   0  0  0  0  0  0  0  0  0  0  0  0
  129.8920  122.5230   62.5510 N   0  0  0  0  0  0  0  0  0  0  0  0
  130.2020  122.3920   61.2400 C   0  0  0  0  0  0  0  0  0  0  0  0
  129.1470  121.7240   60.3770 C   0  0  0  0  0  0  0  0  0  0  0  0
  131.4070  122.8390   60.7040 C   0  0  0  0  0  0  0  0  0  0  0  0
  132.3460  123.4400   61.5490 C   0  0  0  0  0  0  0  0  0  0  0  0
  133.6670  123.9070   60.9420 C   0  0  0  0  0  0  0  0  0  0  0  0
  132.0450  123.5870   62.9220 C   0  0  0  0  0  0  0  0  0  0  0  0
  133.0300  124.1730   63.8350 C   0  0  0  0  0  0  0  0  0  0  0  0
  133.8100  124.6370   64.5530 N   0  0  0  0  0  0  0  0  0  0  0  0
  128.8170  127.0130   69.4860 C   0  0  0  0  0  0  0  0  0  0  0  0
  128.8290  127.5920   70.7520 C   0  0  0  0  0  0  0  0  0  0  0  0
  1  2  1  0
  2  3  1  0
  3  4  2  0
  3  5  1  0
  5  6  2  0
  6  7  1  0
  7  8  2  0
  8  9  1  0
  9 10  1  0
 10 11  2  0
 10 12  1  0
 12 13  1  0
 13 14  1  0
 14 15  2  0
 15 16  1  0
 16 17  1  0
 16 18  2  0
 18 19  1  0
 19 20  1  0
 19 21  2  0
 21 22  1  0
 22 23  3  0
  8 24  1  0
 24 25  2  0
 25  5  1  0
 21 14  1  0
M  END
>  <Binding energies>  (87) 
[-7.73]

>  <Ligand effiencies>  (87) 
[-0.29730769230769233]

>  <Interactions>  (87) 
["V-B:PRO:540:CA:9855, V-B:TYR:539:CE2:9848, V-B:TYR:539:C:9839, V-B:TYR:539:CD2:9846, V-A:ILE:369:CD1:3239, V-B:GLU:543:CG:9879, V-A:LEU:475:CD2:4259, V-B:GLU:543:CB:9878, H-A:TYR:484:OH:4348, V-A:GLU:543:CD:4908, V-A:TYR:484:CE2:4346, H-A:ARG:545:NE:4924, V-A:GLY:454:CA:4049, V-B:GLU:543:CD:9880, V-B:HIS:456:CE1:9041, V-A:GLY:544:CA:4914, V-A:GLY:544:C:4912, H-A:LYS:547:NZ:4951, V-A:HIS:456:CE1:4070, V-A:GLU:543:C:4902, V-A:GLU:543:CB:4906, H-A:GLU:543:OE1:4909, V-A:ARG:545:CG:4922, H-A:GLU:543:OE2:4910, V-A:HIS:456:CD2:4068, V-A:HIS:456:CG:4066, H-A:ARG:545:NH2:4928, V-B:GLU:543:CA:9876, H-A:GLY:454:N:4050"]

$$$$
1c_Grossjean_2025
     RDKit          3D

 23 24  0  0  0  0  0  0  0  0999 V2000
  129.5720  127.4040   70.0060 C   0  0  0  0  0  0  0  0  0  0  0  0
  129.1670  126.7020   68.8350 O   0  0  0  0  0  0  0  0  0  0  0  0
  128.8790  127.4150   67.6880 C   0  0  0  0  0  0  0  0  0  0  0  0
  128.3520  128.6950   67.8670 C   0  0  0  0  0  0  0  0  0  0  0  0
  128.0310  129.4920   66.7720 C   0  0  0  0  0  0  0  0  0  0  0  0
  128.2410  129.0130   65.4710 C   0  0  0  0  0  0  0  0  0  0  0  0
  127.9420  129.7290   64.2950 N   0  0  0  0  0  0  0  0  0  0  0  0
  127.9960  131.0580   64.0650 C   0  0  0  0  0  0  0  0  0  0  0  0
  128.3500  131.9110   64.8790 O   0  0  0  0  0  0  0  0  0  0  0  0
  127.5800  131.4970   62.6590 C   0  0  0  0  0  0  0  0  0  0  0  0
  128.5330  132.9360   62.0900 S   0  0  0  0  0  0  0  0  0  0  0  0
  130.0480  132.3530   61.3570 C   0  0  0  0  0  0  0  0  0  0  0  0
  131.0200  132.0890   62.2660 N   0  0  0  0  0  0  0  0  0  0  0  0
  132.2190  131.6390   61.8260 C   0  0  0  0  0  0  0  0  0  0  0  0
  133.2520  131.3560   62.9010 C   0  0  0  0  0  0  0  0  0  0  0  0
  132.4990  131.4470   60.4750 C   0  0  0  0  0  0  0  0  0  0  0  0
  131.5130  131.7390   59.5280 C   0  0  0  0  0  0  0  0  0  0  0  0
  131.8510  131.5360   58.0520 C   0  0  0  0  0  0  0  0  0  0  0  0
  130.2540  132.2120   59.9640 C   0  0  0  0  0  0  0  0  0  0  0  0
  129.2280  132.5760   58.9840 C   0  0  0  0  0  0  0  0  0  0  0  0
  128.4170  132.8620   58.2090 N   0  0  0  0  0  0  0  0  0  0  0  0
  128.7570  127.7290   65.2870 C   0  0  0  0  0  0  0  0  0  0  0  0
  129.0770  126.9350   66.3850 C   0  0  0  0  0  0  0  0  0  0  0  0
  1  2  1  0
  2  3  1  0
  3  4  2  0
  4  5  1  0
  5  6  2  0
  6  7  1  0
  7  8  1  0
  8  9  2  0
  8 10  1  0
 10 11  1  0
 11 12  1  0
 12 13  2  0
 13 14  1  0
 14 15  1  0
 14 16  2  0
 16 17  1  0
 17 18  1  0
 17 19  2  0
 19 20  1  0
 20 21  3  0
  6 22  1  0
 22 23  2  0
 23  3  1  0
 19 12  1  0
M  END
>  <Binding energies>  (88) 
[-6.92]

>  <Ligand effiencies>  (88) 
[-0.28833333333333333]

>  <Interactions>  (88) 
["V-A:LEU:363:CD1:3189, V-A:PRO:540:CA:4883, V-A:PRO:540:CB:4885, V-A:PRO:540:N:4884, V-A:TYR:539:C:4867, V-B:GLU:543:CG:9879, V-B:GLU:543:CB:9878, V-A:GLU:543:CD:4908, V-B:GLU:543:CD:9880, V-B:HIS:456:CE1:9041, V-A:HIS:456:CE1:4070, V-A:GLU:543:CG:4907, V-A:GLU:543:CB:4906, H-A:GLU:543:OE1:4909, V-B:TYR:484:CZ:9318, H-B:GLU:543:OE2:9882, H-B:TYR:484:OH:9319, V-A:PRO:540:C:4881, H-A:ALA:541:N:4891, V-B:TYR:484:CE2:9317, V-A:ASN:362:CB:3176, V-A:ASN:362:CG:3177"]

$$$$
1d_Grossjean_2025
     RDKit          3D

 21 22  0  0  0  0  0  0  0  0999 V2000
  127.1260  127.8630   59.1920 C   0  0  0  0  0  0  0  0  0  0  0  0
  126.8920  126.5380   58.4930 C   0  0  0  0  0  0  0  0  0  0  0  0
  127.7560  126.0700   57.5050 C   0  0  0  0  0  0  0  0  0  0  0  0
  127.4950  124.8360   56.9020 C   0  0  0  0  0  0  0  0  0  0  0  0
  128.4660  124.3370   55.8330 C   0  0  0  0  0  0  0  0  0  0  0  0
  126.3570  124.0970   57.3020 C   0  0  0  0  0  0  0  0  0  0  0  0
  126.0900  122.7810   56.7180 C   0  0  0  0  0  0  0  0  0  0  0  0
  125.8830  121.7410   56.2550 N   0  0  0  0  0  0  0  0  0  0  0  0
  125.5210  124.6610   58.2940 C   0  0  0  0  0  0  0  0  0  0  0  0
  124.0520  123.8720   58.9150 S   0  0  0  0  0  0  0  0  0  0  0  0
  123.9860  124.1790   60.7060 C   0  0  0  0  0  0  0  0  0  0  0  0
  125.0960  123.4420   61.4580 C   0  0  0  0  0  0  0  0  0  0  0  0
  124.8040  122.7500   62.4330 O   0  0  0  0  0  0  0  0  0  0  0  0
  126.3390  123.6000   60.9540 N   0  0  0  0  0  0  0  0  0  0  0  0
  127.5680  123.0840   61.4060 C   0  0  0  0  0  0  0  0  0  0  0  0
  128.3890  122.5250   60.4220 C   0  0  0  0  0  0  0  0  0  0  0  0
  129.6280  121.9910   60.7610 C   0  0  0  0  0  0  0  0  0  0  0  0
  130.0540  122.0210   62.0870 C   0  0  0  0  0  0  0  0  0  0  0  0
  129.2500  122.5830   63.0760 C   0  0  0  0  0  0  0  0  0  0  0  0
  128.0090  123.1170   62.7400 C   0  0  0  0  0  0  0  0  0  0  0  0
  125.7950  125.8500   58.8890 N   0  0  0  0  0  0  0  0  0  0  0  0
  1  2  1  0
  2  3  2  0
  3  4  1  0
  4  5  1  0
  4  6  2  0
  6  7  1  0
  7  8  3  0
  6  9  1  0
  9 10  1  0
 10 11  1  0
 11 12  1  0
 12 13  2  0
 12 14  1  0
 14 15  1  0
 15 16  2  0
 16 17  1  0
 17 18  2  0
 18 19  1  0
 19 20  2  0
  9 21  2  0
 21  2  1  0
 20 15  1  0
M  END
>  <Binding energies>  (89) 
[-6.61]

>  <Ligand effiencies>  (89) 
[-0.3004545454545455]

>  <Interactions>  (89) 
["V-B:TYR:539:CZ:9849, V-B:PRO:540:N:9856, V-B:TYR:539:CE1:9847, V-B:PRO:540:CB:9857, V-B:PRO:540:CA:9855, V-B:TYR:539:CE2:9848, H-B:TYR:539:N:9842, V-B:PRO:540:CD:9859, H-B:ASP:366:OD1:8185, V-B:ASP:366:CG:8184, V-B:MET:535:CE:9807, V-B:PRO:540:C:9853, H-B:ALA:541:N:9863, V-B:TYR:539:CD2:9846, V-B:LEU:363:CA:8156, V-B:ALA:541:CB:9864, V-B:GLU:543:CG:9879, V-A:LEU:475:CD2:4259, V-B:GLU:543:CD:9880, V-B:ASN:362:CB:8147, V-B:ASN:362:C:8143"]

$$$$
1e_Grossjean_2025
     RDKit          3D

 22 23  0  0  0  0  0  0  0  0999 V2000
  126.8790  122.3750   55.5480 C   0  0  0  0  0  0  0  0  0  0  0  0
  126.3180  122.9360   56.8400 C   0  0  0  0  0  0  0  0  0  0  0  0
  125.0050  123.4080   56.9230 C   0  0  0  0  0  0  0  0  0  0  0  0
  124.5580  123.9130   58.1450 C   0  0  0  0  0  0  0  0  0  0  0  0
  125.4230  123.9360   59.2410 C   0  0  0  0  0  0  0  0  0  0  0  0
  126.7240  123.4430   59.0900 C   0  0  0  0  0  0  0  0  0  0  0  0
  127.5520  123.5030   60.2250 N   0  0  0  0  0  0  0  0  0  0  0  0
  127.2550  123.1740   61.5010 C   0  0  0  0  0  0  0  0  0  0  0  0
  126.1600  122.7610   61.8880 O   0  0  0  0  0  0  0  0  0  0  0  0
  128.3810  123.3690   62.5190 C   0  0  0  0  0  0  0  0  0  0  0  0
  129.8540  122.3880   62.1000 S   0  0  0  0  0  0  0  0  0  0  0  0
  130.8500  123.3170   60.9510 C   0  0  0  0  0  0  0  0  0  0  0  0
  130.1210  123.9610   60.0040 N   0  0  0  0  0  0  0  0  0  0  0  0
  130.7690  124.6990   59.0720 C   0  0  0  0  0  0  0  0  0  0  0  0
  129.8890  125.3940   58.0510 C   0  0  0  0  0  0  0  0  0  0  0  0
  132.1570  124.8150   59.0370 C   0  0  0  0  0  0  0  0  0  0  0  0
  132.9190  124.1370   59.9940 C   0  0  0  0  0  0  0  0  0  0  0  0
  134.4400  124.2660   59.9230 C   0  0  0  0  0  0  0  0  0  0  0  0
  132.2650  123.3570   60.9750 C   0  0  0  0  0  0  0  0  0  0  0  0
  133.0500  122.5940   61.9470 C   0  0  0  0  0  0  0  0  0  0  0  0
  133.6740  121.9910   62.7140 N   0  0  0  0  0  0  0  0  0  0  0  0
  127.1700  122.9510   57.8960 N   0  0  0  0  0  0  0  0  0  0  0  0
  1  2  1  0
  2  3  2  0
  3  4  1  0
  4  5  2  0
  5  6  1  0
  6  7  1  0
  7  8  1  0
  8  9  2  0
  8 10  1  0
 10 11  1  0
 11 12  1  0
 12 13  2  0
 13 14  1  0
 14 15  1  0
 14 16  2  0
 16 17  1  0
 17 18  1  0
 17 19  2  0
 19 20  1  0
 20 21  3  0
  6 22  2  0
 22  2  1  0
 19 12  1  0
M  END
>  <Binding energies>  (90) 
[-6.62]

>  <Ligand effiencies>  (90) 
[-0.28782608695652173]

>  <Interactions>  (90) 
["V-A:ASP:366:CG:3213, V-A:ASP:366:CB:3212, V-B:TYR:539:CZ:9849, V-B:PRO:540:N:9856, V-B:TYR:539:CE1:9847, V-B:PRO:540:CB:9857, V-B:TYR:539:CD1:9845, V-B:PRO:540:CA:9855, V-B:TYR:539:CE2:9848, V-B:PRO:540:CD:9859, V-B:MET:535:CE:9807, V-B:LEU:363:CD1:8160, V-B:PRO:540:C:9853, H-B:ALA:541:N:9863, V-B:LEU:363:CA:8156, V-A:ASP:366:CA:3210, V-A:ILE:369:CD1:3239, V-B:GLU:543:CG:9879, V-A:ILE:369:CB:3236, V-A:ILE:369:CG2:3237, V-A:LEU:475:CD2:4259, V-B:GLU:543:CD:9880, H-A:GLY:454:N:4050, V-B:ILE:538:CA:9832, V-B:ILE:538:C:9830, V-A:ILE:369:CG1:3238"]

$$$$
1f_Grossjean_2025
     RDKit          3D

 21 22  0  0  0  0  0  0  0  0999 V2000
  131.3610  125.4110   66.7070 C   0  0  0  0  0  0  0  0  0  0  0  0
  131.5940  124.8330   65.3230 C   0  0  0  0  0  0  0  0  0  0  0  0
  132.8230  124.9550   64.6800 C   0  0  0  0  0  0  0  0  0  0  0  0
  132.9750  124.4130   63.3990 C   0  0  0  0  0  0  0  0  0  0  0  0
  134.3270  124.5750   62.7060 C   0  0  0  0  0  0  0  0  0  0  0  0
  131.8830  123.7480   62.7950 C   0  0  0  0  0  0  0  0  0  0  0  0
  132.0070  123.2230   61.4320 C   0  0  0  0  0  0  0  0  0  0  0  0
  132.1060  122.8090   60.3570 N   0  0  0  0  0  0  0  0  0  0  0  0
  130.6810  123.6470   63.5330 C   0  0  0  0  0  0  0  0  0  0  0  0
  129.2040  122.8490   62.9370 S   0  0  0  0  0  0  0  0  0  0  0  0
  128.1700  124.1000   62.1010 C   0  0  0  0  0  0  0  0  0  0  0  0
  127.1500  123.5330   61.1020 C   0  0  0  0  0  0  0  0  0  0  0  0
  126.1150  122.9990   61.5020 O   0  0  0  0  0  0  0  0  0  0  0  0
  127.5070  123.6540   59.8060 N   0  0  0  0  0  0  0  0  0  0  0  0
  126.8190  123.2570   58.6440 C   0  0  0  0  0  0  0  0  0  0  0  0
  125.5070  123.6320   58.3000 C   0  0  0  0  0  0  0  0  0  0  0  0
  124.9450  123.1660   57.1080 C   0  0  0  0  0  0  0  0  0  0  0  0
  125.7110  122.3390   56.2860 C   0  0  0  0  0  0  0  0  0  0  0  0
  126.9790  121.9670   56.5920 N   0  0  0  0  0  0  0  0  0  0  0  0
  127.5110  122.4280   57.7540 C   0  0  0  0  0  0  0  0  0  0  0  0
  130.5370  124.1980   64.7650 N   0  0  0  0  0  0  0  0  0  0  0  0
  1  2  1  0
  2  3  2  0
  3  4  1  0
  4  5  1  0
  4  6  2  0
  6  7  1  0
  7  8  3  0
  6  9  1  0
  9 10  1  0
 10 11  1  0
 11 12  1  0
 12 13  2  0
 12 14  1  0
 14 15  1  0
 15 16  2  0
 16 17  1  0
 17 18  2  0
 18 19  1  0
 19 20  2  0
  9 21  2  0
 21  2  1  0
 20 15  1  0
M  END
>  <Binding energies>  (91) 
[-6.84]

>  <Ligand effiencies>  (91) 
[-0.3109090909090909]

>  <Interactions>  (91) 
["V-B:TYR:539:CZ:9849, V-B:PRO:540:N:9856, V-B:PRO:540:CB:9857, V-B:TYR:539:CD1:9845, V-B:PRO:540:CA:9855, V-B:TYR:539:CE2:9848, H-B:TYR:539:N:9842, V-B:PRO:540:CD:9859, V-B:MET:535:CE:9807, V-B:LEU:363:CD1:8160, V-B:TYR:539:C:9839, V-B:TYR:539:CG:9844, H-B:ALA:541:N:9863, V-B:TYR:539:CD2:9846, V-A:ILE:369:CD1:3239, V-B:GLU:543:CG:9879, V-A:TYR:484:CZ:4347, V-A:GLY:453:CA:4044, H-A:TYR:484:OH:4348, V-A:ARG:545:CZ:4926, V-B:GLU:543:CD:9880, V-A:HIS:456:CE1:4070, V-A:GLY:453:C:4042, V-B:ILE:538:CG2:9835, V-B:TYR:539:CA:9841"]

$$$$
1g_Grossjean_2025
     RDKit          3D

 22 23  0  0  0  0  0  0  0  0999 V2000
  126.4700  128.1520   58.6620 C   0  0  0  0  0  0  0  0  0  0  0  0
  126.4660  126.7340   58.1220 C   0  0  0  0  0  0  0  0  0  0  0  0
  127.4990  126.2560   57.3170 C   0  0  0  0  0  0  0  0  0  0  0  0
  127.4330  124.9450   56.8350 C   0  0  0  0  0  0  0  0  0  0  0  0
  128.5690  124.4480   55.9420 C   0  0  0  0  0  0  0  0  0  0  0  0
  126.3280  124.1350   57.1820 C   0  0  0  0  0  0  0  0  0  0  0  0
  126.2110  122.7760   56.6460 C   0  0  0  0  0  0  0  0  0  0  0  0
  126.1220  121.7040   56.2200 N   0  0  0  0  0  0  0  0  0  0  0  0
  125.3380  124.6950   58.0240 C   0  0  0  0  0  0  0  0  0  0  0  0
  123.8890  123.8160   58.5660 S   0  0  0  0  0  0  0  0  0  0  0  0
  123.8700  123.8750   60.3830 C   0  0  0  0  0  0  0  0  0  0  0  0
  125.2800  123.8160   60.9730 C   0  0  0  0  0  0  0  0  0  0  0  0
  125.6610  122.8010   61.5590 O   0  0  0  0  0  0  0  0  0  0  0  0
  126.0380  124.9140   60.8140 N   0  0  0  0  0  0  0  0  0  0  0  0
  127.4290  125.0550   61.2450 C   0  0  0  0  0  0  0  0  0  0  0  0
  128.1930  123.7380   61.3400 C   0  0  0  0  0  0  0  0  0  0  0  0
  128.6550  123.2860   62.5800 C   0  0  0  0  0  0  0  0  0  0  0  0
  129.3520  122.0840   62.6660 C   0  0  0  0  0  0  0  0  0  0  0  0
  129.5810  121.3350   61.5130 C   0  0  0  0  0  0  0  0  0  0  0  0
  129.1190  121.7770   60.2760 C   0  0  0  0  0  0  0  0  0  0  0  0
  128.4230  122.9800   60.1880 C   0  0  0  0  0  0  0  0  0  0  0  0
  125.3990  125.9760   58.4690 N   0  0  0  0  0  0  0  0  0  0  0  0
  1  2  1  0
  2  3  2  0
  3  4  1  0
  4  5  1  0
  4  6  2  0
  6  7  1  0
  7  8  3  0
  6  9  1  0
  9 10  1  0
 10 11  1  0
 11 12  1  0
 12 13  2  0
 12 14  1  0
 14 15  1  0
 15 16  1  0
 16 17  2  0
 17 18  1  0
 18 19  2  0
 19 20  1  0
 20 21  2  0
  9 22  2  0
 22  2  1  0
 21 16  1  0
M  END
>  <Binding energies>  (92) 
[-7.27]

>  <Ligand effiencies>  (92) 
[-0.3160869565217391]

>  <Interactions>  (92) 
["V-B:TYR:539:CZ:9849, V-B:PRO:540:N:9856, V-B:TYR:539:CE1:9847, V-B:PRO:540:CB:9857, V-B:PRO:540:CA:9855, V-B:TYR:539:CE2:9848, H-B:TYR:539:N:9842, H-B:TYR:531:OH:9767, V-B:PRO:540:CD:9859, H-B:ASP:366:OD1:8185, V-B:ASP:366:CG:8184, V-B:MET:535:CE:9807, V-B:TYR:539:C:9839, H-B:GLU:543:OE1:9881, H-B:ALA:541:N:9863, V-B:TYR:539:CD2:9846, V-B:LEU:363:CA:8156, V-B:ALA:541:CB:9864, V-B:GLU:543:CG:9879, V-A:LEU:475:CD2:4259, V-B:GLU:543:CD:9880, V-B:ASN:362:CB:8147, V-B:ASN:362:C:8143"]

$$$$
1h_Grossjean_2025
     RDKit          3D

 28 29  0  0  0  0  0  0  0  0999 V2000
  133.5610  121.5930   61.2070 C   0  0  0  0  0  0  0  0  0  0  0  0
  134.0910  122.8460   60.7900 O   0  0  0  0  0  0  0  0  0  0  0  0
  133.2310  123.9060   60.5660 C   0  0  0  0  0  0  0  0  0  0  0  0
  132.7970  124.3070   59.2930 C   0  0  0  0  0  0  0  0  0  0  0  0
  131.9380  125.3960   59.1410 C   0  0  0  0  0  0  0  0  0  0  0  0
  131.4560  125.8080   57.7530 C   0  0  0  0  0  0  0  0  0  0  0  0
  130.0810  125.4050   57.4580 N   0  0  0  0  0  0  0  0  0  0  0  0
  129.3990  125.7250   56.3430 C   0  0  0  0  0  0  0  0  0  0  0  0
  129.8740  126.3830   55.4180 O   0  0  0  0  0  0  0  0  0  0  0  0
  127.9550  125.2300   56.2610 C   0  0  0  0  0  0  0  0  0  0  0  0
  127.8080  123.4790   56.7280 S   0  0  0  0  0  0  0  0  0  0  0  0
  127.6320  123.3930   58.5030 C   0  0  0  0  0  0  0  0  0  0  0  0
  128.7590  123.0770   59.1930 N   0  0  0  0  0  0  0  0  0  0  0  0
  128.6970  122.9980   60.5430 C   0  0  0  0  0  0  0  0  0  0  0  0
  129.9960  122.6460   61.2420 C   0  0  0  0  0  0  0  0  0  0  0  0
  127.5220  123.2260   61.2560 C   0  0  0  0  0  0  0  0  0  0  0  0
  126.3550  123.5500   60.5570 C   0  0  0  0  0  0  0  0  0  0  0  0
  125.0790  123.7980   61.3590 C   0  0  0  0  0  0  0  0  0  0  0  0
  126.3970  123.6380   59.1470 C   0  0  0  0  0  0  0  0  0  0  0  0
  125.1890  123.9730   58.3880 C   0  0  0  0  0  0  0  0  0  0  0  0
  124.2340  124.2370   57.7900 N   0  0  0  0  0  0  0  0  0  0  0  0
  131.4760  126.0730   60.2710 C   0  0  0  0  0  0  0  0  0  0  0  0
  131.8900  125.6900   61.5570 C   0  0  0  0  0  0  0  0  0  0  0  0
  131.4750  126.3140   62.7190 O   0  0  0  0  0  0  0  0  0  0  0  0
  130.0830  126.4950   62.9570 C   0  0  0  0  0  0  0  0  0  0  0  0
  132.7760  124.6110   61.6900 C   0  0  0  0  0  0  0  0  0  0  0  0
  133.1850  124.2220   62.9420 O   0  0  0  0  0  0  0  0  0  0  0  0
  132.1600  123.6270   63.7260 C   0  0  0  0  0  0  0  0  0  0  0  0
  1  2  1  0
  2  3  1  0
  3  4  2  0
  4  5  1  0
  5  6  1  0
  6  7  1  0
  7  8  1  0
  8  9  2  0
  8 10  1  0
 10 11  1  0
 11 12  1  0
 12 13  2  0
 13 14  1  0
 14 15  1  0
 14 16  2  0
 16 17  1  0
 17 18  1  0
 17 19  2  0
 19 20  1  0
 20 21  3  0
  5 22  2  0
 22 23  1  0
 23 24  1  0
 24 25  1  0
 23 26  2  0
 26 27  1  0
 27 28  1  0
 26  3  1  0
 19 12  1  0
M  END
>  <Binding energies>  (93) 
[-5.97]

>  <Ligand effiencies>  (93) 
[-0.20586206896551723]

>  <Interactions>  (93) 
["V-A:ASP:366:CG:3213, H-A:TYR:531:OH:4795, H-B:TYR:539:OH:9850, V-A:ASP:366:CB:3212, V-B:TYR:539:CZ:9849, V-B:PRO:540:CB:9857, V-B:PRO:540:CA:9855, V-B:TYR:539:CE2:9848, V-A:ILE:369:CG2:3237, V-A:LEU:475:CD2:4259, V-A:GLU:543:CD:4908, H-A:ARG:545:NH2:4928"]

$$$$
1i_Grossjean_2025
     RDKit          3D

 20 21  0  0  0  0  0  0  0  0999 V2000
  127.3840  122.3640   55.0970 C   0  0  0  0  0  0  0  0  0  0  0  0
  126.9230  122.8220   56.4670 C   0  0  0  0  0  0  0  0  0  0  0  0
  125.6400  123.3230   56.6750 C   0  0  0  0  0  0  0  0  0  0  0  0
  125.2660  123.7210   57.9640 C   0  0  0  0  0  0  0  0  0  0  0  0
  123.8480  124.2510   58.1710 C   0  0  0  0  0  0  0  0  0  0  0  0
  126.2000  123.6120   59.0200 C   0  0  0  0  0  0  0  0  0  0  0  0
  125.8140  123.9750   60.3850 C   0  0  0  0  0  0  0  0  0  0  0  0
  125.5060  124.2620   61.4640 N   0  0  0  0  0  0  0  0  0  0  0  0
  127.4890  123.1150   58.7110 C   0  0  0  0  0  0  0  0  0  0  0  0
  128.7850  122.9120   59.9130 S   0  0  0  0  0  0  0  0  0  0  0  0
  129.9210  124.3200   59.7400 C   0  0  0  0  0  0  0  0  0  0  0  0
  129.4240  125.3380   58.7100 C   0  0  0  0  0  0  0  0  0  0  0  0
  128.7840  126.3180   59.0910 O   0  0  0  0  0  0  0  0  0  0  0  0
  129.7430  125.0680   57.4250 N   0  0  0  0  0  0  0  0  0  0  0  0
  129.4160  125.8160   56.3030 C   0  0  0  0  0  0  0  0  0  0  0  0
  128.1530  126.3690   56.0990 C   0  0  0  0  0  0  0  0  0  0  0  0
  128.2390  127.0220   54.8910 C   0  0  0  0  0  0  0  0  0  0  0  0
  129.4880  126.8690   54.3920 O   0  0  0  0  0  0  0  0  0  0  0  0
  130.2250  126.1010   55.2960 N   0  0  0  0  0  0  0  0  0  0  0  0
  127.8350  122.7130   57.4620 N   0  0  0  0  0  0  0  0  0  0  0  0
  1  2  1  0
  2  3  2  0
  3  4  1  0
  4  5  1  0
  4  6  2  0
  6  7  1  0
  7  8  3  0
  6  9  1  0
  9 10  1  0
 10 11  1  0
 11 12  1  0
 12 13  2  0
 12 14  1  0
 14 15  1  0
 15 16  1  0
 16 17  2  0
 17 18  1  0
 18 19  1  0
  9 20  2  0
 20  2  1  0
 19 15  2  0
M  END
>  <Binding energies>  (94) 
[-6.31]

>  <Ligand effiencies>  (94) 
[-0.30047619047619045]

>  <Interactions>  (94) 
["H-A:TYR:531:OH:4795, H-B:TYR:539:OH:9850, V-B:TYR:539:CZ:9849, V-B:PRO:540:N:9856, V-B:TYR:539:CE1:9847, V-B:PRO:540:CB:9857, V-B:TYR:539:CD1:9845, V-B:PRO:540:CA:9855, V-B:TYR:539:CE2:9848, V-B:ASP:366:CB:8183, V-B:ASP:366:CG:8184, V-B:MET:535:CE:9807, V-B:LEU:363:CD1:8160, V-B:TYR:539:C:9839, V-B:TYR:539:CG:9844, H-A:ASN:370:ND2:3248, V-B:LEU:363:CA:8156, V-A:MET:535:CE:4835, V-B:TYR:531:CE2:9765, V-B:MET:535:CG:9805, V-B:ILE:538:CA:9832, H-B:ARG:545:NH2:9900, V-B:ILE:538:C:9830, V-B:LEU:363:CB:8158"]

$$$$
1k_Grossjean_2025
     RDKit          3D

 25 25  0  0  0  0  0  0  0  0999 V2000
  132.8170  125.0160   64.9000 C   0  0  0  0  0  0  0  0  0  0  0  0
  133.9470  124.6080   64.1460 O   0  0  0  0  0  0  0  0  0  0  0  0
  133.6160  123.8080   63.0190 C   0  0  0  0  0  0  0  0  0  0  0  0
  133.4090  124.7080   61.7940 C   0  0  0  0  0  0  0  0  0  0  0  0
  134.2480  124.2660   60.7340 O   0  0  0  0  0  0  0  0  0  0  0  0
  133.5470  123.6050   59.6890 C   0  0  0  0  0  0  0  0  0  0  0  0
  132.0460  123.6020   60.0040 C   0  0  0  0  0  0  0  0  0  0  0  0
  131.4230  124.7070   59.3600 O   0  0  0  0  0  0  0  0  0  0  0  0
  132.3150  125.4840   58.5710 C   0  0  0  0  0  0  0  0  0  0  0  0
  131.5470  126.1160   57.3950 C   0  0  0  0  0  0  0  0  0  0  0  0
  130.1800  125.6180   57.2400 N   0  0  0  0  0  0  0  0  0  0  0  0
  129.4040  125.8080   56.1590 C   0  0  0  0  0  0  0  0  0  0  0  0
  129.7770  126.4330   55.1640 O   0  0  0  0  0  0  0  0  0  0  0  0
  127.9960  125.1960   56.2370 C   0  0  0  0  0  0  0  0  0  0  0  0
  127.9250  123.4400   56.7350 S   0  0  0  0  0  0  0  0  0  0  0  0
  127.5450  123.3390   58.4790 C   0  0  0  0  0  0  0  0  0  0  0  0
  128.5550  122.9130   59.2810 N   0  0  0  0  0  0  0  0  0  0  0  0
  128.3320  122.8040   60.6110 C   0  0  0  0  0  0  0  0  0  0  0  0
  129.5040  122.3140   61.4380 C   0  0  0  0  0  0  0  0  0  0  0  0
  127.1070  123.1200   61.1960 C   0  0  0  0  0  0  0  0  0  0  0  0
  126.0620  123.5670   60.3810 C   0  0  0  0  0  0  0  0  0  0  0  0
  124.7270  123.9080   61.0420 C   0  0  0  0  0  0  0  0  0  0  0  0
  126.2730  123.6830   58.9890 C   0  0  0  0  0  0  0  0  0  0  0  0
  125.1940  124.1460   58.1110 C   0  0  0  0  0  0  0  0  0  0  0  0
  124.3410  124.5110   57.4190 N   0  0  0  0  0  0  0  0  0  0  0  0
  1  2  1  0
  2  3  1  0
  3  4  1  0
  4  5  1  0
  5  6  1  0
  6  7  1  0
  7  8  1  0
  8  9  1  0
  9 10  1  0
 10 11  1  0
 11 12  1  0
 12 13  2  0
 12 14  1  0
 14 15  1  0
 15 16  1  0
 16 17  2  0
 17 18  1  0
 18 19  1  0
 18 20  2  0
 20 21  1  0
 21 22  1  0
 21 23  2  0
 23 24  1  0
 24 25  3  0
 23 16  1  0
M  END
>  <Binding energies>  (95) 
[-5.62]

>  <Ligand effiencies>  (95) 
[-0.21615384615384617]

>  <Interactions>  (95) 
["V-A:ASP:366:CG:3213, H-A:TYR:531:OH:4795, H-B:TYR:539:OH:9850, V-A:ASP:366:CB:3212, V-B:TYR:539:CZ:9849, V-B:PRO:540:N:9856, V-B:PRO:540:CB:9857, V-B:PRO:540:CA:9855, V-B:TYR:539:CE2:9848, V-B:PRO:540:C:9853, V-A:ILE:369:CD1:3239, V-A:ILE:369:CB:3236, V-A:ILE:369:CG2:3237, H-A:TYR:484:OH:4348, H-A:ARG:545:NE:4924, V-A:GLY:454:CA:4049, V-A:ARG:545:CZ:4926, V-A:TYR:531:CZ:4794, H-A:ARG:545:NH2:4928, H-A:GLY:454:N:4050, V-B:ASN:362:CB:8147"]

$$$$
1l_Grossjean_2025
     RDKit          3D

 17 17  0  0  0  0  0  0  0  0999 V2000
  127.6810  126.4770   61.4680 C   0  0  0  0  0  0  0  0  0  0  0  0
  127.3050  125.1360   61.1880 O   0  0  0  0  0  0  0  0  0  0  0  0
  125.9480  125.0780   60.8740 N   0  0  0  0  0  0  0  0  0  0  0  0
  125.3100  123.8950   60.9510 C   0  0  0  0  0  0  0  0  0  0  0  0
  125.7850  122.8950   61.4970 O   0  0  0  0  0  0  0  0  0  0  0  0
  123.9130  123.8650   60.3150 C   0  0  0  0  0  0  0  0  0  0  0  0
  123.8870  124.0400   58.4990 S   0  0  0  0  0  0  0  0  0  0  0  0
  125.3450  124.9430   58.0070 C   0  0  0  0  0  0  0  0  0  0  0  0
  125.4350  126.2160   58.4720 N   0  0  0  0  0  0  0  0  0  0  0  0
  126.5160  126.9600   58.1360 C   0  0  0  0  0  0  0  0  0  0  0  0
  126.5450  128.3700   58.6940 C   0  0  0  0  0  0  0  0  0  0  0  0
  127.5430  126.4730   57.3310 C   0  0  0  0  0  0  0  0  0  0  0  0
  127.4620  125.1630   56.8470 C   0  0  0  0  0  0  0  0  0  0  0  0
  128.6000  124.6480   55.9670 C   0  0  0  0  0  0  0  0  0  0  0  0
  126.3430  124.3700   57.1850 C   0  0  0  0  0  0  0  0  0  0  0  0
  126.2320  122.9930   56.6910 C   0  0  0  0  0  0  0  0  0  0  0  0
  126.1460  121.9080   56.3010 N   0  0  0  0  0  0  0  0  0  0  0  0
  1  2  1  0
  2  3  1  0
  3  4  1  0
  4  5  2  0
  4  6  1  0
  6  7  1  0
  7  8  1  0
  8  9  2  0
  9 10  1  0
 10 11  1  0
 10 12  2  0
 12 13  1  0
 13 14  1  0
 13 15  2  0
 15 16  1  0
 16 17  3  0
 15  8  1  0
M  END
>  <Binding energies>  (96) 
[-5.76]

>  <Ligand effiencies>  (96) 
[-0.32]

>  <Interactions>  (96) 
["V-B:TYR:539:CZ:9849, V-B:PRO:540:N:9856, V-B:TYR:539:CE1:9847, V-B:PRO:540:CB:9857, V-B:PRO:540:CA:9855, H-B:TYR:539:N:9842, H-B:TYR:531:OH:9767, H-B:ASP:366:OD1:8185, V-B:ASP:366:CG:8184, V-B:MET:535:CE:9807, H-B:GLU:543:OE1:9881, H-B:ALA:541:N:9863, V-B:LEU:363:CA:8156, V-B:GLU:543:CD:9880, V-B:ASN:362:CB:8147, V-B:ASN:362:C:8143"]

$$$$
1m_Grossjean_2025
     RDKit          3D

 20 20  0  0  0  0  0  0  0  0999 V2000
  128.3720  127.2420   57.3620 C   0  0  0  0  0  0  0  0  0  0  0  0
  128.0220  126.5770   56.1570 O   0  0  0  0  0  0  0  0  0  0  0  0
  128.8960  125.7460   55.5530 C   0  0  0  0  0  0  0  0  0  0  0  0
  129.8690  126.0950   54.8780 O   0  0  0  0  0  0  0  0  0  0  0  0
  128.5440  124.2660   55.8150 C   0  0  0  0  0  0  0  0  0  0  0  0
  127.2950  124.1040   56.5740 N   0  0  0  0  0  0  0  0  0  0  0  0
  126.5120  123.0080   56.5730 C   0  0  0  0  0  0  0  0  0  0  0  0
  126.7610  122.0050   55.9010 O   0  0  0  0  0  0  0  0  0  0  0  0
  125.2650  123.0860   57.4630 C   0  0  0  0  0  0  0  0  0  0  0  0
  125.3380  124.3600   58.7680 S   0  0  0  0  0  0  0  0  0  0  0  0
  126.8190  124.0910   59.7180 C   0  0  0  0  0  0  0  0  0  0  0  0
  127.9570  124.4140   59.0530 N   0  0  0  0  0  0  0  0  0  0  0  0
  129.1460  124.2560   59.6800 C   0  0  0  0  0  0  0  0  0  0  0  0
  130.3710  124.6570   58.8800 C   0  0  0  0  0  0  0  0  0  0  0  0
  129.2510  123.7640   60.9790 C   0  0  0  0  0  0  0  0  0  0  0  0
  128.0870  123.4030   61.6650 C   0  0  0  0  0  0  0  0  0  0  0  0
  128.2280  122.8500   63.0820 C   0  0  0  0  0  0  0  0  0  0  0  0
  126.8330  123.5580   61.0300 C   0  0  0  0  0  0  0  0  0  0  0  0
  125.6060  123.1390   61.7110 C   0  0  0  0  0  0  0  0  0  0  0  0
  124.6370  122.8100   62.2500 N   0  0  0  0  0  0  0  0  0  0  0  0
  1  2  1  0
  2  3  1  0
  3  4  2  0
  3  5  1  0
  5  6  1  0
  6  7  1  0
  7  8  2  0
  7  9  1  0
  9 10  1  0
 10 11  1  0
 11 12  2  0
 12 13  1  0
 13 14  1  0
 13 15  2  0
 15 16  1  0
 16 17  1  0
 16 18  2  0
 18 19  1  0
 19 20  3  0
 18 11  1  0
M  END
>  <Binding energies>  (97) 
[-5.51]

>  <Ligand effiencies>  (97) 
[-0.2623809523809524]

>  <Interactions>  (97) 
["H-A:TYR:531:OH:4795, H-B:TYR:539:OH:9850, V-B:TYR:539:CZ:9849, V-B:PRO:540:N:9856, V-B:TYR:539:CE1:9847, V-B:PRO:540:CB:9857, V-B:PRO:540:CA:9855, V-B:TYR:539:CE2:9848, H-B:TYR:539:N:9842, H-B:TYR:531:OH:9767, V-B:PRO:540:CD:9859, V-B:MET:535:CE:9807, V-B:LEU:363:CD1:8160, V-B:PRO:540:CG:9858, H-A:ASN:370:ND2:3248, V-B:PRO:540:C:9853, H-B:ALA:541:N:9863, V-B:ALA:541:CB:9864, V-B:GLU:543:CG:9879, V-B:GLU:543:CD:9880, V-B:ALA:541:CA:9862, H-B:MET:535:SD:9806"]

$$$$
1n_Grossjean_2025
     RDKit          3D

 27 28  0  0  0  0  0  0  0  0999 V2000
  128.4050  126.8770   71.7190 C   0  0  0  0  0  0  0  0  0  0  0  0
  127.9930  126.9120   70.2440 C   0  0  0  0  0  0  0  0  0  0  0  0
  129.1560  127.0300   69.4320 O   0  0  0  0  0  0  0  0  0  0  0  0
  129.1810  126.5330   68.1680 C   0  0  0  0  0  0  0  0  0  0  0  0
  129.5160  125.3760   67.8990 O   0  0  0  0  0  0  0  0  0  0  0  0
  128.7490  127.5300   67.1310 C   0  0  0  0  0  0  0  0  0  0  0  0
  128.7650  127.2290   65.7600 C   0  0  0  0  0  0  0  0  0  0  0  0
  128.3600  128.1760   64.8250 C   0  0  0  0  0  0  0  0  0  0  0  0
  127.9400  129.4420   65.2350 C   0  0  0  0  0  0  0  0  0  0  0  0
  127.5570  130.3230   64.2050 N   0  0  0  0  0  0  0  0  0  0  0  0
  127.7870  131.6470   64.0720 C   0  0  0  0  0  0  0  0  0  0  0  0
  128.4100  132.3470   64.8710 O   0  0  0  0  0  0  0  0  0  0  0  0
  127.2100  132.2970   62.8080 C   0  0  0  0  0  0  0  0  0  0  0  0
  128.1090  133.4140   62.2360 C   0  0  0  0  0  0  0  0  0  0  0  0
  128.3070  133.3720   60.4300 S   0  0  0  0  0  0  0  0  0  0  0  0
  129.8880  132.6330   60.0770 C   0  0  0  0  0  0  0  0  0  0  0  0
  130.5810  132.2790   61.1880 N   0  0  0  0  0  0  0  0  0  0  0  0
  131.7920  131.6920   61.0400 C   0  0  0  0  0  0  0  0  0  0  0  0
  132.5040  131.3150   62.3250 C   0  0  0  0  0  0  0  0  0  0  0  0
  132.3580  131.4410   59.7920 C   0  0  0  0  0  0  0  0  0  0  0  0
  131.6600  131.8220   58.6400 C   0  0  0  0  0  0  0  0  0  0  0  0
  132.3060  131.5490   57.2840 C   0  0  0  0  0  0  0  0  0  0  0  0
  130.3960  132.4410   58.7710 C   0  0  0  0  0  0  0  0  0  0  0  0
  129.6720  132.8930   57.5820 C   0  0  0  0  0  0  0  0  0  0  0  0
  129.1010  133.2510   56.6410 N   0  0  0  0  0  0  0  0  0  0  0  0
  127.9110  129.7460   66.6040 C   0  0  0  0  0  0  0  0  0  0  0  0
  128.3130  128.7960   67.5390 C   0  0  0  0  0  0  0  0  0  0  0  0
  1  2  1  0
  2  3  1  0
  3  4  1  0
  4  5  2  0
  4  6  1  0
  6  7  2  0
  7  8  1  0
  8  9  2  0
  9 10  1  0
 10 11  1  0
 11 12  2  0
 11 13  1  0
 13 14  1  0
 14 15  1  0
 15 16  1  0
 16 17  2  0
 17 18  1  0
 18 19  1  0
 18 20  2  0
 20 21  1  0
 21 22  1  0
 21 23  2  0
 23 24  1  0
 24 25  3  0
  9 26  1  0
 26 27  2  0
 27  6  1  0
 23 16  1  0
M  END
>  <Binding energies>  (98) 
[-7.79]

>  <Ligand effiencies>  (98) 
[-0.2782142857142857]

>  <Interactions>  (98) 
["V-A:LEU:363:CD1:3189, V-A:PRO:540:CA:4883, V-A:PRO:540:CB:4885, V-A:PRO:540:N:4884, V-A:TYR:539:C:4867, H-A:TYR:539:N:4870, V-B:GLU:543:CG:9879, V-B:GLU:543:CB:9878, V-A:GLU:543:CD:4908, V-B:GLU:543:CD:9880, V-B:HIS:456:CE1:9041, V-B:GLU:543:C:9874, V-A:HIS:456:CE1:4070, V-A:GLU:543:CG:4907, V-A:GLU:543:CB:4906, V-B:TYR:484:CZ:9318, H-B:TYR:484:OH:9319, V-A:ALA:541:CB:4892, V-A:PRO:540:C:4881, H-A:ALA:541:N:4891, V-B:TYR:484:CE2:9317, V-B:LEU:475:CD2:9230, V-A:ASN:362:CB:3176"]

$$$$
1q_Grossjean_2025
     RDKit          3D

 21 21  0  0  0  0  0  0  0  0999 V2000
  133.2700  124.5970   61.2820 C   0  0  0  0  0  0  0  0  0  0  0  0
  133.8960  124.3070   60.0410 O   0  0  0  0  0  0  0  0  0  0  0  0
  133.2480  124.5370   58.8730 C   0  0  0  0  0  0  0  0  0  0  0  0
  133.6310  124.1780   57.7580 O   0  0  0  0  0  0  0  0  0  0  0  0
  131.9430  125.3470   59.0270 C   0  0  0  0  0  0  0  0  0  0  0  0
  131.1320  125.3700   57.8000 N   0  0  0  0  0  0  0  0  0  0  0  0
  129.8230  125.6770   57.7240 C   0  0  0  0  0  0  0  0  0  0  0  0
  129.1450  125.9830   58.7070 O   0  0  0  0  0  0  0  0  0  0  0  0
  129.2050  125.6430   56.3190 C   0  0  0  0  0  0  0  0  0  0  0  0
  127.7130  125.2560   56.2930 C   0  0  0  0  0  0  0  0  0  0  0  0
  127.4060  123.5130   56.7090 S   0  0  0  0  0  0  0  0  0  0  0  0
  127.1660  123.3840   58.4690 C   0  0  0  0  0  0  0  0  0  0  0  0
  128.2740  122.9710   59.1360 N   0  0  0  0  0  0  0  0  0  0  0  0
  128.2130  122.8330   60.4800 C   0  0  0  0  0  0  0  0  0  0  0  0
  129.4850  122.3510   61.1520 C   0  0  0  0  0  0  0  0  0  0  0  0
  127.0600  123.1080   61.2130 C   0  0  0  0  0  0  0  0  0  0  0  0
  125.9200  123.5590   60.5400 C   0  0  0  0  0  0  0  0  0  0  0  0
  124.6740  123.8720   61.3680 C   0  0  0  0  0  0  0  0  0  0  0  0
  125.9600  123.7140   59.1360 C   0  0  0  0  0  0  0  0  0  0  0  0
  124.7950  124.2390   58.4220 C   0  0  0  0  0  0  0  0  0  0  0  0
  123.8710  124.6550   57.8620 N   0  0  0  0  0  0  0  0  0  0  0  0
  1  2  1  0
  2  3  1  0
  3  4  2  0
  3  5  1  0
  5  6  1  0
  6  7  1  0
  7  8  2  0
  7  9  1  0
  9 10  1  0
 10 11  1  0
 11 12  1  0
 12 13  2  0
 13 14  1  0
 14 15  1  0
 14 16  2  0
 16 17  1  0
 17 18  1  0
 17 19  2  0
 19 20  1  0
 20 21  3  0
 19 12  1  0
M  END
>  <Binding energies>  (99) 
[-5.76]

>  <Ligand effiencies>  (99) 
[-0.2618181818181818]

>  <Interactions>  (99) 
["V-A:ASP:366:CG:3213, H-A:TYR:531:OH:4795, H-B:TYR:539:OH:9850, V-A:ASP:366:CB:3212, V-B:TYR:539:CZ:9849, V-B:PRO:540:N:9856, V-B:PRO:540:CB:9857, V-B:PRO:540:CA:9855, V-B:TYR:539:CE2:9848, V-B:LEU:363:CD1:8160, V-B:PRO:540:C:9853, V-A:ASP:366:CA:3210, V-A:ILE:369:CG2:3237, V-B:ASN:362:CB:8147"]

$$$$
2a_Grossjean_2025
     RDKit          3D

 29 30  0  0  0  0  0  0  0  0999 V2000
  128.6100  131.4390   74.3070 C   0  0  0  0  0  0  0  0  0  0  0  0
  129.4950  131.0120   73.1310 C   0  0  0  0  0  0  0  0  0  0  0  0
  129.8650  129.6480   73.2920 O   0  0  0  0  0  0  0  0  0  0  0  0
  129.0340  128.6460   72.9050 C   0  0  0  0  0  0  0  0  0  0  0  0
  128.1060  128.2240   73.6000 O   0  0  0  0  0  0  0  0  0  0  0  0
  129.3450  128.1180   71.5330 C   0  0  0  0  0  0  0  0  0  0  0  0
  128.4110  127.3780   70.7940 C   0  0  0  0  0  0  0  0  0  0  0  0
  128.7310  126.9020   69.5260 C   0  0  0  0  0  0  0  0  0  0  0  0
  129.9890  127.1470   68.9740 C   0  0  0  0  0  0  0  0  0  0  0  0
  130.2080  126.6060   67.6940 N   0  0  0  0  0  0  0  0  0  0  0  0
  129.9720  125.3620   67.2250 C   0  0  0  0  0  0  0  0  0  0  0  0
  129.5220  124.4230   67.8830 O   0  0  0  0  0  0  0  0  0  0  0  0
  130.3100  125.1380   65.7470 C   0  0  0  0  0  0  0  0  0  0  0  0
  130.2290  123.3860   65.2460 S   0  0  0  0  0  0  0  0  0  0  0  0
  130.6000  123.2390   63.5020 C   0  0  0  0  0  0  0  0  0  0  0  0
  129.6100  122.7220   62.7300 N   0  0  0  0  0  0  0  0  0  0  0  0
  129.8260  122.5710   61.4040 C   0  0  0  0  0  0  0  0  0  0  0  0
  128.6830  121.9610   60.6140 C   0  0  0  0  0  0  0  0  0  0  0  0
  131.0230  122.9320   60.7930 C   0  0  0  0  0  0  0  0  0  0  0  0
  132.0570  123.4770   61.5690 C   0  0  0  0  0  0  0  0  0  0  0  0
  133.3750  123.8730   60.8760 C   0  0  0  0  0  0  0  0  0  0  0  0
  134.4000  123.2420   61.4480 F   0  0  0  0  0  0  0  0  0  0  0  0
  133.3280  123.5430   59.5850 F   0  0  0  0  0  0  0  0  0  0  0  0
  133.6210  125.1840   60.9470 F   0  0  0  0  0  0  0  0  0  0  0  0
  131.8450  123.6380   62.9620 C   0  0  0  0  0  0  0  0  0  0  0  0
  132.8930  124.1990   63.8210 C   0  0  0  0  0  0  0  0  0  0  0  0
  133.7200  124.6420   64.4990 N   0  0  0  0  0  0  0  0  0  0  0  0
  130.9260  127.8930   69.7040 C   0  0  0  0  0  0  0  0  0  0  0  0
  130.6020  128.3720   70.9710 C   0  0  0  0  0  0  0  0  0  0  0  0
  1  2  1  0
  2  3  1  0
  3  4  1  0
  4  5  2  0
  4  6  1  0
  6  7  2  0
  7  8  1  0
  8  9  2  0
  9 10  1  0
 10 11  1  0
 11 12  2  0
 11 13  1  0
 13 14  1  0
 14 15  1  0
 15 16  2  0
 16 17  1  0
 17 18  1  0
 17 19  2  0
 19 20  1  0
 20 21  1  0
 21 22  1  0
 21 23  1  0
 21 24  1  0
 20 25  2  0
 25 26  1  0
 26 27  3  0
  9 28  1  0
 28 29  2  0
 29  6  1  0
 25 15  1  0
M  END
>  <Binding energies>  (100) 
[-7.51]

>  <Ligand effiencies>  (100) 
[-0.25033333333333335]

>  <Interactions>  (100) 
["V-A:ASP:366:CG:3213, V-A:ASP:366:CB:3212, V-B:PRO:540:N:9856, V-B:PRO:540:CA:9855, V-B:TYR:539:CE2:9848, V-B:TYR:539:C:9839, V-B:PRO:540:C:9853, V-B:TYR:539:CD2:9846, V-A:ASP:366:CA:3210, V-A:ILE:369:CD1:3239, V-B:GLU:543:CG:9879, V-A:ILE:369:CB:3236, V-A:ILE:369:CG2:3237, V-A:LEU:475:CD2:4259, V-B:GLU:543:CB:9878, H-A:TYR:484:OH:4348, V-A:GLU:543:CD:4908, V-A:TYR:484:CE2:4346, H-A:ARG:545:NE:4924, V-B:HIS:456:CE1:9041, V-A:GLY:544:CA:4914, V-A:GLY:544:C:4912, H-A:LYS:547:NZ:4951, V-B:GLU:543:C:9874, V-B:HIS:456:CD2:9039, V-A:HIS:456:CE1:4070, V-A:GLU:543:C:4902, V-A:GLU:543:CB:4906, H-B:LYS:547:NZ:9923, H-A:GLU:543:OE2:4910, H-A:ARG:545:NH2:4928, H-A:GLY:454:N:4050, V-A:LYS:547:CE:4950"]

$$$$
2b_Grossjean_2025
     RDKit          3D

 28 29  0  0  0  0  0  0  0  0999 V2000
  129.4440  131.1680   73.2710 C   0  0  0  0  0  0  0  0  0  0  0  0
  130.0180  129.8770   73.1200 O   0  0  0  0  0  0  0  0  0  0  0  0
  129.2440  128.7970   72.8410 C   0  0  0  0  0  0  0  0  0  0  0  0
  128.4240  128.3240   73.6350 O   0  0  0  0  0  0  0  0  0  0  0  0
  129.4870  128.2300   71.4720 C   0  0  0  0  0  0  0  0  0  0  0  0
  128.4790  127.5730   70.7510 C   0  0  0  0  0  0  0  0  0  0  0  0
  128.7380  127.0580   69.4840 C   0  0  0  0  0  0  0  0  0  0  0  0
  130.0020  127.1920   68.9100 C   0  0  0  0  0  0  0  0  0  0  0  0
  130.1570  126.6290   67.6290 N   0  0  0  0  0  0  0  0  0  0  0  0
  129.9070  125.3730   67.2040 C   0  0  0  0  0  0  0  0  0  0  0  0
  129.5030  124.4480   67.9100 O   0  0  0  0  0  0  0  0  0  0  0  0
  130.1800  125.1200   65.7170 C   0  0  0  0  0  0  0  0  0  0  0  0
  130.0920  123.3570   65.2620 S   0  0  0  0  0  0  0  0  0  0  0  0
  130.6220  123.1370   63.5690 C   0  0  0  0  0  0  0  0  0  0  0  0
  129.7130  122.5710   62.7350 N   0  0  0  0  0  0  0  0  0  0  0  0
  130.0490  122.3700   61.4420 C   0  0  0  0  0  0  0  0  0  0  0  0
  128.9820  121.7200   60.5800 C   0  0  0  0  0  0  0  0  0  0  0  0
  131.2890  122.7280   60.9230 C   0  0  0  0  0  0  0  0  0  0  0  0
  132.2430  123.3220   61.7640 C   0  0  0  0  0  0  0  0  0  0  0  0
  133.6090  123.7170   61.1730 C   0  0  0  0  0  0  0  0  0  0  0  0
  134.5720  122.9650   61.7080 F   0  0  0  0  0  0  0  0  0  0  0  0
  133.6060  123.5390   59.8510 F   0  0  0  0  0  0  0  0  0  0  0  0
  133.9230  124.9940   61.4050 F   0  0  0  0  0  0  0  0  0  0  0  0
  131.9060  123.5330   63.1260 C   0  0  0  0  0  0  0  0  0  0  0  0
  132.8660  124.1440   64.0510 C   0  0  0  0  0  0  0  0  0  0  0  0
  133.6230  124.6270   64.7810 N   0  0  0  0  0  0  0  0  0  0  0  0
  131.0180  127.8410   69.6280 C   0  0  0  0  0  0  0  0  0  0  0  0
  130.7580  128.3550   70.8950 C   0  0  0  0  0  0  0  0  0  0  0  0
  1  2  1  0
  2  3  1  0
  3  4  2  0
  3  5  1  0
  5  6  2  0
  6  7  1  0
  7  8  2  0
  8  9  1  0
  9 10  1  0
 10 11  2  0
 10 12  1  0
 12 13  1  0
 13 14  1  0
 14 15  2  0
 15 16  1  0
 16 17  1  0
 16 18  2  0
 18 19  1  0
 19 20  1  0
 20 21  1  0
 20 22  1  0
 20 23  1  0
 19 24  2  0
 24 25  1  0
 25 26  3  0
  8 27  1  0
 27 28  2  0
 28  5  1  0
 24 14  1  0
M  END
>  <Binding energies>  (101) 
[-7.56]

>  <Ligand effiencies>  (101) 
[-0.26068965517241377]

>  <Interactions>  (101) 
["V-A:ASP:366:CG:3213, V-A:ASP:366:CB:3212, V-B:PRO:540:N:9856, V-B:PRO:540:CA:9855, V-B:TYR:539:CE2:9848, V-B:TYR:539:C:9839, V-B:PRO:540:C:9853, V-B:TYR:539:CD2:9846, V-A:ILE:369:CD1:3239, V-B:GLU:543:CG:9879, V-A:ILE:369:CB:3236, V-A:ILE:369:CG2:3237, V-A:LEU:475:CD2:4259, V-B:GLU:543:CB:9878, H-A:TYR:484:OH:4348, V-A:GLU:543:CD:4908, H-A:ARG:545:NE:4924, V-A:GLY:454:CA:4049, V-B:HIS:456:CE1:9041, V-A:GLY:544:CA:4914, V-A:GLY:544:C:4912, H-A:LYS:547:NZ:4951, V-B:HIS:456:CD2:9039, V-A:HIS:456:CE1:4070, V-A:GLU:543:C:4902, V-A:GLU:543:CB:4906, H-B:LYS:547:NZ:9923, H-A:GLU:543:OE1:4909, H-A:GLU:543:OE2:4910, H-A:ARG:545:NH2:4928, V-B:GLU:543:CA:9876, H-A:GLY:454:N:4050, V-A:LYS:547:CE:4950"]

$$$$
2c_Grossjean_2025
     RDKit          3D

 26 27  0  0  0  0  0  0  0  0999 V2000
  125.1010  122.0310   55.9730 C   0  0  0  0  0  0  0  0  0  0  0  0
  126.4390  122.0160   56.4610 O   0  0  0  0  0  0  0  0  0  0  0  0
  126.7530  122.7430   57.5930 C   0  0  0  0  0  0  0  0  0  0  0  0
  125.7220  123.4960   58.1530 C   0  0  0  0  0  0  0  0  0  0  0  0
  125.9410  124.2630   59.2950 C   0  0  0  0  0  0  0  0  0  0  0  0
  127.2130  124.2910   59.8850 C   0  0  0  0  0  0  0  0  0  0  0  0
  127.5260  125.0200   61.0470 N   0  0  0  0  0  0  0  0  0  0  0  0
  128.4770  125.9620   61.2210 C   0  0  0  0  0  0  0  0  0  0  0  0
  129.2900  126.3040   60.3600 O   0  0  0  0  0  0  0  0  0  0  0  0
  128.5220  126.5860   62.6240 C   0  0  0  0  0  0  0  0  0  0  0  0
  129.4590  125.6400   63.8750 S   0  0  0  0  0  0  0  0  0  0  0  0
  130.4490  124.3940   63.0590 C   0  0  0  0  0  0  0  0  0  0  0  0
  131.7770  124.6630   62.9730 N   0  0  0  0  0  0  0  0  0  0  0  0
  132.5860  123.7700   62.3610 C   0  0  0  0  0  0  0  0  0  0  0  0
  134.0520  124.1510   62.2900 C   0  0  0  0  0  0  0  0  0  0  0  0
  132.1130  122.5760   61.8200 C   0  0  0  0  0  0  0  0  0  0  0  0
  130.7470  122.2740   61.9050 C   0  0  0  0  0  0  0  0  0  0  0  0
  130.2400  120.9480   61.3040 C   0  0  0  0  0  0  0  0  0  0  0  0
  129.2620  121.1880   60.4300 F   0  0  0  0  0  0  0  0  0  0  0  0
  131.2360  120.3180   60.6790 F   0  0  0  0  0  0  0  0  0  0  0  0
  129.7560  120.1150   62.2290 F   0  0  0  0  0  0  0  0  0  0  0  0
  129.8860  123.2040   62.5400 C   0  0  0  0  0  0  0  0  0  0  0  0
  128.4470  122.9410   62.6550 C   0  0  0  0  0  0  0  0  0  0  0  0
  127.3130  122.7330   62.7460 N   0  0  0  0  0  0  0  0  0  0  0  0
  128.2440  123.5260   59.3370 C   0  0  0  0  0  0  0  0  0  0  0  0
  128.0200  122.7600   58.1970 C   0  0  0  0  0  0  0  0  0  0  0  0
  1  2  1  0
  2  3  1  0
  3  4  2  0
  4  5  1  0
  5  6  2  0
  6  7  1  0
  7  8  1  0
  8  9  2  0
  8 10  1  0
 10 11  1  0
 11 12  1  0
 12 13  2  0
 13 14  1  0
 14 15  1  0
 14 16  2  0
 16 17  1  0
 17 18  1  0
 18 19  1  0
 18 20  1  0
 18 21  1  0
 17 22  2  0
 22 23  1  0
 23 24  3  0
  6 25  1  0
 25 26  2  0
 26  3  1  0
 22 12  1  0
M  END
>  <Binding energies>  (102) 
[-6.01]

>  <Ligand effiencies>  (102) 
[-0.2225925925925926]

>  <Interactions>  (102) 
["V-B:TYR:539:CZ:9849, V-B:PRO:540:N:9856, V-B:PRO:540:CB:9857, V-B:PRO:540:CA:9855, V-B:TYR:539:CE2:9848, H-B:TYR:539:N:9842, V-B:PRO:540:CD:9859, V-B:MET:535:CE:9807, V-B:LEU:363:CD1:8160, V-B:PRO:540:CG:9858, V-B:TYR:539:C:9839, V-B:TYR:539:CG:9844, H-B:GLU:543:OE1:9881, V-B:PRO:540:C:9853, H-B:ALA:541:N:9863, V-B:TYR:539:CD2:9846, V-B:ALA:541:CB:9864, V-A:ILE:369:CD1:3239, V-B:GLU:543:CG:9879, V-A:LEU:475:CD2:4259, V-B:GLU:543:CD:9880, V-B:ALA:541:CA:9862, V-B:ILE:538:CG2:9835, V-B:ILE:538:CA:9832, V-A:LEU:475:CG:4257, V-A:LEU:475:CD1:4258, V-B:ILE:538:CB:9834"]

$$$$
2d_Ghoteimi_2023
     RDKit          3D

 38 42  0  0  0  0  0  0  0  0999 V2000
  132.4180  131.4110   62.2490 C   0  0  0  0  0  0  0  0  0  0  0  0
  131.1960  132.1320   62.2520 O   0  0  0  0  0  0  0  0  0  0  0  0
  130.3240  132.0080   61.2300 C   0  0  0  0  0  0  0  0  0  0  0  0
  130.4470  131.2380   60.2730 O   0  0  0  0  0  0  0  0  0  0  0  0
  129.1260  132.9540   61.4010 C   0  0  0  0  0  0  0  0  0  0  0  0
  127.5500  132.0890   61.0830 S   0  0  0  0  0  0  0  0  0  0  0  0
  127.6190  130.4940   61.8720 C   0  0  0  0  0  0  0  0  0  0  0  0
  127.4220  129.4630   61.0130 N   0  0  0  0  0  0  0  0  0  0  0  0
  127.4400  128.1890   61.4790 C   0  0  0  0  0  0  0  0  0  0  0  0
  127.1980  127.1070   60.4770 C   0  0  0  0  0  0  0  0  0  0  0  0
  126.8930  125.8060   60.8930 C   0  0  0  0  0  0  0  0  0  0  0  0
  126.6660  124.7930   59.9650 C   0  0  0  0  0  0  0  0  0  0  0  0
  126.7250  125.0470   58.5860 C   0  0  0  0  0  0  0  0  0  0  0  0
  126.5180  124.0370   57.6400 N   0  0  0  0  0  0  0  0  0  0  0  0
  127.6250  123.1850   57.1650 C   0  0  0  0  0  0  0  0  0  0  0  0
  127.2930  122.4000   55.8790 C   0  0  0  0  0  0  0  0  0  0  0  0
  126.1140  121.6340   56.0700 O   0  0  0  0  0  0  0  0  0  0  0  0
  125.0010  122.4580   56.3750 C   0  0  0  0  0  0  0  0  0  0  0  0
  125.2670  123.2510   57.6720 C   0  0  0  0  0  0  0  0  0  0  0  0
  127.0440  126.3490   58.1740 C   0  0  0  0  0  0  0  0  0  0  0  0
  127.2740  127.3610   59.1020 C   0  0  0  0  0  0  0  0  0  0  0  0
  127.6640  127.9190   62.8320 C   0  0  0  0  0  0  0  0  0  0  0  0
  127.9040  128.9630   63.7340 C   0  0  0  0  0  0  0  0  0  0  0  0
  128.1630  128.5980   65.1590 C   0  0  0  0  0  0  0  0  0  0  0  0
  128.8100  127.4010   65.4700 C   0  0  0  0  0  0  0  0  0  0  0  0
  129.0670  127.0570   66.7940 C   0  0  0  0  0  0  0  0  0  0  0  0
  128.6810  127.9030   67.8470 C   0  0  0  0  0  0  0  0  0  0  0  0
  128.9400  127.5840   69.1830 N   0  0  0  0  0  0  0  0  0  0  0  0
  127.8610  127.1600   70.0960 C   0  0  0  0  0  0  0  0  0  0  0  0
  128.3770  126.5140   71.4000 C   0  0  0  0  0  0  0  0  0  0  0  0
  129.2790  127.3930   72.0540 O   0  0  0  0  0  0  0  0  0  0  0  0
  130.4000  127.6960   71.2380 C   0  0  0  0  0  0  0  0  0  0  0  0
  129.9360  128.3750   69.9320 C   0  0  0  0  0  0  0  0  0  0  0  0
  128.0480  129.1110   67.5240 C   0  0  0  0  0  0  0  0  0  0  0  0
  127.7910  129.4540   66.1990 C   0  0  0  0  0  0  0  0  0  0  0  0
  127.8880  130.2940   63.2460 C   0  0  0  0  0  0  0  0  0  0  0  0
  128.1520  131.4190   64.1470 C   0  0  0  0  0  0  0  0  0  0  0  0
  128.3610  132.3050   64.8620 N   0  0  0  0  0  0  0  0  0  0  0  0
  1  2  1  0
  2  3  1  0
  3  4  2  0
  3  5  1  0
  5  6  1  0
  6  7  1  0
  7  8  2  0
  8  9  1  0
  9 10  1  0
 10 11  2  0
 11 12  1  0
 12 13  2  0
 13 14  1  0
 14 15  1  0
 15 16  1  0
 16 17  1  0
 17 18  1  0
 18 19  1  0
 13 20  1  0
 20 21  2  0
  9 22  2  0
 22 23  1  0
 23 24  1  0
 24 25  2  0
 25 26  1  0
 26 27  2  0
 27 28  1  0
 28 29  1  0
 29 30  1  0
 30 31  1  0
 31 32  1  0
 32 33  1  0
 27 34  1  0
 34 35  2  0
 23 36  2  0
 36 37  1  0
 37 38  3  0
 36  7  1  0
 21 10  1  0
 35 24  1  0
 19 14  1  0
 33 28  1  0
M  END
>  <Binding energies>  (103) 
[-10.07]

>  <Ligand effiencies>  (103) 
[-0.265]

>  <Interactions>  (103) 
["V-A:PRO:540:CA:4883, V-B:TYR:539:CZ:9849, V-B:PRO:540:N:9856, V-B:TYR:539:CE1:9847, V-B:PRO:540:CB:9857, V-B:TYR:539:CD1:9845, V-B:PRO:540:CA:9855, V-B:TYR:539:CE2:9848, H-B:TYR:539:N:9842, V-B:PRO:540:CD:9859, V-B:MET:535:CE:9807, V-B:LEU:363:CD1:8160, V-B:PRO:540:CG:9858, V-B:TYR:539:CG:9844, V-B:TYR:539:CD2:9846, V-B:GLU:543:CG:9879, V-B:GLU:543:CB:9878, V-A:GLU:543:CD:4908, V-B:GLU:543:CD:9880, V-B:HIS:456:CE1:9041, V-A:GLY:544:C:4912, V-B:GLU:543:C:9874, V-A:HIS:456:CE1:4070, V-A:GLU:543:CG:4907, V-A:GLU:543:C:4902, V-A:GLU:543:CB:4906, V-B:TYR:484:CZ:9318, H-B:TYR:484:OH:9319, V-A:PRO:540:C:4881, H-A:ALA:541:N:4891, V-B:ILE:538:CG2:9835, V-B:ILE:538:CA:9832"]

$$$$
2d_Grossjean_2025
     RDKit          3D

 24 25  0  0  0  0  0  0  0  0999 V2000
  129.1940  122.4980   61.2490 C   0  0  0  0  0  0  0  0  0  0  0  0
  129.0150  123.2170   59.9250 C   0  0  0  0  0  0  0  0  0  0  0  0
  128.1640  122.7270   58.9380 C   0  0  0  0  0  0  0  0  0  0  0  0
  128.0290  123.4300   57.7320 C   0  0  0  0  0  0  0  0  0  0  0  0
  127.0740  122.8780   56.6560 C   0  0  0  0  0  0  0  0  0  0  0  0
  126.6300  121.6730   57.0150 F   0  0  0  0  0  0  0  0  0  0  0  0
  126.0310  123.6960   56.5060 F   0  0  0  0  0  0  0  0  0  0  0  0
  127.6580  122.7510   55.4630 F   0  0  0  0  0  0  0  0  0  0  0  0
  128.7760  124.6230   57.5550 C   0  0  0  0  0  0  0  0  0  0  0  0
  128.6350  125.4180   56.3330 C   0  0  0  0  0  0  0  0  0  0  0  0
  128.5220  126.0470   55.3680 N   0  0  0  0  0  0  0  0  0  0  0  0
  129.6350  125.0310   58.6030 C   0  0  0  0  0  0  0  0  0  0  0  0
  130.6670  126.4830   58.5350 S   0  0  0  0  0  0  0  0  0  0  0  0
  132.2370  126.0480   57.7180 C   0  0  0  0  0  0  0  0  0  0  0  0
  132.9500  124.8650   58.3800 C   0  0  0  0  0  0  0  0  0  0  0  0
  133.8090  124.2530   57.7450 O   0  0  0  0  0  0  0  0  0  0  0  0
  132.5430  124.5650   59.6310 N   0  0  0  0  0  0  0  0  0  0  0  0
  132.9990  123.5510   60.4950 C   0  0  0  0  0  0  0  0  0  0  0  0
  133.6510  123.9810   61.6530 C   0  0  0  0  0  0  0  0  0  0  0  0
  134.1440  123.0530   62.5660 C   0  0  0  0  0  0  0  0  0  0  0  0
  133.9920  121.6910   62.3160 C   0  0  0  0  0  0  0  0  0  0  0  0
  133.3560  121.2510   61.1580 C   0  0  0  0  0  0  0  0  0  0  0  0
  132.8610  122.1760   60.2440 C   0  0  0  0  0  0  0  0  0  0  0  0
  129.7370  124.3500   59.7700 N   0  0  0  0  0  0  0  0  0  0  0  0
  1  2  1  0
  2  3  2  0
  3  4  1  0
  4  5  1  0
  5  6  1  0
  5  7  1  0
  5  8  1  0
  4  9  2  0
  9 10  1  0
 10 11  3  0
  9 12  1  0
 12 13  1  0
 13 14  1  0
 14 15  1  0
 15 16  2  0
 15 17  1  0
 17 18  1  0
 18 19  2  0
 19 20  1  0
 20 21  2  0
 21 22  1  0
 22 23  2  0
 12 24  2  0
 24  2  1  0
 23 18  1  0
M  END
>  <Binding energies>  (104) 
[-6.28]

>  <Ligand effiencies>  (104) 
[-0.25120000000000003]

>  <Interactions>  (104) 
["H-A:TYR:531:OH:4795, H-B:TYR:539:OH:9850, V-A:ASP:366:CB:3212, V-B:TYR:539:CZ:9849, V-B:PRO:540:N:9856, V-B:TYR:539:CE1:9847, V-B:PRO:540:CB:9857, V-B:TYR:539:CD1:9845, V-B:PRO:540:CA:9855, V-B:TYR:539:CE2:9848, V-B:PRO:540:CD:9859, V-B:MET:535:CE:9807, V-B:PRO:540:CG:9858, V-B:TYR:539:C:9839, V-B:TYR:539:CG:9844, V-B:TYR:539:CD2:9846, V-A:ASP:366:CA:3210, V-A:ILE:369:CD1:3239, H-A:ASN:370:N:3244, V-A:ILE:369:CG2:3237, V-A:LEU:475:CD2:4259, V-A:GLY:454:CA:4049, V-A:TYR:531:CZ:4794, V-A:GLY:453:C:4042, V-B:TYR:539:CA:9841, V-B:ILE:538:C:9830, V-A:SER:385:CB:3409, V-A:SER:385:C:3405"]

$$$$
2e_Grossjean_2025
     RDKit          3D

 25 26  0  0  0  0  0  0  0  0999 V2000
  132.1050  120.1010   60.8120 C   0  0  0  0  0  0  0  0  0  0  0  0
  132.7680  121.4450   61.0500 C   0  0  0  0  0  0  0  0  0  0  0  0
  133.7580  121.6110   62.0220 C   0  0  0  0  0  0  0  0  0  0  0  0
  134.3310  122.8740   62.1760 C   0  0  0  0  0  0  0  0  0  0  0  0
  133.9060  123.9290   61.3660 C   0  0  0  0  0  0  0  0  0  0  0  0
  132.9030  123.6960   60.4180 C   0  0  0  0  0  0  0  0  0  0  0  0
  132.5440  124.7810   59.6000 N   0  0  0  0  0  0  0  0  0  0  0  0
  132.9330  125.0320   58.3310 C   0  0  0  0  0  0  0  0  0  0  0  0
  133.6330  124.2850   57.6450 O   0  0  0  0  0  0  0  0  0  0  0  0
  132.4880  126.3790   57.7520 C   0  0  0  0  0  0  0  0  0  0  0  0
  130.9620  126.9900   58.5360 S   0  0  0  0  0  0  0  0  0  0  0  0
  129.8680  125.5890   58.6010 C   0  0  0  0  0  0  0  0  0  0  0  0
  129.7770  124.9980   59.8180 N   0  0  0  0  0  0  0  0  0  0  0  0
  129.0010  123.8980   59.9460 C   0  0  0  0  0  0  0  0  0  0  0  0
  128.9440  123.2890   61.3330 C   0  0  0  0  0  0  0  0  0  0  0  0
  128.2980  123.3450   58.8770 C   0  0  0  0  0  0  0  0  0  0  0  0
  128.3880  123.9390   57.6090 C   0  0  0  0  0  0  0  0  0  0  0  0
  127.6220  123.3040   56.4340 C   0  0  0  0  0  0  0  0  0  0  0  0
  127.4910  121.9910   56.6280 F   0  0  0  0  0  0  0  0  0  0  0  0
  126.4100  123.8490   56.3320 F   0  0  0  0  0  0  0  0  0  0  0  0
  128.2400  123.4760   55.2630 F   0  0  0  0  0  0  0  0  0  0  0  0
  129.1930  125.0960   57.4600 C   0  0  0  0  0  0  0  0  0  0  0  0
  129.3530  125.7450   56.1560 C   0  0  0  0  0  0  0  0  0  0  0  0
  129.4790  126.2570   55.1250 N   0  0  0  0  0  0  0  0  0  0  0  0
  132.3430  122.4610   60.2550 N   0  0  0  0  0  0  0  0  0  0  0  0
  1  2  1  0
  2  3  2  0
  3  4  1  0
  4  5  2  0
  5  6  1  0
  6  7  1  0
  7  8  1  0
  8  9  2  0
  8 10  1  0
 10 11  1  0
 11 12  1  0
 12 13  2  0
 13 14  1  0
 14 15  1  0
 14 16  2  0
 16 17  1  0
 17 18  1  0
 18 19  1  0
 18 20  1  0
 18 21  1  0
 17 22  2  0
 22 23  1  0
 23 24  3  0
  6 25  2  0
 25  2  1  0
 22 12  1  0
M  END
>  <Binding energies>  (105) 
[-6.35]

>  <Ligand effiencies>  (105) 
[-0.24423076923076922]

>  <Interactions>  (105) 
["V-A:ASP:366:CG:3213, H-A:TYR:531:OH:4795, H-B:TYR:539:OH:9850, V-A:ASP:366:CB:3212, V-B:TYR:539:CZ:9849, V-B:PRO:540:N:9856, V-B:TYR:539:CE1:9847, V-B:TYR:539:CD1:9845, V-B:TYR:539:CE2:9848, V-B:PRO:540:CD:9859, V-B:MET:535:CE:9807, V-B:TYR:539:C:9839, V-B:TYR:539:CG:9844, V-B:TYR:539:CD2:9846, V-A:ASP:366:C:3208, V-A:ASP:366:CA:3210, V-A:ILE:369:CD1:3239, V-A:ILE:369:CG2:3237, V-A:LEU:475:CD2:4259, V-A:GLY:454:CA:4049, V-A:TYR:531:CZ:4794, V-B:TYR:539:CA:9841, V-B:TYR:539:CB:9843, V-B:ILE:538:C:9830, V-A:SER:385:CB:3409"]

$$$$
2f_Grossjean_2025
     RDKit          3D

 24 25  0  0  0  0  0  0  0  0999 V2000
  129.3090  122.4840   61.1580 C   0  0  0  0  0  0  0  0  0  0  0  0
  129.0790  123.2100   59.8460 C   0  0  0  0  0  0  0  0  0  0  0  0
  128.1720  122.7390   58.8990 C   0  0  0  0  0  0  0  0  0  0  0  0
  128.0010  123.4420   57.6970 C   0  0  0  0  0  0  0  0  0  0  0  0
  127.0020  122.8980   56.6580 C   0  0  0  0  0  0  0  0  0  0  0  0
  125.9780  123.7430   56.5210 F   0  0  0  0  0  0  0  0  0  0  0  0
  127.6050  122.7560   55.4780 F   0  0  0  0  0  0  0  0  0  0  0  0
  126.4970  121.7100   56.9980 F   0  0  0  0  0  0  0  0  0  0  0  0
  128.7600  124.6230   57.4880 C   0  0  0  0  0  0  0  0  0  0  0  0
  128.6590  125.3600   56.2260 C   0  0  0  0  0  0  0  0  0  0  0  0
  128.5780  125.9420   55.2290 N   0  0  0  0  0  0  0  0  0  0  0  0
  129.6380  125.0400   58.5160 C   0  0  0  0  0  0  0  0  0  0  0  0
  130.6560  126.5000   58.4290 S   0  0  0  0  0  0  0  0  0  0  0  0
  132.2550  126.0310   57.6840 C   0  0  0  0  0  0  0  0  0  0  0  0
  132.9950  124.8890   58.3960 C   0  0  0  0  0  0  0  0  0  0  0  0
  133.8840  124.2610   57.8190 O   0  0  0  0  0  0  0  0  0  0  0  0
  132.5730  124.6480   59.6560 N   0  0  0  0  0  0  0  0  0  0  0  0
  133.0310  123.6960   60.5860 C   0  0  0  0  0  0  0  0  0  0  0  0
  133.0370  122.3020   60.3920 C   0  0  0  0  0  0  0  0  0  0  0  0
  133.5250  121.4660   61.3980 C   0  0  0  0  0  0  0  0  0  0  0  0
  134.0010  122.0450   62.5750 C   0  0  0  0  0  0  0  0  0  0  0  0
  134.0130  123.3860   62.7840 N   0  0  0  0  0  0  0  0  0  0  0  0
  133.5360  124.1850   61.7960 C   0  0  0  0  0  0  0  0  0  0  0  0
  129.8070  124.3350   59.6620 N   0  0  0  0  0  0  0  0  0  0  0  0
  1  2  1  0
  2  3  2  0
  3  4  1  0
  4  5  1  0
  5  6  1  0
  5  7  1  0
  5  8  1  0
  4  9  2  0
  9 10  1  0
 10 11  3  0
  9 12  1  0
 12 13  1  0
 13 14  1  0
 14 15  1  0
 15 16  2  0
 15 17  1  0
 17 18  1  0
 18 19  2  0
 19 20  1  0
 20 21  2  0
 21 22  1  0
 22 23  2  0
 12 24  2  0
 24  2  1  0
 23 18  1  0
M  END
>  <Binding energies>  (106) 
[-6.14]

>  <Ligand effiencies>  (106) 
[-0.24559999999999998]

>  <Interactions>  (106) 
["V-A:ASP:366:CG:3213, H-A:TYR:531:OH:4795, H-B:TYR:539:OH:9850, V-A:ASP:366:CB:3212, V-B:TYR:539:CZ:9849, V-B:PRO:540:N:9856, V-B:TYR:539:CE1:9847, V-B:PRO:540:CB:9857, V-B:TYR:539:CD1:9845, V-B:PRO:540:CA:9855, V-B:TYR:539:CE2:9848, V-B:PRO:540:CD:9859, V-B:MET:535:CE:9807, V-B:PRO:540:CG:9858, V-B:TYR:539:C:9839, V-B:TYR:539:CG:9844, V-B:TYR:539:CD2:9846, V-A:ASP:366:CA:3210, V-A:ILE:369:CD1:3239, H-A:ASN:370:N:3244, V-A:ILE:369:CG2:3237, V-A:LEU:475:CD2:4259, V-A:GLY:454:CA:4049, V-A:TYR:531:CZ:4794, H-A:GLY:454:N:4050, V-B:TYR:539:CA:9841, V-B:ILE:538:C:9830, V-A:SER:385:CB:3409"]

$$$$
2g_Grossjean_2025
     RDKit          3D

 25 26  0  0  0  0  0  0  0  0999 V2000
  126.3760  128.6680   58.6880 C   0  0  0  0  0  0  0  0  0  0  0  0
  126.4980  127.2170   58.2640 C   0  0  0  0  0  0  0  0  0  0  0  0
  127.6710  126.7180   57.7020 C   0  0  0  0  0  0  0  0  0  0  0  0
  127.7330  125.3700   57.3190 C   0  0  0  0  0  0  0  0  0  0  0  0
  129.0360  124.8380   56.6910 C   0  0  0  0  0  0  0  0  0  0  0  0
  129.8100  124.2890   57.6280 F   0  0  0  0  0  0  0  0  0  0  0  0
  128.7500  123.9150   55.7710 F   0  0  0  0  0  0  0  0  0  0  0  0
  129.7500  125.7950   56.0940 F   0  0  0  0  0  0  0  0  0  0  0  0
  126.5920  124.5530   57.5260 C   0  0  0  0  0  0  0  0  0  0  0  0
  126.5840  123.1530   57.0910 C   0  0  0  0  0  0  0  0  0  0  0  0
  126.5780  122.0480   56.7480 N   0  0  0  0  0  0  0  0  0  0  0  0
  125.4540  125.1400   58.1310 C   0  0  0  0  0  0  0  0  0  0  0  0
  123.9510  124.2550   58.4860 S   0  0  0  0  0  0  0  0  0  0  0  0
  123.9390  123.8890   60.2740 C   0  0  0  0  0  0  0  0  0  0  0  0
  125.3270  123.8400   60.9280 C   0  0  0  0  0  0  0  0  0  0  0  0
  125.7150  122.8400   61.5350 O   0  0  0  0  0  0  0  0  0  0  0  0
  126.0680  124.9550   60.7940 N   0  0  0  0  0  0  0  0  0  0  0  0
  127.4210  125.1430   61.3210 C   0  0  0  0  0  0  0  0  0  0  0  0
  128.2300  123.8570   61.4520 C   0  0  0  0  0  0  0  0  0  0  0  0
  128.5510  123.1180   60.3100 C   0  0  0  0  0  0  0  0  0  0  0  0
  129.3220  121.9640   60.4220 C   0  0  0  0  0  0  0  0  0  0  0  0
  129.7770  121.5580   61.6740 C   0  0  0  0  0  0  0  0  0  0  0  0
  129.4710  122.2970   62.8150 C   0  0  0  0  0  0  0  0  0  0  0  0
  128.7010  123.4510   62.7030 C   0  0  0  0  0  0  0  0  0  0  0  0
  125.4050  126.4500   58.4740 N   0  0  0  0  0  0  0  0  0  0  0  0
  1  2  1  0
  2  3  2  0
  3  4  1  0
  4  5  1  0
  5  6  1  0
  5  7  1  0
  5  8  1  0
  4  9  2  0
  9 10  1  0
 10 11  3  0
  9 12  1  0
 12 13  1  0
 13 14  1  0
 14 15  1  0
 15 16  2  0
 15 17  1  0
 17 18  1  0
 18 19  1  0
 19 20  2  0
 20 21  1  0
 21 22  2  0
 22 23  1  0
 23 24  2  0
 12 25  2  0
 25  2  1  0
 24 19  1  0
M  END
>  <Binding energies>  (107) 
[-6.59]

>  <Ligand effiencies>  (107) 
[-0.25346153846153846]

>  <Interactions>  (107) 
["V-B:TYR:539:CZ:9849, V-B:PRO:540:N:9856, V-B:TYR:539:CE1:9847, V-B:PRO:540:CB:9857, V-B:TYR:539:CD1:9845, V-B:PRO:540:CA:9855, V-B:TYR:539:CE2:9848, H-B:TYR:539:N:9842, H-B:TYR:531:OH:9767, H-B:ASP:366:OD1:8185, V-B:ASP:366:CG:8184, V-B:TYR:539:C:9839, H-B:GLU:543:OE1:9881, H-B:ALA:541:N:9863, V-B:TYR:539:CD2:9846, V-B:LEU:363:CA:8156, V-B:ALA:541:CB:9864, V-B:GLU:543:CG:9879, V-A:LEU:475:CD2:4259, V-B:GLU:543:CD:9880, V-B:ASN:362:CB:8147, V-B:ASN:362:C:8143"]

$$$$
2h_Grossjean_2025
     RDKit          3D

 31 32  0  0  0  0  0  0  0  0999 V2000
  128.3320  133.2510   55.1750 C   0  0  0  0  0  0  0  0  0  0  0  0
  129.5340  133.5580   55.8720 O   0  0  0  0  0  0  0  0  0  0  0  0
  129.7950  132.9390   57.0810 C   0  0  0  0  0  0  0  0  0  0  0  0
  128.8310  132.7360   58.0810 C   0  0  0  0  0  0  0  0  0  0  0  0
  129.1660  132.0970   59.2720 C   0  0  0  0  0  0  0  0  0  0  0  0
  130.4690  131.6470   59.4920 C   0  0  0  0  0  0  0  0  0  0  0  0
  130.8090  130.9300   60.7970 C   0  0  0  0  0  0  0  0  0  0  0  0
  131.2090  129.5350   60.6140 N   0  0  0  0  0  0  0  0  0  0  0  0
  130.5130  128.6190   59.9160 C   0  0  0  0  0  0  0  0  0  0  0  0
  129.4090  128.8450   59.4190 O   0  0  0  0  0  0  0  0  0  0  0  0
  131.1900  127.2500   59.7610 C   0  0  0  0  0  0  0  0  0  0  0  0
  130.1310  125.8180   60.1540 S   0  0  0  0  0  0  0  0  0  0  0  0
  129.2750  125.3860   58.6540 C   0  0  0  0  0  0  0  0  0  0  0  0
  129.4130  126.3020   57.6640 N   0  0  0  0  0  0  0  0  0  0  0  0
  128.7870  126.0820   56.4870 C   0  0  0  0  0  0  0  0  0  0  0  0
  128.9790  127.1510   55.4280 C   0  0  0  0  0  0  0  0  0  0  0  0
  128.0110  124.9500   56.2470 C   0  0  0  0  0  0  0  0  0  0  0  0
  127.8730  123.9810   57.2520 C   0  0  0  0  0  0  0  0  0  0  0  0
  127.0180  122.7320   56.9660 C   0  0  0  0  0  0  0  0  0  0  0  0
  125.8520  122.8210   57.6060 F   0  0  0  0  0  0  0  0  0  0  0  0
  126.7500  122.5760   55.6670 F   0  0  0  0  0  0  0  0  0  0  0  0
  127.6550  121.6350   57.3780 F   0  0  0  0  0  0  0  0  0  0  0  0
  128.5300  124.1940   58.4920 C   0  0  0  0  0  0  0  0  0  0  0  0
  128.4660  123.1850   59.5530 C   0  0  0  0  0  0  0  0  0  0  0  0
  128.4170  122.3860   60.3880 N   0  0  0  0  0  0  0  0  0  0  0  0
  131.4490  131.8640   58.5110 C   0  0  0  0  0  0  0  0  0  0  0  0
  132.7350  131.4270   58.7210 O   0  0  0  0  0  0  0  0  0  0  0  0
  133.0830  130.2560   57.9940 C   0  0  0  0  0  0  0  0  0  0  0  0
  131.1040  132.4920   57.3020 C   0  0  0  0  0  0  0  0  0  0  0  0
  132.0570  132.6900   56.3320 O   0  0  0  0  0  0  0  0  0  0  0  0
  132.0040  131.7520   55.2660 C   0  0  0  0  0  0  0  0  0  0  0  0
  1  2  1  0
  2  3  1  0
  3  4  2  0
  4  5  1  0
  5  6  2  0
  6  7  1  0
  7  8  1  0
  8  9  1  0
  9 10  2  0
  9 11  1  0
 11 12  1  0
 12 13  1  0
 13 14  2  0
 14 15  1  0
 15 16  1  0
 15 17  2  0
 17 18  1  0
 18 19  1  0
 19 20  1  0
 19 21  1  0
 19 22  1  0
 18 23  2  0
 23 24  1  0
 24 25  3  0
  6 26  1  0
 26 27  1  0
 27 28  1  0
 26 29  2  0
 29 30  1  0
 30 31  1  0
 29  3  1  0
 23 13  1  0
M  END
>  <Binding energies>  (108) 
[-6.2]

>  <Ligand effiencies>  (108) 
[-0.19375]

>  <Interactions>  (108) 
["V-A:LEU:363:CD1:3189, V-A:ASP:366:CG:3213, V-A:PRO:540:CA:4883, V-A:PRO:540:CB:4885, H-A:ASP:366:OD2:3215, V-A:PRO:540:N:4884, V-A:TYR:539:C:4867, V-A:ASP:366:CB:3212, H-A:TYR:539:N:4870, V-B:TYR:539:CZ:9849, V-B:PRO:540:N:9856, V-B:TYR:539:CE1:9847, V-B:PRO:540:CB:9857, V-B:TYR:539:CD1:9845, V-B:PRO:540:CA:9855, V-B:TYR:539:CE2:9848, V-B:PRO:540:CD:9859, V-B:MET:535:CE:9807, V-B:PRO:540:CG:9858, V-B:TYR:539:C:9839, V-B:TYR:539:CG:9844, V-B:TYR:539:CD2:9846, V-A:MET:535:CE:4835, V-A:TYR:531:CZ:4794, H-A:GLU:543:OE1:4909, V-A:TYR:539:CE1:4875, V-A:TYR:539:CZ:4877, V-A:TYR:539:CD1:4873, V-A:TYR:539:CD2:4874, V-A:ILE:538:CA:4860, V-A:TYR:539:CG:4872, V-A:TYR:539:CE2:4876, V-A:TYR:531:CE2:4793, V-A:ILE:538:C:4858, V-A:ILE:538:CG2:4863, V-A:ILE:538:CB:4862, V-B:ILE:538:CA:9832, V-B:TYR:539:CA:9841, V-B:TYR:539:CB:9843, H-A:ASP:366:OD1:3214, V-A:MET:535:CG:4833"]

$$$$
2i_Grossjean_2025
     RDKit          3D

 23 24  0  0  0  0  0  0  0  0999 V2000
  129.9870  127.1420   62.2500 C   0  0  0  0  0  0  0  0  0  0  0  0
  130.9210  126.3940   61.3160 C   0  0  0  0  0  0  0  0  0  0  0  0
  131.9610  125.6060   61.8020 C   0  0  0  0  0  0  0  0  0  0  0  0
  132.7950  124.9330   60.8980 C   0  0  0  0  0  0  0  0  0  0  0  0
  133.9410  124.0650   61.4530 C   0  0  0  0  0  0  0  0  0  0  0  0
  133.8530  122.8260   60.9650 F   0  0  0  0  0  0  0  0  0  0  0  0
  135.1190  124.5840   61.1040 F   0  0  0  0  0  0  0  0  0  0  0  0
  133.9230  123.9740   62.7850 F   0  0  0  0  0  0  0  0  0  0  0  0
  132.5490  125.0800   59.5100 C   0  0  0  0  0  0  0  0  0  0  0  0
  133.3900  124.3980   58.5210 C   0  0  0  0  0  0  0  0  0  0  0  0
  134.0530  123.8600   57.7400 N   0  0  0  0  0  0  0  0  0  0  0  0
  131.4730  125.9030   59.1040 C   0  0  0  0  0  0  0  0  0  0  0  0
  131.0730  126.1690   57.3840 S   0  0  0  0  0  0  0  0  0  0  0  0
  129.2660  126.3110   57.2390 C   0  0  0  0  0  0  0  0  0  0  0  0
  128.5680  124.9530   57.3320 C   0  0  0  0  0  0  0  0  0  0  0  0
  129.1100  124.0430   57.9610 O   0  0  0  0  0  0  0  0  0  0  0  0
  127.3920  124.8500   56.6750 N   0  0  0  0  0  0  0  0  0  0  0  0
  126.5850  123.7270   56.5950 C   0  0  0  0  0  0  0  0  0  0  0  0
  125.2250  123.5690   56.8970 C   0  0  0  0  0  0  0  0  0  0  0  0
  124.9580  122.2470   56.6270 C   0  0  0  0  0  0  0  0  0  0  0  0
  126.0880  121.6490   56.1810 O   0  0  0  0  0  0  0  0  0  0  0  0
  127.1090  122.6020   56.1610 N   0  0  0  0  0  0  0  0  0  0  0  0
  130.6750  126.5450   59.9960 N   0  0  0  0  0  0  0  0  0  0  0  0
  1  2  1  0
  2  3  2  0
  3  4  1  0
  4  5  1  0
  5  6  1  0
  5  7  1  0
  5  8  1  0
  4  9  2  0
  9 10  1  0
 10 11  3  0
  9 12  1  0
 12 13  1  0
 13 14  1  0
 14 15  1  0
 15 16  2  0
 15 17  1  0
 17 18  1  0
 18 19  1  0
 19 20  2  0
 20 21  1  0
 21 22  1  0
 12 23  2  0
 23  2  1  0
 22 18  2  0
M  END
>  <Binding energies>  (109) 
[-6.02]

>  <Ligand effiencies>  (109) 
[-0.2508333333333333]

>  <Interactions>  (109) 
["V-A:ASP:366:CG:3213, H-A:TYR:531:OH:4795, H-B:TYR:539:OH:9850, V-A:ASP:366:CB:3212, V-B:TYR:539:CZ:9849, V-B:PRO:540:N:9856, V-B:PRO:540:CB:9857, V-B:PRO:540:CA:9855, V-B:TYR:539:CE2:9848, H-B:TYR:539:N:9842, H-B:TYR:531:OH:9767, V-B:PRO:540:CD:9859, V-B:MET:535:CE:9807, V-B:LEU:363:CD1:8160, V-B:PRO:540:CG:9858, V-A:ASP:366:C:3208, V-A:ASP:366:CA:3210, V-A:ILE:369:CD1:3239, H-A:ASN:370:N:3244, V-A:ILE:369:CG2:3237, V-A:GLU:543:CD:4908, V-A:GLY:454:CA:4049, V-B:ILE:538:CG2:9835, H-B:MET:535:SD:9806, V-A:ILE:369:CG1:3238"]

$$$$
2k_Grossjean_2025
     RDKit          3D

 28 28  0  0  0  0  0  0  0  0999 V2000
  125.0820  122.7690   56.8690 C   0  0  0  0  0  0  0  0  0  0  0  0
  125.9940  121.9130   56.2000 O   0  0  0  0  0  0  0  0  0  0  0  0
  127.2560  122.5170   55.9450 C   0  0  0  0  0  0  0  0  0  0  0  0
  127.5180  123.6230   56.9760 C   0  0  0  0  0  0  0  0  0  0  0  0
  128.6070  123.2380   57.8020 O   0  0  0  0  0  0  0  0  0  0  0  0
  128.2310  122.8180   59.1080 C   0  0  0  0  0  0  0  0  0  0  0  0
  128.4410  123.9910   60.0740 C   0  0  0  0  0  0  0  0  0  0  0  0
  129.1830  123.5120   61.1840 O   0  0  0  0  0  0  0  0  0  0  0  0
  128.5710  122.4560   61.9100 C   0  0  0  0  0  0  0  0  0  0  0  0
  129.5040  121.2310   61.8920 C   0  0  0  0  0  0  0  0  0  0  0  0
  130.8120  121.5170   61.2970 N   0  0  0  0  0  0  0  0  0  0  0  0
  131.6440  120.6050   60.7590 C   0  0  0  0  0  0  0  0  0  0  0  0
  131.3750  119.4040   60.6830 O   0  0  0  0  0  0  0  0  0  0  0  0
  132.9890  121.1460   60.2530 C   0  0  0  0  0  0  0  0  0  0  0  0
  133.6880  122.5310   61.2180 S   0  0  0  0  0  0  0  0  0  0  0  0
  132.6650  123.9810   61.0020 C   0  0  0  0  0  0  0  0  0  0  0  0
  131.9630  124.3740   62.0960 N   0  0  0  0  0  0  0  0  0  0  0  0
  131.1650  125.4610   62.0040 C   0  0  0  0  0  0  0  0  0  0  0  0
  130.4060  125.8280   63.2640 C   0  0  0  0  0  0  0  0  0  0  0  0
  131.0420  126.2050   60.8340 C   0  0  0  0  0  0  0  0  0  0  0  0
  131.7650  125.8230   59.6930 C   0  0  0  0  0  0  0  0  0  0  0  0
  131.6200  126.6610   58.4080 C   0  0  0  0  0  0  0  0  0  0  0  0
  130.6920  126.1800   57.5800 F   0  0  0  0  0  0  0  0  0  0  0  0
  131.2740  127.9120   58.7150 F   0  0  0  0  0  0  0  0  0  0  0  0
  132.7770  126.6830   57.7450 F   0  0  0  0  0  0  0  0  0  0  0  0
  132.6000  124.6790   59.7730 C   0  0  0  0  0  0  0  0  0  0  0  0
  133.3750  124.2320   58.6120 C   0  0  0  0  0  0  0  0  0  0  0  0
  133.9870  123.8800   57.6940 N   0  0  0  0  0  0  0  0  0  0  0  0
  1  2  1  0
  2  3  1  0
  3  4  1  0
  4  5  1  0
  5  6  1  0
  6  7  1  0
  7  8  1  0
  8  9  1  0
  9 10  1  0
 10 11  1  0
 11 12  1  0
 12 13  2  0
 12 14  1  0
 14 15  1  0
 15 16  1  0
 16 17  2  0
 17 18  1  0
 18 19  1  0
 18 20  2  0
 20 21  1  0
 21 22  1  0
 22 23  1  0
 22 24  1  0
 22 25  1  0
 21 26  2  0
 26 27  1  0
 27 28  3  0
 26 16  1  0
M  END
>  <Binding energies>  (110) 
[-4.91]

>  <Ligand effiencies>  (110) 
[-0.16931034482758622]

>  <Interactions>  (110) 
["V-A:ASP:366:CG:3213, H-B:TYR:539:OH:9850, V-A:ASP:366:CB:3212, V-B:TYR:539:CZ:9849, V-B:PRO:540:N:9856, V-B:TYR:539:CE1:9847, V-B:PRO:540:CB:9857, V-B:TYR:539:CD1:9845, V-B:PRO:540:CA:9855, V-B:TYR:539:CE2:9848, H-B:TYR:539:N:9842, V-B:PRO:540:CD:9859, V-B:MET:535:CE:9807, V-B:LEU:363:CD1:8160, V-B:PRO:540:CG:9858, V-B:TYR:539:C:9839, V-B:TYR:539:CG:9844, V-B:TYR:539:CD2:9846, V-B:ALA:541:CB:9864, V-A:ASP:366:C:3208, V-A:ASP:366:CA:3210, H-A:ASN:370:N:3244, V-A:ILE:369:CB:3236, V-A:ILE:369:CG2:3237, V-A:LEU:475:CD2:4259, V-A:TYR:531:CZ:4794, H-A:SER:385:OG:3410, H-A:HIS:383:HE2:3395"]

$$$$
3aa_Grossjean_2025
     RDKit          3D

 34 36  0  0  0  0  0  0  0  0999 V2000
  128.9530  125.3400   55.4850 C   0  0  0  0  0  0  0  0  0  0  0  0
  128.3350  124.8490   56.7980 C   0  0  0  0  0  0  0  0  0  0  0  0
  127.1680  124.0870   56.5170 O   0  0  0  0  0  0  0  0  0  0  0  0
  126.8890  122.9540   57.2100 C   0  0  0  0  0  0  0  0  0  0  0  0
  126.3940  121.9460   56.6970 O   0  0  0  0  0  0  0  0  0  0  0  0
  127.2270  123.0530   58.6710 C   0  0  0  0  0  0  0  0  0  0  0  0
  128.3700  122.4450   59.2120 C   0  0  0  0  0  0  0  0  0  0  0  0
  128.6570  122.5610   60.5700 C   0  0  0  0  0  0  0  0  0  0  0  0
  127.8140  123.2900   61.4110 C   0  0  0  0  0  0  0  0  0  0  0  0
  128.1970  123.3480   62.7660 N   0  0  0  0  0  0  0  0  0  0  0  0
  129.2150  122.7250   63.4000 C   0  0  0  0  0  0  0  0  0  0  0  0
  130.0090  121.9410   62.8780 O   0  0  0  0  0  0  0  0  0  0  0  0
  129.3510  123.0350   64.8910 C   0  0  0  0  0  0  0  0  0  0  0  0
  130.6320  124.2870   65.2060 S   0  0  0  0  0  0  0  0  0  0  0  0
  129.7930  125.7860   65.6670 C   0  0  0  0  0  0  0  0  0  0  0  0
  129.7510  125.9950   67.0050 N   0  0  0  0  0  0  0  0  0  0  0  0
  129.1370  127.1040   67.4940 C   0  0  0  0  0  0  0  0  0  0  0  0
  129.1450  127.2710   68.9830 C   0  0  0  0  0  0  0  0  0  0  0  0
  128.0320  126.8930   69.7510 C   0  0  0  0  0  0  0  0  0  0  0  0
  128.0320  127.0440   71.1360 C   0  0  0  0  0  0  0  0  0  0  0  0
  129.1490  127.5780   71.7710 C   0  0  0  0  0  0  0  0  0  0  0  0
  130.2650  127.9580   71.0330 C   0  0  0  0  0  0  0  0  0  0  0  0
  130.2620  127.8030   69.6500 C   0  0  0  0  0  0  0  0  0  0  0  0
  128.5530  128.0400   66.6350 C   0  0  0  0  0  0  0  0  0  0  0  0
  128.5690  127.8360   65.2460 C   0  0  0  0  0  0  0  0  0  0  0  0
  127.9050  128.8840   64.3340 C   0  0  0  0  0  0  0  0  0  0  0  0
  128.7050  129.2940   63.3470 F   0  0  0  0  0  0  0  0  0  0  0  0
  126.8080  128.3760   63.7710 F   0  0  0  0  0  0  0  0  0  0  0  0
  127.5650  129.9580   65.0480 F   0  0  0  0  0  0  0  0  0  0  0  0
  129.1950  126.6700   64.7420 C   0  0  0  0  0  0  0  0  0  0  0  0
  129.1920  126.3770   63.3060 C   0  0  0  0  0  0  0  0  0  0  0  0
  129.1880  126.1450   62.1720 N   0  0  0  0  0  0  0  0  0  0  0  0
  126.6630  123.8900   60.8790 C   0  0  0  0  0  0  0  0  0  0  0  0
  126.3770  123.7710   59.5220 C   0  0  0  0  0  0  0  0  0  0  0  0
  1  2  1  0
  2  3  1  0
  3  4  1  0
  4  5  2  0
  4  6  1  0
  6  7  2  0
  7  8  1  0
  8  9  2  0
  9 10  1  0
 10 11  1  0
 11 12  2  0
 11 13  1  0
 13 14  1  0
 14 15  1  0
 15 16  2  0
 16 17  1  0
 17 18  1  0
 18 19  2  0
 19 20  1  0
 20 21  2  0
 21 22  1  0
 22 23  2  0
 17 24  2  0
 24 25  1  0
 25 26  1  0
 26 27  1  0
 26 28  1  0
 26 29  1  0
 25 30  2  0
 30 31  1  0
 31 32  3  0
  9 33  1  0
 33 34  2  0
 34  6  1  0
 30 15  1  0
 23 18  1  0
M  END
>  <Binding energies>  (111) 
[-8.62]

>  <Ligand effiencies>  (111) 
[-0.24628571428571427]

>  <Interactions>  (111) 
["V-B:TYR:539:CZ:9849, V-B:PRO:540:N:9856, V-B:TYR:539:CE1:9847, V-B:PRO:540:CB:9857, V-B:PRO:540:CA:9855, V-B:TYR:539:CE2:9848, H-B:TYR:539:N:9842, V-B:TYR:539:C:9839, V-B:TYR:539:CG:9844, H-B:GLU:543:OE1:9881, V-B:TYR:539:CD2:9846, V-B:ALA:541:CB:9864, V-B:GLU:543:CG:9879, V-B:GLU:543:CB:9878, H-A:TYR:484:OH:4348, V-A:GLU:543:CD:4908, V-A:TYR:484:CE2:4346, V-B:GLU:543:CD:9880, V-B:HIS:456:CE1:9041, V-A:GLY:544:C:4912, V-B:GLU:543:C:9874, V-A:HIS:456:CE1:4070, V-A:GLU:543:CG:4907, V-A:GLU:543:C:4902, V-A:GLU:543:CB:4906, V-B:TYR:484:CZ:9318"]

$$$$
3ad_Grossjean_2025
     RDKit          3D

 29 31  0  0  0  0  0  0  0  0999 V2000
  129.4370  126.8100   62.9720 N   0  0  0  0  0  0  0  0  0  0  0  0
  129.2990  126.8970   64.1180 C   0  0  0  0  0  0  0  0  0  0  0  0
  129.1220  127.0090   65.5690 C   0  0  0  0  0  0  0  0  0  0  0  0
  128.3510  128.0580   66.1250 C   0  0  0  0  0  0  0  0  0  0  0  0
  127.6230  129.1050   65.2610 C   0  0  0  0  0  0  0  0  0  0  0  0
  126.4650  129.5020   65.7930 F   0  0  0  0  0  0  0  0  0  0  0  0
  128.3900  130.1860   65.1140 F   0  0  0  0  0  0  0  0  0  0  0  0
  127.3540  128.5980   64.0560 F   0  0  0  0  0  0  0  0  0  0  0  0
  128.2510  128.1480   67.5220 C   0  0  0  0  0  0  0  0  0  0  0  0
  128.9050  127.2200   68.3400 C   0  0  0  0  0  0  0  0  0  0  0  0
  128.8450  127.2790   69.8370 C   0  0  0  0  0  0  0  0  0  0  0  0
  129.9480  127.7230   70.5830 C   0  0  0  0  0  0  0  0  0  0  0  0
  129.8980  127.7810   71.9720 C   0  0  0  0  0  0  0  0  0  0  0  0
  128.7390  127.3940   72.6380 C   0  0  0  0  0  0  0  0  0  0  0  0
  127.6320  126.9520   71.9230 C   0  0  0  0  0  0  0  0  0  0  0  0
  127.6850  126.8970   70.5320 C   0  0  0  0  0  0  0  0  0  0  0  0
  129.6480  126.2200   67.8010 N   0  0  0  0  0  0  0  0  0  0  0  0
  129.7420  126.1000   66.4560 C   0  0  0  0  0  0  0  0  0  0  0  0
  130.7440  124.7280   65.9300 S   0  0  0  0  0  0  0  0  0  0  0  0
  132.4170  125.3680   65.6220 C   0  0  0  0  0  0  0  0  0  0  0  0
  132.9340  124.9890   64.2320 C   0  0  0  0  0  0  0  0  0  0  0  0
  133.9570  124.3100   64.1390 O   0  0  0  0  0  0  0  0  0  0  0  0
  132.2000  125.4480   63.1960 N   0  0  0  0  0  0  0  0  0  0  0  0
  132.3860  125.2720   61.8120 C   0  0  0  0  0  0  0  0  0  0  0  0
  131.6540  126.1330   60.9890 C   0  0  0  0  0  0  0  0  0  0  0  0
  131.7610  126.0410   59.6040 C   0  0  0  0  0  0  0  0  0  0  0  0
  132.5990  125.0840   59.0390 C   0  0  0  0  0  0  0  0  0  0  0  0
  133.3290  124.2170   59.8460 C   0  0  0  0  0  0  0  0  0  0  0  0
  133.2250  124.3040   61.2320 C   0  0  0  0  0  0  0  0  0  0  0  0
  1  2  3  0
  2  3  1  0
  3  4  2  0
  4  5  1  0
  5  6  1  0
  5  7  1  0
  5  8  1  0
  4  9  1  0
  9 10  2  0
 10 11  1  0
 11 12  2  0
 12 13  1  0
 13 14  2  0
 14 15  1  0
 15 16  2  0
 10 17  1  0
 17 18  2  0
 18 19  1  0
 19 20  1  0
 20 21  1  0
 21 22  2  0
 21 23  1  0
 23 24  1  0
 24 25  2  0
 25 26  1  0
 26 27  2  0
 27 28  1  0
 28 29  2  0
 18  3  1  0
 29 24  1  0
 16 11  1  0
M  END
>  <Binding energies>  (112) 
[-7.62]

>  <Ligand effiencies>  (112) 
[-0.254]

>  <Interactions>  (112) 
["V-A:ASP:366:CG:3213, V-A:ASP:366:CB:3212, V-B:TYR:539:CE2:9848, V-B:GLU:543:CG:9879, V-A:ILE:369:CG2:3237, V-B:GLU:543:CB:9878, H-A:TYR:484:OH:4348, V-A:GLU:543:CD:4908, V-A:ARG:545:CZ:4926, V-B:GLU:543:CD:9880, V-B:HIS:456:CE1:9041, V-B:GLY:544:C:9884, V-B:GLU:543:C:9874, V-B:HIS:456:CD2:9039, V-A:HIS:456:CE1:4070, V-A:GLU:543:CG:4907, V-A:GLU:543:CB:4906, V-B:GLY:544:CA:9886, H-A:GLU:543:OE1:4909, H-A:GLU:543:OE2:4910, V-B:TYR:484:CZ:9318, H-A:GLY:454:N:4050"]

$$$$
3ai_Grossjean_2025
     RDKit          3D

 28 30  0  0  0  0  0  0  0  0999 V2000
  133.4230  123.9560   59.3780 N   0  0  0  0  0  0  0  0  0  0  0  0
  132.2980  123.8720   59.6360 C   0  0  0  0  0  0  0  0  0  0  0  0
  130.8730  123.7650   59.9650 C   0  0  0  0  0  0  0  0  0  0  0  0
  130.3650  122.6160   60.6190 C   0  0  0  0  0  0  0  0  0  0  0  0
  131.2640  121.4460   61.0610 C   0  0  0  0  0  0  0  0  0  0  0  0
  132.0660  121.7650   62.0790 F   0  0  0  0  0  0  0  0  0  0  0  0
  130.5100  120.4160   61.4500 F   0  0  0  0  0  0  0  0  0  0  0  0
  132.0400  121.0560   60.0500 F   0  0  0  0  0  0  0  0  0  0  0  0
  128.9860  122.5420   60.8680 C   0  0  0  0  0  0  0  0  0  0  0  0
  128.1380  123.5820   60.4730 C   0  0  0  0  0  0  0  0  0  0  0  0
  126.6580  123.5500   60.7040 C   0  0  0  0  0  0  0  0  0  0  0  0
  126.1340  123.1340   61.9380 C   0  0  0  0  0  0  0  0  0  0  0  0
  124.7600  123.1070   62.1610 C   0  0  0  0  0  0  0  0  0  0  0  0
  123.8890  123.4970   61.1490 C   0  0  0  0  0  0  0  0  0  0  0  0
  124.3820  123.9150   59.9180 C   0  0  0  0  0  0  0  0  0  0  0  0
  125.7560  123.9410   59.6990 C   0  0  0  0  0  0  0  0  0  0  0  0
  128.6290  124.6770   59.8390 N   0  0  0  0  0  0  0  0  0  0  0  0
  129.9600  124.7840   59.6090 C   0  0  0  0  0  0  0  0  0  0  0  0
  130.4190  126.2960   58.7900 S   0  0  0  0  0  0  0  0  0  0  0  0
  129.1650  126.6430   57.5100 C   0  0  0  0  0  0  0  0  0  0  0  0
  128.6230  125.4050   56.7800 C   0  0  0  0  0  0  0  0  0  0  0  0
  129.1290  125.0250   55.7210 O   0  0  0  0  0  0  0  0  0  0  0  0
  127.5790  124.8020   57.3920 N   0  0  0  0  0  0  0  0  0  0  0  0
  126.8960  123.6690   56.9680 C   0  0  0  0  0  0  0  0  0  0  0  0
  125.5400  123.6740   56.6420 C   0  0  0  0  0  0  0  0  0  0  0  0
  125.2540  122.3780   56.2800 C   0  0  0  0  0  0  0  0  0  0  0  0
  126.3790  121.6310   56.3820 O   0  0  0  0  0  0  0  0  0  0  0  0
  127.4130  122.4610   56.8190 N   0  0  0  0  0  0  0  0  0  0  0  0
  1  2  3  0
  2  3  1  0
  3  4  2  0
  4  5  1  0
  5  6  1  0
  5  7  1  0
  5  8  1  0
  4  9  1  0
  9 10  2  0
 10 11  1  0
 11 12  2  0
 12 13  1  0
 13 14  2  0
 14 15  1  0
 15 16  2  0
 10 17  1  0
 17 18  2  0
 18 19  1  0
 19 20  1  0
 20 21  1  0
 21 22  2  0
 21 23  1  0
 23 24  1  0
 24 25  1  0
 25 26  2  0
 26 27  1  0
 27 28  1  0
 18  3  1  0
 28 24  2  0
 16 11  1  0
M  END
>  <Binding energies>  (113) 
[-6.64]

>  <Ligand effiencies>  (113) 
[-0.2289655172413793]

>  <Interactions>  (113) 
["H-B:TYR:539:OH:9850, V-B:TYR:539:CZ:9849, V-B:PRO:540:N:9856, V-B:PRO:540:CB:9857, V-B:PRO:540:CA:9855, V-B:TYR:539:CE2:9848, H-B:TYR:539:N:9842, V-B:PRO:540:CD:9859, V-B:ASP:366:CG:8184, V-B:MET:535:CE:9807, V-B:LEU:363:CD1:8160, V-B:PRO:540:CG:9858, V-B:PRO:540:C:9853, V-B:TYR:539:CD2:9846, V-B:LEU:363:CA:8156, V-B:ALA:541:CB:9864, V-A:ILE:369:CG2:3237, V-A:LEU:475:CD2:4259, V-B:GLU:543:CD:9880, V-B:ILE:538:CG2:9835, V-B:ASN:362:CB:8147, V-B:ASN:362:C:8143, V-B:ASN:362:CA:8145, V-B:ALA:541:C:9860"]

$$$$
3aj_Grossjean_2025
     RDKit          3D

 28 30  0  0  0  0  0  0  0  0999 V2000
  129.3240  126.7770   63.1000 N   0  0  0  0  0  0  0  0  0  0  0  0
  129.2350  126.8840   64.2490 C   0  0  0  0  0  0  0  0  0  0  0  0
  129.1200  127.0220   65.7040 C   0  0  0  0  0  0  0  0  0  0  0  0
  128.3730  128.0820   66.2740 C   0  0  0  0  0  0  0  0  0  0  0  0
  127.6110  129.1150   65.4210 C   0  0  0  0  0  0  0  0  0  0  0  0
  127.3010  128.6560   64.2060 F   0  0  0  0  0  0  0  0  0  0  0  0
  126.4730  129.4550   66.0260 F   0  0  0  0  0  0  0  0  0  0  0  0
  128.3560  130.2090   65.2560 F   0  0  0  0  0  0  0  0  0  0  0  0
  128.3330  128.1970   67.6720 C   0  0  0  0  0  0  0  0  0  0  0  0
  129.0220  127.2830   68.4770 C   0  0  0  0  0  0  0  0  0  0  0  0
  129.0200  127.3660   69.9730 C   0  0  0  0  0  0  0  0  0  0  0  0
  130.1200  127.9020   70.6610 C   0  0  0  0  0  0  0  0  0  0  0  0
  130.1240  127.9850   72.0520 C   0  0  0  0  0  0  0  0  0  0  0  0
  129.0240  127.5310   72.7730 C   0  0  0  0  0  0  0  0  0  0  0  0
  127.9220  126.9970   72.1140 C   0  0  0  0  0  0  0  0  0  0  0  0
  127.9220  126.9170   70.7250 C   0  0  0  0  0  0  0  0  0  0  0  0
  129.7420  126.2730   67.9250 N   0  0  0  0  0  0  0  0  0  0  0  0
  129.7760  126.1270   66.5790 C   0  0  0  0  0  0  0  0  0  0  0  0
  130.7490  124.7370   66.0410 S   0  0  0  0  0  0  0  0  0  0  0  0
  132.4200  125.3480   65.6340 C   0  0  0  0  0  0  0  0  0  0  0  0
  132.9160  124.9920   64.2240 C   0  0  0  0  0  0  0  0  0  0  0  0
  133.9940  124.4160   64.0620 O   0  0  0  0  0  0  0  0  0  0  0  0
  132.0840  125.3580   63.2240 N   0  0  0  0  0  0  0  0  0  0  0  0
  132.2810  125.1530   61.8650 C   0  0  0  0  0  0  0  0  0  0  0  0
  131.8800  125.9110   60.8670 N   0  0  0  0  0  0  0  0  0  0  0  0
  132.2470  125.4150   59.7020 C   0  0  0  0  0  0  0  0  0  0  0  0
  132.9650  124.2230   59.7400 C   0  0  0  0  0  0  0  0  0  0  0  0
  133.1630  123.7350   61.3960 S   0  0  0  0  0  0  0  0  0  0  0  0
  1  2  3  0
  2  3  1  0
  3  4  2  0
  4  5  1  0
  5  6  1  0
  5  7  1  0
  5  8  1  0
  4  9  1  0
  9 10  2  0
 10 11  1  0
 11 12  2  0
 12 13  1  0
 13 14  2  0
 14 15  1  0
 15 16  2  0
 10 17  1  0
 17 18  2  0
 18 19  1  0
 19 20  1  0
 20 21  1  0
 21 22  2  0
 21 23  1  0
 23 24  1  0
 24 25  2  0
 25 26  1  0
 26 27  2  0
 27 28  1  0
 18  3  1  0
 28 24  1  0
 16 11  1  0
M  END
>  <Binding energies>  (114) 
[-7.1]

>  <Ligand effiencies>  (114) 
[-0.24482758620689654]

>  <Interactions>  (114) 
["V-A:ASP:366:CG:3213, V-A:ASP:366:CB:3212, V-B:TYR:539:CE2:9848, V-B:GLU:543:CG:9879, V-B:GLU:543:CB:9878, H-A:TYR:484:OH:4348, V-A:GLU:543:CD:4908, V-A:ARG:545:CZ:4926, V-B:GLU:543:CD:9880, V-B:HIS:456:CE1:9041, V-A:GLY:544:C:4912, V-B:GLY:544:C:9884, V-B:GLU:543:C:9874, V-B:HIS:456:CD2:9039, V-A:HIS:456:CE1:4070, V-A:GLU:543:CG:4907, V-A:GLU:543:C:4902, V-A:GLU:543:CB:4906, H-A:GLU:543:OE1:4909, H-A:GLU:543:OE2:4910, V-B:TYR:484:CZ:9318, H-A:ARG:545:NH2:4928, H-A:GLY:454:N:4050"]

$$$$
3ak_Grossjean_2025
     RDKit          3D

 33 34  0  0  0  0  0  0  0  0999 V2000
  127.4190  122.5180   56.0180 C   0  0  0  0  0  0  0  0  0  0  0  0
  126.1380  121.9090   56.0610 O   0  0  0  0  0  0  0  0  0  0  0  0
  125.2000  122.6240   56.8520 C   0  0  0  0  0  0  0  0  0  0  0  0
  125.9360  123.7150   57.6390 C   0  0  0  0  0  0  0  0  0  0  0  0
  124.9880  124.4610   58.3940 O   0  0  0  0  0  0  0  0  0  0  0  0
  124.7150  123.9640   59.7020 C   0  0  0  0  0  0  0  0  0  0  0  0
  125.8020  124.3090   60.7360 C   0  0  0  0  0  0  0  0  0  0  0  0
  126.1630  123.1330   61.4460 O   0  0  0  0  0  0  0  0  0  0  0  0
  127.4840  122.6810   61.1790 C   0  0  0  0  0  0  0  0  0  0  0  0
  128.2180  122.3770   62.4980 C   0  0  0  0  0  0  0  0  0  0  0  0
  128.5850  123.5770   63.2540 N   0  0  0  0  0  0  0  0  0  0  0  0
  129.7370  123.7670   63.9240 C   0  0  0  0  0  0  0  0  0  0  0  0
  130.6370  122.9260   63.9540 O   0  0  0  0  0  0  0  0  0  0  0  0
  129.9430  125.0870   64.6850 C   0  0  0  0  0  0  0  0  0  0  0  0
  130.6210  126.4890   63.7220 S   0  0  0  0  0  0  0  0  0  0  0  0
  131.1580  125.8840   62.1300 C   0  0  0  0  0  0  0  0  0  0  0  0
  130.3060  126.1080   61.0990 N   0  0  0  0  0  0  0  0  0  0  0  0
  130.6230  125.6800   59.8510 C   0  0  0  0  0  0  0  0  0  0  0  0
  129.6240  125.9710   58.7710 C   0  0  0  0  0  0  0  0  0  0  0  0
  129.9610  125.8080   57.4190 C   0  0  0  0  0  0  0  0  0  0  0  0
  129.0360  126.0730   56.4120 C   0  0  0  0  0  0  0  0  0  0  0  0
  127.7570  126.5050   56.7460 C   0  0  0  0  0  0  0  0  0  0  0  0
  127.3970  126.6720   58.0780 C   0  0  0  0  0  0  0  0  0  0  0  0
  128.3230  126.4050   59.0830 C   0  0  0  0  0  0  0  0  0  0  0  0
  131.8320  125.0200   59.6050 C   0  0  0  0  0  0  0  0  0  0  0  0
  132.7320  124.7760   60.6530 C   0  0  0  0  0  0  0  0  0  0  0  0
  134.0530  124.0440   60.3440 C   0  0  0  0  0  0  0  0  0  0  0  0
  133.9810  122.7790   60.7560 F   0  0  0  0  0  0  0  0  0  0  0  0
  134.2870  124.0590   59.0300 F   0  0  0  0  0  0  0  0  0  0  0  0
  135.1070  124.6030   60.9430 F   0  0  0  0  0  0  0  0  0  0  0  0
  132.3900  125.2170   61.9540 C   0  0  0  0  0  0  0  0  0  0  0  0
  133.2930  124.9900   63.0880 C   0  0  0  0  0  0  0  0  0  0  0  0
  134.0040  124.8100   63.9840 N   0  0  0  0  0  0  0  0  0  0  0  0
  1  2  1  0
  2  3  1  0
  3  4  1  0
  4  5  1  0
  5  6  1  0
  6  7  1  0
  7  8  1  0
  8  9  1  0
  9 10  1  0
 10 11  1  0
 11 12  1  0
 12 13  2  0
 12 14  1  0
 14 15  1  0
 15 16  1  0
 16 17  2  0
 17 18  1  0
 18 19  1  0
 19 20  2  0
 20 21  1  0
 21 22  2  0
 22 23  1  0
 23 24  2  0
 18 25  2  0
 25 26  1  0
 26 27  1  0
 27 28  1  0
 27 29  1  0
 27 30  1  0
 26 31  2  0
 31 32  1  0
 32 33  3  0
 31 16  1  0
 24 19  1  0
M  END
>  <Binding energies>  (115) 
[-6.03]

>  <Ligand effiencies>  (115) 
[-0.1773529411764706]

>  <Interactions>  (115) 
["V-A:ASP:366:CG:3213, V-A:ASP:366:CB:3212, V-B:TYR:539:CZ:9849, V-B:PRO:540:N:9856, V-B:TYR:539:CE1:9847, V-B:PRO:540:CB:9857, V-B:TYR:539:CD1:9845, V-B:PRO:540:CA:9855, V-B:TYR:539:CE2:9848, H-B:TYR:539:N:9842, V-B:PRO:540:CD:9859, V-B:MET:535:CE:9807, V-B:LEU:363:CD1:8160, V-B:PRO:540:CG:9858, V-B:TYR:539:CG:9844, H-B:GLU:543:OE1:9881, V-B:PRO:540:C:9853, H-B:ALA:541:N:9863, V-B:ALA:541:CB:9864, V-A:ASP:366:C:3208, V-A:ASP:366:CA:3210, V-A:ILE:369:CD1:3239, V-B:GLU:543:CG:9879, V-A:ILE:369:CB:3236, V-A:ILE:369:CG2:3237, H-A:ARG:545:NE:4924, V-A:ARG:545:CZ:4926, V-B:GLU:543:CD:9880, H-A:ARG:545:NH2:4928, H-A:GLY:454:N:4050, V-B:ALA:541:CA:9862, V-A:ILE:369:CG1:3238, H-A:ARG:545:NH1:4927"]

$$$$
3bk_Grossjean_2025
     RDKit          3D

 30 31  0  0  0  0  0  0  0  0999 V2000
  125.0710  122.8080   56.9920 C   0  0  0  0  0  0  0  0  0  0  0  0
  125.9260  121.9410   56.2630 O   0  0  0  0  0  0  0  0  0  0  0  0
  127.2510  122.4350   56.1260 C   0  0  0  0  0  0  0  0  0  0  0  0
  127.8210  122.7740   57.5110 C   0  0  0  0  0  0  0  0  0  0  0  0
  128.6720  123.9070   57.4060 O   0  0  0  0  0  0  0  0  0  0  0  0
  128.1010  124.9890   56.6830 C   0  0  0  0  0  0  0  0  0  0  0  0
  129.2130  125.7510   55.9510 C   0  0  0  0  0  0  0  0  0  0  0  0
  129.5670  126.9050   56.7010 O   0  0  0  0  0  0  0  0  0  0  0  0
  130.1130  126.6140   57.9810 C   0  0  0  0  0  0  0  0  0  0  0  0
  131.5450  126.0830   57.8160 C   0  0  0  0  0  0  0  0  0  0  0  0
  131.9490  125.2170   58.9250 N   0  0  0  0  0  0  0  0  0  0  0  0
  132.9420  124.3110   58.8860 C   0  0  0  0  0  0  0  0  0  0  0  0
  133.6510  124.1160   57.8970 O   0  0  0  0  0  0  0  0  0  0  0  0
  133.1910  123.5170   60.1700 C   0  0  0  0  0  0  0  0  0  0  0  0
  133.4460  124.6060   61.6060 S   0  0  0  0  0  0  0  0  0  0  0  0
  131.9080  124.7620   62.4980 C   0  0  0  0  0  0  0  0  0  0  0  0
  130.7790  124.7180   61.7460 N   0  0  0  0  0  0  0  0  0  0  0  0
  129.5620  124.8320   62.3390 C   0  0  0  0  0  0  0  0  0  0  0  0
  128.3660  124.7520   61.4380 C   0  0  0  0  0  0  0  0  0  0  0  0
  127.5800  123.5900   61.3910 C   0  0  0  0  0  0  0  0  0  0  0  0
  126.4710  123.5080   60.5510 C   0  0  0  0  0  0  0  0  0  0  0  0
  126.1330  124.5900   59.7460 C   0  0  0  0  0  0  0  0  0  0  0  0
  126.8940  125.7550   59.7770 C   0  0  0  0  0  0  0  0  0  0  0  0
  128.0000  125.8330   60.6180 C   0  0  0  0  0  0  0  0  0  0  0  0
  129.4510  124.9890   63.7260 C   0  0  0  0  0  0  0  0  0  0  0  0
  130.6050  125.0380   64.5160 C   0  0  0  0  0  0  0  0  0  0  0  0
  130.4390  125.2120   66.0250 C   0  0  0  0  0  0  0  0  0  0  0  0
  131.8680  124.9230   63.9000 C   0  0  0  0  0  0  0  0  0  0  0  0
  133.0940  124.9680   64.7030 C   0  0  0  0  0  0  0  0  0  0  0  0
  134.0610  125.0050   65.3370 N   0  0  0  0  0  0  0  0  0  0  0  0
  1  2  1  0
  2  3  1  0
  3  4  1  0
  4  5  1  0
  5  6  1  0
  6  7  1  0
  7  8  1  0
  8  9  1  0
  9 10  1  0
 10 11  1  0
 11 12  1  0
 12 13  2  0
 12 14  1  0
 14 15  1  0
 15 16  1  0
 16 17  2  0
 17 18  1  0
 18 19  1  0
 19 20  2  0
 20 21  1  0
 21 22  2  0
 22 23  1  0
 23 24  2  0
 18 25  2  0
 25 26  1  0
 26 27  1  0
 26 28  2  0
 28 29  1  0
 29 30  3  0
 28 16  1  0
 24 19  1  0
M  END
>  <Binding energies>  (116) 
[-6.75]

>  <Ligand effiencies>  (116) 
[-0.21774193548387097]

>  <Interactions>  (116) 
["H-A:TYR:531:OH:4795, H-B:TYR:539:OH:9850, V-B:TYR:539:CZ:9849, V-B:PRO:540:N:9856, V-B:TYR:539:CE1:9847, V-B:PRO:540:CB:9857, V-B:TYR:539:CD1:9845, V-B:PRO:540:CA:9855, V-B:TYR:539:CE2:9848, H-B:TYR:539:N:9842, V-B:PRO:540:CD:9859, V-B:MET:535:CE:9807, V-B:LEU:363:CD1:8160, V-B:PRO:540:CG:9858, V-B:TYR:539:C:9839, V-B:TYR:539:CG:9844, V-B:TYR:539:CD2:9846, V-B:GLU:543:CG:9879, V-A:ILE:369:CG2:3237, H-A:TYR:484:OH:4348, H-A:ARG:545:NE:4924, V-A:ARG:545:CZ:4926, V-B:GLU:543:CD:9880, H-A:ARG:545:NH2:4928, H-A:GLY:454:N:4050, H-A:ARG:545:NH1:4927"]

$$$$
3cb_Grossjean_2025
     RDKit          3D

 30 32  0  0  0  0  0  0  0  0999 V2000
  127.4390  127.7660   73.1310 C   0  0  0  0  0  0  0  0  0  0  0  0
  128.8180  127.4500   73.0200 O   0  0  0  0  0  0  0  0  0  0  0  0
  129.6480  128.1990   72.2500 C   0  0  0  0  0  0  0  0  0  0  0  0
  130.2690  129.1790   72.6720 O   0  0  0  0  0  0  0  0  0  0  0  0
  129.7350  127.7190   70.8290 C   0  0  0  0  0  0  0  0  0  0  0  0
  130.8430  127.9980   70.0150 C   0  0  0  0  0  0  0  0  0  0  0  0
  130.8920  127.5350   68.7040 C   0  0  0  0  0  0  0  0  0  0  0  0
  129.8380  126.7890   68.1750 C   0  0  0  0  0  0  0  0  0  0  0  0
  129.9950  126.3690   66.8390 N   0  0  0  0  0  0  0  0  0  0  0  0
  129.8500  125.1430   66.2920 C   0  0  0  0  0  0  0  0  0  0  0  0
  129.5170  124.1300   66.9100 O   0  0  0  0  0  0  0  0  0  0  0  0
  130.1170  125.0840   64.7810 C   0  0  0  0  0  0  0  0  0  0  0  0
  129.7100  123.4900   63.9890 S   0  0  0  0  0  0  0  0  0  0  0  0
  129.6760  123.7500   62.2270 C   0  0  0  0  0  0  0  0  0  0  0  0
  130.8460  124.2210   61.7290 N   0  0  0  0  0  0  0  0  0  0  0  0
  130.9380  124.4560   60.4020 C   0  0  0  0  0  0  0  0  0  0  0  0
  132.2790  124.9690   59.9140 C   0  0  0  0  0  0  0  0  0  0  0  0
  129.8770  124.2390   59.5270 C   0  0  0  0  0  0  0  0  0  0  0  0
  128.6530  123.7680   60.0210 C   0  0  0  0  0  0  0  0  0  0  0  0
  127.5430  123.5570   59.0430 C   0  0  0  0  0  0  0  0  0  0  0  0
  126.3460  124.2730   59.1710 C   0  0  0  0  0  0  0  0  0  0  0  0
  125.3100  124.0910   58.2580 C   0  0  0  0  0  0  0  0  0  0  0  0
  125.4700  123.1920   57.2060 C   0  0  0  0  0  0  0  0  0  0  0  0
  126.6550  122.4780   57.0590 C   0  0  0  0  0  0  0  0  0  0  0  0
  127.6900  122.6640   57.9730 C   0  0  0  0  0  0  0  0  0  0  0  0
  128.5370  123.5290   61.4150 C   0  0  0  0  0  0  0  0  0  0  0  0
  127.2540  123.1260   62.0000 C   0  0  0  0  0  0  0  0  0  0  0  0
  126.2420  122.8080   62.4610 N   0  0  0  0  0  0  0  0  0  0  0  0
  128.7280  126.5020   68.9840 C   0  0  0  0  0  0  0  0  0  0  0  0
  128.6800  126.9650   70.2960 C   0  0  0  0  0  0  0  0  0  0  0  0
  1  2  1  0
  2  3  1  0
  3  4  2  0
  3  5  1  0
  5  6  2  0
  6  7  1  0
  7  8  2  0
  8  9  1  0
  9 10  1  0
 10 11  2  0
 10 12  1  0
 12 13  1  0
 13 14  1  0
 14 15  2  0
 15 16  1  0
 16 17  1  0
 16 18  2  0
 18 19  1  0
 19 20  1  0
 20 21  2  0
 21 22  1  0
 22 23  2  0
 23 24  1  0
 24 25  2  0
 19 26  2  0
 26 27  1  0
 27 28  3  0
  8 29  1  0
 29 30  2  0
 30  5  1  0
 26 14  1  0
 25 20  1  0
M  END
>  <Binding energies>  (117) 
[-9.25]

>  <Ligand effiencies>  (117) 
[-0.29838709677419356]

>  <Interactions>  (117) 
["V-A:ASP:366:CG:3213, V-B:TYR:539:CZ:9849, V-B:PRO:540:N:9856, V-B:PRO:540:CB:9857, V-B:PRO:540:CA:9855, V-B:TYR:539:CE2:9848, V-B:PRO:540:CD:9859, V-B:MET:535:CE:9807, V-B:LEU:363:CD1:8160, V-B:TYR:539:C:9839, V-B:TYR:539:CG:9844, V-B:PRO:540:C:9853, H-B:ALA:541:N:9863, V-B:TYR:539:CD2:9846, V-B:GLU:543:CG:9879, V-B:GLU:543:CB:9878, H-A:TYR:484:OH:4348, V-A:GLU:543:CD:4908, V-B:GLU:543:CD:9880, V-B:HIS:456:CE1:9041, V-A:GLY:544:C:4912, H-A:LYS:547:NZ:4951, V-B:GLU:543:C:9874, V-B:HIS:456:CD2:9039, V-B:LYS:547:CE:9922, V-A:HIS:456:CE1:4070, V-A:GLU:543:C:4902, V-A:GLU:543:CB:4906, V-B:HIS:456:CG:9037, H-B:LYS:547:NZ:9923, H-A:GLU:543:OE1:4909, V-A:ARG:545:CG:4922, H-A:GLU:543:OE2:4910, V-B:GLU:543:CA:9876"]

$$$$
3ch_Grossjean_2025
     RDKit          3D

 32 34  0  0  0  0  0  0  0  0999 V2000
  132.4930  131.7420   54.9410 C   0  0  0  0  0  0  0  0  0  0  0  0
  131.7350  132.5660   55.8200 O   0  0  0  0  0  0  0  0  0  0  0  0
  131.0660  131.9910   56.8860 C   0  0  0  0  0  0  0  0  0  0  0  0
  131.5570  130.9040   57.6270 C   0  0  0  0  0  0  0  0  0  0  0  0
  130.8260  130.3790   58.7030 C   0  0  0  0  0  0  0  0  0  0  0  0
  131.2370  129.2980   59.5060 N   0  0  0  0  0  0  0  0  0  0  0  0
  130.6490  128.0980   59.7040 C   0  0  0  0  0  0  0  0  0  0  0  0
  129.6020  127.7200   59.1780 O   0  0  0  0  0  0  0  0  0  0  0  0
  131.3960  127.1420   60.6330 C   0  0  0  0  0  0  0  0  0  0  0  0
  131.8140  125.5740   59.8130 S   0  0  0  0  0  0  0  0  0  0  0  0
  130.3740  124.5400   59.9640 C   0  0  0  0  0  0  0  0  0  0  0  0
  130.2620  123.9250   61.1670 N   0  0  0  0  0  0  0  0  0  0  0  0
  129.2050  123.1090   61.3800 C   0  0  0  0  0  0  0  0  0  0  0  0
  129.1440  122.4490   62.7440 C   0  0  0  0  0  0  0  0  0  0  0  0
  128.2300  122.8760   60.4130 C   0  0  0  0  0  0  0  0  0  0  0  0
  128.3230  123.5090   59.1660 C   0  0  0  0  0  0  0  0  0  0  0  0
  127.2590  123.2210   58.1560 C   0  0  0  0  0  0  0  0  0  0  0  0
  127.5950  122.6380   56.9280 C   0  0  0  0  0  0  0  0  0  0  0  0
  126.6100  122.3750   55.9790 C   0  0  0  0  0  0  0  0  0  0  0  0
  125.2840  122.6980   56.2540 C   0  0  0  0  0  0  0  0  0  0  0  0
  124.9350  123.2840   57.4680 C   0  0  0  0  0  0  0  0  0  0  0  0
  125.9230  123.5470   58.4140 C   0  0  0  0  0  0  0  0  0  0  0  0
  129.4160  124.3820   58.9340 C   0  0  0  0  0  0  0  0  0  0  0  0
  129.5140  125.1430   57.6840 C   0  0  0  0  0  0  0  0  0  0  0  0
  129.5930  125.7420   56.6980 N   0  0  0  0  0  0  0  0  0  0  0  0
  129.5880  130.9390   59.0220 C   0  0  0  0  0  0  0  0  0  0  0  0
  129.0750  132.0250   58.2950 C   0  0  0  0  0  0  0  0  0  0  0  0
  127.8600  132.6300   58.5640 O   0  0  0  0  0  0  0  0  0  0  0  0
  127.4900  132.8890   59.9140 C   0  0  0  0  0  0  0  0  0  0  0  0
  129.8230  132.5400   57.2280 C   0  0  0  0  0  0  0  0  0  0  0  0
  129.3400  133.6140   56.5200 O   0  0  0  0  0  0  0  0  0  0  0  0
  128.4150  133.2670   55.4990 C   0  0  0  0  0  0  0  0  0  0  0  0
  1  2  1  0
  2  3  1  0
  3  4  2  0
  4  5  1  0
  5  6  1  0
  6  7  1  0
  7  8  2  0
  7  9  1  0
  9 10  1  0
 10 11  1  0
 11 12  2  0
 12 13  1  0
 13 14  1  0
 13 15  2  0
 15 16  1  0
 16 17  1  0
 17 18  2  0
 18 19  1  0
 19 20  2  0
 20 21  1  0
 21 22  2  0
 16 23  2  0
 23 24  1  0
 24 25  3  0
  5 26  2  0
 26 27  1  0
 27 28  1  0
 28 29  1  0
 27 30  2  0
 30 31  1  0
 31 32  1  0
 30  3  1  0
 23 11  1  0
 22 17  1  0
M  END
>  <Binding energies>  (118) 
[-7.85]

>  <Ligand effiencies>  (118) 
[-0.23787878787878786]

>  <Interactions>  (118) 
["V-A:LEU:363:CD1:3189, V-A:ASP:366:CG:3213, H-A:TYR:531:OH:4795, H-B:TYR:539:OH:9850, H-A:ASP:366:OD2:3215, H-A:TYR:539:N:4870, V-B:TYR:539:CZ:9849, V-B:PRO:540:N:9856, V-B:TYR:539:CE1:9847, V-B:PRO:540:CB:9857, V-B:TYR:539:CD1:9845, V-B:PRO:540:CA:9855, V-B:TYR:539:CE2:9848, V-B:PRO:540:CD:9859, V-B:MET:535:CE:9807, V-B:LEU:363:CD1:8160, V-B:TYR:539:C:9839, V-B:TYR:539:CG:9844, V-B:TYR:539:CD2:9846, V-A:MET:535:CE:4835, V-B:ALA:541:CB:9864, V-A:TYR:531:CZ:4794, V-A:TYR:539:CE1:4875, V-A:TYR:539:CZ:4877, V-B:ILE:538:CG2:9835, V-A:TYR:539:CD1:4873, V-A:TYR:539:CD2:4874, V-A:ILE:538:CA:4860, V-A:TYR:539:CG:4872, V-A:TYR:539:CE2:4876, V-A:TYR:531:CE2:4793, V-A:ILE:538:C:4858, V-A:ILE:538:CG2:4863, V-A:ILE:538:CB:4862, V-B:ILE:538:CA:9832, V-A:MET:535:CG:4833, V-A:TYR:531:CD2:4791"]

$$$$
3ci_Grossjean_2025
     RDKit          3D

 25 27  0  0  0  0  0  0  0  0999 V2000
  129.8980  121.7670   62.1650 C   0  0  0  0  0  0  0  0  0  0  0  0
  129.7360  122.6280   60.9270 C   0  0  0  0  0  0  0  0  0  0  0  0
  128.6040  122.5430   60.1210 C   0  0  0  0  0  0  0  0  0  0  0  0
  128.4930  123.3710   58.9950 C   0  0  0  0  0  0  0  0  0  0  0  0
  127.2540  123.2570   58.1680 C   0  0  0  0  0  0  0  0  0  0  0  0
  126.0660  123.8830   58.5660 C   0  0  0  0  0  0  0  0  0  0  0  0
  124.9120  123.7660   57.7960 C   0  0  0  0  0  0  0  0  0  0  0  0
  124.9400  123.0150   56.6240 C   0  0  0  0  0  0  0  0  0  0  0  0
  126.1100  122.3780   56.2190 C   0  0  0  0  0  0  0  0  0  0  0  0
  127.2620  122.4980   56.9910 C   0  0  0  0  0  0  0  0  0  0  0  0
  129.5550  124.2670   58.7090 C   0  0  0  0  0  0  0  0  0  0  0  0
  129.5130  125.1270   57.5210 C   0  0  0  0  0  0  0  0  0  0  0  0
  129.4780  125.8060   56.5840 N   0  0  0  0  0  0  0  0  0  0  0  0
  130.6670  124.2920   59.5850 C   0  0  0  0  0  0  0  0  0  0  0  0
  132.0500  125.3970   59.3320 S   0  0  0  0  0  0  0  0  0  0  0  0
  133.6000  124.5380   59.7580 C   0  0  0  0  0  0  0  0  0  0  0  0
  133.9450  124.6070   61.2500 C   0  0  0  0  0  0  0  0  0  0  0  0
  135.1150  124.4540   61.6060 O   0  0  0  0  0  0  0  0  0  0  0  0
  132.9030  124.8230   62.0830 N   0  0  0  0  0  0  0  0  0  0  0  0
  132.9440  124.9570   63.4640 C   0  0  0  0  0  0  0  0  0  0  0  0
  131.8440  125.3540   64.2230 C   0  0  0  0  0  0  0  0  0  0  0  0
  132.2910  125.3650   65.5250 C   0  0  0  0  0  0  0  0  0  0  0  0
  133.5940  124.9920   65.5470 O   0  0  0  0  0  0  0  0  0  0  0  0
  133.9960  124.7370   64.2350 N   0  0  0  0  0  0  0  0  0  0  0  0
  130.7520  123.4790   60.6680 N   0  0  0  0  0  0  0  0  0  0  0  0
  1  2  1  0
  2  3  2  0
  3  4  1  0
  4  5  1  0
  5  6  2  0
  6  7  1  0
  7  8  2  0
  8  9  1  0
  9 10  2  0
  4 11  2  0
 11 12  1  0
 12 13  3  0
 11 14  1  0
 14 15  1  0
 15 16  1  0
 16 17  1  0
 17 18  2  0
 17 19  1  0
 19 20  1  0
 20 21  1  0
 21 22  2  0
 22 23  1  0
 23 24  1  0
 14 25  2  0
 25  2  1  0
 10  5  1  0
 24 20  2  0
M  END
>  <Binding energies>  (119) 
[-7.73]

>  <Ligand effiencies>  (119) 
[-0.29730769230769233]

>  <Interactions>  (119) 
["V-A:ASP:366:CG:3213, H-A:TYR:531:OH:4795, H-B:TYR:539:OH:9850, V-A:ASP:366:CB:3212, V-B:TYR:539:CZ:9849, V-B:PRO:540:N:9856, V-B:TYR:539:CE1:9847, V-B:PRO:540:CB:9857, V-B:TYR:539:CD1:9845, V-B:PRO:540:CA:9855, V-B:TYR:539:CE2:9848, V-B:PRO:540:CD:9859, V-B:MET:535:CE:9807, V-B:LEU:363:CD1:8160, V-B:TYR:539:C:9839, V-B:TYR:539:CG:9844, V-B:TYR:539:CD2:9846, V-B:ALA:541:CB:9864, V-A:ASP:366:CA:3210, V-A:ILE:369:CD1:3239, V-A:ILE:369:CG2:3237, V-A:LEU:475:CD2:4259, H-A:TYR:484:OH:4348, H-A:ARG:545:NE:4924, V-A:ARG:545:CZ:4926, H-A:ARG:545:NH2:4928, H-A:GLY:454:N:4050, V-B:ILE:538:CG2:9835, H-A:ARG:545:NH1:4927"]

$$$$
3ck_Grossjean_2025
     RDKit          3D

 30 31  0  0  0  0  0  0  0  0999 V2000
  125.0390  122.5190   56.6420 C   0  0  0  0  0  0  0  0  0  0  0  0
  126.1420  121.6990   56.2900 O   0  0  0  0  0  0  0  0  0  0  0  0
  127.2700  122.4320   55.8310 C   0  0  0  0  0  0  0  0  0  0  0  0
  127.7580  123.3710   56.9420 C   0  0  0  0  0  0  0  0  0  0  0  0
  127.6140  122.7250   58.2010 O   0  0  0  0  0  0  0  0  0  0  0  0
  127.2100  123.5940   59.2510 C   0  0  0  0  0  0  0  0  0  0  0  0
  127.9250  124.9410   59.0900 C   0  0  0  0  0  0  0  0  0  0  0  0
  129.2690  124.7890   59.5210 O   0  0  0  0  0  0  0  0  0  0  0  0
  130.2350  124.8280   58.4820 C   0  0  0  0  0  0  0  0  0  0  0  0
  131.2900  125.9050   58.8010 C   0  0  0  0  0  0  0  0  0  0  0  0
  132.3900  125.4220   59.6420 N   0  0  0  0  0  0  0  0  0  0  0  0
  133.3790  124.6010   59.2450 C   0  0  0  0  0  0  0  0  0  0  0  0
  133.4820  124.1750   58.0930 O   0  0  0  0  0  0  0  0  0  0  0  0
  134.3970  124.2190   60.3310 C   0  0  0  0  0  0  0  0  0  0  0  0
  133.9600  122.7590   61.3370 S   0  0  0  0  0  0  0  0  0  0  0  0
  132.3010  122.9600   61.9700 C   0  0  0  0  0  0  0  0  0  0  0  0
  131.3320  122.2890   61.2970 N   0  0  0  0  0  0  0  0  0  0  0  0
  130.0530  122.3990   61.7180 C   0  0  0  0  0  0  0  0  0  0  0  0
  129.0260  121.6230   60.9160 C   0  0  0  0  0  0  0  0  0  0  0  0
  129.6870  123.1750   62.8150 C   0  0  0  0  0  0  0  0  0  0  0  0
  130.6700  123.8820   63.5210 C   0  0  0  0  0  0  0  0  0  0  0  0
  130.2290  124.7190   64.6760 C   0  0  0  0  0  0  0  0  0  0  0  0
  129.5630  125.9300   64.4530 C   0  0  0  0  0  0  0  0  0  0  0  0
  129.1570  126.7220   65.5260 C   0  0  0  0  0  0  0  0  0  0  0  0
  129.4240  126.3070   66.8270 C   0  0  0  0  0  0  0  0  0  0  0  0
  130.0940  125.1090   67.0660 C   0  0  0  0  0  0  0  0  0  0  0  0
  130.4970  124.3200   65.9920 C   0  0  0  0  0  0  0  0  0  0  0  0
  132.0190  123.7650   63.0970 C   0  0  0  0  0  0  0  0  0  0  0  0
  133.0950  124.4490   63.8240 C   0  0  0  0  0  0  0  0  0  0  0  0
  133.9430  124.9890   64.3970 N   0  0  0  0  0  0  0  0  0  0  0  0
  1  2  1  0
  2  3  1  0
  3  4  1  0
  4  5  1  0
  5  6  1  0
  6  7  1  0
  7  8  1  0
  8  9  1  0
  9 10  1  0
 10 11  1  0
 11 12  1  0
 12 13  2  0
 12 14  1  0
 14 15  1  0
 15 16  1  0
 16 17  2  0
 17 18  1  0
 18 19  1  0
 18 20  2  0
 20 21  1  0
 21 22  1  0
 22 23  2  0
 23 24  1  0
 24 25  2  0
 25 26  1  0
 26 27  2  0
 21 28  2  0
 28 29  1  0
 29 30  3  0
 28 16  1  0
 27 22  1  0
M  END
>  <Binding energies>  (120) 
[-7.21]

>  <Ligand effiencies>  (120) 
[-0.23258064516129032]

>  <Interactions>  (120) 
["V-A:ASP:366:CG:3213, H-B:TYR:539:OH:9850, H-A:ASP:366:OD2:3215, V-A:ASP:366:CB:3212, V-B:TYR:539:CZ:9849, V-B:PRO:540:N:9856, V-B:TYR:539:CE1:9847, V-B:PRO:540:CB:9857, V-B:TYR:539:CD1:9845, V-B:PRO:540:CA:9855, V-B:TYR:539:CE2:9848, H-B:TYR:539:N:9842, V-B:PRO:540:CD:9859, V-B:MET:535:CE:9807, V-B:LEU:363:CD1:8160, V-B:PRO:540:CG:9858, V-B:TYR:539:C:9839, V-B:TYR:539:CG:9844, V-B:PRO:540:C:9853, V-B:TYR:539:CD2:9846, V-B:ALA:541:CB:9864, V-A:ASP:366:CA:3210, V-A:ILE:369:CD1:3239, V-B:GLU:543:CG:9879, V-A:ILE:369:CB:3236, V-A:ILE:369:CG2:3237, V-A:LEU:475:CD2:4259, V-A:TYR:484:CZ:4347, V-B:GLU:543:CB:9878, H-A:TYR:484:OH:4348, V-A:GLU:543:CD:4908, V-A:TYR:484:CE2:4346, H-A:ARG:545:NE:4924, V-A:ARG:545:CZ:4926, V-B:GLU:543:CD:9880, V-A:HIS:456:CE1:4070, H-A:ARG:545:NH2:4928, H-A:GLY:454:N:4050, V-B:ILE:538:CG2:9835, V-B:ILE:538:CA:9832, H-A:ASP:366:OD1:3214, H-A:ARG:545:NH1:4927"]

$$$$
4aa_Grossjean_2025
     RDKit          3D

 26 28  0  0  0  0  0  0  0  0999 V2000
  130.4780  127.9470   69.4710 C   0  0  0  0  0  0  0  0  0  0  0  0
  131.6370  127.4540   68.5990 C   0  0  0  0  0  0  0  0  0  0  0  0
  131.2320  126.2920   67.8880 O   0  0  0  0  0  0  0  0  0  0  0  0
  132.0460  125.7130   66.9680 C   0  0  0  0  0  0  0  0  0  0  0  0
  133.2450  125.4880   67.1660 O   0  0  0  0  0  0  0  0  0  0  0  0
  131.3460  125.3770   65.6830 C   0  0  0  0  0  0  0  0  0  0  0  0
  130.2050  124.5640   65.7180 C   0  0  0  0  0  0  0  0  0  0  0  0
  129.5370  124.2310   64.5430 C   0  0  0  0  0  0  0  0  0  0  0  0
  129.9880  124.7100   63.3130 C   0  0  0  0  0  0  0  0  0  0  0  0
  129.2430  124.3040   62.1890 N   0  0  0  0  0  0  0  0  0  0  0  0
  128.1860  123.4610   62.0990 C   0  0  0  0  0  0  0  0  0  0  0  0
  127.7100  122.8440   63.0530 O   0  0  0  0  0  0  0  0  0  0  0  0
  127.6320  123.2940   60.7540 C   0  0  0  0  0  0  0  0  0  0  0  0
  128.5190  122.3780   59.5330 S   0  0  0  0  0  0  0  0  0  0  0  0
  127.2850  122.6910   58.3340 C   0  0  0  0  0  0  0  0  0  0  0  0
  127.3770  122.2230   57.0880 N   0  0  0  0  0  0  0  0  0  0  0  0
  126.3550  122.5420   56.2570 C   0  0  0  0  0  0  0  0  0  0  0  0
  126.4810  122.0050   54.8430 C   0  0  0  0  0  0  0  0  0  0  0  0
  125.2530  123.3050   56.6390 C   0  0  0  0  0  0  0  0  0  0  0  0
  125.1600  123.7930   57.9470 C   0  0  0  0  0  0  0  0  0  0  0  0
  123.9390  124.6210   58.3170 C   0  0  0  0  0  0  0  0  0  0  0  0
  126.2150  123.4830   58.8470 C   0  0  0  0  0  0  0  0  0  0  0  0
  126.4400  123.8170   60.2290 C   0  0  0  0  0  0  0  0  0  0  0  0
  125.5550  124.5770   60.9510 N   0  0  0  0  0  0  0  0  0  0  0  0
  131.1320  125.5190   63.2670 C   0  0  0  0  0  0  0  0  0  0  0  0
  131.8020  125.8490   64.4430 C   0  0  0  0  0  0  0  0  0  0  0  0
  1  2  1  0
  2  3  1  0
  3  4  1  0
  4  5  2  0
  4  6  1  0
  6  7  2  0
  7  8  1  0
  8  9  2  0
  9 10  1  0
 10 11  1  0
 11 12  2  0
 11 13  1  0
 13 14  1  0
 14 15  1  0
 15 16  2  0
 16 17  1  0
 17 18  1  0
 17 19  2  0
 19 20  1  0
 20 21  1  0
 20 22  2  0
 22 23  1  0
 23 24  1  0
  9 25  1  0
 25 26  2  0
 26  6  1  0
 23 13  2  0
 22 15  1  0
M  END
>  <Binding energies>  (121) 
[-7.22]

>  <Ligand effiencies>  (121) 
[-0.2489655172413793]

>  <Interactions>  (121) 
["V-B:PRO:540:N:9856, V-B:PRO:540:CB:9857, V-B:TYR:539:CD1:9845, V-B:PRO:540:CA:9855, V-B:TYR:539:CE2:9848, H-B:TYR:539:N:9842, V-B:ASP:366:CB:8183, V-B:PRO:540:CD:9859, H-B:ASP:366:OD1:8185, V-B:ASP:366:CG:8184, V-B:MET:535:CE:9807, V-B:LEU:363:CD1:8160, V-B:TYR:539:C:9839, H-B:GLU:543:OE1:9881, H-B:ALA:541:N:9863, V-B:TYR:539:CD2:9846, V-B:LEU:363:CA:8156, V-B:TYR:531:CE2:9765, V-B:GLU:543:CG:9879, V-A:TYR:484:CZ:4347, H-A:TYR:484:OH:4348, V-A:GLU:543:CD:4908, V-A:TYR:484:CE2:4346, H-A:ARG:545:NE:4924, V-A:ARG:545:CZ:4926, V-B:GLU:543:CD:9880, V-A:HIS:456:CE1:4070, V-A:GLU:543:C:4902, V-A:GLU:543:CB:4906, V-A:ARG:545:CG:4922, H-A:HIS:456:ND1:4067, V-B:ILE:538:CG2:9835, V-B:ILE:538:CA:9832, V-B:ILE:538:C:9830, V-B:LEU:363:CB:8158, V-B:ILE:538:CB:9834, V-B:ILE:538:CG1:9836"]

$$$$
4ab_Grossjean_2025
     RDKit          3D

 25 27  0  0  0  0  0  0  0  0999 V2000
  130.1290  126.7460   67.8750 C   0  0  0  0  0  0  0  0  0  0  0  0
  131.5470  126.6630   67.8910 O   0  0  0  0  0  0  0  0  0  0  0  0
  132.2030  125.7660   67.1110 C   0  0  0  0  0  0  0  0  0  0  0  0
  133.3570  125.3840   67.3350 O   0  0  0  0  0  0  0  0  0  0  0  0
  131.3890  125.2890   65.9430 C   0  0  0  0  0  0  0  0  0  0  0  0
  131.7340  125.7110   64.6520 C   0  0  0  0  0  0  0  0  0  0  0  0
  130.9970  125.2870   63.5490 C   0  0  0  0  0  0  0  0  0  0  0  0
  129.9100  124.4290   63.7110 C   0  0  0  0  0  0  0  0  0  0  0  0
  129.2340  124.0710   62.5300 N   0  0  0  0  0  0  0  0  0  0  0  0
  128.1740  123.2460   62.3460 C   0  0  0  0  0  0  0  0  0  0  0  0
  127.6270  122.6090   63.2460 O   0  0  0  0  0  0  0  0  0  0  0  0
  127.7070  123.1290   60.9630 C   0  0  0  0  0  0  0  0  0  0  0  0
  128.6460  122.2120   59.7810 S   0  0  0  0  0  0  0  0  0  0  0  0
  127.5060  122.5910   58.5100 C   0  0  0  0  0  0  0  0  0  0  0  0
  127.6680  122.1520   57.2620 N   0  0  0  0  0  0  0  0  0  0  0  0
  126.7140  122.5190   56.3720 C   0  0  0  0  0  0  0  0  0  0  0  0
  126.9200  122.0120   54.9570 C   0  0  0  0  0  0  0  0  0  0  0  0
  125.6110  123.3050   56.6990 C   0  0  0  0  0  0  0  0  0  0  0  0
  125.4440  123.7660   58.0100 C   0  0  0  0  0  0  0  0  0  0  0  0
  124.2250  124.6220   58.3170 C   0  0  0  0  0  0  0  0  0  0  0  0
  126.4270  123.4040   58.9710 C   0  0  0  0  0  0  0  0  0  0  0  0
  126.5700  123.7010   60.3710 C   0  0  0  0  0  0  0  0  0  0  0  0
  125.6630  124.4730   61.0520 N   0  0  0  0  0  0  0  0  0  0  0  0
  129.5540  124.0050   65.0000 C   0  0  0  0  0  0  0  0  0  0  0  0
  130.2900  124.4310   66.1030 C   0  0  0  0  0  0  0  0  0  0  0  0
  1  2  1  0
  2  3  1  0
  3  4  2  0
  3  5  1  0
  5  6  2  0
  6  7  1  0
  7  8  2  0
  8  9  1  0
  9 10  1  0
 10 11  2  0
 10 12  1  0
 12 13  1  0
 13 14  1  0
 14 15  2  0
 15 16  1  0
 16 17  1  0
 16 18  2  0
 18 19  1  0
 19 20  1  0
 19 21  2  0
 21 22  1  0
 22 23  1  0
  8 24  1  0
 24 25  2  0
 25  5  1  0
 22 12  2  0
 21 14  1  0
M  END
>  <Binding energies>  (122) 
[-7.58]

>  <Ligand effiencies>  (122) 
[-0.27071428571428574]

>  <Interactions>  (122) 
["V-B:PRO:540:N:9856, V-B:TYR:539:CE1:9847, V-B:PRO:540:CB:9857, V-B:TYR:539:CD1:9845, V-B:PRO:540:CA:9855, V-B:TYR:539:CE2:9848, H-B:TYR:539:N:9842, V-B:ASP:366:CB:8183, V-B:PRO:540:CD:9859, H-B:ASP:366:OD1:8185, V-B:ASP:366:CG:8184, V-B:MET:535:CE:9807, V-B:LEU:363:CD1:8160, V-B:TYR:539:C:9839, H-B:GLU:543:OE1:9881, H-B:ALA:541:N:9863, V-B:TYR:539:CD2:9846, V-B:LEU:363:CA:8156, V-B:TYR:531:CE2:9765, V-B:ALA:541:CB:9864, V-B:GLU:543:CG:9879, V-A:TYR:484:CZ:4347, V-B:GLU:543:CB:9878, H-A:TYR:484:OH:4348, V-A:GLU:543:CD:4908, V-A:TYR:484:CE2:4346, H-A:ARG:545:NE:4924, V-A:ARG:545:CZ:4926, V-B:GLU:543:CD:9880, V-A:HIS:456:CE1:4070, V-A:GLU:543:CB:4906, V-A:ARG:545:CG:4922, H-A:HIS:456:ND1:4067, V-B:ILE:538:CG2:9835, V-B:ILE:538:CA:9832, V-B:ILE:538:C:9830, V-A:ARG:545:CD:4923, V-B:ILE:538:CB:9834, V-B:ILE:538:CG1:9836"]

$$$$
4ac_Grossjean_2025
     RDKit          3D

 23 25  0  0  0  0  0  0  0  0999 V2000
  129.9000  127.1300   68.2000 C   0  0  0  0  0  0  0  0  0  0  0  0
  130.7120  126.1700   67.5320 O   0  0  0  0  0  0  0  0  0  0  0  0
  130.2690  125.6220   66.3440 C   0  0  0  0  0  0  0  0  0  0  0  0
  129.6070  126.4820   65.4700 C   0  0  0  0  0  0  0  0  0  0  0  0
  129.1250  126.0190   64.2480 C   0  0  0  0  0  0  0  0  0  0  0  0
  129.3080  124.6860   63.8810 C   0  0  0  0  0  0  0  0  0  0  0  0
  128.7760  124.3050   62.6350 N   0  0  0  0  0  0  0  0  0  0  0  0
  127.8070  123.4010   62.3570 C   0  0  0  0  0  0  0  0  0  0  0  0
  127.2390  122.7150   63.2100 O   0  0  0  0  0  0  0  0  0  0  0  0
  127.4590  123.2680   60.9400 C   0  0  0  0  0  0  0  0  0  0  0  0
  128.5060  122.3640   59.8460 S   0  0  0  0  0  0  0  0  0  0  0  0
  127.4480  122.6850   58.4910 C   0  0  0  0  0  0  0  0  0  0  0  0
  127.7110  122.2290   57.2660 N   0  0  0  0  0  0  0  0  0  0  0  0
  126.8100  122.5490   56.3050 C   0  0  0  0  0  0  0  0  0  0  0  0
  127.1270  122.0200   54.9190 C   0  0  0  0  0  0  0  0  0  0  0  0
  125.6660  123.3110   56.5380 C   0  0  0  0  0  0  0  0  0  0  0  0
  125.3940  123.7890   57.8250 C   0  0  0  0  0  0  0  0  0  0  0  0
  124.1330  124.6140   58.0290 C   0  0  0  0  0  0  0  0  0  0  0  0
  126.3150  123.4700   58.8590 C   0  0  0  0  0  0  0  0  0  0  0  0
  126.3440  123.7870   60.2620 C   0  0  0  0  0  0  0  0  0  0  0  0
  125.3630  124.5330   60.8640 N   0  0  0  0  0  0  0  0  0  0  0  0
  129.9620  123.8100   64.7600 C   0  0  0  0  0  0  0  0  0  0  0  0
  130.4420  124.2770   65.9810 C   0  0  0  0  0  0  0  0  0  0  0  0
  1  2  1  0
  2  3  1  0
  3  4  2  0
  4  5  1  0
  5  6  2  0
  6  7  1  0
  7  8  1  0
  8  9  2  0
  8 10  1  0
 10 11  1  0
 11 12  1  0
 12 13  2  0
 13 14  1  0
 14 15  1  0
 14 16  2  0
 16 17  1  0
 17 18  1  0
 17 19  2  0
 19 20  1  0
 20 21  1  0
  6 22  1  0
 22 23  2  0
 23  3  1  0
 20 10  2  0
 19 12  1  0
M  END
>  <Binding energies>  (123) 
[-7.19]

>  <Ligand effiencies>  (123) 
[-0.27653846153846157]

>  <Interactions>  (123) 
["V-B:PRO:540:N:9856, V-B:TYR:539:CE1:9847, V-B:PRO:540:CB:9857, V-B:TYR:539:CD1:9845, V-B:PRO:540:CA:9855, V-B:TYR:539:CE2:9848, H-B:TYR:539:N:9842, V-B:ASP:366:CB:8183, H-B:ASP:366:OD1:8185, V-B:ASP:366:CG:8184, V-B:MET:535:CE:9807, V-B:LEU:363:CD1:8160, V-B:TYR:539:C:9839, V-B:TYR:539:CG:9844, H-B:GLU:543:OE1:9881, H-B:ALA:541:N:9863, V-B:TYR:539:CD2:9846, V-B:LEU:363:CA:8156, V-B:TYR:531:CE2:9765, V-B:GLU:543:CG:9879, V-A:TYR:484:CZ:4347, V-A:GLU:543:CD:4908, V-A:TYR:484:CE2:4346, V-B:GLU:543:CD:9880, V-A:HIS:456:CE1:4070, V-A:GLU:543:CB:4906, V-B:ILE:538:CG2:9835, V-B:ILE:538:CA:9832, V-B:ILE:538:C:9830, V-B:ILE:538:CB:9834"]

$$$$
4ad_Grossjean_2025
     RDKit          3D

 21 23  0  0  0  0  0  0  0  0999 V2000
  126.8940  122.0020   55.0410 C   0  0  0  0  0  0  0  0  0  0  0  0
  126.6990  122.5260   56.4520 C   0  0  0  0  0  0  0  0  0  0  0  0
  125.5560  123.2410   56.8010 C   0  0  0  0  0  0  0  0  0  0  0  0
  125.3990  123.7160   58.1090 C   0  0  0  0  0  0  0  0  0  0  0  0
  124.1350  124.4940   58.4410 C   0  0  0  0  0  0  0  0  0  0  0  0
  126.4350  123.4430   59.0420 C   0  0  0  0  0  0  0  0  0  0  0  0
  126.5990  123.7710   60.4330 C   0  0  0  0  0  0  0  0  0  0  0  0
  125.6540  124.4770   61.1340 N   0  0  0  0  0  0  0  0  0  0  0  0
  127.7990  123.3040   60.9920 C   0  0  0  0  0  0  0  0  0  0  0  0
  128.2930  123.4700   62.3600 C   0  0  0  0  0  0  0  0  0  0  0  0
  127.7080  122.9410   63.3080 O   0  0  0  0  0  0  0  0  0  0  0  0
  129.4150  124.2200   62.4860 N   0  0  0  0  0  0  0  0  0  0  0  0
  130.1120  124.6020   63.6490 C   0  0  0  0  0  0  0  0  0  0  0  0
  131.5060  124.6070   63.5520 C   0  0  0  0  0  0  0  0  0  0  0  0
  132.2840  124.9800   64.6450 C   0  0  0  0  0  0  0  0  0  0  0  0
  131.6670  125.3570   65.8340 C   0  0  0  0  0  0  0  0  0  0  0  0
  130.2780  125.3700   65.9390 C   0  0  0  0  0  0  0  0  0  0  0  0
  129.4980  124.9960   64.8490 C   0  0  0  0  0  0  0  0  0  0  0  0
  128.7620  122.4330   59.7960 S   0  0  0  0  0  0  0  0  0  0  0  0
  127.5550  122.7010   58.5590 C   0  0  0  0  0  0  0  0  0  0  0  0
  127.7070  122.2460   57.3140 N   0  0  0  0  0  0  0  0  0  0  0  0
  1  2  1  0
  2  3  2  0
  3  4  1  0
  4  5  1  0
  4  6  2  0
  6  7  1  0
  7  8  1  0
  7  9  2  0
  9 10  1  0
 10 11  2  0
 10 12  1  0
 12 13  1  0
 13 14  2  0
 14 15  1  0
 15 16  2  0
 16 17  1  0
 17 18  2  0
  9 19  1  0
 19 20  1  0
 20 21  2  0
 21  2  1  0
 20  6  1  0
 18 13  1  0
M  END
>  <Binding energies>  (124) 
[-7.36]

>  <Ligand effiencies>  (124) 
[-0.3066666666666667]

>  <Interactions>  (124) 
["V-B:PRO:540:N:9856, V-B:TYR:539:CE1:9847, V-B:PRO:540:CB:9857, V-B:TYR:539:CD1:9845, V-B:PRO:540:CA:9855, V-B:TYR:539:CE2:9848, H-B:TYR:539:N:9842, V-B:ASP:366:CB:8183, V-B:PRO:540:CD:9859, H-B:ASP:366:OD1:8185, V-B:ASP:366:CG:8184, V-B:MET:535:CE:9807, V-B:LEU:363:CD1:8160, V-B:TYR:539:C:9839, H-B:GLU:543:OE1:9881, H-B:ALA:541:N:9863, V-B:TYR:539:CD2:9846, V-B:LEU:363:CA:8156, V-B:GLU:543:CG:9879, V-B:GLU:543:CB:9878, V-A:ARG:545:CZ:4926, V-B:GLU:543:CD:9880, V-B:ILE:538:CG2:9835, V-B:ILE:538:CA:9832, V-B:ILE:538:C:9830, V-B:ILE:538:CB:9834, V-B:ILE:538:CG1:9836"]

$$$$
4ae_Grossjean_2025
     RDKit          3D

 22 24  0  0  0  0  0  0  0  0999 V2000
  129.5230  125.7340   67.0490 C   0  0  0  0  0  0  0  0  0  0  0  0
  130.2860  125.3180   65.8060 C   0  0  0  0  0  0  0  0  0  0  0  0
  131.6820  125.3070   65.7750 C   0  0  0  0  0  0  0  0  0  0  0  0
  132.3160  124.9200   64.5940 C   0  0  0  0  0  0  0  0  0  0  0  0
  131.5480  124.5600   63.4850 C   0  0  0  0  0  0  0  0  0  0  0  0
  130.1530  124.5860   63.5860 C   0  0  0  0  0  0  0  0  0  0  0  0
  129.4350  124.2330   62.4310 N   0  0  0  0  0  0  0  0  0  0  0  0
  128.3300  123.4530   62.3240 C   0  0  0  0  0  0  0  0  0  0  0  0
  127.7780  122.9110   63.2830 O   0  0  0  0  0  0  0  0  0  0  0  0
  127.8130  123.2800   60.9650 C   0  0  0  0  0  0  0  0  0  0  0  0
  128.7540  122.3990   59.7600 S   0  0  0  0  0  0  0  0  0  0  0  0
  127.5390  122.6810   58.5350 C   0  0  0  0  0  0  0  0  0  0  0  0
  127.6760  122.2280   57.2880 N   0  0  0  0  0  0  0  0  0  0  0  0
  126.6650  122.5200   56.4350 C   0  0  0  0  0  0  0  0  0  0  0  0
  126.8440  122.0010   55.0190 C   0  0  0  0  0  0  0  0  0  0  0  0
  125.5300  123.2440   56.7960 C   0  0  0  0  0  0  0  0  0  0  0  0
  125.3890  123.7160   58.1060 C   0  0  0  0  0  0  0  0  0  0  0  0
  124.1350  124.5050   58.4510 C   0  0  0  0  0  0  0  0  0  0  0  0
  126.4310  123.4320   59.0300 C   0  0  0  0  0  0  0  0  0  0  0  0
  126.6110  123.7590   60.4190 C   0  0  0  0  0  0  0  0  0  0  0  0
  125.6830  124.4770   61.1300 N   0  0  0  0  0  0  0  0  0  0  0  0
  129.5260  124.9700   64.7370 N   0  0  0  0  0  0  0  0  0  0  0  0
  1  2  1  0
  2  3  2  0
  3  4  1  0
  4  5  2  0
  5  6  1  0
  6  7  1  0
  7  8  1  0
  8  9  2  0
  8 10  1  0
 10 11  1  0
 11 12  1  0
 12 13  2  0
 13 14  1  0
 14 15  1  0
 14 16  2  0
 16 17  1  0
 17 18  1  0
 17 19  2  0
 19 20  1  0
 20 21  1  0
  6 22  2  0
 22  2  1  0
 20 10  2  0
 19 12  1  0
M  END
>  <Binding energies>  (125) 
[-7.62]

>  <Ligand effiencies>  (125) 
[-0.3048]

>  <Interactions>  (125) 
["V-B:PRO:540:N:9856, V-B:TYR:539:CE1:9847, V-B:PRO:540:CB:9857, V-B:TYR:539:CD1:9845, V-B:PRO:540:CA:9855, V-B:TYR:539:CE2:9848, H-B:TYR:539:N:9842, V-B:ASP:366:CB:8183, V-B:PRO:540:CD:9859, H-B:ASP:366:OD1:8185, V-B:ASP:366:CG:8184, V-B:MET:535:CE:9807, V-B:LEU:363:CD1:8160, V-B:TYR:539:C:9839, H-B:GLU:543:OE1:9881, H-B:ALA:541:N:9863, V-B:TYR:539:CD2:9846, V-B:LEU:363:CA:8156, V-B:GLU:543:CG:9879, V-B:GLU:543:CB:9878, V-A:ARG:545:CZ:4926, V-B:GLU:543:CD:9880, V-A:HIS:456:CE1:4070, V-B:GLU:543:CA:9876, V-B:ILE:538:CG2:9835, V-B:ILE:538:CA:9832, V-B:ILE:538:C:9830, V-B:ILE:538:CB:9834, V-B:ILE:538:CG1:9836"]

$$$$
4af_Grossjean_2025
     RDKit          3D

 21 23  0  0  0  0  0  0  0  0999 V2000
  126.8700  122.0100   55.0160 C   0  0  0  0  0  0  0  0  0  0  0  0
  126.7000  122.5350   56.4300 C   0  0  0  0  0  0  0  0  0  0  0  0
  125.5730  123.2710   56.7910 C   0  0  0  0  0  0  0  0  0  0  0  0
  125.4380  123.7460   58.1010 C   0  0  0  0  0  0  0  0  0  0  0  0
  124.1930  124.5460   58.4470 C   0  0  0  0  0  0  0  0  0  0  0  0
  126.4790  123.4520   59.0240 C   0  0  0  0  0  0  0  0  0  0  0  0
  126.6630  123.7780   60.4130 C   0  0  0  0  0  0  0  0  0  0  0  0
  125.7420  124.5070   61.1220 N   0  0  0  0  0  0  0  0  0  0  0  0
  127.8580  123.2840   60.9600 C   0  0  0  0  0  0  0  0  0  0  0  0
  128.3750  123.4520   62.3200 C   0  0  0  0  0  0  0  0  0  0  0  0
  127.7660  122.9860   63.2840 O   0  0  0  0  0  0  0  0  0  0  0  0
  129.5460  124.1260   62.4160 N   0  0  0  0  0  0  0  0  0  0  0  0
  130.2770  124.4950   63.5610 C   0  0  0  0  0  0  0  0  0  0  0  0
  129.7820  124.4980   64.8780 C   0  0  0  0  0  0  0  0  0  0  0  0
  130.6100  124.9050   65.9260 C   0  0  0  0  0  0  0  0  0  0  0  0
  131.9140  125.3040   65.6320 C   0  0  0  0  0  0  0  0  0  0  0  0
  132.4130  125.3170   64.3700 N   0  0  0  0  0  0  0  0  0  0  0  0
  131.5960  124.9200   63.3620 C   0  0  0  0  0  0  0  0  0  0  0  0
  128.7930  122.3970   59.7540 S   0  0  0  0  0  0  0  0  0  0  0  0
  127.5790  122.6900   58.5290 C   0  0  0  0  0  0  0  0  0  0  0  0
  127.7100  122.2340   57.2830 N   0  0  0  0  0  0  0  0  0  0  0  0
  1  2  1  0
  2  3  2  0
  3  4  1  0
  4  5  1  0
  4  6  2  0
  6  7  1  0
  7  8  1  0
  7  9  2  0
  9 10  1  0
 10 11  2  0
 10 12  1  0
 12 13  1  0
 13 14  2  0
 14 15  1  0
 15 16  2  0
 16 17  1  0
 17 18  2  0
  9 19  1  0
 19 20  1  0
 20 21  2  0
 21  2  1  0
 20  6  1  0
 18 13  1  0
M  END
>  <Binding energies>  (126) 
[-7.09]

>  <Ligand effiencies>  (126) 
[-0.29541666666666666]

>  <Interactions>  (126) 
["V-B:PRO:540:N:9856, V-B:TYR:539:CE1:9847, V-B:PRO:540:CB:9857, V-B:TYR:539:CD1:9845, V-B:PRO:540:CA:9855, V-B:TYR:539:CE2:9848, H-B:TYR:539:N:9842, V-B:ASP:366:CB:8183, V-B:PRO:540:CD:9859, H-B:ASP:366:OD1:8185, V-B:ASP:366:CG:8184, V-B:MET:535:CE:9807, V-B:LEU:363:CD1:8160, V-B:TYR:539:C:9839, H-B:GLU:543:OE1:9881, H-B:ALA:541:N:9863, V-B:TYR:539:CD2:9846, V-B:LEU:363:CA:8156, V-B:GLU:543:CG:9879, V-A:TYR:484:CZ:4347, H-A:TYR:484:OH:4348, V-A:TYR:484:CE2:4346, H-A:ARG:545:NE:4924, V-B:GLU:543:CD:9880, H-A:ARG:545:NH2:4928, V-B:ILE:538:CG2:9835, V-B:ILE:538:CA:9832, V-B:ILE:538:C:9830, V-B:ILE:538:CB:9834, V-B:ILE:538:CG1:9836"]

$$$$
4ag_Grossjean_2025
     RDKit          3D

 22 24  0  0  0  0  0  0  0  0999 V2000
  127.3350  122.3660   54.9910 C   0  0  0  0  0  0  0  0  0  0  0  0
  126.9690  122.7510   56.4120 C   0  0  0  0  0  0  0  0  0  0  0  0
  125.8110  123.4780   56.6820 C   0  0  0  0  0  0  0  0  0  0  0  0
  125.4920  123.8220   58.0010 C   0  0  0  0  0  0  0  0  0  0  0  0
  124.2170  124.6160   58.2450 C   0  0  0  0  0  0  0  0  0  0  0  0
  126.3800  123.4060   59.0280 C   0  0  0  0  0  0  0  0  0  0  0  0
  126.3610  123.5810   60.4550 C   0  0  0  0  0  0  0  0  0  0  0  0
  125.3550  124.2580   61.0980 N   0  0  0  0  0  0  0  0  0  0  0  0
  127.4570  123.0040   61.1140 C   0  0  0  0  0  0  0  0  0  0  0  0
  127.7470  122.9830   62.5470 C   0  0  0  0  0  0  0  0  0  0  0  0
  126.8650  122.7530   63.3780 O   0  0  0  0  0  0  0  0  0  0  0  0
  129.0230  123.2460   62.8990 N   0  0  0  0  0  0  0  0  0  0  0  0
  129.5420  123.2520   64.2660 C   0  0  0  0  0  0  0  0  0  0  0  0
  130.9330  123.8620   64.3980 C   0  0  0  0  0  0  0  0  0  0  0  0
  131.1800  124.8220   65.3840 C   0  0  0  0  0  0  0  0  0  0  0  0
  132.4560  125.3630   65.5220 C   0  0  0  0  0  0  0  0  0  0  0  0
  133.4830  124.9340   64.6830 C   0  0  0  0  0  0  0  0  0  0  0  0
  133.2460  123.9660   63.7090 C   0  0  0  0  0  0  0  0  0  0  0  0
  131.9710  123.4250   63.5710 C   0  0  0  0  0  0  0  0  0  0  0  0
  128.5440  122.2110   59.9740 S   0  0  0  0  0  0  0  0  0  0  0  0
  127.5310  122.6660   58.6220 C   0  0  0  0  0  0  0  0  0  0  0  0
  127.8380  122.3360   57.3660 N   0  0  0  0  0  0  0  0  0  0  0  0
  1  2  1  0
  2  3  2  0
  3  4  1  0
  4  5  1  0
  4  6  2  0
  6  7  1  0
  7  8  1  0
  7  9  2  0
  9 10  1  0
 10 11  2  0
 10 12  1  0
 12 13  1  0
 13 14  1  0
 14 15  2  0
 15 16  1  0
 16 17  2  0
 17 18  1  0
 18 19  2  0
  9 20  1  0
 20 21  1  0
 21 22  2  0
 22  2  1  0
 21  6  1  0
 19 14  1  0
M  END
>  <Binding energies>  (127) 
[-7.73]

>  <Ligand effiencies>  (127) 
[-0.30920000000000003]

>  <Interactions>  (127) 
["V-B:TYR:539:CZ:9849, V-B:PRO:540:N:9856, V-B:TYR:539:CE1:9847, V-B:PRO:540:CB:9857, V-B:TYR:539:CD1:9845, V-B:PRO:540:CA:9855, V-B:TYR:539:CE2:9848, H-B:TYR:539:N:9842, V-B:ASP:366:CB:8183, H-B:ASP:366:OD1:8185, V-B:ASP:366:CG:8184, V-B:MET:535:CE:9807, V-B:LEU:363:CD1:8160, V-B:TYR:539:C:9839, V-B:TYR:539:CG:9844, H-B:GLU:543:OE1:9881, V-B:PRO:540:C:9853, H-B:ALA:541:N:9863, V-B:TYR:539:CD2:9846, V-B:LEU:363:CA:8156, V-B:TYR:531:CE2:9765, V-B:ALA:541:CB:9864, V-B:GLU:543:CG:9879, V-A:LEU:475:CD2:4259, V-A:TYR:484:CZ:4347, V-A:GLY:454:CA:4049, V-A:ARG:545:CZ:4926, V-B:GLU:543:CD:9880, V-B:ALA:541:CA:9862, V-B:ILE:538:CA:9832, V-B:ILE:538:C:9830"]

$$$$
4ah_Grossjean_2025
     RDKit          3D

 28 30  0  0  0  0  0  0  0  0999 V2000
  127.1980  128.6670   62.9350 C   0  0  0  0  0  0  0  0  0  0  0  0
  128.2730  128.7910   63.8600 O   0  0  0  0  0  0  0  0  0  0  0  0
  128.7200  127.6690   64.5360 C   0  0  0  0  0  0  0  0  0  0  0  0
  129.1390  126.4890   63.9040 C   0  0  0  0  0  0  0  0  0  0  0  0
  129.5770  125.3940   64.6510 C   0  0  0  0  0  0  0  0  0  0  0  0
  130.0720  124.1370   63.9450 C   0  0  0  0  0  0  0  0  0  0  0  0
  129.4310  123.9010   62.6520 N   0  0  0  0  0  0  0  0  0  0  0  0
  128.2270  123.3190   62.4710 C   0  0  0  0  0  0  0  0  0  0  0  0
  127.5510  122.8860   63.4050 O   0  0  0  0  0  0  0  0  0  0  0  0
  127.7790  123.1910   61.0840 C   0  0  0  0  0  0  0  0  0  0  0  0
  128.7570  122.3010   59.9160 S   0  0  0  0  0  0  0  0  0  0  0  0
  127.6210  122.6510   58.6320 C   0  0  0  0  0  0  0  0  0  0  0  0
  127.8060  122.2110   57.3870 N   0  0  0  0  0  0  0  0  0  0  0  0
  126.8510  122.5510   56.4880 C   0  0  0  0  0  0  0  0  0  0  0  0
  127.0820  122.0430   55.0770 C   0  0  0  0  0  0  0  0  0  0  0  0
  125.7260  123.3100   56.8020 C   0  0  0  0  0  0  0  0  0  0  0  0
  125.5350  123.7730   58.1090 C   0  0  0  0  0  0  0  0  0  0  0  0
  124.2930  124.6000   58.4020 C   0  0  0  0  0  0  0  0  0  0  0  0
  126.5180  123.4390   59.0800 C   0  0  0  0  0  0  0  0  0  0  0  0
  126.6400  123.7430   60.4810 C   0  0  0  0  0  0  0  0  0  0  0  0
  125.7110  124.4970   61.1520 N   0  0  0  0  0  0  0  0  0  0  0  0
  129.6240  125.4860   66.0420 C   0  0  0  0  0  0  0  0  0  0  0  0
  129.2060  126.6520   66.7020 C   0  0  0  0  0  0  0  0  0  0  0  0
  129.2130  126.8060   68.0770 O   0  0  0  0  0  0  0  0  0  0  0  0
  130.2120  127.6180   68.6830 C   0  0  0  0  0  0  0  0  0  0  0  0
  128.7500  127.7350   65.9370 C   0  0  0  0  0  0  0  0  0  0  0  0
  128.3550  128.8900   66.5690 O   0  0  0  0  0  0  0  0  0  0  0  0
  126.9480  129.0890   66.5830 C   0  0  0  0  0  0  0  0  0  0  0  0
  1  2  1  0
  2  3  1  0
  3  4  2  0
  4  5  1  0
  5  6  1  0
  6  7  1  0
  7  8  1  0
  8  9  2  0
  8 10  1  0
 10 11  1  0
 11 12  1  0
 12 13  2  0
 13 14  1  0
 14 15  1  0
 14 16  2  0
 16 17  1  0
 17 18  1  0
 17 19  2  0
 19 20  1  0
 20 21  1  0
  5 22  2  0
 22 23  1  0
 23 24  1  0
 24 25  1  0
 23 26  2  0
 26 27  1  0
 27 28  1  0
 26  3  1  0
 20 10  2  0
 19 12  1  0
M  END
>  <Binding energies>  (128) 
[-6.76]

>  <Ligand effiencies>  (128) 
[-0.21806451612903224]

>  <Interactions>  (128) 
["V-B:PRO:540:N:9856, V-B:TYR:539:CE1:9847, V-B:PRO:540:CB:9857, V-B:TYR:539:CD1:9845, V-B:PRO:540:CA:9855, V-B:TYR:539:CE2:9848, H-B:TYR:539:N:9842, V-B:ASP:366:CB:8183, V-B:PRO:540:CD:9859, H-B:ASP:366:OD1:8185, V-B:ASP:366:CG:8184, V-B:MET:535:CE:9807, V-B:LEU:363:CD1:8160, V-B:TYR:539:C:9839, V-B:TYR:539:CG:9844, H-B:GLU:543:OE1:9881, H-B:ALA:541:N:9863, V-B:TYR:539:CD2:9846, V-B:LEU:363:CA:8156, V-B:GLU:543:CG:9879, V-B:GLU:543:CB:9878, V-A:GLU:543:CD:4908, V-B:GLU:543:CD:9880, V-B:HIS:456:CE1:9041, V-A:HIS:456:CE1:4070, V-A:GLU:543:CG:4907, V-A:GLU:543:CB:4906, V-B:TYR:484:CZ:9318, V-B:ILE:538:CG2:9835, V-B:ILE:538:CA:9832, V-B:ILE:538:C:9830, V-B:ILE:538:CB:9834"]

$$$$
4ai_Grossjean_2025
     RDKit          3D

 20 22  0  0  0  0  0  0  0  0999 V2000
  127.2270  122.0540   54.9940 C   0  0  0  0  0  0  0  0  0  0  0  0
  126.9060  122.5690   56.3850 C   0  0  0  0  0  0  0  0  0  0  0  0
  125.7800  123.3570   56.6150 C   0  0  0  0  0  0  0  0  0  0  0  0
  125.5000  123.8170   57.9070 C   0  0  0  0  0  0  0  0  0  0  0  0
  124.2590  124.6720   58.1090 C   0  0  0  0  0  0  0  0  0  0  0  0
  126.3950  123.4520   58.9500 C   0  0  0  0  0  0  0  0  0  0  0  0
  126.4120  123.7410   60.3580 C   0  0  0  0  0  0  0  0  0  0  0  0
  125.4470  124.5100   60.9590 N   0  0  0  0  0  0  0  0  0  0  0  0
  127.4900  123.1630   61.0470 C   0  0  0  0  0  0  0  0  0  0  0  0
  127.8190  123.2590   62.4700 C   0  0  0  0  0  0  0  0  0  0  0  0
  127.0860  122.7500   63.3210 O   0  0  0  0  0  0  0  0  0  0  0  0
  128.9680  123.9200   62.7580 N   0  0  0  0  0  0  0  0  0  0  0  0
  129.5190  124.1480   64.0120 C   0  0  0  0  0  0  0  0  0  0  0  0
  130.0300  125.3850   64.4070 C   0  0  0  0  0  0  0  0  0  0  0  0
  130.4770  125.1940   65.6940 C   0  0  0  0  0  0  0  0  0  0  0  0
  130.2470  123.9100   66.0570 O   0  0  0  0  0  0  0  0  0  0  0  0
  129.6380  123.2570   64.9840 N   0  0  0  0  0  0  0  0  0  0  0  0
  128.5350  122.2590   59.9490 S   0  0  0  0  0  0  0  0  0  0  0  0
  127.5120  122.6420   58.5820 C   0  0  0  0  0  0  0  0  0  0  0  0
  127.7820  122.2030   57.3520 N   0  0  0  0  0  0  0  0  0  0  0  0
  1  2  1  0
  2  3  2  0
  3  4  1  0
  4  5  1  0
  4  6  2  0
  6  7  1  0
  7  8  1  0
  7  9  2  0
  9 10  1  0
 10 11  2  0
 10 12  1  0
 12 13  1  0
 13 14  1  0
 14 15  2  0
 15 16  1  0
 16 17  1  0
  9 18  1  0
 18 19  1  0
 19 20  2  0
 20  2  1  0
 19  6  1  0
 17 13  2  0
M  END
>  <Binding energies>  (129) 
[-7.12]

>  <Ligand effiencies>  (129) 
[-0.3095652173913043]

>  <Interactions>  (129) 
["V-B:PRO:540:N:9856, V-B:TYR:539:CE1:9847, V-B:PRO:540:CB:9857, V-B:TYR:539:CD1:9845, V-B:PRO:540:CA:9855, V-B:TYR:539:CE2:9848, H-B:TYR:539:N:9842, V-B:ASP:366:CB:8183, H-B:ASP:366:OD1:8185, V-B:ASP:366:CG:8184, V-B:MET:535:CE:9807, V-B:LEU:363:CD1:8160, V-B:TYR:539:C:9839, V-B:TYR:539:CG:9844, H-B:GLU:543:OE1:9881, H-B:ALA:541:N:9863, V-B:TYR:539:CD2:9846, V-B:LEU:363:CA:8156, V-B:TYR:531:CE2:9765, V-B:ALA:541:CB:9864, V-B:GLU:543:CG:9879, H-A:TYR:484:OH:4348, V-B:GLU:543:CD:9880, V-B:ILE:538:CG2:9835, V-B:ILE:538:CA:9832, V-B:ILE:538:C:9830, V-B:ILE:538:CB:9834"]

$$$$
4aj_Grossjean_2025
     RDKit          3D

 20 22  0  0  0  0  0  0  0  0999 V2000
  126.9880  122.0010   54.9150 C   0  0  0  0  0  0  0  0  0  0  0  0
  126.7000  122.5260   56.3100 C   0  0  0  0  0  0  0  0  0  0  0  0
  125.5620  123.2860   56.5680 C   0  0  0  0  0  0  0  0  0  0  0  0
  125.3180  123.7650   57.8610 C   0  0  0  0  0  0  0  0  0  0  0  0
  124.0620  124.5910   58.0920 C   0  0  0  0  0  0  0  0  0  0  0  0
  126.2610  123.4480   58.8740 C   0  0  0  0  0  0  0  0  0  0  0  0
  126.3240  123.7690   60.2750 C   0  0  0  0  0  0  0  0  0  0  0  0
  125.3610  124.5220   60.8970 N   0  0  0  0  0  0  0  0  0  0  0  0
  127.4450  123.2390   60.9310 C   0  0  0  0  0  0  0  0  0  0  0  0
  127.8270  123.3760   62.3390 C   0  0  0  0  0  0  0  0  0  0  0  0
  127.2290  122.7510   63.2170 O   0  0  0  0  0  0  0  0  0  0  0  0
  128.8670  124.2110   62.5810 N   0  0  0  0  0  0  0  0  0  0  0  0
  129.4300  124.5050   63.8150 C   0  0  0  0  0  0  0  0  0  0  0  0
  129.6950  125.6920   64.3190 N   0  0  0  0  0  0  0  0  0  0  0  0
  130.2250  125.5990   65.5230 C   0  0  0  0  0  0  0  0  0  0  0  0
  130.4020  124.3110   66.0210 C   0  0  0  0  0  0  0  0  0  0  0  0
  129.8380  123.1670   64.8390 S   0  0  0  0  0  0  0  0  0  0  0  0
  128.4690  122.3340   59.8140 S   0  0  0  0  0  0  0  0  0  0  0  0
  127.3840  122.6590   58.4810 C   0  0  0  0  0  0  0  0  0  0  0  0
  127.6200  122.2020   57.2510 N   0  0  0  0  0  0  0  0  0  0  0  0
  1  2  1  0
  2  3  2  0
  3  4  1  0
  4  5  1  0
  4  6  2  0
  6  7  1  0
  7  8  1  0
  7  9  2  0
  9 10  1  0
 10 11  2  0
 10 12  1  0
 12 13  1  0
 13 14  2  0
 14 15  1  0
 15 16  2  0
 16 17  1  0
  9 18  1  0
 18 19  1  0
 19 20  2  0
 20  2  1  0
 19  6  1  0
 17 13  1  0
M  END
>  <Binding energies>  (130) 
[-7.18]

>  <Ligand effiencies>  (130) 
[-0.31217391304347825]

>  <Interactions>  (130) 
["V-B:PRO:540:N:9856, V-B:TYR:539:CE1:9847, V-B:PRO:540:CB:9857, V-B:TYR:539:CD1:9845, V-B:PRO:540:CA:9855, V-B:TYR:539:CE2:9848, H-B:TYR:539:N:9842, V-B:ASP:366:CB:8183, V-B:PRO:540:CD:9859, H-B:ASP:366:OD1:8185, V-B:ASP:366:CG:8184, V-B:MET:535:CE:9807, V-B:LEU:363:CD1:8160, V-B:TYR:539:C:9839, H-B:GLU:543:OE1:9881, H-B:ALA:541:N:9863, V-B:TYR:539:CD2:9846, V-B:LEU:363:CA:8156, V-B:TYR:531:CE2:9765, V-B:GLU:543:CG:9879, V-A:TYR:484:CZ:4347, V-A:GLU:543:CD:4908, V-A:TYR:484:CE2:4346, V-B:GLU:543:CD:9880, V-B:ILE:538:CG2:9835, V-B:ILE:538:CA:9832, V-B:ILE:538:C:9830, V-B:ILE:538:CB:9834, V-B:ILE:538:CG1:9836"]

$$$$
4ak_Grossjean_2025
     RDKit          3D

 25 26  0  0  0  0  0  0  0  0999 V2000
  127.3180  122.7530   56.2290 C   0  0  0  0  0  0  0  0  0  0  0  0
  126.1010  122.0250   56.2640 O   0  0  0  0  0  0  0  0  0  0  0  0
  125.0600  122.6950   56.9640 C   0  0  0  0  0  0  0  0  0  0  0  0
  125.6710  123.7060   57.9430 C   0  0  0  0  0  0  0  0  0  0  0  0
  124.9510  123.6690   59.1680 O   0  0  0  0  0  0  0  0  0  0  0  0
  125.6260  124.2980   60.2500 C   0  0  0  0  0  0  0  0  0  0  0  0
  125.3790  123.4980   61.5350 C   0  0  0  0  0  0  0  0  0  0  0  0
  126.6280  123.1380   62.1100 O   0  0  0  0  0  0  0  0  0  0  0  0
  127.6300  122.8170   61.1550 C   0  0  0  0  0  0  0  0  0  0  0  0
  129.0120  123.1900   61.7210 C   0  0  0  0  0  0  0  0  0  0  0  0
  128.9470  124.0020   62.9370 N   0  0  0  0  0  0  0  0  0  0  0  0
  130.0110  124.4510   63.6330 C   0  0  0  0  0  0  0  0  0  0  0  0
  131.1710  124.2270   63.2840 O   0  0  0  0  0  0  0  0  0  0  0  0
  129.7120  125.2320   64.8320 C   0  0  0  0  0  0  0  0  0  0  0  0
  130.0610  124.5770   66.4310 S   0  0  0  0  0  0  0  0  0  0  0  0
  129.4660  126.0280   67.2060 C   0  0  0  0  0  0  0  0  0  0  0  0
  129.4550  126.1660   68.5320 N   0  0  0  0  0  0  0  0  0  0  0  0
  128.9660  127.3390   69.0040 C   0  0  0  0  0  0  0  0  0  0  0  0
  128.9620  127.4770   70.5160 C   0  0  0  0  0  0  0  0  0  0  0  0
  128.4950  128.3660   68.1890 C   0  0  0  0  0  0  0  0  0  0  0  0
  128.5090  128.2190   66.7970 C   0  0  0  0  0  0  0  0  0  0  0  0
  127.9800  129.3660   65.9500 C   0  0  0  0  0  0  0  0  0  0  0  0
  129.0130  127.0020   66.2650 C   0  0  0  0  0  0  0  0  0  0  0  0
  129.1700  126.5240   64.9180 C   0  0  0  0  0  0  0  0  0  0  0  0
  128.8140  127.2760   63.8270 N   0  0  0  0  0  0  0  0  0  0  0  0
  1  2  1  0
  2  3  1  0
  3  4  1  0
  4  5  1  0
  5  6  1  0
  6  7  1  0
  7  8  1  0
  8  9  1  0
  9 10  1  0
 10 11  1  0
 11 12  1  0
 12 13  2  0
 12 14  1  0
 14 15  1  0
 15 16  1  0
 16 17  2  0
 17 18  1  0
 18 19  1  0
 18 20  2  0
 20 21  1  0
 21 22  1  0
 21 23  2  0
 23 24  1  0
 24 25  1  0
 24 14  2  0
 23 16  1  0
M  END
>  <Binding energies>  (131) 
[-6.27]

>  <Ligand effiencies>  (131) 
[-0.22392857142857142]

>  <Interactions>  (131) 
["V-B:TYR:539:CZ:9849, V-B:PRO:540:N:9856, V-B:TYR:539:CE1:9847, V-B:PRO:540:CB:9857, V-B:TYR:539:CD1:9845, V-B:PRO:540:CA:9855, H-B:TYR:539:N:9842, V-B:PRO:540:CD:9859, V-B:MET:535:CE:9807, V-B:LEU:363:CD1:8160, V-B:PRO:540:CG:9858, V-B:TYR:539:CG:9844, H-B:GLU:543:OE1:9881, V-B:PRO:540:C:9853, H-B:ALA:541:N:9863, V-B:GLU:543:CG:9879, V-A:TYR:484:CZ:4347, V-B:GLU:543:CB:9878, V-A:GLU:543:CD:4908, V-A:TYR:484:CE2:4346, V-B:GLU:543:CD:9880, V-B:HIS:456:CE1:9041, V-A:HIS:456:CE1:4070, V-A:GLU:543:CG:4907, V-A:GLU:543:CB:4906, H-A:GLU:543:OE1:4909, H-A:GLU:543:OE2:4910, H-B:GLU:543:OE2:9882, V-B:GLU:543:CA:9876"]

$$$$
4al_Grossjean_2025
     RDKit          3D

 16 17  0  0  0  0  0  0  0  0999 V2000
  129.1280  125.2100   63.0930 C   0  0  0  0  0  0  0  0  0  0  0  0
  129.0960  123.8540   62.6750 O   0  0  0  0  0  0  0  0  0  0  0  0
  127.9140  123.2180   62.4640 C   0  0  0  0  0  0  0  0  0  0  0  0
  127.2080  122.7580   63.3640 O   0  0  0  0  0  0  0  0  0  0  0  0
  127.5550  123.1300   61.0310 C   0  0  0  0  0  0  0  0  0  0  0  0
  128.5690  122.2020   59.9240 S   0  0  0  0  0  0  0  0  0  0  0  0
  127.5240  122.5910   58.5770 C   0  0  0  0  0  0  0  0  0  0  0  0
  127.7690  122.1460   57.3440 N   0  0  0  0  0  0  0  0  0  0  0  0
  126.8820  122.5200   56.3880 C   0  0  0  0  0  0  0  0  0  0  0  0
  127.1790  122.0030   54.9930 C   0  0  0  0  0  0  0  0  0  0  0  0
  125.7670  123.3180   56.6360 C   0  0  0  0  0  0  0  0  0  0  0  0
  125.5130  123.7830   57.9310 C   0  0  0  0  0  0  0  0  0  0  0  0
  124.2850  124.6520   58.1520 C   0  0  0  0  0  0  0  0  0  0  0  0
  126.4220  123.4120   58.9580 C   0  0  0  0  0  0  0  0  0  0  0  0
  126.4660  123.7040   60.3640 C   0  0  0  0  0  0  0  0  0  0  0  0
  125.5210  124.4760   60.9880 N   0  0  0  0  0  0  0  0  0  0  0  0
  1  2  1  0
  2  3  1  0
  3  4  2  0
  3  5  1  0
  5  6  1  0
  6  7  1  0
  7  8  2  0
  8  9  1  0
  9 10  1  0
  9 11  2  0
 11 12  1  0
 12 13  1  0
 12 14  2  0
 14 15  1  0
 15 16  1  0
 15  5  2  0
 14  7  1  0
M  END
>  <Binding energies>  (132) 
[-5.94]

>  <Ligand effiencies>  (132) 
[-0.33]

>  <Interactions>  (132) 
["V-B:PRO:540:N:9856, V-B:TYR:539:CE1:9847, V-B:PRO:540:CB:9857, V-B:TYR:539:CD1:9845, V-B:PRO:540:CA:9855, V-B:TYR:539:CE2:9848, H-B:TYR:539:N:9842, V-B:ASP:366:CB:8183, V-B:PRO:540:CD:9859, H-B:ASP:366:OD1:8185, V-B:ASP:366:CG:8184, V-B:MET:535:CE:9807, V-B:LEU:363:CD1:8160, V-B:TYR:539:C:9839, V-B:TYR:539:CG:9844, H-B:GLU:543:OE1:9881, H-B:ALA:541:N:9863, V-B:TYR:539:CD2:9846, V-B:LEU:363:CA:8156, V-B:TYR:531:CE2:9765, V-B:ALA:541:CB:9864, V-B:GLU:543:CG:9879, V-B:GLU:543:CD:9880, V-B:ILE:538:CG2:9835, V-B:ILE:538:CA:9832, V-B:ILE:538:C:9830, V-B:ILE:538:CB:9834"]

$$$$
4bc_Grossjean_2025
     RDKit          3D

 26 28  0  0  0  0  0  0  0  0999 V2000
  130.5780  132.7990   56.6940 C   0  0  0  0  0  0  0  0  0  0  0  0
  129.8860  133.5070   57.7170 O   0  0  0  0  0  0  0  0  0  0  0  0
  129.6000  132.8640   58.9060 C   0  0  0  0  0  0  0  0  0  0  0  0
  130.4330  131.8010   59.2540 C   0  0  0  0  0  0  0  0  0  0  0  0
  130.2230  131.0920   60.4340 C   0  0  0  0  0  0  0  0  0  0  0  0
  129.1780  131.4460   61.2900 C   0  0  0  0  0  0  0  0  0  0  0  0
  129.0340  130.6640   62.4510 N   0  0  0  0  0  0  0  0  0  0  0  0
  127.9380  130.0180   62.9190 C   0  0  0  0  0  0  0  0  0  0  0  0
  126.8330  130.0570   62.3750 O   0  0  0  0  0  0  0  0  0  0  0  0
  128.1380  129.2510   64.1520 C   0  0  0  0  0  0  0  0  0  0  0  0
  127.5500  129.8760   65.6910 S   0  0  0  0  0  0  0  0  0  0  0  0
  128.1530  128.4750   66.5430 C   0  0  0  0  0  0  0  0  0  0  0  0
  128.0010  128.3440   67.8610 N   0  0  0  0  0  0  0  0  0  0  0  0
  128.5120  127.2170   68.4080 C   0  0  0  0  0  0  0  0  0  0  0  0
  128.3230  127.0840   69.9080 C   0  0  0  0  0  0  0  0  0  0  0  0
  129.1650  126.2270   67.6770 C   0  0  0  0  0  0  0  0  0  0  0  0
  129.3280  126.3610   66.2890 C   0  0  0  0  0  0  0  0  0  0  0  0
  130.0570  125.2470   65.5280 C   0  0  0  0  0  0  0  0  0  0  0  0
  129.4120  124.8610   64.4250 F   0  0  0  0  0  0  0  0  0  0  0  0
  131.2640  125.6700   65.1580 F   0  0  0  0  0  0  0  0  0  0  0  0
  130.1860  124.1750   66.3110 F   0  0  0  0  0  0  0  0  0  0  0  0
  128.8000  127.5370   65.6800 C   0  0  0  0  0  0  0  0  0  0  0  0
  128.7720  128.0100   64.3170 C   0  0  0  0  0  0  0  0  0  0  0  0
  129.3190  127.3010   63.2770 N   0  0  0  0  0  0  0  0  0  0  0  0
  128.3280  132.5060   60.9410 C   0  0  0  0  0  0  0  0  0  0  0  0
  128.5400  133.2110   59.7600 C   0  0  0  0  0  0  0  0  0  0  0  0
  1  2  1  0
  2  3  1  0
  3  4  2  0
  4  5  1  0
  5  6  2  0
  6  7  1  0
  7  8  1  0
  8  9  2  0
  8 10  1  0
 10 11  1  0
 11 12  1  0
 12 13  2  0
 13 14  1  0
 14 15  1  0
 14 16  2  0
 16 17  1  0
 17 18  1  0
 18 19  1  0
 18 20  1  0
 18 21  1  0
 17 22  2  0
 22 23  1  0
 23 24  1  0
  6 25  1  0
 25 26  2  0
 26  3  1  0
 23 10  2  0
 22 12  1  0
M  END
>  <Binding energies>  (133) 
[-5.84]

>  <Ligand effiencies>  (133) 
[-0.2013793103448276]

>  <Interactions>  (133) 
["V-A:PRO:540:CA:4883, V-A:PRO:540:CB:4885, V-A:PRO:540:N:4884, V-A:TYR:539:C:4867, H-A:TYR:539:N:4870, H-B:GLU:543:OE1:9881, V-B:GLU:543:CG:9879, V-A:TYR:484:CZ:4347, V-B:GLU:543:CB:9878, V-A:GLU:543:CD:4908, V-A:TYR:484:CE2:4346, V-B:GLU:543:CD:9880, V-B:HIS:456:CE1:9041, V-B:GLU:543:C:9874, V-A:HIS:456:CE1:4070, V-A:GLU:543:CG:4907, V-A:GLU:543:CB:4906, H-A:GLU:543:OE1:4909, H-A:GLU:543:OE2:4910, V-B:TYR:484:CZ:9318, V-A:TYR:539:CE1:4875, V-B:GLU:543:CA:9876, V-A:TYR:539:CD1:4873, V-A:ILE:538:CA:4860, V-A:ILE:538:CB:4862"]

$$$$
4bf_Grossjean_2025
     RDKit          3D

 24 26  0  0  0  0  0  0  0  0999 V2000
  133.0860  125.3640   65.6060 C   0  0  0  0  0  0  0  0  0  0  0  0
  132.4040  124.6180   64.4720 C   0  0  0  0  0  0  0  0  0  0  0  0
  133.1080  123.7090   63.6870 C   0  0  0  0  0  0  0  0  0  0  0  0
  132.4670  123.0290   62.6400 C   0  0  0  0  0  0  0  0  0  0  0  0
  133.2830  122.0400   61.8010 C   0  0  0  0  0  0  0  0  0  0  0  0
  132.6040  120.9320   61.4920 F   0  0  0  0  0  0  0  0  0  0  0  0
  133.6500  122.6150   60.6550 F   0  0  0  0  0  0  0  0  0  0  0  0
  134.3720  121.6660   62.4750 F   0  0  0  0  0  0  0  0  0  0  0  0
  131.0850  123.3110   62.4280 C   0  0  0  0  0  0  0  0  0  0  0  0
  130.1180  122.8230   61.4750 C   0  0  0  0  0  0  0  0  0  0  0  0
  130.4300  121.8930   60.5160 N   0  0  0  0  0  0  0  0  0  0  0  0
  128.8370  123.3790   61.6200 C   0  0  0  0  0  0  0  0  0  0  0  0
  127.6380  123.1350   60.8120 C   0  0  0  0  0  0  0  0  0  0  0  0
  126.5770  122.8100   61.3460 O   0  0  0  0  0  0  0  0  0  0  0  0
  127.7930  123.3080   59.4770 N   0  0  0  0  0  0  0  0  0  0  0  0
  126.8680  123.1100   58.4340 C   0  0  0  0  0  0  0  0  0  0  0  0
  125.5670  123.6420   58.3870 C   0  0  0  0  0  0  0  0  0  0  0  0
  124.7420  123.3550   57.2970 C   0  0  0  0  0  0  0  0  0  0  0  0
  125.2380  122.5370   56.2810 C   0  0  0  0  0  0  0  0  0  0  0  0
  126.4860  122.0060   56.3060 N   0  0  0  0  0  0  0  0  0  0  0  0
  127.2760  122.2940   57.3720 C   0  0  0  0  0  0  0  0  0  0  0  0
  128.7910  124.5350   62.9490 S   0  0  0  0  0  0  0  0  0  0  0  0
  130.4810  124.2650   63.3050 C   0  0  0  0  0  0  0  0  0  0  0  0
  131.0940  124.9070   64.2980 N   0  0  0  0  0  0  0  0  0  0  0  0
  1  2  1  0
  2  3  2  0
  3  4  1  0
  4  5  1  0
  5  6  1  0
  5  7  1  0
  5  8  1  0
  4  9  2  0
  9 10  1  0
 10 11  1  0
 10 12  2  0
 12 13  1  0
 13 14  2  0
 13 15  1  0
 15 16  1  0
 16 17  2  0
 17 18  1  0
 18 19  2  0
 19 20  1  0
 20 21  2  0
 12 22  1  0
 22 23  1  0
 23 24  2  0
 24  2  1  0
 23  9  1  0
 21 16  1  0
M  END
>  <Binding energies>  (134) 
[-6.2]

>  <Ligand effiencies>  (134) 
[-0.22962962962962963]

>  <Interactions>  (134) 
["V-B:PRO:540:N:9856, V-B:TYR:539:CE1:9847, V-B:PRO:540:CB:9857, V-B:TYR:539:CD1:9845, V-B:PRO:540:CA:9855, V-B:TYR:539:CE2:9848, H-B:TYR:539:N:9842, V-B:PRO:540:CD:9859, V-B:MET:535:CE:9807, V-B:LEU:363:CD1:8160, V-B:TYR:539:C:9839, V-B:TYR:539:CG:9844, H-B:ALA:541:N:9863, V-B:TYR:539:CD2:9846, V-A:ILE:369:CD1:3239, V-B:GLU:543:CG:9879, V-A:ILE:369:CG2:3237, V-A:LEU:475:CD2:4259, V-A:GLY:454:CA:4049, V-A:ARG:545:CZ:4926, V-B:GLU:543:CD:9880, V-B:ILE:538:CG2:9835, V-B:TYR:539:CA:9841, V-A:ARG:545:CD:4923, H-B:TYR:539:O:9840, V-A:SER:385:CB:3409, V-A:SER:385:C:3405"]

$$$$
4bh_Grossjean_2025
     RDKit          3D

 31 33  0  0  0  0  0  0  0  0999 V2000
  129.8920  127.5930   68.9460 C   0  0  0  0  0  0  0  0  0  0  0  0
  128.7490  127.2080   68.1900 O   0  0  0  0  0  0  0  0  0  0  0  0
  128.6750  127.5470   66.8510 C   0  0  0  0  0  0  0  0  0  0  0  0
  128.1330  128.7520   66.3770 C   0  0  0  0  0  0  0  0  0  0  0  0
  128.0880  129.0280   65.0100 C   0  0  0  0  0  0  0  0  0  0  0  0
  127.5390  130.3600   64.5160 C   0  0  0  0  0  0  0  0  0  0  0  0
  128.0080  130.7270   63.1790 N   0  0  0  0  0  0  0  0  0  0  0  0
  128.9320  131.6710   62.9070 C   0  0  0  0  0  0  0  0  0  0  0  0
  129.4520  132.3620   63.7850 O   0  0  0  0  0  0  0  0  0  0  0  0
  129.2540  131.8670   61.4930 C   0  0  0  0  0  0  0  0  0  0  0  0
  128.1360  132.7360   60.4460 S   0  0  0  0  0  0  0  0  0  0  0  0
  129.1730  132.4870   59.0600 C   0  0  0  0  0  0  0  0  0  0  0  0
  128.8490  132.9570   57.8570 N   0  0  0  0  0  0  0  0  0  0  0  0
  129.7320  132.7040   56.8630 C   0  0  0  0  0  0  0  0  0  0  0  0
  129.3430  133.2470   55.4990 C   0  0  0  0  0  0  0  0  0  0  0  0
  130.9200  132.0000   57.0420 C   0  0  0  0  0  0  0  0  0  0  0  0
  131.2660  131.5010   58.3080 C   0  0  0  0  0  0  0  0  0  0  0  0
  132.5840  130.7350   58.4580 C   0  0  0  0  0  0  0  0  0  0  0  0
  133.4050  131.2760   59.3610 F   0  0  0  0  0  0  0  0  0  0  0  0
  132.3380  129.4830   58.8440 F   0  0  0  0  0  0  0  0  0  0  0  0
  133.2300  130.7170   57.2920 F   0  0  0  0  0  0  0  0  0  0  0  0
  130.3550  131.7480   59.3770 C   0  0  0  0  0  0  0  0  0  0  0  0
  130.3650  131.3960   60.7760 C   0  0  0  0  0  0  0  0  0  0  0  0
  131.3770  130.6720   61.3530 N   0  0  0  0  0  0  0  0  0  0  0  0
  128.6150  128.1040   64.1050 C   0  0  0  0  0  0  0  0  0  0  0  0
  129.1560  126.8880   64.5500 C   0  0  0  0  0  0  0  0  0  0  0  0
  129.6820  125.9230   63.7100 O   0  0  0  0  0  0  0  0  0  0  0  0
  130.5510  126.3160   62.6530 C   0  0  0  0  0  0  0  0  0  0  0  0
  129.1740  126.6190   65.9260 C   0  0  0  0  0  0  0  0  0  0  0  0
  129.7180  125.4390   66.3780 O   0  0  0  0  0  0  0  0  0  0  0  0
  131.1340  125.3800   66.2770 C   0  0  0  0  0  0  0  0  0  0  0  0
  1  2  1  0
  2  3  1  0
  3  4  2  0
  4  5  1  0
  5  6  1  0
  6  7  1  0
  7  8  1  0
  8  9  2  0
  8 10  1  0
 10 11  1  0
 11 12  1  0
 12 13  2  0
 13 14  1  0
 14 15  1  0
 14 16  2  0
 16 17  1  0
 17 18  1  0
 18 19  1  0
 18 20  1  0
 18 21  1  0
 17 22  2  0
 22 23  1  0
 23 24  1  0
  5 25  2  0
 25 26  1  0
 26 27  1  0
 27 28  1  0
 26 29  2  0
 29 30  1  0
 30 31  1  0
 29  3  1  0
 23 10  2  0
 22 12  1  0
M  END
>  <Binding energies>  (135) 
[-6.02]

>  <Ligand effiencies>  (135) 
[-0.17705882352941174]

>  <Interactions>  (135) 
["V-A:LEU:363:CD1:3189, V-A:ASP:366:CG:3213, V-A:PRO:540:CA:4883, V-A:PRO:540:CB:4885, H-A:ASP:366:OD2:3215, V-A:PRO:540:N:4884, V-A:TYR:539:C:4867, V-A:ASP:366:CB:3212, V-A:MET:535:CE:4835, V-B:GLU:543:CG:9879, V-A:TYR:484:CZ:4347, V-B:GLU:543:CB:9878, V-A:GLU:543:CD:4908, V-B:GLU:543:CD:9880, V-A:HIS:456:CE1:4070, V-A:GLU:543:CG:4907, V-A:GLU:543:CB:4906, V-A:TYR:531:CZ:4794, H-A:GLU:543:OE1:4909, H-A:ALA:541:N:4891, V-A:ILE:538:CA:4860, V-A:TYR:531:CE2:4793, V-A:ILE:538:C:4858, V-A:ILE:538:CG2:4863, V-A:ILE:538:CB:4862, V-A:LEU:363:CA:3185, V-A:LEU:363:CB:3187"]

$$$$
4bi_Grossjean_2025
     RDKit          3D

 23 25  0  0  0  0  0  0  0  0999 V2000
  127.2830  122.0040   55.0160 C   0  0  0  0  0  0  0  0  0  0  0  0
  126.9710  122.5410   56.4010 C   0  0  0  0  0  0  0  0  0  0  0  0
  125.8730  123.3690   56.6190 C   0  0  0  0  0  0  0  0  0  0  0  0
  125.5930  123.8550   57.9070 C   0  0  0  0  0  0  0  0  0  0  0  0
  124.3700  124.7570   58.0990 C   0  0  0  0  0  0  0  0  0  0  0  0
  123.6530  124.4410   59.1800 F   0  0  0  0  0  0  0  0  0  0  0  0
  124.7590  126.0240   58.2360 F   0  0  0  0  0  0  0  0  0  0  0  0
  123.5630  124.6560   57.0420 F   0  0  0  0  0  0  0  0  0  0  0  0
  126.4780  123.4670   58.9570 C   0  0  0  0  0  0  0  0  0  0  0  0
  126.5150  123.7620   60.3680 C   0  0  0  0  0  0  0  0  0  0  0  0
  125.5900  124.5680   60.9820 N   0  0  0  0  0  0  0  0  0  0  0  0
  127.5740  123.1470   61.0560 C   0  0  0  0  0  0  0  0  0  0  0  0
  127.9160  123.2400   62.4780 C   0  0  0  0  0  0  0  0  0  0  0  0
  127.1870  122.7350   63.3350 O   0  0  0  0  0  0  0  0  0  0  0  0
  129.0730  123.8890   62.7580 N   0  0  0  0  0  0  0  0  0  0  0  0
  129.6390  124.1110   64.0070 C   0  0  0  0  0  0  0  0  0  0  0  0
  130.3550  125.2630   64.3260 C   0  0  0  0  0  0  0  0  0  0  0  0
  130.7400  125.0950   65.6370 C   0  0  0  0  0  0  0  0  0  0  0  0
  130.2780  123.9030   66.0840 O   0  0  0  0  0  0  0  0  0  0  0  0
  129.5820  123.2880   65.0410 N   0  0  0  0  0  0  0  0  0  0  0  0
  128.5780  122.1980   59.9630 S   0  0  0  0  0  0  0  0  0  0  0  0
  127.5670  122.6130   58.5990 C   0  0  0  0  0  0  0  0  0  0  0  0
  127.8260  122.1540   57.3750 N   0  0  0  0  0  0  0  0  0  0  0  0
  1  2  1  0
  2  3  2  0
  3  4  1  0
  4  5  1  0
  5  6  1  0
  5  7  1  0
  5  8  1  0
  4  9  2  0
  9 10  1  0
 10 11  1  0
 10 12  2  0
 12 13  1  0
 13 14  2  0
 13 15  1  0
 15 16  1  0
 16 17  1  0
 17 18  2  0
 18 19  1  0
 19 20  1  0
 12 21  1  0
 21 22  1  0
 22 23  2  0
 23  2  1  0
 22  9  1  0
 20 16  2  0
M  END
>  <Binding energies>  (136) 
[-6.51]

>  <Ligand effiencies>  (136) 
[-0.25038461538461537]

>  <Interactions>  (136) 
["V-B:PRO:540:N:9856, V-B:TYR:539:CE1:9847, V-B:PRO:540:CB:9857, V-B:TYR:539:CD1:9845, V-B:PRO:540:CA:9855, V-B:TYR:539:CE2:9848, H-B:TYR:539:N:9842, V-B:ASP:366:CB:8183, H-B:ASP:366:OD1:8185, V-B:ASP:366:CG:8184, V-B:MET:535:CE:9807, V-B:LEU:363:CD1:8160, V-B:TYR:539:C:9839, V-B:TYR:539:CG:9844, H-B:GLU:543:OE1:9881, V-B:TYR:531:CZ:9766, H-B:ALA:541:N:9863, V-B:TYR:539:CD2:9846, V-B:LEU:363:CA:8156, V-B:TYR:531:CE2:9765, V-B:ALA:541:CB:9864, V-B:GLU:543:CG:9879, H-A:TYR:484:OH:4348, V-B:GLU:543:CD:9880, V-B:ILE:538:CG2:9835, V-B:ILE:538:CA:9832, V-B:ILE:538:C:9830, V-B:ASN:362:C:8143, V-B:LEU:363:CB:8158, V-B:ILE:538:CB:9834, V-B:LEU:363:CG:8159, V-B:TYR:531:CD2:9763"]

$$$$
4bj_Grossjean_2025
     RDKit          3D

 23 25  0  0  0  0  0  0  0  0999 V2000
  127.2460  122.0140   54.9560 C   0  0  0  0  0  0  0  0  0  0  0  0
  126.9790  122.5540   56.3490 C   0  0  0  0  0  0  0  0  0  0  0  0
  125.8530  123.3300   56.6140 C   0  0  0  0  0  0  0  0  0  0  0  0
  125.6220  123.8280   57.9060 C   0  0  0  0  0  0  0  0  0  0  0  0
  124.3710  124.6790   58.1500 C   0  0  0  0  0  0  0  0  0  0  0  0
  124.6500  125.9620   58.3860 F   0  0  0  0  0  0  0  0  0  0  0  0
  123.5790  124.6330   57.0790 F   0  0  0  0  0  0  0  0  0  0  0  0
  123.7090  124.2120   59.2090 F   0  0  0  0  0  0  0  0  0  0  0  0
  126.5810  123.5030   58.9120 C   0  0  0  0  0  0  0  0  0  0  0  0
  126.6820  123.8290   60.3140 C   0  0  0  0  0  0  0  0  0  0  0  0
  125.7530  124.6010   60.9640 N   0  0  0  0  0  0  0  0  0  0  0  0
  127.8070  123.2810   60.9500 C   0  0  0  0  0  0  0  0  0  0  0  0
  128.2200  123.4160   62.3490 C   0  0  0  0  0  0  0  0  0  0  0  0
  127.5310  122.9500   63.2590 O   0  0  0  0  0  0  0  0  0  0  0  0
  129.3950  124.0640   62.5490 N   0  0  0  0  0  0  0  0  0  0  0  0
  130.0120  124.3150   63.7670 C   0  0  0  0  0  0  0  0  0  0  0  0
  129.5470  124.0750   64.9730 N   0  0  0  0  0  0  0  0  0  0  0  0
  130.4060  124.4350   65.9050 C   0  0  0  0  0  0  0  0  0  0  0  0
  131.6040  124.9840   65.4590 C   0  0  0  0  0  0  0  0  0  0  0  0
  131.5930  125.0280   63.7210 S   0  0  0  0  0  0  0  0  0  0  0  0
  128.7930  122.3570   59.8200 S   0  0  0  0  0  0  0  0  0  0  0  0
  127.6880  122.6960   58.5080 C   0  0  0  0  0  0  0  0  0  0  0  0
  127.9050  122.2270   57.2800 N   0  0  0  0  0  0  0  0  0  0  0  0
  1  2  1  0
  2  3  2  0
  3  4  1  0
  4  5  1  0
  5  6  1  0
  5  7  1  0
  5  8  1  0
  4  9  2  0
  9 10  1  0
 10 11  1  0
 10 12  2  0
 12 13  1  0
 13 14  2  0
 13 15  1  0
 15 16  1  0
 16 17  2  0
 17 18  1  0
 18 19  2  0
 19 20  1  0
 12 21  1  0
 21 22  1  0
 22 23  2  0
 23  2  1  0
 22  9  1  0
 20 16  1  0
M  END
>  <Binding energies>  (137) 
[-6.25]

>  <Ligand effiencies>  (137) 
[-0.2403846153846154]

>  <Interactions>  (137) 
["V-B:PRO:540:N:9856, V-B:TYR:539:CE1:9847, V-B:PRO:540:CB:9857, V-B:TYR:539:CD1:9845, V-B:PRO:540:CA:9855, V-B:TYR:539:CE2:9848, H-B:TYR:539:N:9842, V-B:ASP:366:CB:8183, H-B:ASP:366:OD1:8185, V-B:ASP:366:CG:8184, V-B:MET:535:CE:9807, V-B:LEU:363:CD1:8160, V-B:TYR:539:C:9839, V-B:TYR:539:CG:9844, H-B:GLU:543:OE1:9881, V-B:TYR:531:CZ:9766, H-B:ALA:541:N:9863, V-B:TYR:539:CD2:9846, V-B:LEU:363:CA:8156, V-B:TYR:531:CE2:9765, V-B:GLU:543:CG:9879, V-A:TYR:484:CZ:4347, V-A:TYR:484:CE2:4346, V-B:GLU:543:CD:9880, V-B:ILE:538:CG2:9835, V-B:ILE:538:CA:9832, V-B:ILE:538:C:9830, V-B:ASN:362:C:8143, V-B:LEU:363:CB:8158, V-B:ILE:538:CB:9834, V-B:LEU:363:CG:8159, V-B:TYR:531:CD2:9763"]

$$$$
4bk_Grossjean_2025
     RDKit          3D

 28 29  0  0  0  0  0  0  0  0999 V2000
  134.5260  126.8390   74.9540 C   0  0  0  0  0  0  0  0  0  0  0  0
  133.1570  127.2120   74.9210 O   0  0  0  0  0  0  0  0  0  0  0  0
  132.4240  126.5830   73.8780 C   0  0  0  0  0  0  0  0  0  0  0  0
  130.9290  126.8820   74.0500 C   0  0  0  0  0  0  0  0  0  0  0  0
  130.6360  128.1570   73.4950 O   0  0  0  0  0  0  0  0  0  0  0  0
  129.8620  128.1010   72.3040 C   0  0  0  0  0  0  0  0  0  0  0  0
  130.7970  127.9730   71.0940 C   0  0  0  0  0  0  0  0  0  0  0  0
  130.1240  127.2800   70.0520 O   0  0  0  0  0  0  0  0  0  0  0  0
  130.6180  127.5770   68.7510 C   0  0  0  0  0  0  0  0  0  0  0  0
  129.5010  127.3520   67.7180 C   0  0  0  0  0  0  0  0  0  0  0  0
  129.8670  126.4210   66.6500 N   0  0  0  0  0  0  0  0  0  0  0  0
  130.0040  125.0860   66.7920 C   0  0  0  0  0  0  0  0  0  0  0  0
  129.8060  124.5130   67.8640 O   0  0  0  0  0  0  0  0  0  0  0  0
  130.3930  124.3470   65.5900 C   0  0  0  0  0  0  0  0  0  0  0  0
  129.4960  122.9100   65.1070 S   0  0  0  0  0  0  0  0  0  0  0  0
  130.5090  122.6980   63.6990 C   0  0  0  0  0  0  0  0  0  0  0  0
  130.3180  121.6880   62.8500 N   0  0  0  0  0  0  0  0  0  0  0  0
  131.1640  121.6290   61.7960 C   0  0  0  0  0  0  0  0  0  0  0  0
  130.9270  120.4730   60.8420 C   0  0  0  0  0  0  0  0  0  0  0  0
  132.1870  122.5480   61.5720 C   0  0  0  0  0  0  0  0  0  0  0  0
  132.3950  123.6130   62.4620 C   0  0  0  0  0  0  0  0  0  0  0  0
  133.5350  124.5950   62.1760 C   0  0  0  0  0  0  0  0  0  0  0  0
  134.2800  124.2390   61.1270 F   0  0  0  0  0  0  0  0  0  0  0  0
  133.0350  125.8040   61.9200 F   0  0  0  0  0  0  0  0  0  0  0  0
  134.3430  124.6680   63.2320 F   0  0  0  0  0  0  0  0  0  0  0  0
  131.5180  123.7050   63.5850 C   0  0  0  0  0  0  0  0  0  0  0  0
  131.4220  124.6360   64.6810 C   0  0  0  0  0  0  0  0  0  0  0  0
  132.2660  125.7080   64.8200 N   0  0  0  0  0  0  0  0  0  0  0  0
  1  2  1  0
  2  3  1  0
  3  4  1  0
  4  5  1  0
  5  6  1  0
  6  7  1  0
  7  8  1  0
  8  9  1  0
  9 10  1  0
 10 11  1  0
 11 12  1  0
 12 13  2  0
 12 14  1  0
 14 15  1  0
 15 16  1  0
 16 17  2  0
 17 18  1  0
 18 19  1  0
 18 20  2  0
 20 21  1  0
 21 22  1  0
 22 23  1  0
 22 24  1  0
 22 25  1  0
 21 26  2  0
 26 27  1  0
 27 28  1  0
 27 14  2  0
 26 16  1  0
M  END
>  <Binding energies>  (138) 
[-5.65]

>  <Ligand effiencies>  (138) 
[-0.18225806451612905]

>  <Interactions>  (138) 
["V-A:ASP:366:CG:3213, V-B:TYR:539:CE2:9848, V-B:TYR:539:CD2:9846, V-B:ALA:541:CB:9864, V-A:ILE:369:CD1:3239, V-B:GLU:543:CG:9879, V-A:LEU:475:CD2:4259, V-A:TYR:484:CZ:4347, V-A:GLY:453:CA:4044, V-B:GLU:543:CB:9878, H-A:TYR:484:OH:4348, V-A:GLU:543:CD:4908, V-A:TYR:484:CE2:4346, V-A:GLY:454:CA:4049, V-A:ARG:545:CZ:4926, V-A:GLY:544:C:4912, H-A:LYS:547:NZ:4951, V-A:HIS:456:CE1:4070, V-A:GLU:543:C:4902, V-A:GLU:543:CB:4906, H-A:GLU:543:OE1:4909, H-A:GLU:543:OE2:4910, V-A:HIS:456:CD2:4068, V-A:HIS:456:CB:4065, V-A:ARG:545:C:4917, V-A:HIS:456:CG:4066, V-A:LYS:547:CG:4948, V-A:GLY:453:C:4042, V-A:LYS:547:CB:4947"]

$$$$
4cd_Grossjean_2025
     RDKit          3D

 29 32  0  0  0  0  0  0  0  0999 V2000
  129.0490  127.2270   63.7940 N   0  0  0  0  0  0  0  0  0  0  0  0
  129.3870  126.5070   64.9120 C   0  0  0  0  0  0  0  0  0  0  0  0
  130.0140  125.2520   64.8590 C   0  0  0  0  0  0  0  0  0  0  0  0
  130.4050  124.4750   63.6780 C   0  0  0  0  0  0  0  0  0  0  0  0
  129.7630  124.5580   62.6310 O   0  0  0  0  0  0  0  0  0  0  0  0
  131.5020  123.6940   63.8340 N   0  0  0  0  0  0  0  0  0  0  0  0
  132.1010  122.8000   62.9280 C   0  0  0  0  0  0  0  0  0  0  0  0
  131.2320  122.1340   62.0590 C   0  0  0  0  0  0  0  0  0  0  0  0
  131.7310  121.2390   61.1170 C   0  0  0  0  0  0  0  0  0  0  0  0
  133.1020  121.0130   61.0380 C   0  0  0  0  0  0  0  0  0  0  0  0
  133.9810  121.6790   61.8880 C   0  0  0  0  0  0  0  0  0  0  0  0
  133.4860  122.5760   62.8320 C   0  0  0  0  0  0  0  0  0  0  0  0
  130.3100  124.6200   66.4770 S   0  0  0  0  0  0  0  0  0  0  0  0
  129.5850  126.0300   67.2100 C   0  0  0  0  0  0  0  0  0  0  0  0
  129.4960  126.1580   68.5320 N   0  0  0  0  0  0  0  0  0  0  0  0
  128.9040  127.2850   69.0080 C   0  0  0  0  0  0  0  0  0  0  0  0
  128.8150  127.3990   70.5020 C   0  0  0  0  0  0  0  0  0  0  0  0
  129.8610  127.9750   71.2420 C   0  0  0  0  0  0  0  0  0  0  0  0
  129.7850  128.0860   72.6280 C   0  0  0  0  0  0  0  0  0  0  0  0
  128.6580  127.6200   73.2960 C   0  0  0  0  0  0  0  0  0  0  0  0
  127.6070  127.0480   72.5880 C   0  0  0  0  0  0  0  0  0  0  0  0
  127.6850  126.9420   71.2030 C   0  0  0  0  0  0  0  0  0  0  0  0
  128.4230  128.2840   68.1570 C   0  0  0  0  0  0  0  0  0  0  0  0
  128.5160  128.1600   66.7610 C   0  0  0  0  0  0  0  0  0  0  0  0
  127.9640  129.2920   65.8860 C   0  0  0  0  0  0  0  0  0  0  0  0
  128.6000  129.4090   64.7180 F   0  0  0  0  0  0  0  0  0  0  0  0
  126.6770  129.0710   65.6200 F   0  0  0  0  0  0  0  0  0  0  0  0
  128.0880  130.4560   66.5240 F   0  0  0  0  0  0  0  0  0  0  0  0
  129.1230  126.9780   66.2500 C   0  0  0  0  0  0  0  0  0  0  0  0
  1  2  1  0
  2  3  2  0
  3  4  1  0
  4  5  2  0
  4  6  1  0
  6  7  1  0
  7  8  2  0
  8  9  1  0
  9 10  2  0
 10 11  1  0
 11 12  2  0
  3 13  1  0
 13 14  1  0
 14 15  2  0
 15 16  1  0
 16 17  1  0
 17 18  2  0
 18 19  1  0
 19 20  2  0
 20 21  1  0
 21 22  2  0
 16 23  2  0
 23 24  1  0
 24 25  1  0
 25 26  1  0
 25 27  1  0
 25 28  1  0
 24 29  2  0
 29  2  1  0
 12  7  1  0
 29 14  1  0
 22 17  1  0
M  END
>  <Binding energies>  (139) 
[-7.28]

>  <Ligand effiencies>  (139) 
[-0.2275]

>  <Interactions>  (139) 
["V-B:TYR:539:CE2:9848, H-B:GLU:543:OE1:9881, V-B:TYR:539:CD2:9846, V-A:ILE:369:CD1:3239, V-B:GLU:543:CG:9879, V-A:ILE:369:CG2:3237, V-A:LEU:475:CD2:4259, V-A:TYR:484:CZ:4347, V-B:GLU:543:CB:9878, H-A:TYR:484:OH:4348, V-A:GLU:543:CD:4908, V-A:TYR:484:CE2:4346, V-A:GLY:454:CA:4049, V-B:GLU:543:CD:9880, V-B:HIS:456:CE1:9041, V-B:GLY:544:C:9884, V-B:GLU:543:C:9874, V-B:HIS:456:CD2:9039, V-B:LYS:547:CE:9922, V-A:HIS:456:CE1:4070, V-A:GLU:543:CG:4907, V-A:GLU:543:CB:4906, H-A:GLU:543:OE1:4909, H-A:GLU:543:OE2:4910, V-B:TYR:484:CZ:9318, V-A:GLU:543:CA:4904, H-B:GLU:543:OE2:9882, V-B:TYR:484:CE2:9317, V-A:SER:385:CB:3409, V-A:SER:385:C:3405"]

$$$$
4cg_Grossjean_2025
     RDKit          3D

 30 33  0  0  0  0  0  0  0  0999 V2000
  128.7330  127.2250   63.5400 N   0  0  0  0  0  0  0  0  0  0  0  0
  129.1260  126.4660   64.6120 C   0  0  0  0  0  0  0  0  0  0  0  0
  129.6070  125.1550   64.4890 C   0  0  0  0  0  0  0  0  0  0  0  0
  129.8290  124.3750   63.2720 C   0  0  0  0  0  0  0  0  0  0  0  0
  130.9660  124.0780   62.8970 O   0  0  0  0  0  0  0  0  0  0  0  0
  128.7240  124.0410   62.5730 N   0  0  0  0  0  0  0  0  0  0  0  0
  128.7050  123.2490   61.3440 C   0  0  0  0  0  0  0  0  0  0  0  0
  127.4430  123.4480   60.5130 C   0  0  0  0  0  0  0  0  0  0  0  0
  126.2280  123.7210   61.1500 C   0  0  0  0  0  0  0  0  0  0  0  0
  125.0790  123.9350   60.3940 C   0  0  0  0  0  0  0  0  0  0  0  0
  125.1500  123.8850   59.0030 C   0  0  0  0  0  0  0  0  0  0  0  0
  126.3600  123.6300   58.3620 C   0  0  0  0  0  0  0  0  0  0  0  0
  127.5100  123.4180   59.1180 C   0  0  0  0  0  0  0  0  0  0  0  0
  130.0410  124.4800   66.0570 S   0  0  0  0  0  0  0  0  0  0  0  0
  129.5540  125.9500   66.8690 C   0  0  0  0  0  0  0  0  0  0  0  0
  129.6460  126.0750   68.1900 N   0  0  0  0  0  0  0  0  0  0  0  0
  129.2490  127.2550   68.7330 C   0  0  0  0  0  0  0  0  0  0  0  0
  129.3630  127.3650   70.2270 C   0  0  0  0  0  0  0  0  0  0  0  0
  128.3340  126.9030   71.0650 C   0  0  0  0  0  0  0  0  0  0  0  0
  128.4340  127.0040   72.4490 C   0  0  0  0  0  0  0  0  0  0  0  0
  129.5690  127.5710   73.0200 C   0  0  0  0  0  0  0  0  0  0  0  0
  130.6020  128.0390   72.2150 C   0  0  0  0  0  0  0  0  0  0  0  0
  130.4970  127.9360   70.8310 C   0  0  0  0  0  0  0  0  0  0  0  0
  128.7430  128.2970   67.9460 C   0  0  0  0  0  0  0  0  0  0  0  0
  128.6420  128.1750   66.5520 C   0  0  0  0  0  0  0  0  0  0  0  0
  128.0790  129.3540   65.7500 C   0  0  0  0  0  0  0  0  0  0  0  0
  128.6950  129.5330   64.5790 F   0  0  0  0  0  0  0  0  0  0  0  0
  126.7860  129.1500   65.4950 F   0  0  0  0  0  0  0  0  0  0  0  0
  128.2170  130.4800   66.4480 F   0  0  0  0  0  0  0  0  0  0  0  0
  129.0700  126.9460   65.9710 C   0  0  0  0  0  0  0  0  0  0  0  0
  1  2  1  0
  2  3  2  0
  3  4  1  0
  4  5  2  0
  4  6  1  0
  6  7  1  0
  7  8  1  0
  8  9  2  0
  9 10  1  0
 10 11  2  0
 11 12  1  0
 12 13  2  0
  3 14  1  0
 14 15  1  0
 15 16  2  0
 16 17  1  0
 17 18  1  0
 18 19  2  0
 19 20  1  0
 20 21  2  0
 21 22  1  0
 22 23  2  0
 17 24  2  0
 24 25  1  0
 25 26  1  0
 26 27  1  0
 26 28  1  0
 26 29  1  0
 25 30  2  0
 30  2  1  0
 13  8  1  0
 30 15  1  0
 23 18  1  0
M  END
>  <Binding energies>  (140) 
[-7.52]

>  <Ligand effiencies>  (140) 
[-0.22787878787878788]

>  <Interactions>  (140) 
["V-B:PRO:540:CB:9857, V-B:PRO:540:CA:9855, H-B:GLU:543:OE1:9881, V-B:GLU:543:CG:9879, V-A:TYR:484:CZ:4347, V-B:GLU:543:CB:9878, V-A:GLU:543:CD:4908, V-A:TYR:484:CE2:4346, V-B:GLU:543:CD:9880, V-B:HIS:456:CE1:9041, V-A:GLY:544:C:4912, V-A:HIS:456:CE1:4070, V-A:GLU:543:CG:4907, V-A:GLU:543:C:4902, V-A:GLU:543:CB:4906, H-A:GLU:543:OE1:4909, H-A:GLU:543:OE2:4910, V-B:TYR:484:CZ:9318, V-A:GLU:543:CA:4904, H-B:GLU:543:OE2:9882, V-B:TYR:484:CE2:9317"]

$$$$
4ch_Grossjean_2025
     RDKit          3D

 36 39  0  0  0  0  0  0  0  0999 V2000
  127.6240  122.9400   55.8820 C   0  0  0  0  0  0  0  0  0  0  0  0
  127.4360  122.0530   56.9800 O   0  0  0  0  0  0  0  0  0  0  0  0
  127.3930  122.5640   58.2640 C   0  0  0  0  0  0  0  0  0  0  0  0
  128.4720  122.5180   59.1630 C   0  0  0  0  0  0  0  0  0  0  0  0
  128.3580  123.0560   60.4450 C   0  0  0  0  0  0  0  0  0  0  0  0
  129.5300  122.9710   61.4160 C   0  0  0  0  0  0  0  0  0  0  0  0
  129.3690  123.7830   62.6240 N   0  0  0  0  0  0  0  0  0  0  0  0
  130.3430  124.5010   63.2210 C   0  0  0  0  0  0  0  0  0  0  0  0
  131.4900  124.5640   62.7740 O   0  0  0  0  0  0  0  0  0  0  0  0
  129.9500  125.2400   64.4220 C   0  0  0  0  0  0  0  0  0  0  0  0
  130.2520  124.5580   66.0160 S   0  0  0  0  0  0  0  0  0  0  0  0
  129.5700  125.9650   66.7960 C   0  0  0  0  0  0  0  0  0  0  0  0
  129.4980  126.0580   68.1210 N   0  0  0  0  0  0  0  0  0  0  0  0
  128.9570  127.1930   68.6360 C   0  0  0  0  0  0  0  0  0  0  0  0
  128.8840  127.2640   70.1350 C   0  0  0  0  0  0  0  0  0  0  0  0
  127.7120  126.8970   70.8160 C   0  0  0  0  0  0  0  0  0  0  0  0
  127.6370  126.9620   72.2050 C   0  0  0  0  0  0  0  0  0  0  0  0
  128.7380  127.3970   72.9360 C   0  0  0  0  0  0  0  0  0  0  0  0
  129.9100  127.7700   72.2860 C   0  0  0  0  0  0  0  0  0  0  0  0
  129.9790  127.7050   70.8970 C   0  0  0  0  0  0  0  0  0  0  0  0
  128.4760  128.2190   67.8180 C   0  0  0  0  0  0  0  0  0  0  0  0
  128.5450  128.1310   66.4180 C   0  0  0  0  0  0  0  0  0  0  0  0
  127.9990  129.2930   65.5810 C   0  0  0  0  0  0  0  0  0  0  0  0
  128.7240  129.5360   64.4860 F   0  0  0  0  0  0  0  0  0  0  0  0
  126.7580  129.0190   65.1840 F   0  0  0  0  0  0  0  0  0  0  0  0
  127.9920  130.4090   66.3090 F   0  0  0  0  0  0  0  0  0  0  0  0
  129.1230  126.9510   65.8680 C   0  0  0  0  0  0  0  0  0  0  0  0
  129.3640  126.5130   64.5140 C   0  0  0  0  0  0  0  0  0  0  0  0
  129.0400  127.2710   63.4180 N   0  0  0  0  0  0  0  0  0  0  0  0
  127.1520  123.6330   60.8450 C   0  0  0  0  0  0  0  0  0  0  0  0
  126.0570  123.6910   59.9680 C   0  0  0  0  0  0  0  0  0  0  0  0
  124.8340  124.2490   60.2970 O   0  0  0  0  0  0  0  0  0  0  0  0
  124.1300  123.7670   61.4360 C   0  0  0  0  0  0  0  0  0  0  0  0
  126.1930  123.1590   58.6780 C   0  0  0  0  0  0  0  0  0  0  0  0
  125.1250  123.1970   57.8150 O   0  0  0  0  0  0  0  0  0  0  0  0
  124.7670  124.5060   57.3930 C   0  0  0  0  0  0  0  0  0  0  0  0
  1  2  1  0
  2  3  1  0
  3  4  2  0
  4  5  1  0
  5  6  1  0
  6  7  1  0
  7  8  1  0
  8  9  2  0
  8 10  1  0
 10 11  1  0
 11 12  1  0
 12 13  2  0
 13 14  1  0
 14 15  1  0
 15 16  2  0
 16 17  1  0
 17 18  2  0
 18 19  1  0
 19 20  2  0
 14 21  2  0
 21 22  1  0
 22 23  1  0
 23 24  1  0
 23 25  1  0
 23 26  1  0
 22 27  2  0
 27 28  1  0
 28 29  1  0
  5 30  2  0
 30 31  1  0
 31 32  1  0
 32 33  1  0
 31 34  2  0
 34 35  1  0
 35 36  1  0
 34  3  1  0
 28 10  2  0
 27 12  1  0
 20 15  1  0
M  END
>  <Binding energies>  (141) 
[-7.61]

>  <Ligand effiencies>  (141) 
[-0.19512820512820514]

>  <Interactions>  (141) 
["V-B:TYR:539:CZ:9849, V-B:PRO:540:N:9856, V-B:TYR:539:CE1:9847, V-B:PRO:540:CB:9857, V-B:TYR:539:CD1:9845, V-B:PRO:540:CA:9855, V-B:TYR:539:CE2:9848, H-B:TYR:539:N:9842, V-B:MET:535:CE:9807, V-B:LEU:363:CD1:8160, V-B:TYR:539:C:9839, V-B:TYR:539:CG:9844, H-B:GLU:543:OE1:9881, V-B:TYR:539:CD2:9846, V-B:TYR:531:CE2:9765, V-B:GLU:543:CG:9879, V-A:TYR:484:CZ:4347, V-B:GLU:543:CB:9878, V-A:GLU:543:CD:4908, V-A:TYR:484:CE2:4346, V-B:GLU:543:CD:9880, V-B:HIS:456:CE1:9041, V-B:GLY:544:C:9884, V-B:GLU:543:C:9874, V-B:HIS:456:CD2:9039, V-B:LYS:547:CE:9922, V-A:HIS:456:CE1:4070, V-A:GLU:543:CG:4907, V-A:GLU:543:CB:4906, H-A:GLU:543:OE1:4909, H-A:GLU:543:OE2:4910, V-B:TYR:484:CZ:9318, H-B:GLU:543:OE2:9882, V-B:ASN:362:CB:8147, V-B:TYR:484:CE2:9317, V-B:ASN:362:C:8143"]

$$$$
4cj_Grossjean_2025
     RDKit          3D

 28 31  0  0  0  0  0  0  0  0999 V2000
  129.0700  127.1860   63.7830 N   0  0  0  0  0  0  0  0  0  0  0  0
  129.4760  126.5240   64.9140 C   0  0  0  0  0  0  0  0  0  0  0  0
  130.2690  125.3650   64.8840 C   0  0  0  0  0  0  0  0  0  0  0  0
  130.8090  124.6580   63.7200 C   0  0  0  0  0  0  0  0  0  0  0  0
  130.4050  124.9130   62.5830 O   0  0  0  0  0  0  0  0  0  0  0  0
  131.7530  123.7230   63.9940 N   0  0  0  0  0  0  0  0  0  0  0  0
  132.4190  122.9190   63.0790 C   0  0  0  0  0  0  0  0  0  0  0  0
  133.7110  122.6760   63.0080 N   0  0  0  0  0  0  0  0  0  0  0  0
  133.9960  121.8610   62.0120 C   0  0  0  0  0  0  0  0  0  0  0  0
  132.9200  121.4220   61.2470 C   0  0  0  0  0  0  0  0  0  0  0  0
  131.4570  122.1220   61.8760 S   0  0  0  0  0  0  0  0  0  0  0  0
  130.6140  124.7870   66.5120 S   0  0  0  0  0  0  0  0  0  0  0  0
  129.6950  126.0950   67.2190 C   0  0  0  0  0  0  0  0  0  0  0  0
  129.5710  126.2230   68.5380 N   0  0  0  0  0  0  0  0  0  0  0  0
  128.8450  127.2750   68.9950 C   0  0  0  0  0  0  0  0  0  0  0  0
  128.7360  127.3980   70.4880 C   0  0  0  0  0  0  0  0  0  0  0  0
  127.5940  126.9420   71.1650 C   0  0  0  0  0  0  0  0  0  0  0  0
  127.4840  127.0580   72.5490 C   0  0  0  0  0  0  0  0  0  0  0  0
  128.5190  127.6370   73.2770 C   0  0  0  0  0  0  0  0  0  0  0  0
  129.6600  128.0990   72.6310 C   0  0  0  0  0  0  0  0  0  0  0  0
  129.7660  127.9790   71.2480 C   0  0  0  0  0  0  0  0  0  0  0  0
  128.2250  128.1790   68.1250 C   0  0  0  0  0  0  0  0  0  0  0  0
  128.3470  128.0520   66.7320 C   0  0  0  0  0  0  0  0  0  0  0  0
  127.6440  129.0790   65.8370 C   0  0  0  0  0  0  0  0  0  0  0  0
  127.3370  128.6000   64.6310 F   0  0  0  0  0  0  0  0  0  0  0  0
  126.5080  129.4740   66.4110 F   0  0  0  0  0  0  0  0  0  0  0  0
  128.4360  130.1370   65.6570 F   0  0  0  0  0  0  0  0  0  0  0  0
  129.1230  126.9630   66.2420 C   0  0  0  0  0  0  0  0  0  0  0  0
  1  2  1  0
  2  3  2  0
  3  4  1  0
  4  5  2  0
  4  6  1  0
  6  7  1  0
  7  8  2  0
  8  9  1  0
  9 10  2  0
 10 11  1  0
  3 12  1  0
 12 13  1  0
 13 14  2  0
 14 15  1  0
 15 16  1  0
 16 17  2  0
 17 18  1  0
 18 19  2  0
 19 20  1  0
 20 21  2  0
 15 22  2  0
 22 23  1  0
 23 24  1  0
 24 25  1  0
 24 26  1  0
 24 27  1  0
 23 28  2  0
 28  2  1  0
 11  7  1  0
 28 13  1  0
 21 16  1  0
M  END
>  <Binding energies>  (142) 
[-6.88]

>  <Ligand effiencies>  (142) 
[-0.22193548387096773]

>  <Interactions>  (142) 
["H-B:GLU:543:OE1:9881, V-A:ILE:369:CD1:3239, V-B:GLU:543:CG:9879, V-A:ILE:369:CG2:3237, V-A:LEU:475:CD2:4259, V-A:TYR:484:CZ:4347, V-B:GLU:543:CB:9878, H-A:TYR:484:OH:4348, V-A:GLU:543:CD:4908, V-A:TYR:484:CE2:4346, V-A:GLY:454:CA:4049, V-B:GLU:543:CD:9880, V-B:HIS:456:CE1:9041, V-B:GLY:544:C:9884, V-B:GLU:543:C:9874, V-B:HIS:456:CD2:9039, V-B:LYS:547:CE:9922, V-A:HIS:456:CE1:4070, V-A:GLU:543:CG:4907, V-A:GLU:543:CB:4906, V-B:GLY:544:CA:9886, H-A:GLU:543:OE1:4909, H-A:GLU:543:OE2:4910, V-B:TYR:484:CZ:9318, H-B:GLU:543:OE2:9882, H-A:GLY:454:N:4050, V-B:TYR:484:CE2:9317, V-A:SER:385:C:3405"]

$$$$
4ck_Grossjean_2025
     RDKit          3D

 33 35  0  0  0  0  0  0  0  0999 V2000
  125.1450  122.3810   56.2470 C   0  0  0  0  0  0  0  0  0  0  0  0
  126.5050  121.9850   56.1630 O   0  0  0  0  0  0  0  0  0  0  0  0
  127.3580  122.7040   57.0420 C   0  0  0  0  0  0  0  0  0  0  0  0
  126.5290  123.7470   57.8020 C   0  0  0  0  0  0  0  0  0  0  0  0
  126.1960  123.2310   59.0830 O   0  0  0  0  0  0  0  0  0  0  0  0
  125.7330  124.2210   59.9920 C   0  0  0  0  0  0  0  0  0  0  0  0
  126.7460  124.3690   61.1340 C   0  0  0  0  0  0  0  0  0  0  0  0
  126.9630  123.0930   61.7200 O   0  0  0  0  0  0  0  0  0  0  0  0
  128.0310  122.3620   61.1300 C   0  0  0  0  0  0  0  0  0  0  0  0
  129.3730  122.9800   61.5510 C   0  0  0  0  0  0  0  0  0  0  0  0
  129.2420  123.8190   62.7430 N   0  0  0  0  0  0  0  0  0  0  0  0
  130.2470  124.4700   63.3650 C   0  0  0  0  0  0  0  0  0  0  0  0
  131.4090  124.4440   62.9580 O   0  0  0  0  0  0  0  0  0  0  0  0
  129.8740  125.2310   64.5580 C   0  0  0  0  0  0  0  0  0  0  0  0
  130.1890  124.5710   66.1610 S   0  0  0  0  0  0  0  0  0  0  0  0
  129.5540  126.0090   66.9250 C   0  0  0  0  0  0  0  0  0  0  0  0
  129.5160  126.1330   68.2490 N   0  0  0  0  0  0  0  0  0  0  0  0
  129.0040  127.2860   68.7520 C   0  0  0  0  0  0  0  0  0  0  0  0
  128.9920  127.4030   70.2490 C   0  0  0  0  0  0  0  0  0  0  0  0
  127.8830  126.9710   70.9950 C   0  0  0  0  0  0  0  0  0  0  0  0
  127.8650  127.0780   72.3840 C   0  0  0  0  0  0  0  0  0  0  0  0
  128.9600  127.6210   73.0480 C   0  0  0  0  0  0  0  0  0  0  0  0
  130.0730  128.0510   72.3340 C   0  0  0  0  0  0  0  0  0  0  0  0
  130.0880  127.9410   70.9460 C   0  0  0  0  0  0  0  0  0  0  0  0
  128.5410  128.3130   67.9220 C   0  0  0  0  0  0  0  0  0  0  0  0
  128.5750  128.1920   66.5240 C   0  0  0  0  0  0  0  0  0  0  0  0
  128.0480  129.3540   65.6740 C   0  0  0  0  0  0  0  0  0  0  0  0
  128.7130  129.5090   64.5280 F   0  0  0  0  0  0  0  0  0  0  0  0
  126.7680  129.1440   65.3680 F   0  0  0  0  0  0  0  0  0  0  0  0
  128.1550  130.4950   66.3550 F   0  0  0  0  0  0  0  0  0  0  0  0
  129.1080  126.9850   65.9860 C   0  0  0  0  0  0  0  0  0  0  0  0
  129.3110  126.5140   64.6370 C   0  0  0  0  0  0  0  0  0  0  0  0
  128.9790  127.2560   63.5330 N   0  0  0  0  0  0  0  0  0  0  0  0
  1  2  1  0
  2  3  1  0
  3  4  1  0
  4  5  1  0
  5  6  1  0
  6  7  1  0
  7  8  1  0
  8  9  1  0
  9 10  1  0
 10 11  1  0
 11 12  1  0
 12 13  2  0
 12 14  1  0
 14 15  1  0
 15 16  1  0
 16 17  2  0
 17 18  1  0
 18 19  1  0
 19 20  2  0
 20 21  1  0
 21 22  2  0
 22 23  1  0
 23 24  2  0
 18 25  2  0
 25 26  1  0
 26 27  1  0
 27 28  1  0
 27 29  1  0
 27 30  1  0
 26 31  2  0
 31 32  1  0
 32 33  1  0
 32 14  2  0
 31 16  1  0
 24 19  1  0
M  END
>  <Binding energies>  (143) 
[-7.23]

>  <Ligand effiencies>  (143) 
[-0.20083333333333334]

>  <Interactions>  (143) 
["V-B:TYR:539:CZ:9849, V-B:PRO:540:N:9856, V-B:TYR:539:CE1:9847, V-B:PRO:540:CB:9857, V-B:TYR:539:CD1:9845, V-B:PRO:540:CA:9855, V-B:TYR:539:CE2:9848, H-B:TYR:539:N:9842, V-B:PRO:540:CD:9859, V-B:MET:535:CE:9807, V-B:LEU:363:CD1:8160, V-B:PRO:540:CG:9858, V-B:TYR:539:C:9839, V-B:TYR:539:CG:9844, H-B:GLU:543:OE1:9881, V-B:PRO:540:C:9853, H-B:ALA:541:N:9863, V-B:TYR:539:CD2:9846, V-B:GLU:543:CG:9879, V-A:TYR:484:CZ:4347, V-B:GLU:543:CB:9878, V-A:GLU:543:CD:4908, V-A:TYR:484:CE2:4346, V-B:GLU:543:CD:9880, V-B:HIS:456:CE1:9041, V-B:GLY:544:C:9884, V-B:GLU:543:C:9874, V-B:HIS:456:CD2:9039, V-B:LYS:547:CE:9922, V-A:HIS:456:CE1:4070, V-A:GLU:543:CG:4907, V-A:GLU:543:CB:4906, H-A:GLU:543:OE1:4909, H-A:GLU:543:OE2:4910, V-B:TYR:484:CZ:9318, V-A:GLU:543:CA:4904, H-B:GLU:543:OE2:9882, V-B:ILE:538:CG2:9835, V-B:TYR:484:CE2:9317"]

$$$$
4dd_Grossjean_2025
     RDKit          3D

 26 29  0  0  0  0  0  0  0  0999 V2000
  127.7050  129.0940   65.8910 C   0  0  0  0  0  0  0  0  0  0  0  0
  128.4030  128.0510   66.7510 C   0  0  0  0  0  0  0  0  0  0  0  0
  128.3240  128.1820   68.1430 C   0  0  0  0  0  0  0  0  0  0  0  0
  128.9450  127.2550   68.9890 C   0  0  0  0  0  0  0  0  0  0  0  0
  128.8810  127.3740   70.4830 C   0  0  0  0  0  0  0  0  0  0  0  0
  129.9500  127.9240   71.2080 C   0  0  0  0  0  0  0  0  0  0  0  0
  129.8960  128.0400   72.5950 C   0  0  0  0  0  0  0  0  0  0  0  0
  128.7680  127.6030   73.2790 C   0  0  0  0  0  0  0  0  0  0  0  0
  127.6930  127.0550   72.5870 C   0  0  0  0  0  0  0  0  0  0  0  0
  127.7500  126.9430   71.2000 C   0  0  0  0  0  0  0  0  0  0  0  0
  129.6570  126.2030   68.5030 N   0  0  0  0  0  0  0  0  0  0  0  0
  129.7280  126.0730   67.1790 C   0  0  0  0  0  0  0  0  0  0  0  0
  130.5950  124.7570   66.4200 S   0  0  0  0  0  0  0  0  0  0  0  0
  130.1770  125.3480   64.8100 C   0  0  0  0  0  0  0  0  0  0  0  0
  130.6220  124.6250   63.6170 C   0  0  0  0  0  0  0  0  0  0  0  0
  130.1690  124.9070   62.5060 O   0  0  0  0  0  0  0  0  0  0  0  0
  131.5480  123.6600   63.8340 N   0  0  0  0  0  0  0  0  0  0  0  0
  132.1350  122.7600   62.9260 C   0  0  0  0  0  0  0  0  0  0  0  0
  131.2540  122.0980   62.0660 C   0  0  0  0  0  0  0  0  0  0  0  0
  131.7390  121.1980   61.1210 C   0  0  0  0  0  0  0  0  0  0  0  0
  133.1080  120.9630   61.0300 C   0  0  0  0  0  0  0  0  0  0  0  0
  133.9980  121.6240   61.8730 C   0  0  0  0  0  0  0  0  0  0  0  0
  133.5160  122.5250   62.8190 C   0  0  0  0  0  0  0  0  0  0  0  0
  129.4050  126.5170   64.8860 C   0  0  0  0  0  0  0  0  0  0  0  0
  128.9410  127.1990   63.7880 N   0  0  0  0  0  0  0  0  0  0  0  0
  129.1320  126.9510   66.2300 C   0  0  0  0  0  0  0  0  0  0  0  0
  1  2  1  0
  2  3  2  0
  3  4  1  0
  4  5  1  0
  5  6  2  0
  6  7  1  0
  7  8  2  0
  8  9  1  0
  9 10  2  0
  4 11  2  0
 11 12  1  0
 12 13  1  0
 13 14  1  0
 14 15  1  0
 15 16  2  0
 15 17  1  0
 17 18  1  0
 18 19  2  0
 19 20  1  0
 20 21  2  0
 21 22  1  0
 22 23  2  0
 14 24  2  0
 24 25  1  0
 24 26  1  0
 26  2  1  0
 10  5  1  0
 26 12  2  0
 23 18  1  0
M  END
>  <Binding energies>  (144) 
[-7.17]

>  <Ligand effiencies>  (144) 
[-0.24724137931034482]

>  <Interactions>  (144) 
["V-B:TYR:539:CE2:9848, H-B:GLU:543:OE1:9881, V-B:TYR:539:CD2:9846, V-A:ILE:369:CD1:3239, V-B:GLU:543:CG:9879, V-A:ILE:369:CG2:3237, V-A:LEU:475:CD2:4259, V-A:TYR:484:CZ:4347, V-B:GLU:543:CB:9878, H-A:TYR:484:OH:4348, V-A:GLU:543:CD:4908, V-A:TYR:484:CE2:4346, V-A:GLY:454:CA:4049, V-B:GLU:543:CD:9880, V-B:HIS:456:CE1:9041, V-B:GLY:544:C:9884, V-B:GLU:543:C:9874, V-B:HIS:456:CD2:9039, V-B:LYS:547:CE:9922, V-A:HIS:456:CE1:4070, V-A:GLU:543:CG:4907, V-A:GLU:543:CB:4906, H-A:GLU:543:OE1:4909, H-B:GLU:543:OE2:9882, V-A:SER:385:CB:3409, V-A:SER:385:C:3405"]

$$$$
4dg_Grossjean_2025
     RDKit          3D

 27 30  0  0  0  0  0  0  0  0999 V2000
  128.1140  129.3820   65.9330 C   0  0  0  0  0  0  0  0  0  0  0  0
  128.6310  128.2180   66.7640 C   0  0  0  0  0  0  0  0  0  0  0  0
  128.6850  128.3720   68.1540 C   0  0  0  0  0  0  0  0  0  0  0  0
  129.1500  127.3380   68.9760 C   0  0  0  0  0  0  0  0  0  0  0  0
  129.2180  127.4740   70.4710 C   0  0  0  0  0  0  0  0  0  0  0  0
  128.1140  127.1480   71.2750 C   0  0  0  0  0  0  0  0  0  0  0  0
  128.1710  127.2760   72.6610 C   0  0  0  0  0  0  0  0  0  0  0  0
  129.3370  127.7330   73.2650 C   0  0  0  0  0  0  0  0  0  0  0  0
  130.4450  128.0680   72.4920 C   0  0  0  0  0  0  0  0  0  0  0  0
  130.3830  127.9390   71.1080 C   0  0  0  0  0  0  0  0  0  0  0  0
  129.5500  126.1420   68.4670 N   0  0  0  0  0  0  0  0  0  0  0  0
  129.5000  125.9930   67.1430 C   0  0  0  0  0  0  0  0  0  0  0  0
  129.9900  124.5100   66.3590 S   0  0  0  0  0  0  0  0  0  0  0  0
  129.6100  125.1730   64.7700 C   0  0  0  0  0  0  0  0  0  0  0  0
  129.8540  124.3810   63.5660 C   0  0  0  0  0  0  0  0  0  0  0  0
  130.9990  124.1330   63.1820 O   0  0  0  0  0  0  0  0  0  0  0  0
  128.7560  123.9800   62.8920 N   0  0  0  0  0  0  0  0  0  0  0  0
  128.7590  123.1630   61.6790 C   0  0  0  0  0  0  0  0  0  0  0  0
  127.5770  123.4440   60.7570 C   0  0  0  0  0  0  0  0  0  0  0  0
  127.7520  123.4020   59.3710 C   0  0  0  0  0  0  0  0  0  0  0  0
  126.6690  123.6270   58.5260 C   0  0  0  0  0  0  0  0  0  0  0  0
  125.4120  123.8810   59.0700 C   0  0  0  0  0  0  0  0  0  0  0  0
  125.2260  123.9070   60.4500 C   0  0  0  0  0  0  0  0  0  0  0  0
  126.3090  123.6820   61.2950 C   0  0  0  0  0  0  0  0  0  0  0  0
  129.1420  126.4920   64.8670 C   0  0  0  0  0  0  0  0  0  0  0  0
  128.7850  127.2570   63.7860 N   0  0  0  0  0  0  0  0  0  0  0  0
  129.0580  126.9800   66.2170 C   0  0  0  0  0  0  0  0  0  0  0  0
  1  2  1  0
  2  3  2  0
  3  4  1  0
  4  5  1  0
  5  6  2  0
  6  7  1  0
  7  8  2  0
  8  9  1  0
  9 10  2  0
  4 11  2  0
 11 12  1  0
 12 13  1  0
 13 14  1  0
 14 15  1  0
 15 16  2  0
 15 17  1  0
 17 18  1  0
 18 19  1  0
 19 20  2  0
 20 21  1  0
 21 22  2  0
 22 23  1  0
 23 24  2  0
 14 25  2  0
 25 26  1  0
 25 27  1  0
 27  2  1  0
 10  5  1  0
 27 12  2  0
 24 19  1  0
M  END
>  <Binding energies>  (145) 
[-7.79]

>  <Ligand effiencies>  (145) 
[-0.25966666666666666]

>  <Interactions>  (145) 
["V-B:PRO:540:CB:9857, V-B:PRO:540:CA:9855, H-B:GLU:543:OE1:9881, V-B:GLU:543:CG:9879, V-A:TYR:484:CZ:4347, V-B:GLU:543:CB:9878, V-A:GLU:543:CD:4908, V-A:TYR:484:CE2:4346, V-B:GLU:543:CD:9880, V-B:HIS:456:CE1:9041, V-A:GLY:544:C:4912, V-B:HIS:456:CD2:9039, V-A:HIS:456:CE1:4070, V-A:GLU:543:CG:4907, V-A:GLU:543:C:4902, V-A:GLU:543:CB:4906, H-A:GLU:543:OE1:4909, H-A:GLU:543:OE2:4910, H-B:GLU:543:OE2:9882, V-B:GLU:543:CA:9876"]

$$$$
4dj_Grossjean_2025
     RDKit          3D

 25 28  0  0  0  0  0  0  0  0999 V2000
  127.8430  129.1520   65.9440 C   0  0  0  0  0  0  0  0  0  0  0  0
  128.4680  128.0960   66.8440 C   0  0  0  0  0  0  0  0  0  0  0  0
  128.3370  128.2490   68.2290 C   0  0  0  0  0  0  0  0  0  0  0  0
  128.8900  127.3140   69.1120 C   0  0  0  0  0  0  0  0  0  0  0  0
  128.7600  127.4480   70.6030 C   0  0  0  0  0  0  0  0  0  0  0  0
  127.5620  127.1140   71.2550 C   0  0  0  0  0  0  0  0  0  0  0  0
  127.4350  127.2370   72.6360 C   0  0  0  0  0  0  0  0  0  0  0  0
  128.5090  127.7020   73.3880 C   0  0  0  0  0  0  0  0  0  0  0  0
  129.7060  128.0450   72.7690 C   0  0  0  0  0  0  0  0  0  0  0  0
  129.8280  127.9190   71.3880 C   0  0  0  0  0  0  0  0  0  0  0  0
  129.5590  126.2150   68.6680 N   0  0  0  0  0  0  0  0  0  0  0  0
  129.6860  126.0690   67.3500 C   0  0  0  0  0  0  0  0  0  0  0  0
  130.5290  124.7080   66.6430 S   0  0  0  0  0  0  0  0  0  0  0  0
  130.2140  125.3010   65.0110 C   0  0  0  0  0  0  0  0  0  0  0  0
  130.7050  124.5610   63.8480 C   0  0  0  0  0  0  0  0  0  0  0  0
  130.1610  124.6840   62.7470 O   0  0  0  0  0  0  0  0  0  0  0  0
  131.7660  123.7490   64.0780 N   0  0  0  0  0  0  0  0  0  0  0  0
  132.4160  122.9430   63.1540 C   0  0  0  0  0  0  0  0  0  0  0  0
  133.7030  122.6790   63.0770 N   0  0  0  0  0  0  0  0  0  0  0  0
  133.9720  121.8700   62.0710 C   0  0  0  0  0  0  0  0  0  0  0  0
  132.8860  121.4570   61.3050 C   0  0  0  0  0  0  0  0  0  0  0  0
  131.4380  122.1740   61.9460 S   0  0  0  0  0  0  0  0  0  0  0  0
  129.4900  126.5020   65.0400 C   0  0  0  0  0  0  0  0  0  0  0  0
  129.1080  127.1910   63.9160 N   0  0  0  0  0  0  0  0  0  0  0  0
  129.1730  126.9620   66.3660 C   0  0  0  0  0  0  0  0  0  0  0  0
  1  2  1  0
  2  3  2  0
  3  4  1  0
  4  5  1  0
  5  6  2  0
  6  7  1  0
  7  8  2  0
  8  9  1  0
  9 10  2  0
  4 11  2  0
 11 12  1  0
 12 13  1  0
 13 14  1  0
 14 15  1  0
 15 16  2  0
 15 17  1  0
 17 18  1  0
 18 19  2  0
 19 20  1  0
 20 21  2  0
 21 22  1  0
 14 23  2  0
 23 24  1  0
 23 25  1  0
 25  2  1  0
 10  5  1  0
 25 12  2  0
 22 18  1  0
M  END
>  <Binding energies>  (146) 
[-7.16]

>  <Ligand effiencies>  (146) 
[-0.2557142857142857]

>  <Interactions>  (146) 
["H-B:GLU:543:OE1:9881, V-A:ILE:369:CD1:3239, V-B:GLU:543:CG:9879, V-A:ILE:369:CG2:3237, V-A:LEU:475:CD2:4259, V-A:TYR:484:CZ:4347, V-B:GLU:543:CB:9878, H-A:TYR:484:OH:4348, V-A:GLU:543:CD:4908, V-A:TYR:484:CE2:4346, V-A:GLY:454:CA:4049, V-B:GLU:543:CD:9880, V-B:HIS:456:CE1:9041, V-B:GLY:544:C:9884, V-B:HIS:456:CD2:9039, V-B:LYS:547:CE:9922, V-A:HIS:456:CE1:4070, V-A:GLU:543:CG:4907, V-A:GLU:543:CB:4906, V-B:HIS:456:CG:9037, H-A:GLU:543:OE1:4909, H-A:GLU:543:OE2:4910, H-B:GLU:543:OE2:9882, H-A:GLY:454:N:4050"]

$$$$
4ea_Grossjean_2025
     RDKit          3D

 31 34  0  0  0  0  0  0  0  0999 V2000
  131.4160  131.9340   55.6710 C   0  0  0  0  0  0  0  0  0  0  0  0
  131.7510  132.6400   56.9880 C   0  0  0  0  0  0  0  0  0  0  0  0
  130.7550  133.6150   57.2680 O   0  0  0  0  0  0  0  0  0  0  0  0
  129.4790  133.2520   57.5570 C   0  0  0  0  0  0  0  0  0  0  0  0
  128.5200  133.4910   56.8160 O   0  0  0  0  0  0  0  0  0  0  0  0
  129.3490  132.5300   58.8670 C   0  0  0  0  0  0  0  0  0  0  0  0
  129.5560  131.1460   58.9080 C   0  0  0  0  0  0  0  0  0  0  0  0
  129.4430  130.4480   60.1070 C   0  0  0  0  0  0  0  0  0  0  0  0
  129.1220  131.1170   61.2880 C   0  0  0  0  0  0  0  0  0  0  0  0
  129.0350  130.3090   62.4390 N   0  0  0  0  0  0  0  0  0  0  0  0
  128.0080  129.5620   62.9120 C   0  0  0  0  0  0  0  0  0  0  0  0
  126.9090  129.4680   62.3640 O   0  0  0  0  0  0  0  0  0  0  0  0
  128.2820  128.8410   64.1580 C   0  0  0  0  0  0  0  0  0  0  0  0
  127.6550  129.4430   65.6950 S   0  0  0  0  0  0  0  0  0  0  0  0
  128.3820  128.1140   66.5670 C   0  0  0  0  0  0  0  0  0  0  0  0
  128.2590  127.9880   67.8900 N   0  0  0  0  0  0  0  0  0  0  0  0
  128.8700  126.9130   68.4450 C   0  0  0  0  0  0  0  0  0  0  0  0
  128.7180  126.7890   69.9500 C   0  0  0  0  0  0  0  0  0  0  0  0
  129.5930  125.9710   67.7170 C   0  0  0  0  0  0  0  0  0  0  0  0
  129.7200  126.1070   66.3310 C   0  0  0  0  0  0  0  0  0  0  0  0
  130.4920  125.0980   65.5710 C   0  0  0  0  0  0  0  0  0  0  0  0
  131.8150  125.3580   65.2000 C   0  0  0  0  0  0  0  0  0  0  0  0
  132.5420  124.4080   64.4870 C   0  0  0  0  0  0  0  0  0  0  0  0
  131.9440  123.1980   64.1430 C   0  0  0  0  0  0  0  0  0  0  0  0
  130.6260  122.9310   64.5030 C   0  0  0  0  0  0  0  0  0  0  0  0
  129.9000  123.8810   65.2160 C   0  0  0  0  0  0  0  0  0  0  0  0
  129.0930  127.2220   65.7090 C   0  0  0  0  0  0  0  0  0  0  0  0
  129.0200  127.6610   64.3400 C   0  0  0  0  0  0  0  0  0  0  0  0
  129.6240  126.9730   63.3180 N   0  0  0  0  0  0  0  0  0  0  0  0
  128.9130  132.5050   61.2570 C   0  0  0  0  0  0  0  0  0  0  0  0
  129.0260  133.2010   60.0570 C   0  0  0  0  0  0  0  0  0  0  0  0
  1  2  1  0
  2  3  1  0
  3  4  1  0
  4  5  2  0
  4  6  1  0
  6  7  2  0
  7  8  1  0
  8  9  2  0
  9 10  1  0
 10 11  1  0
 11 12  2  0
 11 13  1  0
 13 14  1  0
 14 15  1  0
 15 16  2  0
 16 17  1  0
 17 18  1  0
 17 19  2  0
 19 20  1  0
 20 21  1  0
 21 22  2  0
 22 23  1  0
 23 24  2  0
 24 25  1  0
 25 26  2  0
 20 27  2  0
 27 28  1  0
 28 29  1  0
  9 30  1  0
 30 31  2  0
 31  6  1  0
 28 13  2  0
 27 15  1  0
 26 21  1  0
M  END
>  <Binding energies>  (147) 
[-8.52]

>  <Ligand effiencies>  (147) 
[-0.2505882352941176]

>  <Interactions>  (147) 
["V-A:LEU:363:CD1:3189, V-A:PRO:540:CA:4883, V-A:PRO:540:CB:4885, V-A:PRO:540:CD:4887, V-A:PRO:540:N:4884, V-A:TYR:539:C:4867, H-A:TYR:539:N:4870, H-B:GLU:543:OE1:9881, V-A:MET:535:CE:4835, V-B:GLU:543:CG:9879, V-A:LEU:475:CD2:4259, V-A:TYR:484:CZ:4347, V-B:GLU:543:CB:9878, V-A:GLU:543:CD:4908, V-A:TYR:484:CE2:4346, V-A:ARG:545:CZ:4926, V-B:GLU:543:CD:9880, V-B:GLU:543:C:9874, V-A:HIS:456:CE1:4070, V-A:GLU:543:CG:4907, V-A:GLU:543:CB:4906, H-A:GLU:543:OE1:4909, H-A:GLU:543:OE2:4910, V-A:TYR:539:CD1:4873, V-A:TYR:539:CG:4872, V-A:TYR:539:CA:4869, V-A:ILE:538:CG2:4863, V-A:ILE:538:CB:4862"]

$$$$
4eb_Grossjean_2025
     RDKit          3D

 30 33  0  0  0  0  0  0  0  0999 V2000
  131.7530  132.7750   56.4900 C   0  0  0  0  0  0  0  0  0  0  0  0
  130.9660  133.5520   57.3800 O   0  0  0  0  0  0  0  0  0  0  0  0
  129.6580  133.2550   57.5970 C   0  0  0  0  0  0  0  0  0  0  0  0
  128.7490  133.5870   56.8310 O   0  0  0  0  0  0  0  0  0  0  0  0
  129.4280  132.4810   58.8630 C   0  0  0  0  0  0  0  0  0  0  0  0
  130.4470  131.6530   59.3530 C   0  0  0  0  0  0  0  0  0  0  0  0
  130.2640  130.9240   60.5240 C   0  0  0  0  0  0  0  0  0  0  0  0
  129.0630  131.0050   61.2290 C   0  0  0  0  0  0  0  0  0  0  0  0
  128.9910  130.2230   62.3990 N   0  0  0  0  0  0  0  0  0  0  0  0
  127.9530  129.5320   62.9310 C   0  0  0  0  0  0  0  0  0  0  0  0
  126.8280  129.4790   62.4340 O   0  0  0  0  0  0  0  0  0  0  0  0
  128.2480  128.8230   64.1780 C   0  0  0  0  0  0  0  0  0  0  0  0
  127.6440  129.4370   65.7190 S   0  0  0  0  0  0  0  0  0  0  0  0
  128.3870  128.1160   66.5920 C   0  0  0  0  0  0  0  0  0  0  0  0
  128.2850  128.0020   67.9170 N   0  0  0  0  0  0  0  0  0  0  0  0
  128.9060  126.9330   68.4720 C   0  0  0  0  0  0  0  0  0  0  0  0
  128.7770  126.8220   69.9810 C   0  0  0  0  0  0  0  0  0  0  0  0
  129.6190  125.9850   67.7420 C   0  0  0  0  0  0  0  0  0  0  0  0
  129.7230  126.1090   66.3520 C   0  0  0  0  0  0  0  0  0  0  0  0
  130.4850  125.0940   65.5890 C   0  0  0  0  0  0  0  0  0  0  0  0
  129.8970  123.8640   65.2750 C   0  0  0  0  0  0  0  0  0  0  0  0
  130.6120  122.9090   64.5560 C   0  0  0  0  0  0  0  0  0  0  0  0
  131.9170  123.1840   64.1530 C   0  0  0  0  0  0  0  0  0  0  0  0
  132.5120  124.4050   64.4630 C   0  0  0  0  0  0  0  0  0  0  0  0
  131.7960  125.3590   65.1820 C   0  0  0  0  0  0  0  0  0  0  0  0
  129.0850  127.2180   65.7310 C   0  0  0  0  0  0  0  0  0  0  0  0
  128.9900  127.6450   64.3600 C   0  0  0  0  0  0  0  0  0  0  0  0
  129.5780  126.9490   63.3330 N   0  0  0  0  0  0  0  0  0  0  0  0
  128.0370  131.8310   60.7460 C   0  0  0  0  0  0  0  0  0  0  0  0
  128.2210  132.5600   59.5750 C   0  0  0  0  0  0  0  0  0  0  0  0
  1  2  1  0
  2  3  1  0
  3  4  2  0
  3  5  1  0
  5  6  2  0
  6  7  1  0
  7  8  2  0
  8  9  1  0
  9 10  1  0
 10 11  2  0
 10 12  1  0
 12 13  1  0
 13 14  1  0
 14 15  2  0
 15 16  1  0
 16 17  1  0
 16 18  2  0
 18 19  1  0
 19 20  1  0
 20 21  2  0
 21 22  1  0
 22 23  2  0
 23 24  1  0
 24 25  2  0
 19 26  2  0
 26 27  1  0
 27 28  1  0
  8 29  1  0
 29 30  2  0
 30  5  1  0
 27 12  2  0
 26 14  1  0
 25 20  1  0
M  END
>  <Binding energies>  (148) 
[-8.28]

>  <Ligand effiencies>  (148) 
[-0.2509090909090909]

>  <Interactions>  (148) 
["V-A:LEU:363:CD1:3189, V-A:PRO:540:CA:4883, V-A:PRO:540:CD:4887, V-A:PRO:540:N:4884, V-A:TYR:539:C:4867, H-A:TYR:539:N:4870, H-B:GLU:543:OE1:9881, V-B:GLU:543:CG:9879, V-A:LEU:475:CD2:4259, V-A:TYR:484:CZ:4347, V-B:GLU:543:CB:9878, V-A:GLU:543:CD:4908, V-A:TYR:484:CE2:4346, V-A:ARG:545:CZ:4926, V-B:GLU:543:CD:9880, V-B:GLU:543:C:9874, V-A:HIS:456:CE1:4070, V-A:GLU:543:CG:4907, V-A:GLU:543:CB:4906, H-A:GLU:543:OE1:4909, H-A:GLU:543:OE2:4910, V-A:TYR:539:CE1:4875, V-A:TYR:539:CD1:4873, V-A:TYR:539:CA:4869, V-A:ILE:538:CG2:4863, V-A:ILE:538:CB:4862"]

$$$$
8b_Ghoteimi_2023
     RDKit          3D

 34 38  0  0  0  0  0  0  0  0999 V2000
  130.9670  126.8970   73.9930 C   0  0  0  0  0  0  0  0  0  0  0  0
  130.2940  127.9730   73.3470 O   0  0  0  0  0  0  0  0  0  0  0  0
  129.9660  127.8560   72.0100 C   0  0  0  0  0  0  0  0  0  0  0  0
  130.9910  128.0850   71.0940 C   0  0  0  0  0  0  0  0  0  0  0  0
  130.7530  127.9900   69.7270 C   0  0  0  0  0  0  0  0  0  0  0  0
  129.4790  127.6630   69.2380 C   0  0  0  0  0  0  0  0  0  0  0  0
  129.2170  127.5620   67.7690 C   0  0  0  0  0  0  0  0  0  0  0  0
  128.5730  128.5830   67.0630 C   0  0  0  0  0  0  0  0  0  0  0  0
  128.3410  128.4640   65.6900 C   0  0  0  0  0  0  0  0  0  0  0  0
  127.6480  129.5600   64.9740 C   0  0  0  0  0  0  0  0  0  0  0  0
  128.3690  130.6580   64.5010 C   0  0  0  0  0  0  0  0  0  0  0  0
  127.7180  131.6830   63.8200 C   0  0  0  0  0  0  0  0  0  0  0  0
  126.3400  131.6270   63.6040 C   0  0  0  0  0  0  0  0  0  0  0  0
  125.7790  132.6880   62.9170 O   0  0  0  0  0  0  0  0  0  0  0  0
  124.3690  132.8730   62.9580 C   0  0  0  0  0  0  0  0  0  0  0  0
  125.6170  130.5250   64.0840 C   0  0  0  0  0  0  0  0  0  0  0  0
  126.2690  129.5000   64.7640 C   0  0  0  0  0  0  0  0  0  0  0  0
  128.7830  127.2830   65.0360 C   0  0  0  0  0  0  0  0  0  0  0  0
  128.7170  126.8400   63.6680 C   0  0  0  0  0  0  0  0  0  0  0  0
  128.1430  127.5980   62.6790 N   0  0  0  0  0  0  0  0  0  0  0  0
  129.2900  125.5780   63.4500 C   0  0  0  0  0  0  0  0  0  0  0  0
  129.4020  124.8320   62.1950 C   0  0  0  0  0  0  0  0  0  0  0  0
  130.4970  124.6770   61.6500 O   0  0  0  0  0  0  0  0  0  0  0  0
  128.2350  124.3450   61.7020 N   0  0  0  0  0  0  0  0  0  0  0  0
  128.0500  123.6050   60.5420 C   0  0  0  0  0  0  0  0  0  0  0  0
  127.3610  124.0900   59.4310 C   0  0  0  0  0  0  0  0  0  0  0  0
  127.3970  123.0660   58.5130 C   0  0  0  0  0  0  0  0  0  0  0  0
  128.0770  122.0200   59.0410 O   0  0  0  0  0  0  0  0  0  0  0  0
  128.4870  122.3740   60.3280 N   0  0  0  0  0  0  0  0  0  0  0  0
  129.9330  124.9030   64.9490 S   0  0  0  0  0  0  0  0  0  0  0  0
  129.4310  126.3120   65.8540 C   0  0  0  0  0  0  0  0  0  0  0  0
  129.6510  126.4240   67.1630 N   0  0  0  0  0  0  0  0  0  0  0  0
  128.4540  127.4310   70.1640 C   0  0  0  0  0  0  0  0  0  0  0  0
  128.6890  127.5260   71.5330 C   0  0  0  0  0  0  0  0  0  0  0  0
  1  2  1  0
  2  3  1  0
  3  4  2  0
  4  5  1  0
  5  6  2  0
  6  7  1  0
  7  8  2  0
  8  9  1  0
  9 10  1  0
 10 11  2  0
 11 12  1  0
 12 13  2  0
 13 14  1  0
 14 15  1  0
 13 16  1  0
 16 17  2  0
  9 18  2  0
 18 19  1  0
 19 20  1  0
 19 21  2  0
 21 22  1  0
 22 23  2  0
 22 24  1  0
 24 25  1  0
 25 26  1  0
 26 27  2  0
 27 28  1  0
 28 29  1  0
 21 30  1  0
 30 31  1  0
 31 32  2  0
  6 33  1  0
 33 34  2  0
 34  3  1  0
 32  7  1  0
 17 10  1  0
 31 18  1  0
 29 25  2  0
M  END
>  <Binding energies>  (149) 
[-7.47]

>  <Ligand effiencies>  (149) 
[-0.20189189189189188]

>  <Interactions>  (149) 
["V-B:PRO:540:N:9856, V-B:PRO:540:CB:9857, V-B:PRO:540:CA:9855, V-B:TYR:539:C:9839, H-B:GLU:543:OE1:9881, V-B:GLU:543:CG:9879, V-B:GLU:543:CB:9878, V-A:GLU:543:CD:4908, V-B:GLU:543:CD:9880, V-B:HIS:456:CE1:9041, V-A:GLY:544:CA:4914, V-A:GLY:544:C:4912, H-A:LYS:547:NZ:4951, V-B:HIS:456:CD2:9039, V-A:HIS:456:CE1:4070, V-A:GLU:543:CG:4907, V-A:GLU:543:C:4902, V-A:GLU:543:CB:4906, H-A:GLU:543:OE1:4909, H-B:GLU:543:OE2:9882, V-A:HIS:456:CD2:4068, V-B:LEU:475:CD2:9230, V-B:GLY:454:CA:9020"]

$$$$
9d_Ghoteimi_2023
     RDKit          3D

 38 43  0  0  0  0  0  0  0  0999 V2000
  128.2360  132.8850   55.7740 C   0  0  0  0  0  0  0  0  0  0  0  0
  128.0630  132.2290   57.0220 O   0  0  0  0  0  0  0  0  0  0  0  0
  128.8310  132.5570   58.0940 C   0  0  0  0  0  0  0  0  0  0  0  0
  129.5700  133.5440   58.1360 O   0  0  0  0  0  0  0  0  0  0  0  0
  128.6950  131.6000   59.2140 C   0  0  0  0  0  0  0  0  0  0  0  0
  129.0490  132.1220   60.8610 S   0  0  0  0  0  0  0  0  0  0  0  0
  128.6420  130.5430   61.4900 C   0  0  0  0  0  0  0  0  0  0  0  0
  128.6810  130.2810   62.7960 N   0  0  0  0  0  0  0  0  0  0  0  0
  128.3300  129.0270   63.1850 C   0  0  0  0  0  0  0  0  0  0  0  0
  128.3560  128.7640   64.6570 C   0  0  0  0  0  0  0  0  0  0  0  0
  127.9980  129.7660   65.5640 C   0  0  0  0  0  0  0  0  0  0  0  0
  128.0210  129.5320   66.9360 C   0  0  0  0  0  0  0  0  0  0  0  0
  128.3930  128.2800   67.4510 C   0  0  0  0  0  0  0  0  0  0  0  0
  128.4390  128.0350   68.8280 N   0  0  0  0  0  0  0  0  0  0  0  0
  127.7330  126.8840   69.4270 C   0  0  0  0  0  0  0  0  0  0  0  0
  127.6010  126.9630   70.9620 C   0  0  0  0  0  0  0  0  0  0  0  0
  128.8780  127.1390   71.5510 O   0  0  0  0  0  0  0  0  0  0  0  0
  129.4930  128.3380   71.1090 C   0  0  0  0  0  0  0  0  0  0  0  0
  129.6840  128.3040   69.5770 C   0  0  0  0  0  0  0  0  0  0  0  0
  128.7670  127.2840   66.5380 C   0  0  0  0  0  0  0  0  0  0  0  0
  128.7460  127.5190   65.1660 C   0  0  0  0  0  0  0  0  0  0  0  0
  127.9740  128.0340   62.2690 C   0  0  0  0  0  0  0  0  0  0  0  0
  127.9510  128.2990   60.8950 C   0  0  0  0  0  0  0  0  0  0  0  0
  127.5920  127.1990   59.9610 C   0  0  0  0  0  0  0  0  0  0  0  0
  126.3950  127.2350   59.2430 C   0  0  0  0  0  0  0  0  0  0  0  0
  126.0720  126.2110   58.3560 C   0  0  0  0  0  0  0  0  0  0  0  0
  126.9470  125.1320   58.1520 C   0  0  0  0  0  0  0  0  0  0  0  0
  126.6420  124.0880   57.2750 N   0  0  0  0  0  0  0  0  0  0  0  0
  125.4020  123.3150   57.4830 C   0  0  0  0  0  0  0  0  0  0  0  0
  124.9930  122.4770   56.2530 C   0  0  0  0  0  0  0  0  0  0  0  0
  126.0620  121.6260   55.8670 O   0  0  0  0  0  0  0  0  0  0  0  0
  127.2260  122.3670   55.5280 C   0  0  0  0  0  0  0  0  0  0  0  0
  127.6910  123.1980   56.7430 C   0  0  0  0  0  0  0  0  0  0  0  0
  128.1460  125.1060   58.8800 C   0  0  0  0  0  0  0  0  0  0  0  0
  128.4670  126.1280   59.7670 C   0  0  0  0  0  0  0  0  0  0  0  0
  128.2750  129.6170   60.4690 C   0  0  0  0  0  0  0  0  0  0  0  0
  128.2960  130.2580   59.1800 C   0  0  0  0  0  0  0  0  0  0  0  0
  127.9350  129.6170   58.0230 N   0  0  0  0  0  0  0  0  0  0  0  0
  1  2  1  0
  2  3  1  0
  3  4  2  0
  3  5  1  0
  5  6  1  0
  6  7  1  0
  7  8  2  0
  8  9  1  0
  9 10  1  0
 10 11  2  0
 11 12  1  0
 12 13  2  0
 13 14  1  0
 14 15  1  0
 15 16  1  0
 16 17  1  0
 17 18  1  0
 18 19  1  0
 13 20  1  0
 20 21  2  0
  9 22  2  0
 22 23  1  0
 23 24  1  0
 24 25  2  0
 25 26  1  0
 26 27  2  0
 27 28  1  0
 28 29  1  0
 29 30  1  0
 30 31  1  0
 31 32  1  0
 32 33  1  0
 27 34  1  0
 34 35  2  0
 23 36  2  0
 36 37  1  0
 37 38  1  0
 37  5  2  0
 36  7  1  0
 21 10  1  0
 35 24  1  0
 19 14  1  0
 33 28  1  0
M  END
>  <Binding energies>  (150) 
[-8.43]

>  <Ligand effiencies>  (150) 
[-0.21075]

>  <Interactions>  (150) 
["H-A:TYR:539:N:4870, V-B:TYR:539:CZ:9849, V-B:PRO:540:N:9856, V-B:TYR:539:CE1:9847, V-B:PRO:540:CB:9857, V-B:TYR:539:CD1:9845, V-B:PRO:540:CA:9855, V-B:TYR:539:CE2:9848, H-B:TYR:539:N:9842, H-B:TYR:531:OH:9767, V-B:PRO:540:CD:9859, V-B:ASP:366:CG:8184, V-B:MET:535:CE:9807, V-B:LEU:363:CD1:8160, V-B:PRO:540:CG:9858, V-B:TYR:539:CG:9844, V-A:MET:535:CE:4835, V-B:GLU:543:CG:9879, V-B:GLU:543:CB:9878, V-A:GLU:543:CD:4908, V-B:GLU:543:CD:9880, V-B:HIS:456:CE1:9041, V-B:GLY:544:C:9884, V-B:GLU:543:C:9874, V-B:HIS:456:CD2:9039, V-A:GLU:543:CG:4907, V-A:GLU:543:C:4902, V-A:GLU:543:CB:4906, V-B:TYR:484:CZ:9318, V-A:TYR:539:CE1:4875, V-A:TYR:539:CZ:4877, V-B:ILE:538:CG2:9835, V-A:TYR:539:CD1:4873, V-A:TYR:539:CD2:4874, V-A:ILE:538:CA:4860, V-A:TYR:539:CG:4872, V-A:TYR:539:CE2:4876, V-B:TYR:484:CE2:9317, V-B:ILE:538:CA:9832, V-B:ILE:538:C:9830"]

$$$$
RR10_Rahimova_2017
     RDKit          3D

 34 38  0  0  0  0  0  0  0  0999 V2000
  133.6990  124.5720   58.6040 C   0  0  0  0  0  0  0  0  0  0  0  0
  133.5050  124.0080   60.0230 C   0  0  1  0  0  0  0  0  0  0  0  0
  132.6120  124.9250   60.8910 C   0  0  0  0  0  0  0  0  0  0  0  0
  132.4600  124.3580   62.3210 C   0  0  0  0  0  0  0  0  0  0  0  0
  131.8690  122.9250   62.3210 C   0  0  1  0  0  0  0  0  0  0  0  0
  130.4680  122.9400   61.8780 N   0  0  0  0  0  0  0  0  0  0  0  0
  129.8160  121.9050   61.3190 C   0  0  0  0  0  0  0  0  0  0  0  0
  130.3370  120.8020   61.1360 O   0  0  0  0  0  0  0  0  0  0  0  0
  128.3560  122.1550   60.8880 C   0  0  1  0  0  0  0  0  0  0  0  0
  127.7020  123.1770   61.8550 C   0  0  0  0  0  0  0  0  0  0  0  0
  126.2680  123.5010   61.3720 C   0  0  0  0  0  0  0  0  0  0  0  0
  126.2250  123.9260   59.8860 C   0  0  0  0  0  0  0  0  0  0  0  0
  126.9270  122.9280   59.0340 N   0  0  0  0  0  0  0  0  0  0  0  0
  126.6860  123.1500   57.2930 S   0  0  0  0  0  0  0  0  0  0  0  0
  125.2650  123.4340   57.0610 O   0  0  0  0  0  0  0  0  0  0  0  0
  127.3400  122.0330   56.6010 O   0  0  0  0  0  0  0  0  0  0  0  0
  127.5830  124.6490   56.8870 C   0  0  0  0  0  0  0  0  0  0  0  0
  128.5720  124.6090   55.8990 C   0  0  0  0  0  0  0  0  0  0  0  0
  129.3080  125.7420   55.5380 C   0  0  0  0  0  0  0  0  0  0  0  0
  129.0040  126.9250   56.2150 C   0  0  0  0  0  0  0  0  0  0  0  0
  129.4920  128.2090   56.1540 N   0  0  0  0  0  0  0  0  0  0  0  0
  128.8010  128.9700   57.0740 C   0  0  0  0  0  0  0  0  0  0  0  0
  129.0610  130.4310   57.3070 C   0  0  0  0  0  0  0  0  0  0  0  0
  130.2580  131.0170   56.8720 C   0  0  0  0  0  0  0  0  0  0  0  0
  130.4980  132.3720   57.0840 C   0  0  0  0  0  0  0  0  0  0  0  0
  129.5420  133.1490   57.7330 C   0  0  0  0  0  0  0  0  0  0  0  0
  128.3480  132.5830   58.1700 C   0  0  0  0  0  0  0  0  0  0  0  0
  128.1090  131.2270   57.9580 C   0  0  0  0  0  0  0  0  0  0  0  0
  127.8980  128.2640   57.7180 N   0  0  0  0  0  0  0  0  0  0  0  0
  128.0020  126.9950   57.2120 C   0  0  0  0  0  0  0  0  0  0  0  0
  127.2780  125.8440   57.5510 C   0  0  0  0  0  0  0  0  0  0  0  0
  128.3370  122.6940   59.4360 C   0  0  0  0  0  0  0  0  0  0  0  0
  132.7650  122.0200   61.4320 C   0  0  0  0  0  0  0  0  0  0  0  0
  132.9130  122.5800   60.0000 C   0  0  0  0  0  0  0  0  0  0  0  0
  2  1  1  6
  2  3  1  0
  3  4  1  0
  4  5  1  0
  5  6  1  6
  6  7  1  0
  7  8  2  0
  9  7  1  1
  9 10  1  0
 10 11  1  0
 11 12  1  0
 12 13  1  0
 13 14  1  0
 14 15  2  0
 14 16  2  0
 14 17  1  0
 17 18  2  0
 18 19  1  0
 19 20  2  0
 20 21  1  0
 21 22  1  0
 22 23  1  0
 23 24  2  0
 24 25  1  0
 25 26  2  0
 26 27  1  0
 27 28  2  0
 22 29  2  0
 29 30  1  0
 30 31  2  0
 13 32  1  0
  5 33  1  0
 33 34  1  0
 34  2  1  0
 32  9  1  0
 31 17  1  0
 30 20  1  0
 28 23  1  0
M  END
>  <Binding energies>  (151) 
[-10.45]

>  <Ligand effiencies>  (151) 
[-0.29027777777777775]

>  <Interactions>  (151) 
["V-A:ASP:366:CG:3213, H-A:TYR:531:OH:4795, V-A:PRO:540:CA:4883, V-A:PRO:540:N:4884, V-A:TYR:539:C:4867, V-A:ASP:366:CB:3212, V-B:TYR:539:CZ:9849, V-B:PRO:540:N:9856, V-B:TYR:539:CE1:9847, V-B:PRO:540:CB:9857, V-B:PRO:540:CA:9855, V-B:TYR:539:CE2:9848, H-B:TYR:539:N:9842, H-B:TYR:531:OH:9767, V-B:TYR:539:C:9839, V-B:PRO:540:C:9853, V-B:TYR:539:CD2:9846, V-A:MET:535:CE:4835, V-A:ASP:366:C:3208, V-A:ASP:366:CA:3210, V-A:ILE:369:CB:3236, V-A:ILE:369:CG2:3237, V-A:LEU:475:CD2:4259, V-A:TYR:531:CZ:4794, V-A:TYR:539:CE1:4875, V-A:TYR:539:CD1:4873, V-A:TYR:539:CA:4869, H-A:MET:535:SD:4834"]

$$$$
RR12_Rahimova_2017
     RDKit          3D

 26 28  0  0  0  0  0  0  0  0999 V2000
  132.3310  120.5400   60.6760 C   0  0  0  0  0  0  0  0  0  0  0  0
  133.5530  121.1260   61.3940 C   0  0  0  0  0  0  0  0  0  0  0  0
  133.2030  122.3570   62.2500 C   0  0  0  0  0  0  0  0  0  0  0  0
  132.3190  123.2610   61.5180 N   0  0  0  0  0  0  0  0  0  0  0  0
  131.0640  123.7080   61.9010 C   0  0  0  0  0  0  0  0  0  0  0  0
  130.3620  123.2720   63.1760 C   0  0  0  0  0  0  0  0  0  0  0  0
  129.5250  121.9950   62.9780 C   0  0  0  0  0  0  0  0  0  0  0  0
  129.0380  121.8210   61.5260 C   0  0  0  0  0  0  0  0  0  0  0  0
  128.3020  122.9740   61.0090 N   0  0  0  0  0  0  0  0  0  0  0  0
  127.0850  123.3640   61.4290 C   0  0  0  0  0  0  0  0  0  0  0  0
  126.4530  122.7750   62.3090 O   0  0  0  0  0  0  0  0  0  0  0  0
  126.5140  124.6120   60.7430 C   0  0  0  0  0  0  0  0  0  0  0  0
  127.1300  124.7770   59.4650 O   0  0  0  0  0  0  0  0  0  0  0  0
  126.7050  124.0000   58.4030 C   0  0  0  0  0  0  0  0  0  0  0  0
  127.6950  123.2930   57.7160 C   0  0  0  0  0  0  0  0  0  0  0  0
  127.3630  122.4820   56.6350 C   0  0  0  0  0  0  0  0  0  0  0  0
  126.0340  122.3750   56.2370 C   0  0  0  0  0  0  0  0  0  0  0  0
  125.0340  123.0750   56.9080 C   0  0  0  0  0  0  0  0  0  0  0  0
  125.3680  123.8870   57.9900 C   0  0  0  0  0  0  0  0  0  0  0  0
  130.5240  124.5380   61.0430 N   0  0  0  0  0  0  0  0  0  0  0  0
  131.4580  124.6790   60.0550 C   0  0  0  0  0  0  0  0  0  0  0  0
  131.4020  125.4640   58.8930 C   0  0  0  0  0  0  0  0  0  0  0  0
  132.5000  125.4430   58.0330 C   0  0  0  0  0  0  0  0  0  0  0  0
  133.6250  124.6660   58.3120 C   0  0  0  0  0  0  0  0  0  0  0  0
  133.7100  123.8730   59.4590 C   0  0  0  0  0  0  0  0  0  0  0  0
  132.6070  123.8940   60.3220 C   0  0  0  0  0  0  0  0  0  0  0  0
  1  2  1  0
  2  3  1  0
  3  4  1  0
  4  5  1  0
  5  6  1  0
  6  7  1  0
  7  8  1  0
  8  9  1  0
  9 10  1  0
 10 11  2  0
 10 12  1  0
 12 13  1  0
 13 14  1  0
 14 15  2  0
 15 16  1  0
 16 17  2  0
 17 18  1  0
 18 19  2  0
  5 20  2  0
 20 21  1  0
 21 22  2  0
 22 23  1  0
 23 24  2  0
 24 25  1  0
 25 26  2  0
 26  4  1  0
 19 14  1  0
 26 21  1  0
M  END
>  <Binding energies>  (152) 
[-6.35]

>  <Ligand effiencies>  (152) 
[-0.23518518518518516]

>  <Interactions>  (152) 
["V-A:ASP:366:CG:3213, V-A:ASP:366:CB:3212, V-B:TYR:539:CZ:9849, V-B:PRO:540:N:9856, V-B:TYR:539:CE1:9847, V-B:PRO:540:CB:9857, V-B:TYR:539:CD1:9845, V-B:PRO:540:CA:9855, V-B:TYR:539:CE2:9848, V-B:PRO:540:CD:9859, V-B:MET:535:CE:9807, V-B:LEU:363:CD1:8160, V-B:TYR:539:C:9839, V-B:TYR:539:CG:9844, V-B:PRO:540:C:9853, H-B:ALA:541:N:9863, V-B:TYR:539:CD2:9846, V-B:ALA:541:CB:9864, V-A:ASP:366:C:3208, V-A:ASP:366:CA:3210, V-A:ILE:369:CD1:3239, V-A:ILE:369:CB:3236, V-A:ILE:369:CG2:3237, V-A:LEU:475:CD2:4259, V-B:ILE:538:CG2:9835, V-A:SER:385:CA:3407, V-A:SER:385:CB:3409, V-A:SER:385:C:3405"]

$$$$
RR13_Rahimova_2017
     RDKit          3D

 48 54  0  0  0  0  0  0  0  0999 V2000
  128.4720  122.7770   60.9920 Cl  0  0  0  0  0  0  0  0  0  0  0  0
  128.3370  123.3400   59.3600 C   0  0  0  0  0  0  0  0  0  0  0  0
  127.2890  122.8380   58.5840 C   0  0  0  0  0  0  0  0  0  0  0  0
  127.1390  123.2350   57.2580 C   0  0  0  0  0  0  0  0  0  0  0  0
  128.0390  124.1370   56.6980 C   0  0  0  0  0  0  0  0  0  0  0  0
  129.0870  124.6420   57.4650 C   0  0  0  0  0  0  0  0  0  0  0  0
  129.2480  124.2630   58.8080 C   0  0  0  0  0  0  0  0  0  0  0  0
  130.4320  124.8180   59.6300 C   0  0  1  0  0  0  0  0  0  0  0  0
  131.7300  124.8000   58.8100 C   0  0  0  0  0  0  0  0  0  0  0  0
  132.0270  125.5790   57.7930 N   0  0  0  0  0  0  0  0  0  0  0  0
  133.2870  125.1780   57.3600 N   0  0  0  0  0  0  0  0  0  0  0  0
  133.7380  124.1220   58.1280 N   0  0  0  0  0  0  0  0  0  0  0  0
  132.7500  123.8920   58.9990 N   0  0  0  0  0  0  0  0  0  0  0  0
  132.8880  122.8540   60.0140 C   0  0  0  0  0  0  0  0  0  0  0  0
  133.6510  123.4000   61.2360 C   0  0  0  0  0  0  0  0  0  0  0  0
  132.7160  123.7970   62.3670 C   0  0  0  0  0  0  0  0  0  0  0  0
  131.6040  123.0040   62.6640 C   0  0  0  0  0  0  0  0  0  0  0  0
  130.7440  123.3730   63.6950 C   0  0  0  0  0  0  0  0  0  0  0  0
  130.9990  124.5330   64.4250 C   0  0  0  0  0  0  0  0  0  0  0  0
  132.1050  125.3270   64.1330 C   0  0  0  0  0  0  0  0  0  0  0  0
  132.9660  124.9590   63.1020 C   0  0  0  0  0  0  0  0  0  0  0  0
  130.1620  126.1460   60.2320 N   0  0  0  0  0  0  0  0  0  0  0  0
  129.2530  126.9270   59.3730 C   0  0  0  0  0  0  0  0  0  0  0  0
  128.8610  128.2590   60.0560 C   0  0  0  0  0  0  0  0  0  0  0  0
  130.0530  129.0870   60.3000 N   0  0  0  0  0  0  0  0  0  0  0  0
  129.7160  130.4080   60.8790 C   0  0  1  0  0  0  0  0  0  0  0  0
  128.6690  130.3900   62.0150 C   0  0  0  0  0  0  0  0  0  0  0  0
  128.6370  129.2560   62.8380 C   0  0  0  0  0  0  0  0  0  0  0  0
  127.7360  129.1600   63.8980 C   0  0  0  0  0  0  0  0  0  0  0  0
  126.8450  130.2000   64.1470 C   0  0  0  0  0  0  0  0  0  0  0  0
  126.8490  131.3280   63.3320 C   0  0  0  0  0  0  0  0  0  0  0  0
  127.7450  131.4320   62.2650 C   0  0  0  0  0  0  0  0  0  0  0  0
  127.6250  132.8430   61.2670 Cl  0  0  0  0  0  0  0  0  0  0  0  0
  130.9470  131.2070   61.3130 C   0  0  0  0  0  0  0  0  0  0  0  0
  131.0980  131.8050   62.4720 N   0  0  0  0  0  0  0  0  0  0  0  0
  132.3610  132.3870   62.4410 N   0  0  0  0  0  0  0  0  0  0  0  0
  132.9790  132.1130   61.2380 N   0  0  0  0  0  0  0  0  0  0  0  0
  132.0960  131.3640   60.5660 N   0  0  0  0  0  0  0  0  0  0  0  0
  132.4080  130.8990   59.2190 C   0  0  0  0  0  0  0  0  0  0  0  0
  132.4830  132.0880   58.2440 C   0  0  0  0  0  0  0  0  0  0  0  0
  131.1290  132.4180   57.6350 C   0  0  0  0  0  0  0  0  0  0  0  0
  130.0170  132.5950   58.4620 C   0  0  0  0  0  0  0  0  0  0  0  0
  128.7790  132.9040   57.9050 C   0  0  0  0  0  0  0  0  0  0  0  0
  128.6570  133.0340   56.5220 C   0  0  0  0  0  0  0  0  0  0  0  0
  129.7640  132.8590   55.6930 C   0  0  0  0  0  0  0  0  0  0  0  0
  131.0020  132.5510   56.2490 C   0  0  0  0  0  0  0  0  0  0  0  0
  130.9570  128.3050   61.1630 C   0  0  0  0  0  0  0  0  0  0  0  0
  131.3530  126.9800   60.4710 C   0  0  0  0  0  0  0  0  0  0  0  0
  1  2  1  0
  2  3  2  0
  3  4  1  0
  4  5  2  0
  5  6  1  0
  6  7  2  0
  7  8  1  0
  8  9  1  0
  9 10  2  0
 10 11  1  0
 11 12  2  0
 12 13  1  0
 13 14  1  0
 14 15  1  0
 15 16  1  0
 16 17  2  0
 17 18  1  0
 18 19  2  0
 19 20  1  0
 20 21  2  0
  8 22  1  6
 22 23  1  0
 23 24  1  0
 24 25  1  0
 26 25  1  1
 26 27  1  0
 27 28  2  0
 28 29  1  0
 29 30  2  0
 30 31  1  0
 31 32  2  0
 32 33  1  0
 26 34  1  0
 34 35  2  0
 35 36  1  0
 36 37  2  0
 37 38  1  0
 38 39  1  0
 39 40  1  0
 40 41  1  0
 41 42  2  0
 42 43  1  0
 43 44  2  0
 44 45  1  0
 45 46  2  0
 25 47  1  0
 47 48  1  0
  7  2  1  0
 13  9  1  0
 21 16  1  0
 48 22  1  0
 32 27  1  0
 38 34  1  0
 46 41  1  0
M  END
>  <Binding energies>  (153) 
[-12.78]

>  <Ligand effiencies>  (153) 
[-0.26625]

>  <Interactions>  (153) 
["V-A:LEU:363:CD1:3189, V-A:ASP:366:CG:3213, H-A:TYR:531:OH:4795, V-A:PRO:540:CA:4883, H-B:TYR:539:OH:9850, V-A:PRO:540:CB:4885, V-A:PRO:540:CG:4886, V-A:PRO:540:N:4884, V-A:TYR:539:C:4867, V-B:TYR:539:CZ:9849, V-B:PRO:540:N:9856, V-B:TYR:539:CE1:9847, V-B:PRO:540:CB:9857, V-B:PRO:540:CA:9855, V-B:TYR:539:CE2:9848, V-B:TYR:539:C:9839, V-B:TYR:539:CD2:9846, V-A:MET:535:CE:4835, V-A:ILE:369:CD1:3239, V-A:ILE:369:CG2:3237, V-A:LEU:475:CD2:4259, V-A:GLU:543:CD:4908, V-A:ARG:545:CZ:4926, V-A:TYR:539:CE1:4875, V-A:TYR:539:CZ:4877, H-A:ALA:541:N:4891, V-A:TYR:539:CD1:4873, V-A:TYR:539:CD2:4874, V-A:ILE:538:CA:4860, V-A:TYR:539:CG:4872, V-A:TYR:539:CE2:4876, V-A:ILE:538:C:4858, V-A:ILE:538:CG2:4863, V-A:ILE:538:CB:4862"]

$$$$
RR14_Rahimova_2017
     RDKit          3D

 39 43  0  0  0  0  0  0  0  0999 V2000
  133.0100  125.3760   66.1110 C   0  0  0  0  0  0  0  0  0  0  0  0
  133.9840  124.9970   65.1440 O   0  0  0  0  0  0  0  0  0  0  0  0
  133.5630  124.4870   63.9310 C   0  0  0  0  0  0  0  0  0  0  0  0
  134.3490  124.7950   62.8200 C   0  0  0  0  0  0  0  0  0  0  0  0
  133.9920  124.3460   61.5520 C   0  0  0  0  0  0  0  0  0  0  0  0
  132.8340  123.5830   61.3830 C   0  0  0  0  0  0  0  0  0  0  0  0
  132.4040  123.1450   59.9880 C   0  0  0  0  0  0  0  0  0  0  0  0
  132.5950  124.1790   58.9720 N   0  0  0  0  0  0  0  0  0  0  0  0
  133.6190  124.1040   58.1140 N   0  0  0  0  0  0  0  0  0  0  0  0
  133.5090  125.2380   57.3350 N   0  0  0  0  0  0  0  0  0  0  0  0
  132.4140  125.9940   57.7420 N   0  0  0  0  0  0  0  0  0  0  0  0
  131.8780  125.3340   58.7420 C   0  0  0  0  0  0  0  0  0  0  0  0
  130.6600  125.7840   59.5370 C   0  0  0  0  0  0  0  0  0  0  0  0
  130.2460  127.1570   59.2040 N   0  0  0  0  0  0  0  0  0  0  0  0
  131.3170  128.1290   59.4550 C   0  0  0  0  0  0  0  0  0  0  0  0
  131.6830  128.9730   58.2140 C   0  0  0  0  0  0  0  0  0  0  0  0
  131.7010  130.4930   58.4820 C   0  0  0  0  0  0  0  0  0  0  0  0
  130.7640  131.2420   57.6380 N   0  0  0  0  0  0  0  0  0  0  0  0
  131.4190  131.6540   56.3900 C   0  0  0  0  0  0  0  0  0  0  0  0
  130.4750  132.4910   55.5010 C   0  0  0  0  0  0  0  0  0  0  0  0
  129.9660  133.5990   56.2350 O   0  0  0  0  0  0  0  0  0  0  0  0
  129.2340  133.1940   57.3850 C   0  0  0  0  0  0  0  0  0  0  0  0
  130.1410  132.3800   58.3330 C   0  0  0  0  0  0  0  0  0  0  0  0
  129.8060  127.2260   57.8030 C   0  0  0  0  0  0  0  0  0  0  0  0
  128.9830  126.0420   57.2990 C   0  0  0  0  0  0  0  0  0  0  0  0
  127.9370  125.5620   58.0140 C   0  0  0  0  0  0  0  0  0  0  0  0
  127.1510  124.3930   57.5690 C   0  0  0  0  0  0  0  0  0  0  0  0
  126.0490  123.8820   58.2750 C   0  0  0  0  0  0  0  0  0  0  0  0
  125.5750  124.5090   59.5800 C   0  0  0  0  0  0  0  0  0  0  0  0
  125.3710  122.7720   57.7650 C   0  0  0  0  0  0  0  0  0  0  0  0
  125.7770  122.1760   56.5720 C   0  0  0  0  0  0  0  0  0  0  0  0
  126.8700  122.6790   55.8610 C   0  0  0  0  0  0  0  0  0  0  0  0
  127.2880  122.0070   54.5590 C   0  0  0  0  0  0  0  0  0  0  0  0
  127.5590  123.7940   56.3640 C   0  0  0  0  0  0  0  0  0  0  0  0
  128.6700  124.3340   55.6830 N   0  0  0  0  0  0  0  0  0  0  0  0
  129.4190  125.4020   56.0530 C   0  0  0  0  0  0  0  0  0  0  0  0
  130.3770  125.7600   55.3680 O   0  0  0  0  0  0  0  0  0  0  0  0
  132.0570  123.2440   62.4920 C   0  0  0  0  0  0  0  0  0  0  0  0
  132.4150  123.6950   63.7590 C   0  0  0  0  0  0  0  0  0  0  0  0
  1  2  1  0
  2  3  1  0
  3  4  2  0
  4  5  1  0
  5  6  2  0
  6  7  1  0
  7  8  1  0
  8  9  1  0
  9 10  2  0
 10 11  1  0
 11 12  2  0
 12 13  1  0
 13 14  1  0
 14 15  1  0
 15 16  1  0
 16 17  1  0
 17 18  1  0
 18 19  1  0
 19 20  1  0
 20 21  1  0
 21 22  1  0
 22 23  1  0
 14 24  1  0
 24 25  1  0
 25 26  2  0
 26 27  1  0
 27 28  2  0
 28 29  1  0
 28 30  1  0
 30 31  2  0
 31 32  1  0
 32 33  1  0
 32 34  2  0
 34 35  1  0
 35 36  1  0
 36 37  2  0
  6 38  1  0
 38 39  2  0
 39  3  1  0
 12  8  1  0
 23 18  1  0
 36 25  1  0
 34 27  1  0
M  END
>  <Binding energies>  (154) 
[-10.56]

>  <Ligand effiencies>  (154) 
[-0.264]

>  <Interactions>  (154) 
["V-A:LEU:363:CD1:3189, V-A:ASP:366:CG:3213, H-A:TYR:531:OH:4795, V-A:PRO:540:CA:4883, H-B:TYR:539:OH:9850, V-A:PRO:540:N:4884, V-A:TYR:539:C:4867, V-A:ASP:366:CB:3212, H-A:TYR:539:N:4870, V-B:TYR:539:CZ:9849, V-B:PRO:540:N:9856, V-B:TYR:539:CE1:9847, V-B:PRO:540:CB:9857, V-B:TYR:539:CD1:9845, V-B:PRO:540:CA:9855, V-B:TYR:539:CE2:9848, V-B:PRO:540:CD:9859, V-B:MET:535:CE:9807, V-B:LEU:363:CD1:8160, V-B:PRO:540:CG:9858, V-B:TYR:539:C:9839, V-B:TYR:539:CG:9844, H-A:ASN:370:ND2:3248, V-B:TYR:539:CD2:9846, V-A:MET:535:CE:4835, V-A:ILE:369:CD1:3239, V-A:ILE:369:CG2:3237, V-A:LEU:475:CD2:4259, V-A:TYR:484:CZ:4347, V-A:GLY:453:CA:4044, H-A:TYR:484:OH:4348, H-A:ARG:545:NE:4924, V-A:GLY:454:CA:4049, V-A:ARG:545:CZ:4926, V-A:TYR:531:CZ:4794, V-A:ARG:545:CG:4922, H-A:ARG:545:NH2:4928, H-A:GLY:454:N:4050, V-A:GLY:453:C:4042, V-B:ILE:538:CG2:9835, H-B:MET:535:SD:9806, V-A:TYR:539:CD1:4873, V-A:ILE:538:CA:4860, V-A:TYR:539:CG:4872, V-A:TYR:539:CA:4869, V-A:ILE:538:CG2:4863, V-A:ILE:538:CB:4862, V-B:ILE:538:CA:9832, V-B:ILE:538:C:9830, V-A:ARG:545:CD:4923, H-A:ARG:545:NH1:4927, V-B:ILE:538:CB:9834, V-B:ILE:538:CG1:9836, V-B:VAL:537:C:9822"]

$$$$
RR15_Rahimova_2017
     RDKit          3D

 45 49  0  0  0  0  0  0  0  0999 V2000
  130.0220  123.3080   65.3240 C   0  0  0  0  0  0  0  0  0  0  0  0
  129.5220  122.2460   64.5170 O   0  0  0  0  0  0  0  0  0  0  0  0
  129.1030  122.5120   63.2250 C   0  0  0  0  0  0  0  0  0  0  0  0
  127.7920  122.8890   62.8950 C   0  0  0  0  0  0  0  0  0  0  0  0
  127.4350  123.1390   61.5720 C   0  0  0  0  0  0  0  0  0  0  0  0
  128.3740  123.0190   60.5420 C   0  0  0  0  0  0  0  0  0  0  0  0
  127.9870  123.2830   59.1130 C   0  0  0  0  0  0  0  0  0  0  0  0
  126.8900  122.7840   58.5600 N   0  0  0  0  0  0  0  0  0  0  0  0
  126.8830  123.2330   57.2550 N   0  0  0  0  0  0  0  0  0  0  0  0
  127.9730  123.9970   57.1800 N   0  0  0  0  0  0  0  0  0  0  0  0
  128.4450  124.5510   55.9110 C   0  0  0  0  0  0  0  0  0  0  0  0
  129.1420  125.9300   56.0240 C   0  0  0  0  0  0  0  0  0  0  0  0
  130.0760  126.1740   55.2580 O   0  0  0  0  0  0  0  0  0  0  0  0
  128.6900  126.8440   56.9360 N   0  0  0  0  0  0  0  0  0  0  0  0
  127.2470  127.0310   57.1870 C   0  0  0  0  0  0  0  0  0  0  0  0
  126.9140  127.3720   58.6550 C   0  0  0  0  0  0  0  0  0  0  0  0
  126.8110  128.8850   58.9630 C   0  0  0  0  0  0  0  0  0  0  0  0
  125.5130  129.4710   58.6150 N   0  0  0  0  0  0  0  0  0  0  0  0
  124.9260  130.2820   59.6910 C   0  0  0  0  0  0  0  0  0  0  0  0
  123.6050  130.9450   59.2440 C   0  0  0  0  0  0  0  0  0  0  0  0
  123.8120  131.6970   58.0530 O   0  0  0  0  0  0  0  0  0  0  0  0
  124.2830  130.8920   56.9770 C   0  0  0  0  0  0  0  0  0  0  0  0
  125.6240  130.2310   57.3620 C   0  0  0  0  0  0  0  0  0  0  0  0
  129.5900  127.5770   57.8800 C   0  0  2  0  0  0  0  0  0  0  0  0
  130.0770  128.9620   57.3480 C   0  0  0  0  0  0  0  0  0  0  0  0
  129.6320  129.4330   56.3020 O   0  0  0  0  0  0  0  0  0  0  0  0
  130.9680  129.6020   58.1250 N   0  0  0  0  0  0  0  0  0  0  0  0
  131.4850  130.9450   57.8860 C   0  0  0  0  0  0  0  0  0  0  0  0
  130.5340  132.0160   58.4520 C   0  0  2  0  0  0  0  0  0  0  0  0
  129.1280  131.5170   58.8300 C   0  0  0  0  0  0  0  0  0  0  0  0
  128.2510  131.9530   57.6820 C   0  0  0  0  0  0  0  0  0  0  0  0
  128.9150  133.2570   57.2760 C   0  0  0  0  0  0  0  0  0  0  0  0
  130.2990  132.9440   57.3850 O   0  0  0  0  0  0  0  0  0  0  0  0
  130.6410  126.6380   58.4590 C   0  0  0  0  0  0  0  0  0  0  0  0
  130.4710  126.1880   59.7740 C   0  0  0  0  0  0  0  0  0  0  0  0
  131.3990  125.3300   60.3560 C   0  0  0  0  0  0  0  0  0  0  0  0
  132.5080  124.9130   59.6240 C   0  0  0  0  0  0  0  0  0  0  0  0
  133.4100  124.0790   60.1890 F   0  0  0  0  0  0  0  0  0  0  0  0
  132.6940  125.3490   58.3150 C   0  0  0  0  0  0  0  0  0  0  0  0
  131.7650  126.2090   57.7350 C   0  0  0  0  0  0  0  0  0  0  0  0
  128.7110  124.0250   58.2960 N   0  0  0  0  0  0  0  0  0  0  0  0
  129.6820  122.6440   60.8750 C   0  0  0  0  0  0  0  0  0  0  0  0
  130.0580  122.3920   62.2050 C   0  0  0  0  0  0  0  0  0  0  0  0
  131.3380  122.0230   62.5840 O   0  0  0  0  0  0  0  0  0  0  0  0
  132.3320  123.0240   62.7720 C   0  0  0  0  0  0  0  0  0  0  0  0
  1  2  1  0
  2  3  1  0
  3  4  2  0
  4  5  1  0
  5  6  2  0
  6  7  1  0
  7  8  1  0
  8  9  2  0
  9 10  1  0
 10 11  1  0
 11 12  1  0
 12 13  2  0
 12 14  1  0
 14 15  1  0
 15 16  1  0
 16 17  1  0
 17 18  1  0
 18 19  1  0
 19 20  1  0
 20 21  1  0
 21 22  1  0
 22 23  1  0
 24 14  1  6
 24 25  1  0
 25 26  2  0
 25 27  1  0
 27 28  1  0
 29 28  1  6
 29 30  1  0
 30 31  1  0
 31 32  1  0
 32 33  1  0
 24 34  1  0
 34 35  2  0
 35 36  1  0
 36 37  2  0
 37 38  1  0
 37 39  1  0
 39 40  2  0
 10 41  1  0
  6 42  1  0
 42 43  2  0
 43 44  1  0
 44 45  1  0
 43  3  1  0
 41  7  2  0
 23 18  1  0
 33 29  1  0
 40 34  1  0
M  END
>  <Binding energies>  (155) 
[-8.09]

>  <Ligand effiencies>  (155) 
[-0.1758695652173913]

>  <Interactions>  (155) 
["V-A:ASP:366:CG:3213, H-A:TYR:531:OH:4795, V-A:PRO:540:CA:4883, H-B:TYR:539:OH:9850, V-A:PRO:540:CB:4885, H-A:ASP:366:OD2:3215, V-A:PRO:540:N:4884, V-A:TYR:539:C:4867, V-A:ASP:366:CB:3212, H-A:TYR:539:N:4870, V-B:TYR:539:CZ:9849, V-B:TYR:539:CE1:9847, V-B:PRO:540:CA:9855, V-B:TYR:539:CE2:9848, V-B:ASP:366:CB:8183, H-B:TYR:531:OH:9767, V-B:ASP:366:CG:8184, V-B:TYR:531:CE1:9764, V-B:TYR:531:CZ:9766, V-B:TYR:539:CD2:9846, V-B:ALA:541:CB:9864, V-A:ASP:366:CA:3210, V-B:GLU:543:CG:9879, V-A:ILE:369:CG2:3237, V-A:LEU:475:CD2:4259, V-A:TYR:484:CZ:4347, V-A:TYR:484:CE2:4346, V-B:GLU:543:CD:9880, V-A:TYR:531:CZ:4794, H-A:TYR:539:OH:4878, V-A:TYR:539:CE1:4875, V-B:ASP:366:CA:8181, V-B:ILE:369:CG2:8208, V-A:TYR:539:CZ:4877, V-B:ASP:366:C:8179, V-B:ILE:369:CB:8207, V-B:ALA:541:CA:9862, V-A:TYR:539:CD1:4873, V-A:TYR:539:CG:4872, V-A:TYR:539:CA:4869"]

$$$$
RR17_Rahimova_2017
     RDKit          3D

 38 41  0  0  0  0  0  0  0  0999 V2000
  129.8420  116.9700   60.8530 C   0  0  0  0  0  0  0  0  0  0  0  0
  130.2540  118.3100   61.4700 C   0  0  0  0  0  0  0  0  0  0  0  0
  131.3650  118.8260   60.7430 O   0  0  0  0  0  0  0  0  0  0  0  0
  131.6120  120.1870   60.7580 C   0  0  0  0  0  0  0  0  0  0  0  0
  132.9220  120.5850   60.4970 C   0  0  0  0  0  0  0  0  0  0  0  0
  133.2660  121.9320   60.4930 C   0  0  0  0  0  0  0  0  0  0  0  0
  132.3010  122.9160   60.7530 C   0  0  0  0  0  0  0  0  0  0  0  0
  132.7020  124.3630   60.7400 C   0  0  0  0  0  0  0  0  0  0  0  0
  132.9120  124.9820   59.6930 O   0  0  0  0  0  0  0  0  0  0  0  0
  132.8600  125.0590   62.1110 C   0  0  0  0  0  0  0  0  0  0  0  0
  133.6120  123.9560   63.3610 S   0  0  0  0  0  0  0  0  0  0  0  0
  132.9700  124.6890   64.8390 C   0  0  0  0  0  0  0  0  0  0  0  0
  133.6880  125.2630   65.7760 N   0  0  0  0  0  0  0  0  0  0  0  0
  132.8180  125.7170   66.7600 N   0  0  0  0  0  0  0  0  0  0  0  0
  131.6060  125.4040   66.3780 C   0  0  0  0  0  0  0  0  0  0  0  0
  130.3420  125.7290   67.1600 C   0  0  0  0  0  0  0  0  0  0  0  0
  130.3760  127.0320   67.8210 N   0  0  0  0  0  0  0  0  0  0  0  0
  129.8550  127.2700   69.1050 C   0  0  0  0  0  0  0  0  0  0  0  0
  130.6870  127.9040   70.0280 C   0  0  0  0  0  0  0  0  0  0  0  0
  130.2360  128.1650   71.3190 C   0  0  0  0  0  0  0  0  0  0  0  0
  128.9430  127.7970   71.7020 C   0  0  0  0  0  0  0  0  0  0  0  0
  128.4660  128.0850   73.1250 C   0  0  0  0  0  0  0  0  0  0  0  0
  129.0640  127.3030   74.0260 F   0  0  0  0  0  0  0  0  0  0  0  0
  128.7160  129.3540   73.4510 F   0  0  0  0  0  0  0  0  0  0  0  0
  127.1520  127.8760   73.1950 F   0  0  0  0  0  0  0  0  0  0  0  0
  128.1050  127.1690   70.7750 C   0  0  0  0  0  0  0  0  0  0  0  0
  128.5550  126.9090   69.4840 C   0  0  0  0  0  0  0  0  0  0  0  0
  131.6310  124.7380   65.1700 N   0  0  0  0  0  0  0  0  0  0  0  0
  130.5410  124.2510   64.4330 C   0  0  0  0  0  0  0  0  0  0  0  0
  129.8830  125.0960   63.5390 C   0  0  0  0  0  0  0  0  0  0  0  0
  128.7990  124.6140   62.8110 C   0  0  0  0  0  0  0  0  0  0  0  0
  128.3700  123.2870   62.9740 C   0  0  0  0  0  0  0  0  0  0  0  0
  127.3070  122.7230   62.2950 O   0  0  0  0  0  0  0  0  0  0  0  0
  126.5310  123.5370   61.4220 C   0  0  0  0  0  0  0  0  0  0  0  0
  129.0400  122.4560   63.8750 C   0  0  0  0  0  0  0  0  0  0  0  0
  130.1250  122.9310   64.6060 C   0  0  0  0  0  0  0  0  0  0  0  0
  130.9830  122.5150   61.0150 C   0  0  0  0  0  0  0  0  0  0  0  0
  130.6410  121.1650   61.0170 C   0  0  0  0  0  0  0  0  0  0  0  0
  1  2  1  0
  2  3  1  0
  3  4  1  0
  4  5  2  0
  5  6  1  0
  6  7  2  0
  7  8  1  0
  8  9  2  0
  8 10  1  0
 10 11  1  0
 11 12  1  0
 12 13  2  0
 13 14  1  0
 14 15  2  0
 15 16  1  0
 16 17  1  0
 17 18  1  0
 18 19  2  0
 19 20  1  0
 20 21  2  0
 21 22  1  0
 22 23  1  0
 22 24  1  0
 22 25  1  0
 21 26  1  0
 26 27  2  0
 15 28  1  0
 28 29  1  0
 29 30  2  0
 30 31  1  0
 31 32  2  0
 32 33  1  0
 33 34  1  0
 32 35  1  0
 35 36  2  0
  7 37  1  0
 37 38  2  0
 38  4  1  0
 28 12  1  0
 36 29  1  0
 27 18  1  0
M  END
>  <Binding energies>  (156) 
[-9.17]

>  <Ligand effiencies>  (156) 
[-0.23512820512820512]

>  <Interactions>  (156) 
["V-A:ASP:366:CG:3213, V-B:PRO:540:CB:9857, V-B:PRO:540:CA:9855, V-B:TYR:539:CE2:9848, H-B:ALA:541:N:9863, V-B:TYR:539:CD2:9846, V-B:ALA:541:CB:9864, V-B:GLU:543:CG:9879, V-A:ILE:369:CG2:3237, V-A:LEU:475:CD2:4259, V-A:TYR:484:CZ:4347, V-B:GLU:543:CB:9878, H-A:TYR:484:OH:4348, V-A:GLU:543:CD:4908, V-A:TYR:484:CE2:4346, H-A:ARG:545:NE:4924, V-A:ARG:545:CZ:4926, V-B:GLU:543:CD:9880, V-B:HIS:456:CE1:9041, V-A:GLY:544:C:4912, V-B:GLU:543:C:9874, V-B:HIS:456:CD2:9039, V-B:LYS:547:CE:9922, V-A:HIS:456:CE1:4070, V-A:GLU:543:C:4902, V-A:GLU:543:CB:4906, V-B:HIS:456:CG:9037, H-A:GLU:543:OE1:4909, H-A:GLU:543:OE2:4910, H-A:ARG:545:NH2:4928, H-A:GLY:454:N:4050, H-A:SER:385:OG:3410, V-A:HIS:383:NE2:3394, V-A:LEU:475:CG:4257, V-A:HIS:383:CE1:3393, V-A:LEU:475:CD1:4258, V-A:PRO:482:CB:4326, V-A:PRO:482:CG:4327, H-A:HIS:383:HE2:3395, V-A:SER:385:CB:3409, V-B:VAL:344:CG1:7972"]

$$$$
RR19_Rahimova_2017
     RDKit          3D

 46 51  0  0  0  0  0  0  0  0999 V2000
  133.5250  124.2280   64.3040 O   0  0  0  0  0  0  0  0  0  0  0  0
  132.3670  124.3120   63.8840 C   0  0  0  0  0  0  0  0  0  0  0  0
  132.0010  124.6300   62.6160 N   0  0  0  0  0  0  0  0  0  0  0  0
  132.6980  124.7300   61.4380 C   0  0  0  0  0  0  0  0  0  0  0  0
  134.2920  124.2150   61.1890 S   0  0  0  0  0  0  0  0  0  0  0  0
  131.8880  125.3140   60.4960 N   0  0  0  0  0  0  0  0  0  0  0  0
  132.0190  125.5160   59.1600 C   0  0  0  0  0  0  0  0  0  0  0  0
  132.8830  125.0270   58.4280 O   0  0  0  0  0  0  0  0  0  0  0  0
  130.9640  126.4800   58.5630 C   0  0  2  0  0  0  0  0  0  0  0  0
  130.8010  127.8250   59.3290 C   0  0  0  0  0  0  0  0  0  0  0  0
  130.9310  129.0760   58.4750 C   0  0  0  0  0  0  0  0  0  0  0  0
  129.8310  129.5670   57.7380 C   0  0  0  0  0  0  0  0  0  0  0  0
  129.9450  130.7540   57.0270 C   0  0  0  0  0  0  0  0  0  0  0  0
  131.1340  131.4730   57.0510 C   0  0  0  0  0  0  0  0  0  0  0  0
  132.2150  131.0180   57.7950 C   0  0  0  0  0  0  0  0  0  0  0  0
  132.1200  129.8350   58.5150 C   0  0  0  0  0  0  0  0  0  0  0  0
  129.6540  125.7980   58.3730 N   0  0  0  0  0  0  0  0  0  0  0  0
  128.7870  125.6260   59.4110 C   0  0  0  0  0  0  0  0  0  0  0  0
  128.9540  125.9590   60.5860 O   0  0  0  0  0  0  0  0  0  0  0  0
  127.5970  124.9600   58.8280 C   0  0  0  0  0  0  0  0  0  0  0  0
  126.4040  124.5380   59.4160 C   0  0  0  0  0  0  0  0  0  0  0  0
  125.4350  123.9340   58.6080 C   0  0  0  0  0  0  0  0  0  0  0  0
  125.6670  123.7620   57.2360 C   0  0  0  0  0  0  0  0  0  0  0  0
  126.8690  124.1930   56.6650 C   0  0  0  0  0  0  0  0  0  0  0  0
  127.8230  124.7910   57.4890 C   0  0  0  0  0  0  0  0  0  0  0  0
  129.1640  125.3480   57.1800 C   0  0  0  0  0  0  0  0  0  0  0  0
  129.7100  125.3990   56.0770 O   0  0  0  0  0  0  0  0  0  0  0  0
  131.1810  124.0540   64.8510 C   0  0  2  0  0  0  0  0  0  0  0  0
  130.3430  122.7900   64.4990 C   0  0  0  0  0  0  0  0  0  0  0  0
  129.9310  122.7110   63.0400 C   0  0  0  0  0  0  0  0  0  0  0  0
  130.7670  122.0680   62.1020 C   0  0  0  0  0  0  0  0  0  0  0  0
  130.3420  121.9070   60.7890 C   0  0  0  0  0  0  0  0  0  0  0  0
  129.0850  122.3520   60.4000 C   0  0  0  0  0  0  0  0  0  0  0  0
  128.2360  122.9520   61.3220 C   0  0  0  0  0  0  0  0  0  0  0  0
  128.6420  123.1230   62.6390 C   0  0  0  0  0  0  0  0  0  0  0  0
  130.3100  125.2480   65.0500 N   0  0  0  0  0  0  0  0  0  0  0  0
  129.9570  125.6780   66.2940 C   0  0  0  0  0  0  0  0  0  0  0  0
  130.2640  125.1710   67.3740 O   0  0  0  0  0  0  0  0  0  0  0  0
  129.1240  126.8850   66.0700 C   0  0  0  0  0  0  0  0  0  0  0  0
  128.4840  127.7350   66.9740 C   0  0  0  0  0  0  0  0  0  0  0  0
  127.7550  128.8190   66.4740 C   0  0  0  0  0  0  0  0  0  0  0  0
  127.6760  129.0400   65.0920 C   0  0  0  0  0  0  0  0  0  0  0  0
  128.3270  128.1780   64.2020 C   0  0  0  0  0  0  0  0  0  0  0  0
  129.0470  127.1010   64.7220 C   0  0  0  0  0  0  0  0  0  0  0  0
  129.8290  126.0380   64.0450 C   0  0  0  0  0  0  0  0  0  0  0  0
  130.0070  125.8990   62.8340 O   0  0  0  0  0  0  0  0  0  0  0  0
  1  2  2  0
  2  3  1  0
  3  4  1  0
  4  5  2  0
  4  6  1  0
  6  7  1  0
  7  8  2  0
  7  9  1  0
  9 10  1  1
 10 11  1  0
 11 12  2  0
 12 13  1  0
 13 14  2  0
 14 15  1  0
 15 16  2  0
  9 17  1  0
 17 18  1  0
 18 19  2  0
 18 20  1  0
 20 21  2  0
 21 22  1  0
 22 23  2  0
 23 24  1  0
 24 25  2  0
 25 26  1  0
 26 27  2  0
  2 28  1  0
 28 29  1  6
 29 30  1  0
 30 31  2  0
 31 32  1  0
 32 33  2  0
 33 34  1  0
 34 35  2  0
 28 36  1  0
 36 37  1  0
 37 38  2  0
 37 39  1  0
 39 40  2  0
 40 41  1  0
 41 42  2  0
 42 43  1  0
 43 44  2  0
 44 45  1  0
 45 46  2  0
 16 11  1  0
 26 17  1  0
 35 30  1  0
 45 36  1  0
 25 20  1  0
 44 39  1  0
M  END
>  <Binding energies>  (157) 
[-10.87]

>  <Ligand effiencies>  (157) 
[-0.22645833333333332]

>  <Interactions>  (157) 
["V-A:LEU:363:CD1:3189, V-A:ASP:366:CG:3213, H-A:TYR:531:OH:4795, H-B:TYR:539:OH:9850, V-A:ASP:366:CB:3212, V-B:TYR:539:CZ:9849, V-B:PRO:540:CB:9857, V-B:PRO:540:CA:9855, V-B:TYR:539:CE2:9848, V-B:MET:535:CE:9807, V-B:TYR:539:CD2:9846, V-A:MET:535:CE:4835, V-B:ALA:541:CB:9864, V-A:ILE:369:CD1:3239, V-B:GLU:543:CG:9879, V-A:LEU:475:CD2:4259, V-A:TYR:484:CZ:4347, V-B:GLU:543:CB:9878, H-A:TYR:484:OH:4348, V-A:GLU:543:CD:4908, V-A:TYR:484:CE2:4346, V-B:GLU:543:CD:9880, V-B:HIS:456:CE1:9041, H-A:GLY:454:N:4050"]

$$$$
RR1_Rahimova_2017
     RDKit          3D

 41 44  0  0  0  0  0  0  0  0999 V2000
  131.4910  132.6920   56.6380 C   0  0  0  0  0  0  0  0  0  0  0  0
  130.1930  133.2350   56.4210 O   0  0  0  0  0  0  0  0  0  0  0  0
  129.1540  132.8460   57.2440 C   0  0  0  0  0  0  0  0  0  0  0  0
  128.0360  132.1140   56.8150 C   0  0  0  0  0  0  0  0  0  0  0  0
  127.0320  131.7740   57.7170 C   0  0  0  0  0  0  0  0  0  0  0  0
  127.1290  132.1500   59.0580 C   0  0  0  0  0  0  0  0  0  0  0  0
  126.0430  131.7980   59.8810 N   0  0  0  0  0  0  0  0  0  0  0  0
  125.2010  130.7470   59.7840 C   0  0  0  0  0  0  0  0  0  0  0  0
  125.2110  129.9220   58.8700 O   0  0  0  0  0  0  0  0  0  0  0  0
  124.1800  130.6370   60.9280 C   0  0  0  0  0  0  0  0  0  0  0  0
  124.5580  131.6300   62.4140 S   0  0  0  0  0  0  0  0  0  0  0  0
  126.2010  131.0530   62.6770 C   0  0  0  0  0  0  0  0  0  0  0  0
  127.2610  131.5580   62.0970 N   0  0  0  0  0  0  0  0  0  0  0  0
  128.2650  130.8390   62.5880 C   0  0  0  0  0  0  0  0  0  0  0  0
  129.6950  131.0870   62.2000 C   0  0  0  0  0  0  0  0  0  0  0  0
  130.2450  130.5370   61.0310 C   0  0  0  0  0  0  0  0  0  0  0  0
  131.5780  130.7830   60.6980 C   0  0  0  0  0  0  0  0  0  0  0  0
  132.3400  131.5800   61.5500 C   0  0  0  0  0  0  0  0  0  0  0  0
  131.8420  132.1260   62.6880 N   0  0  0  0  0  0  0  0  0  0  0  0
  130.5430  131.8770   62.9930 C   0  0  0  0  0  0  0  0  0  0  0  0
  127.9200  129.8950   63.4440 N   0  0  0  0  0  0  0  0  0  0  0  0
  126.5920  130.0300   63.5020 N   0  0  0  0  0  0  0  0  0  0  0  0
  125.7950  129.1700   64.3770 C   0  0  0  0  0  0  0  0  0  0  0  0
  126.2130  129.1840   65.8580 C   0  0  0  0  0  0  0  0  0  0  0  0
  125.3660  129.2630   66.7540 O   0  0  0  0  0  0  0  0  0  0  0  0
  127.5410  129.1100   66.0740 N   0  0  0  0  0  0  0  0  0  0  0  0
  127.9830  128.9700   67.3830 N   0  0  0  0  0  0  0  0  0  0  0  0
  128.8190  127.9450   67.6590 C   0  0  0  0  0  0  0  0  0  0  0  0
  129.2940  127.1890   66.8050 O   0  0  0  0  0  0  0  0  0  0  0  0
  129.1840  127.7730   69.1190 C   0  0  0  0  0  0  0  0  0  0  0  0
  130.4860  128.0510   69.5510 C   0  0  0  0  0  0  0  0  0  0  0  0
  130.8460  127.8880   70.8850 C   0  0  0  0  0  0  0  0  0  0  0  0
  129.9140  127.4330   71.8300 C   0  0  0  0  0  0  0  0  0  0  0  0
  130.2110  127.2370   73.1670 O   0  0  0  0  0  0  0  0  0  0  0  0
  131.5380  126.8930   73.5480 C   0  0  0  0  0  0  0  0  0  0  0  0
  128.6070  127.1420   71.4170 C   0  0  0  0  0  0  0  0  0  0  0  0
  127.7310  126.6770   72.3840 O   0  0  0  0  0  0  0  0  0  0  0  0
  126.9670  127.6050   73.1460 C   0  0  0  0  0  0  0  0  0  0  0  0
  128.2530  127.3170   70.0670 C   0  0  0  0  0  0  0  0  0  0  0  0
  128.2460  132.8810   59.4910 C   0  0  0  0  0  0  0  0  0  0  0  0
  129.2480  133.2190   58.5860 C   0  0  0  0  0  0  0  0  0  0  0  0
  1  2  1  0
  2  3  1  0
  3  4  2  0
  4  5  1  0
  5  6  2  0
  6  7  1  0
  7  8  1  0
  8  9  2  0
  8 10  1  0
 10 11  1  0
 11 12  1  0
 12 13  2  0
 13 14  1  0
 14 15  1  0
 15 16  2  0
 16 17  1  0
 17 18  2  0
 18 19  1  0
 19 20  2  0
 14 21  2  0
 21 22  1  0
 22 23  1  0
 23 24  1  0
 24 25  2  0
 24 26  1  0
 26 27  1  0
 27 28  1  0
 28 29  2  0
 28 30  1  0
 30 31  2  0
 31 32  1  0
 32 33  2  0
 33 34  1  0
 34 35  1  0
 33 36  1  0
 36 37  1  0
 37 38  1  0
 36 39  2  0
  6 40  1  0
 40 41  2  0
 41  3  1  0
 22 12  1  0
 39 30  1  0
 20 15  1  0
M  END
>  <Binding energies>  (158) 
[-8.27]

>  <Ligand effiencies>  (158) 
[-0.18795454545454546]

>  <Interactions>  (158) 
["V-A:LEU:363:CD1:3189, V-A:PRO:540:CA:4883, V-A:PRO:540:CB:4885, V-A:PRO:540:CD:4887, V-A:PRO:540:N:4884, V-A:TYR:539:C:4867, H-A:TYR:539:N:4870, H-B:TYR:531:OH:9767, V-B:ASP:366:CG:8184, V-A:MET:535:CE:4835, V-A:GLU:543:CD:4908, V-B:GLU:543:CD:9880, V-B:HIS:456:CE1:9041, V-A:GLY:544:C:4912, H-A:LYS:547:NZ:4951, V-B:GLY:544:C:9884, V-B:HIS:456:CD2:9039, V-B:LYS:547:CE:9922, V-A:HIS:456:CE1:4070, V-A:GLU:543:CG:4907, V-A:GLU:543:C:4902, V-A:GLU:543:CB:4906, V-B:HIS:456:CG:9037, H-B:LYS:547:NZ:9923, H-A:GLU:543:OE1:4909, H-A:GLU:543:OE2:4910, V-B:TYR:484:CZ:9318, H-B:GLU:543:OE2:9882, H-B:TYR:484:OH:9319, V-A:ALA:541:CB:4892, V-A:HIS:456:CD2:4068, H-B:HIS:456:NE2:9042, V-A:HIS:456:CG:4066, V-A:TYR:539:CE1:4875, V-A:ALA:541:CA:4890, V-A:TYR:539:CZ:4877, H-A:ALA:541:N:4891, V-A:TYR:539:CD1:4873, V-A:TYR:539:CA:4869, V-A:ILE:538:CG2:4863, V-A:ILE:538:CB:4862, V-B:ARG:545:CZ:9898, H-B:ARG:545:NE:9896"]

$$$$
RR22_Rahimova_2017
     RDKit          3D

 31 36  0  0  0  0  0  0  0  0999 V2000
  134.0020  124.2500   57.5450 O   0  0  0  0  0  0  0  0  0  0  0  0
  133.1830  124.9580   58.1270 C   0  0  0  0  0  0  0  0  0  0  0  0
  132.5900  126.1190   57.6630 N   0  0  0  0  0  0  0  0  0  0  0  0
  131.6020  126.7960   58.4470 C   0  0  1  0  0  0  0  0  0  0  0  0
  132.0910  128.1330   58.5930 O   0  0  0  0  0  0  0  0  0  0  0  0
  131.3080  129.1820   58.1100 C   0  0  0  0  0  0  0  0  0  0  0  0
  131.9510  130.4060   57.9290 C   0  0  0  0  0  0  0  0  0  0  0  0
  131.2250  131.5120   57.4880 C   0  0  0  0  0  0  0  0  0  0  0  0
  129.8570  131.3940   57.2360 C   0  0  0  0  0  0  0  0  0  0  0  0
  129.2130  130.1690   57.4180 C   0  0  0  0  0  0  0  0  0  0  0  0
  129.9340  129.0460   57.8360 C   0  0  0  0  0  0  0  0  0  0  0  0
  129.3230  127.6890   58.1040 C   0  0  1  0  0  0  0  0  0  0  0  0
  128.1280  127.1670   57.3320 C   0  0  0  0  0  0  0  0  0  0  0  0
  128.4170  125.6640   57.3880 C   0  0  0  0  0  0  0  0  0  0  0  0
  127.3830  124.6420   57.1270 C   0  0  0  0  0  0  0  0  0  0  0  0
  127.7370  123.3800   56.6290 C   0  0  0  0  0  0  0  0  0  0  0  0
  126.7590  122.4200   56.3860 C   0  0  0  0  0  0  0  0  0  0  0  0
  125.4220  122.7150   56.6390 C   0  0  0  0  0  0  0  0  0  0  0  0
  125.0540  123.9640   57.1340 C   0  0  0  0  0  0  0  0  0  0  0  0
  126.0310  124.9240   57.3790 C   0  0  0  0  0  0  0  0  0  0  0  0
  129.6470  125.4400   57.6590 N   0  0  0  0  0  0  0  0  0  0  0  0
  130.2920  126.6810   57.7910 N   0  0  0  0  0  0  0  0  0  0  0  0
  131.6300  126.1570   59.8280 C   0  0  0  0  0  0  0  0  0  0  0  0
  131.0910  126.7440   60.9220 C   0  0  0  0  0  0  0  0  0  0  0  0
  131.0310  126.2310   62.3050 C   0  0  0  0  0  0  0  0  0  0  0  0
  129.9120  126.3920   63.1350 C   0  0  0  0  0  0  0  0  0  0  0  0
  129.9280  125.8800   64.4330 C   0  0  0  0  0  0  0  0  0  0  0  0
  131.0740  125.2190   64.8740 C   0  0  0  0  0  0  0  0  0  0  0  0
  132.1730  125.0550   64.0970 N   0  0  0  0  0  0  0  0  0  0  0  0
  132.1380  125.5600   62.8360 C   0  0  0  0  0  0  0  0  0  0  0  0
  132.5350  124.6360   59.7950 S   0  0  0  0  0  0  0  0  0  0  0  0
  1  2  2  0
  2  3  1  0
  4  3  1  6
  4  5  1  0
  5  6  1  0
  6  7  2  0
  7  8  1  0
  8  9  2  0
  9 10  1  0
 10 11  2  0
 11 12  1  0
 12 13  1  6
 13 14  1  0
 14 15  1  0
 15 16  2  0
 16 17  1  0
 17 18  2  0
 18 19  1  0
 19 20  2  0
 14 21  2  0
 21 22  1  0
  4 23  1  0
 23 24  2  0
 24 25  1  0
 25 26  2  0
 26 27  1  0
 27 28  2  0
 28 29  1  0
 29 30  2  0
 23 31  1  0
 31  2  1  0
 22  4  1  0
 30 25  1  0
 11  6  1  0
 22 12  1  0
 20 15  1  0
M  END
>  <Binding energies>  (159) 
[-9.39]

>  <Ligand effiencies>  (159) 
[-0.2934375]

>  <Interactions>  (159) 
["V-A:ASP:366:CG:3213, H-A:TYR:531:OH:4795, H-B:TYR:539:OH:9850, V-A:ASP:366:CB:3212, V-B:TYR:539:CZ:9849, V-B:PRO:540:N:9856, V-B:TYR:539:CE1:9847, V-B:PRO:540:CB:9857, V-B:TYR:539:CD1:9845, V-B:TYR:539:CE2:9848, V-B:PRO:540:CD:9859, V-B:MET:535:CE:9807, V-B:LEU:363:CD1:8160, V-B:TYR:539:C:9839, V-A:MET:535:CE:4835, V-B:TYR:531:CE2:9765, V-A:ASP:366:C:3208, V-A:ASP:366:CA:3210, V-B:GLU:543:CG:9879, H-A:ASN:370:N:3244, H-A:ASP:366:O:3209, V-A:GLU:543:CD:4908, V-A:ARG:545:CZ:4926, V-B:GLU:543:CD:9880, V-A:TYR:531:CZ:4794, H-A:ARG:545:NH2:4928"]

$$$$
RR24_Rahimova_2017
     RDKit          3D

 43 49  0  0  0  0  0  0  0  0999 V2000
  124.6430  123.8760   57.9770 C   0  0  0  0  0  0  0  0  0  0  0  0
  125.7950  123.8610   56.9630 C   0  0  2  0  0  0  0  0  0  0  0  0
  126.6930  122.5940   57.0720 C   0  0  0  0  0  0  0  0  0  0  0  0
  126.9740  121.9020   56.0880 O   0  0  0  0  0  0  0  0  0  0  0  0
  127.0900  122.3430   58.3550 O   0  0  0  0  0  0  0  0  0  0  0  0
  127.7540  123.3190   59.0630 C   0  0  0  0  0  0  0  0  0  0  0  0
  127.1970  123.8030   60.2490 C   0  0  0  0  0  0  0  0  0  0  0  0
  127.8650  124.7820   60.9790 C   0  0  0  0  0  0  0  0  0  0  0  0
  129.0940  125.2750   60.5320 C   0  0  0  0  0  0  0  0  0  0  0  0
  129.8150  126.3670   61.3310 C   0  0  1  0  0  0  0  0  0  0  0  0
  128.8340  127.1960   62.1930 C   0  0  0  0  0  0  0  0  0  0  0  0
  129.0280  127.4170   63.5070 C   0  0  0  0  0  0  0  0  0  0  0  0
  130.1150  126.9190   64.1810 N   0  0  0  0  0  0  0  0  0  0  0  0
  131.0680  126.1620   63.5400 C   0  0  0  0  0  0  0  0  0  0  0  0
  132.0830  125.7550   64.3450 N   0  0  0  0  0  0  0  0  0  0  0  0
  133.0750  124.9330   63.9060 C   0  0  0  0  0  0  0  0  0  0  0  0
  133.7770  124.3440   64.7300 O   0  0  0  0  0  0  0  0  0  0  0  0
  133.0710  124.7240   62.5360 N   0  0  0  0  0  0  0  0  0  0  0  0
  134.1810  123.9120   61.9950 C   0  0  0  0  0  0  0  0  0  0  0  0
  132.0920  125.0900   61.6280 C   0  0  0  0  0  0  0  0  0  0  0  0
  132.1300  124.8240   60.4230 O   0  0  0  0  0  0  0  0  0  0  0  0
  130.9910  125.8590   62.2180 C   0  0  0  0  0  0  0  0  0  0  0  0
  127.9520  128.2230   64.0590 C   0  0  0  0  0  0  0  0  0  0  0  0
  127.6900  128.7100   65.3400 C   0  0  0  0  0  0  0  0  0  0  0  0
  126.5400  129.4750   65.5570 C   0  0  0  0  0  0  0  0  0  0  0  0
  125.6670  129.7480   64.5000 C   0  0  0  0  0  0  0  0  0  0  0  0
  125.9350  129.2570   63.2190 C   0  0  0  0  0  0  0  0  0  0  0  0
  127.0840  128.4920   63.0090 C   0  0  0  0  0  0  0  0  0  0  0  0
  127.6040  127.8610   61.7780 C   0  0  0  0  0  0  0  0  0  0  0  0
  127.1440  127.8640   60.6370 O   0  0  0  0  0  0  0  0  0  0  0  0
  129.6590  124.7740   59.3540 C   0  0  0  0  0  0  0  0  0  0  0  0
  128.9930  123.7940   58.6250 C   0  0  0  0  0  0  0  0  0  0  0  0
  126.5890  125.1250   56.9970 N   0  0  0  0  0  0  0  0  0  0  0  0
  126.2070  126.1870   57.7610 C   0  0  0  0  0  0  0  0  0  0  0  0
  125.2120  126.2690   58.4840 O   0  0  0  0  0  0  0  0  0  0  0  0
  127.2420  127.2270   57.5370 C   0  0  0  0  0  0  0  0  0  0  0  0
  127.3670  128.5170   58.0550 C   0  0  0  0  0  0  0  0  0  0  0  0
  128.4670  129.2900   57.6660 C   0  0  0  0  0  0  0  0  0  0  0  0
  129.4170  128.7700   56.7780 C   0  0  0  0  0  0  0  0  0  0  0  0
  129.2730  127.4750   56.2700 C   0  0  0  0  0  0  0  0  0  0  0  0
  128.1690  126.7200   56.6680 C   0  0  0  0  0  0  0  0  0  0  0  0
  127.7530  125.3410   56.3110 C   0  0  0  0  0  0  0  0  0  0  0  0
  128.3360  124.5570   55.5610 O   0  0  0  0  0  0  0  0  0  0  0  0
  2  1  1  1
  2  3  1  0
  3  4  2  0
  3  5  1  0
  5  6  1  0
  6  7  2  0
  7  8  1  0
  8  9  2  0
 10  9  1  1
 10 11  1  0
 11 12  2  0
 12 13  1  0
 13 14  1  0
 14 15  1  0
 15 16  1  0
 16 17  2  0
 16 18  1  0
 18 19  1  0
 18 20  1  0
 20 21  2  0
 20 22  1  0
 12 23  1  0
 23 24  2  0
 24 25  1  0
 25 26  2  0
 26 27  1  0
 27 28  2  0
 28 29  1  0
 29 30  2  0
  9 31  1  0
 31 32  2  0
  2 33  1  0
 33 34  1  0
 34 35  2  0
 34 36  1  0
 36 37  2  0
 37 38  1  0
 38 39  2  0
 39 40  1  0
 40 41  2  0
 41 42  1  0
 42 43  2  0
 32  6  1  0
 42 33  1  0
 22 10  1  0
 28 23  1  0
 41 36  1  0
 29 11  1  0
 22 14  2  0
M  END
>  <Binding energies>  (160) 
[-9.5]

>  <Ligand effiencies>  (160) 
[-0.2111111111111111]

>  <Interactions>  (160) 
["H-B:TYR:539:OH:9850, V-B:TYR:539:CZ:9849, V-B:PRO:540:N:9856, V-B:PRO:540:CB:9857, V-B:PRO:540:CA:9855, V-B:TYR:539:CE2:9848, H-B:TYR:539:N:9842, H-B:TYR:531:OH:9767, V-B:PRO:540:CD:9859, V-B:MET:535:CE:9807, V-B:LEU:363:CD1:8160, V-B:TYR:539:C:9839, V-B:TYR:531:CZ:9766, V-B:TYR:539:CD2:9846, V-A:MET:535:CE:4835, V-A:ILE:369:CD1:3239, H-A:TYR:484:OH:4348, V-A:GLU:543:CD:4908, V-A:ARG:545:CZ:4926, V-B:GLU:543:CD:9880, H-A:GLU:543:OE1:4909, H-A:GLU:543:OE2:4910, V-B:TYR:484:CZ:9318, H-A:GLY:454:N:4050, V-B:ARG:545:CZ:9898"]

$$$$
RR25_Rahimova_2017
     RDKit          3D

 39 44  0  0  0  0  0  0  0  0999 V2000
  130.5720  124.6500   65.6100 O   0  0  0  0  0  0  0  0  0  0  0  0
  130.7720  125.0800   64.4740 C   0  0  0  0  0  0  0  0  0  0  0  0
  131.8810  124.5930   63.8280 O   0  0  0  0  0  0  0  0  0  0  0  0
  132.0780  124.8010   62.4750 C   0  0  0  0  0  0  0  0  0  0  0  0
  132.8640  123.8660   61.8040 C   0  0  0  0  0  0  0  0  0  0  0  0
  133.1100  124.0180   60.4410 C   0  0  0  0  0  0  0  0  0  0  0  0
  132.5800  125.1060   59.7320 C   0  0  0  0  0  0  0  0  0  0  0  0
  132.8360  125.2620   58.2790 N   0  0  0  0  0  0  0  0  0  0  0  0
  133.6490  124.5130   57.7420 O   0  0  0  0  0  0  0  0  0  0  0  0
  132.2280  126.1340   57.6660 O   0  0  0  0  0  0  0  0  0  0  0  0
  131.8000  126.0440   60.4290 C   0  0  0  0  0  0  0  0  0  0  0  0
  131.5500  125.9100   61.7980 C   0  0  0  0  0  0  0  0  0  0  0  0
  130.7060  126.8890   62.5920 C   0  0  0  0  0  0  0  0  0  0  0  0
  129.9210  126.1270   63.6980 C   0  0  2  0  0  0  0  0  0  0  0  0
  129.1200  127.1130   64.5970 C   0  0  0  0  0  0  0  0  0  0  0  0
  129.1860  126.9130   65.8130 O   0  0  0  0  0  0  0  0  0  0  0  0
  128.4840  128.2100   64.0870 N   0  0  0  0  0  0  0  0  0  0  0  0
  128.1110  128.3290   62.6610 C   0  0  0  0  0  0  0  0  0  0  0  0
  128.2930  129.7950   62.2150 C   0  0  0  0  0  0  0  0  0  0  0  0
  127.5440  130.7130   63.0770 N   0  0  0  0  0  0  0  0  0  0  0  0
  127.6070  132.0930   62.5770 C   0  0  0  0  0  0  0  0  0  0  0  0
  129.0620  132.6020   62.3940 C   0  0  0  0  0  0  0  0  0  0  0  0
  129.6410  132.4570   61.0270 N   0  0  0  0  0  0  0  0  0  0  0  0
  130.8840  131.8650   60.9720 C   0  0  0  0  0  0  0  0  0  0  0  0
  131.5070  131.5060   61.9780 O   0  0  0  0  0  0  0  0  0  0  0  0
  131.4290  131.6660   59.5710 C   0  0  0  0  0  0  0  0  0  0  0  0
  132.6750  131.0490   59.3980 C   0  0  0  0  0  0  0  0  0  0  0  0
  133.2010  130.8430   58.1240 C   0  0  0  0  0  0  0  0  0  0  0  0
  132.5020  131.2420   56.9870 C   0  0  0  0  0  0  0  0  0  0  0  0
  131.2400  131.8700   57.1120 C   0  0  0  0  0  0  0  0  0  0  0  0
  130.4770  132.2990   56.0000 C   0  0  0  0  0  0  0  0  0  0  0  0
  129.2380  132.9080   56.1950 C   0  0  0  0  0  0  0  0  0  0  0  0
  128.7320  133.1070   57.4780 C   0  0  0  0  0  0  0  0  0  0  0  0
  129.4520  132.6990   58.6080 C   0  0  0  0  0  0  0  0  0  0  0  0
  130.7130  132.0770   58.4180 C   0  0  0  0  0  0  0  0  0  0  0  0
  128.8630  132.9240   59.9870 C   0  0  0  0  0  0  0  0  0  0  0  0
  127.7660  133.4690   60.1500 O   0  0  0  0  0  0  0  0  0  0  0  0
  128.0330  130.6140   64.4540 C   0  0  0  0  0  0  0  0  0  0  0  0
  127.8670  129.1830   65.0180 C   0  0  0  0  0  0  0  0  0  0  0  0
  1  2  2  0
  2  3  1  0
  3  4  1  0
  4  5  2  0
  5  6  1  0
  6  7  2  0
  7  8  1  0
  8  9  2  0
  8 10  1  0
  7 11  1  0
 11 12  2  0
 12 13  1  0
 13 14  1  0
 14 15  1  1
 15 16  2  0
 15 17  1  0
 17 18  1  0
 18 19  1  0
 19 20  1  0
 20 21  1  0
 21 22  1  0
 22 23  1  0
 23 24  1  0
 24 25  2  0
 24 26  1  0
 26 27  2  0
 27 28  1  0
 28 29  2  0
 29 30  1  0
 30 31  2  0
 31 32  1  0
 32 33  2  0
 33 34  1  0
 34 35  2  0
 34 36  1  0
 36 37  2  0
 20 38  1  0
 38 39  1  0
 14  2  1  0
 39 17  1  0
 12  4  1  0
 36 23  1  0
 35 26  1  0
 35 30  1  0
M  CHG  2   8   1  10  -1
M  END
>  <Binding energies>  (161) 
[-10.36]

>  <Ligand effiencies>  (161) 
[-0.26564102564102565]

>  <Interactions>  (161) 
["V-A:LEU:363:CD1:3189, V-A:ASP:366:CG:3213, H-A:TYR:531:OH:4795, V-A:PRO:540:CA:4883, H-B:TYR:539:OH:9850, V-A:PRO:540:CB:4885, V-A:PRO:540:N:4884, V-A:TYR:539:C:4867, V-A:ASP:366:CB:3212, V-B:TYR:539:CZ:9849, V-B:TYR:539:CE2:9848, V-A:MET:535:CE:4835, V-A:ASP:366:C:3208, V-A:ASP:366:CA:3210, V-B:GLU:543:CG:9879, H-A:TYR:484:OH:4348, V-A:GLU:543:CD:4908, V-B:GLU:543:CD:9880, V-A:GLU:543:CG:4907, V-A:TYR:531:CZ:4794, V-A:ALA:541:CB:4892, V-A:TYR:539:CE1:4875, V-A:PRO:540:C:4881, H-A:ALA:541:N:4891, V-A:TYR:539:CD1:4873, V-A:ILE:538:CA:4860, V-A:TYR:539:CG:4872, V-A:TYR:531:CE2:4793, V-A:ILE:538:CG2:4863, V-A:ILE:538:CB:4862, V-A:LEU:363:CA:3185"]

$$$$
RR27_Rahimova_2017
     RDKit          3D

 39 44  0  0  0  0  0  0  0  0999 V2000
  131.9360  128.6330   58.5260 O   0  0  0  0  0  0  0  0  0  0  0  0
  130.8800  128.9670   59.0720 C   0  0  0  0  0  0  0  0  0  0  0  0
  130.6570  130.4750   59.3860 C   0  0  0  0  0  0  0  0  0  0  0  0
  130.4910  131.3380   58.1210 C   0  0  0  0  0  0  0  0  0  0  0  0
  131.4320  131.3150   57.0810 C   0  0  0  0  0  0  0  0  0  0  0  0
  131.2500  132.1060   55.9500 C   0  0  0  0  0  0  0  0  0  0  0  0
  130.1280  132.9240   55.8540 C   0  0  0  0  0  0  0  0  0  0  0  0
  129.1870  132.9590   56.8800 C   0  0  0  0  0  0  0  0  0  0  0  0
  129.3690  132.1680   58.0100 C   0  0  0  0  0  0  0  0  0  0  0  0
  131.6840  131.0060   60.4040 C   0  0  0  0  0  0  0  0  0  0  0  0
  131.3520  131.2090   61.7500 C   0  0  0  0  0  0  0  0  0  0  0  0
  132.3020  131.7010   62.6410 C   0  0  0  0  0  0  0  0  0  0  0  0
  133.5860  131.9960   62.1890 C   0  0  0  0  0  0  0  0  0  0  0  0
  133.9270  131.8090   60.8520 C   0  0  0  0  0  0  0  0  0  0  0  0
  132.9760  131.3190   59.9620 C   0  0  0  0  0  0  0  0  0  0  0  0
  129.8630  128.0800   59.2640 N   0  0  0  0  0  0  0  0  0  0  0  0
  128.7010  128.3520   60.1240 C   0  0  0  0  0  0  0  0  0  0  0  0
  129.0940  127.9210   61.5550 C   0  0  0  0  0  0  0  0  0  0  0  0
  129.5800  126.4380   61.6270 C   0  0  0  0  0  0  0  0  0  0  0  0
  130.0890  125.9920   63.0100 C   0  0  0  0  0  0  0  0  0  0  0  0
  131.1420  125.1220   63.0170 N   0  0  0  0  0  0  0  0  0  0  0  0
  131.6480  124.7170   64.2150 C   0  0  0  0  0  0  0  0  0  0  0  0
  132.7030  123.8530   64.3510 O   0  0  0  0  0  0  0  0  0  0  0  0
  131.0630  125.2100   65.3970 C   0  0  0  0  0  0  0  0  0  0  0  0
  131.3180  125.0200   66.7230 N   0  0  0  0  0  0  0  0  0  0  0  0
  130.3980  125.7700   67.4310 N   0  0  0  0  0  0  0  0  0  0  0  0
  129.5980  126.4160   66.5560 N   0  0  0  0  0  0  0  0  0  0  0  0
  128.5120  127.2680   67.0350 C   0  0  0  0  0  0  0  0  0  0  0  0
  128.3640  127.2780   68.5500 C   0  0  0  0  0  0  0  0  0  0  0  0
  127.1660  126.8670   69.1430 C   0  0  0  0  0  0  0  0  0  0  0  0
  127.0350  126.8660   70.5330 C   0  0  0  0  0  0  0  0  0  0  0  0
  128.1010  127.2700   71.3360 C   0  0  0  0  0  0  0  0  0  0  0  0
  129.3020  127.6720   70.7510 C   0  0  0  0  0  0  0  0  0  0  0  0
  130.6320  128.1470   71.7440 Cl  0  0  0  0  0  0  0  0  0  0  0  0
  129.4320  127.6810   69.3620 C   0  0  0  0  0  0  0  0  0  0  0  0
  129.9720  126.0950   65.2620 C   0  0  0  0  0  0  0  0  0  0  0  0
  129.4510  126.5020   64.1010 N   0  0  0  0  0  0  0  0  0  0  0  0
  130.5600  126.0900   60.4640 C   0  0  0  0  0  0  0  0  0  0  0  0
  130.0970  126.6380   59.0910 C   0  0  0  0  0  0  0  0  0  0  0  0
  1  2  2  0
  2  3  1  0
  3  4  1  0
  4  5  2  0
  5  6  1  0
  6  7  2  0
  7  8  1  0
  8  9  2  0
  3 10  1  0
 10 11  2  0
 11 12  1  0
 12 13  2  0
 13 14  1  0
 14 15  2  0
  2 16  1  0
 16 17  1  0
 17 18  1  0
 18 19  1  0
 19 20  1  0
 20 21  2  0
 21 22  1  0
 22 23  1  0
 22 24  2  0
 24 25  1  0
 25 26  2  0
 26 27  1  0
 27 28  1  0
 28 29  1  0
 29 30  2  0
 30 31  1  0
 31 32  2  0
 32 33  1  0
 33 34  1  0
 33 35  2  0
 27 36  1  0
 36 37  2  0
 19 38  1  0
 38 39  1  0
  9  4  1  0
 15 10  1  0
 39 16  1  0
 37 20  1  0
 36 24  1  0
 35 29  1  0
M  END
>  <Binding energies>  (162) 
[-10.08]

>  <Ligand effiencies>  (162) 
[-0.252]

>  <Interactions>  (162) 
["V-A:LEU:363:CD1:3189, V-A:ASP:366:CG:3213, H-A:TYR:531:OH:4795, V-A:PRO:540:CA:4883, V-A:PRO:540:CB:4885, V-A:MET:535:CE:4835, V-B:GLU:543:CG:9879, V-B:GLU:543:CB:9878, H-A:TYR:484:OH:4348, V-A:GLU:543:CD:4908, V-B:GLU:543:CD:9880, V-B:HIS:456:CE1:9041, V-A:GLY:544:C:4912, V-B:GLY:544:C:9884, V-B:GLU:543:C:9874, V-B:HIS:456:CD2:9039, V-A:HIS:456:CE1:4070, V-A:GLU:543:CG:4907, V-A:GLU:543:C:4902, V-A:GLU:543:CB:4906, V-B:GLY:544:CA:9886, V-A:ALA:541:C:4888, V-B:GLU:543:CA:9876, H-A:GLY:454:N:4050, V-A:TYR:539:CD1:4873, V-A:ILE:538:CA:4860, V-A:ILE:538:C:4858, V-A:ILE:538:CG2:4863, V-A:ILE:538:CB:4862, V-A:LEU:363:CA:3185, V-A:ASN:362:CB:3176, V-A:LEU:363:CB:3187, V-A:ASN:362:C:3172, V-A:ASN:362:CG:3177"]

$$$$
RR28_Rahimova_2017
     RDKit          3D

 46 49  0  0  0  0  0  0  0  0999 V2000
  133.6870  124.5230   63.1420 C   0  0  0  0  0  0  0  0  0  0  0  0
  132.2560  125.0460   63.1280 C   0  0  0  0  0  0  0  0  0  0  0  0
  131.9570  125.9780   62.3830 O   0  0  0  0  0  0  0  0  0  0  0  0
  131.3870  124.4330   63.9570 N   0  0  0  0  0  0  0  0  0  0  0  0
  129.9510  124.7290   64.1600 C   0  0  0  0  0  0  0  0  0  0  0  0
  129.8030  125.5410   65.4790 C   0  0  0  0  0  0  0  0  0  0  0  0
  130.3400  125.0250   66.6680 C   0  0  0  0  0  0  0  0  0  0  0  0
  130.2220  125.7220   67.8670 C   0  0  0  0  0  0  0  0  0  0  0  0
  129.5640  126.9520   67.9040 C   0  0  0  0  0  0  0  0  0  0  0  0
  129.4410  127.7010   69.2310 C   0  0  0  0  0  0  0  0  0  0  0  0
  128.5610  127.1290   70.0560 F   0  0  0  0  0  0  0  0  0  0  0  0
  130.6210  127.7410   69.8500 F   0  0  0  0  0  0  0  0  0  0  0  0
  129.0380  128.9500   68.9930 F   0  0  0  0  0  0  0  0  0  0  0  0
  129.0230  127.4760   66.7270 C   0  0  0  0  0  0  0  0  0  0  0  0
  129.1410  126.7780   65.5280 C   0  0  0  0  0  0  0  0  0  0  0  0
  129.1070  123.4040   64.1360 C   0  0  0  0  0  0  0  0  0  0  0  0
  129.1100  122.7000   62.7550 C   0  0  0  0  0  0  0  0  0  0  0  0
  128.5650  123.6700   61.7920 N   0  0  0  0  0  0  0  0  0  0  0  0
  127.2370  123.6690   61.4920 C   0  0  0  0  0  0  0  0  0  0  0  0
  126.4820  122.7710   61.8710 O   0  0  0  0  0  0  0  0  0  0  0  0
  126.6910  124.7340   60.5110 C   0  0  0  0  0  0  0  0  0  0  0  0
  126.1650  124.1990   59.1510 C   0  0  0  0  0  0  0  0  0  0  0  0
  127.1420  124.3550   57.9620 C   0  0  0  0  0  0  0  0  0  0  0  0
  127.3720  123.3600   57.2690 O   0  0  0  0  0  0  0  0  0  0  0  0
  127.6080  125.5910   57.6280 N   0  0  0  0  0  0  0  0  0  0  0  0
  127.6340  126.7240   58.5620 C   0  0  0  0  0  0  0  0  0  0  0  0
  128.9450  126.6010   59.3680 C   0  0  0  0  0  0  0  0  0  0  0  0
  130.2490  126.5570   58.4970 C   0  0  0  0  0  0  0  0  0  0  0  0
  131.3650  126.0450   59.3200 N   0  0  0  0  0  0  0  0  0  0  0  0
  132.4840  125.4170   58.9060 C   0  0  0  0  0  0  0  0  0  0  0  0
  133.4580  124.9830   59.9970 C   0  0  0  0  0  0  0  0  0  0  0  0
  132.7470  125.1830   57.7270 O   0  0  0  0  0  0  0  0  0  0  0  0
  130.5950  128.0280   58.0970 C   0  0  0  0  0  0  0  0  0  0  0  0
  131.7830  128.6660   58.4920 C   0  0  0  0  0  0  0  0  0  0  0  0
  132.0540  129.9780   58.1130 C   0  0  0  0  0  0  0  0  0  0  0  0
  131.1400  130.6890   57.3310 C   0  0  0  0  0  0  0  0  0  0  0  0
  131.4250  132.1280   56.9040 C   0  0  0  0  0  0  0  0  0  0  0  0
  132.4930  132.6070   57.5450 F   0  0  0  0  0  0  0  0  0  0  0  0
  131.6660  132.1560   55.5940 F   0  0  0  0  0  0  0  0  0  0  0  0
  130.3960  132.9400   57.1570 F   0  0  0  0  0  0  0  0  0  0  0  0
  129.9520  130.0730   56.9380 C   0  0  0  0  0  0  0  0  0  0  0  0
  129.6850  128.7610   57.3180 C   0  0  0  0  0  0  0  0  0  0  0  0
  130.0050  125.6170   57.2540 C   0  0  0  0  0  0  0  0  0  0  0  0
  128.6160  125.7370   56.5700 C   0  0  0  0  0  0  0  0  0  0  0  0
  129.4170  124.8540   61.6120 C   0  0  0  0  0  0  0  0  0  0  0  0
  129.4440  125.6050   62.9680 C   0  0  0  0  0  0  0  0  0  0  0  0
  1  2  1  0
  2  3  2  0
  2  4  1  0
  4  5  1  0
  5  6  1  0
  6  7  2  0
  7  8  1  0
  8  9  2  0
  9 10  1  0
 10 11  1  0
 10 12  1  0
 10 13  1  0
  9 14  1  0
 14 15  2  0
  5 16  1  0
 16 17  1  0
 17 18  1  0
 18 19  1  0
 19 20  2  0
 19 21  1  0
 21 22  1  0
 22 23  1  0
 23 24  2  0
 23 25  1  0
 25 26  1  0
 26 27  1  0
 27 28  1  0
 28 29  1  0
 29 30  1  0
 30 31  1  0
 30 32  2  0
 28 33  1  0
 33 34  2  0
 34 35  1  0
 35 36  2  0
 36 37  1  0
 37 38  1  0
 37 39  1  0
 37 40  1  0
 36 41  1  0
 41 42  2  0
 28 43  1  0
 43 44  1  0
 18 45  1  0
 45 46  1  0
 46  5  1  0
 15  6  1  0
 44 25  1  0
 42 33  1  0
M  END
>  <Binding energies>  (163) 
[-9.03]

>  <Ligand effiencies>  (163) 
[-0.188125]

>  <Interactions>  (163) 
["V-A:LEU:363:CD1:3189, V-A:ASP:366:CG:3213, V-A:PRO:540:CA:4883, H-B:TYR:539:OH:9850, V-A:PRO:540:CB:4885, V-A:PRO:540:CD:4887, V-A:PRO:540:CG:4886, V-A:PRO:540:N:4884, V-A:TYR:539:C:4867, V-A:ASP:366:CB:3212, V-B:TYR:539:CZ:9849, V-B:PRO:540:CB:9857, V-B:PRO:540:CA:9855, V-B:TYR:539:CE2:9848, H-B:ALA:541:N:9863, V-A:MET:535:CE:4835, V-B:ALA:541:CB:9864, V-A:ASP:366:CA:3210, V-B:GLU:543:CG:9879, V-A:TYR:484:CZ:4347, V-B:GLU:543:CB:9878, H-A:TYR:484:OH:4348, V-A:GLU:543:CD:4908, V-A:TYR:484:CE2:4346, V-A:ARG:545:CZ:4926, V-B:GLU:543:CD:9880, V-B:HIS:456:CE1:9041, V-A:HIS:456:CE1:4070, V-A:GLU:543:CG:4907, V-A:GLU:543:C:4902, V-A:GLU:543:CB:4906, V-A:GLU:543:CA:4904, H-A:ARG:545:NH2:4928, V-A:ILE:538:CG2:4863, V-A:ILE:538:CB:4862"]

$$$$
RR29_Rahimova_2017
     RDKit          3D

 18 19  0  0  0  0  0  0  0  0999 V2000
  127.9450  133.5000   63.0850 C   0  0  0  0  0  0  0  0  0  0  0  0
  128.5680  132.1690   63.4790 C   0  0  0  0  0  0  0  0  0  0  0  0
  129.9920  131.9770   62.9110 C   0  0  0  0  0  0  0  0  0  0  0  0
  130.0090  130.9710   61.7420 C   0  0  0  0  0  0  0  0  0  0  0  0
  130.0180  131.6620   60.3870 C   0  0  0  0  0  0  0  0  0  0  0  0
  128.8990  132.4120   59.9720 C   0  0  0  0  0  0  0  0  0  0  0  0
  128.8870  133.0570   58.7270 C   0  0  0  0  0  0  0  0  0  0  0  0
  130.0100  132.9180   57.9200 C   0  0  0  0  0  0  0  0  0  0  0  0
  131.0970  132.1900   58.3160 C   0  0  0  0  0  0  0  0  0  0  0  0
  131.1410  131.5480   59.5490 C   0  0  0  0  0  0  0  0  0  0  0  0
  132.0540  132.2520   57.3540 O   0  0  0  0  0  0  0  0  0  0  0  0
  131.4440  132.8670   56.2510 C   0  0  0  0  0  0  0  0  0  0  0  0
  130.2530  133.4600   56.6970 O   0  0  0  0  0  0  0  0  0  0  0  0
  127.8840  131.3620   64.2040 N   0  0  0  0  0  0  0  0  0  0  0  0
  128.4120  130.1220   64.4910 N   0  0  0  0  0  0  0  0  0  0  0  0
  127.7740  129.1820   65.2070 C   0  0  0  0  0  0  0  0  0  0  0  0
  126.5490  129.3120   65.7170 N   0  0  0  0  0  0  0  0  0  0  0  0
  128.4070  128.0380   65.4250 N   0  0  0  0  0  0  0  0  0  0  0  0
  1  2  1  0
  2  3  1  0
  3  4  1  0
  4  5  1  0
  5  6  2  0
  6  7  1  0
  7  8  2  0
  8  9  1  0
  9 10  2  0
  9 11  1  0
 11 12  1  0
 12 13  1  0
  2 14  2  0
 14 15  1  0
 15 16  1  0
 16 17  1  0
 16 18  2  0
 10  5  1  0
 13  8  1  0
M  CHG  1  18   1
M  END
>  <Binding energies>  (164) 
[-7.32]

>  <Ligand effiencies>  (164) 
[-0.31826086956521743]

>  <Interactions>  (164) 
["V-A:LEU:363:CD1:3189, V-A:PRO:540:CA:4883, V-A:PRO:540:CB:4885, V-A:PRO:540:N:4884, V-A:TYR:539:C:4867, H-A:TYR:539:N:4870, H-B:GLU:543:OE1:9881, V-A:GLU:543:CD:4908, V-B:GLU:543:CD:9880, V-A:GLU:543:CG:4907, H-A:GLU:543:OE1:4909, H-A:GLU:543:OE2:4910, V-B:TYR:484:CZ:9318, H-B:GLU:543:OE2:9882, H-B:TYR:484:OH:9319, V-A:ALA:541:CB:4892, V-A:TYR:539:CE1:4875, V-A:TYR:539:CD1:4873, V-A:ILE:538:CA:4860, V-A:ILE:538:CG2:4863, V-A:ILE:538:CB:4862, V-B:LEU:475:CD2:9230"]

$$$$
RR30_Rahimova_2017
     RDKit          3D

 18 19  0  0  0  0  0  0  0  0999 V2000
  123.8040  129.5760   76.4720 C   0  0  0  0  0  0  0  0  0  0  0  0
  124.2520  128.4150   75.5720 C   0  0  0  0  0  0  0  0  0  0  0  0
  125.7580  128.3370   75.4450 C   0  0  0  0  0  0  0  0  0  0  0  0
  126.6170  127.8300   76.2940 N   0  0  0  0  0  0  0  0  0  0  0  0
  127.8730  128.0110   75.7190 N   0  0  0  0  0  0  0  0  0  0  0  0
  127.6650  128.6190   74.5790 C   0  0  0  0  0  0  0  0  0  0  0  0
  128.8690  129.1070   73.3860 S   0  0  0  0  0  0  0  0  0  0  0  0
  129.1830  127.5030   72.5840 C   0  0  0  0  0  0  0  0  0  0  0  0
  130.1790  126.6480   73.3710 C   0  0  0  0  0  0  0  0  0  0  0  0
  129.8540  125.5110   73.7190 O   0  0  0  0  0  0  0  0  0  0  0  0
  131.3610  127.2350   73.6630 N   0  0  0  0  0  0  0  0  0  0  0  0
  132.4140  126.6660   74.3640 C   0  0  0  0  0  0  0  0  0  0  0  0
  133.5940  127.1830   74.6220 N   0  0  0  0  0  0  0  0  0  0  0  0
  134.4000  126.3190   75.3530 N   0  0  0  0  0  0  0  0  0  0  0  0
  133.8200  125.1750   75.6310 C   0  0  0  0  0  0  0  0  0  0  0  0
  134.4960  124.0720   76.4130 C   0  0  0  0  0  0  0  0  0  0  0  0
  132.1970  125.0670   75.0050 S   0  0  0  0  0  0  0  0  0  0  0  0
  126.3500  128.8520   74.3390 O   0  0  0  0  0  0  0  0  0  0  0  0
  1  2  1  0
  2  3  1  0
  3  4  2  0
  4  5  1  0
  5  6  2  0
  6  7  1  0
  7  8  1  0
  8  9  1  0
  9 10  2  0
  9 11  1  0
 11 12  1  0
 12 13  2  0
 13 14  1  0
 14 15  2  0
 15 16  1  0
 15 17  1  0
  6 18  1  0
 18  3  1  0
 17 12  1  0
M  END
>  <Binding energies>  (165) 
[-6.54]

>  <Ligand effiencies>  (165) 
[-0.34421052631578947]

>  <Interactions>  (165) 
["V-A:GLY:544:C:4912, H-A:LYS:547:NZ:4951, V-B:HIS:456:CD2:9039, V-B:LYS:547:CE:9922, H-B:LYS:547:NZ:9923, V-A:HIS:456:CD2:4068, V-B:LYS:547:CD:9921, V-B:HIS:456:CB:9036, V-A:HIS:456:CB:4065, H-A:GLY:544:O:4913, V-A:HIS:456:CG:4066, V-B:LYS:471:CD:9190, V-B:VAL:457:CA:9046, V-B:HIS:456:C:9032, V-B:VAL:458:CG2:9058, V-B:VAL:457:C:9044, V-A:HIS:456:C:4061, V-A:VAL:458:CG2:4087, V-A:LYS:471:CD:4219, H-A:VAL:457:N:4076"]

$$$$
RR31_Rahimova_2017
     RDKit          3D

 18 19  0  0  0  0  0  0  0  0999 V2000
  133.1430  126.2920   77.4930 C   0  0  0  0  0  0  0  0  0  0  0  0
  132.3990  126.5130   76.1830 C   0  0  0  0  0  0  0  0  0  0  0  0
  131.0070  126.6150   76.2000 C   0  0  0  0  0  0  0  0  0  0  0  0
  130.2980  126.8210   75.0180 C   0  0  0  0  0  0  0  0  0  0  0  0
  130.9590  126.9380   73.7850 C   0  0  0  0  0  0  0  0  0  0  0  0
  130.2610  127.1340   72.5910 N   0  0  0  0  0  0  0  0  0  0  0  0
  130.9290  127.6070   71.3630 C   0  0  0  0  0  0  0  0  0  0  0  0
  129.9600  128.1520   70.2880 C   0  0  0  0  0  0  0  0  0  0  0  0
  128.9480  127.1510   69.9400 N   0  0  0  0  0  0  0  0  0  0  0  0
  128.0350  127.6260   68.8960 C   0  0  0  0  0  0  0  0  0  0  0  0
  128.6980  127.7040   67.5060 C   0  0  0  0  0  0  0  0  0  0  0  0
  128.1690  128.8820   66.6730 C   0  0  0  0  0  0  0  0  0  0  0  0
  126.6530  128.7520   66.4850 N   0  0  0  0  0  0  0  0  0  0  0  0
  128.1930  126.8520   71.1560 C   0  0  0  0  0  0  0  0  0  0  0  0
  129.1170  126.2660   72.2470 C   0  0  0  0  0  0  0  0  0  0  0  0
  132.3570  126.8240   73.7820 C   0  0  0  0  0  0  0  0  0  0  0  0
  133.0820  126.6160   74.9610 C   0  0  0  0  0  0  0  0  0  0  0  0
  134.5990  126.4980   74.8900 C   0  0  0  0  0  0  0  0  0  0  0  0
  1  2  1  0
  2  3  2  0
  3  4  1  0
  4  5  2  0
  5  6  1  0
  6  7  1  0
  7  8  1  0
  8  9  1  0
  9 10  1  0
 10 11  1  0
 11 12  1  0
 12 13  1  0
  9 14  1  0
 14 15  1  0
  5 16  1  0
 16 17  2  0
 17 18  1  0
 17  2  1  0
 15  6  1  0
M  CHG  1  13   1
M  END
>  <Binding energies>  (166) 
[-6.26]

>  <Ligand effiencies>  (166) 
[-0.2980952380952381]

>  <Interactions>  (166) 
["H-B:GLU:543:OE1:9881, V-B:GLU:543:CB:9878, V-A:GLU:543:CD:4908, V-B:GLU:543:CD:9880, V-B:HIS:456:CE1:9041, V-A:GLY:544:C:4912, V-B:GLU:543:C:9874, V-A:HIS:456:CE1:4070, V-A:GLU:543:CG:4907, V-A:GLU:543:C:4902, V-A:GLU:543:CB:4906, H-B:GLU:543:OE2:9882, H-B:TYR:484:OH:9319, V-A:HIS:456:CD2:4068, V-A:HIS:456:CB:4065, V-A:ARG:545:C:4917, V-A:HIS:456:CG:4066, V-A:HIS:456:CA:4063, V-A:LYS:547:CG:4948, V-A:HIS:456:C:4061, V-A:VAL:458:CG2:4087, V-A:VAL:457:C:4073"]

$$$$
RR32_Rahimova_2017
     RDKit          3D

 18 20  0  0  0  0  0  0  0  0999 V2000
  124.6210  123.4810   62.1480 C   0  0  0  0  0  0  0  0  0  0  0  0
  125.6910  123.5000   61.0620 C   0  0  0  0  0  0  0  0  0  0  0  0
  126.9960  123.1530   61.4140 C   0  0  0  0  0  0  0  0  0  0  0  0
  127.9980  123.1560   60.4480 C   0  0  0  0  0  0  0  0  0  0  0  0
  129.2910  122.8110   60.8020 N   0  0  0  0  0  0  0  0  0  0  0  0
  129.6450  121.3810   60.7580 C   0  0  0  0  0  0  0  0  0  0  0  0
  131.0460  121.0800   61.3410 C   0  0  0  0  0  0  0  0  0  0  0  0
  132.0670  121.8360   60.6180 N   0  0  0  0  0  0  0  0  0  0  0  0
  133.3910  121.5280   61.1470 C   0  0  0  0  0  0  0  0  0  0  0  0
  131.7750  123.2590   60.7800 C   0  0  0  0  0  0  0  0  0  0  0  0
  130.3840  123.5920   60.1920 C   0  0  0  0  0  0  0  0  0  0  0  0
  127.7650  123.4890   59.1520 N   0  0  0  0  0  0  0  0  0  0  0  0
  126.5030  123.8350   58.7780 C   0  0  0  0  0  0  0  0  0  0  0  0
  126.2890  124.1800   57.4210 C   0  0  0  0  0  0  0  0  0  0  0  0
  125.0210  124.5420   56.9820 C   0  0  0  0  0  0  0  0  0  0  0  0
  123.9490  124.5680   57.8670 C   0  0  0  0  0  0  0  0  0  0  0  0
  124.1250  124.2350   59.2070 C   0  0  0  0  0  0  0  0  0  0  0  0
  125.4080  123.8590   59.7020 C   0  0  0  0  0  0  0  0  0  0  0  0
  1  2  1  0
  2  3  2  0
  3  4  1  0
  4  5  1  0
  5  6  1  0
  6  7  1  0
  7  8  1  0
  8  9  1  0
  8 10  1  0
 10 11  1  0
  4 12  2  0
 12 13  1  0
 13 14  2  0
 14 15  1  0
 15 16  2  0
 16 17  1  0
 17 18  2  0
 18  2  1  0
 11  5  1  0
 18 13  1  0
M  END
>  <Binding energies>  (167) 
[-5.83]

>  <Ligand effiencies>  (167) 
[-0.3238888888888889]

>  <Interactions>  (167) 
["V-B:PRO:540:CB:9857, V-B:PRO:540:CA:9855, V-B:TYR:539:CE2:9848, V-B:ASP:366:CB:8183, V-B:ASP:366:CG:8184, V-B:MET:535:CE:9807, V-B:LEU:363:CD1:8160, V-B:TYR:539:C:9839, V-B:TYR:531:CZ:9766, V-B:PRO:540:C:9853, V-B:TYR:539:CD2:9846, V-B:LEU:363:CA:8156, V-B:TYR:531:CE2:9765, V-A:ILE:369:CG2:3237, V-A:LEU:475:CD2:4259, V-B:GLU:543:CD:9880, V-B:ASN:362:CB:8147, V-B:LEU:363:CB:8158"]

$$$$
RR5_Rahimova_2017
     RDKit          3D

 45 50  0  0  0  0  0  0  0  0999 V2000
  126.9470  127.2140   59.0520 O   0  0  0  0  0  0  0  0  0  0  0  0
  126.9570  126.7550   60.1930 C   0  0  0  0  0  0  0  0  0  0  0  0
  126.3520  127.5730   61.3500 C   0  0  0  0  0  0  0  0  0  0  0  0
  127.3900  128.4800   62.1020 C   0  0  2  0  0  0  0  0  0  0  0  0
  127.6070  129.8110   61.5000 N   0  0  0  0  0  0  0  0  0  0  0  0
  126.5610  130.5380   60.9470 C   0  0  0  0  0  0  0  0  0  0  0  0
  125.3710  130.2160   60.9260 O   0  0  0  0  0  0  0  0  0  0  0  0
  127.0640  131.6660   60.4150 O   0  0  0  0  0  0  0  0  0  0  0  0
  127.6670  131.6730   59.1240 C   0  0  0  0  0  0  0  0  0  0  0  0
  128.9320  132.5600   59.1140 C   0  0  0  0  0  0  0  0  0  0  0  0
  129.9470  132.1850   60.1790 C   0  0  0  0  0  0  0  0  0  0  0  0
  129.7980  132.1240   61.5680 C   0  0  0  0  0  0  0  0  0  0  0  0
  130.8730  131.7270   62.3650 C   0  0  0  0  0  0  0  0  0  0  0  0
  132.0950  131.3940   61.7800 C   0  0  0  0  0  0  0  0  0  0  0  0
  132.2480  131.4580   60.3930 C   0  0  0  0  0  0  0  0  0  0  0  0
  131.1710  131.8550   59.5980 C   0  0  0  0  0  0  0  0  0  0  0  0
  131.0530  132.0170   58.1400 C   0  0  0  0  0  0  0  0  0  0  0  0
  131.9840  131.8300   57.1160 C   0  0  0  0  0  0  0  0  0  0  0  0
  131.6150  132.0790   55.7930 C   0  0  0  0  0  0  0  0  0  0  0  0
  130.3200  132.5110   55.4960 C   0  0  0  0  0  0  0  0  0  0  0  0
  129.3930  132.6930   56.5220 C   0  0  0  0  0  0  0  0  0  0  0  0
  129.7570  132.4420   57.8470 C   0  0  0  0  0  0  0  0  0  0  0  0
  128.7480  127.7500   62.2560 C   0  0  0  0  0  0  0  0  0  0  0  0
  128.8780  126.6060   62.6420 O   0  0  0  0  0  0  0  0  0  0  0  0
  129.7610  128.5810   61.8730 O   0  0  0  0  0  0  0  0  0  0  0  0
  127.4410  125.5390   60.5320 N   0  0  0  0  0  0  0  0  0  0  0  0
  128.0930  124.4410   59.7570 C   0  0  0  0  0  0  0  0  0  0  0  0
  129.2560  125.1980   59.0330 C   0  0  0  0  0  0  0  0  0  0  0  0
  129.1650  125.5580   57.6780 C   0  0  0  0  0  0  0  0  0  0  0  0
  130.2050  126.2330   57.0440 C   0  0  0  0  0  0  0  0  0  0  0  0
  131.3590  126.5500   57.7520 C   0  0  0  0  0  0  0  0  0  0  0  0
  131.4760  126.2080   59.0940 C   0  0  0  0  0  0  0  0  0  0  0  0
  130.4320  125.5430   59.7290 C   0  0  0  0  0  0  0  0  0  0  0  0
  128.6140  123.3860   60.7910 C   0  0  0  0  0  0  0  0  0  0  0  0
  129.2280  122.1920   60.3810 C   0  0  0  0  0  0  0  0  0  0  0  0
  129.6670  121.2590   61.3180 C   0  0  0  0  0  0  0  0  0  0  0  0
  129.4940  121.5070   62.6750 C   0  0  0  0  0  0  0  0  0  0  0  0
  128.8910  122.6840   63.1060 C   0  0  0  0  0  0  0  0  0  0  0  0
  128.4620  123.6190   62.1690 C   0  0  0  0  0  0  0  0  0  0  0  0
  127.0070  123.9020   58.7660 C   0  0  0  0  0  0  0  0  0  0  0  0
  127.3370  122.9670   57.7690 C   0  0  0  0  0  0  0  0  0  0  0  0
  126.3780  122.4910   56.8790 C   0  0  0  0  0  0  0  0  0  0  0  0
  125.0650  122.9380   56.9760 C   0  0  0  0  0  0  0  0  0  0  0  0
  124.7050  123.8510   57.9600 C   0  0  0  0  0  0  0  0  0  0  0  0
  125.6680  124.3250   58.8470 C   0  0  0  0  0  0  0  0  0  0  0  0
  1  2  2  0
  2  3  1  0
  4  3  1  6
  4  5  1  0
  5  6  1  0
  6  7  2  0
  6  8  1  0
  8  9  1  0
  9 10  1  0
 10 11  1  0
 11 12  2  0
 12 13  1  0
 13 14  2  0
 14 15  1  0
 15 16  2  0
 16 17  1  0
 17 18  2  0
 18 19  1  0
 19 20  2  0
 20 21  1  0
 21 22  2  0
  4 23  1  0
 23 24  2  0
 23 25  1  0
  2 26  1  0
 26 27  1  0
 27 28  1  0
 28 29  2  0
 29 30  1  0
 30 31  2  0
 31 32  1  0
 32 33  2  0
 27 34  1  0
 34 35  2  0
 35 36  1  0
 36 37  2  0
 37 38  1  0
 38 39  2  0
 27 40  1  0
 40 41  2  0
 41 42  1  0
 42 43  2  0
 43 44  1  0
 44 45  2  0
 22 10  1  0
 33 28  1  0
 39 34  1  0
 45 40  1  0
 16 11  1  0
 22 17  1  0
M  END
>  <Binding energies>  (168) 
[-10.06]

>  <Ligand effiencies>  (168) 
[-0.20958333333333334]

>  <Interactions>  (168) 
["V-A:LEU:363:CD1:3189, V-A:ASP:366:CG:3213, V-A:PRO:540:CA:4883, V-A:PRO:540:CB:4885, V-A:PRO:540:N:4884, V-A:TYR:539:C:4867, V-A:ASP:366:CB:3212, V-B:PRO:540:N:9856, V-B:PRO:540:CB:9857, V-B:PRO:540:CA:9855, V-B:TYR:539:CE2:9848, V-B:PRO:540:CD:9859, V-B:ASP:366:CG:8184, V-B:MET:535:CE:9807, V-B:LEU:363:CD1:8160, V-B:PRO:540:CG:9858, V-B:TYR:539:C:9839, H-B:GLU:543:OE1:9881, V-B:TYR:539:CD2:9846, V-A:MET:535:CE:4835, V-B:ALA:541:CB:9864, V-B:GLU:543:CG:9879, V-A:LEU:475:CD2:4259, V-A:GLU:543:CD:4908, V-A:GLU:543:CG:4907, V-A:TYR:531:CZ:4794, H-A:GLU:543:OE1:4909, H-A:GLU:543:OE2:4910, V-A:TYR:539:CE1:4875, V-B:ALA:541:CA:9862, V-A:TYR:539:CD1:4873, V-A:ILE:538:CA:4860, V-A:ILE:538:CG2:4863, V-A:ILE:538:CB:4862"]

$$$$
