1a_Ghoteimi_2023
     RDKit          3D

 40 43  0  0  0  0  0  0  0  0999 V2000
  131.3070  131.4470   56.2000 C   0  0  0  0  0  0  0  0  0  0  0  0
  131.7570  132.9050   56.3390 C   0  0  0  0  0  0  0  0  0  0  0  0
  130.9960  133.5370   57.3620 O   0  0  0  0  0  0  0  0  0  0  0  0
  129.6940  133.2120   57.5700 C   0  0  0  0  0  0  0  0  0  0  0  0
  128.8180  133.3270   56.7080 O   0  0  0  0  0  0  0  0  0  0  0  0
  129.4270  132.6940   58.9540 C   0  0  0  0  0  0  0  0  0  0  0  0
  128.1700  132.8200   59.5640 C   0  0  0  0  0  0  0  0  0  0  0  0
  127.9530  132.3330   60.8500 C   0  0  0  0  0  0  0  0  0  0  0  0
  128.9930  131.7030   61.5500 C   0  0  0  0  0  0  0  0  0  0  0  0
  128.8860  131.1790   62.8520 N   0  0  0  0  0  0  0  0  0  0  0  0
  128.2730  131.6880   63.9430 C   0  0  0  0  0  0  0  0  0  0  0  0
  127.6530  132.7510   63.9850 O   0  0  0  0  0  0  0  0  0  0  0  0
  128.3740  130.8390   65.2100 C   0  0  0  0  0  0  0  0  0  0  0  0
  127.3900  129.3180   65.0810 S   0  0  0  0  0  0  0  0  0  0  0  0
  128.3600  128.0340   65.8390 C   0  0  0  0  0  0  0  0  0  0  0  0
  128.3080  128.0340   67.1920 N   0  0  0  0  0  0  0  0  0  0  0  0
  129.0020  127.0990   67.8940 C   0  0  0  0  0  0  0  0  0  0  0  0
  128.8780  127.1510   69.3890 C   0  0  0  0  0  0  0  0  0  0  0  0
  127.6600  126.8710   70.0300 C   0  0  0  0  0  0  0  0  0  0  0  0
  127.5480  126.9200   71.4160 C   0  0  0  0  0  0  0  0  0  0  0  0
  128.6460  127.2510   72.2060 C   0  0  0  0  0  0  0  0  0  0  0  0
  128.4440  127.2720   73.5720 O   0  0  0  0  0  0  0  0  0  0  0  0
  127.8050  128.3990   74.1620 C   0  0  0  0  0  0  0  0  0  0  0  0
  129.8680  127.5370   71.5810 C   0  0  0  0  0  0  0  0  0  0  0  0
  129.9770  127.4880   70.1940 C   0  0  0  0  0  0  0  0  0  0  0  0
  129.7730  126.1370   67.2290 C   0  0  0  0  0  0  0  0  0  0  0  0
  129.8610  126.1330   65.8310 C   0  0  0  0  0  0  0  0  0  0  0  0
  130.7270  125.0970   65.1920 C   0  0  0  0  0  0  0  0  0  0  0  0
  130.2010  123.8580   64.8090 C   0  0  0  0  0  0  0  0  0  0  0  0
  131.0110  122.9040   64.2010 C   0  0  0  0  0  0  0  0  0  0  0  0
  132.3580  123.1690   63.9560 C   0  0  0  0  0  0  0  0  0  0  0  0
  133.0830  122.1630   63.3480 O   0  0  0  0  0  0  0  0  0  0  0  0
  133.8390  122.4610   62.1790 C   0  0  0  0  0  0  0  0  0  0  0  0
  132.8880  124.4130   64.3310 C   0  0  0  0  0  0  0  0  0  0  0  0
  132.0760  125.3660   64.9410 C   0  0  0  0  0  0  0  0  0  0  0  0
  129.1320  127.1070   65.1070 C   0  0  0  0  0  0  0  0  0  0  0  0
  129.1730  127.1440   63.6410 C   0  0  0  0  0  0  0  0  0  0  0  0
  129.2050  127.1720   62.4850 N   0  0  0  0  0  0  0  0  0  0  0  0
  130.2450  131.5790   60.9480 C   0  0  0  0  0  0  0  0  0  0  0  0
  130.4610  132.0670   59.6610 C   0  0  0  0  0  0  0  0  0  0  0  0
  1  2  1  0
  2  3  1  0
  3  4  1  0
  4  5  2  0
  4  6  1  0
  6  7  2  0
  7  8  1  0
  8  9  2  0
  9 10  1  0
 10 11  1  0
 11 12  2  0
 11 13  1  0
 13 14  1  0
 14 15  1  0
 15 16  2  0
 16 17  1  0
 17 18  1  0
 18 19  2  0
 19 20  1  0
 20 21  2  0
 21 22  1  0
 22 23  1  0
 21 24  1  0
 24 25  2  0
 17 26  2  0
 26 27  1  0
 27 28  1  0
 28 29  2  0
 29 30  1  0
 30 31  2  0
 31 32  1  0
 32 33  1  0
 31 34  1  0
 34 35  2  0
 27 36  2  0
 36 37  1  0
 37 38  3  0
  9 39  1  0
 39 40  2  0
 40  6  1  0
 36 15  1  0
 25 18  1  0
 35 28  1  0
M  END
>  <Binding energies>  (1) 
[-10.39]

>  <Ligand effiencies>  (1) 
[-0.25341463414634147]

>  <Interactions>  (1) 
["V-A:LEU:363:CD1:3189, V-A:PRO:540:CA:4883, V-A:PRO:540:CB:4885, V-A:PRO:540:CD:4887, V-A:PRO:540:N:4884, V-A:TYR:539:C:4867, H-A:TYR:539:N:4870, V-A:MET:535:CE:4835, V-A:ILE:369:CD1:3239, V-B:GLU:543:CG:9879, V-A:LEU:475:CD2:4259, V-B:GLU:543:CB:9878, V-A:GLU:543:CD:4908, V-A:TYR:484:CE2:4346, V-A:GLY:454:CA:4049, V-A:ARG:545:CZ:4926, V-B:GLU:543:CD:9880, V-B:HIS:456:CE1:9041, V-B:GLY:544:C:9884, V-B:GLU:543:C:9874, V-B:HIS:456:CD2:9039, V-A:HIS:456:CE1:4070, V-A:GLU:543:CG:4907, V-A:GLU:543:CB:4906, V-A:TYR:531:CZ:4794, V-B:GLY:544:CA:9886, H-B:LYS:547:NZ:9923, H-A:GLU:543:OE1:4909, V-B:TYR:484:CZ:9318, H-B:TYR:484:OH:9319, V-A:TYR:539:CE1:4875, H-A:GLY:454:N:4050, V-A:TYR:539:CD1:4873, V-A:ILE:538:CA:4860, V-A:TYR:539:CA:4869, V-A:TYR:531:CE2:4793, V-B:TYR:484:CE2:9317, V-A:ILE:538:CG2:4863, V-A:ILE:538:CB:4862"]

$$$$
1b_Ghoteimi_2023
     RDKit          3D

 34 37  0  0  0  0  0  0  0  0999 V2000
  130.6030  126.5520   75.0460 C   0  0  0  0  0  0  0  0  0  0  0  0
  129.5550  127.2300   74.3630 O   0  0  0  0  0  0  0  0  0  0  0  0
  129.5520  127.2480   72.9820 C   0  0  0  0  0  0  0  0  0  0  0  0
  128.3770  126.8400   72.3540 C   0  0  0  0  0  0  0  0  0  0  0  0
  128.2820  126.8240   70.9660 C   0  0  0  0  0  0  0  0  0  0  0  0
  129.3610  127.2200   70.1610 C   0  0  0  0  0  0  0  0  0  0  0  0
  129.2550  127.1990   68.6620 C   0  0  0  0  0  0  0  0  0  0  0  0
  129.9340  126.2720   67.8640 C   0  0  0  0  0  0  0  0  0  0  0  0
  129.7980  126.2930   66.4700 C   0  0  0  0  0  0  0  0  0  0  0  0
  130.5560  125.2760   65.6810 C   0  0  0  0  0  0  0  0  0  0  0  0
  131.8910  125.5030   65.3360 C   0  0  0  0  0  0  0  0  0  0  0  0
  132.6000  124.5620   64.5940 C   0  0  0  0  0  0  0  0  0  0  0  0
  131.9870  123.3800   64.1780 C   0  0  0  0  0  0  0  0  0  0  0  0
  132.7660  122.5050   63.4450 O   0  0  0  0  0  0  0  0  0  0  0  0
  133.2400  122.9050   62.1640 C   0  0  0  0  0  0  0  0  0  0  0  0
  130.6440  123.1520   64.5140 C   0  0  0  0  0  0  0  0  0  0  0  0
  129.9390  124.0950   65.2560 C   0  0  0  0  0  0  0  0  0  0  0  0
  128.9490  127.2670   65.8890 C   0  0  0  0  0  0  0  0  0  0  0  0
  128.6980  127.2710   64.4450 C   0  0  0  0  0  0  0  0  0  0  0  0
  128.5010  127.2720   63.3050 N   0  0  0  0  0  0  0  0  0  0  0  0
  128.3090  128.1870   66.7510 C   0  0  0  0  0  0  0  0  0  0  0  0
  127.2170  129.4800   66.1990 S   0  0  0  0  0  0  0  0  0  0  0  0
  127.2960  129.5450   64.3780 C   0  0  0  0  0  0  0  0  0  0  0  0
  128.1790  130.6620   63.8050 C   0  0  0  0  0  0  0  0  0  0  0  0
  128.0030  131.8370   64.1370 O   0  0  0  0  0  0  0  0  0  0  0  0
  129.1260  130.2430   62.9360 N   0  0  0  0  0  0  0  0  0  0  0  0
  130.0610  131.0250   62.2680 C   0  0  0  0  0  0  0  0  0  0  0  0
  130.3080  130.9160   60.9000 C   0  0  0  0  0  0  0  0  0  0  0  0
  131.2850  131.8490   60.6370 C   0  0  0  0  0  0  0  0  0  0  0  0
  131.6070  132.4890   61.7870 O   0  0  0  0  0  0  0  0  0  0  0  0
  130.8250  131.9580   62.8130 N   0  0  0  0  0  0  0  0  0  0  0  0
  128.4470  128.1340   68.0970 N   0  0  0  0  0  0  0  0  0  0  0  0
  130.5400  127.6270   70.8040 C   0  0  0  0  0  0  0  0  0  0  0  0
  130.6400  127.6430   72.1910 C   0  0  0  0  0  0  0  0  0  0  0  0
  1  2  1  0
  2  3  1  0
  3  4  2  0
  4  5  1  0
  5  6  2  0
  6  7  1  0
  7  8  2  0
  8  9  1  0
  9 10  1  0
 10 11  2  0
 11 12  1  0
 12 13  2  0
 13 14  1  0
 14 15  1  0
 13 16  1  0
 16 17  2  0
  9 18  2  0
 18 19  1  0
 19 20  3  0
 18 21  1  0
 21 22  1  0
 22 23  1  0
 23 24  1  0
 24 25  2  0
 24 26  1  0
 26 27  1  0
 27 28  1  0
 28 29  2  0
 29 30  1  0
 30 31  1  0
 21 32  2  0
  6 33  1  0
 33 34  2  0
 34  3  1  0
 32  7  1  0
 17 10  1  0
 31 27  2  0
M  END
>  <Binding energies>  (2) 
[-8.67]

>  <Ligand effiencies>  (2) 
[-0.24771428571428572]

>  <Interactions>  (2) 
["V-A:PRO:540:CA:4883, V-A:PRO:540:CB:4885, V-B:GLU:543:CG:9879, V-A:LEU:475:CD2:4259, V-A:TYR:484:CZ:4347, V-B:GLU:543:CB:9878, H-A:TYR:484:OH:4348, V-A:GLU:543:CD:4908, V-A:TYR:484:CE2:4346, V-A:ARG:545:CZ:4926, V-B:GLU:543:CD:9880, V-B:HIS:456:CE1:9041, V-A:GLY:544:C:4912, H-A:LYS:547:NZ:4951, V-B:GLU:543:C:9874, V-A:HIS:456:CE1:4070, V-A:GLU:543:CG:4907, V-A:GLU:543:CB:4906, H-B:LYS:547:NZ:9923, H-A:GLU:543:OE1:4909, H-B:TYR:484:OH:9319, V-A:HIS:456:CD2:4068, H-A:ALA:541:N:4891, H-A:GLY:454:N:4050"]

$$$$
1c_Ghoteimi_2023
     RDKit          3D

 34 37  0  0  0  0  0  0  0  0999 V2000
  126.1970  122.3820   56.5740 C   0  0  0  0  0  0  0  0  0  0  0  0
  125.7190  122.8300   57.8380 O   0  0  0  0  0  0  0  0  0  0  0  0
  126.6270  123.1380   58.8330 C   0  0  0  0  0  0  0  0  0  0  0  0
  127.9460  122.7490   58.6180 C   0  0  0  0  0  0  0  0  0  0  0  0
  128.9270  123.0160   59.5690 C   0  0  0  0  0  0  0  0  0  0  0  0
  128.6170  123.6790   60.7660 C   0  0  0  0  0  0  0  0  0  0  0  0
  129.6700  123.9650   61.7970 C   0  0  0  0  0  0  0  0  0  0  0  0
  129.3800  124.5520   63.0330 C   0  0  0  0  0  0  0  0  0  0  0  0
  130.3930  124.7740   63.9730 C   0  0  0  0  0  0  0  0  0  0  0  0
  130.0010  125.3420   65.2970 C   0  0  0  0  0  0  0  0  0  0  0  0
  130.2630  124.6410   66.4780 C   0  0  0  0  0  0  0  0  0  0  0  0
  129.8770  125.1620   67.7090 C   0  0  0  0  0  0  0  0  0  0  0  0
  129.2190  126.3900   67.7840 C   0  0  0  0  0  0  0  0  0  0  0  0
  128.8740  126.8290   69.0480 O   0  0  0  0  0  0  0  0  0  0  0  0
  129.4730  128.0160   69.5580 C   0  0  0  0  0  0  0  0  0  0  0  0
  128.9480  127.0930   66.6000 C   0  0  0  0  0  0  0  0  0  0  0  0
  129.3350  126.5700   65.3690 C   0  0  0  0  0  0  0  0  0  0  0  0
  131.7190  124.4190   63.6320 C   0  0  0  0  0  0  0  0  0  0  0  0
  132.8300  124.6570   64.5600 C   0  0  0  0  0  0  0  0  0  0  0  0
  133.7050  124.8450   65.2930 N   0  0  0  0  0  0  0  0  0  0  0  0
  131.9390  123.8150   62.3760 C   0  0  0  0  0  0  0  0  0  0  0  0
  133.5210  123.1650   61.8850 S   0  0  0  0  0  0  0  0  0  0  0  0
  133.2470  122.4840   60.2170 C   0  0  0  0  0  0  0  0  0  0  0  0
  132.8140  121.0140   60.2570 C   0  0  0  0  0  0  0  0  0  0  0  0
  133.6300  120.1320   59.9870 O   0  0  0  0  0  0  0  0  0  0  0  0
  131.5350  120.8010   60.6400 N   0  0  0  0  0  0  0  0  0  0  0  0
  130.9430  119.5770   60.9050 C   0  0  0  0  0  0  0  0  0  0  0  0
  130.0730  119.2870   61.8480 N   0  0  0  0  0  0  0  0  0  0  0  0
  129.6890  118.0270   61.7820 C   0  0  0  0  0  0  0  0  0  0  0  0
  130.2520  117.2650   60.7630 C   0  0  0  0  0  0  0  0  0  0  0  0
  131.3450  118.2610   59.8490 S   0  0  0  0  0  0  0  0  0  0  0  0
  130.9390  123.5880   61.4900 N   0  0  0  0  0  0  0  0  0  0  0  0
  127.2850  124.0720   60.9690 C   0  0  0  0  0  0  0  0  0  0  0  0
  126.3010  123.8060   60.0220 C   0  0  0  0  0  0  0  0  0  0  0  0
  1  2  1  0
  2  3  1  0
  3  4  2  0
  4  5  1  0
  5  6  2  0
  6  7  1  0
  7  8  2  0
  8  9  1  0
  9 10  1  0
 10 11  2  0
 11 12  1  0
 12 13  2  0
 13 14  1  0
 14 15  1  0
 13 16  1  0
 16 17  2  0
  9 18  2  0
 18 19  1  0
 19 20  3  0
 18 21  1  0
 21 22  1  0
 22 23  1  0
 23 24  1  0
 24 25  2  0
 24 26  1  0
 26 27  1  0
 27 28  2  0
 28 29  1  0
 29 30  2  0
 30 31  1  0
 21 32  2  0
  6 33  1  0
 33 34  2  0
 34  3  1  0
 32  7  1  0
 17 10  1  0
 31 27  1  0
M  END
>  <Binding energies>  (3) 
[-8.77]

>  <Ligand effiencies>  (3) 
[-0.25057142857142856]

>  <Interactions>  (3) 
["V-B:PRO:540:N:9856, V-B:PRO:540:CB:9857, V-B:PRO:540:CA:9855, V-B:TYR:539:CE2:9848, V-B:PRO:540:CD:9859, V-B:MET:535:CE:9807, V-B:TYR:539:C:9839, V-B:TYR:539:CG:9844, V-B:TYR:539:CD2:9846, V-B:ALA:541:CB:9864, V-B:GLU:543:CG:9879, V-A:ILE:369:CG2:3237, V-A:LEU:475:CD2:4259, V-A:TYR:484:CZ:4347, V-B:GLU:543:CB:9878, H-A:TYR:484:OH:4348, V-A:GLU:543:CD:4908, V-A:TYR:484:CE2:4346, H-A:ARG:545:NE:4924, V-A:ARG:545:CZ:4926, V-B:GLU:543:CD:9880, V-B:HIS:456:CE1:9041, V-A:HIS:456:CE1:4070, V-A:GLU:543:CB:4906, H-A:ARG:545:NH2:4928, V-B:GLU:543:CA:9876, H-A:GLY:454:N:4050, V-B:TYR:539:CB:9843, H-A:SER:385:OG:3410, V-A:HIS:383:NE2:3394, V-A:LEU:475:CG:4257, V-A:HIS:383:CD2:3392, V-A:HIS:383:CE1:3393, V-A:LEU:475:CD1:4258, V-A:PRO:482:CB:4326, V-A:PRO:482:CG:4327"]

$$$$
1d_Ghoteimi_2023
     RDKit          3D

 30 32  0  0  0  0  0  0  0  0999 V2000
  131.7730  126.1730   59.1600 C   0  0  0  0  0  0  0  0  0  0  0  0
  132.0850  124.9410   58.5290 O   0  0  0  0  0  0  0  0  0  0  0  0
  133.3250  124.4180   58.6230 C   0  0  0  0  0  0  0  0  0  0  0  0
  133.9650  123.8910   57.7110 O   0  0  0  0  0  0  0  0  0  0  0  0
  133.8980  124.5340   60.0330 C   0  0  0  0  0  0  0  0  0  0  0  0
  133.2750  123.1230   60.9950 S   0  0  0  0  0  0  0  0  0  0  0  0
  131.7220  123.6220   61.7050 C   0  0  0  0  0  0  0  0  0  0  0  0
  130.6670  123.4750   60.8680 N   0  0  0  0  0  0  0  0  0  0  0  0
  129.4210  123.8210   61.2810 C   0  0  0  0  0  0  0  0  0  0  0  0
  128.3070  123.6210   60.2950 C   0  0  0  0  0  0  0  0  0  0  0  0
  128.5270  122.9760   59.0680 C   0  0  0  0  0  0  0  0  0  0  0  0
  127.4940  122.7970   58.1530 C   0  0  0  0  0  0  0  0  0  0  0  0
  126.2100  123.2580   58.4330 C   0  0  0  0  0  0  0  0  0  0  0  0
  125.2480  123.0400   57.4650 O   0  0  0  0  0  0  0  0  0  0  0  0
  125.6140  122.3710   56.2630 C   0  0  0  0  0  0  0  0  0  0  0  0
  125.9740  123.9040   59.6540 C   0  0  0  0  0  0  0  0  0  0  0  0
  127.0100  124.0800   60.5680 C   0  0  0  0  0  0  0  0  0  0  0  0
  129.2110  124.3220   62.5710 C   0  0  0  0  0  0  0  0  0  0  0  0
  130.2860  124.4990   63.4520 C   0  0  0  0  0  0  0  0  0  0  0  0
  129.9910  125.0450   64.8120 C   0  0  0  0  0  0  0  0  0  0  0  0
  129.4330  126.3200   64.9530 C   0  0  0  0  0  0  0  0  0  0  0  0
  129.1560  126.8350   66.2160 C   0  0  0  0  0  0  0  0  0  0  0  0
  129.4260  126.0870   67.3620 C   0  0  0  0  0  0  0  0  0  0  0  0
  129.1250  126.6800   68.5730 O   0  0  0  0  0  0  0  0  0  0  0  0
  128.7920  128.0640   68.6050 C   0  0  0  0  0  0  0  0  0  0  0  0
  129.9740  124.8020   67.2250 C   0  0  0  0  0  0  0  0  0  0  0  0
  130.2490  124.2890   65.9600 C   0  0  0  0  0  0  0  0  0  0  0  0
  131.5870  124.1600   63.0050 C   0  0  0  0  0  0  0  0  0  0  0  0
  132.7590  124.4220   63.8460 C   0  0  0  0  0  0  0  0  0  0  0  0
  133.6830  124.6300   64.5110 N   0  0  0  0  0  0  0  0  0  0  0  0
  1  2  1  0
  2  3  1  0
  3  4  2  0
  3  5  1  0
  5  6  1  0
  6  7  1  0
  7  8  2  0
  8  9  1  0
  9 10  1  0
 10 11  2  0
 11 12  1  0
 12 13  2  0
 13 14  1  0
 14 15  1  0
 13 16  1  0
 16 17  2  0
  9 18  2  0
 18 19  1  0
 19 20  1  0
 20 21  2  0
 21 22  1  0
 22 23  2  0
 23 24  1  0
 24 25  1  0
 23 26  1  0
 26 27  2  0
 19 28  2  0
 28 29  1  0
 29 30  3  0
 28  7  1  0
 17 10  1  0
 27 20  1  0
M  END
>  <Binding energies>  (4) 
[-7.82]

>  <Ligand effiencies>  (4) 
[-0.26066666666666666]

>  <Interactions>  (4) 
["V-A:ASP:366:CG:3213, H-B:TYR:539:OH:9850, V-A:ASP:366:CB:3212, V-B:TYR:539:CZ:9849, V-B:PRO:540:N:9856, V-B:PRO:540:CB:9857, V-B:PRO:540:CA:9855, V-B:TYR:539:CE2:9848, V-B:PRO:540:CD:9859, V-B:MET:535:CE:9807, V-B:LEU:363:CD1:8160, V-B:TYR:539:C:9839, V-B:TYR:539:CD2:9846, V-A:ASP:366:CA:3210, V-A:ILE:369:CD1:3239, V-B:GLU:543:CG:9879, H-A:ASN:370:N:3244, V-A:ILE:369:CG2:3237, V-A:TYR:484:CZ:4347, V-B:GLU:543:CB:9878, H-A:TYR:484:OH:4348, V-A:GLU:543:CD:4908, V-A:TYR:484:CE2:4346, H-A:ARG:545:NE:4924, V-B:GLU:543:CD:9880, V-B:HIS:456:CE1:9041, V-A:HIS:456:CE1:4070, V-A:GLU:543:CB:4906, H-A:ARG:545:NH2:4928, V-B:GLU:543:CA:9876, H-A:GLY:454:N:4050, V-B:ILE:538:CG2:9835"]

$$$$
1j_Grossjean_2025
     RDKit          3D

 20 21  0  0  0  0  0  0  0  0999 V2000
  126.6530  127.8140   59.0460 C   0  0  0  0  0  0  0  0  0  0  0  0
  126.5750  126.4800   58.3280 C   0  0  0  0  0  0  0  0  0  0  0  0
  127.5250  126.1050   57.3810 C   0  0  0  0  0  0  0  0  0  0  0  0
  127.4100  124.8570   56.7600 C   0  0  0  0  0  0  0  0  0  0  0  0
  128.4740  124.4610   55.7380 C   0  0  0  0  0  0  0  0  0  0  0  0
  126.3290  124.0130   57.1020 C   0  0  0  0  0  0  0  0  0  0  0  0
  126.2180  122.6800   56.5030 C   0  0  0  0  0  0  0  0  0  0  0  0
  126.1340  121.6280   56.0280 N   0  0  0  0  0  0  0  0  0  0  0  0
  125.3960  124.4860   58.0540 C   0  0  0  0  0  0  0  0  0  0  0  0
  123.9780  123.5590   58.5990 S   0  0  0  0  0  0  0  0  0  0  0  0
  123.7470  123.8920   60.3700 C   0  0  0  0  0  0  0  0  0  0  0  0
  124.8800  123.3090   61.2160 C   0  0  0  0  0  0  0  0  0  0  0  0
  124.6090  122.7040   62.2540 O   0  0  0  0  0  0  0  0  0  0  0  0
  126.1280  123.5110   60.7380 N   0  0  0  0  0  0  0  0  0  0  0  0
  127.3160  123.0900   61.3200 C   0  0  0  0  0  0  0  0  0  0  0  0
  127.5250  122.7540   62.5750 N   0  0  0  0  0  0  0  0  0  0  0  0
  128.7790  122.4030   62.7780 C   0  0  0  0  0  0  0  0  0  0  0  0
  129.6200  122.4490   61.6690 C   0  0  0  0  0  0  0  0  0  0  0  0
  128.7060  122.9820   60.2900 S   0  0  0  0  0  0  0  0  0  0  0  0
  125.5290  125.6890   58.6670 N   0  0  0  0  0  0  0  0  0  0  0  0
  1  2  1  0
  2  3  2  0
  3  4  1  0
  4  5  1  0
  4  6  2  0
  6  7  1  0
  7  8  3  0
  6  9  1  0
  9 10  1  0
 10 11  1  0
 11 12  1  0
 12 13  2  0
 12 14  1  0
 14 15  1  0
 15 16  2  0
 16 17  1  0
 17 18  2  0
 18 19  1  0
  9 20  2  0
 20  2  1  0
 19 15  1  0
M  END
>  <Binding energies>  (5) 
[-6.34]

>  <Ligand effiencies>  (5) 
[-0.3019047619047619]

>  <Interactions>  (5) 
["V-B:TYR:539:CZ:9849, V-B:PRO:540:N:9856, V-B:TYR:539:CE1:9847, V-B:PRO:540:CB:9857, V-B:PRO:540:CA:9855, V-B:TYR:539:CE2:9848, H-B:TYR:539:N:9842, H-B:TYR:531:OH:9767, V-B:PRO:540:CD:9859, H-B:ASP:366:OD1:8185, V-B:ASP:366:CG:8184, V-B:MET:535:CE:9807, V-B:PRO:540:C:9853, H-B:ALA:541:N:9863, V-B:LEU:363:CA:8156, V-B:ALA:541:CB:9864, V-B:ALA:541:CA:9862, V-B:ASN:362:CB:8147, V-B:ASN:362:C:8143"]

$$$$
1o_Grossjean_2025
     RDKit          3D

 26 27  0  0  0  0  0  0  0  0999 V2000
  131.4160  132.5910   55.8660 C   0  0  0  0  0  0  0  0  0  0  0  0
  130.7100  133.3360   56.8490 O   0  0  0  0  0  0  0  0  0  0  0  0
  129.5390  132.8800   57.3640 C   0  0  0  0  0  0  0  0  0  0  0  0
  128.6520  133.6230   57.7960 O   0  0  0  0  0  0  0  0  0  0  0  0
  129.4290  131.3830   57.3550 C   0  0  0  0  0  0  0  0  0  0  0  0
  130.4840  130.5580   57.7720 C   0  0  0  0  0  0  0  0  0  0  0  0
  130.3480  129.1720   57.7540 C   0  0  0  0  0  0  0  0  0  0  0  0
  129.1610  128.5830   57.3150 C   0  0  0  0  0  0  0  0  0  0  0  0
  129.1290  127.1750   57.3460 N   0  0  0  0  0  0  0  0  0  0  0  0
  129.2630  126.2840   56.3390 C   0  0  0  0  0  0  0  0  0  0  0  0
  129.4930  126.5700   55.1640 O   0  0  0  0  0  0  0  0  0  0  0  0
  129.1410  124.8070   56.7430 C   0  0  0  0  0  0  0  0  0  0  0  0
  128.1400  124.0180   55.8760 C   0  0  0  0  0  0  0  0  0  0  0  0
  127.5480  122.4820   56.6470 S   0  0  0  0  0  0  0  0  0  0  0  0
  127.3710  122.7610   58.3980 C   0  0  0  0  0  0  0  0  0  0  0  0
  128.3970  122.2610   59.1310 N   0  0  0  0  0  0  0  0  0  0  0  0
  128.3760  122.4210   60.4750 C   0  0  0  0  0  0  0  0  0  0  0  0
  129.5640  121.8490   61.2260 C   0  0  0  0  0  0  0  0  0  0  0  0
  127.3360  123.0680   61.1380 C   0  0  0  0  0  0  0  0  0  0  0  0
  126.2610  123.5650   60.3950 C   0  0  0  0  0  0  0  0  0  0  0  0
  125.1260  124.2580   61.1480 C   0  0  0  0  0  0  0  0  0  0  0  0
  126.2580  123.4060   58.9910 C   0  0  0  0  0  0  0  0  0  0  0  0
  125.1130  123.8670   58.2020 C   0  0  0  0  0  0  0  0  0  0  0  0
  124.2070  124.2330   57.5820 N   0  0  0  0  0  0  0  0  0  0  0  0
  128.1000  129.4020   56.9010 C   0  0  0  0  0  0  0  0  0  0  0  0
  128.2380  130.7880   56.9210 C   0  0  0  0  0  0  0  0  0  0  0  0
  1  2  1  0
  2  3  1  0
  3  4  2  0
  3  5  1  0
  5  6  2  0
  6  7  1  0
  7  8  2  0
  8  9  1  0
  9 10  1  0
 10 11  2  0
 10 12  1  0
 12 13  1  0
 13 14  1  0
 14 15  1  0
 15 16  2  0
 16 17  1  0
 17 18  1  0
 17 19  2  0
 19 20  1  0
 20 21  1  0
 20 22  2  0
 22 23  1  0
 23 24  3  0
  8 25  1  0
 25 26  2  0
 26  5  1  0
 22 15  1  0
M  END
>  <Binding energies>  (6) 
[-7.5]

>  <Ligand effiencies>  (6) 
[-0.2777777777777778]

>  <Interactions>  (6) 
["V-A:LEU:363:CD1:3189, H-A:TYR:531:OH:4795, V-A:PRO:540:N:4884, V-A:TYR:539:C:4867, H-A:TYR:539:N:4870, V-B:TYR:539:CZ:9849, V-B:PRO:540:N:9856, V-B:TYR:539:CE1:9847, V-B:PRO:540:CB:9857, V-B:PRO:540:CA:9855, V-B:TYR:539:CE2:9848, H-B:TYR:539:N:9842, V-B:LEU:363:CD1:8160, V-B:TYR:539:C:9839, V-B:PRO:540:C:9853, V-B:TYR:539:CD2:9846, V-A:MET:535:CE:4835, V-A:ILE:538:CA:4860, V-A:ILE:538:CG2:4863, V-A:ILE:538:CB:4862"]

$$$$
1p_Grossjean_2025
     RDKit          3D

 21 22  0  0  0  0  0  0  0  0999 V2000
  132.0740  125.3150   64.6940 C   0  0  0  0  0  0  0  0  0  0  0  0
  132.4250  124.9270   63.2690 C   0  0  0  0  0  0  0  0  0  0  0  0
  133.2040  123.8060   62.9900 C   0  0  0  0  0  0  0  0  0  0  0  0
  133.5080  123.5040   61.6590 C   0  0  0  0  0  0  0  0  0  0  0  0
  134.3770  122.2790   61.3770 C   0  0  0  0  0  0  0  0  0  0  0  0
  133.0110  124.3360   60.6300 C   0  0  0  0  0  0  0  0  0  0  0  0
  133.3540  124.0690   59.2330 C   0  0  0  0  0  0  0  0  0  0  0  0
  133.6260  123.8560   58.1280 N   0  0  0  0  0  0  0  0  0  0  0  0
  132.2080  125.4400   61.0050 C   0  0  0  0  0  0  0  0  0  0  0  0
  131.4950  126.5790   59.8400 S   0  0  0  0  0  0  0  0  0  0  0  0
  129.9760  125.8070   59.2110 C   0  0  0  0  0  0  0  0  0  0  0  0
  129.9590  124.2720   59.3420 C   0  0  0  0  0  0  0  0  0  0  0  0
  128.6000  123.6420   59.0020 C   0  0  0  0  0  0  0  0  0  0  0  0
  127.8360  123.3160   59.9130 O   0  0  0  0  0  0  0  0  0  0  0  0
  128.3340  123.5030   57.6840 N   0  0  0  0  0  0  0  0  0  0  0  0
  127.1870  122.9690   57.1090 C   0  0  0  0  0  0  0  0  0  0  0  0
  125.9010  123.3970   57.4380 C   0  0  0  0  0  0  0  0  0  0  0  0
  125.0600  122.6320   56.6620 C   0  0  0  0  0  0  0  0  0  0  0  0
  125.8010  121.7870   55.9070 O   0  0  0  0  0  0  0  0  0  0  0  0
  127.1480  122.0090   56.2010 N   0  0  0  0  0  0  0  0  0  0  0  0
  131.9360  125.7370   62.3010 N   0  0  0  0  0  0  0  0  0  0  0  0
  1  2  1  0
  2  3  2  0
  3  4  1  0
  4  5  1  0
  4  6  2  0
  6  7  1  0
  7  8  3  0
  6  9  1  0
  9 10  1  0
 10 11  1  0
 11 12  1  0
 12 13  1  0
 13 14  2  0
 13 15  1  0
 15 16  1  0
 16 17  1  0
 17 18  2  0
 18 19  1  0
 19 20  1  0
  9 21  2  0
 21  2  1  0
 20 16  2  0
M  END
>  <Binding energies>  (7) 
[-7.03]

>  <Ligand effiencies>  (7) 
[-0.3195454545454546]

>  <Interactions>  (7) 
["V-A:ASP:366:CG:3213, H-B:TYR:539:OH:9850, V-B:TYR:539:CZ:9849, V-B:PRO:540:N:9856, V-B:TYR:539:CE1:9847, V-B:PRO:540:CB:9857, V-B:PRO:540:CA:9855, V-B:TYR:539:CE2:9848, H-B:TYR:539:N:9842, V-B:PRO:540:CD:9859, V-B:MET:535:CE:9807, V-B:LEU:363:CD1:8160, V-B:PRO:540:CG:9858, V-B:TYR:539:CD2:9846, V-A:ASP:366:CA:3210, V-A:ILE:369:CD1:3239, V-A:ILE:369:CB:3236, V-A:ILE:369:CG2:3237, V-A:ARG:545:CZ:4926, H-A:ARG:545:NH2:4928, V-B:ILE:538:CG2:9835, V-A:ILE:369:CG1:3238"]

$$$$
2a_Ghoteimi_2023
     RDKit          3D

 48 53  0  0  0  0  0  0  0  0999 V2000
  128.0110  132.5790   56.2030 C   0  0  0  0  0  0  0  0  0  0  0  0
  129.3500  132.9560   55.5610 C   0  0  0  0  0  0  0  0  0  0  0  0
  130.2100  133.5040   56.5510 O   0  0  0  0  0  0  0  0  0  0  0  0
  131.1080  132.7270   57.2090 C   0  0  0  0  0  0  0  0  0  0  0  0
  132.1650  132.3340   56.7060 O   0  0  0  0  0  0  0  0  0  0  0  0
  130.6890  132.3970   58.6140 C   0  0  0  0  0  0  0  0  0  0  0  0
  131.4680  131.5830   59.4490 C   0  0  0  0  0  0  0  0  0  0  0  0
  131.0510  131.2980   60.7460 C   0  0  0  0  0  0  0  0  0  0  0  0
  129.8540  131.8220   61.2370 C   0  0  0  0  0  0  0  0  0  0  0  0
  129.5290  131.4660   62.5600 N   0  0  0  0  0  0  0  0  0  0  0  0
  128.5980  131.9840   63.3910 C   0  0  0  0  0  0  0  0  0  0  0  0
  127.8680  132.9410   63.1300 O   0  0  0  0  0  0  0  0  0  0  0  0
  128.5120  131.3170   64.7700 C   0  0  0  0  0  0  0  0  0  0  0  0
  127.3000  129.9610   64.8770 S   0  0  0  0  0  0  0  0  0  0  0  0
  128.2140  128.5430   65.4380 C   0  0  0  0  0  0  0  0  0  0  0  0
  128.3560  128.4800   66.7830 N   0  0  0  0  0  0  0  0  0  0  0  0
  129.0430  127.4480   67.3330 C   0  0  0  0  0  0  0  0  0  0  0  0
  129.1670  127.4480   68.8230 C   0  0  0  0  0  0  0  0  0  0  0  0
  128.1320  126.9730   69.6370 C   0  0  0  0  0  0  0  0  0  0  0  0
  128.2480  126.9870   71.0240 C   0  0  0  0  0  0  0  0  0  0  0  0
  129.4070  127.4690   71.6500 C   0  0  0  0  0  0  0  0  0  0  0  0
  129.4970  127.5050   73.0450 N   0  0  0  0  0  0  0  0  0  0  0  0
  130.1720  126.4300   73.8010 C   0  0  0  0  0  0  0  0  0  0  0  0
  130.4940  126.8050   75.2630 C   0  0  0  0  0  0  0  0  0  0  0  0
  129.3140  127.2290   75.9270 O   0  0  0  0  0  0  0  0  0  0  0  0
  128.7510  128.3710   75.3030 C   0  0  0  0  0  0  0  0  0  0  0  0
  128.3760  128.0460   73.8410 C   0  0  0  0  0  0  0  0  0  0  0  0
  130.4370  127.9560   70.8290 C   0  0  0  0  0  0  0  0  0  0  0  0
  130.3210  127.9400   69.4420 C   0  0  0  0  0  0  0  0  0  0  0  0
  129.5960  126.4420   66.5370 C   0  0  0  0  0  0  0  0  0  0  0  0
  129.4620  126.4860   65.1420 C   0  0  0  0  0  0  0  0  0  0  0  0
  130.0840  125.3810   64.3510 C   0  0  0  0  0  0  0  0  0  0  0  0
  129.5070  124.1080   64.3480 C   0  0  0  0  0  0  0  0  0  0  0  0
  130.0890  123.0680   63.6300 C   0  0  0  0  0  0  0  0  0  0  0  0
  131.2640  123.2690   62.8900 C   0  0  0  0  0  0  0  0  0  0  0  0
  131.8740  122.2330   62.1770 N   0  0  0  0  0  0  0  0  0  0  0  0
  133.2940  122.3590   61.7930 C   0  0  0  0  0  0  0  0  0  0  0  0
  133.9330  121.0180   61.3730 C   0  0  0  0  0  0  0  0  0  0  0  0
  133.1780  120.4260   60.3270 O   0  0  0  0  0  0  0  0  0  0  0  0
  131.8410  120.1680   60.7260 C   0  0  0  0  0  0  0  0  0  0  0  0
  131.1480  121.4850   61.1330 C   0  0  0  0  0  0  0  0  0  0  0  0
  131.8430  124.5460   62.9080 C   0  0  0  0  0  0  0  0  0  0  0  0
  131.2620  125.5870   63.6270 C   0  0  0  0  0  0  0  0  0  0  0  0
  128.7460  127.5640   64.5690 C   0  0  0  0  0  0  0  0  0  0  0  0
  128.5240  127.6360   63.1210 C   0  0  0  0  0  0  0  0  0  0  0  0
  128.3520  127.6900   61.9780 N   0  0  0  0  0  0  0  0  0  0  0  0
  129.0660  132.6310   60.4050 C   0  0  0  0  0  0  0  0  0  0  0  0
  129.4850  132.9160   59.1080 C   0  0  0  0  0  0  0  0  0  0  0  0
  1  2  1  0
  2  3  1  0
  3  4  1  0
  4  5  2  0
  4  6  1  0
  6  7  2  0
  7  8  1  0
  8  9  2  0
  9 10  1  0
 10 11  1  0
 11 12  2  0
 11 13  1  0
 13 14  1  0
 14 15  1  0
 15 16  2  0
 16 17  1  0
 17 18  1  0
 18 19  2  0
 19 20  1  0
 20 21  2  0
 21 22  1  0
 22 23  1  0
 23 24  1  0
 24 25  1  0
 25 26  1  0
 26 27  1  0
 21 28  1  0
 28 29  2  0
 17 30  2  0
 30 31  1  0
 31 32  1  0
 32 33  2  0
 33 34  1  0
 34 35  2  0
 35 36  1  0
 36 37  1  0
 37 38  1  0
 38 39  1  0
 39 40  1  0
 40 41  1  0
 35 42  1  0
 42 43  2  0
 31 44  2  0
 44 45  1  0
 45 46  3  0
  9 47  1  0
 47 48  2  0
 48  6  1  0
 44 15  1  0
 29 18  1  0
 43 32  1  0
 27 22  1  0
 41 36  1  0
M  END
>  <Binding energies>  (8) 
[-11.91]

>  <Ligand effiencies>  (8) 
[-0.24306122448979592]

>  <Interactions>  (8) 
["V-A:PRO:540:CA:4883, V-A:PRO:540:CB:4885, V-A:PRO:540:CD:4887, V-A:PRO:540:N:4884, V-A:TYR:539:C:4867, H-A:TYR:539:N:4870, V-B:TYR:539:CE2:9848, V-B:TYR:539:CD2:9846, V-A:MET:535:CE:4835, V-A:ILE:369:CD1:3239, V-B:GLU:543:CG:9879, V-A:ILE:369:CG2:3237, V-A:LEU:475:CD2:4259, V-B:GLU:543:CB:9878, V-A:GLU:543:CD:4908, V-B:GLU:543:CD:9880, V-B:HIS:456:CE1:9041, V-A:GLY:544:C:4912, H-A:LYS:547:NZ:4951, V-B:GLU:543:C:9874, V-B:HIS:456:CD2:9039, V-A:HIS:456:CE1:4070, V-A:GLU:543:CG:4907, V-A:GLU:543:C:4902, V-A:GLU:543:CB:4906, H-B:LYS:547:NZ:9923, H-A:GLU:543:OE1:4909, V-B:TYR:484:CZ:9318, H-B:TYR:484:OH:9319, V-A:ALA:541:CB:4892, V-A:HIS:456:CD2:4068, V-A:TYR:539:CE1:4875, V-A:TYR:539:CZ:4877, V-A:TYR:539:CD1:4873, V-A:TYR:539:CD2:4874, V-A:ILE:538:CA:4860, V-A:TYR:539:CE2:4876, V-A:ILE:538:C:4858, V-B:TYR:484:CE2:9317, V-A:ILE:538:CG2:4863, V-A:ILE:538:CB:4862, H-A:SER:385:OG:3410, V-A:SER:385:CA:3407, V-A:SER:385:CB:3409, V-A:SER:385:C:3405"]

$$$$
2aa_Ghoteimi_2023
     RDKit          3D

 48 53  0  0  0  0  0  0  0  0999 V2000
  131.0980  131.3660   55.8110 C   0  0  0  0  0  0  0  0  0  0  0  0
  131.8320  132.5460   56.4580 C   0  0  0  0  0  0  0  0  0  0  0  0
  130.8840  133.5260   56.8610 O   0  0  0  0  0  0  0  0  0  0  0  0
  129.5810  133.2020   57.0620 C   0  0  0  0  0  0  0  0  0  0  0  0
  128.7210  133.2570   56.1760 O   0  0  0  0  0  0  0  0  0  0  0  0
  129.2900  132.7550   58.4660 C   0  0  0  0  0  0  0  0  0  0  0  0
  128.0120  132.8740   59.0320 C   0  0  0  0  0  0  0  0  0  0  0  0
  127.7740  132.4470   60.3340 C   0  0  0  0  0  0  0  0  0  0  0  0
  128.8050  131.9010   61.1000 C   0  0  0  0  0  0  0  0  0  0  0  0
  128.4530  131.4990   62.4030 N   0  0  0  0  0  0  0  0  0  0  0  0
  129.0560  131.7610   63.5830 C   0  0  0  0  0  0  0  0  0  0  0  0
  130.0600  132.4620   63.7240 O   0  0  0  0  0  0  0  0  0  0  0  0
  128.3750  131.1280   64.8030 C   0  0  0  0  0  0  0  0  0  0  0  0
  127.8560  129.8410   64.4510 O   0  0  0  0  0  0  0  0  0  0  0  0
  128.3950  128.6940   65.0170 C   0  0  0  0  0  0  0  0  0  0  0  0
  128.4890  128.6330   66.3750 N   0  0  0  0  0  0  0  0  0  0  0  0
  129.0070  127.5240   66.9600 C   0  0  0  0  0  0  0  0  0  0  0  0
  129.0830  127.5300   68.4540 C   0  0  0  0  0  0  0  0  0  0  0  0
  130.2800  127.8420   69.1080 C   0  0  0  0  0  0  0  0  0  0  0  0
  130.3550  127.8560   70.4980 C   0  0  0  0  0  0  0  0  0  0  0  0
  129.2300  127.5710   71.2880 C   0  0  0  0  0  0  0  0  0  0  0  0
  129.2910  127.5680   72.6860 N   0  0  0  0  0  0  0  0  0  0  0  0
  130.4800  127.0670   73.4040 C   0  0  0  0  0  0  0  0  0  0  0  0
  130.2380  126.8080   74.9060 C   0  0  0  0  0  0  0  0  0  0  0  0
  129.7280  127.9780   75.5250 O   0  0  0  0  0  0  0  0  0  0  0  0
  128.4940  128.3740   74.9480 C   0  0  0  0  0  0  0  0  0  0  0  0
  128.6840  128.6800   73.4470 C   0  0  0  0  0  0  0  0  0  0  0  0
  128.0380  127.2380   70.6280 C   0  0  0  0  0  0  0  0  0  0  0  0
  127.9650  127.2220   69.2380 C   0  0  0  0  0  0  0  0  0  0  0  0
  129.4630  126.4480   66.1930 C   0  0  0  0  0  0  0  0  0  0  0  0
  129.3890  126.4900   64.7950 C   0  0  0  0  0  0  0  0  0  0  0  0
  129.9160  125.3200   64.0290 C   0  0  0  0  0  0  0  0  0  0  0  0
  129.0520  124.5300   63.2650 C   0  0  0  0  0  0  0  0  0  0  0  0
  129.5330  123.4270   62.5650 C   0  0  0  0  0  0  0  0  0  0  0  0
  130.8900  123.0740   62.6190 C   0  0  0  0  0  0  0  0  0  0  0  0
  131.3960  121.9730   61.9210 N   0  0  0  0  0  0  0  0  0  0  0  0
  132.6620  122.0560   61.1680 C   0  0  0  0  0  0  0  0  0  0  0  0
  133.2310  120.6770   60.7700 C   0  0  0  0  0  0  0  0  0  0  0  0
  132.2580  119.9420   60.0440 O   0  0  0  0  0  0  0  0  0  0  0  0
  131.0840  119.7280   60.8120 C   0  0  0  0  0  0  0  0  0  0  0  0
  130.4580  121.0800   61.2110 C   0  0  0  0  0  0  0  0  0  0  0  0
  131.7500  123.8760   63.3810 C   0  0  0  0  0  0  0  0  0  0  0  0
  131.2700  124.9790   64.0810 C   0  0  0  0  0  0  0  0  0  0  0  0
  128.8260  127.6390   64.1920 C   0  0  0  0  0  0  0  0  0  0  0  0
  128.6620  127.7490   62.7410 C   0  0  0  0  0  0  0  0  0  0  0  0
  128.5330  127.8350   61.5940 N   0  0  0  0  0  0  0  0  0  0  0  0
  130.0840  131.7720   60.5390 C   0  0  0  0  0  0  0  0  0  0  0  0
  130.3190  132.1970   59.2340 C   0  0  0  0  0  0  0  0  0  0  0  0
  1  2  1  0
  2  3  1  0
  3  4  1  0
  4  5  2  0
  4  6  1  0
  6  7  2  0
  7  8  1  0
  8  9  2  0
  9 10  1  0
 10 11  1  0
 11 12  2  0
 11 13  1  0
 13 14  1  0
 14 15  1  0
 15 16  2  0
 16 17  1  0
 17 18  1  0
 18 19  2  0
 19 20  1  0
 20 21  2  0
 21 22  1  0
 22 23  1  0
 23 24  1  0
 24 25  1  0
 25 26  1  0
 26 27  1  0
 21 28  1  0
 28 29  2  0
 17 30  2  0
 30 31  1  0
 31 32  1  0
 32 33  2  0
 33 34  1  0
 34 35  2  0
 35 36  1  0
 36 37  1  0
 37 38  1  0
 38 39  1  0
 39 40  1  0
 40 41  1  0
 35 42  1  0
 42 43  2  0
 31 44  2  0
 44 45  1  0
 45 46  3  0
  9 47  1  0
 47 48  2  0
 48  6  1  0
 44 15  1  0
 29 18  1  0
 43 32  1  0
 27 22  1  0
 41 36  1  0
M  END
>  <Binding energies>  (9) 
[-10.65]

>  <Ligand effiencies>  (9) 
[-0.2173469387755102]

>  <Interactions>  (9) 
["V-A:LEU:363:CD1:3189, V-A:PRO:540:CA:4883, V-A:PRO:540:CB:4885, V-A:PRO:540:N:4884, V-A:TYR:539:C:4867, H-A:TYR:539:N:4870, V-B:TYR:539:CE2:9848, V-B:TYR:539:CD2:9846, V-A:MET:535:CE:4835, V-B:GLU:543:CG:9879, V-A:ILE:369:CG2:3237, V-A:LEU:475:CD2:4259, V-B:GLU:543:CB:9878, V-A:GLU:543:CD:4908, V-B:GLU:543:CD:9880, V-B:HIS:456:CE1:9041, H-A:LYS:547:NZ:4951, V-B:GLU:543:C:9874, V-B:HIS:456:CD2:9039, V-A:HIS:456:CE1:4070, V-A:GLU:543:CG:4907, V-A:GLU:543:C:4902, V-A:GLU:543:CB:4906, V-A:TYR:531:CZ:4794, H-B:LYS:547:NZ:9923, V-B:TYR:484:CZ:9318, H-B:TYR:484:OH:9319, V-A:ALA:541:CB:4892, V-A:HIS:456:CD2:4068, V-A:TYR:539:CE1:4875, H-A:ALA:541:N:4891, V-A:TYR:539:CD1:4873, V-A:ILE:538:CA:4860, V-A:TYR:539:CA:4869, V-A:TYR:531:CE2:4793, V-B:TYR:484:CE2:9317, V-A:ILE:538:CG2:4863, V-A:ILE:538:CB:4862, H-A:SER:385:OG:3410, V-A:SER:385:CA:3407, V-A:SER:385:CB:3409"]

$$$$
2b_Ghoteimi_2023
     RDKit          3D

 42 47  0  0  0  0  0  0  0  0999 V2000
  128.0260  132.3180   64.8980 N   0  0  0  0  0  0  0  0  0  0  0  0
  127.8780  131.4320   64.1690 C   0  0  0  0  0  0  0  0  0  0  0  0
  127.6890  130.3060   63.2500 C   0  0  0  0  0  0  0  0  0  0  0  0
  127.8060  128.9710   63.7130 C   0  0  0  0  0  0  0  0  0  0  0  0
  128.1170  128.6070   65.1280 C   0  0  0  0  0  0  0  0  0  0  0  0
  128.7900  127.4190   65.4170 C   0  0  0  0  0  0  0  0  0  0  0  0
  129.0820  127.0740   66.7340 C   0  0  0  0  0  0  0  0  0  0  0  0
  128.6920  127.9020   67.7990 C   0  0  0  0  0  0  0  0  0  0  0  0
  128.9850  127.5840   69.1270 N   0  0  0  0  0  0  0  0  0  0  0  0
  130.0270  128.3530   69.8370 C   0  0  0  0  0  0  0  0  0  0  0  0
  130.5120  127.6710   71.1340 C   0  0  0  0  0  0  0  0  0  0  0  0
  129.4080  127.3990   71.9850 O   0  0  0  0  0  0  0  0  0  0  0  0
  128.4660  126.5400   71.3630 C   0  0  0  0  0  0  0  0  0  0  0  0
  127.9240  127.1980   70.0770 C   0  0  0  0  0  0  0  0  0  0  0  0
  128.0150  129.0910   67.4980 C   0  0  0  0  0  0  0  0  0  0  0  0
  127.7260  129.4380   66.1820 C   0  0  0  0  0  0  0  0  0  0  0  0
  127.6130  127.9280   62.7990 C   0  0  0  0  0  0  0  0  0  0  0  0
  127.2820  128.2050   61.4700 C   0  0  0  0  0  0  0  0  0  0  0  0
  127.0360  127.1280   60.4610 C   0  0  0  0  0  0  0  0  0  0  0  0
  127.0790  127.4090   59.0910 C   0  0  0  0  0  0  0  0  0  0  0  0
  126.8670  126.4080   58.1470 C   0  0  0  0  0  0  0  0  0  0  0  0
  126.5900  125.0890   58.5380 C   0  0  0  0  0  0  0  0  0  0  0  0
  126.4050  124.0660   57.6010 N   0  0  0  0  0  0  0  0  0  0  0  0
  127.5610  123.2650   57.1470 C   0  0  0  0  0  0  0  0  0  0  0  0
  127.2880  122.4620   55.8570 C   0  0  0  0  0  0  0  0  0  0  0  0
  126.1390  121.6470   56.0260 O   0  0  0  0  0  0  0  0  0  0  0  0
  124.9850  122.4250   56.3010 C   0  0  0  0  0  0  0  0  0  0  0  0
  125.1890  123.2300   57.6020 C   0  0  0  0  0  0  0  0  0  0  0  0
  126.5550  124.8100   59.9120 C   0  0  0  0  0  0  0  0  0  0  0  0
  126.7700  125.8110   60.8550 C   0  0  0  0  0  0  0  0  0  0  0  0
  127.1690  129.4840   61.0280 N   0  0  0  0  0  0  0  0  0  0  0  0
  127.3840  130.5090   61.8850 C   0  0  0  0  0  0  0  0  0  0  0  0
  127.2000  132.1140   61.1380 S   0  0  0  0  0  0  0  0  0  0  0  0
  128.8650  132.7280   60.7400 C   0  0  0  0  0  0  0  0  0  0  0  0
  129.1410  132.7080   59.2350 C   0  0  0  0  0  0  0  0  0  0  0  0
  128.2110  132.8970   58.4490 O   0  0  0  0  0  0  0  0  0  0  0  0
  130.4230  132.4710   58.8820 N   0  0  0  0  0  0  0  0  0  0  0  0
  130.9450  132.4110   57.5980 C   0  0  0  0  0  0  0  0  0  0  0  0
  131.8440  131.4270   57.1880 C   0  0  0  0  0  0  0  0  0  0  0  0
  132.1130  131.7150   55.8710 C   0  0  0  0  0  0  0  0  0  0  0  0
  131.4130  132.8150   55.5060 O   0  0  0  0  0  0  0  0  0  0  0  0
  130.6730  133.2460   56.6100 N   0  0  0  0  0  0  0  0  0  0  0  0
  1  2  3  0
  2  3  1  0
  3  4  2  0
  4  5  1  0
  5  6  2  0
  6  7  1  0
  7  8  2  0
  8  9  1  0
  9 10  1  0
 10 11  1  0
 11 12  1  0
 12 13  1  0
 13 14  1  0
  8 15  1  0
 15 16  2  0
  4 17  1  0
 17 18  2  0
 18 19  1  0
 19 20  2  0
 20 21  1  0
 21 22  2  0
 22 23  1  0
 23 24  1  0
 24 25  1  0
 25 26  1  0
 26 27  1  0
 27 28  1  0
 22 29  1  0
 29 30  2  0
 18 31  1  0
 31 32  2  0
 32 33  1  0
 33 34  1  0
 34 35  1  0
 35 36  2  0
 35 37  1  0
 37 38  1  0
 38 39  1  0
 39 40  2  0
 40 41  1  0
 41 42  1  0
 32  3  1  0
 42 38  2  0
 16  5  1  0
 30 19  1  0
 14  9  1  0
 28 23  1  0
M  END
>  <Binding energies>  (10) 
[-11.64]

>  <Ligand effiencies>  (10) 
[-0.27069767441860465]

>  <Interactions>  (10) 
["V-A:LEU:363:CD1:3189, V-A:PRO:540:CA:4883, V-A:PRO:540:CB:4885, V-A:PRO:540:N:4884, V-A:TYR:539:C:4867, H-A:TYR:539:N:4870, V-B:TYR:539:CZ:9849, V-B:PRO:540:N:9856, V-B:TYR:539:CE1:9847, V-B:PRO:540:CB:9857, V-B:TYR:539:CD1:9845, V-B:PRO:540:CA:9855, V-B:TYR:539:CE2:9848, H-B:TYR:539:N:9842, V-B:PRO:540:CD:9859, V-B:MET:535:CE:9807, V-B:LEU:363:CD1:8160, V-B:PRO:540:CG:9858, V-B:TYR:539:CG:9844, V-B:GLU:543:CG:9879, V-B:GLU:543:CB:9878, V-A:GLU:543:CD:4908, V-B:GLU:543:CD:9880, V-B:HIS:456:CE1:9041, V-A:GLY:544:C:4912, V-B:GLU:543:C:9874, V-A:HIS:456:CE1:4070, V-A:GLU:543:CG:4907, V-A:GLU:543:C:4902, V-A:GLU:543:CB:4906, V-A:TYR:531:CZ:4794, V-B:TYR:484:CZ:9318, V-A:GLU:543:CA:4904, H-B:TYR:484:OH:9319, V-B:ILE:538:CG2:9835, V-A:TYR:531:CE2:4793, V-A:ILE:538:CG2:4863, V-A:ILE:538:CB:4862, V-B:ILE:538:CA:9832"]

$$$$
2c_Ghoteimi_2023
     RDKit          3D

 42 47  0  0  0  0  0  0  0  0999 V2000
  126.4330  130.3970   58.6740 N   0  0  0  0  0  0  0  0  0  0  0  0
  126.6970  130.0610   59.7490 C   0  0  0  0  0  0  0  0  0  0  0  0
  127.0330  129.6280   61.1090 C   0  0  0  0  0  0  0  0  0  0  0  0
  127.1620  128.2510   61.4170 C   0  0  0  0  0  0  0  0  0  0  0  0
  126.9710  127.1540   60.4210 C   0  0  0  0  0  0  0  0  0  0  0  0
  126.4260  125.9320   60.8180 C   0  0  0  0  0  0  0  0  0  0  0  0
  126.2400  124.9060   59.8940 C   0  0  0  0  0  0  0  0  0  0  0  0
  126.6090  125.0700   58.5500 C   0  0  0  0  0  0  0  0  0  0  0  0
  126.4140  124.0620   57.6020 N   0  0  0  0  0  0  0  0  0  0  0  0
  127.5620  123.2350   57.1800 C   0  0  0  0  0  0  0  0  0  0  0  0
  127.2990  122.4470   55.8790 C   0  0  0  0  0  0  0  0  0  0  0  0
  126.1290  121.6550   56.0180 O   0  0  0  0  0  0  0  0  0  0  0  0
  124.9850  122.4520   56.2850 C   0  0  0  0  0  0  0  0  0  0  0  0
  125.1870  123.2420   57.5950 C   0  0  0  0  0  0  0  0  0  0  0  0
  127.1600  126.3000   58.1620 C   0  0  0  0  0  0  0  0  0  0  0  0
  127.3430  127.3250   59.0850 C   0  0  0  0  0  0  0  0  0  0  0  0
  127.4870  127.8890   62.7310 C   0  0  0  0  0  0  0  0  0  0  0  0
  127.7040  128.8700   63.7030 C   0  0  0  0  0  0  0  0  0  0  0  0
  128.0700  128.5370   65.1130 C   0  0  0  0  0  0  0  0  0  0  0  0
  128.7510  127.3520   65.4130 C   0  0  0  0  0  0  0  0  0  0  0  0
  129.1000  127.0380   66.7250 C   0  0  0  0  0  0  0  0  0  0  0  0
  128.7690  127.8940   67.7880 C   0  0  0  0  0  0  0  0  0  0  0  0
  129.1340  127.6060   69.1070 N   0  0  0  0  0  0  0  0  0  0  0  0
  130.2320  128.3580   69.7480 C   0  0  0  0  0  0  0  0  0  0  0  0
  130.7740  127.6910   71.0300 C   0  0  0  0  0  0  0  0  0  0  0  0
  129.7160  127.4670   71.9450 O   0  0  0  0  0  0  0  0  0  0  0  0
  128.7280  126.6090   71.3970 C   0  0  0  0  0  0  0  0  0  0  0  0
  128.1260  127.2390   70.1230 C   0  0  0  0  0  0  0  0  0  0  0  0
  128.0980  129.0860   67.4800 C   0  0  0  0  0  0  0  0  0  0  0  0
  127.7520  129.4000   66.1690 C   0  0  0  0  0  0  0  0  0  0  0  0
  127.5830  130.1890   63.4040 N   0  0  0  0  0  0  0  0  0  0  0  0
  127.2380  130.5630   62.1490 C   0  0  0  0  0  0  0  0  0  0  0  0
  127.1130  132.3250   61.9400 S   0  0  0  0  0  0  0  0  0  0  0  0
  128.7470  133.0350   62.3030 C   0  0  0  0  0  0  0  0  0  0  0  0
  129.7570  132.7500   61.1890 C   0  0  0  0  0  0  0  0  0  0  0  0
  130.9190  132.4700   61.4850 O   0  0  0  0  0  0  0  0  0  0  0  0
  129.2750  132.8360   59.9310 N   0  0  0  0  0  0  0  0  0  0  0  0
  129.9780  132.6090   58.7560 C   0  0  0  0  0  0  0  0  0  0  0  0
  129.9090  133.2850   57.6310 N   0  0  0  0  0  0  0  0  0  0  0  0
  130.7250  132.7940   56.7190 C   0  0  0  0  0  0  0  0  0  0  0  0
  131.4810  131.6890   57.1010 C   0  0  0  0  0  0  0  0  0  0  0  0
  131.0940  131.2810   58.7460 S   0  0  0  0  0  0  0  0  0  0  0  0
  1  2  3  0
  2  3  1  0
  3  4  2  0
  4  5  1  0
  5  6  2  0
  6  7  1  0
  7  8  2  0
  8  9  1  0
  9 10  1  0
 10 11  1  0
 11 12  1  0
 12 13  1  0
 13 14  1  0
  8 15  1  0
 15 16  2  0
  4 17  1  0
 17 18  2  0
 18 19  1  0
 19 20  2  0
 20 21  1  0
 21 22  2  0
 22 23  1  0
 23 24  1  0
 24 25  1  0
 25 26  1  0
 26 27  1  0
 27 28  1  0
 22 29  1  0
 29 30  2  0
 18 31  1  0
 31 32  2  0
 32 33  1  0
 33 34  1  0
 34 35  1  0
 35 36  2  0
 35 37  1  0
 37 38  1  0
 38 39  2  0
 39 40  1  0
 40 41  2  0
 41 42  1  0
 32  3  1  0
 42 38  1  0
 16  5  1  0
 30 19  1  0
 14  9  1  0
 28 23  1  0
M  END
>  <Binding energies>  (11) 
[-10.99]

>  <Ligand effiencies>  (11) 
[-0.2555813953488372]

>  <Interactions>  (11) 
["V-A:LEU:363:CD1:3189, V-A:PRO:540:CA:4883, V-A:PRO:540:CB:4885, V-A:PRO:540:N:4884, V-A:TYR:539:C:4867, H-A:TYR:539:N:4870, V-B:TYR:539:CZ:9849, V-B:PRO:540:N:9856, V-B:TYR:539:CE1:9847, V-B:PRO:540:CB:9857, V-B:TYR:539:CD1:9845, V-B:PRO:540:CA:9855, V-B:TYR:539:CE2:9848, H-B:TYR:539:N:9842, V-B:PRO:540:CD:9859, V-B:ASP:366:CG:8184, V-B:MET:535:CE:9807, V-B:LEU:363:CD1:8160, V-B:PRO:540:CG:9858, V-B:TYR:539:CG:9844, V-B:GLU:543:CG:9879, V-B:GLU:543:CB:9878, V-A:GLU:543:CD:4908, V-B:GLU:543:CD:9880, V-B:HIS:456:CE1:9041, V-A:GLY:544:C:4912, V-A:HIS:456:CE1:4070, V-A:GLU:543:CG:4907, V-A:GLU:543:C:4902, V-A:GLU:543:CB:4906, V-B:TYR:484:CZ:9318, V-A:GLU:543:CA:4904, V-A:ALA:541:CB:4892, V-A:HIS:456:CD2:4068, V-A:PRO:540:C:4881, H-A:ALA:541:N:4891, V-B:ILE:538:CG2:9835, V-A:ILE:538:CA:4860, V-A:ILE:538:CB:4862, V-B:ILE:538:CA:9832, H-A:TYR:539:O:4868"]

$$$$
2j_Grossjean_2025
     RDKit          3D

 23 24  0  0  0  0  0  0  0  0999 V2000
  129.2340  122.8720   61.4020 C   0  0  0  0  0  0  0  0  0  0  0  0
  129.1780  123.5240   60.0330 C   0  0  0  0  0  0  0  0  0  0  0  0
  128.3080  123.0710   59.0450 C   0  0  0  0  0  0  0  0  0  0  0  0
  128.2900  123.7090   57.7950 C   0  0  0  0  0  0  0  0  0  0  0  0
  127.3210  123.1950   56.7130 C   0  0  0  0  0  0  0  0  0  0  0  0
  126.8650  121.9870   57.0470 F   0  0  0  0  0  0  0  0  0  0  0  0
  126.2890  124.0300   56.5910 F   0  0  0  0  0  0  0  0  0  0  0  0
  127.8970  123.0900   55.5130 F   0  0  0  0  0  0  0  0  0  0  0  0
  129.1680  124.8020   57.5810 C   0  0  0  0  0  0  0  0  0  0  0  0
  129.1920  125.5050   56.2950 C   0  0  0  0  0  0  0  0  0  0  0  0
  129.2100  126.0610   55.2800 N   0  0  0  0  0  0  0  0  0  0  0  0
  130.0180  125.1950   58.6420 C   0  0  0  0  0  0  0  0  0  0  0  0
  131.1620  126.5590   58.4850 S   0  0  0  0  0  0  0  0  0  0  0  0
  132.7070  125.9310   57.7420 C   0  0  0  0  0  0  0  0  0  0  0  0
  133.2490  124.6400   58.3740 C   0  0  0  0  0  0  0  0  0  0  0  0
  134.0230  123.9110   57.7500 O   0  0  0  0  0  0  0  0  0  0  0  0
  132.8000  124.3890   59.6240 N   0  0  0  0  0  0  0  0  0  0  0  0
  133.1280  123.3000   60.4210 C   0  0  0  0  0  0  0  0  0  0  0  0
  132.8580  122.0310   60.2040 N   0  0  0  0  0  0  0  0  0  0  0  0
  133.3240  121.2640   61.1710 C   0  0  0  0  0  0  0  0  0  0  0  0
  133.9900  121.9140   62.2050 C   0  0  0  0  0  0  0  0  0  0  0  0
  134.0020  123.6220   61.8840 S   0  0  0  0  0  0  0  0  0  0  0  0
  130.0190  124.5660   59.8440 N   0  0  0  0  0  0  0  0  0  0  0  0
  1  2  1  0
  2  3  2  0
  3  4  1  0
  4  5  1  0
  5  6  1  0
  5  7  1  0
  5  8  1  0
  4  9  2  0
  9 10  1  0
 10 11  3  0
  9 12  1  0
 12 13  1  0
 13 14  1  0
 14 15  1  0
 15 16  2  0
 15 17  1  0
 17 18  1  0
 18 19  2  0
 19 20  1  0
 20 21  2  0
 21 22  1  0
 12 23  2  0
 23  2  1  0
 22 18  1  0
M  END
>  <Binding energies>  (12) 
[-5.84]

>  <Ligand effiencies>  (12) 
[-0.24333333333333332]

>  <Interactions>  (12) 
["V-A:ASP:366:CG:3213, H-A:TYR:531:OH:4795, H-B:TYR:539:OH:9850, V-A:ASP:366:CB:3212, V-B:TYR:539:CZ:9849, V-B:PRO:540:N:9856, V-B:TYR:539:CE1:9847, V-B:PRO:540:CB:9857, V-B:TYR:539:CD1:9845, V-B:PRO:540:CA:9855, V-B:TYR:539:CE2:9848, V-B:PRO:540:CD:9859, V-B:MET:535:CE:9807, V-B:TYR:539:C:9839, V-B:TYR:539:CG:9844, V-B:TYR:539:CD2:9846, V-A:ASP:366:C:3208, V-A:ASP:366:CA:3210, V-A:ILE:369:CD1:3239, H-A:ASN:370:N:3244, V-A:ILE:369:CG2:3237, V-A:LEU:475:CD2:4259, V-A:GLY:454:CA:4049, V-A:TYR:531:CZ:4794, V-B:TYR:539:CA:9841, V-A:SER:385:CB:3409"]

$$$$
3ab_Grossjean_2025
     RDKit          3D

 33 35  0  0  0  0  0  0  0  0999 V2000
  127.2510  122.3750   55.5120 C   0  0  0  0  0  0  0  0  0  0  0  0
  126.4240  122.1590   56.6470 O   0  0  0  0  0  0  0  0  0  0  0  0
  125.9920  123.1990   57.4050 C   0  0  0  0  0  0  0  0  0  0  0  0
  125.1600  124.0240   57.0170 O   0  0  0  0  0  0  0  0  0  0  0  0
  126.6240  123.2440   58.7660 C   0  0  0  0  0  0  0  0  0  0  0  0
  127.9400  122.8100   58.9890 C   0  0  0  0  0  0  0  0  0  0  0  0
  128.5010  122.8650   60.2610 C   0  0  0  0  0  0  0  0  0  0  0  0
  127.7500  123.3560   61.3410 C   0  0  0  0  0  0  0  0  0  0  0  0
  128.2160  123.4620   62.6650 N   0  0  0  0  0  0  0  0  0  0  0  0
  129.2040  122.7890   63.2920 C   0  0  0  0  0  0  0  0  0  0  0  0
  129.8990  121.9060   62.7900 O   0  0  0  0  0  0  0  0  0  0  0  0
  129.4450  123.1870   64.7500 C   0  0  0  0  0  0  0  0  0  0  0  0
  130.6480  124.5420   64.9010 S   0  0  0  0  0  0  0  0  0  0  0  0
  129.7570  125.9910   65.4250 C   0  0  0  0  0  0  0  0  0  0  0  0
  129.7340  126.1560   66.7690 N   0  0  0  0  0  0  0  0  0  0  0  0
  129.0930  127.2250   67.3080 C   0  0  0  0  0  0  0  0  0  0  0  0
  129.1170  127.3370   68.8040 C   0  0  0  0  0  0  0  0  0  0  0  0
  128.0210  126.9150   69.5730 C   0  0  0  0  0  0  0  0  0  0  0  0
  128.0380  127.0160   70.9620 C   0  0  0  0  0  0  0  0  0  0  0  0
  129.1550  127.5420   71.6030 C   0  0  0  0  0  0  0  0  0  0  0  0
  130.2530  127.9700   70.8640 C   0  0  0  0  0  0  0  0  0  0  0  0
  130.2320  127.8680   69.4760 C   0  0  0  0  0  0  0  0  0  0  0  0
  128.4340  128.1510   66.4920 C   0  0  0  0  0  0  0  0  0  0  0  0
  128.4270  127.9920   65.0990 C   0  0  0  0  0  0  0  0  0  0  0  0
  127.6850  129.0310   64.2370 C   0  0  0  0  0  0  0  0  0  0  0  0
  128.4580  129.5610   63.2860 F   0  0  0  0  0  0  0  0  0  0  0  0
  126.6400  128.4650   63.6310 F   0  0  0  0  0  0  0  0  0  0  0  0
  127.2490  130.0310   65.0040 F   0  0  0  0  0  0  0  0  0  0  0  0
  129.0990  126.8760   64.5410 C   0  0  0  0  0  0  0  0  0  0  0  0
  129.0740  126.6310   63.0970 C   0  0  0  0  0  0  0  0  0  0  0  0
  129.0530  126.4400   61.9560 N   0  0  0  0  0  0  0  0  0  0  0  0
  126.4430  123.7940   61.1210 C   0  0  0  0  0  0  0  0  0  0  0  0
  125.8840  123.7370   59.8480 C   0  0  0  0  0  0  0  0  0  0  0  0
  1  2  1  0
  2  3  1  0
  3  4  2  0
  3  5  1  0
  5  6  2  0
  6  7  1  0
  7  8  2  0
  8  9  1  0
  9 10  1  0
 10 11  2  0
 10 12  1  0
 12 13  1  0
 13 14  1  0
 14 15  2  0
 15 16  1  0
 16 17  1  0
 17 18  2  0
 18 19  1  0
 19 20  2  0
 20 21  1  0
 21 22  2  0
 16 23  2  0
 23 24  1  0
 24 25  1  0
 25 26  1  0
 25 27  1  0
 25 28  1  0
 24 29  2  0
 29 30  1  0
 30 31  3  0
  8 32  1  0
 32 33  2  0
 33  5  1  0
 29 14  1  0
 22 17  1  0
M  END
>  <Binding energies>  (13) 
[-8.48]

>  <Ligand effiencies>  (13) 
[-0.24941176470588236]

>  <Interactions>  (13) 
["V-B:TYR:539:CZ:9849, V-B:PRO:540:N:9856, V-B:TYR:539:CE1:9847, V-B:PRO:540:CB:9857, V-B:TYR:539:CD1:9845, V-B:PRO:540:CA:9855, V-B:TYR:539:CE2:9848, H-B:TYR:539:N:9842, V-B:PRO:540:CD:9859, V-B:MET:535:CE:9807, V-B:TYR:539:C:9839, V-B:TYR:539:CG:9844, H-B:GLU:543:OE1:9881, V-B:TYR:539:CD2:9846, V-B:ALA:541:CB:9864, V-B:GLU:543:CG:9879, V-B:GLU:543:CB:9878, H-A:TYR:484:OH:4348, V-A:GLU:543:CD:4908, V-A:TYR:484:CE2:4346, V-B:GLU:543:CD:9880, V-B:HIS:456:CE1:9041, V-A:GLY:544:C:4912, V-B:GLU:543:C:9874, V-A:HIS:456:CE1:4070, V-A:GLU:543:CG:4907, V-A:GLU:543:C:4902, V-A:GLU:543:CB:4906, V-B:TYR:484:CZ:9318, V-B:ILE:538:CA:9832, V-B:ILE:538:C:9830"]

$$$$
3ac_Grossjean_2025
     RDKit          3D

 31 33  0  0  0  0  0  0  0  0999 V2000
  127.5460  128.0010   73.3250 C   0  0  0  0  0  0  0  0  0  0  0  0
  128.8590  128.3740   72.9180 O   0  0  0  0  0  0  0  0  0  0  0  0
  129.2980  128.0270   71.6540 C   0  0  0  0  0  0  0  0  0  0  0  0
  128.4140  127.2870   70.8700 C   0  0  0  0  0  0  0  0  0  0  0  0
  128.7670  126.8950   69.5820 C   0  0  0  0  0  0  0  0  0  0  0  0
  130.0180  127.2310   69.0620 C   0  0  0  0  0  0  0  0  0  0  0  0
  130.2760  126.8090   67.7450 N   0  0  0  0  0  0  0  0  0  0  0  0
  130.0940  125.5910   67.1900 C   0  0  0  0  0  0  0  0  0  0  0  0
  129.6100  124.6140   67.7620 O   0  0  0  0  0  0  0  0  0  0  0  0
  130.5350  125.4580   65.7320 C   0  0  0  0  0  0  0  0  0  0  0  0
  129.7930  124.0110   64.9180 S   0  0  0  0  0  0  0  0  0  0  0  0
  130.2960  123.9960   63.2080 C   0  0  0  0  0  0  0  0  0  0  0  0
  129.2610  123.8310   62.3490 N   0  0  0  0  0  0  0  0  0  0  0  0
  129.4900  123.8060   61.0100 C   0  0  0  0  0  0  0  0  0  0  0  0
  128.2920  123.6130   60.1290 C   0  0  0  0  0  0  0  0  0  0  0  0
  127.0250  124.0680   60.5310 C   0  0  0  0  0  0  0  0  0  0  0  0
  125.9100  123.8970   59.7150 C   0  0  0  0  0  0  0  0  0  0  0  0
  126.0470  123.2650   58.4830 C   0  0  0  0  0  0  0  0  0  0  0  0
  127.2880  122.8010   58.0640 C   0  0  0  0  0  0  0  0  0  0  0  0
  128.4010  122.9740   58.8830 C   0  0  0  0  0  0  0  0  0  0  0  0
  130.7870  123.9300   60.5030 C   0  0  0  0  0  0  0  0  0  0  0  0
  131.8790  124.0780   61.3720 C   0  0  0  0  0  0  0  0  0  0  0  0
  133.2920  124.2060   60.7700 C   0  0  0  0  0  0  0  0  0  0  0  0
  134.0950  124.9890   61.4940 F   0  0  0  0  0  0  0  0  0  0  0  0
  133.8710  123.0060   60.6940 F   0  0  0  0  0  0  0  0  0  0  0  0
  133.2170  124.7270   59.5450 F   0  0  0  0  0  0  0  0  0  0  0  0
  131.6360  124.0980   62.7680 C   0  0  0  0  0  0  0  0  0  0  0  0
  132.7500  124.1740   63.7150 C   0  0  0  0  0  0  0  0  0  0  0  0
  133.6310  124.2320   64.4630 N   0  0  0  0  0  0  0  0  0  0  0  0
  130.9110  127.9830   69.8420 C   0  0  0  0  0  0  0  0  0  0  0  0
  130.5540  128.3730   71.1300 C   0  0  0  0  0  0  0  0  0  0  0  0
  1  2  1  0
  2  3  1  0
  3  4  2  0
  4  5  1  0
  5  6  2  0
  6  7  1  0
  7  8  1  0
  8  9  2  0
  8 10  1  0
 10 11  1  0
 11 12  1  0
 12 13  2  0
 13 14  1  0
 14 15  1  0
 15 16  2  0
 16 17  1  0
 17 18  2  0
 18 19  1  0
 19 20  2  0
 14 21  2  0
 21 22  1  0
 22 23  1  0
 23 24  1  0
 23 25  1  0
 23 26  1  0
 22 27  2  0
 27 28  1  0
 28 29  3  0
  6 30  1  0
 30 31  2  0
 31  3  1  0
 27 12  1  0
 20 15  1  0
M  END
>  <Binding energies>  (14) 
[-7.61]

>  <Ligand effiencies>  (14) 
[-0.2378125]

>  <Interactions>  (14) 
["V-A:ASP:366:CG:3213, V-A:ASP:366:CB:3212, V-B:TYR:539:CZ:9849, V-B:PRO:540:N:9856, V-B:PRO:540:CB:9857, V-B:PRO:540:CA:9855, V-B:TYR:539:CE2:9848, V-B:TYR:539:C:9839, V-B:TYR:539:CD2:9846, V-A:ASP:366:CA:3210, V-A:ILE:369:CD1:3239, V-B:GLU:543:CG:9879, V-A:ILE:369:CB:3236, V-A:ILE:369:CG2:3237, V-B:GLU:543:CB:9878, H-A:TYR:484:OH:4348, V-A:GLU:543:CD:4908, V-B:HIS:456:CE1:9041, V-A:GLY:544:CA:4914, V-A:GLY:544:C:4912, V-B:GLU:543:C:9874, V-B:HIS:456:CD2:9039, V-A:HIS:456:CE1:4070, V-A:GLU:543:C:4902, V-A:GLU:543:CB:4906, V-B:HIS:456:CG:9037, H-A:GLU:543:OE1:4909, H-A:GLU:543:OE2:4910, H-A:GLY:454:N:4050"]

$$$$
3af_Grossjean_2025
     RDKit          3D

 29 31  0  0  0  0  0  0  0  0999 V2000
  128.9800  126.0500   55.0280 N   0  0  0  0  0  0  0  0  0  0  0  0
  129.0770  125.5740   56.0790 C   0  0  0  0  0  0  0  0  0  0  0  0
  129.1970  124.9690   57.4080 C   0  0  0  0  0  0  0  0  0  0  0  0
  128.3670  123.8870   57.7880 C   0  0  0  0  0  0  0  0  0  0  0  0
  127.3380  123.2520   56.8320 C   0  0  0  0  0  0  0  0  0  0  0  0
  126.8380  122.1050   57.2960 F   0  0  0  0  0  0  0  0  0  0  0  0
  126.3170  124.0890   56.6420 F   0  0  0  0  0  0  0  0  0  0  0  0
  127.9070  122.9900   55.6540 F   0  0  0  0  0  0  0  0  0  0  0  0
  128.4820  123.3770   59.0900 C   0  0  0  0  0  0  0  0  0  0  0  0
  129.3980  123.9340   59.9890 C   0  0  0  0  0  0  0  0  0  0  0  0
  129.5490  123.4420   61.3970 C   0  0  0  0  0  0  0  0  0  0  0  0
  129.5060  124.3360   62.4790 C   0  0  0  0  0  0  0  0  0  0  0  0
  129.6430  123.8850   63.7890 C   0  0  0  0  0  0  0  0  0  0  0  0
  129.8240  122.5280   64.0350 C   0  0  0  0  0  0  0  0  0  0  0  0
  129.8670  121.6210   62.9820 C   0  0  0  0  0  0  0  0  0  0  0  0
  129.7300  122.0760   61.6730 C   0  0  0  0  0  0  0  0  0  0  0  0
  130.1890  124.9740   59.6220 N   0  0  0  0  0  0  0  0  0  0  0  0
  130.1130  125.4690   58.3630 C   0  0  0  0  0  0  0  0  0  0  0  0
  131.2370  126.8180   58.0650 S   0  0  0  0  0  0  0  0  0  0  0  0
  132.7860  126.1260   57.4100 C   0  0  0  0  0  0  0  0  0  0  0  0
  133.2790  124.9460   58.2460 C   0  0  0  0  0  0  0  0  0  0  0  0
  133.9940  124.0940   57.7180 O   0  0  0  0  0  0  0  0  0  0  0  0
  132.8690  124.9370   59.5330 N   0  0  0  0  0  0  0  0  0  0  0  0
  133.1330  124.0030   60.5540 C   0  0  0  0  0  0  0  0  0  0  0  0
  133.0280  122.6050   60.4350 C   0  0  0  0  0  0  0  0  0  0  0  0
  133.3210  121.7940   61.5340 C   0  0  0  0  0  0  0  0  0  0  0  0
  133.7110  122.4020   62.7280 C   0  0  0  0  0  0  0  0  0  0  0  0
  133.8210  123.7460   62.8680 N   0  0  0  0  0  0  0  0  0  0  0  0
  133.5330  124.5200   61.7910 C   0  0  0  0  0  0  0  0  0  0  0  0
  1  2  3  0
  2  3  1  0
  3  4  2  0
  4  5  1  0
  5  6  1  0
  5  7  1  0
  5  8  1  0
  4  9  1  0
  9 10  2  0
 10 11  1  0
 11 12  2  0
 12 13  1  0
 13 14  2  0
 14 15  1  0
 15 16  2  0
 10 17  1  0
 17 18  2  0
 18 19  1  0
 19 20  1  0
 20 21  1  0
 21 22  2  0
 21 23  1  0
 23 24  1  0
 24 25  2  0
 25 26  1  0
 26 27  2  0
 27 28  1  0
 28 29  2  0
 18  3  1  0
 29 24  1  0
 16 11  1  0
M  END
>  <Binding energies>  (15) 
[-7.03]

>  <Ligand effiencies>  (15) 
[-0.23433333333333334]

>  <Interactions>  (15) 
["V-A:ASP:366:CG:3213, H-A:TYR:531:OH:4795, H-B:TYR:539:OH:9850, H-A:ASP:366:OD2:3215, V-A:ASP:366:CB:3212, V-B:TYR:539:CZ:9849, V-B:PRO:540:N:9856, V-B:TYR:539:CE1:9847, V-B:PRO:540:CB:9857, V-B:TYR:539:CD1:9845, V-B:PRO:540:CA:9855, V-B:TYR:539:CE2:9848, V-B:PRO:540:CD:9859, V-B:MET:535:CE:9807, V-B:TYR:539:C:9839, V-B:TYR:539:CG:9844, V-B:TYR:539:CD2:9846, V-B:ALA:541:CB:9864, V-A:ASP:366:C:3208, V-A:ASP:366:CA:3210, V-B:GLU:543:CG:9879, H-A:ASN:370:N:3244, V-A:ILE:369:CG2:3237, V-A:LEU:475:CD2:4259, V-A:GLY:454:CA:4049, V-B:GLU:543:CD:9880, V-A:TYR:531:CZ:4794, H-A:GLY:454:N:4050, V-B:TYR:539:CA:9841, H-A:ASP:366:OD1:3214"]

$$$$
3ag_Grossjean_2025
     RDKit          3D

 30 32  0  0  0  0  0  0  0  0999 V2000
  129.2820  126.8180   63.3600 N   0  0  0  0  0  0  0  0  0  0  0  0
  129.1750  126.9260   64.5070 C   0  0  0  0  0  0  0  0  0  0  0  0
  129.0370  127.0660   65.9600 C   0  0  0  0  0  0  0  0  0  0  0  0
  128.2780  128.1250   66.5160 C   0  0  0  0  0  0  0  0  0  0  0  0
  127.5130  129.1450   65.6500 C   0  0  0  0  0  0  0  0  0  0  0  0
  127.3080  128.7150   64.4040 F   0  0  0  0  0  0  0  0  0  0  0  0
  126.3200  129.3940   66.1910 F   0  0  0  0  0  0  0  0  0  0  0  0
  128.1990  130.2860   65.5700 F   0  0  0  0  0  0  0  0  0  0  0  0
  128.2200  128.2470   67.9130 C   0  0  0  0  0  0  0  0  0  0  0  0
  128.9110  127.3460   68.7300 C   0  0  0  0  0  0  0  0  0  0  0  0
  128.8870  127.4310   70.2260 C   0  0  0  0  0  0  0  0  0  0  0  0
  127.7770  126.9690   70.9530 C   0  0  0  0  0  0  0  0  0  0  0  0
  127.7480  127.0450   72.3430 C   0  0  0  0  0  0  0  0  0  0  0  0
  128.8320  127.5860   73.0270 C   0  0  0  0  0  0  0  0  0  0  0  0
  129.9420  128.0540   72.3310 C   0  0  0  0  0  0  0  0  0  0  0  0
  129.9670  127.9770   70.9420 C   0  0  0  0  0  0  0  0  0  0  0  0
  129.6270  126.3240   68.1930 N   0  0  0  0  0  0  0  0  0  0  0  0
  129.6810  126.1760   66.8480 C   0  0  0  0  0  0  0  0  0  0  0  0
  130.6600  124.7850   66.3250 S   0  0  0  0  0  0  0  0  0  0  0  0
  132.3590  125.3830   66.0750 C   0  0  0  0  0  0  0  0  0  0  0  0
  132.8650  125.1110   64.6580 C   0  0  0  0  0  0  0  0  0  0  0  0
  133.9890  124.6370   64.4870 O   0  0  0  0  0  0  0  0  0  0  0  0
  132.0210  125.4100   63.6550 N   0  0  0  0  0  0  0  0  0  0  0  0
  132.2850  125.1990   62.2320 C   0  0  0  0  0  0  0  0  0  0  0  0
  132.5190  123.7410   61.8520 C   0  0  0  0  0  0  0  0  0  0  0  0
  131.4360  122.9350   61.4920 C   0  0  0  0  0  0  0  0  0  0  0  0
  131.6480  121.6110   61.1160 C   0  0  0  0  0  0  0  0  0  0  0  0
  132.9450  121.1010   61.0930 C   0  0  0  0  0  0  0  0  0  0  0  0
  134.0310  121.9030   61.4360 C   0  0  0  0  0  0  0  0  0  0  0  0
  133.8180  123.2270   61.8120 C   0  0  0  0  0  0  0  0  0  0  0  0
  1  2  3  0
  2  3  1  0
  3  4  2  0
  4  5  1  0
  5  6  1  0
  5  7  1  0
  5  8  1  0
  4  9  1  0
  9 10  2  0
 10 11  1  0
 11 12  2  0
 12 13  1  0
 13 14  2  0
 14 15  1  0
 15 16  2  0
 10 17  1  0
 17 18  2  0
 18 19  1  0
 19 20  1  0
 20 21  1  0
 21 22  2  0
 21 23  1  0
 23 24  1  0
 24 25  1  0
 25 26  2  0
 26 27  1  0
 27 28  2  0
 28 29  1  0
 29 30  2  0
 18  3  1  0
 30 25  1  0
 16 11  1  0
M  END
>  <Binding energies>  (16) 
[-7.88]

>  <Ligand effiencies>  (16) 
[-0.2541935483870968]

>  <Interactions>  (16) 
["V-B:TYR:539:CE2:9848, V-B:TYR:539:CD2:9846, V-A:ILE:369:CD1:3239, V-B:GLU:543:CG:9879, V-A:ILE:369:CG2:3237, V-A:LEU:475:CD2:4259, V-A:TYR:484:CZ:4347, V-B:GLU:543:CB:9878, H-A:TYR:484:OH:4348, V-A:GLU:543:CD:4908, H-A:ARG:545:NE:4924, V-A:ARG:545:CZ:4926, V-B:GLU:543:CD:9880, V-B:HIS:456:CE1:9041, V-B:GLY:544:C:9884, V-B:GLU:543:C:9874, V-B:HIS:456:CD2:9039, V-B:LYS:547:CE:9922, V-A:HIS:456:CE1:4070, V-A:GLU:543:CG:4907, V-A:GLU:543:CB:4906, H-A:GLU:543:OE1:4909, H-A:GLU:543:OE2:4910, V-B:TYR:484:CZ:9318, H-A:ARG:545:NH2:4928, H-A:GLY:454:N:4050, V-B:TYR:484:CE2:9317, V-A:SER:385:CB:3409"]

$$$$
3bc_Grossjean_2025
     RDKit          3D

 28 30  0  0  0  0  0  0  0  0999 V2000
  128.7440  133.4770   55.8310 C   0  0  0  0  0  0  0  0  0  0  0  0
  129.9260  133.3290   56.6100 O   0  0  0  0  0  0  0  0  0  0  0  0
  130.2660  132.0770   57.0880 C   0  0  0  0  0  0  0  0  0  0  0  0
  131.6280  131.7910   57.1700 C   0  0  0  0  0  0  0  0  0  0  0  0
  132.0670  130.5560   57.6390 C   0  0  0  0  0  0  0  0  0  0  0  0
  131.1440  129.5830   58.0270 C   0  0  0  0  0  0  0  0  0  0  0  0
  131.6810  128.3710   58.4990 N   0  0  0  0  0  0  0  0  0  0  0  0
  131.2740  127.1070   58.2570 C   0  0  0  0  0  0  0  0  0  0  0  0
  130.3400  126.8010   57.5130 O   0  0  0  0  0  0  0  0  0  0  0  0
  132.1020  126.0210   58.9590 C   0  0  0  0  0  0  0  0  0  0  0  0
  131.5270  125.5660   60.6300 S   0  0  0  0  0  0  0  0  0  0  0  0
  130.5150  124.1100   60.4790 C   0  0  0  0  0  0  0  0  0  0  0  0
  129.4260  124.2820   59.6900 N   0  0  0  0  0  0  0  0  0  0  0  0
  128.5680  123.2480   59.4860 C   0  0  0  0  0  0  0  0  0  0  0  0
  127.3770  123.5270   58.6180 C   0  0  0  0  0  0  0  0  0  0  0  0
  126.4720  124.5470   58.9480 C   0  0  0  0  0  0  0  0  0  0  0  0
  125.3650  124.8120   58.1470 C   0  0  0  0  0  0  0  0  0  0  0  0
  125.1460  124.0540   57.0010 C   0  0  0  0  0  0  0  0  0  0  0  0
  126.0260  123.0350   56.6520 C   0  0  0  0  0  0  0  0  0  0  0  0
  127.1320  122.7730   57.4580 C   0  0  0  0  0  0  0  0  0  0  0  0
  128.7900  122.0020   60.0820 C   0  0  0  0  0  0  0  0  0  0  0  0
  129.9220  121.8020   60.8800 C   0  0  0  0  0  0  0  0  0  0  0  0
  130.1330  120.4190   61.4960 C   0  0  0  0  0  0  0  0  0  0  0  0
  130.8210  122.8700   61.0850 C   0  0  0  0  0  0  0  0  0  0  0  0
  132.0370  122.6690   61.8760 C   0  0  0  0  0  0  0  0  0  0  0  0
  132.9970  122.5080   62.5020 N   0  0  0  0  0  0  0  0  0  0  0  0
  129.7720  129.8670   57.9610 C   0  0  0  0  0  0  0  0  0  0  0  0
  129.3370  131.1040   57.4910 C   0  0  0  0  0  0  0  0  0  0  0  0
  1  2  1  0
  2  3  1  0
  3  4  2  0
  4  5  1  0
  5  6  2  0
  6  7  1  0
  7  8  1  0
  8  9  2  0
  8 10  1  0
 10 11  1  0
 11 12  1  0
 12 13  2  0
 13 14  1  0
 14 15  1  0
 15 16  2  0
 16 17  1  0
 17 18  2  0
 18 19  1  0
 19 20  2  0
 14 21  2  0
 21 22  1  0
 22 23  1  0
 22 24  2  0
 24 25  1  0
 25 26  3  0
  6 27  1  0
 27 28  2  0
 28  3  1  0
 24 12  1  0
 20 15  1  0
M  END
>  <Binding energies>  (17) 
[-7.8]

>  <Ligand effiencies>  (17) 
[-0.2689655172413793]

>  <Interactions>  (17) 
["V-A:LEU:363:CD1:3189, V-A:ASP:366:CG:3213, H-A:TYR:531:OH:4795, H-A:ASP:366:OD2:3215, V-A:ASP:366:CB:3212, H-A:TYR:539:N:4870, V-B:PRO:540:N:9856, V-B:PRO:540:CA:9855, V-B:TYR:539:CE2:9848, V-B:MET:535:CE:9807, V-B:LEU:363:CD1:8160, V-B:TYR:539:C:9839, V-B:TYR:539:CD2:9846, V-A:MET:535:CE:4835, V-B:TYR:531:CE2:9765, V-B:ALA:541:CB:9864, V-A:LEU:475:CD2:4259, V-A:TYR:531:CZ:4794, V-A:TYR:539:CE1:4875, V-A:TYR:539:CZ:4877, V-A:TYR:539:CD1:4873, V-A:TYR:539:CD2:4874, V-A:ILE:538:CA:4860, V-A:TYR:539:CG:4872, V-A:TYR:539:CE2:4876, V-A:TYR:531:CE2:4793, V-A:ILE:538:C:4858, V-A:ILE:538:CB:4862, H-A:ASP:366:OD1:3214"]

$$$$
3bd_Grossjean_2025
     RDKit          3D

 26 28  0  0  0  0  0  0  0  0999 V2000
  127.3830  123.6290   56.6320 C   0  0  0  0  0  0  0  0  0  0  0  0
  128.3610  124.1780   57.6690 C   0  0  0  0  0  0  0  0  0  0  0  0
  128.3010  123.6670   58.9710 C   0  0  0  0  0  0  0  0  0  0  0  0
  129.1780  124.1470   59.9510 C   0  0  0  0  0  0  0  0  0  0  0  0
  129.1700  123.6410   61.3630 C   0  0  0  0  0  0  0  0  0  0  0  0
  130.3580  123.5730   62.1070 C   0  0  0  0  0  0  0  0  0  0  0  0
  130.3580  123.1020   63.4180 C   0  0  0  0  0  0  0  0  0  0  0  0
  129.1650  122.6920   64.0040 C   0  0  0  0  0  0  0  0  0  0  0  0
  127.9750  122.7460   63.2870 C   0  0  0  0  0  0  0  0  0  0  0  0
  127.9790  123.2170   61.9770 C   0  0  0  0  0  0  0  0  0  0  0  0
  130.1020  125.0980   59.6520 N   0  0  0  0  0  0  0  0  0  0  0  0
  130.1740  125.6040   58.3950 C   0  0  0  0  0  0  0  0  0  0  0  0
  131.4210  126.8550   58.1360 S   0  0  0  0  0  0  0  0  0  0  0  0
  132.8640  126.0590   57.3670 C   0  0  0  0  0  0  0  0  0  0  0  0
  133.3190  124.8230   58.1440 C   0  0  0  0  0  0  0  0  0  0  0  0
  134.0020  123.9740   57.5710 O   0  0  0  0  0  0  0  0  0  0  0  0
  132.9080  124.7550   59.4290 N   0  0  0  0  0  0  0  0  0  0  0  0
  133.1810  123.7680   60.3950 C   0  0  0  0  0  0  0  0  0  0  0  0
  132.8220  122.4610   60.0570 C   0  0  0  0  0  0  0  0  0  0  0  0
  133.0460  121.4190   60.9530 C   0  0  0  0  0  0  0  0  0  0  0  0
  133.6200  121.6850   62.1930 C   0  0  0  0  0  0  0  0  0  0  0  0
  133.9700  122.9870   62.5470 C   0  0  0  0  0  0  0  0  0  0  0  0
  133.7490  124.0300   61.6530 C   0  0  0  0  0  0  0  0  0  0  0  0
  129.3150  125.1720   57.3620 C   0  0  0  0  0  0  0  0  0  0  0  0
  129.4040  125.7260   56.0070 C   0  0  0  0  0  0  0  0  0  0  0  0
  129.4740  126.1610   54.9380 N   0  0  0  0  0  0  0  0  0  0  0  0
  1  2  1  0
  2  3  2  0
  3  4  1  0
  4  5  1  0
  5  6  2  0
  6  7  1  0
  7  8  2  0
  8  9  1  0
  9 10  2  0
  4 11  2  0
 11 12  1  0
 12 13  1  0
 13 14  1  0
 14 15  1  0
 15 16  2  0
 15 17  1  0
 17 18  1  0
 18 19  2  0
 19 20  1  0
 20 21  2  0
 21 22  1  0
 22 23  2  0
 12 24  2  0
 24 25  1  0
 25 26  3  0
 24  2  1  0
 10  5  1  0
 23 18  1  0
M  END
>  <Binding energies>  (18) 
[-7.49]

>  <Ligand effiencies>  (18) 
[-0.27740740740740744]

>  <Interactions>  (18) 
["V-A:ASP:366:CG:3213, H-A:TYR:531:OH:4795, H-B:TYR:539:OH:9850, V-A:ASP:366:CB:3212, V-B:TYR:539:CZ:9849, V-B:TYR:539:CE1:9847, V-B:TYR:539:CE2:9848, V-B:TYR:539:CD2:9846, V-B:ALA:541:CB:9864, V-A:ASP:366:C:3208, V-A:ASP:366:CA:3210, V-A:ILE:369:CD1:3239, V-B:GLU:543:CG:9879, H-A:ASN:370:N:3244, V-A:ILE:369:CG2:3237, V-A:LEU:475:CD2:4259, V-A:GLY:454:CA:4049, V-B:GLU:543:CD:9880, V-A:TYR:531:CZ:4794, V-B:ALA:541:CA:9862, H-A:ASP:366:OD1:3214"]

$$$$
3be_Grossjean_2025
     RDKit          3D

 27 29  0  0  0  0  0  0  0  0999 V2000
  126.5580  123.5460   58.4930 C   0  0  0  0  0  0  0  0  0  0  0  0
  127.3910  123.2600   59.7270 C   0  0  0  0  0  0  0  0  0  0  0  0
  126.8850  123.4620   61.0140 C   0  0  0  0  0  0  0  0  0  0  0  0
  127.7090  123.1800   62.1040 C   0  0  0  0  0  0  0  0  0  0  0  0
  129.0050  122.7050   61.8840 C   0  0  0  0  0  0  0  0  0  0  0  0
  129.4480  122.5210   60.5690 C   0  0  0  0  0  0  0  0  0  0  0  0
  130.7660  122.0520   60.4140 N   0  0  0  0  0  0  0  0  0  0  0  0
  131.3090  120.8970   60.8550 C   0  0  0  0  0  0  0  0  0  0  0  0
  130.7020  120.0380   61.4980 O   0  0  0  0  0  0  0  0  0  0  0  0
  132.7900  120.7040   60.4920 C   0  0  0  0  0  0  0  0  0  0  0  0
  133.9320  121.9320   61.2120 S   0  0  0  0  0  0  0  0  0  0  0  0
  133.0550  123.4720   61.3750 C   0  0  0  0  0  0  0  0  0  0  0  0
  132.6800  123.7520   62.6480 N   0  0  0  0  0  0  0  0  0  0  0  0
  132.0050  124.9010   62.9180 C   0  0  0  0  0  0  0  0  0  0  0  0
  131.6150  125.1280   64.3490 C   0  0  0  0  0  0  0  0  0  0  0  0
  130.2650  125.1240   64.7330 C   0  0  0  0  0  0  0  0  0  0  0  0
  129.8960  125.3370   66.0580 C   0  0  0  0  0  0  0  0  0  0  0  0
  130.8750  125.5580   67.0210 C   0  0  0  0  0  0  0  0  0  0  0  0
  132.2190  125.5680   66.6660 C   0  0  0  0  0  0  0  0  0  0  0  0
  132.5840  125.3560   65.3400 C   0  0  0  0  0  0  0  0  0  0  0  0
  131.6870  125.8020   61.8970 C   0  0  0  0  0  0  0  0  0  0  0  0
  132.0870  125.5410   60.5830 C   0  0  0  0  0  0  0  0  0  0  0  0
  131.7320  126.5620   59.5040 C   0  0  0  0  0  0  0  0  0  0  0  0
  132.8010  124.3550   60.3020 C   0  0  0  0  0  0  0  0  0  0  0  0
  133.2770  124.0880   58.9430 C   0  0  0  0  0  0  0  0  0  0  0  0
  133.6530  123.8790   57.8680 N   0  0  0  0  0  0  0  0  0  0  0  0
  128.6470  122.7990   59.4980 N   0  0  0  0  0  0  0  0  0  0  0  0
  1  2  1  0
  2  3  2  0
  3  4  1  0
  4  5  2  0
  5  6  1  0
  6  7  1  0
  7  8  1  0
  8  9  2  0
  8 10  1  0
 10 11  1  0
 11 12  1  0
 12 13  2  0
 13 14  1  0
 14 15  1  0
 15 16  2  0
 16 17  1  0
 17 18  2  0
 18 19  1  0
 19 20  2  0
 14 21  2  0
 21 22  1  0
 22 23  1  0
 22 24  2  0
 24 25  1  0
 25 26  3  0
  6 27  2  0
 27  2  1  0
 24 12  1  0
 20 15  1  0
M  END
>  <Binding energies>  (19) 
[-7.54]

>  <Ligand effiencies>  (19) 
[-0.2692857142857143]

>  <Interactions>  (19) 
["V-A:ASP:366:CG:3213, H-B:TYR:539:OH:9850, V-A:ASP:366:CB:3212, V-B:TYR:539:CZ:9849, V-B:PRO:540:N:9856, V-B:PRO:540:CB:9857, V-B:PRO:540:CA:9855, V-B:TYR:539:CE2:9848, V-B:TYR:539:CD2:9846, V-B:ALA:541:CB:9864, V-A:ASP:366:CA:3210, V-B:GLU:543:CG:9879, V-A:ILE:369:CG2:3237, V-A:LEU:475:CD2:4259, V-A:TYR:484:CZ:4347, V-B:GLU:543:CB:9878, V-A:ARG:545:CZ:4926, V-B:GLU:543:CD:9880, V-A:HIS:456:CE1:4070, V-A:ARG:545:CG:4922, V-A:ARG:545:CD:4923, V-A:SER:385:CB:3409"]

$$$$
3bf_Grossjean_2025
     RDKit          3D

 26 28  0  0  0  0  0  0  0  0999 V2000
  134.4910  124.2630   59.5530 C   0  0  0  0  0  0  0  0  0  0  0  0
  132.9700  124.2360   59.6910 C   0  0  0  0  0  0  0  0  0  0  0  0
  132.2120  124.9770   58.7790 C   0  0  0  0  0  0  0  0  0  0  0  0
  130.8150  124.9680   58.8600 C   0  0  0  0  0  0  0  0  0  0  0  0
  129.9460  125.7220   57.9000 C   0  0  0  0  0  0  0  0  0  0  0  0
  129.9150  127.1250   57.9110 C   0  0  0  0  0  0  0  0  0  0  0  0
  129.1100  127.8330   57.0230 C   0  0  0  0  0  0  0  0  0  0  0  0
  128.3210  127.1430   56.1080 C   0  0  0  0  0  0  0  0  0  0  0  0
  128.3320  125.7530   56.0770 C   0  0  0  0  0  0  0  0  0  0  0  0
  129.1380  125.0490   56.9680 C   0  0  0  0  0  0  0  0  0  0  0  0
  130.1780  124.2450   59.8190 N   0  0  0  0  0  0  0  0  0  0  0  0
  130.8990  123.5420   60.7260 C   0  0  0  0  0  0  0  0  0  0  0  0
  129.8980  122.6640   61.9080 S   0  0  0  0  0  0  0  0  0  0  0  0
  128.3450  123.5950   62.1360 C   0  0  0  0  0  0  0  0  0  0  0  0
  127.2460  123.2930   61.1060 C   0  0  0  0  0  0  0  0  0  0  0  0
  126.0940  123.0520   61.4680 O   0  0  0  0  0  0  0  0  0  0  0  0
  127.6510  123.3490   59.8180 N   0  0  0  0  0  0  0  0  0  0  0  0
  126.9060  123.1160   58.6470 C   0  0  0  0  0  0  0  0  0  0  0  0
  125.6830  123.7850   58.5250 C   0  0  0  0  0  0  0  0  0  0  0  0
  124.9030  123.6070   57.3810 C   0  0  0  0  0  0  0  0  0  0  0  0
  125.3760  122.7590   56.3780 C   0  0  0  0  0  0  0  0  0  0  0  0
  126.5620  122.1060   56.4650 N   0  0  0  0  0  0  0  0  0  0  0  0
  127.3090  122.2890   57.5840 C   0  0  0  0  0  0  0  0  0  0  0  0
  132.3100  123.4900   60.6920 C   0  0  0  0  0  0  0  0  0  0  0  0
  133.0830  122.6680   61.6270 C   0  0  0  0  0  0  0  0  0  0  0  0
  133.6950  122.0200   62.3650 N   0  0  0  0  0  0  0  0  0  0  0  0
  1  2  1  0
  2  3  2  0
  3  4  1  0
  4  5  1  0
  5  6  2  0
  6  7  1  0
  7  8  2  0
  8  9  1  0
  9 10  2  0
  4 11  2  0
 11 12  1  0
 12 13  1  0
 13 14  1  0
 14 15  1  0
 15 16  2  0
 15 17  1  0
 17 18  1  0
 18 19  2  0
 19 20  1  0
 20 21  2  0
 21 22  1  0
 22 23  2  0
 12 24  2  0
 24 25  1  0
 25 26  3  0
 24  2  1  0
 10  5  1  0
 23 18  1  0
M  END
>  <Binding energies>  (20) 
[-7.5]

>  <Ligand effiencies>  (20) 
[-0.2777777777777778]

>  <Interactions>  (20) 
["V-A:ASP:366:CG:3213, V-A:ASP:366:CB:3212, V-B:TYR:539:CZ:9849, V-B:PRO:540:N:9856, V-B:PRO:540:CB:9857, V-B:TYR:539:CD1:9845, V-B:PRO:540:CA:9855, V-B:TYR:539:CE2:9848, H-B:TYR:539:N:9842, V-B:PRO:540:CD:9859, V-B:MET:535:CE:9807, V-B:LEU:363:CD1:8160, V-B:TYR:539:C:9839, V-B:TYR:539:CG:9844, H-B:ALA:541:N:9863, V-B:TYR:539:CD2:9846, V-A:MET:535:CE:4835, V-A:ASP:366:C:3208, V-A:ASP:366:CA:3210, V-A:ILE:369:CD1:3239, V-A:ILE:369:CB:3236, V-A:ILE:369:CG2:3237, H-A:GLY:454:N:4050, V-B:ILE:538:CG2:9835, V-B:TYR:539:CA:9841, V-A:ILE:369:CG1:3238"]

$$$$
3bg_Grossjean_2025
     RDKit          3D

 27 29  0  0  0  0  0  0  0  0999 V2000
  134.1640  124.3720   59.6860 C   0  0  0  0  0  0  0  0  0  0  0  0
  132.6490  124.1810   59.6750 C   0  0  0  0  0  0  0  0  0  0  0  0
  131.8850  125.0050   58.8440 C   0  0  0  0  0  0  0  0  0  0  0  0
  130.4920  124.8590   58.7980 C   0  0  0  0  0  0  0  0  0  0  0  0
  129.6130  125.7040   57.9180 C   0  0  0  0  0  0  0  0  0  0  0  0
  129.0000  126.8680   58.4100 C   0  0  0  0  0  0  0  0  0  0  0  0
  128.2010  127.6630   57.5930 C   0  0  0  0  0  0  0  0  0  0  0  0
  127.9970  127.3030   56.2660 C   0  0  0  0  0  0  0  0  0  0  0  0
  128.5810  126.1500   55.7540 C   0  0  0  0  0  0  0  0  0  0  0  0
  129.3780  125.3570   56.5750 C   0  0  0  0  0  0  0  0  0  0  0  0
  129.8730  123.9060   59.5450 N   0  0  0  0  0  0  0  0  0  0  0  0
  130.6010  123.0950   60.3550 C   0  0  0  0  0  0  0  0  0  0  0  0
  129.6710  121.8640   61.2550 S   0  0  0  0  0  0  0  0  0  0  0  0
  128.6420  122.7180   62.4940 C   0  0  0  0  0  0  0  0  0  0  0  0
  127.3100  123.1880   61.9020 C   0  0  0  0  0  0  0  0  0  0  0  0
  126.2500  122.7760   62.3740 O   0  0  0  0  0  0  0  0  0  0  0  0
  127.3830  124.0280   60.8560 N   0  0  0  0  0  0  0  0  0  0  0  0
  126.2540  124.4550   60.0280 C   0  0  0  0  0  0  0  0  0  0  0  0
  126.2250  123.7250   58.6910 C   0  0  0  0  0  0  0  0  0  0  0  0
  127.3560  123.0330   58.2460 C   0  0  0  0  0  0  0  0  0  0  0  0
  127.3330  122.3740   57.0200 C   0  0  0  0  0  0  0  0  0  0  0  0
  126.1740  122.3980   56.2460 C   0  0  0  0  0  0  0  0  0  0  0  0
  125.0360  123.0670   56.6920 C   0  0  0  0  0  0  0  0  0  0  0  0
  125.0600  123.7270   57.9190 C   0  0  0  0  0  0  0  0  0  0  0  0
  132.0030  123.2030   60.4600 C   0  0  0  0  0  0  0  0  0  0  0  0
  132.7780  122.3190   61.3350 C   0  0  0  0  0  0  0  0  0  0  0  0
  133.3910  121.6220   62.0250 N   0  0  0  0  0  0  0  0  0  0  0  0
  1  2  1  0
  2  3  2  0
  3  4  1  0
  4  5  1  0
  5  6  2  0
  6  7  1  0
  7  8  2  0
  8  9  1  0
  9 10  2  0
  4 11  2  0
 11 12  1  0
 12 13  1  0
 13 14  1  0
 14 15  1  0
 15 16  2  0
 15 17  1  0
 17 18  1  0
 18 19  1  0
 19 20  2  0
 20 21  1  0
 21 22  2  0
 22 23  1  0
 23 24  2  0
 12 25  2  0
 25 26  1  0
 26 27  3  0
 25  2  1  0
 10  5  1  0
 24 19  1  0
M  END
>  <Binding energies>  (21) 
[-7.49]

>  <Ligand effiencies>  (21) 
[-0.2675]

>  <Interactions>  (21) 
["V-A:ASP:366:CG:3213, V-A:ASP:366:CB:3212, V-B:TYR:539:CZ:9849, V-B:PRO:540:N:9856, V-B:TYR:539:CE1:9847, V-B:PRO:540:CB:9857, V-B:TYR:539:CD1:9845, V-B:PRO:540:CA:9855, V-B:TYR:539:CE2:9848, V-B:PRO:540:CD:9859, V-B:MET:535:CE:9807, V-B:LEU:363:CD1:8160, V-B:TYR:539:C:9839, V-B:TYR:539:CG:9844, H-B:ALA:541:N:9863, V-B:TYR:539:CD2:9846, V-B:ALA:541:CB:9864, V-A:ASP:366:CA:3210, V-A:ILE:369:CD1:3239, V-A:ILE:369:CB:3236, V-A:ILE:369:CG2:3237, V-A:LEU:475:CD2:4259, V-B:GLU:543:CD:9880, V-B:ILE:538:CG2:9835, V-B:TYR:539:CA:9841"]

$$$$
3ca_Grossjean_2025
     RDKit          3D

 31 33  0  0  0  0  0  0  0  0999 V2000
  127.4570  131.7820   56.6000 C   0  0  0  0  0  0  0  0  0  0  0  0
  128.3280  132.8850   55.9920 C   0  0  0  0  0  0  0  0  0  0  0  0
  129.1150  133.4840   57.0140 O   0  0  0  0  0  0  0  0  0  0  0  0
  130.4000  133.1010   57.2240 C   0  0  0  0  0  0  0  0  0  0  0  0
  131.3640  133.5970   56.6310 O   0  0  0  0  0  0  0  0  0  0  0  0
  130.5360  132.0180   58.2560 C   0  0  0  0  0  0  0  0  0  0  0  0
  130.9580  130.7430   57.8580 C   0  0  0  0  0  0  0  0  0  0  0  0
  131.0940  129.7190   58.7910 C   0  0  0  0  0  0  0  0  0  0  0  0
  130.8030  129.9450   60.1370 C   0  0  0  0  0  0  0  0  0  0  0  0
  130.9740  128.8410   60.9950 N   0  0  0  0  0  0  0  0  0  0  0  0
  130.9360  127.5200   60.7180 C   0  0  0  0  0  0  0  0  0  0  0  0
  130.7540  127.0310   59.6040 O   0  0  0  0  0  0  0  0  0  0  0  0
  131.1650  126.5930   61.9170 C   0  0  0  0  0  0  0  0  0  0  0  0
  129.6190  125.9150   62.6050 S   0  0  0  0  0  0  0  0  0  0  0  0
  129.1130  124.4810   61.6640 C   0  0  0  0  0  0  0  0  0  0  0  0
  129.6790  123.3050   62.0340 N   0  0  0  0  0  0  0  0  0  0  0  0
  129.3280  122.1770   61.3790 C   0  0  0  0  0  0  0  0  0  0  0  0
  129.9900  120.9020   61.8630 C   0  0  0  0  0  0  0  0  0  0  0  0
  128.4160  122.1750   60.3270 C   0  0  0  0  0  0  0  0  0  0  0  0
  127.8310  123.3790   59.9140 C   0  0  0  0  0  0  0  0  0  0  0  0
  126.8690  123.3290   58.7720 C   0  0  0  0  0  0  0  0  0  0  0  0
  127.2510  122.7510   57.5560 C   0  0  0  0  0  0  0  0  0  0  0  0
  126.3640  122.7090   56.4830 C   0  0  0  0  0  0  0  0  0  0  0  0
  125.0890  123.2510   56.6220 C   0  0  0  0  0  0  0  0  0  0  0  0
  124.6950  123.8360   57.8230 C   0  0  0  0  0  0  0  0  0  0  0  0
  125.5850  123.8770   58.8930 C   0  0  0  0  0  0  0  0  0  0  0  0
  128.1780  124.5680   60.6040 C   0  0  0  0  0  0  0  0  0  0  0  0
  127.5600  125.8500   60.2510 C   0  0  0  0  0  0  0  0  0  0  0  0
  127.0710  126.8610   59.9710 N   0  0  0  0  0  0  0  0  0  0  0  0
  130.3870  131.2210   60.5460 C   0  0  0  0  0  0  0  0  0  0  0  0
  130.2540  132.2450   59.6110 C   0  0  0  0  0  0  0  0  0  0  0  0
  1  2  1  0
  2  3  1  0
  3  4  1  0
  4  5  2  0
  4  6  1  0
  6  7  2  0
  7  8  1  0
  8  9  2  0
  9 10  1  0
 10 11  1  0
 11 12  2  0
 11 13  1  0
 13 14  1  0
 14 15  1  0
 15 16  2  0
 16 17  1  0
 17 18  1  0
 17 19  2  0
 19 20  1  0
 20 21  1  0
 21 22  2  0
 22 23  1  0
 23 24  2  0
 24 25  1  0
 25 26  2  0
 20 27  2  0
 27 28  1  0
 28 29  3  0
  9 30  1  0
 30 31  2  0
 31  6  1  0
 27 15  1  0
 26 21  1  0
M  END
>  <Binding energies>  (22) 
[-8.46]

>  <Ligand effiencies>  (22) 
[-0.264375]

>  <Interactions>  (22) 
["V-A:ASP:366:CG:3213, V-A:PRO:540:CA:4883, V-A:PRO:540:CB:4885, V-A:PRO:540:CD:4887, H-A:ASP:366:OD2:3215, V-A:PRO:540:N:4884, V-A:TYR:539:C:4867, H-A:TYR:539:N:4870, V-B:PRO:540:N:9856, V-B:PRO:540:CB:9857, V-B:PRO:540:CA:9855, V-B:TYR:539:CE2:9848, V-B:PRO:540:CD:9859, V-B:MET:535:CE:9807, V-B:LEU:363:CD1:8160, V-B:TYR:539:C:9839, V-B:PRO:540:C:9853, V-B:TYR:539:CD2:9846, V-A:MET:535:CE:4835, V-B:ALA:541:CB:9864, V-A:LEU:475:CD2:4259, H-A:GLU:543:OE1:4909, V-A:TYR:539:CE1:4875, V-A:TYR:539:CZ:4877, V-A:TYR:539:CD1:4873, V-A:TYR:539:CD2:4874, V-A:ILE:538:CA:4860, V-A:TYR:539:CG:4872, V-A:TYR:539:CE2:4876"]

$$$$
3ce_Grossjean_2025
     RDKit          3D

 27 29  0  0  0  0  0  0  0  0999 V2000
  134.7270  124.9670   66.7220 C   0  0  0  0  0  0  0  0  0  0  0  0
  133.4670  125.0770   65.8840 C   0  0  0  0  0  0  0  0  0  0  0  0
  132.2300  125.3790   66.4600 C   0  0  0  0  0  0  0  0  0  0  0  0
  131.1160  125.4750   65.6260 C   0  0  0  0  0  0  0  0  0  0  0  0
  131.2620  125.2670   64.2520 C   0  0  0  0  0  0  0  0  0  0  0  0
  132.5270  124.9580   63.7430 C   0  0  0  0  0  0  0  0  0  0  0  0
  132.6180  124.7790   62.3520 N   0  0  0  0  0  0  0  0  0  0  0  0
  133.7250  124.5610   61.6070 C   0  0  0  0  0  0  0  0  0  0  0  0
  134.8700  124.4750   62.0530 O   0  0  0  0  0  0  0  0  0  0  0  0
  133.4930  124.4050   60.1050 C   0  0  0  0  0  0  0  0  0  0  0  0
  132.0390  125.3380   59.5420 S   0  0  0  0  0  0  0  0  0  0  0  0
  130.6590  124.2300   59.7100 C   0  0  0  0  0  0  0  0  0  0  0  0
  130.7640  123.3740   60.7550 N   0  0  0  0  0  0  0  0  0  0  0  0
  129.7550  122.5000   60.9790 C   0  0  0  0  0  0  0  0  0  0  0  0
  129.9310  121.5810   62.1730 C   0  0  0  0  0  0  0  0  0  0  0  0
  128.6240  122.4380   60.1700 C   0  0  0  0  0  0  0  0  0  0  0  0
  128.5090  123.2960   59.0690 C   0  0  0  0  0  0  0  0  0  0  0  0
  127.2890  123.1740   58.2160 C   0  0  0  0  0  0  0  0  0  0  0  0
  127.3390  122.4550   57.0160 C   0  0  0  0  0  0  0  0  0  0  0  0
  126.2070  122.3420   56.2130 C   0  0  0  0  0  0  0  0  0  0  0  0
  125.0200  122.9560   56.6030 C   0  0  0  0  0  0  0  0  0  0  0  0
  124.9570  123.6840   57.7890 C   0  0  0  0  0  0  0  0  0  0  0  0
  126.0890  123.7940   58.5900 C   0  0  0  0  0  0  0  0  0  0  0  0
  129.5520  124.2260   58.8280 C   0  0  0  0  0  0  0  0  0  0  0  0
  129.4810  125.1600   57.7000 C   0  0  0  0  0  0  0  0  0  0  0  0
  129.4230  125.8970   56.8090 N   0  0  0  0  0  0  0  0  0  0  0  0
  133.6240  124.8710   64.5520 N   0  0  0  0  0  0  0  0  0  0  0  0
  1  2  1  0
  2  3  2  0
  3  4  1  0
  4  5  2  0
  5  6  1  0
  6  7  1  0
  7  8  1  0
  8  9  2  0
  8 10  1  0
 10 11  1  0
 11 12  1  0
 12 13  2  0
 13 14  1  0
 14 15  1  0
 14 16  2  0
 16 17  1  0
 17 18  1  0
 18 19  2  0
 19 20  1  0
 20 21  2  0
 21 22  1  0
 22 23  2  0
 17 24  2  0
 24 25  1  0
 25 26  3  0
  6 27  2  0
 27  2  1  0
 24 12  1  0
 23 18  1  0
M  END
>  <Binding energies>  (23) 
[-7.94]

>  <Ligand effiencies>  (23) 
[-0.2835714285714286]

>  <Interactions>  (23) 
["V-A:ASP:366:CG:3213, H-A:TYR:531:OH:4795, H-B:TYR:539:OH:9850, V-A:ASP:366:CB:3212, V-B:TYR:539:CZ:9849, V-B:PRO:540:N:9856, V-B:TYR:539:CE1:9847, V-B:PRO:540:CB:9857, V-B:TYR:539:CD1:9845, V-B:PRO:540:CA:9855, V-B:TYR:539:CE2:9848, V-B:PRO:540:CD:9859, V-B:MET:535:CE:9807, V-B:LEU:363:CD1:8160, V-B:TYR:539:C:9839, V-B:TYR:539:CG:9844, V-B:TYR:539:CD2:9846, V-B:ALA:541:CB:9864, V-A:ASP:366:CA:3210, V-A:LEU:475:CD2:4259, V-A:TYR:484:CZ:4347, V-A:GLY:453:CA:4044, H-A:TYR:484:OH:4348, V-A:GLU:543:CD:4908, H-A:ARG:545:NE:4924, V-A:GLY:454:CA:4049, V-A:ARG:545:CZ:4926, V-A:HIS:456:CE1:4070, V-A:ARG:545:CG:4922, H-A:ARG:545:NH2:4928, H-A:GLY:454:N:4050, V-A:GLY:453:C:4042, V-B:ILE:538:CG2:9835, V-B:TYR:539:CA:9841, V-A:ARG:545:CD:4923, V-A:GLY:454:C:4047, V-A:ILE:455:C:4052"]

$$$$
3cj_Grossjean_2025
     RDKit          3D

 25 27  0  0  0  0  0  0  0  0999 V2000
  131.9410  126.4730   58.1530 C   0  0  0  0  0  0  0  0  0  0  0  0
  131.1600  125.3380   58.7860 C   0  0  0  0  0  0  0  0  0  0  0  0
  129.8970  124.9750   58.3220 C   0  0  0  0  0  0  0  0  0  0  0  0
  129.2200  123.9040   58.9210 C   0  0  0  0  0  0  0  0  0  0  0  0
  127.8990  123.5090   58.3500 C   0  0  0  0  0  0  0  0  0  0  0  0
  127.8310  122.7500   57.1760 C   0  0  0  0  0  0  0  0  0  0  0  0
  126.5970  122.3930   56.6370 C   0  0  0  0  0  0  0  0  0  0  0  0
  125.4260  122.8010   57.2680 C   0  0  0  0  0  0  0  0  0  0  0  0
  125.4780  123.5650   58.4310 C   0  0  0  0  0  0  0  0  0  0  0  0
  126.7130  123.9200   58.9690 C   0  0  0  0  0  0  0  0  0  0  0  0
  129.8370  123.2420   60.0120 C   0  0  0  0  0  0  0  0  0  0  0  0
  129.1670  122.1340   60.6990 C   0  0  0  0  0  0  0  0  0  0  0  0
  128.6380  121.2580   61.2410 N   0  0  0  0  0  0  0  0  0  0  0  0
  131.1210  123.6740   60.4130 C   0  0  0  0  0  0  0  0  0  0  0  0
  132.0630  122.8460   61.6770 S   0  0  0  0  0  0  0  0  0  0  0  0
  133.3240  121.8940   60.7720 C   0  0  0  0  0  0  0  0  0  0  0  0
  132.7880  120.5360   60.3070 C   0  0  0  0  0  0  0  0  0  0  0  0
  133.4960  119.8130   59.6020 O   0  0  0  0  0  0  0  0  0  0  0  0
  131.5550  120.2160   60.7560 N   0  0  0  0  0  0  0  0  0  0  0  0
  130.9050  119.0030   60.5930 C   0  0  0  0  0  0  0  0  0  0  0  0
  130.9970  118.1660   59.5830 N   0  0  0  0  0  0  0  0  0  0  0  0
  130.2590  117.0910   59.7780 C   0  0  0  0  0  0  0  0  0  0  0  0
  129.5430  117.0420   60.9700 C   0  0  0  0  0  0  0  0  0  0  0  0
  129.8600  118.4890   61.8800 S   0  0  0  0  0  0  0  0  0  0  0  0
  131.7740  124.6960   59.8040 N   0  0  0  0  0  0  0  0  0  0  0  0
  1  2  1  0
  2  3  2  0
  3  4  1  0
  4  5  1  0
  5  6  2  0
  6  7  1  0
  7  8  2  0
  8  9  1  0
  9 10  2  0
  4 11  2  0
 11 12  1  0
 12 13  3  0
 11 14  1  0
 14 15  1  0
 15 16  1  0
 16 17  1  0
 17 18  2  0
 17 19  1  0
 19 20  1  0
 20 21  2  0
 21 22  1  0
 22 23  2  0
 23 24  1  0
 14 25  2  0
 25  2  1  0
 10  5  1  0
 24 20  1  0
M  END
>  <Binding energies>  (24) 
[-7.61]

>  <Ligand effiencies>  (24) 
[-0.2926923076923077]

>  <Interactions>  (24) 
["V-A:ASP:366:CG:3213, V-A:ASP:366:CB:3212, V-B:TYR:539:CZ:9849, V-B:PRO:540:N:9856, V-B:TYR:539:CE1:9847, V-B:PRO:540:CB:9857, V-B:TYR:539:CD1:9845, V-B:PRO:540:CA:9855, V-B:TYR:539:CE2:9848, V-B:PRO:540:CD:9859, V-B:LEU:363:CD1:8160, V-B:PRO:540:CG:9858, V-B:TYR:539:C:9839, V-B:TYR:539:CG:9844, H-B:ALA:541:N:9863, V-B:TYR:539:CD2:9846, V-B:ALA:541:CB:9864, V-A:ILE:369:CG2:3237, V-A:LEU:475:CD2:4259, V-B:TYR:539:CA:9841, V-B:TYR:539:CB:9843, H-A:SER:385:OG:3410, V-A:HIS:383:NE2:3394, V-A:LEU:475:CG:4257, V-A:HIS:383:CE1:3393, V-A:LEU:475:CD1:4258, V-A:PRO:482:CB:4326, V-A:PRO:482:CG:4327, H-A:HIS:383:HE2:3395, V-A:SER:385:CB:3409, V-B:VAL:344:CG1:7972"]

$$$$
4ba_Grossjean_2025
     RDKit          3D

 28 30  0  0  0  0  0  0  0  0999 V2000
  124.9940  124.4680   57.0040 C   0  0  0  0  0  0  0  0  0  0  0  0
  125.3740  122.9800   56.8890 C   0  0  0  0  0  0  0  0  0  0  0  0
  126.8070  122.6330   57.3450 C   0  0  0  0  0  0  0  0  0  0  0  0
  127.5120  121.9120   56.6360 O   0  0  0  0  0  0  0  0  0  0  0  0
  127.2810  123.2050   58.6490 C   0  0  0  0  0  0  0  0  0  0  0  0
  126.3450  123.5230   59.6410 C   0  0  0  0  0  0  0  0  0  0  0  0
  126.7570  124.0560   60.8590 C   0  0  0  0  0  0  0  0  0  0  0  0
  128.1110  124.2780   61.1130 C   0  0  0  0  0  0  0  0  0  0  0  0
  128.4160  124.8280   62.3730 N   0  0  0  0  0  0  0  0  0  0  0  0
  129.5900  124.8610   63.0490 C   0  0  0  0  0  0  0  0  0  0  0  0
  130.6330  124.3400   62.6500 O   0  0  0  0  0  0  0  0  0  0  0  0
  129.5490  125.5530   64.3390 C   0  0  0  0  0  0  0  0  0  0  0  0
  130.1960  124.7760   65.7820 S   0  0  0  0  0  0  0  0  0  0  0  0
  129.7370  126.1360   66.7780 C   0  0  0  0  0  0  0  0  0  0  0  0
  129.9770  126.1510   68.0880 N   0  0  0  0  0  0  0  0  0  0  0  0
  129.5750  127.2570   68.7540 C   0  0  0  0  0  0  0  0  0  0  0  0
  129.8500  127.2490   70.2470 C   0  0  0  0  0  0  0  0  0  0  0  0
  128.9480  128.3420   68.1460 C   0  0  0  0  0  0  0  0  0  0  0  0
  128.6920  128.3330   66.7650 C   0  0  0  0  0  0  0  0  0  0  0  0
  128.0030  129.5500   66.1410 C   0  0  0  0  0  0  0  0  0  0  0  0
  128.4580  129.8390   64.9200 F   0  0  0  0  0  0  0  0  0  0  0  0
  126.6930  129.3240   66.0350 F   0  0  0  0  0  0  0  0  0  0  0  0
  128.2030  130.6240   66.9060 F   0  0  0  0  0  0  0  0  0  0  0  0
  129.0990  127.1770   66.0350 C   0  0  0  0  0  0  0  0  0  0  0  0
  128.9980  126.8090   64.6430 C   0  0  0  0  0  0  0  0  0  0  0  0
  128.4160  127.6210   63.7040 N   0  0  0  0  0  0  0  0  0  0  0  0
  129.0550  123.9690   60.1220 C   0  0  0  0  0  0  0  0  0  0  0  0
  128.6410  123.4360   58.9030 C   0  0  0  0  0  0  0  0  0  0  0  0
  1  2  1  0
  2  3  1  0
  3  4  2  0
  3  5  1  0
  5  6  2  0
  6  7  1  0
  7  8  2  0
  8  9  1  0
  9 10  1  0
 10 11  2  0
 10 12  1  0
 12 13  1  0
 13 14  1  0
 14 15  2  0
 15 16  1  0
 16 17  1  0
 16 18  2  0
 18 19  1  0
 19 20  1  0
 20 21  1  0
 20 22  1  0
 20 23  1  0
 19 24  2  0
 24 25  1  0
 25 26  1  0
  8 27  1  0
 27 28  2  0
 28  5  1  0
 25 12  2  0
 24 14  1  0
M  END
>  <Binding energies>  (25) 
[-6.99]

>  <Ligand effiencies>  (25) 
[-0.22548387096774195]

>  <Interactions>  (25) 
["V-B:TYR:539:CZ:9849, V-B:PRO:540:N:9856, V-B:PRO:540:CB:9857, V-B:PRO:540:CA:9855, V-B:TYR:539:CE2:9848, H-B:TYR:539:N:9842, V-B:PRO:540:CD:9859, V-B:MET:535:CE:9807, V-B:LEU:363:CD1:8160, V-B:TYR:539:C:9839, H-B:GLU:543:OE1:9881, V-B:TYR:531:CZ:9766, V-B:TYR:539:CD2:9846, V-B:TYR:531:CE2:9765, V-B:GLU:543:CG:9879, V-B:GLU:543:CB:9878, V-A:GLU:543:CD:4908, V-A:TYR:484:CE2:4346, V-B:GLU:543:CD:9880, V-B:HIS:456:CE1:9041, V-A:HIS:456:CE1:4070, V-A:GLU:543:CG:4907, V-A:GLU:543:CB:4906, H-A:GLU:543:OE1:4909, V-B:TYR:484:CZ:9318, V-A:GLU:543:CA:4904, H-B:GLU:543:OE2:9882, V-B:TYR:484:CE2:9317"]

$$$$
4bb_Grossjean_2025
     RDKit          3D

 27 29  0  0  0  0  0  0  0  0999 V2000
  125.0150  122.7310   56.7170 C   0  0  0  0  0  0  0  0  0  0  0  0
  126.4930  122.5550   57.0750 C   0  0  0  0  0  0  0  0  0  0  0  0
  127.2190  121.9670   56.2710 O   0  0  0  0  0  0  0  0  0  0  0  0
  126.9760  123.0960   58.3870 C   0  0  0  0  0  0  0  0  0  0  0  0
  126.1950  124.0350   59.0730 C   0  0  0  0  0  0  0  0  0  0  0  0
  126.6200  124.5530   60.2920 C   0  0  0  0  0  0  0  0  0  0  0  0
  127.8290  124.1380   60.8540 C   0  0  0  0  0  0  0  0  0  0  0  0
  128.1650  124.7290   62.0880 N   0  0  0  0  0  0  0  0  0  0  0  0
  129.3730  124.8710   62.6860 C   0  0  0  0  0  0  0  0  0  0  0  0
  130.4300  124.4500   62.2180 O   0  0  0  0  0  0  0  0  0  0  0  0
  129.3500  125.5510   63.9840 C   0  0  0  0  0  0  0  0  0  0  0  0
  130.0210  124.7630   65.4110 S   0  0  0  0  0  0  0  0  0  0  0  0
  129.5820  126.1180   66.4240 C   0  0  0  0  0  0  0  0  0  0  0  0
  129.8520  126.1280   67.7280 N   0  0  0  0  0  0  0  0  0  0  0  0
  129.4640  127.2310   68.4070 C   0  0  0  0  0  0  0  0  0  0  0  0
  129.7820  127.2220   69.8910 C   0  0  0  0  0  0  0  0  0  0  0  0
  128.8180  128.3150   67.8190 C   0  0  0  0  0  0  0  0  0  0  0  0
  128.5310  128.3110   66.4460 C   0  0  0  0  0  0  0  0  0  0  0  0
  127.8190  129.5270   65.8430 C   0  0  0  0  0  0  0  0  0  0  0  0
  128.2670  129.8450   64.6260 F   0  0  0  0  0  0  0  0  0  0  0  0
  126.5130  129.2770   65.7360 F   0  0  0  0  0  0  0  0  0  0  0  0
  128.0000  130.5910   66.6250 F   0  0  0  0  0  0  0  0  0  0  0  0
  128.9270  127.1610   65.6980 C   0  0  0  0  0  0  0  0  0  0  0  0
  128.8050  126.8050   64.3070 C   0  0  0  0  0  0  0  0  0  0  0  0
  128.2140  127.6260   63.3820 N   0  0  0  0  0  0  0  0  0  0  0  0
  128.6210  123.2040   60.1690 C   0  0  0  0  0  0  0  0  0  0  0  0
  128.1940  122.6870   58.9480 C   0  0  0  0  0  0  0  0  0  0  0  0
  1  2  1  0
  2  3  2  0
  2  4  1  0
  4  5  2  0
  5  6  1  0
  6  7  2  0
  7  8  1  0
  8  9  1  0
  9 10  2  0
  9 11  1  0
 11 12  1  0
 12 13  1  0
 13 14  2  0
 14 15  1  0
 15 16  1  0
 15 17  2  0
 17 18  1  0
 18 19  1  0
 19 20  1  0
 19 21  1  0
 19 22  1  0
 18 23  2  0
 23 24  1  0
 24 25  1  0
  7 26  1  0
 26 27  2  0
 27  4  1  0
 24 11  2  0
 23 13  1  0
M  END
>  <Binding energies>  (26) 
[-6.91]

>  <Ligand effiencies>  (26) 
[-0.23033333333333333]

>  <Interactions>  (26) 
["V-B:PRO:540:N:9856, V-B:PRO:540:CB:9857, V-B:PRO:540:CA:9855, V-B:TYR:539:CE2:9848, H-B:TYR:539:N:9842, V-B:PRO:540:CD:9859, V-B:MET:535:CE:9807, V-B:LEU:363:CD1:8160, V-B:PRO:540:CG:9858, V-B:TYR:539:C:9839, H-B:GLU:543:OE1:9881, V-B:TYR:539:CD2:9846, V-B:GLU:543:CG:9879, V-B:GLU:543:CB:9878, V-A:GLU:543:CD:4908, V-B:GLU:543:CD:9880, V-B:HIS:456:CE1:9041, V-A:HIS:456:CE1:4070, V-A:GLU:543:CG:4907, V-A:GLU:543:CB:4906, H-A:GLU:543:OE1:4909, V-B:TYR:484:CZ:9318, V-A:GLU:543:CA:4904, H-B:GLU:543:OE2:9882, V-B:ILE:538:CG2:9835, V-B:TYR:484:CE2:9317"]

$$$$
4bd_Grossjean_2025
     RDKit          3D

 24 26  0  0  0  0  0  0  0  0999 V2000
  134.3460  124.2060   60.3560 C   0  0  0  0  0  0  0  0  0  0  0  0
  133.2350  123.9650   61.3620 C   0  0  0  0  0  0  0  0  0  0  0  0
  132.2190  123.0500   61.1050 C   0  0  0  0  0  0  0  0  0  0  0  0
  131.1970  122.8400   62.0440 C   0  0  0  0  0  0  0  0  0  0  0  0
  130.0970  121.8240   61.7150 C   0  0  0  0  0  0  0  0  0  0  0  0
  128.9280  122.3980   61.4190 F   0  0  0  0  0  0  0  0  0  0  0  0
  130.4590  121.0900   60.6640 F   0  0  0  0  0  0  0  0  0  0  0  0
  129.8940  121.0250   62.7620 F   0  0  0  0  0  0  0  0  0  0  0  0
  131.2540  123.5960   63.2520 C   0  0  0  0  0  0  0  0  0  0  0  0
  130.4060  123.6500   64.4180 C   0  0  0  0  0  0  0  0  0  0  0  0
  129.2830  122.8770   64.5510 N   0  0  0  0  0  0  0  0  0  0  0  0
  130.8350  124.5620   65.3980 C   0  0  0  0  0  0  0  0  0  0  0  0
  130.2090  124.8800   66.6850 C   0  0  0  0  0  0  0  0  0  0  0  0
  129.5300  124.0410   67.2770 O   0  0  0  0  0  0  0  0  0  0  0  0
  130.4480  126.1310   67.1540 N   0  0  0  0  0  0  0  0  0  0  0  0
  129.9680  126.7550   68.3200 C   0  0  0  0  0  0  0  0  0  0  0  0
  130.8600  127.6190   68.9620 C   0  0  0  0  0  0  0  0  0  0  0  0
  130.4760  128.2930   70.1180 C   0  0  0  0  0  0  0  0  0  0  0  0
  129.1940  128.1100   70.6300 C   0  0  0  0  0  0  0  0  0  0  0  0
  128.2920  127.2630   69.9920 C   0  0  0  0  0  0  0  0  0  0  0  0
  128.6720  126.5870   68.8350 C   0  0  0  0  0  0  0  0  0  0  0  0
  132.3140  125.3810   64.9030 S   0  0  0  0  0  0  0  0  0  0  0  0
  132.3490  124.5030   63.3910 C   0  0  0  0  0  0  0  0  0  0  0  0
  133.3170  124.6980   62.4970 N   0  0  0  0  0  0  0  0  0  0  0  0
  1  2  1  0
  2  3  2  0
  3  4  1  0
  4  5  1  0
  5  6  1  0
  5  7  1  0
  5  8  1  0
  4  9  2  0
  9 10  1  0
 10 11  1  0
 10 12  2  0
 12 13  1  0
 13 14  2  0
 13 15  1  0
 15 16  1  0
 16 17  2  0
 17 18  1  0
 18 19  2  0
 19 20  1  0
 20 21  2  0
 12 22  1  0
 22 23  1  0
 23 24  2  0
 24  2  1  0
 23  9  1  0
 21 16  1  0
M  END
>  <Binding energies>  (27) 
[-5.95]

>  <Ligand effiencies>  (27) 
[-0.22037037037037038]

>  <Interactions>  (27) 
["V-A:ASP:366:CG:3213, V-A:ASP:366:CB:3212, V-B:TYR:539:CE2:9848, V-B:TYR:539:CD2:9846, V-B:ALA:541:CB:9864, V-A:ASP:366:CA:3210, V-A:ILE:369:CD1:3239, V-B:GLU:543:CG:9879, V-A:ILE:369:CB:3236, V-A:ILE:369:CG2:3237, V-A:LEU:475:CD2:4259, V-A:TYR:484:CZ:4347, V-B:GLU:543:CB:9878, H-A:TYR:484:OH:4348, V-A:GLU:543:CD:4908, V-A:TYR:484:CE2:4346, V-A:ARG:545:CZ:4926, V-B:HIS:456:CE1:9041, V-A:GLY:544:C:4912, V-B:GLU:543:C:9874, V-B:HIS:456:CD2:9039, V-A:HIS:456:CE1:4070, V-A:GLU:543:C:4902, V-A:GLU:543:CB:4906, H-A:GLU:543:OE1:4909, H-A:GLU:543:OE2:4910, H-A:ARG:545:NH2:4928, V-A:LEU:475:CD1:4258"]

$$$$
4be_Grossjean_2025
     RDKit          3D

 25 27  0  0  0  0  0  0  0  0999 V2000
  127.3040  126.8710   70.7620 C   0  0  0  0  0  0  0  0  0  0  0  0
  128.6810  127.1700   70.1990 C   0  0  0  0  0  0  0  0  0  0  0  0
  129.5600  128.0430   70.8450 C   0  0  0  0  0  0  0  0  0  0  0  0
  130.8100  128.2730   70.2680 C   0  0  0  0  0  0  0  0  0  0  0  0
  131.1460  127.6330   69.0730 C   0  0  0  0  0  0  0  0  0  0  0  0
  130.2200  126.7660   68.4820 C   0  0  0  0  0  0  0  0  0  0  0  0
  130.6170  126.1590   67.2770 N   0  0  0  0  0  0  0  0  0  0  0  0
  130.2700  124.9450   66.7800 C   0  0  0  0  0  0  0  0  0  0  0  0
  129.5090  124.1620   67.3500 O   0  0  0  0  0  0  0  0  0  0  0  0
  130.8860  124.5910   65.4980 C   0  0  0  0  0  0  0  0  0  0  0  0
  132.3780  125.3790   64.9850 S   0  0  0  0  0  0  0  0  0  0  0  0
  132.3880  124.4820   63.4850 C   0  0  0  0  0  0  0  0  0  0  0  0
  133.3560  124.6460   62.5840 N   0  0  0  0  0  0  0  0  0  0  0  0
  133.2570  123.8950   61.4620 C   0  0  0  0  0  0  0  0  0  0  0  0
  134.3670  124.0990   60.4480 C   0  0  0  0  0  0  0  0  0  0  0  0
  132.2250  122.9920   61.2250 C   0  0  0  0  0  0  0  0  0  0  0  0
  131.2030  122.8130   62.1700 C   0  0  0  0  0  0  0  0  0  0  0  0
  130.0900  121.8050   61.8650 C   0  0  0  0  0  0  0  0  0  0  0  0
  129.8560  120.9650   62.8770 F   0  0  0  0  0  0  0  0  0  0  0  0
  128.9520  122.4510   61.6140 F   0  0  0  0  0  0  0  0  0  0  0  0
  130.4240  121.0710   60.8040 F   0  0  0  0  0  0  0  0  0  0  0  0
  131.2750  123.5940   63.3620 C   0  0  0  0  0  0  0  0  0  0  0  0
  130.4280  123.6870   64.5270 C   0  0  0  0  0  0  0  0  0  0  0  0
  129.2810  122.9500   64.6690 N   0  0  0  0  0  0  0  0  0  0  0  0
  128.9940  126.5400   69.0380 N   0  0  0  0  0  0  0  0  0  0  0  0
  1  2  1  0
  2  3  2  0
  3  4  1  0
  4  5  2  0
  5  6  1  0
  6  7  1  0
  7  8  1  0
  8  9  2  0
  8 10  1  0
 10 11  1  0
 11 12  1  0
 12 13  2  0
 13 14  1  0
 14 15  1  0
 14 16  2  0
 16 17  1  0
 17 18  1  0
 18 19  1  0
 18 20  1  0
 18 21  1  0
 17 22  2  0
 22 23  1  0
 23 24  1  0
  6 25  2  0
 25  2  1  0
 23 10  2  0
 22 12  1  0
M  END
>  <Binding energies>  (28) 
[-5.99]

>  <Ligand effiencies>  (28) 
[-0.21392857142857144]

>  <Interactions>  (28) 
["V-A:ASP:366:CG:3213, V-B:TYR:539:CE2:9848, V-B:TYR:539:CD2:9846, V-B:ALA:541:CB:9864, V-A:ASP:366:CA:3210, V-A:ILE:369:CD1:3239, V-B:GLU:543:CG:9879, V-A:ILE:369:CB:3236, V-A:ILE:369:CG2:3237, V-A:LEU:475:CD2:4259, V-A:TYR:484:CZ:4347, V-B:GLU:543:CB:9878, H-A:TYR:484:OH:4348, V-A:GLU:543:CD:4908, V-A:TYR:484:CE2:4346, V-A:ARG:545:CZ:4926, V-B:GLU:543:CD:9880, V-B:HIS:456:CE1:9041, V-A:GLY:544:C:4912, V-B:GLY:544:C:9884, V-B:GLU:543:C:9874, V-A:HIS:456:CE1:4070, V-A:GLU:543:C:4902, V-A:GLU:543:CB:4906, V-B:GLY:544:CA:9886, V-A:ARG:545:CG:4922, H-A:GLU:543:OE2:4910, H-A:ARG:545:NH2:4928, V-A:LEU:475:CG:4257, V-A:LEU:475:CD1:4258"]

$$$$
4bg_Grossjean_2025
     RDKit          3D

 25 27  0  0  0  0  0  0  0  0999 V2000
  130.2680  120.6570   61.0710 C   0  0  0  0  0  0  0  0  0  0  0  0
  130.6740  121.7700   62.0210 C   0  0  0  0  0  0  0  0  0  0  0  0
  131.7130  122.6400   61.7040 C   0  0  0  0  0  0  0  0  0  0  0  0
  132.0820  123.6620   62.5940 C   0  0  0  0  0  0  0  0  0  0  0  0
  133.2320  124.5950   62.2010 C   0  0  0  0  0  0  0  0  0  0  0  0
  133.8620  124.2090   61.0900 F   0  0  0  0  0  0  0  0  0  0  0  0
  132.7620  125.8240   61.9870 F   0  0  0  0  0  0  0  0  0  0  0  0
  134.1370  124.6330   63.1790 F   0  0  0  0  0  0  0  0  0  0  0  0
  131.3500  123.7590   63.8140 C   0  0  0  0  0  0  0  0  0  0  0  0
  131.4410  124.6490   64.9460 C   0  0  0  0  0  0  0  0  0  0  0  0
  132.3730  125.6530   65.0280 N   0  0  0  0  0  0  0  0  0  0  0  0
  130.4900  124.4010   65.9460 C   0  0  0  0  0  0  0  0  0  0  0  0
  130.3160  125.0830   67.2290 C   0  0  0  0  0  0  0  0  0  0  0  0
  129.8590  124.4970   68.2120 O   0  0  0  0  0  0  0  0  0  0  0  0
  130.7220  126.3690   67.2730 N   0  0  0  0  0  0  0  0  0  0  0  0
  130.6310  127.2480   68.4390 C   0  0  0  0  0  0  0  0  0  0  0  0
  129.3040  127.1440   69.1790 C   0  0  0  0  0  0  0  0  0  0  0  0
  128.1100  127.0100   68.4630 C   0  0  0  0  0  0  0  0  0  0  0  0
  126.9030  126.8770   69.1430 C   0  0  0  0  0  0  0  0  0  0  0  0
  126.8930  126.8640   70.5370 C   0  0  0  0  0  0  0  0  0  0  0  0
  128.0800  126.9810   71.2560 C   0  0  0  0  0  0  0  0  0  0  0  0
  129.2880  127.1150   70.5760 C   0  0  0  0  0  0  0  0  0  0  0  0
  129.4690  123.0250   65.5350 S   0  0  0  0  0  0  0  0  0  0  0  0
  130.3020  122.8080   64.0140 C   0  0  0  0  0  0  0  0  0  0  0  0
  129.9580  121.8380   63.1660 N   0  0  0  0  0  0  0  0  0  0  0  0
  1  2  1  0
  2  3  2  0
  3  4  1  0
  4  5  1  0
  5  6  1  0
  5  7  1  0
  5  8  1  0
  4  9  2  0
  9 10  1  0
 10 11  1  0
 10 12  2  0
 12 13  1  0
 13 14  2  0
 13 15  1  0
 15 16  1  0
 16 17  1  0
 17 18  2  0
 18 19  1  0
 19 20  2  0
 20 21  1  0
 21 22  2  0
 12 23  1  0
 23 24  1  0
 24 25  2  0
 25  2  1  0
 24  9  1  0
 22 17  1  0
M  END
>  <Binding energies>  (29) 
[-6.11]

>  <Ligand effiencies>  (29) 
[-0.21821428571428572]

>  <Interactions>  (29) 
["V-A:ASP:366:CG:3213, V-B:TYR:539:CE2:9848, V-B:TYR:539:CD2:9846, V-A:ILE:369:CD1:3239, V-B:GLU:543:CG:9879, V-A:LEU:475:CD2:4259, V-A:TYR:484:CZ:4347, V-A:GLY:453:CA:4044, V-B:GLU:543:CB:9878, H-A:TYR:484:OH:4348, V-A:GLU:543:CD:4908, V-A:TYR:484:CE2:4346, V-A:ARG:545:CZ:4926, V-B:HIS:456:CE1:9041, V-B:GLY:544:C:9884, V-B:GLU:543:C:9874, V-A:HIS:456:CE1:4070, V-A:GLU:543:CB:4906, V-B:GLY:544:CA:9886, H-A:GLU:543:OE1:4909, H-A:GLU:543:OE2:4910, V-B:GLU:543:CA:9876, V-A:GLY:453:C:4042"]

$$$$
4ca_Grossjean_2025
     RDKit          3D

 34 37  0  0  0  0  0  0  0  0999 V2000
  131.4790  131.8850   55.6520 C   0  0  0  0  0  0  0  0  0  0  0  0
  131.7080  132.6830   56.9390 C   0  0  0  0  0  0  0  0  0  0  0  0
  130.6500  133.6160   57.1120 O   0  0  0  0  0  0  0  0  0  0  0  0
  129.3860  133.2010   57.3870 C   0  0  0  0  0  0  0  0  0  0  0  0
  128.4330  133.3680   56.6190 O   0  0  0  0  0  0  0  0  0  0  0  0
  129.2640  132.5160   58.7170 C   0  0  0  0  0  0  0  0  0  0  0  0
  129.5190  131.1410   58.8040 C   0  0  0  0  0  0  0  0  0  0  0  0
  129.4190  130.4790   60.0250 C   0  0  0  0  0  0  0  0  0  0  0  0
  129.0540  131.1720   61.1780 C   0  0  0  0  0  0  0  0  0  0  0  0
  128.9910  130.4060   62.3590 N   0  0  0  0  0  0  0  0  0  0  0  0
  127.9340  129.7960   62.9480 C   0  0  0  0  0  0  0  0  0  0  0  0
  126.7950  129.7800   62.4790 O   0  0  0  0  0  0  0  0  0  0  0  0
  128.2290  129.1130   64.2090 C   0  0  0  0  0  0  0  0  0  0  0  0
  127.8670  129.8950   65.7460 S   0  0  0  0  0  0  0  0  0  0  0  0
  128.4320  128.5030   66.6390 C   0  0  0  0  0  0  0  0  0  0  0  0
  128.4090  128.4770   67.9690 N   0  0  0  0  0  0  0  0  0  0  0  0
  128.8550  127.3460   68.5760 C   0  0  0  0  0  0  0  0  0  0  0  0
  128.8070  127.3430   70.0770 C   0  0  0  0  0  0  0  0  0  0  0  0
  129.9020  127.7930   70.8320 C   0  0  0  0  0  0  0  0  0  0  0  0
  129.8660  127.7880   72.2240 C   0  0  0  0  0  0  0  0  0  0  0  0
  128.7310  127.3290   72.8830 C   0  0  0  0  0  0  0  0  0  0  0  0
  127.6330  126.8760   72.1600 C   0  0  0  0  0  0  0  0  0  0  0  0
  127.6730  126.8830   70.7680 C   0  0  0  0  0  0  0  0  0  0  0  0
  129.3420  126.2580   67.8440 C   0  0  0  0  0  0  0  0  0  0  0  0
  129.3740  126.2780   66.4420 C   0  0  0  0  0  0  0  0  0  0  0  0
  129.9180  125.0490   65.7030 C   0  0  0  0  0  0  0  0  0  0  0  0
  129.2240  124.7510   64.6030 F   0  0  0  0  0  0  0  0  0  0  0  0
  131.1790  125.2660   65.3330 F   0  0  0  0  0  0  0  0  0  0  0  0
  129.8710  123.9840   66.5030 F   0  0  0  0  0  0  0  0  0  0  0  0
  128.8930  127.4520   65.7950 C   0  0  0  0  0  0  0  0  0  0  0  0
  128.7630  127.8280   64.4080 C   0  0  0  0  0  0  0  0  0  0  0  0
  129.1310  127.0010   63.3780 N   0  0  0  0  0  0  0  0  0  0  0  0
  128.8010  132.5500   61.1020 C   0  0  0  0  0  0  0  0  0  0  0  0
  128.9050  133.2120   59.8810 C   0  0  0  0  0  0  0  0  0  0  0  0
  1  2  1  0
  2  3  1  0
  3  4  1  0
  4  5  2  0
  4  6  1  0
  6  7  2  0
  7  8  1  0
  8  9  2  0
  9 10  1  0
 10 11  1  0
 11 12  2  0
 11 13  1  0
 13 14  1  0
 14 15  1  0
 15 16  2  0
 16 17  1  0
 17 18  1  0
 18 19  2  0
 19 20  1  0
 20 21  2  0
 21 22  1  0
 22 23  2  0
 17 24  2  0
 24 25  1  0
 25 26  1  0
 26 27  1  0
 26 28  1  0
 26 29  1  0
 25 30  2  0
 30 31  1  0
 31 32  1  0
  9 33  1  0
 33 34  2  0
 34  6  1  0
 31 13  2  0
 30 15  1  0
 23 18  1  0
M  END
>  <Binding energies>  (30) 
[-8.5]

>  <Ligand effiencies>  (30) 
[-0.22972972972972974]

>  <Interactions>  (30) 
["V-A:LEU:363:CD1:3189, V-A:PRO:540:CA:4883, V-A:PRO:540:CB:4885, V-A:PRO:540:CD:4887, V-A:PRO:540:N:4884, V-A:TYR:539:C:4867, H-A:TYR:539:N:4870, H-B:GLU:543:OE1:9881, V-A:MET:535:CE:4835, V-B:GLU:543:CG:9879, V-A:TYR:484:CZ:4347, V-B:GLU:543:CB:9878, V-A:GLU:543:CD:4908, V-A:TYR:484:CE2:4346, V-B:GLU:543:CD:9880, V-B:HIS:456:CE1:9041, V-B:GLY:544:C:9884, V-B:GLU:543:C:9874, V-B:LYS:547:CE:9922, V-A:HIS:456:CE1:4070, V-A:GLU:543:CG:4907, V-A:GLU:543:CB:4906, V-B:GLY:544:CA:9886, H-A:GLU:543:OE1:4909, H-A:GLU:543:OE2:4910, V-B:TYR:484:CZ:9318, H-B:GLU:543:OE2:9882, V-B:GLU:543:CA:9876, V-A:TYR:539:CD1:4873, V-A:TYR:539:CG:4872, V-A:TYR:539:CA:4869, V-A:TYR:531:CE2:4793, V-B:TYR:484:CE2:9317, V-A:ILE:538:CG2:4863, V-A:ILE:538:CB:4862"]

$$$$
4cb_Grossjean_2025
     RDKit          3D

 33 36  0  0  0  0  0  0  0  0999 V2000
  131.6840  132.6320   56.2850 C   0  0  0  0  0  0  0  0  0  0  0  0
  130.9210  133.4970   57.1160 O   0  0  0  0  0  0  0  0  0  0  0  0
  129.6100  133.2500   57.3650 C   0  0  0  0  0  0  0  0  0  0  0  0
  128.6950  133.6100   56.6180 O   0  0  0  0  0  0  0  0  0  0  0  0
  129.3810  132.4920   58.6420 C   0  0  0  0  0  0  0  0  0  0  0  0
  130.4310  131.7440   59.1910 C   0  0  0  0  0  0  0  0  0  0  0  0
  130.2530  131.0380   60.3770 C   0  0  0  0  0  0  0  0  0  0  0  0
  129.0230  131.0580   61.0350 C   0  0  0  0  0  0  0  0  0  0  0  0
  128.9580  130.3210   62.2330 N   0  0  0  0  0  0  0  0  0  0  0  0
  127.8980  129.7370   62.8420 C   0  0  0  0  0  0  0  0  0  0  0  0
  126.7550  129.7250   62.3810 O   0  0  0  0  0  0  0  0  0  0  0  0
  128.1940  129.0790   64.1180 C   0  0  0  0  0  0  0  0  0  0  0  0
  127.8020  129.8780   65.6390 S   0  0  0  0  0  0  0  0  0  0  0  0
  128.3850  128.5110   66.5600 C   0  0  0  0  0  0  0  0  0  0  0  0
  128.3520  128.5040   67.8900 N   0  0  0  0  0  0  0  0  0  0  0  0
  128.8170  127.3920   68.5170 C   0  0  0  0  0  0  0  0  0  0  0  0
  128.7620  127.4120   70.0180 C   0  0  0  0  0  0  0  0  0  0  0  0
  127.6570  126.8800   70.7020 C   0  0  0  0  0  0  0  0  0  0  0  0
  127.5980  126.8980   72.0930 C   0  0  0  0  0  0  0  0  0  0  0  0
  128.6460  127.4500   72.8220 C   0  0  0  0  0  0  0  0  0  0  0  0
  129.7520  127.9870   72.1690 C   0  0  0  0  0  0  0  0  0  0  0  0
  129.8050  127.9680   70.7780 C   0  0  0  0  0  0  0  0  0  0  0  0
  129.3330  126.3040   67.8060 C   0  0  0  0  0  0  0  0  0  0  0  0
  129.3750  126.3030   66.4040 C   0  0  0  0  0  0  0  0  0  0  0  0
  129.9510  125.0750   65.6870 C   0  0  0  0  0  0  0  0  0  0  0  0
  129.9870  123.9870   66.4600 F   0  0  0  0  0  0  0  0  0  0  0  0
  129.2040  124.7830   64.6230 F   0  0  0  0  0  0  0  0  0  0  0  0
  131.1990  125.3260   65.2930 F   0  0  0  0  0  0  0  0  0  0  0  0
  128.8750  127.4570   65.7350 C   0  0  0  0  0  0  0  0  0  0  0  0
  128.7480  127.8080   64.3410 C   0  0  0  0  0  0  0  0  0  0  0  0
  129.1370  126.9700   63.3270 N   0  0  0  0  0  0  0  0  0  0  0  0
  127.9670  131.8070   60.4940 C   0  0  0  0  0  0  0  0  0  0  0  0
  128.1470  132.5140   59.3090 C   0  0  0  0  0  0  0  0  0  0  0  0
  1  2  1  0
  2  3  1  0
  3  4  2  0
  3  5  1  0
  5  6  2  0
  6  7  1  0
  7  8  2  0
  8  9  1  0
  9 10  1  0
 10 11  2  0
 10 12  1  0
 12 13  1  0
 13 14  1  0
 14 15  2  0
 15 16  1  0
 16 17  1  0
 17 18  2  0
 18 19  1  0
 19 20  2  0
 20 21  1  0
 21 22  2  0
 16 23  2  0
 23 24  1  0
 24 25  1  0
 25 26  1  0
 25 27  1  0
 25 28  1  0
 24 29  2  0
 29 30  1  0
 30 31  1  0
  8 32  1  0
 32 33  2  0
 33  5  1  0
 30 12  2  0
 29 14  1  0
 22 17  1  0
M  END
>  <Binding energies>  (31) 
[-8.27]

>  <Ligand effiencies>  (31) 
[-0.22972222222222222]

>  <Interactions>  (31) 
["V-A:LEU:363:CD1:3189, V-A:PRO:540:CA:4883, V-A:PRO:540:CB:4885, V-A:PRO:540:N:4884, V-A:TYR:539:C:4867, H-A:TYR:539:N:4870, H-B:GLU:543:OE1:9881, V-B:GLU:543:CG:9879, V-A:TYR:484:CZ:4347, V-B:GLU:543:CB:9878, V-A:GLU:543:CD:4908, V-A:TYR:484:CE2:4346, V-B:GLU:543:CD:9880, V-B:HIS:456:CE1:9041, V-B:GLY:544:C:9884, V-B:GLU:543:C:9874, V-B:HIS:456:CD2:9039, V-B:LYS:547:CE:9922, V-A:HIS:456:CE1:4070, V-A:GLU:543:CG:4907, V-A:GLU:543:CB:4906, V-B:GLY:544:CA:9886, H-A:GLU:543:OE1:4909, H-A:GLU:543:OE2:4910, V-B:TYR:484:CZ:9318, H-B:GLU:543:OE2:9882, V-A:TYR:539:CE1:4875, V-B:GLU:543:CA:9876, V-A:TYR:539:CD1:4873, V-A:TYR:539:CA:4869, V-A:ILE:538:CG2:4863, V-A:ILE:538:CB:4862"]

$$$$
4cc_Grossjean_2025
     RDKit          3D

 31 34  0  0  0  0  0  0  0  0999 V2000
  130.7960  132.8570   56.6060 C   0  0  0  0  0  0  0  0  0  0  0  0
  129.7860  133.3430   57.4840 O   0  0  0  0  0  0  0  0  0  0  0  0
  129.5200  132.6570   58.6530 C   0  0  0  0  0  0  0  0  0  0  0  0
  130.4890  131.7470   59.0740 C   0  0  0  0  0  0  0  0  0  0  0  0
  130.3100  131.0100   60.2420 C   0  0  0  0  0  0  0  0  0  0  0  0
  129.1490  131.1670   61.0010 C   0  0  0  0  0  0  0  0  0  0  0  0
  129.0630  130.3920   62.1720 N   0  0  0  0  0  0  0  0  0  0  0  0
  127.9770  129.8110   62.7380 C   0  0  0  0  0  0  0  0  0  0  0  0
  126.8450  129.8500   62.2540 O   0  0  0  0  0  0  0  0  0  0  0  0
  128.2260  129.1060   63.9990 C   0  0  0  0  0  0  0  0  0  0  0  0
  127.8350  129.8720   65.5370 S   0  0  0  0  0  0  0  0  0  0  0  0
  128.3860  128.4720   66.4260 C   0  0  0  0  0  0  0  0  0  0  0  0
  128.3430  128.4320   67.7560 N   0  0  0  0  0  0  0  0  0  0  0  0
  128.7840  127.2970   68.3580 C   0  0  0  0  0  0  0  0  0  0  0  0
  128.7250  127.2820   69.8580 C   0  0  0  0  0  0  0  0  0  0  0  0
  129.8460  127.6430   70.6240 C   0  0  0  0  0  0  0  0  0  0  0  0
  129.8000  127.6300   72.0150 C   0  0  0  0  0  0  0  0  0  0  0  0
  128.6290  127.2530   72.6630 C   0  0  0  0  0  0  0  0  0  0  0  0
  127.5050  126.8870   71.9290 C   0  0  0  0  0  0  0  0  0  0  0  0
  127.5560  126.9010   70.5380 C   0  0  0  0  0  0  0  0  0  0  0  0
  129.2810  126.2160   67.6240 C   0  0  0  0  0  0  0  0  0  0  0  0
  129.3330  126.2490   66.2210 C   0  0  0  0  0  0  0  0  0  0  0  0
  129.8850  125.0260   65.4790 C   0  0  0  0  0  0  0  0  0  0  0  0
  129.1680  124.6980   64.4010 F   0  0  0  0  0  0  0  0  0  0  0  0
  131.1300  125.2700   65.0700 F   0  0  0  0  0  0  0  0  0  0  0  0
  129.8890  123.9700   66.2920 F   0  0  0  0  0  0  0  0  0  0  0  0
  128.8650  127.4300   65.5780 C   0  0  0  0  0  0  0  0  0  0  0  0
  128.7650  127.8240   64.1940 C   0  0  0  0  0  0  0  0  0  0  0  0
  129.1600  127.0100   63.1620 N   0  0  0  0  0  0  0  0  0  0  0  0
  128.1750  132.0900   60.5900 C   0  0  0  0  0  0  0  0  0  0  0  0
  128.3590  132.8250   59.4230 C   0  0  0  0  0  0  0  0  0  0  0  0
  1  2  1  0
  2  3  1  0
  3  4  2  0
  4  5  1  0
  5  6  2  0
  6  7  1  0
  7  8  1  0
  8  9  2  0
  8 10  1  0
 10 11  1  0
 11 12  1  0
 12 13  2  0
 13 14  1  0
 14 15  1  0
 15 16  2  0
 16 17  1  0
 17 18  2  0
 18 19  1  0
 19 20  2  0
 14 21  2  0
 21 22  1  0
 22 23  1  0
 23 24  1  0
 23 25  1  0
 23 26  1  0
 22 27  2  0
 27 28  1  0
 28 29  1  0
  6 30  1  0
 30 31  2  0
 31  3  1  0
 28 10  2  0
 27 12  1  0
 20 15  1  0
M  END
>  <Binding energies>  (32) 
[-7.44]

>  <Ligand effiencies>  (32) 
[-0.21882352941176472]

>  <Interactions>  (32) 
["V-A:PRO:540:CA:4883, V-A:PRO:540:CB:4885, V-A:PRO:540:N:4884, V-A:TYR:539:C:4867, H-A:TYR:539:N:4870, H-B:GLU:543:OE1:9881, V-B:GLU:543:CG:9879, V-A:TYR:484:CZ:4347, V-B:GLU:543:CB:9878, V-A:GLU:543:CD:4908, V-A:TYR:484:CE2:4346, V-B:GLU:543:CD:9880, V-B:HIS:456:CE1:9041, V-B:GLY:544:C:9884, V-B:GLU:543:C:9874, V-B:HIS:456:CD2:9039, V-A:HIS:456:CE1:4070, V-A:GLU:543:CG:4907, V-A:GLU:543:CB:4906, V-B:GLY:544:CA:9886, H-A:GLU:543:OE1:4909, H-A:GLU:543:OE2:4910, V-B:TYR:484:CZ:9318, V-A:TYR:539:CE1:4875, V-B:GLU:543:CA:9876, V-A:TYR:539:CD1:4873, V-A:ILE:538:CA:4860, V-A:ILE:538:CG2:4863, V-A:ILE:538:CB:4862"]

$$$$
4ce_Grossjean_2025
     RDKit          3D

 30 33  0  0  0  0  0  0  0  0999 V2000
  131.5560  120.2310   60.7250 C   0  0  0  0  0  0  0  0  0  0  0  0
  132.3420  121.2650   61.5090 C   0  0  0  0  0  0  0  0  0  0  0  0
  133.7130  121.4460   61.3090 C   0  0  0  0  0  0  0  0  0  0  0  0
  134.3700  122.4220   62.0600 C   0  0  0  0  0  0  0  0  0  0  0  0
  133.6490  123.1850   62.9810 C   0  0  0  0  0  0  0  0  0  0  0  0
  132.2780  122.9470   63.1350 C   0  0  0  0  0  0  0  0  0  0  0  0
  131.6030  123.7640   64.0600 N   0  0  0  0  0  0  0  0  0  0  0  0
  130.4570  124.4700   63.8900 C   0  0  0  0  0  0  0  0  0  0  0  0
  129.8060  124.4780   62.8440 O   0  0  0  0  0  0  0  0  0  0  0  0
  130.0180  125.2460   65.0520 C   0  0  0  0  0  0  0  0  0  0  0  0
  130.3000  124.6390   66.6820 S   0  0  0  0  0  0  0  0  0  0  0  0
  129.5780  126.0660   67.3870 C   0  0  0  0  0  0  0  0  0  0  0  0
  129.4900  126.2190   68.7050 N   0  0  0  0  0  0  0  0  0  0  0  0
  128.9270  127.3690   69.1610 C   0  0  0  0  0  0  0  0  0  0  0  0
  128.8470  127.5140   70.6510 C   0  0  0  0  0  0  0  0  0  0  0  0
  129.9290  128.0350   71.3790 C   0  0  0  0  0  0  0  0  0  0  0  0
  129.8650  128.1650   72.7640 C   0  0  0  0  0  0  0  0  0  0  0  0
  128.7140  127.7780   73.4420 C   0  0  0  0  0  0  0  0  0  0  0  0
  127.6290  127.2580   72.7450 C   0  0  0  0  0  0  0  0  0  0  0  0
  127.6970  127.1270   71.3600 C   0  0  0  0  0  0  0  0  0  0  0  0
  128.4360  128.3480   68.2900 C   0  0  0  0  0  0  0  0  0  0  0  0
  128.5200  128.1930   66.8970 C   0  0  0  0  0  0  0  0  0  0  0  0
  127.9640  129.3050   66.0010 C   0  0  0  0  0  0  0  0  0  0  0  0
  128.5770  129.3800   64.8170 F   0  0  0  0  0  0  0  0  0  0  0  0
  126.6690  129.0910   65.7660 F   0  0  0  0  0  0  0  0  0  0  0  0
  128.1120  130.4850   66.6020 F   0  0  0  0  0  0  0  0  0  0  0  0
  129.1230  126.9980   66.4090 C   0  0  0  0  0  0  0  0  0  0  0  0
  129.3860  126.5010   65.0800 C   0  0  0  0  0  0  0  0  0  0  0  0
  129.0500  127.1970   63.9480 N   0  0  0  0  0  0  0  0  0  0  0  0
  131.6280  121.9980   62.4010 N   0  0  0  0  0  0  0  0  0  0  0  0
  1  2  1  0
  2  3  2  0
  3  4  1  0
  4  5  2  0
  5  6  1  0
  6  7  1  0
  7  8  1  0
  8  9  2  0
  8 10  1  0
 10 11  1  0
 11 12  1  0
 12 13  2  0
 13 14  1  0
 14 15  1  0
 15 16  2  0
 16 17  1  0
 17 18  2  0
 18 19  1  0
 19 20  2  0
 14 21  2  0
 21 22  1  0
 22 23  1  0
 23 24  1  0
 23 25  1  0
 23 26  1  0
 22 27  2  0
 27 28  1  0
 28 29  1  0
  6 30  2  0
 30  2  1  0
 28 10  2  0
 27 12  1  0
 20 15  1  0
M  END
>  <Binding energies>  (33) 
[-7.44]

>  <Ligand effiencies>  (33) 
[-0.22545454545454546]

>  <Interactions>  (33) 
["V-B:TYR:539:CE2:9848, H-B:GLU:543:OE1:9881, V-B:TYR:539:CD2:9846, V-A:ILE:369:CD1:3239, V-B:GLU:543:CG:9879, V-A:ILE:369:CG2:3237, V-A:LEU:475:CD2:4259, V-A:TYR:484:CZ:4347, V-B:GLU:543:CB:9878, H-A:TYR:484:OH:4348, V-A:GLU:543:CD:4908, V-A:TYR:484:CE2:4346, V-A:GLY:454:CA:4049, V-B:GLU:543:CD:9880, V-B:HIS:456:CE1:9041, V-B:GLY:544:C:9884, V-B:HIS:456:CD2:9039, V-B:LYS:547:CE:9922, V-A:HIS:456:CE1:4070, V-A:GLU:543:CG:4907, V-A:GLU:543:CB:4906, H-A:GLU:543:OE1:4909, H-A:GLU:543:OE2:4910, V-B:TYR:484:CZ:9318, V-A:GLU:543:CA:4904, H-B:GLU:543:OE2:9882, V-B:TYR:484:CE2:9317, V-A:SER:385:CB:3409"]

$$$$
4cf_Grossjean_2025
     RDKit          3D

 29 32  0  0  0  0  0  0  0  0999 V2000
  129.0100  127.2330   63.8750 N   0  0  0  0  0  0  0  0  0  0  0  0
  129.3790  126.5270   64.9910 C   0  0  0  0  0  0  0  0  0  0  0  0
  130.0310  125.2850   64.9350 C   0  0  0  0  0  0  0  0  0  0  0  0
  130.4040  124.5010   63.7540 C   0  0  0  0  0  0  0  0  0  0  0  0
  129.7380  124.5690   62.7200 O   0  0  0  0  0  0  0  0  0  0  0  0
  131.5120  123.7340   63.8920 N   0  0  0  0  0  0  0  0  0  0  0  0
  132.1030  122.8370   62.9820 C   0  0  0  0  0  0  0  0  0  0  0  0
  133.4850  122.6000   62.8490 C   0  0  0  0  0  0  0  0  0  0  0  0
  133.9410  121.6920   61.8920 C   0  0  0  0  0  0  0  0  0  0  0  0
  133.0050  121.0420   61.0880 C   0  0  0  0  0  0  0  0  0  0  0  0
  131.6690  121.2560   61.1900 N   0  0  0  0  0  0  0  0  0  0  0  0
  131.2410  122.1440   62.1250 C   0  0  0  0  0  0  0  0  0  0  0  0
  130.3600  124.6650   66.5510 S   0  0  0  0  0  0  0  0  0  0  0  0
  129.6180  126.0660   67.2880 C   0  0  0  0  0  0  0  0  0  0  0  0
  129.5400  126.1960   68.6110 N   0  0  0  0  0  0  0  0  0  0  0  0
  128.9290  127.3120   69.0890 C   0  0  0  0  0  0  0  0  0  0  0  0
  128.8500  127.4290   70.5840 C   0  0  0  0  0  0  0  0  0  0  0  0
  127.6690  127.0990   71.2670 C   0  0  0  0  0  0  0  0  0  0  0  0
  127.5870  127.2030   72.6530 C   0  0  0  0  0  0  0  0  0  0  0  0
  128.6910  127.6380   73.3780 C   0  0  0  0  0  0  0  0  0  0  0  0
  129.8760  127.9690   72.7270 C   0  0  0  0  0  0  0  0  0  0  0  0
  129.9520  127.8620   71.3410 C   0  0  0  0  0  0  0  0  0  0  0  0
  128.4240  128.3010   68.2400 C   0  0  0  0  0  0  0  0  0  0  0  0
  128.5050  128.1750   66.8440 C   0  0  0  0  0  0  0  0  0  0  0  0
  127.9250  129.2940   65.9710 C   0  0  0  0  0  0  0  0  0  0  0  0
  128.5110  129.3830   64.7750 F   0  0  0  0  0  0  0  0  0  0  0  0
  126.6270  129.0770   65.7630 F   0  0  0  0  0  0  0  0  0  0  0  0
  128.0830  130.4690   66.5800 F   0  0  0  0  0  0  0  0  0  0  0  0
  129.1260  127.0000   66.3300 C   0  0  0  0  0  0  0  0  0  0  0  0
  1  2  1  0
  2  3  2  0
  3  4  1  0
  4  5  2  0
  4  6  1  0
  6  7  1  0
  7  8  2  0
  8  9  1  0
  9 10  2  0
 10 11  1  0
 11 12  2  0
  3 13  1  0
 13 14  1  0
 14 15  2  0
 15 16  1  0
 16 17  1  0
 17 18  2  0
 18 19  1  0
 19 20  2  0
 20 21  1  0
 21 22  2  0
 16 23  2  0
 23 24  1  0
 24 25  1  0
 25 26  1  0
 25 27  1  0
 25 28  1  0
 24 29  2  0
 29  2  1  0
 12  7  1  0
 29 14  1  0
 22 17  1  0
M  END
>  <Binding energies>  (34) 
[-6.91]

>  <Ligand effiencies>  (34) 
[-0.2159375]

>  <Interactions>  (34) 
["H-B:GLU:543:OE1:9881, V-A:ILE:369:CD1:3239, V-B:GLU:543:CG:9879, V-A:ILE:369:CG2:3237, V-A:LEU:475:CD2:4259, V-A:TYR:484:CZ:4347, V-B:GLU:543:CB:9878, H-A:TYR:484:OH:4348, V-A:GLU:543:CD:4908, V-A:TYR:484:CE2:4346, V-A:GLY:454:CA:4049, V-B:GLU:543:CD:9880, V-B:HIS:456:CE1:9041, V-B:GLY:544:C:9884, V-B:HIS:456:CD2:9039, V-B:LYS:547:CE:9922, V-A:HIS:456:CE1:4070, V-A:GLU:543:CG:4907, V-A:GLU:543:CB:4906, H-A:GLU:543:OE1:4909, H-A:GLU:543:OE2:4910, V-B:TYR:484:CZ:9318, V-A:GLU:543:CA:4904, H-B:GLU:543:OE2:9882, V-B:TYR:484:CE2:9317, V-A:SER:385:CB:3409, V-A:SER:385:C:3405"]

$$$$
4ci_Grossjean_2025
     RDKit          3D

 28 31  0  0  0  0  0  0  0  0999 V2000
  129.1800  127.2010   63.9360 N   0  0  0  0  0  0  0  0  0  0  0  0
  129.4900  126.5160   65.0820 C   0  0  0  0  0  0  0  0  0  0  0  0
  130.1440  125.2730   65.0840 C   0  0  0  0  0  0  0  0  0  0  0  0
  130.6210  124.4910   63.9400 C   0  0  0  0  0  0  0  0  0  0  0  0
  130.0230  124.5250   62.8620 O   0  0  0  0  0  0  0  0  0  0  0  0
  131.7300  123.7440   64.1650 N   0  0  0  0  0  0  0  0  0  0  0  0
  132.3880  122.9140   63.2660 C   0  0  0  0  0  0  0  0  0  0  0  0
  131.7870  122.4100   62.1130 C   0  0  0  0  0  0  0  0  0  0  0  0
  132.7570  121.6450   61.5080 C   0  0  0  0  0  0  0  0  0  0  0  0
  133.8850  121.6850   62.2590 O   0  0  0  0  0  0  0  0  0  0  0  0
  133.6370  122.4920   63.3710 N   0  0  0  0  0  0  0  0  0  0  0  0
  130.3920  124.6850   66.7260 S   0  0  0  0  0  0  0  0  0  0  0  0
  129.6120  126.0980   67.3980 C   0  0  0  0  0  0  0  0  0  0  0  0
  129.4740  126.2580   68.7120 N   0  0  0  0  0  0  0  0  0  0  0  0
  128.8570  127.3900   69.1400 C   0  0  0  0  0  0  0  0  0  0  0  0
  128.7120  127.5390   70.6280 C   0  0  0  0  0  0  0  0  0  0  0  0
  127.5250  127.1620   71.2770 C   0  0  0  0  0  0  0  0  0  0  0  0
  127.3850  127.2970   72.6560 C   0  0  0  0  0  0  0  0  0  0  0  0
  128.4340  127.8150   73.4080 C   0  0  0  0  0  0  0  0  0  0  0  0
  129.6180  128.2000   72.7910 C   0  0  0  0  0  0  0  0  0  0  0  0
  129.7540  128.0650   71.4120 C   0  0  0  0  0  0  0  0  0  0  0  0
  128.3670  128.3470   68.2450 C   0  0  0  0  0  0  0  0  0  0  0  0
  128.5080  128.1890   66.8570 C   0  0  0  0  0  0  0  0  0  0  0  0
  127.9470  129.2770   65.9340 C   0  0  0  0  0  0  0  0  0  0  0  0
  128.5760  129.3430   64.7590 F   0  0  0  0  0  0  0  0  0  0  0  0
  126.6600  129.0360   65.6850 F   0  0  0  0  0  0  0  0  0  0  0  0
  128.0660  130.4700   66.5190 F   0  0  0  0  0  0  0  0  0  0  0  0
  129.1640  127.0110   66.3980 C   0  0  0  0  0  0  0  0  0  0  0  0
  1  2  1  0
  2  3  2  0
  3  4  1  0
  4  5  2  0
  4  6  1  0
  6  7  1  0
  7  8  1  0
  8  9  2  0
  9 10  1  0
 10 11  1  0
  3 12  1  0
 12 13  1  0
 13 14  2  0
 14 15  1  0
 15 16  1  0
 16 17  2  0
 17 18  1  0
 18 19  2  0
 19 20  1  0
 20 21  2  0
 15 22  2  0
 22 23  1  0
 23 24  1  0
 24 25  1  0
 24 26  1  0
 24 27  1  0
 23 28  2  0
 28  2  1  0
 11  7  2  0
 28 13  1  0
 21 16  1  0
M  END
>  <Binding energies>  (35) 
[-6.72]

>  <Ligand effiencies>  (35) 
[-0.2167741935483871]

>  <Interactions>  (35) 
["H-B:GLU:543:OE1:9881, V-B:GLU:543:CG:9879, V-A:LEU:475:CD2:4259, V-A:TYR:484:CZ:4347, V-B:GLU:543:CB:9878, H-A:TYR:484:OH:4348, V-A:GLU:543:CD:4908, V-A:TYR:484:CE2:4346, V-B:GLU:543:CD:9880, V-B:HIS:456:CE1:9041, V-B:GLY:544:C:9884, V-B:HIS:456:CD2:9039, V-B:LYS:547:CE:9922, V-A:HIS:456:CE1:4070, V-A:GLU:543:CG:4907, V-A:GLU:543:CB:4906, V-B:HIS:456:CG:9037, H-A:GLU:543:OE1:4909, H-A:GLU:543:OE2:4910, V-B:TYR:484:CZ:9318, V-A:GLU:543:CA:4904, H-B:GLU:543:OE2:9882, H-A:GLY:454:N:4050, V-B:TYR:484:CE2:9317"]

$$$$
8a_Ghoteimi_2023
     RDKit          3D

 40 44  0  0  0  0  0  0  0  0999 V2000
  131.2330  131.7560   55.5360 C   0  0  0  0  0  0  0  0  0  0  0  0
  131.7570  132.8780   56.4360 C   0  0  0  0  0  0  0  0  0  0  0  0
  130.6590  133.6110   56.9650 O   0  0  0  0  0  0  0  0  0  0  0  0
  129.4280  133.0460   57.0760 C   0  0  0  0  0  0  0  0  0  0  0  0
  128.5590  133.1340   56.2030 O   0  0  0  0  0  0  0  0  0  0  0  0
  129.2270  132.3090   58.3690 C   0  0  0  0  0  0  0  0  0  0  0  0
  130.3210  131.6720   58.9700 C   0  0  0  0  0  0  0  0  0  0  0  0
  130.1670  130.9800   60.1670 C   0  0  0  0  0  0  0  0  0  0  0  0
  128.9190  130.9080   60.7900 C   0  0  0  0  0  0  0  0  0  0  0  0
  128.8820  130.1770   61.9940 N   0  0  0  0  0  0  0  0  0  0  0  0
  127.8970  129.4110   62.5240 C   0  0  0  0  0  0  0  0  0  0  0  0
  126.8020  129.2260   61.9960 O   0  0  0  0  0  0  0  0  0  0  0  0
  128.2190  128.7840   63.8100 C   0  0  0  0  0  0  0  0  0  0  0  0
  127.5680  129.4410   65.3100 S   0  0  0  0  0  0  0  0  0  0  0  0
  128.3850  128.2190   66.2560 C   0  0  0  0  0  0  0  0  0  0  0  0
  128.2980  128.1880   67.5860 N   0  0  0  0  0  0  0  0  0  0  0  0
  128.9770  127.1980   68.2250 C   0  0  0  0  0  0  0  0  0  0  0  0
  128.8820  127.1950   69.7170 C   0  0  0  0  0  0  0  0  0  0  0  0
  127.6800  126.8780   70.3650 C   0  0  0  0  0  0  0  0  0  0  0  0
  127.5950  126.8880   71.7550 C   0  0  0  0  0  0  0  0  0  0  0  0
  128.7070  127.2120   72.5300 C   0  0  0  0  0  0  0  0  0  0  0  0
  128.5290  127.1980   73.9010 O   0  0  0  0  0  0  0  0  0  0  0  0
  128.0420  128.3680   74.5480 C   0  0  0  0  0  0  0  0  0  0  0  0
  129.9160  127.5240   71.8920 C   0  0  0  0  0  0  0  0  0  0  0  0
  129.9970  127.5160   70.5020 C   0  0  0  0  0  0  0  0  0  0  0  0
  129.7290  126.2440   67.5370 C   0  0  0  0  0  0  0  0  0  0  0  0
  129.8090  126.2630   66.1400 C   0  0  0  0  0  0  0  0  0  0  0  0
  130.5970  125.2050   65.4560 C   0  0  0  0  0  0  0  0  0  0  0  0
  131.9420  125.4190   65.1490 C   0  0  0  0  0  0  0  0  0  0  0  0
  132.6890  124.4230   64.5270 C   0  0  0  0  0  0  0  0  0  0  0  0
  132.1080  123.1960   64.2060 C   0  0  0  0  0  0  0  0  0  0  0  0
  132.9250  122.2680   63.5900 O   0  0  0  0  0  0  0  0  0  0  0  0
  133.7010  122.6640   62.4660 C   0  0  0  0  0  0  0  0  0  0  0  0
  130.7580  122.9760   64.5210 C   0  0  0  0  0  0  0  0  0  0  0  0
  130.0130  123.9740   65.1450 C   0  0  0  0  0  0  0  0  0  0  0  0
  129.1250  127.3030   65.4510 C   0  0  0  0  0  0  0  0  0  0  0  0
  129.0270  127.6620   64.0570 C   0  0  0  0  0  0  0  0  0  0  0  0
  129.6840  126.9710   63.0700 N   0  0  0  0  0  0  0  0  0  0  0  0
  127.8190  131.5470   60.1970 C   0  0  0  0  0  0  0  0  0  0  0  0
  127.9750  132.2390   58.9990 C   0  0  0  0  0  0  0  0  0  0  0  0
  1  2  1  0
  2  3  1  0
  3  4  1  0
  4  5  2  0
  4  6  1  0
  6  7  2  0
  7  8  1  0
  8  9  2  0
  9 10  1  0
 10 11  1  0
 11 12  2  0
 11 13  1  0
 13 14  1  0
 14 15  1  0
 15 16  2  0
 16 17  1  0
 17 18  1  0
 18 19  2  0
 19 20  1  0
 20 21  2  0
 21 22  1  0
 22 23  1  0
 21 24  1  0
 24 25  2  0
 17 26  2  0
 26 27  1  0
 27 28  1  0
 28 29  2  0
 29 30  1  0
 30 31  2  0
 31 32  1  0
 32 33  1  0
 31 34  1  0
 34 35  2  0
 27 36  2  0
 36 37  1  0
 37 38  1  0
  9 39  1  0
 39 40  2  0
 40  6  1  0
 37 13  2  0
 36 15  1  0
 25 18  1  0
 35 28  1  0
M  END
>  <Binding energies>  (36) 
[-9.66]

>  <Ligand effiencies>  (36) 
[-0.2246511627906977]

>  <Interactions>  (36) 
["V-A:LEU:363:CD1:3189, V-A:PRO:540:CA:4883, V-A:PRO:540:CD:4887, V-A:PRO:540:N:4884, V-A:TYR:539:C:4867, H-A:TYR:539:N:4870, H-B:GLU:543:OE1:9881, V-A:MET:535:CE:4835, V-B:GLU:543:CG:9879, V-A:LEU:475:CD2:4259, V-A:TYR:484:CZ:4347, V-B:GLU:543:CB:9878, H-A:TYR:484:OH:4348, V-A:GLU:543:CD:4908, V-A:TYR:484:CE2:4346, V-A:GLY:454:CA:4049, V-A:ARG:545:CZ:4926, V-B:GLU:543:CD:9880, V-B:HIS:456:CE1:9041, V-B:GLY:544:C:9884, V-B:GLU:543:C:9874, V-B:HIS:456:CD2:9039, V-A:HIS:456:CE1:4070, V-A:GLU:543:CG:4907, V-A:GLU:543:CB:4906, V-B:GLY:544:CA:9886, H-B:LYS:547:NZ:9923, H-A:GLU:543:OE1:4909, H-A:GLU:543:OE2:4910, V-A:TYR:539:CE1:4875, H-A:GLY:454:N:4050, V-A:TYR:539:CD1:4873, V-A:ILE:538:CA:4860, V-A:ILE:538:CG2:4863, V-A:ILE:538:CB:4862, V-A:MET:535:CG:4833"]

$$$$
8c_Ghoteimi_2023
     RDKit          3D

 34 38  0  0  0  0  0  0  0  0999 V2000
  126.8290  128.7400   74.8290 C   0  0  0  0  0  0  0  0  0  0  0  0
  127.9310  127.9690   74.3640 O   0  0  0  0  0  0  0  0  0  0  0  0
  128.1720  127.8890   73.0060 C   0  0  0  0  0  0  0  0  0  0  0  0
  127.2600  127.1510   72.2530 C   0  0  0  0  0  0  0  0  0  0  0  0
  127.4250  127.0140   70.8780 C   0  0  0  0  0  0  0  0  0  0  0  0
  128.5080  127.6130   70.2190 C   0  0  0  0  0  0  0  0  0  0  0  0
  128.6920  127.4660   68.7410 C   0  0  0  0  0  0  0  0  0  0  0  0
  128.0800  128.3330   67.8320 C   0  0  0  0  0  0  0  0  0  0  0  0
  128.2710  128.1760   66.4550 C   0  0  0  0  0  0  0  0  0  0  0  0
  127.6010  129.1060   65.5190 C   0  0  0  0  0  0  0  0  0  0  0  0
  126.2060  129.1400   65.4370 C   0  0  0  0  0  0  0  0  0  0  0  0
  125.5780  130.0210   64.5640 C   0  0  0  0  0  0  0  0  0  0  0  0
  126.3290  130.8780   63.7580 C   0  0  0  0  0  0  0  0  0  0  0  0
  125.6200  131.7210   62.9230 O   0  0  0  0  0  0  0  0  0  0  0  0
  124.3130  131.3460   62.5050 C   0  0  0  0  0  0  0  0  0  0  0  0
  127.7300  130.8400   63.8380 C   0  0  0  0  0  0  0  0  0  0  0  0
  128.3580  129.9580   64.7130 C   0  0  0  0  0  0  0  0  0  0  0  0
  129.1070  127.1160   66.0140 C   0  0  0  0  0  0  0  0  0  0  0  0
  129.5160  126.6750   64.7070 C   0  0  0  0  0  0  0  0  0  0  0  0
  129.1010  127.2990   63.5570 N   0  0  0  0  0  0  0  0  0  0  0  0
  130.3690  125.5600   64.7230 C   0  0  0  0  0  0  0  0  0  0  0  0
  130.9740  124.8580   63.5890 C   0  0  0  0  0  0  0  0  0  0  0  0
  130.6740  125.1560   62.4310 O   0  0  0  0  0  0  0  0  0  0  0  0
  131.8610  123.8850   63.9140 N   0  0  0  0  0  0  0  0  0  0  0  0
  132.5710  123.0770   63.0370 C   0  0  0  0  0  0  0  0  0  0  0  0
  133.8730  122.8950   62.9800 N   0  0  0  0  0  0  0  0  0  0  0  0
  134.2030  122.0530   62.0210 C   0  0  0  0  0  0  0  0  0  0  0  0
  133.1540  121.5310   61.2720 C   0  0  0  0  0  0  0  0  0  0  0  0
  131.6560  122.1860   61.8640 S   0  0  0  0  0  0  0  0  0  0  0  0
  130.6920  125.0290   66.3740 S   0  0  0  0  0  0  0  0  0  0  0  0
  129.6830  126.2980   67.0290 C   0  0  0  0  0  0  0  0  0  0  0  0
  129.5000  126.4460   68.3410 N   0  0  0  0  0  0  0  0  0  0  0  0
  129.4190  128.3550   70.9820 C   0  0  0  0  0  0  0  0  0  0  0  0
  129.2580  128.4930   72.3570 C   0  0  0  0  0  0  0  0  0  0  0  0
  1  2  1  0
  2  3  1  0
  3  4  2  0
  4  5  1  0
  5  6  2  0
  6  7  1  0
  7  8  2  0
  8  9  1  0
  9 10  1  0
 10 11  2  0
 11 12  1  0
 12 13  2  0
 13 14  1  0
 14 15  1  0
 13 16  1  0
 16 17  2  0
  9 18  2  0
 18 19  1  0
 19 20  1  0
 19 21  2  0
 21 22  1  0
 22 23  2  0
 22 24  1  0
 24 25  1  0
 25 26  2  0
 26 27  1  0
 27 28  2  0
 28 29  1  0
 21 30  1  0
 30 31  1  0
 31 32  2  0
  6 33  1  0
 33 34  2  0
 34  3  1  0
 32  7  1  0
 17 10  1  0
 31 18  1  0
 29 25  1  0
M  END
>  <Binding energies>  (37) 
[-7.59]

>  <Ligand effiencies>  (37) 
[-0.20513513513513512]

>  <Interactions>  (37) 
["H-B:GLU:543:OE1:9881, V-A:ILE:369:CD1:3239, V-B:GLU:543:CG:9879, V-A:ILE:369:CG2:3237, V-A:LEU:475:CD2:4259, V-A:TYR:484:CZ:4347, V-B:GLU:543:CB:9878, H-A:TYR:484:OH:4348, V-A:GLU:543:CD:4908, V-A:TYR:484:CE2:4346, V-A:GLY:454:CA:4049, V-B:GLU:543:CD:9880, V-B:HIS:456:CE1:9041, V-B:GLY:544:C:9884, V-B:GLU:543:C:9874, V-B:HIS:456:CD2:9039, V-B:LYS:547:CE:9922, V-A:HIS:456:CE1:4070, V-A:GLU:543:CG:4907, V-A:GLU:543:C:4902, V-A:GLU:543:CB:4906, V-B:HIS:456:CG:9037, V-B:GLY:544:CA:9886, H-B:LYS:547:NZ:9923, H-A:GLU:543:OE1:4909, H-A:GLU:543:OE2:4910, H-B:GLU:543:OE2:9882, H-B:TYR:484:OH:9319, V-B:HIS:456:CB:9036, H-A:GLY:454:N:4050, V-A:SER:385:C:3405"]

$$$$
8d_Ghoteimi_2023
     RDKit          3D

 30 33  0  0  0  0  0  0  0  0999 V2000
  133.9140  131.7230   61.0720 C   0  0  0  0  0  0  0  0  0  0  0  0
  132.6170  131.3930   60.5940 O   0  0  0  0  0  0  0  0  0  0  0  0
  131.5510  131.3660   61.4360 C   0  0  0  0  0  0  0  0  0  0  0  0
  131.3900  132.1560   62.3690 O   0  0  0  0  0  0  0  0  0  0  0  0
  130.5930  130.2850   61.1180 C   0  0  0  0  0  0  0  0  0  0  0  0
  130.9920  129.0920   59.8800 S   0  0  0  0  0  0  0  0  0  0  0  0
  129.4660  128.2730   60.1230 C   0  0  0  0  0  0  0  0  0  0  0  0
  129.1300  127.1890   59.4220 N   0  0  0  0  0  0  0  0  0  0  0  0
  127.9200  126.6290   59.6920 C   0  0  0  0  0  0  0  0  0  0  0  0
  127.5660  125.4180   58.8890 C   0  0  0  0  0  0  0  0  0  0  0  0
  128.0340  125.2550   57.5770 C   0  0  0  0  0  0  0  0  0  0  0  0
  127.7000  124.1260   56.8350 C   0  0  0  0  0  0  0  0  0  0  0  0
  126.8910  123.1320   57.3810 C   0  0  0  0  0  0  0  0  0  0  0  0
  126.6120  122.0480   56.5720 O   0  0  0  0  0  0  0  0  0  0  0  0
  125.3680  121.9980   55.8810 C   0  0  0  0  0  0  0  0  0  0  0  0
  126.4190  123.2830   58.6930 C   0  0  0  0  0  0  0  0  0  0  0  0
  126.7550  124.4130   59.4330 C   0  0  0  0  0  0  0  0  0  0  0  0
  127.0510  127.1560   60.6520 C   0  0  0  0  0  0  0  0  0  0  0  0
  127.4050  128.2900   61.3890 C   0  0  0  0  0  0  0  0  0  0  0  0
  126.4660  128.8190   62.4050 C   0  0  0  0  0  0  0  0  0  0  0  0
  126.7870  128.7470   63.7620 C   0  0  0  0  0  0  0  0  0  0  0  0
  125.9000  129.2360   64.7170 C   0  0  0  0  0  0  0  0  0  0  0  0
  124.6860  129.8070   64.3320 C   0  0  0  0  0  0  0  0  0  0  0  0
  123.8700  130.2640   65.3480 O   0  0  0  0  0  0  0  0  0  0  0  0
  124.0200  129.7250   66.6560 C   0  0  0  0  0  0  0  0  0  0  0  0
  124.3680  129.8820   62.9660 C   0  0  0  0  0  0  0  0  0  0  0  0
  125.2560  129.3920   62.0120 C   0  0  0  0  0  0  0  0  0  0  0  0
  128.6650  128.8900   61.1260 C   0  0  0  0  0  0  0  0  0  0  0  0
  129.3340  130.0370   61.6760 C   0  0  0  0  0  0  0  0  0  0  0  0
  128.7770  130.8170   62.6570 N   0  0  0  0  0  0  0  0  0  0  0  0
  1  2  1  0
  2  3  1  0
  3  4  2  0
  3  5  1  0
  5  6  1  0
  6  7  1  0
  7  8  2  0
  8  9  1  0
  9 10  1  0
 10 11  2  0
 11 12  1  0
 12 13  2  0
 13 14  1  0
 14 15  1  0
 13 16  1  0
 16 17  2  0
  9 18  2  0
 18 19  1  0
 19 20  1  0
 20 21  2  0
 21 22  1  0
 22 23  2  0
 23 24  1  0
 24 25  1  0
 23 26  1  0
 26 27  2  0
 19 28  2  0
 28 29  1  0
 29 30  1  0
 29  5  2  0
 28  7  1  0
 17 10  1  0
 27 20  1  0
M  END
>  <Binding energies>  (38) 
[-6.34]

>  <Ligand effiencies>  (38) 
[-0.198125]

>  <Interactions>  (38) 
["V-A:ASP:366:CG:3213, V-A:PRO:540:CA:4883, V-A:PRO:540:CB:4885, V-B:TYR:539:CZ:9849, V-B:PRO:540:N:9856, V-B:PRO:540:CB:9857, V-B:PRO:540:CA:9855, H-B:TYR:539:N:9842, V-B:PRO:540:CD:9859, V-B:ASP:366:CG:8184, V-B:MET:535:CE:9807, V-B:LEU:363:CD1:8160, V-A:GLU:543:CD:4908, V-B:GLU:543:CD:9880, V-B:HIS:456:CE1:9041, H-A:GLU:543:OE1:4909, V-B:TYR:484:CZ:9318, H-B:TYR:484:OH:9319, H-A:ALA:541:N:4891, V-B:ILE:538:CG2:9835, V-B:ILE:538:CA:9832, V-B:ILE:538:C:9830, V-B:GLY:454:CA:9020, V-B:ARG:545:CZ:9898, V-A:LEU:363:CA:3185, V-A:ASN:362:CB:3176, V-A:ASN:362:C:3172, V-B:ARG:545:CD:9895, V-B:ILE:538:CB:9834, H-B:ARG:545:NE:9896, H-B:GLY:454:N:9021, V-B:ARG:545:CG:9894, V-B:TYR:484:CE1:9316"]

$$$$
9a_Ghoteimi_2023
     RDKit          3D

 48 54  0  0  0  0  0  0  0  0999 V2000
  131.7190  132.8180   56.4680 C   0  0  0  0  0  0  0  0  0  0  0  0
  130.5630  132.5730   55.4930 C   0  0  0  0  0  0  0  0  0  0  0  0
  129.4430  133.3610   55.8790 O   0  0  0  0  0  0  0  0  0  0  0  0
  128.2390  132.7900   56.1370 C   0  0  0  0  0  0  0  0  0  0  0  0
  127.2710  132.8680   55.3740 O   0  0  0  0  0  0  0  0  0  0  0  0
  128.1980  132.0570   57.4470 C   0  0  0  0  0  0  0  0  0  0  0  0
  129.1870  132.3130   58.4060 C   0  0  0  0  0  0  0  0  0  0  0  0
  129.1770  131.6480   59.6290 C   0  0  0  0  0  0  0  0  0  0  0  0
  128.1800  130.7170   59.9210 C   0  0  0  0  0  0  0  0  0  0  0  0
  128.2700  130.1070   61.1870 N   0  0  0  0  0  0  0  0  0  0  0  0
  127.3030  129.8060   62.0880 C   0  0  0  0  0  0  0  0  0  0  0  0
  126.1050  130.0390   61.9210 O   0  0  0  0  0  0  0  0  0  0  0  0
  127.7710  129.1590   63.3170 C   0  0  0  0  0  0  0  0  0  0  0  0
  127.4860  129.9140   64.8860 S   0  0  0  0  0  0  0  0  0  0  0  0
  128.2790  128.5950   65.7150 C   0  0  0  0  0  0  0  0  0  0  0  0
  128.3800  128.5650   67.0430 N   0  0  0  0  0  0  0  0  0  0  0  0
  129.0040  127.4890   67.5910 C   0  0  0  0  0  0  0  0  0  0  0  0
  129.0970  127.4710   69.0820 C   0  0  0  0  0  0  0  0  0  0  0  0
  128.0570  126.9380   69.8530 C   0  0  0  0  0  0  0  0  0  0  0  0
  128.1350  126.9160   71.2420 C   0  0  0  0  0  0  0  0  0  0  0  0
  129.2630  127.4150   71.9140 C   0  0  0  0  0  0  0  0  0  0  0  0
  129.3470  127.4180   73.3100 N   0  0  0  0  0  0  0  0  0  0  0  0
  130.5280  126.8770   74.0130 C   0  0  0  0  0  0  0  0  0  0  0  0
  130.2980  126.6300   75.5190 C   0  0  0  0  0  0  0  0  0  0  0  0
  129.8350  127.8170   76.1410 O   0  0  0  0  0  0  0  0  0  0  0  0
  128.6080  128.2550   75.5780 C   0  0  0  0  0  0  0  0  0  0  0  0
  128.7940  128.5540   74.0760 C   0  0  0  0  0  0  0  0  0  0  0  0
  130.2950  127.9620   71.1370 C   0  0  0  0  0  0  0  0  0  0  0  0
  130.2150  127.9850   69.7480 C   0  0  0  0  0  0  0  0  0  0  0  0
  129.5470  126.4650   66.8100 C   0  0  0  0  0  0  0  0  0  0  0  0
  129.4600  126.5030   65.4140 C   0  0  0  0  0  0  0  0  0  0  0  0
  130.0860  125.4070   64.6310 C   0  0  0  0  0  0  0  0  0  0  0  0
  129.6850  124.0810   64.8150 C   0  0  0  0  0  0  0  0  0  0  0  0
  130.2630  123.0580   64.0700 C   0  0  0  0  0  0  0  0  0  0  0  0
  131.2460  123.3340   63.1070 C   0  0  0  0  0  0  0  0  0  0  0  0
  131.8490  122.3220   62.3550 N   0  0  0  0  0  0  0  0  0  0  0  0
  133.2780  122.4390   62.0060 C   0  0  0  0  0  0  0  0  0  0  0  0
  133.8990  121.1120   61.5210 C   0  0  0  0  0  0  0  0  0  0  0  0
  133.1520  120.5950   60.4310 O   0  0  0  0  0  0  0  0  0  0  0  0
  131.8040  120.3400   60.7930 C   0  0  0  0  0  0  0  0  0  0  0  0
  131.1270  121.6470   61.2580 C   0  0  0  0  0  0  0  0  0  0  0  0
  131.6400  124.6680   62.9290 C   0  0  0  0  0  0  0  0  0  0  0  0
  131.0650  125.6910   63.6760 C   0  0  0  0  0  0  0  0  0  0  0  0
  128.7780  127.6030   64.8210 C   0  0  0  0  0  0  0  0  0  0  0  0
  128.4530  127.9400   63.4570 C   0  0  0  0  0  0  0  0  0  0  0  0
  128.7720  127.1270   62.4000 N   0  0  0  0  0  0  0  0  0  0  0  0
  127.1830  130.4570   58.9670 C   0  0  0  0  0  0  0  0  0  0  0  0
  127.1950  131.1220   57.7440 C   0  0  0  0  0  0  0  0  0  0  0  0
  1  2  1  0
  2  3  1  0
  3  4  1  0
  4  5  2  0
  4  6  1  0
  6  7  2  0
  7  8  1  0
  8  9  2  0
  9 10  1  0
 10 11  1  0
 11 12  2  0
 11 13  1  0
 13 14  1  0
 14 15  1  0
 15 16  2  0
 16 17  1  0
 17 18  1  0
 18 19  2  0
 19 20  1  0
 20 21  2  0
 21 22  1  0
 22 23  1  0
 23 24  1  0
 24 25  1  0
 25 26  1  0
 26 27  1  0
 21 28  1  0
 28 29  2  0
 17 30  2  0
 30 31  1  0
 31 32  1  0
 32 33  2  0
 33 34  1  0
 34 35  2  0
 35 36  1  0
 36 37  1  0
 37 38  1  0
 38 39  1  0
 39 40  1  0
 40 41  1  0
 35 42  1  0
 42 43  2  0
 31 44  2  0
 44 45  1  0
 45 46  1  0
  9 47  1  0
 47 48  2  0
 48  6  1  0
 45 13  2  0
 44 15  1  0
 29 18  1  0
 43 32  1  0
 27 22  1  0
 41 36  1  0
M  END
>  <Binding energies>  (39) 
[-10.26]

>  <Ligand effiencies>  (39) 
[-0.2011764705882353]

>  <Interactions>  (39) 
["V-A:LEU:363:CD1:3189, V-A:PRO:540:CD:4887, H-A:TYR:539:N:4870, V-B:TYR:539:CE2:9848, H-B:GLU:543:OE1:9881, V-B:TYR:539:CD2:9846, V-A:MET:535:CE:4835, V-A:ILE:369:CD1:3239, V-B:GLU:543:CG:9879, V-A:ILE:369:CG2:3237, V-A:LEU:475:CD2:4259, V-B:GLU:543:CB:9878, V-A:GLU:543:CD:4908, V-B:GLU:543:CD:9880, V-B:HIS:456:CE1:9041, V-A:GLY:544:C:4912, H-A:LYS:547:NZ:4951, V-B:GLU:543:C:9874, V-B:HIS:456:CD2:9039, V-A:HIS:456:CE1:4070, V-A:GLU:543:CG:4907, V-A:GLU:543:C:4902, V-A:GLU:543:CB:4906, H-B:LYS:547:NZ:9923, H-A:GLU:543:OE1:4909, V-A:HIS:456:CD2:4068, H-A:TYR:539:OH:4878, V-A:TYR:539:CE1:4875, V-A:TYR:539:CZ:4877, V-A:TYR:539:CD1:4873, V-A:TYR:539:CD2:4874, V-A:ILE:538:CA:4860, V-A:TYR:539:CG:4872, V-A:TYR:539:CE2:4876, V-A:ILE:538:CG2:4863, V-A:ILE:538:CB:4862, H-A:SER:385:OG:3410, V-A:SER:385:CA:3407, V-A:SER:385:CB:3409, V-A:SER:385:C:3405"]

$$$$
9b_Ghoteimi_2023
     RDKit          3D

 42 48  0  0  0  0  0  0  0  0999 V2000
  128.6620  126.0540   59.2550 N   0  0  0  0  0  0  0  0  0  0  0  0
  128.6310  125.3220   60.4150 C   0  0  0  0  0  0  0  0  0  0  0  0
  128.3460  123.9490   60.4550 C   0  0  0  0  0  0  0  0  0  0  0  0
  128.0620  123.0410   59.3400 C   0  0  0  0  0  0  0  0  0  0  0  0
  128.7000  121.9960   59.2020 O   0  0  0  0  0  0  0  0  0  0  0  0
  127.0730  123.4400   58.5010 N   0  0  0  0  0  0  0  0  0  0  0  0
  126.6090  122.7860   57.3670 C   0  0  0  0  0  0  0  0  0  0  0  0
  125.2600  122.7310   57.0190 C   0  0  0  0  0  0  0  0  0  0  0  0
  125.2220  122.0070   55.8500 C   0  0  0  0  0  0  0  0  0  0  0  0
  126.4830  121.6440   55.5120 O   0  0  0  0  0  0  0  0  0  0  0  0
  127.3530  122.1440   56.4820 N   0  0  0  0  0  0  0  0  0  0  0  0
  128.3600  123.3430   62.1110 S   0  0  0  0  0  0  0  0  0  0  0  0
  128.7280  124.9320   62.7370 C   0  0  0  0  0  0  0  0  0  0  0  0
  128.8510  125.1560   64.0440 N   0  0  0  0  0  0  0  0  0  0  0  0
  129.1210  126.4310   64.4290 C   0  0  0  0  0  0  0  0  0  0  0  0
  129.2330  126.6590   65.9020 C   0  0  0  0  0  0  0  0  0  0  0  0
  128.7450  127.8320   66.4920 C   0  0  0  0  0  0  0  0  0  0  0  0
  128.8650  128.0450   67.8610 C   0  0  0  0  0  0  0  0  0  0  0  0
  129.4900  127.1010   68.6900 C   0  0  0  0  0  0  0  0  0  0  0  0
  129.6150  127.3000   70.0700 N   0  0  0  0  0  0  0  0  0  0  0  0
  128.4450  127.6300   70.9080 C   0  0  0  0  0  0  0  0  0  0  0  0
  128.6990  127.4730   72.4220 C   0  0  0  0  0  0  0  0  0  0  0  0
  129.8300  128.2360   72.8060 O   0  0  0  0  0  0  0  0  0  0  0  0
  131.0000  127.8100   72.1270 C   0  0  0  0  0  0  0  0  0  0  0  0
  130.8180  127.9730   70.6020 C   0  0  0  0  0  0  0  0  0  0  0  0
  129.9590  125.9200   68.0970 C   0  0  0  0  0  0  0  0  0  0  0  0
  129.8350  125.7040   66.7270 C   0  0  0  0  0  0  0  0  0  0  0  0
  129.2940  127.4680   63.5080 C   0  0  0  0  0  0  0  0  0  0  0  0
  129.1860  127.2320   62.1330 C   0  0  0  0  0  0  0  0  0  0  0  0
  129.4080  128.3620   61.1940 C   0  0  0  0  0  0  0  0  0  0  0  0
  130.6780  128.6010   60.6680 C   0  0  0  0  0  0  0  0  0  0  0  0
  130.8860  129.6460   59.7730 C   0  0  0  0  0  0  0  0  0  0  0  0
  129.8280  130.4820   59.3810 C   0  0  0  0  0  0  0  0  0  0  0  0
  130.0110  131.5280   58.4720 N   0  0  0  0  0  0  0  0  0  0  0  0
  131.3540  131.7690   57.9100 C   0  0  0  0  0  0  0  0  0  0  0  0
  131.4980  133.1600   57.2560 C   0  0  0  0  0  0  0  0  0  0  0  0
  130.4990  133.3360   56.2640 O   0  0  0  0  0  0  0  0  0  0  0  0
  129.1920  133.2400   56.8100 C   0  0  0  0  0  0  0  0  0  0  0  0
  128.9900  131.8540   57.4570 C   0  0  0  0  0  0  0  0  0  0  0  0
  128.5530  130.2200   59.9030 C   0  0  0  0  0  0  0  0  0  0  0  0
  128.3450  129.1740   60.7980 C   0  0  0  0  0  0  0  0  0  0  0  0
  128.8690  125.9110   61.7090 C   0  0  0  0  0  0  0  0  0  0  0  0
  1  2  1  0
  2  3  2  0
  3  4  1  0
  4  5  2  0
  4  6  1  0
  6  7  1  0
  7  8  1  0
  8  9  2  0
  9 10  1  0
 10 11  1  0
  3 12  1  0
 12 13  1  0
 13 14  2  0
 14 15  1  0
 15 16  1  0
 16 17  2  0
 17 18  1  0
 18 19  2  0
 19 20  1  0
 20 21  1  0
 21 22  1  0
 22 23  1  0
 23 24  1  0
 24 25  1  0
 19 26  1  0
 26 27  2  0
 15 28  2  0
 28 29  1  0
 29 30  1  0
 30 31  2  0
 31 32  1  0
 32 33  2  0
 33 34  1  0
 34 35  1  0
 35 36  1  0
 36 37  1  0
 37 38  1  0
 38 39  1  0
 33 40  1  0
 40 41  2  0
 29 42  2  0
 42  2  1  0
 11  7  2  0
 42 13  1  0
 27 16  1  0
 41 30  1  0
 25 20  1  0
 39 34  1  0
M  END
>  <Binding energies>  (40) 
[-9.83]

>  <Ligand effiencies>  (40) 
[-0.21844444444444444]

>  <Interactions>  (40) 
["V-A:LEU:363:CD1:3189, V-A:PRO:540:CA:4883, V-A:PRO:540:CB:4885, V-A:PRO:540:CD:4887, V-A:PRO:540:CG:4886, V-A:PRO:540:N:4884, V-A:TYR:539:C:4867, H-A:TYR:539:N:4870, V-B:PRO:540:N:9856, V-B:PRO:540:CB:9857, V-B:PRO:540:CA:9855, V-B:TYR:539:CE2:9848, H-B:TYR:539:N:9842, V-B:PRO:540:CD:9859, V-B:MET:535:CE:9807, V-B:LEU:363:CD1:8160, V-B:PRO:540:CG:9858, V-B:TYR:539:C:9839, V-B:TYR:539:CD2:9846, V-B:GLU:543:CG:9879, V-B:GLU:543:CB:9878, V-A:GLU:543:CD:4908, V-B:GLU:543:CD:9880, V-B:HIS:456:CE1:9041, V-A:GLY:544:C:4912, H-A:LYS:547:NZ:4951, V-B:HIS:456:CD2:9039, V-A:HIS:456:CE1:4070, V-A:GLU:543:CG:4907, V-A:GLU:543:C:4902, V-A:GLU:543:CB:4906, V-A:HIS:456:CD2:4068, V-B:ILE:538:CG2:9835, V-A:TYR:539:CD1:4873, V-A:ILE:538:CA:4860, V-A:TYR:539:CG:4872, V-A:TYR:539:CA:4869, V-A:ILE:538:C:4858, V-A:ILE:538:CB:4862, V-B:ILE:538:CA:9832, V-B:ILE:538:CB:9834"]

$$$$
9c_Ghoteimi_2023
     RDKit          3D

 42 48  0  0  0  0  0  0  0  0999 V2000
  129.0030  127.1560   62.1460 N   0  0  0  0  0  0  0  0  0  0  0  0
  128.5070  127.8810   63.1990 C   0  0  0  0  0  0  0  0  0  0  0  0
  127.7270  129.0380   63.0420 C   0  0  0  0  0  0  0  0  0  0  0  0
  127.2790  129.6760   61.8000 C   0  0  0  0  0  0  0  0  0  0  0  0
  128.0060  130.4720   61.2030 O   0  0  0  0  0  0  0  0  0  0  0  0
  126.0360  129.3300   61.3840 N   0  0  0  0  0  0  0  0  0  0  0  0
  125.3740  129.7980   60.2570 C   0  0  0  0  0  0  0  0  0  0  0  0
  125.5850  129.4700   59.0010 N   0  0  0  0  0  0  0  0  0  0  0  0
  124.7700  130.1150   58.1880 C   0  0  0  0  0  0  0  0  0  0  0  0
  123.8700  130.9920   58.7870 C   0  0  0  0  0  0  0  0  0  0  0  0
  124.1120  130.9620   60.5080 S   0  0  0  0  0  0  0  0  0  0  0  0
  127.2880  129.7280   64.6040 S   0  0  0  0  0  0  0  0  0  0  0  0
  128.1640  128.4780   65.4540 C   0  0  0  0  0  0  0  0  0  0  0  0
  128.2390  128.4590   66.7840 N   0  0  0  0  0  0  0  0  0  0  0  0
  128.9600  127.4540   67.3460 C   0  0  0  0  0  0  0  0  0  0  0  0
  129.0460  127.4690   68.8380 C   0  0  0  0  0  0  0  0  0  0  0  0
  127.9960  126.9890   69.6290 C   0  0  0  0  0  0  0  0  0  0  0  0
  128.0770  127.0130   71.0180 C   0  0  0  0  0  0  0  0  0  0  0  0
  129.2080  127.5330   71.6680 C   0  0  0  0  0  0  0  0  0  0  0  0
  129.3080  127.5580   73.0640 N   0  0  0  0  0  0  0  0  0  0  0  0
  128.7510  128.6750   73.8550 C   0  0  0  0  0  0  0  0  0  0  0  0
  128.6380  128.3750   75.3640 C   0  0  0  0  0  0  0  0  0  0  0  0
  129.8990  127.9730   75.8730 O   0  0  0  0  0  0  0  0  0  0  0  0
  130.3660  126.7960   75.2340 C   0  0  0  0  0  0  0  0  0  0  0  0
  130.5290  127.0440   73.7180 C   0  0  0  0  0  0  0  0  0  0  0  0
  130.2640  127.9950   70.8710 C   0  0  0  0  0  0  0  0  0  0  0  0
  130.1840  127.9660   69.4810 C   0  0  0  0  0  0  0  0  0  0  0  0
  129.5760  126.4600   66.5830 C   0  0  0  0  0  0  0  0  0  0  0  0
  129.4810  126.4630   65.1870 C   0  0  0  0  0  0  0  0  0  0  0  0
  130.1270  125.3680   64.4220 C   0  0  0  0  0  0  0  0  0  0  0  0
  129.3500  124.4330   63.7360 C   0  0  0  0  0  0  0  0  0  0  0  0
  129.9520  123.4140   63.0040 C   0  0  0  0  0  0  0  0  0  0  0  0
  131.3500  123.3010   62.9400 C   0  0  0  0  0  0  0  0  0  0  0  0
  131.9760  122.2930   62.2020 N   0  0  0  0  0  0  0  0  0  0  0  0
  131.1930  121.5390   61.2020 C   0  0  0  0  0  0  0  0  0  0  0  0
  131.8760  120.2290   60.7550 C   0  0  0  0  0  0  0  0  0  0  0  0
  133.1810  120.5030   60.2680 O   0  0  0  0  0  0  0  0  0  0  0  0
  133.9960  121.1060   61.2600 C   0  0  0  0  0  0  0  0  0  0  0  0
  133.3650  122.4380   61.7260 C   0  0  0  0  0  0  0  0  0  0  0  0
  132.1210  124.2580   63.6160 C   0  0  0  0  0  0  0  0  0  0  0  0
  131.5190  125.2770   64.3480 C   0  0  0  0  0  0  0  0  0  0  0  0
  128.7610  127.5280   64.5730 C   0  0  0  0  0  0  0  0  0  0  0  0
  1  2  1  0
  2  3  2  0
  3  4  1  0
  4  5  2  0
  4  6  1  0
  6  7  1  0
  7  8  2  0
  8  9  1  0
  9 10  2  0
 10 11  1  0
  3 12  1  0
 12 13  1  0
 13 14  2  0
 14 15  1  0
 15 16  1  0
 16 17  2  0
 17 18  1  0
 18 19  2  0
 19 20  1  0
 20 21  1  0
 21 22  1  0
 22 23  1  0
 23 24  1  0
 24 25  1  0
 19 26  1  0
 26 27  2  0
 15 28  2  0
 28 29  1  0
 29 30  1  0
 30 31  2  0
 31 32  1  0
 32 33  2  0
 33 34  1  0
 34 35  1  0
 35 36  1  0
 36 37  1  0
 37 38  1  0
 38 39  1  0
 33 40  1  0
 40 41  2  0
 29 42  2  0
 42  2  1  0
 11  7  1  0
 42 13  1  0
 27 16  1  0
 41 30  1  0
 25 20  1  0
 39 34  1  0
M  END
>  <Binding energies>  (41) 
[-9.04]

>  <Ligand effiencies>  (41) 
[-0.20088888888888887]

>  <Interactions>  (41) 
["V-B:TYR:539:CE2:9848, V-B:ASP:366:CB:8183, H-B:TYR:531:OH:9767, H-B:ASP:366:OD1:8185, V-B:ASP:366:CG:8184, H-B:GLU:543:OE1:9881, V-B:TYR:539:CD2:9846, V-A:ILE:369:CD1:3239, V-B:GLU:543:CG:9879, V-A:ILE:369:CG2:3237, V-A:LEU:475:CD2:4259, V-B:GLU:543:CB:9878, V-A:GLU:543:CD:4908, V-B:GLU:543:CD:9880, V-B:HIS:456:CE1:9041, V-A:GLY:544:C:4912, H-A:LYS:547:NZ:4951, V-B:GLU:543:C:9874, V-B:HIS:456:CD2:9039, V-A:HIS:456:CE1:4070, V-A:GLU:543:CG:4907, V-A:GLU:543:C:4902, V-A:GLU:543:CB:4906, H-A:GLU:543:OE1:4909, V-A:HIS:456:CD2:4068, V-B:ASP:366:CA:8181, V-B:ILE:369:CG2:8208, V-B:ILE:369:CB:8207, H-B:ASP:366:OD2:8186, H-A:SER:385:OG:3410, V-A:SER:385:CA:3407, V-A:SER:385:CB:3409, V-A:SER:385:C:3405"]

$$$$
RR11_Rahimova_2017
     RDKit          3D

 33 38  0  0  0  0  0  0  0  0999 V2000
  129.9640  132.8720   56.7540 N   0  0  0  0  0  0  0  0  0  0  0  0
  130.3680  131.6280   57.2340 C   0  0  0  0  0  0  0  0  0  0  0  0
  131.6870  131.4360   57.6400 C   0  0  0  0  0  0  0  0  0  0  0  0
  132.0890  130.1940   58.1220 C   0  0  0  0  0  0  0  0  0  0  0  0
  131.1790  129.1320   58.2010 C   0  0  0  0  0  0  0  0  0  0  0  0
  131.6120  127.7960   58.7260 C   0  0  0  0  0  0  0  0  0  0  0  0
  131.3730  127.3620   59.9440 N   0  0  0  0  0  0  0  0  0  0  0  0
  131.9230  126.1080   59.9970 C   0  0  0  0  0  0  0  0  0  0  0  0
  131.9480  125.1960   61.0600 C   0  0  0  0  0  0  0  0  0  0  0  0
  132.5640  123.9550   60.8580 C   0  0  0  0  0  0  0  0  0  0  0  0
  132.6120  122.9450   61.9970 C   0  0  0  0  0  0  0  0  0  0  0  0
  131.7550  123.3520   63.1880 C   0  0  0  0  0  0  0  0  0  0  0  0
  130.5840  122.6400   63.4690 C   0  0  0  0  0  0  0  0  0  0  0  0
  129.7700  122.9690   64.5550 C   0  0  0  0  0  0  0  0  0  0  0  0
  130.1590  124.0390   65.3710 C   0  0  0  0  0  0  0  0  0  0  0  0
  129.5370  124.5580   66.4770 N   0  0  0  0  0  0  0  0  0  0  0  0
  130.3030  125.5530   66.8710 C   0  0  0  0  0  0  0  0  0  0  0  0
  130.0100  126.4340   68.0510 C   0  0  0  0  0  0  0  0  0  0  0  0
  131.0050  127.2650   68.5820 C   0  0  0  0  0  0  0  0  0  0  0  0
  130.7360  128.0750   69.6830 C   0  0  0  0  0  0  0  0  0  0  0  0
  129.4690  128.0590   70.2610 C   0  0  0  0  0  0  0  0  0  0  0  0
  129.2000  128.8660   71.3660 N   0  0  0  0  0  0  0  0  0  0  0  0
  128.4690  127.2420   69.7410 C   0  0  0  0  0  0  0  0  0  0  0  0
  128.7390  126.4320   68.6400 C   0  0  0  0  0  0  0  0  0  0  0  0
  131.4120  125.7010   66.0650 N   0  0  0  0  0  0  0  0  0  0  0  0
  131.3520  124.7430   65.0820 C   0  0  0  0  0  0  0  0  0  0  0  0
  132.1740  124.4140   64.0000 C   0  0  0  0  0  0  0  0  0  0  0  0
  133.1630  123.6470   59.6320 C   0  0  0  0  0  0  0  0  0  0  0  0
  133.1590  124.5360   58.5540 C   0  0  0  0  0  0  0  0  0  0  0  0
  132.5270  125.7640   58.7640 C   0  0  0  0  0  0  0  0  0  0  0  0
  132.3100  126.8710   57.9760 N   0  0  0  0  0  0  0  0  0  0  0  0
  129.8550  129.3390   57.7880 C   0  0  0  0  0  0  0  0  0  0  0  0
  129.4510  130.5810   57.3060 C   0  0  0  0  0  0  0  0  0  0  0  0
  1  2  1  0
  2  3  2  0
  3  4  1  0
  4  5  2  0
  5  6  1  0
  6  7  2  0
  7  8  1  0
  8  9  2  0
  9 10  1  0
 10 11  1  0
 11 12  1  0
 12 13  2  0
 13 14  1  0
 14 15  2  0
 15 16  1  0
 16 17  2  0
 17 18  1  0
 18 19  2  0
 19 20  1  0
 20 21  2  0
 21 22  1  0
 21 23  1  0
 23 24  2  0
 17 25  1  0
 25 26  1  0
 26 27  2  0
 10 28  2  0
 28 29  1  0
 29 30  2  0
 30 31  1  0
  5 32  1  0
 32 33  2  0
 33  2  1  0
 31  6  1  0
 30  8  1  0
 27 12  1  0
 26 15  1  0
 24 18  1  0
M  END
>  <Binding energies>  (42) 
[-8.62]

>  <Ligand effiencies>  (42) 
[-0.221025641025641]

>  <Interactions>  (42) 
["V-A:LEU:363:CD1:3189, V-A:ASP:366:CG:3213, H-A:TYR:531:OH:4795, V-A:ASP:366:CB:3212, V-B:TYR:539:CZ:9849, V-B:TYR:539:CE2:9848, V-A:MET:535:CE:4835, V-B:ALA:541:CB:9864, V-A:ASP:366:CA:3210, V-B:GLU:543:CG:9879, H-A:ASP:366:O:3209, V-A:ILE:369:CG2:3237, V-A:LEU:475:CD2:4259, V-A:TYR:484:CZ:4347, V-B:GLU:543:CB:9878, H-A:TYR:484:OH:4348, V-A:GLU:543:CD:4908, V-A:TYR:484:CE2:4346, V-B:HIS:456:CE1:9041, V-A:GLY:544:C:4912, V-B:GLU:543:C:9874, V-B:HIS:456:CD2:9039, V-A:HIS:456:CE1:4070, V-A:GLU:543:C:4902, V-A:GLU:543:CB:4906, V-A:TYR:531:CZ:4794, V-A:ARG:545:CG:4922, H-A:GLU:543:OE2:4910, V-A:GLU:543:CA:4904, H-B:HIS:456:NE2:9042, H-A:GLU:543:O:4903, V-B:GLU:543:CA:9876, V-A:ILE:538:CA:4860"]

$$$$
RR16_Rahimova_2017
     RDKit          3D

 44 49  0  0  0  0  0  0  0  0999 V2000
  129.1390  123.3400   65.7010 O   0  0  0  0  0  0  0  0  0  0  0  0
  129.8360  122.3790   64.8380 S   0  0  0  0  0  0  0  0  0  0  0  0
  129.9080  120.9580   65.1990 O   0  0  0  0  0  0  0  0  0  0  0  0
  131.4830  122.9700   64.6060 N   0  0  0  0  0  0  0  0  0  0  0  0
  131.7920  124.4160   64.6940 C   0  0  0  0  0  0  0  0  0  0  0  0
  133.3190  124.6220   64.5160 C   0  0  0  0  0  0  0  0  0  0  0  0
  133.9060  124.3800   63.1120 C   0  0  0  0  0  0  0  0  0  0  0  0
  133.3700  125.3400   62.0360 C   0  0  0  0  0  0  0  0  0  0  0  0
  132.0570  124.9170   61.3530 C   0  0  0  0  0  0  0  0  0  0  0  0
  130.8660  124.5730   62.2680 C   0  0  0  0  0  0  0  0  0  0  0  0
  130.8920  125.1720   63.6880 C   0  0  0  0  0  0  0  0  0  0  0  0
  129.0870  122.4980   63.2180 C   0  0  0  0  0  0  0  0  0  0  0  0
  129.6560  121.8350   62.1280 C   0  0  0  0  0  0  0  0  0  0  0  0
  129.1350  122.0350   60.8530 C   0  0  0  0  0  0  0  0  0  0  0  0
  128.0490  122.8940   60.6730 C   0  0  0  0  0  0  0  0  0  0  0  0
  127.4680  123.2620   59.0190 S   0  0  0  0  0  0  0  0  0  0  0  0
  126.0050  123.3810   59.0840 O   0  0  0  0  0  0  0  0  0  0  0  0
  128.0930  122.2950   58.1080 O   0  0  0  0  0  0  0  0  0  0  0  0
  128.1420  124.8660   58.6690 N   0  0  0  0  0  0  0  0  0  0  0  0
  129.6110  124.8820   58.4510 C   0  0  0  0  0  0  0  0  0  0  0  0
  130.1440  126.3300   58.4680 C   0  0  0  0  0  0  0  0  0  0  0  0
  129.3750  127.2360   57.4740 C   0  0  0  0  0  0  0  0  0  0  0  0
  129.8570  128.6880   57.5090 C   0  0  0  0  0  0  0  0  0  0  0  0
  131.0830  129.0000   58.1140 C   0  0  0  0  0  0  0  0  0  0  0  0
  131.5650  130.3090   58.1620 C   0  0  0  0  0  0  0  0  0  0  0  0
  132.7670  130.5950   58.7550 O   0  0  0  0  0  0  0  0  0  0  0  0
  130.7880  131.3230   57.5800 C   0  0  0  0  0  0  0  0  0  0  0  0
  131.0080  132.6640   57.4610 N   0  0  0  0  0  0  0  0  0  0  0  0
  129.9400  133.2000   56.7750 N   0  0  0  0  0  0  0  0  0  0  0  0
  129.0610  132.2130   56.5170 N   0  0  0  0  0  0  0  0  0  0  0  0
  127.8700  132.4810   55.7220 C   0  0  0  0  0  0  0  0  0  0  0  0
  126.6310  131.7830   56.2660 C   0  0  0  0  0  0  0  0  0  0  0  0
  125.6390  131.3290   55.3890 C   0  0  0  0  0  0  0  0  0  0  0  0
  124.5140  130.6690   55.8840 C   0  0  0  0  0  0  0  0  0  0  0  0
  124.3740  130.4590   57.2560 C   0  0  0  0  0  0  0  0  0  0  0  0
  125.3600  130.9080   58.1350 C   0  0  0  0  0  0  0  0  0  0  0  0
  125.1950  130.6400   59.8320 Cl  0  0  0  0  0  0  0  0  0  0  0  0
  126.4850  131.5720   57.6410 C   0  0  0  0  0  0  0  0  0  0  0  0
  129.5480  131.0010   56.9780 C   0  0  0  0  0  0  0  0  0  0  0  0
  129.0620  129.6900   56.9330 C   0  0  0  0  0  0  0  0  0  0  0  0
  127.8370  127.1100   57.6320 C   0  0  0  0  0  0  0  0  0  0  0  0
  127.3790  125.6380   57.6530 C   0  0  0  0  0  0  0  0  0  0  0  0
  127.4560  123.5230   61.7700 C   0  0  0  0  0  0  0  0  0  0  0  0
  127.9780  123.3270   63.0440 C   0  0  0  0  0  0  0  0  0  0  0  0
  1  2  2  0
  2  3  2  0
  2  4  1  0
  4  5  1  0
  5  6  1  0
  6  7  1  0
  7  8  1  0
  8  9  1  0
  9 10  1  0
 10 11  1  0
  2 12  1  0
 12 13  2  0
 13 14  1  0
 14 15  2  0
 15 16  1  0
 16 17  2  0
 16 18  2  0
 16 19  1  0
 19 20  1  0
 20 21  1  0
 21 22  1  0
 22 23  1  0
 23 24  2  0
 24 25  1  0
 25 26  1  0
 25 27  2  0
 27 28  1  0
 28 29  2  0
 29 30  1  0
 30 31  1  0
 31 32  1  0
 32 33  2  0
 33 34  1  0
 34 35  2  0
 35 36  1  0
 36 37  1  0
 36 38  2  0
 30 39  1  0
 39 40  2  0
 22 41  1  0
 41 42  1  0
 15 43  1  0
 43 44  2  0
 11  5  1  0
 44 12  1  0
 42 19  1  0
 40 23  1  0
 39 27  1  0
 38 32  1  0
M  END
>  <Binding energies>  (43) 
[-9.73]

>  <Ligand effiencies>  (43) 
[-0.20270833333333335]

>  <Interactions>  (43) 
["V-A:ASP:366:CG:3213, H-A:ASP:366:OD2:3215, H-A:TYR:539:N:4870, V-B:TYR:539:CZ:9849, V-B:PRO:540:N:9856, V-B:PRO:540:CA:9855, V-B:TYR:539:CE2:9848, V-B:ASP:366:CB:8183, V-B:ASP:366:CG:8184, V-B:TYR:531:CE1:9764, V-B:TYR:531:CZ:9766, V-B:TYR:539:CD2:9846, V-A:MET:535:CE:4835, V-B:ALA:541:CB:9864, V-B:GLU:543:CG:9879, V-A:LEU:475:CD2:4259, V-A:TYR:484:CZ:4347, V-A:GLY:453:CA:4044, H-A:TYR:484:OH:4348, V-A:TYR:484:CE2:4346, V-A:GLY:454:CA:4049, V-A:ARG:545:CZ:4926, V-B:GLU:543:CD:9880, V-A:TYR:539:CE1:4875, V-B:ASP:366:CA:8181, V-A:TYR:539:CZ:4877, V-B:ASP:366:C:8179, V-A:GLY:453:C:4042, V-A:TYR:539:CD1:4873, V-A:TYR:539:CE2:4876"]

$$$$
RR18_Rahimova_2017
     RDKit          3D

 36 41  0  0  0  0  0  0  0  0999 V2000
  132.9380  125.0210   61.2970 C   0  0  0  0  0  0  0  0  0  0  0  0
  132.2910  125.1480   62.6530 C   0  0  0  0  0  0  0  0  0  0  0  0
  132.7340  124.9760   63.9540 C   0  0  0  0  0  0  0  0  0  0  0  0
  131.6490  125.2440   64.7880 C   0  0  0  0  0  0  0  0  0  0  0  0
  130.5820  125.5710   63.9660 C   0  0  0  0  0  0  0  0  0  0  0  0
  129.1320  125.9700   64.2250 C   0  0  1  0  0  0  0  0  0  0  0  0
  129.0200  126.9970   65.3900 C   0  0  0  0  0  0  0  0  0  0  0  0
  129.3920  126.6160   66.7490 C   0  0  0  0  0  0  0  0  0  0  0  0
  129.7970  125.4840   67.0190 O   0  0  0  0  0  0  0  0  0  0  0  0
  129.2680  127.6120   67.6570 N   0  0  0  0  0  0  0  0  0  0  0  0
  129.5110  127.6140   69.0480 C   0  0  0  0  0  0  0  0  0  0  0  0
  130.7570  127.9360   69.6170 C   0  0  0  0  0  0  0  0  0  0  0  0
  130.9320  127.9120   70.9990 C   0  0  0  0  0  0  0  0  0  0  0  0
  129.8740  127.5620   71.8320 C   0  0  0  0  0  0  0  0  0  0  0  0
  128.6380  127.2300   71.2820 C   0  0  0  0  0  0  0  0  0  0  0  0
  128.4460  127.2500   69.8970 C   0  0  0  0  0  0  0  0  0  0  0  0
  127.0740  126.8720   69.3450 C   0  0  0  0  0  0  0  0  0  0  0  0
  128.6700  128.2760   65.0940 C   0  0  0  0  0  0  0  0  0  0  0  0
  128.2880  128.7120   63.8610 N   0  0  0  0  0  0  0  0  0  0  0  0
  128.1650  127.8670   62.9040 C   0  0  0  0  0  0  0  0  0  0  0  0
  127.5430  128.2510   61.3160 S   0  0  0  0  0  0  0  0  0  0  0  0
  127.7160  126.5500   60.7800 C   0  0  0  0  0  0  0  0  0  0  0  0
  127.3990  126.0300   59.5440 C   0  0  0  0  0  0  0  0  0  0  0  0
  126.7760  126.8810   58.5190 C   0  0  0  0  0  0  0  0  0  0  0  0
  126.4820  128.0750   58.5530 O   0  0  0  0  0  0  0  0  0  0  0  0
  126.5340  126.1090   57.4540 N   0  0  0  0  0  0  0  0  0  0  0  0
  126.9540  124.8250   57.6220 C   0  0  0  0  0  0  0  0  0  0  0  0
  126.8690  123.7710   56.7120 C   0  0  0  0  0  0  0  0  0  0  0  0
  127.3910  122.5310   57.0690 C   0  0  0  0  0  0  0  0  0  0  0  0
  127.9920  122.3690   58.3150 C   0  0  0  0  0  0  0  0  0  0  0  0
  128.0650  123.4390   59.2100 C   0  0  0  0  0  0  0  0  0  0  0  0
  127.5220  124.6950   58.8780 C   0  0  0  0  0  0  0  0  0  0  0  0
  128.2490  125.7750   61.9010 C   0  0  0  0  0  0  0  0  0  0  0  0
  128.4490  124.5640   61.9220 O   0  0  0  0  0  0  0  0  0  0  0  0
  128.4960  126.5530   62.9900 N   0  0  0  0  0  0  0  0  0  0  0  0
  130.9810  125.5090   62.6680 O   0  0  0  0  0  0  0  0  0  0  0  0
  1  2  1  0
  2  3  2  0
  3  4  1  0
  4  5  2  0
  6  5  1  6
  6  7  1  0
  7  8  1  0
  8  9  2  0
  8 10  1  0
 10 11  1  0
 11 12  2  0
 12 13  1  0
 13 14  2  0
 14 15  1  0
 15 16  2  0
 16 17  1  0
  7 18  2  0
 18 19  1  0
 19 20  2  0
 20 21  1  0
 21 22  1  0
 22 23  2  0
 23 24  1  0
 24 25  2  0
 24 26  1  0
 26 27  1  0
 27 28  2  0
 28 29  1  0
 29 30  2  0
 30 31  1  0
 31 32  2  0
 22 33  1  0
 33 34  2  0
 33 35  1  0
  5 36  1  0
 36  2  1  0
 35  6  1  0
 16 11  1  0
 35 20  1  0
 32 23  1  0
 32 27  1  0
M  END
>  <Binding energies>  (44) 
[-8.58]

>  <Ligand effiencies>  (44) 
[-0.22578947368421054]

>  <Interactions>  (44) 
["V-A:ASP:366:CG:3213, V-B:TYR:539:CZ:9849, V-B:PRO:540:N:9856, V-B:TYR:539:CE1:9847, V-B:TYR:539:CD1:9845, V-B:PRO:540:CA:9855, V-B:TYR:539:CE2:9848, H-B:TYR:531:OH:9767, V-B:TYR:539:C:9839, V-B:TYR:539:CG:9844, V-B:TYR:531:CZ:9766, V-B:TYR:539:CD2:9846, V-B:GLU:543:CG:9879, V-B:GLU:543:CB:9878, V-A:GLU:543:CD:4908, V-A:ARG:545:CZ:4926, V-B:GLU:543:CD:9880, V-B:HIS:456:CE1:9041, V-A:GLY:544:C:4912, V-B:GLY:544:C:9884, V-B:GLU:543:C:9874, V-A:HIS:456:CE1:4070, V-A:GLU:543:CG:4907, V-A:GLU:543:C:4902, V-A:GLU:543:CB:4906, H-A:GLU:543:OE2:4910, V-B:GLU:543:CA:9876, H-B:MET:535:SD:9806"]

$$$$
RR20_Rahimova_2017
     RDKit          3D

 38 43  0  0  0  0  0  0  0  0999 V2000
  133.1150  124.1160   76.3840 C   0  0  0  0  0  0  0  0  0  0  0  0
  132.3560  125.0720   75.4810 C   0  0  0  0  0  0  0  0  0  0  0  0
  130.9600  125.0700   75.4850 C   0  0  0  0  0  0  0  0  0  0  0  0
  130.2620  125.9520   74.6640 C   0  0  0  0  0  0  0  0  0  0  0  0
  130.9530  126.8330   73.8240 C   0  0  0  0  0  0  0  0  0  0  0  0
  130.1750  127.7970   72.9560 C   0  0  0  0  0  0  0  0  0  0  0  0
  130.3810  129.0030   73.1150 O   0  0  0  0  0  0  0  0  0  0  0  0
  129.2970  127.3070   72.0320 N   0  0  0  0  0  0  0  0  0  0  0  0
  127.9220  126.9320   72.3980 C   0  0  0  0  0  0  0  0  0  0  0  0
  127.2130  126.5840   71.1000 C   0  0  0  0  0  0  0  0  0  0  0  0
  128.1290  127.1510   70.0570 C   0  0  0  0  0  0  0  0  0  0  0  0
  127.9560  127.2100   68.6740 C   0  0  0  0  0  0  0  0  0  0  0  0
  129.0020  127.6310   67.8420 C   0  0  0  0  0  0  0  0  0  0  0  0
  128.8140  127.7030   66.3530 C   0  0  0  0  0  0  0  0  0  0  0  0
  128.2750  128.7980   65.8400 N   0  0  0  0  0  0  0  0  0  0  0  0
  128.1770  128.7610   64.5350 C   0  0  0  0  0  0  0  0  0  0  0  0
  127.6700  129.7340   63.6880 N   0  0  0  0  0  0  0  0  0  0  0  0
  127.7520  131.0770   63.8480 C   0  0  0  0  0  0  0  0  0  0  0  0
  128.3290  131.6250   64.7900 O   0  0  0  0  0  0  0  0  0  0  0  0
  127.1070  131.9790   62.7690 C   0  0  0  0  0  0  0  0  0  0  0  0
  127.8810  132.0190   61.5140 N   0  0  0  0  0  0  0  0  0  0  0  0
  127.6780  133.2710   60.7700 C   0  0  0  0  0  0  0  0  0  0  0  0
  128.2880  133.1540   59.3550 C   0  0  0  0  0  0  0  0  0  0  0  0
  129.6910  132.5450   59.3580 C   0  0  0  0  0  0  0  0  0  0  0  0
  130.5050  132.6050   58.2210 C   0  0  0  0  0  0  0  0  0  0  0  0
  131.7670  132.0170   58.2110 C   0  0  0  0  0  0  0  0  0  0  0  0
  132.2340  131.3610   59.3460 C   0  0  0  0  0  0  0  0  0  0  0  0
  131.4370  131.3020   60.4880 C   0  0  0  0  0  0  0  0  0  0  0  0
  130.1670  131.8880   60.5110 C   0  0  0  0  0  0  0  0  0  0  0  0
  129.3170  131.8740   61.7820 C   0  0  0  0  0  0  0  0  0  0  0  0
  128.7560  127.3070   63.8200 S   0  0  0  0  0  0  0  0  0  0  0  0
  129.1510  126.7060   65.4130 C   0  0  0  0  0  0  0  0  0  0  0  0
  129.7250  125.3170   65.5870 C   0  0  0  0  0  0  0  0  0  0  0  0
  130.2400  127.9370   68.4270 C   0  0  0  0  0  0  0  0  0  0  0  0
  130.4210  127.8600   69.8070 C   0  0  0  0  0  0  0  0  0  0  0  0
  129.3430  127.5200   70.6350 C   0  0  0  0  0  0  0  0  0  0  0  0
  132.3530  126.8490   73.8480 C   0  0  0  0  0  0  0  0  0  0  0  0
  133.0520  125.9680   74.6690 C   0  0  0  0  0  0  0  0  0  0  0  0
  1  2  1  0
  2  3  2  0
  3  4  1  0
  4  5  2  0
  5  6  1  0
  6  7  2  0
  6  8  1  0
  8  9  1  0
  9 10  1  0
 10 11  1  0
 11 12  2  0
 12 13  1  0
 13 14  1  0
 14 15  1  0
 15 16  2  0
 16 17  1  0
 17 18  1  0
 18 19  2  0
 18 20  1  0
 20 21  1  0
 21 22  1  0
 22 23  1  0
 23 24  1  0
 24 25  2  0
 25 26  1  0
 26 27  2  0
 27 28  1  0
 28 29  2  0
 29 30  1  0
 16 31  1  0
 31 32  1  0
 32 33  1  0
 13 34  2  0
 34 35  1  0
 35 36  2  0
  5 37  1  0
 37 38  2  0
 38  2  1  0
 36  8  1  0
 36 11  1  0
 32 14  2  0
 30 21  1  0
 29 24  1  0
M  END
>  <Binding energies>  (45) 
[-10.1]

>  <Ligand effiencies>  (45) 
[-0.25897435897435894]

>  <Interactions>  (45) 
["V-A:LEU:363:CD1:3189, V-A:PRO:540:CA:4883, V-A:PRO:540:CB:4885, V-A:PRO:540:N:4884, V-A:TYR:539:C:4867, V-B:GLU:543:CG:9879, V-B:GLU:543:CB:9878, V-A:GLU:543:CD:4908, V-B:GLU:543:CD:9880, V-B:HIS:456:CE1:9041, V-A:GLY:544:C:4912, H-A:LYS:547:NZ:4951, V-B:GLY:544:C:9884, V-B:GLU:543:C:9874, V-B:LYS:547:CE:9922, V-A:HIS:456:CE1:4070, V-A:GLU:543:CG:4907, V-A:GLU:543:C:4902, V-A:GLU:543:CB:4906, V-B:GLY:544:CA:9886, H-B:TYR:484:OH:9319, V-A:HIS:456:CD2:4068, V-A:HIS:456:CB:4065, V-A:HIS:456:CG:4066, V-A:TYR:539:CE1:4875, V-A:TYR:539:CD1:4873"]

$$$$
RR21_Rahimova_2017
     RDKit          3D

 40 45  0  0  0  0  0  0  0  0999 V2000
  133.8030  123.0040   62.0720 C   0  0  0  0  0  0  0  0  0  0  0  0
  133.4180  122.5650   63.3710 O   0  0  0  0  0  0  0  0  0  0  0  0
  132.5690  123.3530   64.1260 C   0  0  0  0  0  0  0  0  0  0  0  0
  131.2740  122.9720   64.5140 C   0  0  0  0  0  0  0  0  0  0  0  0
  130.4810  123.8260   65.2800 C   0  0  0  0  0  0  0  0  0  0  0  0
  130.9610  125.0790   65.6790 C   0  0  0  0  0  0  0  0  0  0  0  0
  130.1090  125.9930   66.5050 C   0  0  0  0  0  0  0  0  0  0  0  0
  130.2330  125.9950   67.8180 N   0  0  0  0  0  0  0  0  0  0  0  0
  129.3590  126.8990   68.2860 N   0  0  0  0  0  0  0  0  0  0  0  0
  129.2450  127.1710   69.6740 C   0  0  0  0  0  0  0  0  0  0  0  0
  130.3230  127.7150   70.3900 C   0  0  0  0  0  0  0  0  0  0  0  0
  130.1970  127.9820   71.7510 C   0  0  0  0  0  0  0  0  0  0  0  0
  128.9970  127.7060   72.4000 C   0  0  0  0  0  0  0  0  0  0  0  0
  127.9210  127.1630   71.7020 C   0  0  0  0  0  0  0  0  0  0  0  0
  128.0430  126.8950   70.3420 C   0  0  0  0  0  0  0  0  0  0  0  0
  128.6850  127.4880   67.2460 C   0  0  0  0  0  0  0  0  0  0  0  0
  129.1330  126.9160   66.0650 C   0  0  0  0  0  0  0  0  0  0  0  0
  128.7460  127.2470   64.7020 C   0  0  0  0  0  0  0  0  0  0  0  0
  128.2230  128.4050   64.2380 C   0  0  0  0  0  0  0  0  0  0  0  0
  127.8400  129.8760   65.1580 S   0  0  0  0  0  0  0  0  0  0  0  0
  127.3060  130.6500   63.6730 C   0  0  0  0  0  0  0  0  0  0  0  0
  126.8590  131.8580   63.5210 N   0  0  0  0  0  0  0  0  0  0  0  0
  126.4690  132.3680   62.2520 C   0  0  0  0  0  0  0  0  0  0  0  0
  126.0560  133.5040   62.0220 O   0  0  0  0  0  0  0  0  0  0  0  0
  126.6080  131.3760   61.1300 C   0  0  0  0  0  0  0  0  0  0  0  0
  126.1980  131.8080   59.7160 C   0  0  0  0  0  0  0  0  0  0  0  0
  127.3710  132.1030   58.7830 C   0  0  0  0  0  0  0  0  0  0  0  0
  128.5490  132.6550   59.2940 C   0  0  0  0  0  0  0  0  0  0  0  0
  129.6240  132.9090   58.4450 C   0  0  0  0  0  0  0  0  0  0  0  0
  129.5250  132.6090   57.0850 C   0  0  0  0  0  0  0  0  0  0  0  0
  130.7040  132.8760   56.1680 C   0  0  0  0  0  0  0  0  0  0  0  0
  128.3520  132.0470   56.5750 C   0  0  0  0  0  0  0  0  0  0  0  0
  127.2770  131.7940   57.4230 C   0  0  0  0  0  0  0  0  0  0  0  0
  127.0500  130.1730   61.2970 N   0  0  0  0  0  0  0  0  0  0  0  0
  127.4100  129.8050   62.6000 N   0  0  0  0  0  0  0  0  0  0  0  0
  127.8970  128.5600   62.8270 C   0  0  0  0  0  0  0  0  0  0  0  0
  128.0450  127.6920   61.9590 O   0  0  0  0  0  0  0  0  0  0  0  0
  132.2480  125.4620   65.2870 C   0  0  0  0  0  0  0  0  0  0  0  0
  133.0430  124.6090   64.5210 C   0  0  0  0  0  0  0  0  0  0  0  0
  134.2840  125.0090   64.1590 F   0  0  0  0  0  0  0  0  0  0  0  0
  1  2  1  0
  2  3  1  0
  3  4  2  0
  4  5  1  0
  5  6  2  0
  6  7  1  0
  7  8  2  0
  8  9  1  0
  9 10  1  0
 10 11  2  0
 11 12  1  0
 12 13  2  0
 13 14  1  0
 14 15  2  0
  9 16  1  0
 16 17  2  0
 17 18  1  0
 18 19  2  0
 19 20  1  0
 20 21  1  0
 21 22  2  0
 22 23  1  0
 23 24  2  0
 23 25  1  0
 25 26  1  0
 26 27  1  0
 27 28  2  0
 28 29  1  0
 29 30  2  0
 30 31  1  0
 30 32  1  0
 32 33  2  0
 25 34  2  0
 34 35  1  0
 35 36  1  0
 36 37  2  0
  6 38  1  0
 38 39  2  0
 39 40  1  0
 39  3  1  0
 17  7  1  0
 36 19  1  0
 15 10  1  0
 35 21  1  0
 33 27  1  0
M  END
>  <Binding energies>  (46) 
[-9.66]

>  <Ligand effiencies>  (46) 
[-0.2415]

>  <Interactions>  (46) 
["V-A:PRO:540:CA:4883, V-A:PRO:540:N:4884, V-A:TYR:539:C:4867, V-A:MET:535:CE:4835, V-A:ILE:369:CD1:3239, V-B:GLU:543:CG:9879, V-A:LEU:475:CD2:4259, V-A:TYR:484:CZ:4347, V-A:GLY:453:CA:4044, V-B:GLU:543:CB:9878, H-A:TYR:484:OH:4348, V-A:GLU:543:CD:4908, V-A:TYR:484:CE2:4346, V-A:GLY:454:CA:4049, V-A:ARG:545:CZ:4926, V-B:GLU:543:CD:9880, V-B:HIS:456:CE1:9041, V-A:GLY:544:C:4912, V-B:GLY:544:C:9884, V-B:GLU:543:C:9874, V-B:HIS:456:CD2:9039, V-A:HIS:456:CE1:4070, V-A:GLU:543:CG:4907, H-B:TYR:484:OH:9319, V-A:TYR:539:CE1:4875, V-A:TYR:539:CZ:4877, H-A:GLY:454:N:4050, V-A:GLY:453:C:4042, V-A:TYR:539:CD1:4873, V-A:ILE:538:CA:4860, V-A:ILE:538:CG2:4863, V-A:ILE:538:CB:4862"]

$$$$
RR23_Rahimova_2017
     RDKit          3D

 39 44  0  0  0  0  0  0  0  0999 V2000
  127.1570  128.3780   74.7330 C   0  0  0  0  0  0  0  0  0  0  0  0
  127.9420  128.2010   73.4450 C   0  0  0  0  0  0  0  0  0  0  0  0
  127.4400  127.3880   72.4280 C   0  0  0  0  0  0  0  0  0  0  0  0
  128.1560  127.2340   71.2440 C   0  0  0  0  0  0  0  0  0  0  0  0
  129.3840  127.8820   71.0720 C   0  0  0  0  0  0  0  0  0  0  0  0
  130.1360  127.7190   69.7700 C   0  0  0  0  0  0  0  0  0  0  0  0
  131.3680  127.7070   69.8200 O   0  0  0  0  0  0  0  0  0  0  0  0
  129.4370  127.5760   68.6050 N   0  0  0  0  0  0  0  0  0  0  0  0
  128.5380  128.6320   68.1120 C   0  0  0  0  0  0  0  0  0  0  0  0
  128.0620  128.1820   66.7410 C   0  0  0  0  0  0  0  0  0  0  0  0
  129.0220  127.0840   66.3980 C   0  0  0  0  0  0  0  0  0  0  0  0
  129.1330  126.3510   65.2160 C   0  0  0  0  0  0  0  0  0  0  0  0
  129.9960  125.2470   65.1440 C   0  0  0  0  0  0  0  0  0  0  0  0
  130.1480  124.4130   63.8630 C   0  0  2  0  0  0  0  0  0  0  0  0
  129.1860  124.7880   62.8500 N   0  0  0  0  0  0  0  0  0  0  0  0
  128.8460  123.7970   62.1280 C   0  0  0  0  0  0  0  0  0  0  0  0
  127.9500  123.7710   61.1050 N   0  0  0  0  0  0  0  0  0  0  0  0
  127.1070  124.7520   60.7000 C   0  0  0  0  0  0  0  0  0  0  0  0
  127.0390  125.8830   61.1850 O   0  0  0  0  0  0  0  0  0  0  0  0
  126.1690  124.3810   59.5400 C   0  0  0  0  0  0  0  0  0  0  0  0
  126.9050  124.5090   58.2620 N   0  0  0  0  0  0  0  0  0  0  0  0
  127.3460  123.3150   57.7050 N   0  0  0  0  0  0  0  0  0  0  0  0
  128.0030  123.2900   56.5900 N   0  0  0  0  0  0  0  0  0  0  0  0
  128.2790  124.4850   55.9210 C   0  0  0  0  0  0  0  0  0  0  0  0
  128.9920  124.4240   54.7210 C   0  0  0  0  0  0  0  0  0  0  0  0
  129.2840  125.6010   54.0290 C   0  0  0  0  0  0  0  0  0  0  0  0
  128.8670  126.8340   54.5340 C   0  0  0  0  0  0  0  0  0  0  0  0
  128.1550  126.8970   55.7330 C   0  0  0  0  0  0  0  0  0  0  0  0
  127.8610  125.7170   56.4260 C   0  0  0  0  0  0  0  0  0  0  0  0
  127.0950  125.7640   57.7280 C   0  0  0  0  0  0  0  0  0  0  0  0
  126.6980  126.8080   58.2530 O   0  0  0  0  0  0  0  0  0  0  0  0
  129.6170  122.2260   62.4960 S   0  0  0  0  0  0  0  0  0  0  0  0
  130.1300  122.8840   64.0920 C   0  0  2  0  0  0  0  0  0  0  0  0
  129.1730  122.3590   65.1830 C   0  0  0  0  0  0  0  0  0  0  0  0
  130.7030  124.8670   66.2910 C   0  0  0  0  0  0  0  0  0  0  0  0
  130.5760  125.5870   67.4800 C   0  0  0  0  0  0  0  0  0  0  0  0
  129.7750  126.7360   67.5200 C   0  0  0  0  0  0  0  0  0  0  0  0
  129.8680  128.7200   72.0860 C   0  0  0  0  0  0  0  0  0  0  0  0
  129.1520  128.8740   73.2700 C   0  0  0  0  0  0  0  0  0  0  0  0
  1  2  1  0
  2  3  2  0
  3  4  1  0
  4  5  2  0
  5  6  1  0
  6  7  2  0
  6  8  1  0
  8  9  1  0
  9 10  1  0
 10 11  1  0
 11 12  2  0
 12 13  1  0
 14 13  1  1
 14 15  1  0
 15 16  2  0
 16 17  1  0
 17 18  1  0
 18 19  2  0
 18 20  1  0
 20 21  1  0
 21 22  1  0
 22 23  2  0
 23 24  1  0
 24 25  2  0
 25 26  1  0
 26 27  2  0
 27 28  1  0
 28 29  2  0
 29 30  1  0
 30 31  2  0
 16 32  1  0
 32 33  1  0
 33 34  1  1
 13 35  2  0
 35 36  1  0
 36 37  2  0
  5 38  1  0
 38 39  2  0
 39  2  1  0
 37  8  1  0
 37 11  1  0
 33 14  1  0
 30 21  1  0
 29 24  1  0
M  END
>  <Binding energies>  (47) 
[-9.68]

>  <Ligand effiencies>  (47) 
[-0.242]

>  <Interactions>  (47) 
["H-B:TYR:539:OH:9850, V-B:TYR:539:CZ:9849, V-B:TYR:539:CE1:9847, V-B:PRO:540:CB:9857, H-B:TYR:531:OH:9767, V-A:MET:535:CE:4835, V-B:MET:535:CG:9805, V-B:ALA:541:CB:9864, V-B:GLU:543:CG:9879, V-A:LEU:475:CD2:4259, V-A:TYR:484:CZ:4347, V-B:GLU:543:CB:9878, V-A:GLU:543:CD:4908, V-A:TYR:484:CE2:4346, V-B:GLU:543:CD:9880, V-B:HIS:456:CE1:9041, V-A:GLY:544:C:4912, V-B:GLY:544:C:9884, V-B:HIS:456:CD2:9039, V-B:LYS:547:CE:9922, V-A:HIS:456:CE1:4070, V-A:GLU:543:CG:4907, V-A:GLU:543:C:4902, V-A:GLU:543:CB:4906, V-B:HIS:456:CG:9037, H-A:HIS:456:ND1:4067, H-A:ARG:545:N:4920, V-B:GLU:543:CA:9876"]

$$$$
RR26_Rahimova_2017
     RDKit          3D

 38 44  0  0  0  0  0  0  0  0999 V2000
  124.2960  123.8930   58.5960 C   0  0  0  0  0  0  0  0  0  0  0  0
  125.4340  123.3490   57.7410 C   0  0  0  0  0  0  0  0  0  0  0  0
  125.1130  122.7130   56.5370 C   0  0  0  0  0  0  0  0  0  0  0  0
  126.1150  122.2320   55.6970 C   0  0  0  0  0  0  0  0  0  0  0  0
  127.4520  122.3900   56.0510 C   0  0  0  0  0  0  0  0  0  0  0  0
  127.7840  123.0230   57.2470 C   0  0  0  0  0  0  0  0  0  0  0  0
  126.7890  123.5060   58.1100 C   0  0  0  0  0  0  0  0  0  0  0  0
  127.2330  124.1610   59.3860 C   0  0  0  0  0  0  0  0  0  0  0  0
  127.5160  123.4630   60.4830 N   0  0  0  0  0  0  0  0  0  0  0  0
  127.8610  124.4040   61.3200 C   0  0  0  0  0  0  0  0  0  0  0  0
  128.3750  124.4680   62.9650 S   0  0  0  0  0  0  0  0  0  0  0  0
  128.5030  126.2620   62.8310 C   0  0  0  0  0  0  0  0  0  0  0  0
  128.8750  127.1400   63.7900 C   0  0  0  0  0  0  0  0  0  0  0  0
  129.2690  126.8560   65.1600 C   0  0  0  0  0  0  0  0  0  0  0  0
  128.8250  127.4660   66.3230 C   0  0  0  0  0  0  0  0  0  0  0  0
  129.4360  126.8480   67.3840 N   0  0  0  0  0  0  0  0  0  0  0  0
  129.2870  127.1260   68.7670 C   0  0  0  0  0  0  0  0  0  0  0  0
  128.0720  126.8770   69.4230 C   0  0  0  0  0  0  0  0  0  0  0  0
  127.9380  127.1580   70.7800 C   0  0  0  0  0  0  0  0  0  0  0  0
  129.0160  127.6850   71.4860 C   0  0  0  0  0  0  0  0  0  0  0  0
  130.2290  127.9350   70.8470 C   0  0  0  0  0  0  0  0  0  0  0  0
  130.3660  127.6570   69.4900 C   0  0  0  0  0  0  0  0  0  0  0  0
  130.2270  125.8540   66.9510 N   0  0  0  0  0  0  0  0  0  0  0  0
  130.1420  125.8500   65.6350 C   0  0  0  0  0  0  0  0  0  0  0  0
  130.9240  124.8520   64.8400 C   0  0  0  0  0  0  0  0  0  0  0  0
  130.5160  123.5100   64.7850 C   0  0  0  0  0  0  0  0  0  0  0  0
  131.2410  122.5710   64.0500 C   0  0  0  0  0  0  0  0  0  0  0  0
  132.3850  122.9680   63.3610 C   0  0  0  0  0  0  0  0  0  0  0  0
  132.7930  124.3100   63.3920 C   0  0  0  0  0  0  0  0  0  0  0  0
  132.0710  125.2450   64.1330 C   0  0  0  0  0  0  0  0  0  0  0  0
  133.9440  124.7400   62.7620 O   0  0  0  0  0  0  0  0  0  0  0  0
  134.4220  123.8520   61.7460 C   0  0  0  0  0  0  0  0  0  0  0  0
  134.3790  122.3860   62.2410 C   0  0  0  0  0  0  0  0  0  0  0  0
  133.0450  122.0180   62.6070 O   0  0  0  0  0  0  0  0  0  0  0  0
  128.1330  126.7470   61.5050 C   0  0  0  0  0  0  0  0  0  0  0  0
  128.1040  127.9040   61.0800 O   0  0  0  0  0  0  0  0  0  0  0  0
  127.7930  125.6180   60.7440 N   0  0  0  0  0  0  0  0  0  0  0  0
  127.3890  125.4730   59.4790 N   0  0  0  0  0  0  0  0  0  0  0  0
  1  2  1  0
  2  3  2  0
  3  4  1  0
  4  5  2  0
  5  6  1  0
  6  7  2  0
  7  8  1  0
  8  9  1  0
  9 10  2  0
 10 11  1  0
 11 12  1  0
 12 13  2  0
 13 14  1  0
 14 15  2  0
 15 16  1  0
 16 17  1  0
 17 18  2  0
 18 19  1  0
 19 20  2  0
 20 21  1  0
 21 22  2  0
 16 23  1  0
 23 24  2  0
 24 25  1  0
 25 26  2  0
 26 27  1  0
 27 28  2  0
 28 29  1  0
 29 30  2  0
 29 31  1  0
 31 32  1  0
 32 33  1  0
 33 34  1  0
 12 35  1  0
 35 36  2  0
 35 37  1  0
 37 38  1  0
  7  2  1  0
 38  8  2  0
 37 10  1  0
 24 14  1  0
 30 25  1  0
 22 17  1  0
 34 28  1  0
M  END
>  <Binding energies>  (48) 
[-9.66]

>  <Ligand effiencies>  (48) 
[-0.2542105263157895]

>  <Interactions>  (48) 
["V-B:TYR:539:CZ:9849, V-B:PRO:540:N:9856, V-B:TYR:539:CE1:9847, V-B:PRO:540:CB:9857, V-B:TYR:539:CD1:9845, V-B:PRO:540:CA:9855, V-B:TYR:539:CE2:9848, V-B:PRO:540:CD:9859, V-B:MET:535:CE:9807, V-B:LEU:363:CD1:8160, V-B:TYR:539:CG:9844, V-B:TYR:539:CD2:9846, V-B:LEU:363:CA:8156, V-A:ILE:369:CD1:3239, V-B:GLU:543:CG:9879, V-A:LEU:475:CD2:4259, V-A:TYR:484:CZ:4347, V-B:GLU:543:CB:9878, V-A:GLU:543:CD:4908, V-A:TYR:484:CE2:4346, V-A:GLY:454:CA:4049, V-A:ARG:545:CZ:4926, V-B:GLU:543:CD:9880, V-B:HIS:456:CE1:9041, V-A:GLY:544:C:4912, V-B:GLU:543:C:9874, V-B:HIS:456:CD2:9039, V-A:HIS:456:CE1:4070, V-A:GLU:543:C:4902, V-A:GLU:543:CB:4906, H-A:ARG:545:NH2:4928, H-A:GLY:454:N:4050, V-B:ILE:538:CG2:9835, V-B:ILE:538:CA:9832, V-B:ILE:538:C:9830, V-B:LEU:363:CB:8158, V-B:ILE:538:CB:9834"]

$$$$
RR2_Rahimova_2017
     RDKit          3D

 46 50  0  0  0  0  0  0  0  0999 V2000
  128.8060  133.4940   55.6270 C   0  0  0  0  0  0  0  0  0  0  0  0
  129.9800  133.1290   56.3440 O   0  0  0  0  0  0  0  0  0  0  0  0
  130.0600  131.8710   56.9120 C   0  0  0  0  0  0  0  0  0  0  0  0
  131.2470  131.2840   57.3720 C   0  0  0  0  0  0  0  0  0  0  0  0
  131.2300  130.0080   57.9290 C   0  0  0  0  0  0  0  0  0  0  0  0
  130.0320  129.2890   58.0360 C   0  0  0  0  0  0  0  0  0  0  0  0
  130.0420  127.8980   58.6410 C   0  0  0  0  0  0  0  0  0  0  0  0
  129.3320  127.6390   59.6180 O   0  0  0  0  0  0  0  0  0  0  0  0
  130.8720  127.0060   58.0520 N   0  0  0  0  0  0  0  0  0  0  0  0
  130.9890  125.7430   58.6230 N   0  0  0  0  0  0  0  0  0  0  0  0
  132.1930  125.1370   58.5890 C   0  0  0  0  0  0  0  0  0  0  0  0
  133.1630  125.5310   57.9350 O   0  0  0  0  0  0  0  0  0  0  0  0
  132.3260  123.8810   59.4610 C   0  0  0  0  0  0  0  0  0  0  0  0
  133.9950  123.5920   60.1530 S   0  0  0  0  0  0  0  0  0  0  0  0
  133.7650  124.1650   61.8090 C   0  0  0  0  0  0  0  0  0  0  0  0
  134.7430  124.6240   62.5480 N   0  0  0  0  0  0  0  0  0  0  0  0
  134.2210  124.9120   63.8010 N   0  0  0  0  0  0  0  0  0  0  0  0
  132.9370  124.6440   63.7630 C   0  0  0  0  0  0  0  0  0  0  0  0
  132.0210  124.8440   64.9270 C   0  0  0  0  0  0  0  0  0  0  0  0
  130.7350  124.2990   64.9010 C   0  0  0  0  0  0  0  0  0  0  0  0
  129.8730  124.4860   65.9760 C   0  0  0  0  0  0  0  0  0  0  0  0
  130.2950  125.2080   67.0990 C   0  0  0  0  0  0  0  0  0  0  0  0
  129.4660  125.4370   68.2070 N   0  0  0  0  0  0  0  0  0  0  0  0
  128.7880  127.0180   68.6550 S   0  0  0  0  0  0  0  0  0  0  0  0
  127.3340  126.8900   68.5100 O   0  0  0  0  0  0  0  0  0  0  0  0
  129.5290  128.0540   67.9240 O   0  0  0  0  0  0  0  0  0  0  0  0
  129.1190  127.1910   70.4060 C   0  0  0  0  0  0  0  0  0  0  0  0
  130.3640  127.6400   70.8540 C   0  0  0  0  0  0  0  0  0  0  0  0
  130.6060  127.7520   72.2210 C   0  0  0  0  0  0  0  0  0  0  0  0
  129.6050  127.4210   73.1370 C   0  0  0  0  0  0  0  0  0  0  0  0
  129.8760  127.5300   74.6260 C   0  0  0  0  0  0  0  0  0  0  0  0
  128.3630  126.9690   72.6860 C   0  0  0  0  0  0  0  0  0  0  0  0
  128.1200  126.8550   71.3200 C   0  0  0  0  0  0  0  0  0  0  0  0
  131.5800  125.7490   67.1250 C   0  0  0  0  0  0  0  0  0  0  0  0
  132.4420  125.5680   66.0470 C   0  0  0  0  0  0  0  0  0  0  0  0
  132.5770  124.1580   62.5170 N   0  0  0  0  0  0  0  0  0  0  0  0
  131.3120  123.7140   62.0810 C   0  0  0  0  0  0  0  0  0  0  0  0
  130.3210  124.6430   61.7580 C   0  0  0  0  0  0  0  0  0  0  0  0
  129.0760  124.1980   61.3230 C   0  0  0  0  0  0  0  0  0  0  0  0
  128.8080  122.8330   61.2090 C   0  0  0  0  0  0  0  0  0  0  0  0
  127.5440  122.4890   60.7720 O   0  0  0  0  0  0  0  0  0  0  0  0
  126.5160  123.4750   60.7730 C   0  0  0  0  0  0  0  0  0  0  0  0
  129.8110  121.9060   61.5370 C   0  0  0  0  0  0  0  0  0  0  0  0
  131.0590  122.3450   61.9700 C   0  0  0  0  0  0  0  0  0  0  0  0
  128.8460  129.8860   57.5800 C   0  0  0  0  0  0  0  0  0  0  0  0
  128.8650  131.1630   57.0250 C   0  0  0  0  0  0  0  0  0  0  0  0
  1  2  1  0
  2  3  1  0
  3  4  2  0
  4  5  1  0
  5  6  2  0
  6  7  1  0
  7  8  2  0
  7  9  1  0
  9 10  1  0
 10 11  1  0
 11 12  2  0
 11 13  1  0
 13 14  1  0
 14 15  1  0
 15 16  2  0
 16 17  1  0
 17 18  2  0
 18 19  1  0
 19 20  2  0
 20 21  1  0
 21 22  2  0
 22 23  1  0
 23 24  1  0
 24 25  2  0
 24 26  2  0
 24 27  1  0
 27 28  2  0
 28 29  1  0
 29 30  2  0
 30 31  1  0
 30 32  1  0
 32 33  2  0
 22 34  1  0
 34 35  2  0
 18 36  1  0
 36 37  1  0
 37 38  2  0
 38 39  1  0
 39 40  2  0
 40 41  1  0
 41 42  1  0
 40 43  1  0
 43 44  2  0
  6 45  1  0
 45 46  2  0
 46  3  1  0
 36 15  1  0
 44 37  1  0
 35 19  1  0
 33 27  1  0
M  END
>  <Binding energies>  (49) 
[-11.26]

>  <Ligand effiencies>  (49) 
[-0.22979591836734695]

>  <Interactions>  (49) 
["H-A:TYR:531:OH:4795, H-B:TYR:539:OH:9850, V-A:ASP:366:CB:3212, H-A:TYR:539:N:4870, V-B:TYR:539:CZ:9849, V-B:PRO:540:CB:9857, V-B:PRO:540:CA:9855, V-B:TYR:539:CE2:9848, H-B:ALA:541:N:9863, V-A:MET:535:CE:4835, V-A:ILE:369:CD1:3239, V-B:GLU:543:CG:9879, V-A:LEU:475:CD2:4259, V-A:TYR:484:CZ:4347, V-B:GLU:543:CB:9878, V-A:GLU:543:CD:4908, V-A:TYR:484:CE2:4346, H-A:ARG:545:NE:4924, V-A:ARG:545:CZ:4926, V-B:GLU:543:CD:9880, V-B:HIS:456:CE1:9041, V-A:GLY:544:C:4912, V-B:GLU:543:C:9874, V-B:LYS:547:CE:9922, V-A:HIS:456:CE1:4070, V-A:ARG:545:CG:4922, V-A:HIS:456:CD2:4068, H-A:HIS:456:NE2:4071, H-B:GLU:543:O:9875, V-A:TYR:539:CZ:4877, H-A:ARG:545:NH2:4928, V-B:GLU:543:CA:9876, H-A:GLY:454:N:4050, V-A:TYR:539:CD1:4873, V-A:TYR:539:CD2:4874, V-A:ILE:538:CA:4860, V-A:TYR:539:CG:4872, V-A:TYR:539:CE2:4876, V-A:ILE:538:C:4858, V-A:ILE:538:CB:4862, V-A:ARG:545:CD:4923, H-A:ARG:545:NH1:4927"]

$$$$
RR33_Rahimova_2017
     RDKit          3D

 18 19  0  0  0  0  0  0  0  0999 V2000
  136.5040  123.4470   76.5470 C   0  0  0  0  0  0  0  0  0  0  0  0
  135.1350  122.7610   76.5080 C   0  0  0  0  0  0  0  0  0  0  0  0
  134.1830  123.6020   77.1550 O   0  0  0  0  0  0  0  0  0  0  0  0
  133.2410  124.2690   76.3950 C   0  0  0  0  0  0  0  0  0  0  0  0
  133.6950  125.3680   75.6680 C   0  0  0  0  0  0  0  0  0  0  0  0
  132.8180  126.1050   74.8760 C   0  0  0  0  0  0  0  0  0  0  0  0
  131.4680  125.7500   74.8000 C   0  0  0  0  0  0  0  0  0  0  0  0
  130.5260  126.5410   73.9510 C   0  0  0  0  0  0  0  0  0  0  0  0
  130.5710  127.8290   73.6890 N   0  0  0  0  0  0  0  0  0  0  0  0
  129.5350  128.0610   72.8980 C   0  0  0  0  0  0  0  0  0  0  0  0
  129.2570  129.4510   72.3680 C   0  0  0  0  0  0  0  0  0  0  0  0
  129.9580  130.4520   73.1590 N   0  0  0  0  0  0  0  0  0  0  0  0
  129.0140  131.2890   73.8800 C   0  0  0  0  0  0  0  0  0  0  0  0
  128.8430  126.8770   72.6760 C   0  0  0  0  0  0  0  0  0  0  0  0
  127.6180  126.4810   71.8880 C   0  0  0  0  0  0  0  0  0  0  0  0
  129.4850  125.9010   73.3580 O   0  0  0  0  0  0  0  0  0  0  0  0
  131.0090  124.6450   75.5250 C   0  0  0  0  0  0  0  0  0  0  0  0
  131.8870  123.9090   76.3180 C   0  0  0  0  0  0  0  0  0  0  0  0
  1  2  1  0
  2  3  1  0
  3  4  1  0
  4  5  2  0
  5  6  1  0
  6  7  2  0
  7  8  1  0
  8  9  2  0
  9 10  1  0
 10 11  1  0
 11 12  1  0
 12 13  1  0
 10 14  2  0
 14 15  1  0
 14 16  1  0
  7 17  1  0
 17 18  2  0
 18  4  1  0
 16  8  1  0
M  END
>  <Binding energies>  (50) 
[-5.25]

>  <Ligand effiencies>  (50) 
[-0.27631578947368424]

>  <Interactions>  (50) 
["H-A:LYS:547:NZ:4951, V-B:GLY:544:C:9884, V-B:GLU:543:C:9874, V-B:HIS:456:CD2:9039, V-B:LYS:547:CE:9922, V-A:GLU:543:C:4902, V-B:GLY:544:CA:9886, H-B:LYS:547:NZ:9923, V-A:HIS:456:CD2:4068, V-A:HIS:456:CB:4065, H-A:GLU:543:O:4903, H-A:GLY:544:O:4913, V-A:HIS:456:CG:4066, V-A:HIS:456:C:4061, V-A:VAL:458:CG2:4087, V-A:VAL:457:C:4073, V-A:VAL:457:CA:4075, H-A:LYS:471:NZ:4221, V-A:LYS:547:CE:4950, V-A:ASP:473:CG:4240, V-A:LYS:471:CG:4218, V-A:LYS:471:CD:4219, V-A:LYS:471:C:4213, V-A:LYS:471:CB:4217, V-A:LYS:471:CA:4215, V-A:LEU:472:CA:4228, V-A:VAL:458:CB:4085"]

$$$$
RR3_Rahimova_2017
     RDKit          3D

 38 44  0  0  0  0  0  0  0  0999 V2000
  131.0840  121.3580   61.0160 C   0  0  0  0  0  0  0  0  0  0  0  0
  132.0810  122.1800   61.5310 C   0  0  0  0  0  0  0  0  0  0  0  0
  131.7860  123.0490   62.5780 C   0  0  0  0  0  0  0  0  0  0  0  0
  130.4940  123.1070   63.1230 C   0  0  0  0  0  0  0  0  0  0  0  0
  130.1790  124.0410   64.2490 C   0  0  0  0  0  0  0  0  0  0  0  0
  129.8850  125.3900   64.0060 C   0  0  0  0  0  0  0  0  0  0  0  0
  129.5950  126.2590   65.0540 C   0  0  0  0  0  0  0  0  0  0  0  0
  129.6000  125.7990   66.3740 C   0  0  0  0  0  0  0  0  0  0  0  0
  129.2940  126.7300   67.5060 C   0  0  0  0  0  0  0  0  0  0  0  0
  129.8190  126.5100   68.7070 N   0  0  0  0  0  0  0  0  0  0  0  0
  129.4200  127.4950   69.4750 C   0  0  0  0  0  0  0  0  0  0  0  0
  129.7640  127.6530   70.8860 C   0  0  0  0  0  0  0  0  0  0  0  0
  131.0450  127.7470   71.4020 C   0  0  0  0  0  0  0  0  0  0  0  0
  130.9970  127.8970   72.7630 N   0  0  0  0  0  0  0  0  0  0  0  0
  129.6870  127.9060   73.1880 C   0  0  0  0  0  0  0  0  0  0  0  0
  129.1430  128.0320   74.4710 C   0  0  0  0  0  0  0  0  0  0  0  0
  127.7530  128.0020   74.5750 C   0  0  0  0  0  0  0  0  0  0  0  0
  126.9370  127.8510   73.4590 C   0  0  0  0  0  0  0  0  0  0  0  0
  127.4780  127.7260   72.1810 C   0  0  0  0  0  0  0  0  0  0  0  0
  128.8750  127.7500   72.0200 C   0  0  0  0  0  0  0  0  0  0  0  0
  128.6240  128.3650   68.7820 N   0  0  0  0  0  0  0  0  0  0  0  0
  128.5000  127.8890   67.5030 C   0  0  0  0  0  0  0  0  0  0  0  0
  127.6490  128.5520   66.4700 C   0  0  0  0  0  0  0  0  0  0  0  0
  128.1800  128.8590   65.2160 C   0  0  0  0  0  0  0  0  0  0  0  0
  127.3940  129.4880   64.2560 C   0  0  0  0  0  0  0  0  0  0  0  0
  126.0580  129.8220   64.5240 C   0  0  0  0  0  0  0  0  0  0  0  0
  125.2220  130.5170   63.4960 C   0  0  0  0  0  0  0  0  0  0  0  0
  124.9350  129.9030   62.2670 C   0  0  0  0  0  0  0  0  0  0  0  0
  124.1530  130.5480   61.3120 C   0  0  0  0  0  0  0  0  0  0  0  0
  123.6480  131.8170   61.5770 C   0  0  0  0  0  0  0  0  0  0  0  0
  123.9180  132.4430   62.7890 C   0  0  0  0  0  0  0  0  0  0  0  0
  124.7020  131.7970   63.7410 C   0  0  0  0  0  0  0  0  0  0  0  0
  125.5320  129.4930   65.7810 C   0  0  0  0  0  0  0  0  0  0  0  0
  126.3150  128.8630   66.7440 C   0  0  0  0  0  0  0  0  0  0  0  0
  129.8780  124.4540   66.6250 C   0  0  0  0  0  0  0  0  0  0  0  0
  130.1680  123.5880   65.5750 C   0  0  0  0  0  0  0  0  0  0  0  0
  129.5050  122.2700   62.5870 C   0  0  0  0  0  0  0  0  0  0  0  0
  129.7960  121.3990   61.5400 C   0  0  0  0  0  0  0  0  0  0  0  0
  1  2  2  0
  2  3  1  0
  3  4  2  0
  4  5  1  0
  5  6  2  0
  6  7  1  0
  7  8  2  0
  8  9  1  0
  9 10  1  0
 10 11  2  0
 11 12  1  0
 12 13  2  0
 13 14  1  0
 14 15  1  0
 15 16  2  0
 16 17  1  0
 17 18  2  0
 18 19  1  0
 19 20  2  0
 11 21  1  0
 21 22  1  0
 22 23  1  0
 23 24  2  0
 24 25  1  0
 25 26  2  0
 26 27  1  0
 27 28  2  0
 28 29  1  0
 29 30  2  0
 30 31  1  0
 31 32  2  0
 26 33  1  0
 33 34  2  0
  8 35  1  0
 35 36  2  0
  4 37  1  0
 37 38  2  0
 38  1  1  0
 36  5  1  0
 22  9  2  0
 34 23  1  0
 20 12  1  0
 32 27  1  0
 20 15  1  0
M  END
>  <Binding energies>  (51) 
[-9.71]

>  <Ligand effiencies>  (51) 
[-0.24275000000000002]

>  <Interactions>  (51) 
["V-B:TYR:539:CE2:9848, V-B:ASP:366:CG:8184, V-B:TYR:539:CD2:9846, V-B:ALA:541:CB:9864, V-B:GLU:543:CG:9879, V-A:LEU:475:CD2:4259, V-A:TYR:484:CZ:4347, V-B:GLU:543:CB:9878, V-A:GLU:543:CD:4908, V-A:TYR:484:CE2:4346, V-B:GLU:543:CD:9880, V-B:HIS:456:CE1:9041, V-A:GLY:544:C:4912, V-B:HIS:456:CD2:9039, V-B:LYS:547:CE:9922, V-A:HIS:456:CE1:4070, V-A:GLU:543:CG:4907, V-A:GLU:543:CB:4906, V-B:HIS:456:CG:9037, V-B:TYR:484:CZ:9318, V-A:HIS:456:CD2:4068, V-B:HIS:456:CB:9036, H-B:HIS:456:NE2:9042, H-A:GLU:543:O:4903, H-A:GLY:544:O:4913, V-B:ILE:369:CG2:8208, V-B:GLU:543:CA:9876, V-B:GLY:454:CA:9020"]

$$$$
RR4_Rahimova_2017
     RDKit          3D

 40 44  0  0  0  0  0  0  0  0999 V2000
  127.7990  128.3710   74.1630 C   0  0  0  0  0  0  0  0  0  0  0  0
  128.5470  127.3100   73.5800 O   0  0  0  0  0  0  0  0  0  0  0  0
  128.7310  127.2870   72.2110 C   0  0  0  0  0  0  0  0  0  0  0  0
  127.6330  126.9140   71.4390 C   0  0  0  0  0  0  0  0  0  0  0  0
  127.7250  126.8650   70.0510 C   0  0  0  0  0  0  0  0  0  0  0  0
  128.9220  127.1850   69.3930 C   0  0  0  0  0  0  0  0  0  0  0  0
  129.0180  127.1290   67.8960 C   0  0  0  0  0  0  0  0  0  0  0  0
  129.8260  126.2070   67.2220 C   0  0  0  0  0  0  0  0  0  0  0  0
  129.8780  126.1930   65.8220 C   0  0  0  0  0  0  0  0  0  0  0  0
  130.7420  125.1610   65.1720 C   0  0  0  0  0  0  0  0  0  0  0  0
  132.1020  125.4110   64.9690 C   0  0  0  0  0  0  0  0  0  0  0  0
  132.9170  124.4510   64.3740 C   0  0  0  0  0  0  0  0  0  0  0  0
  132.3890  123.2220   63.9780 C   0  0  0  0  0  0  0  0  0  0  0  0
  133.2720  122.3310   63.3980 O   0  0  0  0  0  0  0  0  0  0  0  0
  133.9910  122.7250   62.2330 C   0  0  0  0  0  0  0  0  0  0  0  0
  131.0260  122.9650   64.1840 C   0  0  0  0  0  0  0  0  0  0  0  0
  130.2140  123.9270   64.7800 C   0  0  0  0  0  0  0  0  0  0  0  0
  129.1180  127.1510   65.1080 C   0  0  0  0  0  0  0  0  0  0  0  0
  129.1350  127.1790   63.6430 C   0  0  0  0  0  0  0  0  0  0  0  0
  129.1500  127.2020   62.4860 N   0  0  0  0  0  0  0  0  0  0  0  0
  128.3460  128.0720   65.8530 C   0  0  0  0  0  0  0  0  0  0  0  0
  127.3420  129.3490   65.1260 S   0  0  0  0  0  0  0  0  0  0  0  0
  128.4270  130.7680   64.7560 C   0  0  0  0  0  0  0  0  0  0  0  0
  128.3630  131.2570   63.3030 C   0  0  0  0  0  0  0  0  0  0  0  0
  127.3330  131.7730   62.8610 O   0  0  0  0  0  0  0  0  0  0  0  0
  129.4950  131.0600   62.5890 N   0  0  0  0  0  0  0  0  0  0  0  0
  129.7500  131.3940   61.2560 C   0  0  0  0  0  0  0  0  0  0  0  0
  128.4860  131.7080   60.0980 S   0  0  0  0  0  0  0  0  0  0  0  0
  129.6400  132.0020   58.8340 C   0  0  0  0  0  0  0  0  0  0  0  0
  130.9580  131.8580   59.2940 C   0  0  0  0  0  0  0  0  0  0  0  0
  131.0180  131.5290   60.6700 C   0  0  0  0  0  0  0  0  0  0  0  0
  132.2700  131.3420   61.3980 C   0  0  0  0  0  0  0  0  0  0  0  0
  133.2630  131.1930   61.9740 N   0  0  0  0  0  0  0  0  0  0  0  0
  132.1600  132.1040   58.3760 C   0  0  0  0  0  0  0  0  0  0  0  0
  131.7300  132.8790   57.1100 C   0  0  0  0  0  0  0  0  0  0  0  0
  130.4470  132.3030   56.4850 C   0  0  0  0  0  0  0  0  0  0  0  0
  129.2340  132.4320   57.4300 C   0  0  0  0  0  0  0  0  0  0  0  0
  128.2890  128.0430   67.2060 N   0  0  0  0  0  0  0  0  0  0  0  0
  130.0210  127.5630   70.1800 C   0  0  0  0  0  0  0  0  0  0  0  0
  129.9330  127.6140   71.5680 C   0  0  0  0  0  0  0  0  0  0  0  0
  1  2  1  0
  2  3  1  0
  3  4  2  0
  4  5  1  0
  5  6  2  0
  6  7  1  0
  7  8  2  0
  8  9  1  0
  9 10  1  0
 10 11  2  0
 11 12  1  0
 12 13  2  0
 13 14  1  0
 14 15  1  0
 13 16  1  0
 16 17  2  0
  9 18  2  0
 18 19  1  0
 19 20  3  0
 18 21  1  0
 21 22  1  0
 22 23  1  0
 23 24  1  0
 24 25  2  0
 24 26  1  0
 26 27  1  0
 27 28  1  0
 28 29  1  0
 29 30  2  0
 30 31  1  0
 31 32  1  0
 32 33  3  0
 30 34  1  0
 34 35  1  0
 35 36  1  0
 36 37  1  0
 21 38  2  0
  6 39  1  0
 39 40  2  0
 40  3  1  0
 38  7  1  0
 17 10  1  0
 31 27  2  0
 37 29  1  0
M  END
>  <Binding energies>  (52) 
[-10.99]

>  <Ligand effiencies>  (52) 
[-0.2680487804878049]

>  <Interactions>  (52) 
["V-A:LEU:363:CD1:3189, V-A:PRO:540:CA:4883, V-A:PRO:540:CB:4885, V-A:PRO:540:CD:4887, V-A:PRO:540:CG:4886, V-A:PRO:540:N:4884, V-A:MET:535:CE:4835, V-A:ILE:369:CD1:3239, V-B:GLU:543:CG:9879, V-A:LEU:475:CD2:4259, V-B:GLU:543:CB:9878, H-A:TYR:484:OH:4348, V-A:GLU:543:CD:4908, V-A:TYR:484:CE2:4346, V-A:GLY:454:CA:4049, V-A:ARG:545:CZ:4926, V-B:GLU:543:CD:9880, V-B:HIS:456:CE1:9041, V-B:GLY:544:C:9884, V-B:GLU:543:C:9874, V-B:HIS:456:CD2:9039, V-A:HIS:456:CE1:4070, V-A:GLU:543:CG:4907, V-B:GLY:544:CA:9886, H-B:LYS:547:NZ:9923, H-A:GLU:543:OE1:4909, H-B:TYR:484:OH:9319, H-A:ARG:545:NH2:4928, H-A:GLY:454:N:4050, V-A:ILE:538:CB:4862"]

$$$$
RR6_Rahimova_2017
     RDKit          3D

 38 41  0  0  0  0  0  0  0  0999 V2000
  131.5250  132.1800   56.1560 C   0  0  0  0  0  0  0  0  0  0  0  0
  130.9570  133.2490   56.9000 O   0  0  0  0  0  0  0  0  0  0  0  0
  129.6880  133.1710   57.3770 C   0  0  0  0  0  0  0  0  0  0  0  0
  128.6940  133.4920   56.7190 O   0  0  0  0  0  0  0  0  0  0  0  0
  129.6140  132.6550   58.7860 C   0  0  0  0  0  0  0  0  0  0  0  0
  130.7340  132.1300   59.4450 C   0  0  0  0  0  0  0  0  0  0  0  0
  130.6310  131.6520   60.7500 C   0  0  0  0  0  0  0  0  0  0  0  0
  129.3970  131.6890   61.4170 C   0  0  0  0  0  0  0  0  0  0  0  0
  129.1760  131.2080   62.7210 N   0  0  0  0  0  0  0  0  0  0  0  0
  128.2840  131.6250   63.6470 C   0  0  0  0  0  0  0  0  0  0  0  0
  127.4680  132.5340   63.4940 O   0  0  0  0  0  0  0  0  0  0  0  0
  128.3680  130.9260   65.0080 C   0  0  0  0  0  0  0  0  0  0  0  0
  127.3430  129.4210   65.1220 S   0  0  0  0  0  0  0  0  0  0  0  0
  128.3700  128.1550   65.8400 C   0  0  0  0  0  0  0  0  0  0  0  0
  128.4110  128.1720   67.1940 N   0  0  0  0  0  0  0  0  0  0  0  0
  129.1370  127.2360   67.8570 C   0  0  0  0  0  0  0  0  0  0  0  0
  129.0810  127.2870   69.3550 C   0  0  0  0  0  0  0  0  0  0  0  0
  130.1940  127.6980   70.1060 C   0  0  0  0  0  0  0  0  0  0  0  0
  130.1460  127.7320   71.4970 C   0  0  0  0  0  0  0  0  0  0  0  0
  128.9790  127.3610   72.1650 C   0  0  0  0  0  0  0  0  0  0  0  0
  128.9350  127.3910   73.6820 C   0  0  0  0  0  0  0  0  0  0  0  0
  127.8640  126.9530   71.4380 C   0  0  0  0  0  0  0  0  0  0  0  0
  127.9170  126.9210   70.0480 C   0  0  0  0  0  0  0  0  0  0  0  0
  129.8550  126.2610   67.1580 C   0  0  0  0  0  0  0  0  0  0  0  0
  129.8320  126.2250   65.7560 C   0  0  0  0  0  0  0  0  0  0  0  0
  130.6060  125.1450   65.0740 C   0  0  0  0  0  0  0  0  0  0  0  0
  129.9760  123.9510   64.7120 C   0  0  0  0  0  0  0  0  0  0  0  0
  130.6870  122.9450   64.0620 C   0  0  0  0  0  0  0  0  0  0  0  0
  132.0360  123.1160   63.7560 C   0  0  0  0  0  0  0  0  0  0  0  0
  132.6600  122.0660   63.1090 O   0  0  0  0  0  0  0  0  0  0  0  0
  133.8680  122.3110   62.3960 C   0  0  0  0  0  0  0  0  0  0  0  0
  132.6720  124.3150   64.1130 C   0  0  0  0  0  0  0  0  0  0  0  0
  131.9580  125.3180   64.7630 C   0  0  0  0  0  0  0  0  0  0  0  0
  129.0710  127.2040   65.0710 C   0  0  0  0  0  0  0  0  0  0  0  0
  129.0260  127.2420   63.6050 C   0  0  0  0  0  0  0  0  0  0  0  0
  128.9900  127.2700   62.4490 N   0  0  0  0  0  0  0  0  0  0  0  0
  128.2840  132.2260   60.7700 C   0  0  0  0  0  0  0  0  0  0  0  0
  128.3890  132.7010   59.4650 C   0  0  0  0  0  0  0  0  0  0  0  0
  1  2  1  0
  2  3  1  0
  3  4  2  0
  3  5  1  0
  5  6  2  0
  6  7  1  0
  7  8  2  0
  8  9  1  0
  9 10  1  0
 10 11  2  0
 10 12  1  0
 12 13  1  0
 13 14  1  0
 14 15  2  0
 15 16  1  0
 16 17  1  0
 17 18  2  0
 18 19  1  0
 19 20  2  0
 20 21  1  0
 20 22  1  0
 22 23  2  0
 16 24  2  0
 24 25  1  0
 25 26  1  0
 26 27  2  0
 27 28  1  0
 28 29  2  0
 29 30  1  0
 30 31  1  0
 29 32  1  0
 32 33  2  0
 25 34  2  0
 34 35  1  0
 35 36  3  0
  8 37  1  0
 37 38  2  0
 38  5  1  0
 34 14  1  0
 23 17  1  0
 33 26  1  0
M  END
>  <Binding energies>  (53) 
[-10.08]

>  <Ligand effiencies>  (53) 
[-0.25846153846153846]

>  <Interactions>  (53) 
["V-A:LEU:363:CD1:3189, V-A:PRO:540:CA:4883, V-A:PRO:540:CB:4885, V-A:PRO:540:N:4884, V-A:TYR:539:C:4867, H-A:TYR:539:N:4870, V-A:ILE:369:CD1:3239, V-B:GLU:543:CG:9879, V-A:LEU:475:CD2:4259, V-B:GLU:543:CB:9878, V-A:GLU:543:CD:4908, V-A:GLY:454:CA:4049, V-A:ARG:545:CZ:4926, V-B:GLU:543:CD:9880, V-B:HIS:456:CE1:9041, V-B:GLY:544:C:9884, V-B:GLU:543:C:9874, V-A:HIS:456:CE1:4070, V-A:GLU:543:CG:4907, V-A:GLU:543:CB:4906, H-A:GLU:543:OE1:4909, V-B:TYR:484:CZ:9318, H-B:TYR:484:OH:9319, V-A:TYR:539:CE1:4875, V-A:TYR:539:CD1:4873, V-A:TYR:539:CA:4869, V-B:TYR:484:CE2:9317, V-A:ILE:538:CG2:4863, V-A:ILE:538:CB:4862"]

$$$$
RR7_Rahimova_2017
     RDKit          3D

 47 53  0  0  0  0  0  0  0  0999 V2000
  133.1260  131.5300   61.6650 C   0  0  0  0  0  0  0  0  0  0  0  0
  133.0260  131.6470   60.2490 O   0  0  0  0  0  0  0  0  0  0  0  0
  131.8160  131.3830   59.6360 C   0  0  0  0  0  0  0  0  0  0  0  0
  130.6840  131.4230   60.4480 C   0  0  0  0  0  0  0  0  0  0  0  0
  129.4220  131.1760   59.9190 C   0  0  0  0  0  0  0  0  0  0  0  0
  129.2620  130.8690   58.5590 C   0  0  0  0  0  0  0  0  0  0  0  0
  127.8550  130.6200   57.9320 C   0  0  0  0  0  0  0  0  0  0  0  0
  127.7700  129.2000   57.6740 O   0  0  0  0  0  0  0  0  0  0  0  0
  127.8750  128.7070   56.3340 C   0  0  0  0  0  0  0  0  0  0  0  0
  129.1870  127.9180   56.1930 C   0  0  1  0  0  0  0  0  0  0  0  0
  129.8220  127.9410   57.4680 O   0  0  0  0  0  0  0  0  0  0  0  0
  130.0320  126.6530   57.9710 C   0  0  1  0  0  0  0  0  0  0  0  0
  129.9230  126.6570   59.4180 N   0  0  0  0  0  0  0  0  0  0  0  0
  128.9710  127.2880   60.1990 C   0  0  0  0  0  0  0  0  0  0  0  0
  129.1350  127.1660   61.4930 N   0  0  0  0  0  0  0  0  0  0  0  0
  130.2950  126.4480   61.6080 C   0  0  0  0  0  0  0  0  0  0  0  0
  131.0180  125.9990   62.7300 C   0  0  0  0  0  0  0  0  0  0  0  0
  130.5210  126.2890   64.0140 N   0  0  0  0  0  0  0  0  0  0  0  0
  130.0070  125.4440   64.9400 C   0  0  0  0  0  0  0  0  0  0  0  0
  129.8770  124.2290   64.7750 O   0  0  0  0  0  0  0  0  0  0  0  0
  129.5500  126.0870   66.2320 C   0  0  0  0  0  0  0  0  0  0  0  0
  128.8010  127.2740   66.1890 C   0  0  0  0  0  0  0  0  0  0  0  0
  128.3660  127.8790   67.3640 C   0  0  0  0  0  0  0  0  0  0  0  0
  128.6710  127.3010   68.5920 C   0  0  0  0  0  0  0  0  0  0  0  0
  129.4080  126.1220   68.6560 C   0  0  0  0  0  0  0  0  0  0  0  0
  129.8460  125.5160   67.4810 C   0  0  0  0  0  0  0  0  0  0  0  0
  132.1790  125.3020   62.5410 N   0  0  0  0  0  0  0  0  0  0  0  0
  132.5810  125.0750   61.2630 C   0  0  0  0  0  0  0  0  0  0  0  0
  131.9620  125.4570   60.1140 N   0  0  0  0  0  0  0  0  0  0  0  0
  130.8250  126.1320   60.3300 C   0  0  0  0  0  0  0  0  0  0  0  0
  129.0180  125.7710   57.2520 C   0  0  0  0  0  0  0  0  0  0  0  0
  129.0160  126.4240   55.8810 C   0  0  2  0  0  0  0  0  0  0  0  0
  130.0500  125.9220   55.0510 O   0  0  0  0  0  0  0  0  0  0  0  0
  126.7020  130.9720   58.9080 C   0  0  0  0  0  0  0  0  0  0  0  0
  126.6240  132.2530   59.4800 C   0  0  0  0  0  0  0  0  0  0  0  0
  125.6030  132.5750   60.3680 C   0  0  0  0  0  0  0  0  0  0  0  0
  124.6470  131.6190   60.6950 C   0  0  0  0  0  0  0  0  0  0  0  0
  124.7040  130.3440   60.1400 C   0  0  0  0  0  0  0  0  0  0  0  0
  125.7270  130.0210   59.2530 C   0  0  0  0  0  0  0  0  0  0  0  0
  127.5490  131.4040   56.6240 C   0  0  0  0  0  0  0  0  0  0  0  0
  128.3980  132.4390   56.2010 C   0  0  0  0  0  0  0  0  0  0  0  0
  128.1270  133.1520   55.0370 C   0  0  0  0  0  0  0  0  0  0  0  0
  126.9960  132.8430   54.2870 C   0  0  0  0  0  0  0  0  0  0  0  0
  126.1340  131.8300   54.6940 C   0  0  0  0  0  0  0  0  0  0  0  0
  126.4060  131.1180   55.8580 C   0  0  0  0  0  0  0  0  0  0  0  0
  130.4020  130.8440   57.7430 C   0  0  0  0  0  0  0  0  0  0  0  0
  131.6660  131.0920   58.2730 C   0  0  0  0  0  0  0  0  0  0  0  0
  1  2  1  0
  2  3  1  0
  3  4  2  0
  4  5  1  0
  5  6  2  0
  6  7  1  0
  7  8  1  0
  8  9  1  0
 10  9  1  1
 10 11  1  0
 11 12  1  0
 12 13  1  1
 13 14  1  0
 14 15  2  0
 15 16  1  0
 16 17  2  0
 17 18  1  0
 18 19  1  0
 19 20  2  0
 19 21  1  0
 21 22  2  0
 22 23  1  0
 23 24  2  0
 24 25  1  0
 25 26  2  0
 17 27  1  0
 27 28  2  0
 28 29  1  0
 29 30  2  0
 12 31  1  0
 31 32  1  0
 32 33  1  6
  7 34  1  0
 34 35  2  0
 35 36  1  0
 36 37  2  0
 37 38  1  0
 38 39  2  0
  7 40  1  0
 40 41  2  0
 41 42  1  0
 42 43  2  0
 43 44  1  0
 44 45  2  0
  6 46  1  0
 46 47  2  0
 47  3  1  0
 32 10  1  0
 39 34  1  0
 45 40  1  0
 30 13  1  0
 30 16  1  0
 26 21  1  0
M  END
>  <Binding energies>  (54) 
[-9.27]

>  <Ligand effiencies>  (54) 
[-0.18918367346938775]

>  <Interactions>  (54) 
["V-A:ASP:366:CG:3213, H-A:TYR:531:OH:4795, V-A:PRO:540:CA:4883, H-B:TYR:539:OH:9850, V-A:PRO:540:CB:4885, V-B:ASP:366:CB:8183, H-B:TYR:531:OH:9767, V-B:ASP:366:CG:8184, H-A:ASN:370:ND2:3248, V-A:MET:535:CE:4835, V-B:GLU:543:CG:9879, V-B:GLU:543:CB:9878, V-A:GLU:543:CD:4908, V-B:GLU:543:CD:9880, V-B:HIS:456:CE1:9041, V-B:GLU:543:C:9874, V-A:HIS:456:CE1:4070, V-A:GLU:543:CB:4906, H-A:GLU:543:OE1:4909, H-A:GLU:543:OE2:4910, V-A:TYR:539:CE1:4875, V-A:TYR:539:CZ:4877, H-A:ARG:545:NH2:4928, V-B:GLU:543:CA:9876, V-A:TYR:539:CD1:4873, V-A:TYR:539:CD2:4874, V-A:ILE:538:CA:4860, V-A:TYR:539:CG:4872, V-A:TYR:539:CE2:4876, V-A:ASN:362:CB:3176"]

$$$$
RR8_A_Rahimova_2017
     RDKit          3D

 42 46  0  0  0  0  0  0  0  0999 V2000
  134.1170  123.5310   57.4150 O   0  0  0  0  0  0  0  0  0  0  0  0
  133.4720  124.2730   58.1640 C   0  0  0  0  0  0  0  0  0  0  0  0
  132.7590  125.3640   57.7440 O   0  0  0  0  0  0  0  0  0  0  0  0
  131.6910  125.7870   58.5460 C   0  0  1  0  0  0  0  0  0  0  0  0
  132.1050  126.7070   59.5140 O   0  0  0  0  0  0  0  0  0  0  0  0
  131.1390  127.7350   59.7150 C   0  0  2  0  0  0  0  0  0  0  0  0
  130.7650  127.7710   61.2070 C   0  0  0  0  0  0  0  0  0  0  0  0
  130.7720  126.4430   61.7140 O   0  0  0  0  0  0  0  0  0  0  0  0
  129.5050  125.9970   62.1800 C   0  0  0  0  0  0  0  0  0  0  0  0
  129.2120  124.6100   61.6290 C   0  0  0  0  0  0  0  0  0  0  0  0
  129.0890  124.4200   60.2500 C   0  0  0  0  0  0  0  0  0  0  0  0
  128.8270  123.1490   59.7420 C   0  0  0  0  0  0  0  0  0  0  0  0
  128.6920  122.0710   60.6140 C   0  0  0  0  0  0  0  0  0  0  0  0
  128.8180  122.2510   61.9900 C   0  0  0  0  0  0  0  0  0  0  0  0
  129.0820  123.5210   62.4980 C   0  0  0  0  0  0  0  0  0  0  0  0
  129.9990  127.3580   58.7590 C   0  0  1  0  0  0  0  0  0  0  0  0
  129.4020  128.4870   58.1250 O   0  0  0  0  0  0  0  0  0  0  0  0
  129.5410  129.7250   58.8130 C   0  0  0  0  0  0  0  0  0  0  0  0
  130.2400  130.7400   57.9190 C   0  0  0  0  0  0  0  0  0  0  0  0
  129.5860  131.9280   57.5750 C   0  0  0  0  0  0  0  0  0  0  0  0
  130.2160  132.8560   56.7510 C   0  0  0  0  0  0  0  0  0  0  0  0
  131.4970  132.5950   56.2690 C   0  0  0  0  0  0  0  0  0  0  0  0
  132.1530  131.4120   56.6010 C   0  0  0  0  0  0  0  0  0  0  0  0
  131.5230  130.4820   57.4240 C   0  0  0  0  0  0  0  0  0  0  0  0
  130.7010  126.5540   57.6800 C   0  0  2  0  0  0  0  0  0  0  0  0
  129.7720  125.7180   56.9940 O   0  0  0  0  0  0  0  0  0  0  0  0
  128.3990  126.0520   57.1630 C   0  0  0  0  0  0  0  0  0  0  0  0
  127.5450  124.7960   57.0700 C   0  0  0  0  0  0  0  0  0  0  0  0
  126.2740  124.7650   57.6530 C   0  0  0  0  0  0  0  0  0  0  0  0
  125.4920  123.6170   57.5570 C   0  0  0  0  0  0  0  0  0  0  0  0
  125.9800  122.5040   56.8740 C   0  0  0  0  0  0  0  0  0  0  0  0
  127.2430  122.5300   56.2860 C   0  0  0  0  0  0  0  0  0  0  0  0
  128.0260  123.6780   56.3820 C   0  0  0  0  0  0  0  0  0  0  0  0
  133.3820  124.0580   59.6470 C   0  0  0  0  0  0  0  0  0  0  0  0
  132.3450  123.3100   60.2260 C   0  0  0  0  0  0  0  0  0  0  0  0
  132.2890  123.1300   61.6060 C   0  0  0  0  0  0  0  0  0  0  0  0
  133.2630  123.6920   62.4400 C   0  0  0  0  0  0  0  0  0  0  0  0
  133.2030  123.4970   63.9090 N   0  0  0  0  0  0  0  0  0  0  0  0
  133.6400  124.3820   64.6390 O   0  0  0  0  0  0  0  0  0  0  0  0
  132.7160  122.4580   64.3450 O   0  0  0  0  0  0  0  0  0  0  0  0
  134.2960  124.4400   61.8610 C   0  0  0  0  0  0  0  0  0  0  0  0
  134.3540  124.6220   60.4830 C   0  0  0  0  0  0  0  0  0  0  0  0
  1  2  2  0
  2  3  1  0
  4  3  1  6
  4  5  1  0
  5  6  1  0
  6  7  1  1
  7  8  1  0
  8  9  1  0
  9 10  1  0
 10 11  2  0
 11 12  1  0
 12 13  2  0
 13 14  1  0
 14 15  2  0
  6 16  1  0
 16 17  1  6
 17 18  1  0
 18 19  1  0
 19 20  2  0
 20 21  1  0
 21 22  2  0
 22 23  1  0
 23 24  2  0
 16 25  1  0
 25 26  1  1
 26 27  1  0
 27 28  1  0
 28 29  2  0
 29 30  1  0
 30 31  2  0
 31 32  1  0
 32 33  2  0
  2 34  1  0
 34 35  2  0
 35 36  1  0
 36 37  2  0
 37 38  1  0
 38 39  2  0
 38 40  1  0
 37 41  1  0
 41 42  2  0
 25  4  1  0
 33 28  1  0
 42 34  1  0
 15 10  1  0
 24 19  1  0
M  CHG  2  38   1  40  -1
M  END
>  <Binding energies>  (55) 
[-9.25]

>  <Ligand effiencies>  (55) 
[-0.22023809523809523]

>  <Interactions>  (55) 
["V-A:LEU:363:CD1:3189, V-A:ASP:366:CG:3213, H-A:TYR:531:OH:4795, H-B:TYR:539:OH:9850, V-A:ASP:366:CB:3212, V-B:TYR:539:CZ:9849, V-B:PRO:540:N:9856, V-B:TYR:539:CE1:9847, V-B:PRO:540:CB:9857, V-B:TYR:539:CD1:9845, V-B:PRO:540:CA:9855, V-B:TYR:539:CE2:9848, V-B:PRO:540:CD:9859, V-B:LEU:363:CD1:8160, V-B:TYR:539:C:9839, V-B:TYR:539:CG:9844, V-B:PRO:540:C:9853, V-B:TYR:539:CD2:9846, V-B:ALA:541:CB:9864, V-A:ASP:366:C:3208, V-A:ASP:366:CA:3210, V-A:ILE:369:CD1:3239, H-A:ASN:370:N:3244, V-A:ILE:369:CB:3236, V-A:ILE:369:CG2:3237, H-A:TYR:484:OH:4348, V-A:GLY:454:CA:4049, V-A:TYR:531:CZ:4794, H-A:GLY:454:N:4050, V-A:ILE:538:CA:4860, V-A:TYR:531:CE2:4793, V-A:ILE:538:CG2:4863, V-A:ILE:538:CB:4862"]

$$$$
RR8_B_Rahimova_2017
     RDKit          3D

 42 46  0  0  0  0  0  0  0  0999 V2000
  125.3540  128.3420   58.5580 O   0  0  0  0  0  0  0  0  0  0  0  0
  126.3050  127.5660   58.6970 C   0  0  0  0  0  0  0  0  0  0  0  0
  127.4330  127.8470   59.4180 O   0  0  0  0  0  0  0  0  0  0  0  0
  127.3500  127.8100   60.8210 C   0  0  2  0  0  0  0  0  0  0  0  0
  128.2710  128.6770   61.4210 O   0  0  0  0  0  0  0  0  0  0  0  0
  129.5030  128.0160   61.7040 C   0  0  2  0  0  0  0  0  0  0  0  0
  130.6540  128.7440   60.9870 C   0  0  0  0  0  0  0  0  0  0  0  0
  130.1120  129.7080   60.0930 O   0  0  0  0  0  0  0  0  0  0  0  0
  130.6960  131.0000   60.1800 C   0  0  0  0  0  0  0  0  0  0  0  0
  130.6420  131.6660   58.8140 C   0  0  0  0  0  0  0  0  0  0  0  0
  129.4600  132.2800   58.3870 C   0  0  0  0  0  0  0  0  0  0  0  0
  129.3970  132.8710   57.1280 C   0  0  0  0  0  0  0  0  0  0  0  0
  130.5170  132.8480   56.2990 C   0  0  0  0  0  0  0  0  0  0  0  0
  131.7000  132.2450   56.7200 C   0  0  0  0  0  0  0  0  0  0  0  0
  131.7630  131.6500   57.9780 C   0  0  0  0  0  0  0  0  0  0  0  0
  129.2650  126.5660   61.2650 C   0  0  1  0  0  0  0  0  0  0  0  0
  129.9520  125.6730   62.1470 O   0  0  0  0  0  0  0  0  0  0  0  0
  131.3730  125.8030   62.2260 C   0  0  0  0  0  0  0  0  0  0  0  0
  132.0800  125.1610   61.0360 C   0  0  0  0  0  0  0  0  0  0  0  0
  131.8880  125.6720   59.7490 C   0  0  0  0  0  0  0  0  0  0  0  0
  132.5590  125.1050   58.6690 C   0  0  0  0  0  0  0  0  0  0  0  0
  133.4160  124.0260   58.8780 C   0  0  0  0  0  0  0  0  0  0  0  0
  133.6080  123.5090   60.1580 C   0  0  0  0  0  0  0  0  0  0  0  0
  132.9390  124.0780   61.2390 C   0  0  0  0  0  0  0  0  0  0  0  0
  127.7490  126.4210   61.3180 C   0  0  2  0  0  0  0  0  0  0  0  0
  127.3210  125.3610   60.4660 O   0  0  0  0  0  0  0  0  0  0  0  0
  126.8160  124.2100   61.1250 C   0  0  0  0  0  0  0  0  0  0  0  0
  127.9600  123.2270   61.3090 C   0  0  0  0  0  0  0  0  0  0  0  0
  128.5090  122.5690   60.2050 C   0  0  0  0  0  0  0  0  0  0  0  0
  129.5440  121.6560   60.3880 C   0  0  0  0  0  0  0  0  0  0  0  0
  130.0250  121.4040   61.6710 C   0  0  0  0  0  0  0  0  0  0  0  0
  129.4830  122.0580   62.7750 C   0  0  0  0  0  0  0  0  0  0  0  0
  128.4490  122.9710   62.5940 C   0  0  0  0  0  0  0  0  0  0  0  0
  126.3600  126.2110   58.0520 C   0  0  0  0  0  0  0  0  0  0  0  0
  127.5280  125.7290   57.4440 C   0  0  0  0  0  0  0  0  0  0  0  0
  127.5470  124.4730   56.8480 C   0  0  0  0  0  0  0  0  0  0  0  0
  126.3990  123.6720   56.8330 C   0  0  0  0  0  0  0  0  0  0  0  0
  126.4140  122.3440   56.1720 N   0  0  0  0  0  0  0  0  0  0  0  0
  127.4330  121.9900   55.5840 O   0  0  0  0  0  0  0  0  0  0  0  0
  125.4090  121.6410   56.2410 O   0  0  0  0  0  0  0  0  0  0  0  0
  125.2340  124.1520   57.4460 C   0  0  0  0  0  0  0  0  0  0  0  0
  125.2160  125.4050   58.0500 C   0  0  0  0  0  0  0  0  0  0  0  0
  1  2  2  0
  2  3  1  0
  4  3  1  6
  4  5  1  0
  5  6  1  0
  6  7  1  6
  7  8  1  0
  8  9  1  0
  9 10  1  0
 10 11  2  0
 11 12  1  0
 12 13  2  0
 13 14  1  0
 14 15  2  0
  6 16  1  0
 16 17  1  1
 17 18  1  0
 18 19  1  0
 19 20  2  0
 20 21  1  0
 21 22  2  0
 22 23  1  0
 23 24  2  0
 16 25  1  0
 25 26  1  6
 26 27  1  0
 27 28  1  0
 28 29  2  0
 29 30  1  0
 30 31  2  0
 31 32  1  0
 32 33  2  0
  2 34  1  0
 34 35  2  0
 35 36  1  0
 36 37  2  0
 37 38  1  0
 38 39  2  0
 38 40  1  0
 37 41  1  0
 41 42  2  0
 25  4  1  0
 33 28  1  0
 42 34  1  0
 15 10  1  0
 24 19  1  0
M  CHG  2  38   1  40  -1
M  END
>  <Binding energies>  (56) 
[-9.23]

>  <Ligand effiencies>  (56) 
[-0.21976190476190477]

>  <Interactions>  (56) 
["V-A:LEU:363:CD1:3189, V-A:ASP:366:CG:3213, V-A:PRO:540:CA:4883, V-A:PRO:540:CB:4885, V-A:ASP:366:CB:3212, V-B:TYR:539:CZ:9849, V-B:PRO:540:N:9856, V-B:PRO:540:CA:9855, V-B:TYR:539:CE2:9848, H-B:TYR:539:N:9842, V-B:ASP:366:CB:8183, H-B:TYR:531:OH:9767, V-B:PRO:540:CD:9859, V-B:ASP:366:CG:8184, V-B:MET:535:CE:9807, V-B:LEU:363:CD1:8160, V-B:TYR:539:C:9839, V-B:TYR:539:CD2:9846, V-B:TYR:531:CE2:9765, V-B:ALA:541:CB:9864, V-A:ASP:366:CA:3210, V-A:ILE:369:CD1:3239, V-B:GLU:543:CG:9879, V-A:ILE:369:CB:3236, V-A:ILE:369:CG2:3237, V-A:LEU:475:CD2:4259, V-B:ILE:538:CG2:9835, V-A:ILE:538:CA:4860, V-A:ILE:538:CG2:4863, V-A:ILE:538:CB:4862, V-B:ILE:538:CA:9832"]

$$$$
RR9_Rahimova_2017
     RDKit          3D

 36 40  0  0  0  0  0  0  0  0999 V2000
  129.8820  127.5800   73.1230 C   0  0  0  0  0  0  0  0  0  0  0  0
  129.5770  128.8310   72.2930 C   0  0  0  0  0  0  0  0  0  0  0  0
  128.6570  128.4820   71.2620 O   0  0  0  0  0  0  0  0  0  0  0  0
  129.0990  127.7470   70.1790 C   0  0  0  0  0  0  0  0  0  0  0  0
  130.4130  127.9660   69.7710 C   0  0  0  0  0  0  0  0  0  0  0  0
  130.9450  127.2720   68.6890 C   0  0  0  0  0  0  0  0  0  0  0  0
  130.1740  126.3370   67.9810 C   0  0  0  0  0  0  0  0  0  0  0  0
  130.7400  125.5900   66.8110 C   0  0  0  0  0  0  0  0  0  0  0  0
  129.9570  124.7020   66.0560 C   0  0  0  0  0  0  0  0  0  0  0  0
  130.4880  124.0140   64.9510 C   0  0  0  0  0  0  0  0  0  0  0  0
  129.5720  123.1560   64.1210 C   0  0  0  0  0  0  0  0  0  0  0  0
  129.6020  121.9300   64.2270 O   0  0  0  0  0  0  0  0  0  0  0  0
  128.7650  123.8160   63.2670 N   0  0  0  0  0  0  0  0  0  0  0  0
  127.8840  123.2020   62.2690 C   0  0  0  0  0  0  0  0  0  0  0  0
  128.5050  123.1670   60.8530 C   0  0  0  0  0  0  0  0  0  0  0  0
  127.4980  123.2670   59.7130 C   0  0  0  0  0  0  0  0  0  0  0  0
  127.8050  122.7350   58.4560 C   0  0  0  0  0  0  0  0  0  0  0  0
  126.8690  122.7970   57.4270 C   0  0  0  0  0  0  0  0  0  0  0  0
  125.6320  123.3940   57.6560 C   0  0  0  0  0  0  0  0  0  0  0  0
  125.3200  123.9310   58.9040 C   0  0  0  0  0  0  0  0  0  0  0  0
  126.2560  123.8680   59.9340 C   0  0  0  0  0  0  0  0  0  0  0  0
  131.8580  124.2420   64.6700 C   0  0  0  0  0  0  0  0  0  0  0  0
  132.8640  123.7960   63.7350 C   0  0  0  0  0  0  0  0  0  0  0  0
  132.7740  122.7550   62.6680 C   0  0  0  0  0  0  0  0  0  0  0  0
  131.5950  122.6040   61.9320 C   0  0  0  0  0  0  0  0  0  0  0  0
  131.5070  121.6220   60.9480 C   0  0  0  0  0  0  0  0  0  0  0  0
  132.5990  120.7910   60.6940 C   0  0  0  0  0  0  0  0  0  0  0  0
  132.4970  119.7080   59.6350 C   0  0  0  0  0  0  0  0  0  0  0  0
  133.7770  120.9380   61.4280 C   0  0  0  0  0  0  0  0  0  0  0  0
  133.8640  121.9210   62.4090 C   0  0  0  0  0  0  0  0  0  0  0  0
  133.9960  124.4320   63.9370 N   0  0  0  0  0  0  0  0  0  0  0  0
  133.8310  125.2440   64.9940 N   0  0  0  0  0  0  0  0  0  0  0  0
  132.5510  125.1620   65.4910 C   0  0  0  0  0  0  0  0  0  0  0  0
  132.0520  125.8260   66.5330 N   0  0  0  0  0  0  0  0  0  0  0  0
  128.8520  126.1240   68.3970 C   0  0  0  0  0  0  0  0  0  0  0  0
  128.3180  126.8160   69.4810 C   0  0  0  0  0  0  0  0  0  0  0  0
  1  2  1  0
  2  3  1  0
  3  4  1  0
  4  5  2  0
  5  6  1  0
  6  7  2  0
  7  8  1  0
  8  9  2  0
  9 10  1  0
 10 11  1  0
 11 12  2  0
 11 13  1  0
 13 14  1  0
 14 15  1  0
 15 16  1  0
 16 17  2  0
 17 18  1  0
 18 19  2  0
 19 20  1  0
 20 21  2  0
 10 22  2  0
 22 23  1  0
 23 24  1  0
 24 25  2  0
 25 26  1  0
 26 27  2  0
 27 28  1  0
 27 29  1  0
 29 30  2  0
 23 31  2  0
 31 32  1  0
 32 33  1  0
 33 34  2  0
  7 35  1  0
 35 36  2  0
 36  4  1  0
 34  8  1  0
 21 16  1  0
 33 22  1  0
 30 24  1  0
M  END
>  <Binding energies>  (57) 
[-9.07]

>  <Ligand effiencies>  (57) 
[-0.2386842105263158]

>  <Interactions>  (57) 
["V-B:PRO:540:N:9856, V-B:PRO:540:CB:9857, V-B:PRO:540:CA:9855, V-B:TYR:539:CE2:9848, V-B:PRO:540:CD:9859, V-B:TYR:539:C:9839, V-B:TYR:539:CG:9844, H-B:GLU:543:OE1:9881, V-B:TYR:539:CD2:9846, V-B:ALA:541:CB:9864, V-A:ILE:369:CD1:3239, V-B:GLU:543:CG:9879, V-A:ILE:369:CG2:3237, V-A:LEU:475:CD2:4259, V-A:GLY:453:CA:4044, V-B:GLU:543:CB:9878, H-A:TYR:484:OH:4348, V-A:TYR:484:CE2:4346, H-A:ARG:545:NE:4924, V-A:GLY:454:CA:4049, V-A:ARG:545:CZ:4926, V-B:GLU:543:CD:9880, V-B:HIS:456:CE1:9041, V-B:GLU:543:C:9874, V-B:HIS:456:CD2:9039, V-A:HIS:456:CE1:4070, V-A:GLU:543:C:4902, V-A:GLU:543:CB:4906, V-A:ARG:545:CG:4922, H-A:ARG:545:NH2:4928, V-B:GLU:543:CA:9876, H-A:GLY:454:N:4050, V-A:ARG:545:CD:4923, V-A:SER:385:CA:3407, V-A:SER:385:CB:3409, V-A:SER:385:C:3405"]

$$$$
1a_Ghoteimi_2023
     RDKit          3D

 40 43  0  0  0  0  0  0  0  0999 V2000
  131.3070  131.4470   56.2000 C   0  0  0  0  0  0  0  0  0  0  0  0
  131.7570  132.9050   56.3390 C   0  0  0  0  0  0  0  0  0  0  0  0
  130.9960  133.5370   57.3620 O   0  0  0  0  0  0  0  0  0  0  0  0
  129.6940  133.2120   57.5700 C   0  0  0  0  0  0  0  0  0  0  0  0
  128.8180  133.3270   56.7080 O   0  0  0  0  0  0  0  0  0  0  0  0
  129.4270  132.6940   58.9540 C   0  0  0  0  0  0  0  0  0  0  0  0
  128.1700  132.8200   59.5640 C   0  0  0  0  0  0  0  0  0  0  0  0
  127.9530  132.3330   60.8500 C   0  0  0  0  0  0  0  0  0  0  0  0
  128.9930  131.7030   61.5500 C   0  0  0  0  0  0  0  0  0  0  0  0
  128.8860  131.1790   62.8520 N   0  0  0  0  0  0  0  0  0  0  0  0
  128.2730  131.6880   63.9430 C   0  0  0  0  0  0  0  0  0  0  0  0
  127.6530  132.7510   63.9850 O   0  0  0  0  0  0  0  0  0  0  0  0
  128.3740  130.8390   65.2100 C   0  0  0  0  0  0  0  0  0  0  0  0
  127.3900  129.3180   65.0810 S   0  0  0  0  0  0  0  0  0  0  0  0
  128.3600  128.0340   65.8390 C   0  0  0  0  0  0  0  0  0  0  0  0
  128.3080  128.0340   67.1920 N   0  0  0  0  0  0  0  0  0  0  0  0
  129.0020  127.0990   67.8940 C   0  0  0  0  0  0  0  0  0  0  0  0
  128.8780  127.1510   69.3890 C   0  0  0  0  0  0  0  0  0  0  0  0
  127.6600  126.8710   70.0300 C   0  0  0  0  0  0  0  0  0  0  0  0
  127.5480  126.9200   71.4160 C   0  0  0  0  0  0  0  0  0  0  0  0
  128.6460  127.2510   72.2060 C   0  0  0  0  0  0  0  0  0  0  0  0
  128.4440  127.2720   73.5720 O   0  0  0  0  0  0  0  0  0  0  0  0
  127.8050  128.3990   74.1620 C   0  0  0  0  0  0  0  0  0  0  0  0
  129.8680  127.5370   71.5810 C   0  0  0  0  0  0  0  0  0  0  0  0
  129.9770  127.4880   70.1940 C   0  0  0  0  0  0  0  0  0  0  0  0
  129.7730  126.1370   67.2290 C   0  0  0  0  0  0  0  0  0  0  0  0
  129.8610  126.1330   65.8310 C   0  0  0  0  0  0  0  0  0  0  0  0
  130.7270  125.0970   65.1920 C   0  0  0  0  0  0  0  0  0  0  0  0
  130.2010  123.8580   64.8090 C   0  0  0  0  0  0  0  0  0  0  0  0
  131.0110  122.9040   64.2010 C   0  0  0  0  0  0  0  0  0  0  0  0
  132.3580  123.1690   63.9560 C   0  0  0  0  0  0  0  0  0  0  0  0
  133.0830  122.1630   63.3480 O   0  0  0  0  0  0  0  0  0  0  0  0
  133.8390  122.4610   62.1790 C   0  0  0  0  0  0  0  0  0  0  0  0
  132.8880  124.4130   64.3310 C   0  0  0  0  0  0  0  0  0  0  0  0
  132.0760  125.3660   64.9410 C   0  0  0  0  0  0  0  0  0  0  0  0
  129.1320  127.1070   65.1070 C   0  0  0  0  0  0  0  0  0  0  0  0
  129.1730  127.1440   63.6410 C   0  0  0  0  0  0  0  0  0  0  0  0
  129.2050  127.1720   62.4850 N   0  0  0  0  0  0  0  0  0  0  0  0
  130.2450  131.5790   60.9480 C   0  0  0  0  0  0  0  0  0  0  0  0
  130.4610  132.0670   59.6610 C   0  0  0  0  0  0  0  0  0  0  0  0
  1  2  1  0
  2  3  1  0
  3  4  1  0
  4  5  2  0
  4  6  1  0
  6  7  2  0
  7  8  1  0
  8  9  2  0
  9 10  1  0
 10 11  1  0
 11 12  2  0
 11 13  1  0
 13 14  1  0
 14 15  1  0
 15 16  2  0
 16 17  1  0
 17 18  1  0
 18 19  2  0
 19 20  1  0
 20 21  2  0
 21 22  1  0
 22 23  1  0
 21 24  1  0
 24 25  2  0
 17 26  2  0
 26 27  1  0
 27 28  1  0
 28 29  2  0
 29 30  1  0
 30 31  2  0
 31 32  1  0
 32 33  1  0
 31 34  1  0
 34 35  2  0
 27 36  2  0
 36 37  1  0
 37 38  3  0
  9 39  1  0
 39 40  2  0
 40  6  1  0
 36 15  1  0
 25 18  1  0
 35 28  1  0
M  END
>  <Binding energies>  (58) 
[-10.39]

>  <Ligand effiencies>  (58) 
[-0.25341463414634147]

>  <Interactions>  (58) 
["V-A:LEU:363:CD1:3189, V-A:PRO:540:CA:4883, V-A:PRO:540:CB:4885, V-A:PRO:540:CD:4887, V-A:PRO:540:N:4884, V-A:TYR:539:C:4867, H-A:TYR:539:N:4870, V-A:MET:535:CE:4835, V-A:ILE:369:CD1:3239, V-B:GLU:543:CG:9879, V-A:LEU:475:CD2:4259, V-B:GLU:543:CB:9878, V-A:GLU:543:CD:4908, V-A:TYR:484:CE2:4346, V-A:GLY:454:CA:4049, V-A:ARG:545:CZ:4926, V-B:GLU:543:CD:9880, V-B:HIS:456:CE1:9041, V-B:GLY:544:C:9884, V-B:GLU:543:C:9874, V-B:HIS:456:CD2:9039, V-A:HIS:456:CE1:4070, V-A:GLU:543:CG:4907, V-A:GLU:543:CB:4906, V-A:TYR:531:CZ:4794, V-B:GLY:544:CA:9886, H-B:LYS:547:NZ:9923, H-A:GLU:543:OE1:4909, V-B:TYR:484:CZ:9318, H-B:TYR:484:OH:9319, V-A:TYR:539:CE1:4875, H-A:GLY:454:N:4050, V-A:TYR:539:CD1:4873, V-A:ILE:538:CA:4860, V-A:TYR:539:CA:4869, V-A:TYR:531:CE2:4793, V-B:TYR:484:CE2:9317, V-A:ILE:538:CG2:4863, V-A:ILE:538:CB:4862"]

$$$$
1b_Ghoteimi_2023
     RDKit          3D

 34 37  0  0  0  0  0  0  0  0999 V2000
  130.6030  126.5520   75.0460 C   0  0  0  0  0  0  0  0  0  0  0  0
  129.5550  127.2300   74.3630 O   0  0  0  0  0  0  0  0  0  0  0  0
  129.5520  127.2480   72.9820 C   0  0  0  0  0  0  0  0  0  0  0  0
  128.3770  126.8400   72.3540 C   0  0  0  0  0  0  0  0  0  0  0  0
  128.2820  126.8240   70.9660 C   0  0  0  0  0  0  0  0  0  0  0  0
  129.3610  127.2200   70.1610 C   0  0  0  0  0  0  0  0  0  0  0  0
  129.2550  127.1990   68.6620 C   0  0  0  0  0  0  0  0  0  0  0  0
  129.9340  126.2720   67.8640 C   0  0  0  0  0  0  0  0  0  0  0  0
  129.7980  126.2930   66.4700 C   0  0  0  0  0  0  0  0  0  0  0  0
  130.5560  125.2760   65.6810 C   0  0  0  0  0  0  0  0  0  0  0  0
  131.8910  125.5030   65.3360 C   0  0  0  0  0  0  0  0  0  0  0  0
  132.6000  124.5620   64.5940 C   0  0  0  0  0  0  0  0  0  0  0  0
  131.9870  123.3800   64.1780 C   0  0  0  0  0  0  0  0  0  0  0  0
  132.7660  122.5050   63.4450 O   0  0  0  0  0  0  0  0  0  0  0  0
  133.2400  122.9050   62.1640 C   0  0  0  0  0  0  0  0  0  0  0  0
  130.6440  123.1520   64.5140 C   0  0  0  0  0  0  0  0  0  0  0  0
  129.9390  124.0950   65.2560 C   0  0  0  0  0  0  0  0  0  0  0  0
  128.9490  127.2670   65.8890 C   0  0  0  0  0  0  0  0  0  0  0  0
  128.6980  127.2710   64.4450 C   0  0  0  0  0  0  0  0  0  0  0  0
  128.5010  127.2720   63.3050 N   0  0  0  0  0  0  0  0  0  0  0  0
  128.3090  128.1870   66.7510 C   0  0  0  0  0  0  0  0  0  0  0  0
  127.2170  129.4800   66.1990 S   0  0  0  0  0  0  0  0  0  0  0  0
  127.2960  129.5450   64.3780 C   0  0  0  0  0  0  0  0  0  0  0  0
  128.1790  130.6620   63.8050 C   0  0  0  0  0  0  0  0  0  0  0  0
  128.0030  131.8370   64.1370 O   0  0  0  0  0  0  0  0  0  0  0  0
  129.1260  130.2430   62.9360 N   0  0  0  0  0  0  0  0  0  0  0  0
  130.0610  131.0250   62.2680 C   0  0  0  0  0  0  0  0  0  0  0  0
  130.3080  130.9160   60.9000 C   0  0  0  0  0  0  0  0  0  0  0  0
  131.2850  131.8490   60.6370 C   0  0  0  0  0  0  0  0  0  0  0  0
  131.6070  132.4890   61.7870 O   0  0  0  0  0  0  0  0  0  0  0  0
  130.8250  131.9580   62.8130 N   0  0  0  0  0  0  0  0  0  0  0  0
  128.4470  128.1340   68.0970 N   0  0  0  0  0  0  0  0  0  0  0  0
  130.5400  127.6270   70.8040 C   0  0  0  0  0  0  0  0  0  0  0  0
  130.6400  127.6430   72.1910 C   0  0  0  0  0  0  0  0  0  0  0  0
  1  2  1  0
  2  3  1  0
  3  4  2  0
  4  5  1  0
  5  6  2  0
  6  7  1  0
  7  8  2  0
  8  9  1  0
  9 10  1  0
 10 11  2  0
 11 12  1  0
 12 13  2  0
 13 14  1  0
 14 15  1  0
 13 16  1  0
 16 17  2  0
  9 18  2  0
 18 19  1  0
 19 20  3  0
 18 21  1  0
 21 22  1  0
 22 23  1  0
 23 24  1  0
 24 25  2  0
 24 26  1  0
 26 27  1  0
 27 28  1  0
 28 29  2  0
 29 30  1  0
 30 31  1  0
 21 32  2  0
  6 33  1  0
 33 34  2  0
 34  3  1  0
 32  7  1  0
 17 10  1  0
 31 27  2  0
M  END
>  <Binding energies>  (59) 
[-8.67]

>  <Ligand effiencies>  (59) 
[-0.24771428571428572]

>  <Interactions>  (59) 
["V-A:PRO:540:CA:4883, V-A:PRO:540:CB:4885, V-B:GLU:543:CG:9879, V-A:LEU:475:CD2:4259, V-A:TYR:484:CZ:4347, V-B:GLU:543:CB:9878, H-A:TYR:484:OH:4348, V-A:GLU:543:CD:4908, V-A:TYR:484:CE2:4346, V-A:ARG:545:CZ:4926, V-B:GLU:543:CD:9880, V-B:HIS:456:CE1:9041, V-A:GLY:544:C:4912, H-A:LYS:547:NZ:4951, V-B:GLU:543:C:9874, V-A:HIS:456:CE1:4070, V-A:GLU:543:CG:4907, V-A:GLU:543:CB:4906, H-B:LYS:547:NZ:9923, H-A:GLU:543:OE1:4909, H-B:TYR:484:OH:9319, V-A:HIS:456:CD2:4068, H-A:ALA:541:N:4891, H-A:GLY:454:N:4050"]

$$$$
1c_Ghoteimi_2023
     RDKit          3D

 34 37  0  0  0  0  0  0  0  0999 V2000
  126.1970  122.3820   56.5740 C   0  0  0  0  0  0  0  0  0  0  0  0
  125.7190  122.8300   57.8380 O   0  0  0  0  0  0  0  0  0  0  0  0
  126.6270  123.1380   58.8330 C   0  0  0  0  0  0  0  0  0  0  0  0
  127.9460  122.7490   58.6180 C   0  0  0  0  0  0  0  0  0  0  0  0
  128.9270  123.0160   59.5690 C   0  0  0  0  0  0  0  0  0  0  0  0
  128.6170  123.6790   60.7660 C   0  0  0  0  0  0  0  0  0  0  0  0
  129.6700  123.9650   61.7970 C   0  0  0  0  0  0  0  0  0  0  0  0
  129.3800  124.5520   63.0330 C   0  0  0  0  0  0  0  0  0  0  0  0
  130.3930  124.7740   63.9730 C   0  0  0  0  0  0  0  0  0  0  0  0
  130.0010  125.3420   65.2970 C   0  0  0  0  0  0  0  0  0  0  0  0
  130.2630  124.6410   66.4780 C   0  0  0  0  0  0  0  0  0  0  0  0
  129.8770  125.1620   67.7090 C   0  0  0  0  0  0  0  0  0  0  0  0
  129.2190  126.3900   67.7840 C   0  0  0  0  0  0  0  0  0  0  0  0
  128.8740  126.8290   69.0480 O   0  0  0  0  0  0  0  0  0  0  0  0
  129.4730  128.0160   69.5580 C   0  0  0  0  0  0  0  0  0  0  0  0
  128.9480  127.0930   66.6000 C   0  0  0  0  0  0  0  0  0  0  0  0
  129.3350  126.5700   65.3690 C   0  0  0  0  0  0  0  0  0  0  0  0
  131.7190  124.4190   63.6320 C   0  0  0  0  0  0  0  0  0  0  0  0
  132.8300  124.6570   64.5600 C   0  0  0  0  0  0  0  0  0  0  0  0
  133.7050  124.8450   65.2930 N   0  0  0  0  0  0  0  0  0  0  0  0
  131.9390  123.8150   62.3760 C   0  0  0  0  0  0  0  0  0  0  0  0
  133.5210  123.1650   61.8850 S   0  0  0  0  0  0  0  0  0  0  0  0
  133.2470  122.4840   60.2170 C   0  0  0  0  0  0  0  0  0  0  0  0
  132.8140  121.0140   60.2570 C   0  0  0  0  0  0  0  0  0  0  0  0
  133.6300  120.1320   59.9870 O   0  0  0  0  0  0  0  0  0  0  0  0
  131.5350  120.8010   60.6400 N   0  0  0  0  0  0  0  0  0  0  0  0
  130.9430  119.5770   60.9050 C   0  0  0  0  0  0  0  0  0  0  0  0
  130.0730  119.2870   61.8480 N   0  0  0  0  0  0  0  0  0  0  0  0
  129.6890  118.0270   61.7820 C   0  0  0  0  0  0  0  0  0  0  0  0
  130.2520  117.2650   60.7630 C   0  0  0  0  0  0  0  0  0  0  0  0
  131.3450  118.2610   59.8490 S   0  0  0  0  0  0  0  0  0  0  0  0
  130.9390  123.5880   61.4900 N   0  0  0  0  0  0  0  0  0  0  0  0
  127.2850  124.0720   60.9690 C   0  0  0  0  0  0  0  0  0  0  0  0
  126.3010  123.8060   60.0220 C   0  0  0  0  0  0  0  0  0  0  0  0
  1  2  1  0
  2  3  1  0
  3  4  2  0
  4  5  1  0
  5  6  2  0
  6  7  1  0
  7  8  2  0
  8  9  1  0
  9 10  1  0
 10 11  2  0
 11 12  1  0
 12 13  2  0
 13 14  1  0
 14 15  1  0
 13 16  1  0
 16 17  2  0
  9 18  2  0
 18 19  1  0
 19 20  3  0
 18 21  1  0
 21 22  1  0
 22 23  1  0
 23 24  1  0
 24 25  2  0
 24 26  1  0
 26 27  1  0
 27 28  2  0
 28 29  1  0
 29 30  2  0
 30 31  1  0
 21 32  2  0
  6 33  1  0
 33 34  2  0
 34  3  1  0
 32  7  1  0
 17 10  1  0
 31 27  1  0
M  END
>  <Binding energies>  (60) 
[-8.77]

>  <Ligand effiencies>  (60) 
[-0.25057142857142856]

>  <Interactions>  (60) 
["V-B:PRO:540:N:9856, V-B:PRO:540:CB:9857, V-B:PRO:540:CA:9855, V-B:TYR:539:CE2:9848, V-B:PRO:540:CD:9859, V-B:MET:535:CE:9807, V-B:TYR:539:C:9839, V-B:TYR:539:CG:9844, V-B:TYR:539:CD2:9846, V-B:ALA:541:CB:9864, V-B:GLU:543:CG:9879, V-A:ILE:369:CG2:3237, V-A:LEU:475:CD2:4259, V-A:TYR:484:CZ:4347, V-B:GLU:543:CB:9878, H-A:TYR:484:OH:4348, V-A:GLU:543:CD:4908, V-A:TYR:484:CE2:4346, H-A:ARG:545:NE:4924, V-A:ARG:545:CZ:4926, V-B:GLU:543:CD:9880, V-B:HIS:456:CE1:9041, V-A:HIS:456:CE1:4070, V-A:GLU:543:CB:4906, H-A:ARG:545:NH2:4928, V-B:GLU:543:CA:9876, H-A:GLY:454:N:4050, V-B:TYR:539:CB:9843, H-A:SER:385:OG:3410, V-A:HIS:383:NE2:3394, V-A:LEU:475:CG:4257, V-A:HIS:383:CD2:3392, V-A:HIS:383:CE1:3393, V-A:LEU:475:CD1:4258, V-A:PRO:482:CB:4326, V-A:PRO:482:CG:4327"]

$$$$
1d_Ghoteimi_2023
     RDKit          3D

 30 32  0  0  0  0  0  0  0  0999 V2000
  131.7730  126.1730   59.1600 C   0  0  0  0  0  0  0  0  0  0  0  0
  132.0850  124.9410   58.5290 O   0  0  0  0  0  0  0  0  0  0  0  0
  133.3250  124.4180   58.6230 C   0  0  0  0  0  0  0  0  0  0  0  0
  133.9650  123.8910   57.7110 O   0  0  0  0  0  0  0  0  0  0  0  0
  133.8980  124.5340   60.0330 C   0  0  0  0  0  0  0  0  0  0  0  0
  133.2750  123.1230   60.9950 S   0  0  0  0  0  0  0  0  0  0  0  0
  131.7220  123.6220   61.7050 C   0  0  0  0  0  0  0  0  0  0  0  0
  130.6670  123.4750   60.8680 N   0  0  0  0  0  0  0  0  0  0  0  0
  129.4210  123.8210   61.2810 C   0  0  0  0  0  0  0  0  0  0  0  0
  128.3070  123.6210   60.2950 C   0  0  0  0  0  0  0  0  0  0  0  0
  128.5270  122.9760   59.0680 C   0  0  0  0  0  0  0  0  0  0  0  0
  127.4940  122.7970   58.1530 C   0  0  0  0  0  0  0  0  0  0  0  0
  126.2100  123.2580   58.4330 C   0  0  0  0  0  0  0  0  0  0  0  0
  125.2480  123.0400   57.4650 O   0  0  0  0  0  0  0  0  0  0  0  0
  125.6140  122.3710   56.2630 C   0  0  0  0  0  0  0  0  0  0  0  0
  125.9740  123.9040   59.6540 C   0  0  0  0  0  0  0  0  0  0  0  0
  127.0100  124.0800   60.5680 C   0  0  0  0  0  0  0  0  0  0  0  0
  129.2110  124.3220   62.5710 C   0  0  0  0  0  0  0  0  0  0  0  0
  130.2860  124.4990   63.4520 C   0  0  0  0  0  0  0  0  0  0  0  0
  129.9910  125.0450   64.8120 C   0  0  0  0  0  0  0  0  0  0  0  0
  129.4330  126.3200   64.9530 C   0  0  0  0  0  0  0  0  0  0  0  0
  129.1560  126.8350   66.2160 C   0  0  0  0  0  0  0  0  0  0  0  0
  129.4260  126.0870   67.3620 C   0  0  0  0  0  0  0  0  0  0  0  0
  129.1250  126.6800   68.5730 O   0  0  0  0  0  0  0  0  0  0  0  0
  128.7920  128.0640   68.6050 C   0  0  0  0  0  0  0  0  0  0  0  0
  129.9740  124.8020   67.2250 C   0  0  0  0  0  0  0  0  0  0  0  0
  130.2490  124.2890   65.9600 C   0  0  0  0  0  0  0  0  0  0  0  0
  131.5870  124.1600   63.0050 C   0  0  0  0  0  0  0  0  0  0  0  0
  132.7590  124.4220   63.8460 C   0  0  0  0  0  0  0  0  0  0  0  0
  133.6830  124.6300   64.5110 N   0  0  0  0  0  0  0  0  0  0  0  0
  1  2  1  0
  2  3  1  0
  3  4  2  0
  3  5  1  0
  5  6  1  0
  6  7  1  0
  7  8  2  0
  8  9  1  0
  9 10  1  0
 10 11  2  0
 11 12  1  0
 12 13  2  0
 13 14  1  0
 14 15  1  0
 13 16  1  0
 16 17  2  0
  9 18  2  0
 18 19  1  0
 19 20  1  0
 20 21  2  0
 21 22  1  0
 22 23  2  0
 23 24  1  0
 24 25  1  0
 23 26  1  0
 26 27  2  0
 19 28  2  0
 28 29  1  0
 29 30  3  0
 28  7  1  0
 17 10  1  0
 27 20  1  0
M  END
>  <Binding energies>  (61) 
[-7.82]

>  <Ligand effiencies>  (61) 
[-0.26066666666666666]

>  <Interactions>  (61) 
["V-A:ASP:366:CG:3213, H-B:TYR:539:OH:9850, V-A:ASP:366:CB:3212, V-B:TYR:539:CZ:9849, V-B:PRO:540:N:9856, V-B:PRO:540:CB:9857, V-B:PRO:540:CA:9855, V-B:TYR:539:CE2:9848, V-B:PRO:540:CD:9859, V-B:MET:535:CE:9807, V-B:LEU:363:CD1:8160, V-B:TYR:539:C:9839, V-B:TYR:539:CD2:9846, V-A:ASP:366:CA:3210, V-A:ILE:369:CD1:3239, V-B:GLU:543:CG:9879, H-A:ASN:370:N:3244, V-A:ILE:369:CG2:3237, V-A:TYR:484:CZ:4347, V-B:GLU:543:CB:9878, H-A:TYR:484:OH:4348, V-A:GLU:543:CD:4908, V-A:TYR:484:CE2:4346, H-A:ARG:545:NE:4924, V-B:GLU:543:CD:9880, V-B:HIS:456:CE1:9041, V-A:HIS:456:CE1:4070, V-A:GLU:543:CB:4906, H-A:ARG:545:NH2:4928, V-B:GLU:543:CA:9876, H-A:GLY:454:N:4050, V-B:ILE:538:CG2:9835"]

$$$$
1j_Grossjean_2025
     RDKit          3D

 20 21  0  0  0  0  0  0  0  0999 V2000
  126.6530  127.8140   59.0460 C   0  0  0  0  0  0  0  0  0  0  0  0
  126.5750  126.4800   58.3280 C   0  0  0  0  0  0  0  0  0  0  0  0
  127.5250  126.1050   57.3810 C   0  0  0  0  0  0  0  0  0  0  0  0
  127.4100  124.8570   56.7600 C   0  0  0  0  0  0  0  0  0  0  0  0
  128.4740  124.4610   55.7380 C   0  0  0  0  0  0  0  0  0  0  0  0
  126.3290  124.0130   57.1020 C   0  0  0  0  0  0  0  0  0  0  0  0
  126.2180  122.6800   56.5030 C   0  0  0  0  0  0  0  0  0  0  0  0
  126.1340  121.6280   56.0280 N   0  0  0  0  0  0  0  0  0  0  0  0
  125.3960  124.4860   58.0540 C   0  0  0  0  0  0  0  0  0  0  0  0
  123.9780  123.5590   58.5990 S   0  0  0  0  0  0  0  0  0  0  0  0
  123.7470  123.8920   60.3700 C   0  0  0  0  0  0  0  0  0  0  0  0
  124.8800  123.3090   61.2160 C   0  0  0  0  0  0  0  0  0  0  0  0
  124.6090  122.7040   62.2540 O   0  0  0  0  0  0  0  0  0  0  0  0
  126.1280  123.5110   60.7380 N   0  0  0  0  0  0  0  0  0  0  0  0
  127.3160  123.0900   61.3200 C   0  0  0  0  0  0  0  0  0  0  0  0
  127.5250  122.7540   62.5750 N   0  0  0  0  0  0  0  0  0  0  0  0
  128.7790  122.4030   62.7780 C   0  0  0  0  0  0  0  0  0  0  0  0
  129.6200  122.4490   61.6690 C   0  0  0  0  0  0  0  0  0  0  0  0
  128.7060  122.9820   60.2900 S   0  0  0  0  0  0  0  0  0  0  0  0
  125.5290  125.6890   58.6670 N   0  0  0  0  0  0  0  0  0  0  0  0
  1  2  1  0
  2  3  2  0
  3  4  1  0
  4  5  1  0
  4  6  2  0
  6  7  1  0
  7  8  3  0
  6  9  1  0
  9 10  1  0
 10 11  1  0
 11 12  1  0
 12 13  2  0
 12 14  1  0
 14 15  1  0
 15 16  2  0
 16 17  1  0
 17 18  2  0
 18 19  1  0
  9 20  2  0
 20  2  1  0
 19 15  1  0
M  END
>  <Binding energies>  (62) 
[-6.34]

>  <Ligand effiencies>  (62) 
[-0.3019047619047619]

>  <Interactions>  (62) 
["V-B:TYR:539:CZ:9849, V-B:PRO:540:N:9856, V-B:TYR:539:CE1:9847, V-B:PRO:540:CB:9857, V-B:PRO:540:CA:9855, V-B:TYR:539:CE2:9848, H-B:TYR:539:N:9842, H-B:TYR:531:OH:9767, V-B:PRO:540:CD:9859, H-B:ASP:366:OD1:8185, V-B:ASP:366:CG:8184, V-B:MET:535:CE:9807, V-B:PRO:540:C:9853, H-B:ALA:541:N:9863, V-B:LEU:363:CA:8156, V-B:ALA:541:CB:9864, V-B:ALA:541:CA:9862, V-B:ASN:362:CB:8147, V-B:ASN:362:C:8143"]

$$$$
1o_Grossjean_2025
     RDKit          3D

 26 27  0  0  0  0  0  0  0  0999 V2000
  131.4160  132.5910   55.8660 C   0  0  0  0  0  0  0  0  0  0  0  0
  130.7100  133.3360   56.8490 O   0  0  0  0  0  0  0  0  0  0  0  0
  129.5390  132.8800   57.3640 C   0  0  0  0  0  0  0  0  0  0  0  0
  128.6520  133.6230   57.7960 O   0  0  0  0  0  0  0  0  0  0  0  0
  129.4290  131.3830   57.3550 C   0  0  0  0  0  0  0  0  0  0  0  0
  130.4840  130.5580   57.7720 C   0  0  0  0  0  0  0  0  0  0  0  0
  130.3480  129.1720   57.7540 C   0  0  0  0  0  0  0  0  0  0  0  0
  129.1610  128.5830   57.3150 C   0  0  0  0  0  0  0  0  0  0  0  0
  129.1290  127.1750   57.3460 N   0  0  0  0  0  0  0  0  0  0  0  0
  129.2630  126.2840   56.3390 C   0  0  0  0  0  0  0  0  0  0  0  0
  129.4930  126.5700   55.1640 O   0  0  0  0  0  0  0  0  0  0  0  0
  129.1410  124.8070   56.7430 C   0  0  0  0  0  0  0  0  0  0  0  0
  128.1400  124.0180   55.8760 C   0  0  0  0  0  0  0  0  0  0  0  0
  127.5480  122.4820   56.6470 S   0  0  0  0  0  0  0  0  0  0  0  0
  127.3710  122.7610   58.3980 C   0  0  0  0  0  0  0  0  0  0  0  0
  128.3970  122.2610   59.1310 N   0  0  0  0  0  0  0  0  0  0  0  0
  128.3760  122.4210   60.4750 C   0  0  0  0  0  0  0  0  0  0  0  0
  129.5640  121.8490   61.2260 C   0  0  0  0  0  0  0  0  0  0  0  0
  127.3360  123.0680   61.1380 C   0  0  0  0  0  0  0  0  0  0  0  0
  126.2610  123.5650   60.3950 C   0  0  0  0  0  0  0  0  0  0  0  0
  125.1260  124.2580   61.1480 C   0  0  0  0  0  0  0  0  0  0  0  0
  126.2580  123.4060   58.9910 C   0  0  0  0  0  0  0  0  0  0  0  0
  125.1130  123.8670   58.2020 C   0  0  0  0  0  0  0  0  0  0  0  0
  124.2070  124.2330   57.5820 N   0  0  0  0  0  0  0  0  0  0  0  0
  128.1000  129.4020   56.9010 C   0  0  0  0  0  0  0  0  0  0  0  0
  128.2380  130.7880   56.9210 C   0  0  0  0  0  0  0  0  0  0  0  0
  1  2  1  0
  2  3  1  0
  3  4  2  0
  3  5  1  0
  5  6  2  0
  6  7  1  0
  7  8  2  0
  8  9  1  0
  9 10  1  0
 10 11  2  0
 10 12  1  0
 12 13  1  0
 13 14  1  0
 14 15  1  0
 15 16  2  0
 16 17  1  0
 17 18  1  0
 17 19  2  0
 19 20  1  0
 20 21  1  0
 20 22  2  0
 22 23  1  0
 23 24  3  0
  8 25  1  0
 25 26  2  0
 26  5  1  0
 22 15  1  0
M  END
>  <Binding energies>  (63) 
[-7.5]

>  <Ligand effiencies>  (63) 
[-0.2777777777777778]

>  <Interactions>  (63) 
["V-A:LEU:363:CD1:3189, H-A:TYR:531:OH:4795, V-A:PRO:540:N:4884, V-A:TYR:539:C:4867, H-A:TYR:539:N:4870, V-B:TYR:539:CZ:9849, V-B:PRO:540:N:9856, V-B:TYR:539:CE1:9847, V-B:PRO:540:CB:9857, V-B:PRO:540:CA:9855, V-B:TYR:539:CE2:9848, H-B:TYR:539:N:9842, V-B:LEU:363:CD1:8160, V-B:TYR:539:C:9839, V-B:PRO:540:C:9853, V-B:TYR:539:CD2:9846, V-A:MET:535:CE:4835, V-A:ILE:538:CA:4860, V-A:ILE:538:CG2:4863, V-A:ILE:538:CB:4862"]

$$$$
1p_Grossjean_2025
     RDKit          3D

 21 22  0  0  0  0  0  0  0  0999 V2000
  132.0740  125.3150   64.6940 C   0  0  0  0  0  0  0  0  0  0  0  0
  132.4250  124.9270   63.2690 C   0  0  0  0  0  0  0  0  0  0  0  0
  133.2040  123.8060   62.9900 C   0  0  0  0  0  0  0  0  0  0  0  0
  133.5080  123.5040   61.6590 C   0  0  0  0  0  0  0  0  0  0  0  0
  134.3770  122.2790   61.3770 C   0  0  0  0  0  0  0  0  0  0  0  0
  133.0110  124.3360   60.6300 C   0  0  0  0  0  0  0  0  0  0  0  0
  133.3540  124.0690   59.2330 C   0  0  0  0  0  0  0  0  0  0  0  0
  133.6260  123.8560   58.1280 N   0  0  0  0  0  0  0  0  0  0  0  0
  132.2080  125.4400   61.0050 C   0  0  0  0  0  0  0  0  0  0  0  0
  131.4950  126.5790   59.8400 S   0  0  0  0  0  0  0  0  0  0  0  0
  129.9760  125.8070   59.2110 C   0  0  0  0  0  0  0  0  0  0  0  0
  129.9590  124.2720   59.3420 C   0  0  0  0  0  0  0  0  0  0  0  0
  128.6000  123.6420   59.0020 C   0  0  0  0  0  0  0  0  0  0  0  0
  127.8360  123.3160   59.9130 O   0  0  0  0  0  0  0  0  0  0  0  0
  128.3340  123.5030   57.6840 N   0  0  0  0  0  0  0  0  0  0  0  0
  127.1870  122.9690   57.1090 C   0  0  0  0  0  0  0  0  0  0  0  0
  125.9010  123.3970   57.4380 C   0  0  0  0  0  0  0  0  0  0  0  0
  125.0600  122.6320   56.6620 C   0  0  0  0  0  0  0  0  0  0  0  0
  125.8010  121.7870   55.9070 O   0  0  0  0  0  0  0  0  0  0  0  0
  127.1480  122.0090   56.2010 N   0  0  0  0  0  0  0  0  0  0  0  0
  131.9360  125.7370   62.3010 N   0  0  0  0  0  0  0  0  0  0  0  0
  1  2  1  0
  2  3  2  0
  3  4  1  0
  4  5  1  0
  4  6  2  0
  6  7  1  0
  7  8  3  0
  6  9  1  0
  9 10  1  0
 10 11  1  0
 11 12  1  0
 12 13  1  0
 13 14  2  0
 13 15  1  0
 15 16  1  0
 16 17  1  0
 17 18  2  0
 18 19  1  0
 19 20  1  0
  9 21  2  0
 21  2  1  0
 20 16  2  0
M  END
>  <Binding energies>  (64) 
[-7.03]

>  <Ligand effiencies>  (64) 
[-0.3195454545454546]

>  <Interactions>  (64) 
["V-A:ASP:366:CG:3213, H-B:TYR:539:OH:9850, V-B:TYR:539:CZ:9849, V-B:PRO:540:N:9856, V-B:TYR:539:CE1:9847, V-B:PRO:540:CB:9857, V-B:PRO:540:CA:9855, V-B:TYR:539:CE2:9848, H-B:TYR:539:N:9842, V-B:PRO:540:CD:9859, V-B:MET:535:CE:9807, V-B:LEU:363:CD1:8160, V-B:PRO:540:CG:9858, V-B:TYR:539:CD2:9846, V-A:ASP:366:CA:3210, V-A:ILE:369:CD1:3239, V-A:ILE:369:CB:3236, V-A:ILE:369:CG2:3237, V-A:ARG:545:CZ:4926, H-A:ARG:545:NH2:4928, V-B:ILE:538:CG2:9835, V-A:ILE:369:CG1:3238"]

$$$$
2a_Ghoteimi_2023
     RDKit          3D

 48 53  0  0  0  0  0  0  0  0999 V2000
  128.0110  132.5790   56.2030 C   0  0  0  0  0  0  0  0  0  0  0  0
  129.3500  132.9560   55.5610 C   0  0  0  0  0  0  0  0  0  0  0  0
  130.2100  133.5040   56.5510 O   0  0  0  0  0  0  0  0  0  0  0  0
  131.1080  132.7270   57.2090 C   0  0  0  0  0  0  0  0  0  0  0  0
  132.1650  132.3340   56.7060 O   0  0  0  0  0  0  0  0  0  0  0  0
  130.6890  132.3970   58.6140 C   0  0  0  0  0  0  0  0  0  0  0  0
  131.4680  131.5830   59.4490 C   0  0  0  0  0  0  0  0  0  0  0  0
  131.0510  131.2980   60.7460 C   0  0  0  0  0  0  0  0  0  0  0  0
  129.8540  131.8220   61.2370 C   0  0  0  0  0  0  0  0  0  0  0  0
  129.5290  131.4660   62.5600 N   0  0  0  0  0  0  0  0  0  0  0  0
  128.5980  131.9840   63.3910 C   0  0  0  0  0  0  0  0  0  0  0  0
  127.8680  132.9410   63.1300 O   0  0  0  0  0  0  0  0  0  0  0  0
  128.5120  131.3170   64.7700 C   0  0  0  0  0  0  0  0  0  0  0  0
  127.3000  129.9610   64.8770 S   0  0  0  0  0  0  0  0  0  0  0  0
  128.2140  128.5430   65.4380 C   0  0  0  0  0  0  0  0  0  0  0  0
  128.3560  128.4800   66.7830 N   0  0  0  0  0  0  0  0  0  0  0  0
  129.0430  127.4480   67.3330 C   0  0  0  0  0  0  0  0  0  0  0  0
  129.1670  127.4480   68.8230 C   0  0  0  0  0  0  0  0  0  0  0  0
  128.1320  126.9730   69.6370 C   0  0  0  0  0  0  0  0  0  0  0  0
  128.2480  126.9870   71.0240 C   0  0  0  0  0  0  0  0  0  0  0  0
  129.4070  127.4690   71.6500 C   0  0  0  0  0  0  0  0  0  0  0  0
  129.4970  127.5050   73.0450 N   0  0  0  0  0  0  0  0  0  0  0  0
  130.1720  126.4300   73.8010 C   0  0  0  0  0  0  0  0  0  0  0  0
  130.4940  126.8050   75.2630 C   0  0  0  0  0  0  0  0  0  0  0  0
  129.3140  127.2290   75.9270 O   0  0  0  0  0  0  0  0  0  0  0  0
  128.7510  128.3710   75.3030 C   0  0  0  0  0  0  0  0  0  0  0  0
  128.3760  128.0460   73.8410 C   0  0  0  0  0  0  0  0  0  0  0  0
  130.4370  127.9560   70.8290 C   0  0  0  0  0  0  0  0  0  0  0  0
  130.3210  127.9400   69.4420 C   0  0  0  0  0  0  0  0  0  0  0  0
  129.5960  126.4420   66.5370 C   0  0  0  0  0  0  0  0  0  0  0  0
  129.4620  126.4860   65.1420 C   0  0  0  0  0  0  0  0  0  0  0  0
  130.0840  125.3810   64.3510 C   0  0  0  0  0  0  0  0  0  0  0  0
  129.5070  124.1080   64.3480 C   0  0  0  0  0  0  0  0  0  0  0  0
  130.0890  123.0680   63.6300 C   0  0  0  0  0  0  0  0  0  0  0  0
  131.2640  123.2690   62.8900 C   0  0  0  0  0  0  0  0  0  0  0  0
  131.8740  122.2330   62.1770 N   0  0  0  0  0  0  0  0  0  0  0  0
  133.2940  122.3590   61.7930 C   0  0  0  0  0  0  0  0  0  0  0  0
  133.9330  121.0180   61.3730 C   0  0  0  0  0  0  0  0  0  0  0  0
  133.1780  120.4260   60.3270 O   0  0  0  0  0  0  0  0  0  0  0  0
  131.8410  120.1680   60.7260 C   0  0  0  0  0  0  0  0  0  0  0  0
  131.1480  121.4850   61.1330 C   0  0  0  0  0  0  0  0  0  0  0  0
  131.8430  124.5460   62.9080 C   0  0  0  0  0  0  0  0  0  0  0  0
  131.2620  125.5870   63.6270 C   0  0  0  0  0  0  0  0  0  0  0  0
  128.7460  127.5640   64.5690 C   0  0  0  0  0  0  0  0  0  0  0  0
  128.5240  127.6360   63.1210 C   0  0  0  0  0  0  0  0  0  0  0  0
  128.3520  127.6900   61.9780 N   0  0  0  0  0  0  0  0  0  0  0  0
  129.0660  132.6310   60.4050 C   0  0  0  0  0  0  0  0  0  0  0  0
  129.4850  132.9160   59.1080 C   0  0  0  0  0  0  0  0  0  0  0  0
  1  2  1  0
  2  3  1  0
  3  4  1  0
  4  5  2  0
  4  6  1  0
  6  7  2  0
  7  8  1  0
  8  9  2  0
  9 10  1  0
 10 11  1  0
 11 12  2  0
 11 13  1  0
 13 14  1  0
 14 15  1  0
 15 16  2  0
 16 17  1  0
 17 18  1  0
 18 19  2  0
 19 20  1  0
 20 21  2  0
 21 22  1  0
 22 23  1  0
 23 24  1  0
 24 25  1  0
 25 26  1  0
 26 27  1  0
 21 28  1  0
 28 29  2  0
 17 30  2  0
 30 31  1  0
 31 32  1  0
 32 33  2  0
 33 34  1  0
 34 35  2  0
 35 36  1  0
 36 37  1  0
 37 38  1  0
 38 39  1  0
 39 40  1  0
 40 41  1  0
 35 42  1  0
 42 43  2  0
 31 44  2  0
 44 45  1  0
 45 46  3  0
  9 47  1  0
 47 48  2  0
 48  6  1  0
 44 15  1  0
 29 18  1  0
 43 32  1  0
 27 22  1  0
 41 36  1  0
M  END
>  <Binding energies>  (65) 
[-11.91]

>  <Ligand effiencies>  (65) 
[-0.24306122448979592]

>  <Interactions>  (65) 
["V-A:PRO:540:CA:4883, V-A:PRO:540:CB:4885, V-A:PRO:540:CD:4887, V-A:PRO:540:N:4884, V-A:TYR:539:C:4867, H-A:TYR:539:N:4870, V-B:TYR:539:CE2:9848, V-B:TYR:539:CD2:9846, V-A:MET:535:CE:4835, V-A:ILE:369:CD1:3239, V-B:GLU:543:CG:9879, V-A:ILE:369:CG2:3237, V-A:LEU:475:CD2:4259, V-B:GLU:543:CB:9878, V-A:GLU:543:CD:4908, V-B:GLU:543:CD:9880, V-B:HIS:456:CE1:9041, V-A:GLY:544:C:4912, H-A:LYS:547:NZ:4951, V-B:GLU:543:C:9874, V-B:HIS:456:CD2:9039, V-A:HIS:456:CE1:4070, V-A:GLU:543:CG:4907, V-A:GLU:543:C:4902, V-A:GLU:543:CB:4906, H-B:LYS:547:NZ:9923, H-A:GLU:543:OE1:4909, V-B:TYR:484:CZ:9318, H-B:TYR:484:OH:9319, V-A:ALA:541:CB:4892, V-A:HIS:456:CD2:4068, V-A:TYR:539:CE1:4875, V-A:TYR:539:CZ:4877, V-A:TYR:539:CD1:4873, V-A:TYR:539:CD2:4874, V-A:ILE:538:CA:4860, V-A:TYR:539:CE2:4876, V-A:ILE:538:C:4858, V-B:TYR:484:CE2:9317, V-A:ILE:538:CG2:4863, V-A:ILE:538:CB:4862, H-A:SER:385:OG:3410, V-A:SER:385:CA:3407, V-A:SER:385:CB:3409, V-A:SER:385:C:3405"]

$$$$
2aa_Ghoteimi_2023
     RDKit          3D

 48 53  0  0  0  0  0  0  0  0999 V2000
  131.0980  131.3660   55.8110 C   0  0  0  0  0  0  0  0  0  0  0  0
  131.8320  132.5460   56.4580 C   0  0  0  0  0  0  0  0  0  0  0  0
  130.8840  133.5260   56.8610 O   0  0  0  0  0  0  0  0  0  0  0  0
  129.5810  133.2020   57.0620 C   0  0  0  0  0  0  0  0  0  0  0  0
  128.7210  133.2570   56.1760 O   0  0  0  0  0  0  0  0  0  0  0  0
  129.2900  132.7550   58.4660 C   0  0  0  0  0  0  0  0  0  0  0  0
  128.0120  132.8740   59.0320 C   0  0  0  0  0  0  0  0  0  0  0  0
  127.7740  132.4470   60.3340 C   0  0  0  0  0  0  0  0  0  0  0  0
  128.8050  131.9010   61.1000 C   0  0  0  0  0  0  0  0  0  0  0  0
  128.4530  131.4990   62.4030 N   0  0  0  0  0  0  0  0  0  0  0  0
  129.0560  131.7610   63.5830 C   0  0  0  0  0  0  0  0  0  0  0  0
  130.0600  132.4620   63.7240 O   0  0  0  0  0  0  0  0  0  0  0  0
  128.3750  131.1280   64.8030 C   0  0  0  0  0  0  0  0  0  0  0  0
  127.8560  129.8410   64.4510 O   0  0  0  0  0  0  0  0  0  0  0  0
  128.3950  128.6940   65.0170 C   0  0  0  0  0  0  0  0  0  0  0  0
  128.4890  128.6330   66.3750 N   0  0  0  0  0  0  0  0  0  0  0  0
  129.0070  127.5240   66.9600 C   0  0  0  0  0  0  0  0  0  0  0  0
  129.0830  127.5300   68.4540 C   0  0  0  0  0  0  0  0  0  0  0  0
  130.2800  127.8420   69.1080 C   0  0  0  0  0  0  0  0  0  0  0  0
  130.3550  127.8560   70.4980 C   0  0  0  0  0  0  0  0  0  0  0  0
  129.2300  127.5710   71.2880 C   0  0  0  0  0  0  0  0  0  0  0  0
  129.2910  127.5680   72.6860 N   0  0  0  0  0  0  0  0  0  0  0  0
  130.4800  127.0670   73.4040 C   0  0  0  0  0  0  0  0  0  0  0  0
  130.2380  126.8080   74.9060 C   0  0  0  0  0  0  0  0  0  0  0  0
  129.7280  127.9780   75.5250 O   0  0  0  0  0  0  0  0  0  0  0  0
  128.4940  128.3740   74.9480 C   0  0  0  0  0  0  0  0  0  0  0  0
  128.6840  128.6800   73.4470 C   0  0  0  0  0  0  0  0  0  0  0  0
  128.0380  127.2380   70.6280 C   0  0  0  0  0  0  0  0  0  0  0  0
  127.9650  127.2220   69.2380 C   0  0  0  0  0  0  0  0  0  0  0  0
  129.4630  126.4480   66.1930 C   0  0  0  0  0  0  0  0  0  0  0  0
  129.3890  126.4900   64.7950 C   0  0  0  0  0  0  0  0  0  0  0  0
  129.9160  125.3200   64.0290 C   0  0  0  0  0  0  0  0  0  0  0  0
  129.0520  124.5300   63.2650 C   0  0  0  0  0  0  0  0  0  0  0  0
  129.5330  123.4270   62.5650 C   0  0  0  0  0  0  0  0  0  0  0  0
  130.8900  123.0740   62.6190 C   0  0  0  0  0  0  0  0  0  0  0  0
  131.3960  121.9730   61.9210 N   0  0  0  0  0  0  0  0  0  0  0  0
  132.6620  122.0560   61.1680 C   0  0  0  0  0  0  0  0  0  0  0  0
  133.2310  120.6770   60.7700 C   0  0  0  0  0  0  0  0  0  0  0  0
  132.2580  119.9420   60.0440 O   0  0  0  0  0  0  0  0  0  0  0  0
  131.0840  119.7280   60.8120 C   0  0  0  0  0  0  0  0  0  0  0  0
  130.4580  121.0800   61.2110 C   0  0  0  0  0  0  0  0  0  0  0  0
  131.7500  123.8760   63.3810 C   0  0  0  0  0  0  0  0  0  0  0  0
  131.2700  124.9790   64.0810 C   0  0  0  0  0  0  0  0  0  0  0  0
  128.8260  127.6390   64.1920 C   0  0  0  0  0  0  0  0  0  0  0  0
  128.6620  127.7490   62.7410 C   0  0  0  0  0  0  0  0  0  0  0  0
  128.5330  127.8350   61.5940 N   0  0  0  0  0  0  0  0  0  0  0  0
  130.0840  131.7720   60.5390 C   0  0  0  0  0  0  0  0  0  0  0  0
  130.3190  132.1970   59.2340 C   0  0  0  0  0  0  0  0  0  0  0  0
  1  2  1  0
  2  3  1  0
  3  4  1  0
  4  5  2  0
  4  6  1  0
  6  7  2  0
  7  8  1  0
  8  9  2  0
  9 10  1  0
 10 11  1  0
 11 12  2  0
 11 13  1  0
 13 14  1  0
 14 15  1  0
 15 16  2  0
 16 17  1  0
 17 18  1  0
 18 19  2  0
 19 20  1  0
 20 21  2  0
 21 22  1  0
 22 23  1  0
 23 24  1  0
 24 25  1  0
 25 26  1  0
 26 27  1  0
 21 28  1  0
 28 29  2  0
 17 30  2  0
 30 31  1  0
 31 32  1  0
 32 33  2  0
 33 34  1  0
 34 35  2  0
 35 36  1  0
 36 37  1  0
 37 38  1  0
 38 39  1  0
 39 40  1  0
 40 41  1  0
 35 42  1  0
 42 43  2  0
 31 44  2  0
 44 45  1  0
 45 46  3  0
  9 47  1  0
 47 48  2  0
 48  6  1  0
 44 15  1  0
 29 18  1  0
 43 32  1  0
 27 22  1  0
 41 36  1  0
M  END
>  <Binding energies>  (66) 
[-10.65]

>  <Ligand effiencies>  (66) 
[-0.2173469387755102]

>  <Interactions>  (66) 
["V-A:LEU:363:CD1:3189, V-A:PRO:540:CA:4883, V-A:PRO:540:CB:4885, V-A:PRO:540:N:4884, V-A:TYR:539:C:4867, H-A:TYR:539:N:4870, V-B:TYR:539:CE2:9848, V-B:TYR:539:CD2:9846, V-A:MET:535:CE:4835, V-B:GLU:543:CG:9879, V-A:ILE:369:CG2:3237, V-A:LEU:475:CD2:4259, V-B:GLU:543:CB:9878, V-A:GLU:543:CD:4908, V-B:GLU:543:CD:9880, V-B:HIS:456:CE1:9041, H-A:LYS:547:NZ:4951, V-B:GLU:543:C:9874, V-B:HIS:456:CD2:9039, V-A:HIS:456:CE1:4070, V-A:GLU:543:CG:4907, V-A:GLU:543:C:4902, V-A:GLU:543:CB:4906, V-A:TYR:531:CZ:4794, H-B:LYS:547:NZ:9923, V-B:TYR:484:CZ:9318, H-B:TYR:484:OH:9319, V-A:ALA:541:CB:4892, V-A:HIS:456:CD2:4068, V-A:TYR:539:CE1:4875, H-A:ALA:541:N:4891, V-A:TYR:539:CD1:4873, V-A:ILE:538:CA:4860, V-A:TYR:539:CA:4869, V-A:TYR:531:CE2:4793, V-B:TYR:484:CE2:9317, V-A:ILE:538:CG2:4863, V-A:ILE:538:CB:4862, H-A:SER:385:OG:3410, V-A:SER:385:CA:3407, V-A:SER:385:CB:3409"]

$$$$
2b_Ghoteimi_2023
     RDKit          3D

 42 47  0  0  0  0  0  0  0  0999 V2000
  128.0260  132.3180   64.8980 N   0  0  0  0  0  0  0  0  0  0  0  0
  127.8780  131.4320   64.1690 C   0  0  0  0  0  0  0  0  0  0  0  0
  127.6890  130.3060   63.2500 C   0  0  0  0  0  0  0  0  0  0  0  0
  127.8060  128.9710   63.7130 C   0  0  0  0  0  0  0  0  0  0  0  0
  128.1170  128.6070   65.1280 C   0  0  0  0  0  0  0  0  0  0  0  0
  128.7900  127.4190   65.4170 C   0  0  0  0  0  0  0  0  0  0  0  0
  129.0820  127.0740   66.7340 C   0  0  0  0  0  0  0  0  0  0  0  0
  128.6920  127.9020   67.7990 C   0  0  0  0  0  0  0  0  0  0  0  0
  128.9850  127.5840   69.1270 N   0  0  0  0  0  0  0  0  0  0  0  0
  130.0270  128.3530   69.8370 C   0  0  0  0  0  0  0  0  0  0  0  0
  130.5120  127.6710   71.1340 C   0  0  0  0  0  0  0  0  0  0  0  0
  129.4080  127.3990   71.9850 O   0  0  0  0  0  0  0  0  0  0  0  0
  128.4660  126.5400   71.3630 C   0  0  0  0  0  0  0  0  0  0  0  0
  127.9240  127.1980   70.0770 C   0  0  0  0  0  0  0  0  0  0  0  0
  128.0150  129.0910   67.4980 C   0  0  0  0  0  0  0  0  0  0  0  0
  127.7260  129.4380   66.1820 C   0  0  0  0  0  0  0  0  0  0  0  0
  127.6130  127.9280   62.7990 C   0  0  0  0  0  0  0  0  0  0  0  0
  127.2820  128.2050   61.4700 C   0  0  0  0  0  0  0  0  0  0  0  0
  127.0360  127.1280   60.4610 C   0  0  0  0  0  0  0  0  0  0  0  0
  127.0790  127.4090   59.0910 C   0  0  0  0  0  0  0  0  0  0  0  0
  126.8670  126.4080   58.1470 C   0  0  0  0  0  0  0  0  0  0  0  0
  126.5900  125.0890   58.5380 C   0  0  0  0  0  0  0  0  0  0  0  0
  126.4050  124.0660   57.6010 N   0  0  0  0  0  0  0  0  0  0  0  0
  127.5610  123.2650   57.1470 C   0  0  0  0  0  0  0  0  0  0  0  0
  127.2880  122.4620   55.8570 C   0  0  0  0  0  0  0  0  0  0  0  0
  126.1390  121.6470   56.0260 O   0  0  0  0  0  0  0  0  0  0  0  0
  124.9850  122.4250   56.3010 C   0  0  0  0  0  0  0  0  0  0  0  0
  125.1890  123.2300   57.6020 C   0  0  0  0  0  0  0  0  0  0  0  0
  126.5550  124.8100   59.9120 C   0  0  0  0  0  0  0  0  0  0  0  0
  126.7700  125.8110   60.8550 C   0  0  0  0  0  0  0  0  0  0  0  0
  127.1690  129.4840   61.0280 N   0  0  0  0  0  0  0  0  0  0  0  0
  127.3840  130.5090   61.8850 C   0  0  0  0  0  0  0  0  0  0  0  0
  127.2000  132.1140   61.1380 S   0  0  0  0  0  0  0  0  0  0  0  0
  128.8650  132.7280   60.7400 C   0  0  0  0  0  0  0  0  0  0  0  0
  129.1410  132.7080   59.2350 C   0  0  0  0  0  0  0  0  0  0  0  0
  128.2110  132.8970   58.4490 O   0  0  0  0  0  0  0  0  0  0  0  0
  130.4230  132.4710   58.8820 N   0  0  0  0  0  0  0  0  0  0  0  0
  130.9450  132.4110   57.5980 C   0  0  0  0  0  0  0  0  0  0  0  0
  131.8440  131.4270   57.1880 C   0  0  0  0  0  0  0  0  0  0  0  0
  132.1130  131.7150   55.8710 C   0  0  0  0  0  0  0  0  0  0  0  0
  131.4130  132.8150   55.5060 O   0  0  0  0  0  0  0  0  0  0  0  0
  130.6730  133.2460   56.6100 N   0  0  0  0  0  0  0  0  0  0  0  0
  1  2  3  0
  2  3  1  0
  3  4  2  0
  4  5  1  0
  5  6  2  0
  6  7  1  0
  7  8  2  0
  8  9  1  0
  9 10  1  0
 10 11  1  0
 11 12  1  0
 12 13  1  0
 13 14  1  0
  8 15  1  0
 15 16  2  0
  4 17  1  0
 17 18  2  0
 18 19  1  0
 19 20  2  0
 20 21  1  0
 21 22  2  0
 22 23  1  0
 23 24  1  0
 24 25  1  0
 25 26  1  0
 26 27  1  0
 27 28  1  0
 22 29  1  0
 29 30  2  0
 18 31  1  0
 31 32  2  0
 32 33  1  0
 33 34  1  0
 34 35  1  0
 35 36  2  0
 35 37  1  0
 37 38  1  0
 38 39  1  0
 39 40  2  0
 40 41  1  0
 41 42  1  0
 32  3  1  0
 42 38  2  0
 16  5  1  0
 30 19  1  0
 14  9  1  0
 28 23  1  0
M  END
>  <Binding energies>  (67) 
[-11.64]

>  <Ligand effiencies>  (67) 
[-0.27069767441860465]

>  <Interactions>  (67) 
["V-A:LEU:363:CD1:3189, V-A:PRO:540:CA:4883, V-A:PRO:540:CB:4885, V-A:PRO:540:N:4884, V-A:TYR:539:C:4867, H-A:TYR:539:N:4870, V-B:TYR:539:CZ:9849, V-B:PRO:540:N:9856, V-B:TYR:539:CE1:9847, V-B:PRO:540:CB:9857, V-B:TYR:539:CD1:9845, V-B:PRO:540:CA:9855, V-B:TYR:539:CE2:9848, H-B:TYR:539:N:9842, V-B:PRO:540:CD:9859, V-B:MET:535:CE:9807, V-B:LEU:363:CD1:8160, V-B:PRO:540:CG:9858, V-B:TYR:539:CG:9844, V-B:GLU:543:CG:9879, V-B:GLU:543:CB:9878, V-A:GLU:543:CD:4908, V-B:GLU:543:CD:9880, V-B:HIS:456:CE1:9041, V-A:GLY:544:C:4912, V-B:GLU:543:C:9874, V-A:HIS:456:CE1:4070, V-A:GLU:543:CG:4907, V-A:GLU:543:C:4902, V-A:GLU:543:CB:4906, V-A:TYR:531:CZ:4794, V-B:TYR:484:CZ:9318, V-A:GLU:543:CA:4904, H-B:TYR:484:OH:9319, V-B:ILE:538:CG2:9835, V-A:TYR:531:CE2:4793, V-A:ILE:538:CG2:4863, V-A:ILE:538:CB:4862, V-B:ILE:538:CA:9832"]

$$$$
2c_Ghoteimi_2023
     RDKit          3D

 42 47  0  0  0  0  0  0  0  0999 V2000
  126.4330  130.3970   58.6740 N   0  0  0  0  0  0  0  0  0  0  0  0
  126.6970  130.0610   59.7490 C   0  0  0  0  0  0  0  0  0  0  0  0
  127.0330  129.6280   61.1090 C   0  0  0  0  0  0  0  0  0  0  0  0
  127.1620  128.2510   61.4170 C   0  0  0  0  0  0  0  0  0  0  0  0
  126.9710  127.1540   60.4210 C   0  0  0  0  0  0  0  0  0  0  0  0
  126.4260  125.9320   60.8180 C   0  0  0  0  0  0  0  0  0  0  0  0
  126.2400  124.9060   59.8940 C   0  0  0  0  0  0  0  0  0  0  0  0
  126.6090  125.0700   58.5500 C   0  0  0  0  0  0  0  0  0  0  0  0
  126.4140  124.0620   57.6020 N   0  0  0  0  0  0  0  0  0  0  0  0
  127.5620  123.2350   57.1800 C   0  0  0  0  0  0  0  0  0  0  0  0
  127.2990  122.4470   55.8790 C   0  0  0  0  0  0  0  0  0  0  0  0
  126.1290  121.6550   56.0180 O   0  0  0  0  0  0  0  0  0  0  0  0
  124.9850  122.4520   56.2850 C   0  0  0  0  0  0  0  0  0  0  0  0
  125.1870  123.2420   57.5950 C   0  0  0  0  0  0  0  0  0  0  0  0
  127.1600  126.3000   58.1620 C   0  0  0  0  0  0  0  0  0  0  0  0
  127.3430  127.3250   59.0850 C   0  0  0  0  0  0  0  0  0  0  0  0
  127.4870  127.8890   62.7310 C   0  0  0  0  0  0  0  0  0  0  0  0
  127.7040  128.8700   63.7030 C   0  0  0  0  0  0  0  0  0  0  0  0
  128.0700  128.5370   65.1130 C   0  0  0  0  0  0  0  0  0  0  0  0
  128.7510  127.3520   65.4130 C   0  0  0  0  0  0  0  0  0  0  0  0
  129.1000  127.0380   66.7250 C   0  0  0  0  0  0  0  0  0  0  0  0
  128.7690  127.8940   67.7880 C   0  0  0  0  0  0  0  0  0  0  0  0
  129.1340  127.6060   69.1070 N   0  0  0  0  0  0  0  0  0  0  0  0
  130.2320  128.3580   69.7480 C   0  0  0  0  0  0  0  0  0  0  0  0
  130.7740  127.6910   71.0300 C   0  0  0  0  0  0  0  0  0  0  0  0
  129.7160  127.4670   71.9450 O   0  0  0  0  0  0  0  0  0  0  0  0
  128.7280  126.6090   71.3970 C   0  0  0  0  0  0  0  0  0  0  0  0
  128.1260  127.2390   70.1230 C   0  0  0  0  0  0  0  0  0  0  0  0
  128.0980  129.0860   67.4800 C   0  0  0  0  0  0  0  0  0  0  0  0
  127.7520  129.4000   66.1690 C   0  0  0  0  0  0  0  0  0  0  0  0
  127.5830  130.1890   63.4040 N   0  0  0  0  0  0  0  0  0  0  0  0
  127.2380  130.5630   62.1490 C   0  0  0  0  0  0  0  0  0  0  0  0
  127.1130  132.3250   61.9400 S   0  0  0  0  0  0  0  0  0  0  0  0
  128.7470  133.0350   62.3030 C   0  0  0  0  0  0  0  0  0  0  0  0
  129.7570  132.7500   61.1890 C   0  0  0  0  0  0  0  0  0  0  0  0
  130.9190  132.4700   61.4850 O   0  0  0  0  0  0  0  0  0  0  0  0
  129.2750  132.8360   59.9310 N   0  0  0  0  0  0  0  0  0  0  0  0
  129.9780  132.6090   58.7560 C   0  0  0  0  0  0  0  0  0  0  0  0
  129.9090  133.2850   57.6310 N   0  0  0  0  0  0  0  0  0  0  0  0
  130.7250  132.7940   56.7190 C   0  0  0  0  0  0  0  0  0  0  0  0
  131.4810  131.6890   57.1010 C   0  0  0  0  0  0  0  0  0  0  0  0
  131.0940  131.2810   58.7460 S   0  0  0  0  0  0  0  0  0  0  0  0
  1  2  3  0
  2  3  1  0
  3  4  2  0
  4  5  1  0
  5  6  2  0
  6  7  1  0
  7  8  2  0
  8  9  1  0
  9 10  1  0
 10 11  1  0
 11 12  1  0
 12 13  1  0
 13 14  1  0
  8 15  1  0
 15 16  2  0
  4 17  1  0
 17 18  2  0
 18 19  1  0
 19 20  2  0
 20 21  1  0
 21 22  2  0
 22 23  1  0
 23 24  1  0
 24 25  1  0
 25 26  1  0
 26 27  1  0
 27 28  1  0
 22 29  1  0
 29 30  2  0
 18 31  1  0
 31 32  2  0
 32 33  1  0
 33 34  1  0
 34 35  1  0
 35 36  2  0
 35 37  1  0
 37 38  1  0
 38 39  2  0
 39 40  1  0
 40 41  2  0
 41 42  1  0
 32  3  1  0
 42 38  1  0
 16  5  1  0
 30 19  1  0
 14  9  1  0
 28 23  1  0
M  END
>  <Binding energies>  (68) 
[-10.99]

>  <Ligand effiencies>  (68) 
[-0.2555813953488372]

>  <Interactions>  (68) 
["V-A:LEU:363:CD1:3189, V-A:PRO:540:CA:4883, V-A:PRO:540:CB:4885, V-A:PRO:540:N:4884, V-A:TYR:539:C:4867, H-A:TYR:539:N:4870, V-B:TYR:539:CZ:9849, V-B:PRO:540:N:9856, V-B:TYR:539:CE1:9847, V-B:PRO:540:CB:9857, V-B:TYR:539:CD1:9845, V-B:PRO:540:CA:9855, V-B:TYR:539:CE2:9848, H-B:TYR:539:N:9842, V-B:PRO:540:CD:9859, V-B:ASP:366:CG:8184, V-B:MET:535:CE:9807, V-B:LEU:363:CD1:8160, V-B:PRO:540:CG:9858, V-B:TYR:539:CG:9844, V-B:GLU:543:CG:9879, V-B:GLU:543:CB:9878, V-A:GLU:543:CD:4908, V-B:GLU:543:CD:9880, V-B:HIS:456:CE1:9041, V-A:GLY:544:C:4912, V-A:HIS:456:CE1:4070, V-A:GLU:543:CG:4907, V-A:GLU:543:C:4902, V-A:GLU:543:CB:4906, V-B:TYR:484:CZ:9318, V-A:GLU:543:CA:4904, V-A:ALA:541:CB:4892, V-A:HIS:456:CD2:4068, V-A:PRO:540:C:4881, H-A:ALA:541:N:4891, V-B:ILE:538:CG2:9835, V-A:ILE:538:CA:4860, V-A:ILE:538:CB:4862, V-B:ILE:538:CA:9832, H-A:TYR:539:O:4868"]

$$$$
2j_Grossjean_2025
     RDKit          3D

 23 24  0  0  0  0  0  0  0  0999 V2000
  129.2340  122.8720   61.4020 C   0  0  0  0  0  0  0  0  0  0  0  0
  129.1780  123.5240   60.0330 C   0  0  0  0  0  0  0  0  0  0  0  0
  128.3080  123.0710   59.0450 C   0  0  0  0  0  0  0  0  0  0  0  0
  128.2900  123.7090   57.7950 C   0  0  0  0  0  0  0  0  0  0  0  0
  127.3210  123.1950   56.7130 C   0  0  0  0  0  0  0  0  0  0  0  0
  126.8650  121.9870   57.0470 F   0  0  0  0  0  0  0  0  0  0  0  0
  126.2890  124.0300   56.5910 F   0  0  0  0  0  0  0  0  0  0  0  0
  127.8970  123.0900   55.5130 F   0  0  0  0  0  0  0  0  0  0  0  0
  129.1680  124.8020   57.5810 C   0  0  0  0  0  0  0  0  0  0  0  0
  129.1920  125.5050   56.2950 C   0  0  0  0  0  0  0  0  0  0  0  0
  129.2100  126.0610   55.2800 N   0  0  0  0  0  0  0  0  0  0  0  0
  130.0180  125.1950   58.6420 C   0  0  0  0  0  0  0  0  0  0  0  0
  131.1620  126.5590   58.4850 S   0  0  0  0  0  0  0  0  0  0  0  0
  132.7070  125.9310   57.7420 C   0  0  0  0  0  0  0  0  0  0  0  0
  133.2490  124.6400   58.3740 C   0  0  0  0  0  0  0  0  0  0  0  0
  134.0230  123.9110   57.7500 O   0  0  0  0  0  0  0  0  0  0  0  0
  132.8000  124.3890   59.6240 N   0  0  0  0  0  0  0  0  0  0  0  0
  133.1280  123.3000   60.4210 C   0  0  0  0  0  0  0  0  0  0  0  0
  132.8580  122.0310   60.2040 N   0  0  0  0  0  0  0  0  0  0  0  0
  133.3240  121.2640   61.1710 C   0  0  0  0  0  0  0  0  0  0  0  0
  133.9900  121.9140   62.2050 C   0  0  0  0  0  0  0  0  0  0  0  0
  134.0020  123.6220   61.8840 S   0  0  0  0  0  0  0  0  0  0  0  0
  130.0190  124.5660   59.8440 N   0  0  0  0  0  0  0  0  0  0  0  0
  1  2  1  0
  2  3  2  0
  3  4  1  0
  4  5  1  0
  5  6  1  0
  5  7  1  0
  5  8  1  0
  4  9  2  0
  9 10  1  0
 10 11  3  0
  9 12  1  0
 12 13  1  0
 13 14  1  0
 14 15  1  0
 15 16  2  0
 15 17  1  0
 17 18  1  0
 18 19  2  0
 19 20  1  0
 20 21  2  0
 21 22  1  0
 12 23  2  0
 23  2  1  0
 22 18  1  0
M  END
>  <Binding energies>  (69) 
[-5.84]

>  <Ligand effiencies>  (69) 
[-0.24333333333333332]

>  <Interactions>  (69) 
["V-A:ASP:366:CG:3213, H-A:TYR:531:OH:4795, H-B:TYR:539:OH:9850, V-A:ASP:366:CB:3212, V-B:TYR:539:CZ:9849, V-B:PRO:540:N:9856, V-B:TYR:539:CE1:9847, V-B:PRO:540:CB:9857, V-B:TYR:539:CD1:9845, V-B:PRO:540:CA:9855, V-B:TYR:539:CE2:9848, V-B:PRO:540:CD:9859, V-B:MET:535:CE:9807, V-B:TYR:539:C:9839, V-B:TYR:539:CG:9844, V-B:TYR:539:CD2:9846, V-A:ASP:366:C:3208, V-A:ASP:366:CA:3210, V-A:ILE:369:CD1:3239, H-A:ASN:370:N:3244, V-A:ILE:369:CG2:3237, V-A:LEU:475:CD2:4259, V-A:GLY:454:CA:4049, V-A:TYR:531:CZ:4794, V-B:TYR:539:CA:9841, V-A:SER:385:CB:3409"]

$$$$
3ab_Grossjean_2025
     RDKit          3D

 33 35  0  0  0  0  0  0  0  0999 V2000
  127.2510  122.3750   55.5120 C   0  0  0  0  0  0  0  0  0  0  0  0
  126.4240  122.1590   56.6470 O   0  0  0  0  0  0  0  0  0  0  0  0
  125.9920  123.1990   57.4050 C   0  0  0  0  0  0  0  0  0  0  0  0
  125.1600  124.0240   57.0170 O   0  0  0  0  0  0  0  0  0  0  0  0
  126.6240  123.2440   58.7660 C   0  0  0  0  0  0  0  0  0  0  0  0
  127.9400  122.8100   58.9890 C   0  0  0  0  0  0  0  0  0  0  0  0
  128.5010  122.8650   60.2610 C   0  0  0  0  0  0  0  0  0  0  0  0
  127.7500  123.3560   61.3410 C   0  0  0  0  0  0  0  0  0  0  0  0
  128.2160  123.4620   62.6650 N   0  0  0  0  0  0  0  0  0  0  0  0
  129.2040  122.7890   63.2920 C   0  0  0  0  0  0  0  0  0  0  0  0
  129.8990  121.9060   62.7900 O   0  0  0  0  0  0  0  0  0  0  0  0
  129.4450  123.1870   64.7500 C   0  0  0  0  0  0  0  0  0  0  0  0
  130.6480  124.5420   64.9010 S   0  0  0  0  0  0  0  0  0  0  0  0
  129.7570  125.9910   65.4250 C   0  0  0  0  0  0  0  0  0  0  0  0
  129.7340  126.1560   66.7690 N   0  0  0  0  0  0  0  0  0  0  0  0
  129.0930  127.2250   67.3080 C   0  0  0  0  0  0  0  0  0  0  0  0
  129.1170  127.3370   68.8040 C   0  0  0  0  0  0  0  0  0  0  0  0
  128.0210  126.9150   69.5730 C   0  0  0  0  0  0  0  0  0  0  0  0
  128.0380  127.0160   70.9620 C   0  0  0  0  0  0  0  0  0  0  0  0
  129.1550  127.5420   71.6030 C   0  0  0  0  0  0  0  0  0  0  0  0
  130.2530  127.9700   70.8640 C   0  0  0  0  0  0  0  0  0  0  0  0
  130.2320  127.8680   69.4760 C   0  0  0  0  0  0  0  0  0  0  0  0
  128.4340  128.1510   66.4920 C   0  0  0  0  0  0  0  0  0  0  0  0
  128.4270  127.9920   65.0990 C   0  0  0  0  0  0  0  0  0  0  0  0
  127.6850  129.0310   64.2370 C   0  0  0  0  0  0  0  0  0  0  0  0
  128.4580  129.5610   63.2860 F   0  0  0  0  0  0  0  0  0  0  0  0
  126.6400  128.4650   63.6310 F   0  0  0  0  0  0  0  0  0  0  0  0
  127.2490  130.0310   65.0040 F   0  0  0  0  0  0  0  0  0  0  0  0
  129.0990  126.8760   64.5410 C   0  0  0  0  0  0  0  0  0  0  0  0
  129.0740  126.6310   63.0970 C   0  0  0  0  0  0  0  0  0  0  0  0
  129.0530  126.4400   61.9560 N   0  0  0  0  0  0  0  0  0  0  0  0
  126.4430  123.7940   61.1210 C   0  0  0  0  0  0  0  0  0  0  0  0
  125.8840  123.7370   59.8480 C   0  0  0  0  0  0  0  0  0  0  0  0
  1  2  1  0
  2  3  1  0
  3  4  2  0
  3  5  1  0
  5  6  2  0
  6  7  1  0
  7  8  2  0
  8  9  1  0
  9 10  1  0
 10 11  2  0
 10 12  1  0
 12 13  1  0
 13 14  1  0
 14 15  2  0
 15 16  1  0
 16 17  1  0
 17 18  2  0
 18 19  1  0
 19 20  2  0
 20 21  1  0
 21 22  2  0
 16 23  2  0
 23 24  1  0
 24 25  1  0
 25 26  1  0
 25 27  1  0
 25 28  1  0
 24 29  2  0
 29 30  1  0
 30 31  3  0
  8 32  1  0
 32 33  2  0
 33  5  1  0
 29 14  1  0
 22 17  1  0
M  END
>  <Binding energies>  (70) 
[-8.48]

>  <Ligand effiencies>  (70) 
[-0.24941176470588236]

>  <Interactions>  (70) 
["V-B:TYR:539:CZ:9849, V-B:PRO:540:N:9856, V-B:TYR:539:CE1:9847, V-B:PRO:540:CB:9857, V-B:TYR:539:CD1:9845, V-B:PRO:540:CA:9855, V-B:TYR:539:CE2:9848, H-B:TYR:539:N:9842, V-B:PRO:540:CD:9859, V-B:MET:535:CE:9807, V-B:TYR:539:C:9839, V-B:TYR:539:CG:9844, H-B:GLU:543:OE1:9881, V-B:TYR:539:CD2:9846, V-B:ALA:541:CB:9864, V-B:GLU:543:CG:9879, V-B:GLU:543:CB:9878, H-A:TYR:484:OH:4348, V-A:GLU:543:CD:4908, V-A:TYR:484:CE2:4346, V-B:GLU:543:CD:9880, V-B:HIS:456:CE1:9041, V-A:GLY:544:C:4912, V-B:GLU:543:C:9874, V-A:HIS:456:CE1:4070, V-A:GLU:543:CG:4907, V-A:GLU:543:C:4902, V-A:GLU:543:CB:4906, V-B:TYR:484:CZ:9318, V-B:ILE:538:CA:9832, V-B:ILE:538:C:9830"]

$$$$
3ac_Grossjean_2025
     RDKit          3D

 31 33  0  0  0  0  0  0  0  0999 V2000
  127.5460  128.0010   73.3250 C   0  0  0  0  0  0  0  0  0  0  0  0
  128.8590  128.3740   72.9180 O   0  0  0  0  0  0  0  0  0  0  0  0
  129.2980  128.0270   71.6540 C   0  0  0  0  0  0  0  0  0  0  0  0
  128.4140  127.2870   70.8700 C   0  0  0  0  0  0  0  0  0  0  0  0
  128.7670  126.8950   69.5820 C   0  0  0  0  0  0  0  0  0  0  0  0
  130.0180  127.2310   69.0620 C   0  0  0  0  0  0  0  0  0  0  0  0
  130.2760  126.8090   67.7450 N   0  0  0  0  0  0  0  0  0  0  0  0
  130.0940  125.5910   67.1900 C   0  0  0  0  0  0  0  0  0  0  0  0
  129.6100  124.6140   67.7620 O   0  0  0  0  0  0  0  0  0  0  0  0
  130.5350  125.4580   65.7320 C   0  0  0  0  0  0  0  0  0  0  0  0
  129.7930  124.0110   64.9180 S   0  0  0  0  0  0  0  0  0  0  0  0
  130.2960  123.9960   63.2080 C   0  0  0  0  0  0  0  0  0  0  0  0
  129.2610  123.8310   62.3490 N   0  0  0  0  0  0  0  0  0  0  0  0
  129.4900  123.8060   61.0100 C   0  0  0  0  0  0  0  0  0  0  0  0
  128.2920  123.6130   60.1290 C   0  0  0  0  0  0  0  0  0  0  0  0
  127.0250  124.0680   60.5310 C   0  0  0  0  0  0  0  0  0  0  0  0
  125.9100  123.8970   59.7150 C   0  0  0  0  0  0  0  0  0  0  0  0
  126.0470  123.2650   58.4830 C   0  0  0  0  0  0  0  0  0  0  0  0
  127.2880  122.8010   58.0640 C   0  0  0  0  0  0  0  0  0  0  0  0
  128.4010  122.9740   58.8830 C   0  0  0  0  0  0  0  0  0  0  0  0
  130.7870  123.9300   60.5030 C   0  0  0  0  0  0  0  0  0  0  0  0
  131.8790  124.0780   61.3720 C   0  0  0  0  0  0  0  0  0  0  0  0
  133.2920  124.2060   60.7700 C   0  0  0  0  0  0  0  0  0  0  0  0
  134.0950  124.9890   61.4940 F   0  0  0  0  0  0  0  0  0  0  0  0
  133.8710  123.0060   60.6940 F   0  0  0  0  0  0  0  0  0  0  0  0
  133.2170  124.7270   59.5450 F   0  0  0  0  0  0  0  0  0  0  0  0
  131.6360  124.0980   62.7680 C   0  0  0  0  0  0  0  0  0  0  0  0
  132.7500  124.1740   63.7150 C   0  0  0  0  0  0  0  0  0  0  0  0
  133.6310  124.2320   64.4630 N   0  0  0  0  0  0  0  0  0  0  0  0
  130.9110  127.9830   69.8420 C   0  0  0  0  0  0  0  0  0  0  0  0
  130.5540  128.3730   71.1300 C   0  0  0  0  0  0  0  0  0  0  0  0
  1  2  1  0
  2  3  1  0
  3  4  2  0
  4  5  1  0
  5  6  2  0
  6  7  1  0
  7  8  1  0
  8  9  2  0
  8 10  1  0
 10 11  1  0
 11 12  1  0
 12 13  2  0
 13 14  1  0
 14 15  1  0
 15 16  2  0
 16 17  1  0
 17 18  2  0
 18 19  1  0
 19 20  2  0
 14 21  2  0
 21 22  1  0
 22 23  1  0
 23 24  1  0
 23 25  1  0
 23 26  1  0
 22 27  2  0
 27 28  1  0
 28 29  3  0
  6 30  1  0
 30 31  2  0
 31  3  1  0
 27 12  1  0
 20 15  1  0
M  END
>  <Binding energies>  (71) 
[-7.61]

>  <Ligand effiencies>  (71) 
[-0.2378125]

>  <Interactions>  (71) 
["V-A:ASP:366:CG:3213, V-A:ASP:366:CB:3212, V-B:TYR:539:CZ:9849, V-B:PRO:540:N:9856, V-B:PRO:540:CB:9857, V-B:PRO:540:CA:9855, V-B:TYR:539:CE2:9848, V-B:TYR:539:C:9839, V-B:TYR:539:CD2:9846, V-A:ASP:366:CA:3210, V-A:ILE:369:CD1:3239, V-B:GLU:543:CG:9879, V-A:ILE:369:CB:3236, V-A:ILE:369:CG2:3237, V-B:GLU:543:CB:9878, H-A:TYR:484:OH:4348, V-A:GLU:543:CD:4908, V-B:HIS:456:CE1:9041, V-A:GLY:544:CA:4914, V-A:GLY:544:C:4912, V-B:GLU:543:C:9874, V-B:HIS:456:CD2:9039, V-A:HIS:456:CE1:4070, V-A:GLU:543:C:4902, V-A:GLU:543:CB:4906, V-B:HIS:456:CG:9037, H-A:GLU:543:OE1:4909, H-A:GLU:543:OE2:4910, H-A:GLY:454:N:4050"]

$$$$
3af_Grossjean_2025
     RDKit          3D

 29 31  0  0  0  0  0  0  0  0999 V2000
  128.9800  126.0500   55.0280 N   0  0  0  0  0  0  0  0  0  0  0  0
  129.0770  125.5740   56.0790 C   0  0  0  0  0  0  0  0  0  0  0  0
  129.1970  124.9690   57.4080 C   0  0  0  0  0  0  0  0  0  0  0  0
  128.3670  123.8870   57.7880 C   0  0  0  0  0  0  0  0  0  0  0  0
  127.3380  123.2520   56.8320 C   0  0  0  0  0  0  0  0  0  0  0  0
  126.8380  122.1050   57.2960 F   0  0  0  0  0  0  0  0  0  0  0  0
  126.3170  124.0890   56.6420 F   0  0  0  0  0  0  0  0  0  0  0  0
  127.9070  122.9900   55.6540 F   0  0  0  0  0  0  0  0  0  0  0  0
  128.4820  123.3770   59.0900 C   0  0  0  0  0  0  0  0  0  0  0  0
  129.3980  123.9340   59.9890 C   0  0  0  0  0  0  0  0  0  0  0  0
  129.5490  123.4420   61.3970 C   0  0  0  0  0  0  0  0  0  0  0  0
  129.5060  124.3360   62.4790 C   0  0  0  0  0  0  0  0  0  0  0  0
  129.6430  123.8850   63.7890 C   0  0  0  0  0  0  0  0  0  0  0  0
  129.8240  122.5280   64.0350 C   0  0  0  0  0  0  0  0  0  0  0  0
  129.8670  121.6210   62.9820 C   0  0  0  0  0  0  0  0  0  0  0  0
  129.7300  122.0760   61.6730 C   0  0  0  0  0  0  0  0  0  0  0  0
  130.1890  124.9740   59.6220 N   0  0  0  0  0  0  0  0  0  0  0  0
  130.1130  125.4690   58.3630 C   0  0  0  0  0  0  0  0  0  0  0  0
  131.2370  126.8180   58.0650 S   0  0  0  0  0  0  0  0  0  0  0  0
  132.7860  126.1260   57.4100 C   0  0  0  0  0  0  0  0  0  0  0  0
  133.2790  124.9460   58.2460 C   0  0  0  0  0  0  0  0  0  0  0  0
  133.9940  124.0940   57.7180 O   0  0  0  0  0  0  0  0  0  0  0  0
  132.8690  124.9370   59.5330 N   0  0  0  0  0  0  0  0  0  0  0  0
  133.1330  124.0030   60.5540 C   0  0  0  0  0  0  0  0  0  0  0  0
  133.0280  122.6050   60.4350 C   0  0  0  0  0  0  0  0  0  0  0  0
  133.3210  121.7940   61.5340 C   0  0  0  0  0  0  0  0  0  0  0  0
  133.7110  122.4020   62.7280 C   0  0  0  0  0  0  0  0  0  0  0  0
  133.8210  123.7460   62.8680 N   0  0  0  0  0  0  0  0  0  0  0  0
  133.5330  124.5200   61.7910 C   0  0  0  0  0  0  0  0  0  0  0  0
  1  2  3  0
  2  3  1  0
  3  4  2  0
  4  5  1  0
  5  6  1  0
  5  7  1  0
  5  8  1  0
  4  9  1  0
  9 10  2  0
 10 11  1  0
 11 12  2  0
 12 13  1  0
 13 14  2  0
 14 15  1  0
 15 16  2  0
 10 17  1  0
 17 18  2  0
 18 19  1  0
 19 20  1  0
 20 21  1  0
 21 22  2  0
 21 23  1  0
 23 24  1  0
 24 25  2  0
 25 26  1  0
 26 27  2  0
 27 28  1  0
 28 29  2  0
 18  3  1  0
 29 24  1  0
 16 11  1  0
M  END
>  <Binding energies>  (72) 
[-7.03]

>  <Ligand effiencies>  (72) 
[-0.23433333333333334]

>  <Interactions>  (72) 
["V-A:ASP:366:CG:3213, H-A:TYR:531:OH:4795, H-B:TYR:539:OH:9850, H-A:ASP:366:OD2:3215, V-A:ASP:366:CB:3212, V-B:TYR:539:CZ:9849, V-B:PRO:540:N:9856, V-B:TYR:539:CE1:9847, V-B:PRO:540:CB:9857, V-B:TYR:539:CD1:9845, V-B:PRO:540:CA:9855, V-B:TYR:539:CE2:9848, V-B:PRO:540:CD:9859, V-B:MET:535:CE:9807, V-B:TYR:539:C:9839, V-B:TYR:539:CG:9844, V-B:TYR:539:CD2:9846, V-B:ALA:541:CB:9864, V-A:ASP:366:C:3208, V-A:ASP:366:CA:3210, V-B:GLU:543:CG:9879, H-A:ASN:370:N:3244, V-A:ILE:369:CG2:3237, V-A:LEU:475:CD2:4259, V-A:GLY:454:CA:4049, V-B:GLU:543:CD:9880, V-A:TYR:531:CZ:4794, H-A:GLY:454:N:4050, V-B:TYR:539:CA:9841, H-A:ASP:366:OD1:3214"]

$$$$
3ag_Grossjean_2025
     RDKit          3D

 30 32  0  0  0  0  0  0  0  0999 V2000
  129.2820  126.8180   63.3600 N   0  0  0  0  0  0  0  0  0  0  0  0
  129.1750  126.9260   64.5070 C   0  0  0  0  0  0  0  0  0  0  0  0
  129.0370  127.0660   65.9600 C   0  0  0  0  0  0  0  0  0  0  0  0
  128.2780  128.1250   66.5160 C   0  0  0  0  0  0  0  0  0  0  0  0
  127.5130  129.1450   65.6500 C   0  0  0  0  0  0  0  0  0  0  0  0
  127.3080  128.7150   64.4040 F   0  0  0  0  0  0  0  0  0  0  0  0
  126.3200  129.3940   66.1910 F   0  0  0  0  0  0  0  0  0  0  0  0
  128.1990  130.2860   65.5700 F   0  0  0  0  0  0  0  0  0  0  0  0
  128.2200  128.2470   67.9130 C   0  0  0  0  0  0  0  0  0  0  0  0
  128.9110  127.3460   68.7300 C   0  0  0  0  0  0  0  0  0  0  0  0
  128.8870  127.4310   70.2260 C   0  0  0  0  0  0  0  0  0  0  0  0
  127.7770  126.9690   70.9530 C   0  0  0  0  0  0  0  0  0  0  0  0
  127.7480  127.0450   72.3430 C   0  0  0  0  0  0  0  0  0  0  0  0
  128.8320  127.5860   73.0270 C   0  0  0  0  0  0  0  0  0  0  0  0
  129.9420  128.0540   72.3310 C   0  0  0  0  0  0  0  0  0  0  0  0
  129.9670  127.9770   70.9420 C   0  0  0  0  0  0  0  0  0  0  0  0
  129.6270  126.3240   68.1930 N   0  0  0  0  0  0  0  0  0  0  0  0
  129.6810  126.1760   66.8480 C   0  0  0  0  0  0  0  0  0  0  0  0
  130.6600  124.7850   66.3250 S   0  0  0  0  0  0  0  0  0  0  0  0
  132.3590  125.3830   66.0750 C   0  0  0  0  0  0  0  0  0  0  0  0
  132.8650  125.1110   64.6580 C   0  0  0  0  0  0  0  0  0  0  0  0
  133.9890  124.6370   64.4870 O   0  0  0  0  0  0  0  0  0  0  0  0
  132.0210  125.4100   63.6550 N   0  0  0  0  0  0  0  0  0  0  0  0
  132.2850  125.1990   62.2320 C   0  0  0  0  0  0  0  0  0  0  0  0
  132.5190  123.7410   61.8520 C   0  0  0  0  0  0  0  0  0  0  0  0
  131.4360  122.9350   61.4920 C   0  0  0  0  0  0  0  0  0  0  0  0
  131.6480  121.6110   61.1160 C   0  0  0  0  0  0  0  0  0  0  0  0
  132.9450  121.1010   61.0930 C   0  0  0  0  0  0  0  0  0  0  0  0
  134.0310  121.9030   61.4360 C   0  0  0  0  0  0  0  0  0  0  0  0
  133.8180  123.2270   61.8120 C   0  0  0  0  0  0  0  0  0  0  0  0
  1  2  3  0
  2  3  1  0
  3  4  2  0
  4  5  1  0
  5  6  1  0
  5  7  1  0
  5  8  1  0
  4  9  1  0
  9 10  2  0
 10 11  1  0
 11 12  2  0
 12 13  1  0
 13 14  2  0
 14 15  1  0
 15 16  2  0
 10 17  1  0
 17 18  2  0
 18 19  1  0
 19 20  1  0
 20 21  1  0
 21 22  2  0
 21 23  1  0
 23 24  1  0
 24 25  1  0
 25 26  2  0
 26 27  1  0
 27 28  2  0
 28 29  1  0
 29 30  2  0
 18  3  1  0
 30 25  1  0
 16 11  1  0
M  END
>  <Binding energies>  (73) 
[-7.88]

>  <Ligand effiencies>  (73) 
[-0.2541935483870968]

>  <Interactions>  (73) 
["V-B:TYR:539:CE2:9848, V-B:TYR:539:CD2:9846, V-A:ILE:369:CD1:3239, V-B:GLU:543:CG:9879, V-A:ILE:369:CG2:3237, V-A:LEU:475:CD2:4259, V-A:TYR:484:CZ:4347, V-B:GLU:543:CB:9878, H-A:TYR:484:OH:4348, V-A:GLU:543:CD:4908, H-A:ARG:545:NE:4924, V-A:ARG:545:CZ:4926, V-B:GLU:543:CD:9880, V-B:HIS:456:CE1:9041, V-B:GLY:544:C:9884, V-B:GLU:543:C:9874, V-B:HIS:456:CD2:9039, V-B:LYS:547:CE:9922, V-A:HIS:456:CE1:4070, V-A:GLU:543:CG:4907, V-A:GLU:543:CB:4906, H-A:GLU:543:OE1:4909, H-A:GLU:543:OE2:4910, V-B:TYR:484:CZ:9318, H-A:ARG:545:NH2:4928, H-A:GLY:454:N:4050, V-B:TYR:484:CE2:9317, V-A:SER:385:CB:3409"]

$$$$
3bc_Grossjean_2025
     RDKit          3D

 28 30  0  0  0  0  0  0  0  0999 V2000
  128.7440  133.4770   55.8310 C   0  0  0  0  0  0  0  0  0  0  0  0
  129.9260  133.3290   56.6100 O   0  0  0  0  0  0  0  0  0  0  0  0
  130.2660  132.0770   57.0880 C   0  0  0  0  0  0  0  0  0  0  0  0
  131.6280  131.7910   57.1700 C   0  0  0  0  0  0  0  0  0  0  0  0
  132.0670  130.5560   57.6390 C   0  0  0  0  0  0  0  0  0  0  0  0
  131.1440  129.5830   58.0270 C   0  0  0  0  0  0  0  0  0  0  0  0
  131.6810  128.3710   58.4990 N   0  0  0  0  0  0  0  0  0  0  0  0
  131.2740  127.1070   58.2570 C   0  0  0  0  0  0  0  0  0  0  0  0
  130.3400  126.8010   57.5130 O   0  0  0  0  0  0  0  0  0  0  0  0
  132.1020  126.0210   58.9590 C   0  0  0  0  0  0  0  0  0  0  0  0
  131.5270  125.5660   60.6300 S   0  0  0  0  0  0  0  0  0  0  0  0
  130.5150  124.1100   60.4790 C   0  0  0  0  0  0  0  0  0  0  0  0
  129.4260  124.2820   59.6900 N   0  0  0  0  0  0  0  0  0  0  0  0
  128.5680  123.2480   59.4860 C   0  0  0  0  0  0  0  0  0  0  0  0
  127.3770  123.5270   58.6180 C   0  0  0  0  0  0  0  0  0  0  0  0
  126.4720  124.5470   58.9480 C   0  0  0  0  0  0  0  0  0  0  0  0
  125.3650  124.8120   58.1470 C   0  0  0  0  0  0  0  0  0  0  0  0
  125.1460  124.0540   57.0010 C   0  0  0  0  0  0  0  0  0  0  0  0
  126.0260  123.0350   56.6520 C   0  0  0  0  0  0  0  0  0  0  0  0
  127.1320  122.7730   57.4580 C   0  0  0  0  0  0  0  0  0  0  0  0
  128.7900  122.0020   60.0820 C   0  0  0  0  0  0  0  0  0  0  0  0
  129.9220  121.8020   60.8800 C   0  0  0  0  0  0  0  0  0  0  0  0
  130.1330  120.4190   61.4960 C   0  0  0  0  0  0  0  0  0  0  0  0
  130.8210  122.8700   61.0850 C   0  0  0  0  0  0  0  0  0  0  0  0
  132.0370  122.6690   61.8760 C   0  0  0  0  0  0  0  0  0  0  0  0
  132.9970  122.5080   62.5020 N   0  0  0  0  0  0  0  0  0  0  0  0
  129.7720  129.8670   57.9610 C   0  0  0  0  0  0  0  0  0  0  0  0
  129.3370  131.1040   57.4910 C   0  0  0  0  0  0  0  0  0  0  0  0
  1  2  1  0
  2  3  1  0
  3  4  2  0
  4  5  1  0
  5  6  2  0
  6  7  1  0
  7  8  1  0
  8  9  2  0
  8 10  1  0
 10 11  1  0
 11 12  1  0
 12 13  2  0
 13 14  1  0
 14 15  1  0
 15 16  2  0
 16 17  1  0
 17 18  2  0
 18 19  1  0
 19 20  2  0
 14 21  2  0
 21 22  1  0
 22 23  1  0
 22 24  2  0
 24 25  1  0
 25 26  3  0
  6 27  1  0
 27 28  2  0
 28  3  1  0
 24 12  1  0
 20 15  1  0
M  END
>  <Binding energies>  (74) 
[-7.8]

>  <Ligand effiencies>  (74) 
[-0.2689655172413793]

>  <Interactions>  (74) 
["V-A:LEU:363:CD1:3189, V-A:ASP:366:CG:3213, H-A:TYR:531:OH:4795, H-A:ASP:366:OD2:3215, V-A:ASP:366:CB:3212, H-A:TYR:539:N:4870, V-B:PRO:540:N:9856, V-B:PRO:540:CA:9855, V-B:TYR:539:CE2:9848, V-B:MET:535:CE:9807, V-B:LEU:363:CD1:8160, V-B:TYR:539:C:9839, V-B:TYR:539:CD2:9846, V-A:MET:535:CE:4835, V-B:TYR:531:CE2:9765, V-B:ALA:541:CB:9864, V-A:LEU:475:CD2:4259, V-A:TYR:531:CZ:4794, V-A:TYR:539:CE1:4875, V-A:TYR:539:CZ:4877, V-A:TYR:539:CD1:4873, V-A:TYR:539:CD2:4874, V-A:ILE:538:CA:4860, V-A:TYR:539:CG:4872, V-A:TYR:539:CE2:4876, V-A:TYR:531:CE2:4793, V-A:ILE:538:C:4858, V-A:ILE:538:CB:4862, H-A:ASP:366:OD1:3214"]

$$$$
3bd_Grossjean_2025
     RDKit          3D

 26 28  0  0  0  0  0  0  0  0999 V2000
  127.3830  123.6290   56.6320 C   0  0  0  0  0  0  0  0  0  0  0  0
  128.3610  124.1780   57.6690 C   0  0  0  0  0  0  0  0  0  0  0  0
  128.3010  123.6670   58.9710 C   0  0  0  0  0  0  0  0  0  0  0  0
  129.1780  124.1470   59.9510 C   0  0  0  0  0  0  0  0  0  0  0  0
  129.1700  123.6410   61.3630 C   0  0  0  0  0  0  0  0  0  0  0  0
  130.3580  123.5730   62.1070 C   0  0  0  0  0  0  0  0  0  0  0  0
  130.3580  123.1020   63.4180 C   0  0  0  0  0  0  0  0  0  0  0  0
  129.1650  122.6920   64.0040 C   0  0  0  0  0  0  0  0  0  0  0  0
  127.9750  122.7460   63.2870 C   0  0  0  0  0  0  0  0  0  0  0  0
  127.9790  123.2170   61.9770 C   0  0  0  0  0  0  0  0  0  0  0  0
  130.1020  125.0980   59.6520 N   0  0  0  0  0  0  0  0  0  0  0  0
  130.1740  125.6040   58.3950 C   0  0  0  0  0  0  0  0  0  0  0  0
  131.4210  126.8550   58.1360 S   0  0  0  0  0  0  0  0  0  0  0  0
  132.8640  126.0590   57.3670 C   0  0  0  0  0  0  0  0  0  0  0  0
  133.3190  124.8230   58.1440 C   0  0  0  0  0  0  0  0  0  0  0  0
  134.0020  123.9740   57.5710 O   0  0  0  0  0  0  0  0  0  0  0  0
  132.9080  124.7550   59.4290 N   0  0  0  0  0  0  0  0  0  0  0  0
  133.1810  123.7680   60.3950 C   0  0  0  0  0  0  0  0  0  0  0  0
  132.8220  122.4610   60.0570 C   0  0  0  0  0  0  0  0  0  0  0  0
  133.0460  121.4190   60.9530 C   0  0  0  0  0  0  0  0  0  0  0  0
  133.6200  121.6850   62.1930 C   0  0  0  0  0  0  0  0  0  0  0  0
  133.9700  122.9870   62.5470 C   0  0  0  0  0  0  0  0  0  0  0  0
  133.7490  124.0300   61.6530 C   0  0  0  0  0  0  0  0  0  0  0  0
  129.3150  125.1720   57.3620 C   0  0  0  0  0  0  0  0  0  0  0  0
  129.4040  125.7260   56.0070 C   0  0  0  0  0  0  0  0  0  0  0  0
  129.4740  126.1610   54.9380 N   0  0  0  0  0  0  0  0  0  0  0  0
  1  2  1  0
  2  3  2  0
  3  4  1  0
  4  5  1  0
  5  6  2  0
  6  7  1  0
  7  8  2  0
  8  9  1  0
  9 10  2  0
  4 11  2  0
 11 12  1  0
 12 13  1  0
 13 14  1  0
 14 15  1  0
 15 16  2  0
 15 17  1  0
 17 18  1  0
 18 19  2  0
 19 20  1  0
 20 21  2  0
 21 22  1  0
 22 23  2  0
 12 24  2  0
 24 25  1  0
 25 26  3  0
 24  2  1  0
 10  5  1  0
 23 18  1  0
M  END
>  <Binding energies>  (75) 
[-7.49]

>  <Ligand effiencies>  (75) 
[-0.27740740740740744]

>  <Interactions>  (75) 
["V-A:ASP:366:CG:3213, H-A:TYR:531:OH:4795, H-B:TYR:539:OH:9850, V-A:ASP:366:CB:3212, V-B:TYR:539:CZ:9849, V-B:TYR:539:CE1:9847, V-B:TYR:539:CE2:9848, V-B:TYR:539:CD2:9846, V-B:ALA:541:CB:9864, V-A:ASP:366:C:3208, V-A:ASP:366:CA:3210, V-A:ILE:369:CD1:3239, V-B:GLU:543:CG:9879, H-A:ASN:370:N:3244, V-A:ILE:369:CG2:3237, V-A:LEU:475:CD2:4259, V-A:GLY:454:CA:4049, V-B:GLU:543:CD:9880, V-A:TYR:531:CZ:4794, V-B:ALA:541:CA:9862, H-A:ASP:366:OD1:3214"]

$$$$
3be_Grossjean_2025
     RDKit          3D

 27 29  0  0  0  0  0  0  0  0999 V2000
  126.5580  123.5460   58.4930 C   0  0  0  0  0  0  0  0  0  0  0  0
  127.3910  123.2600   59.7270 C   0  0  0  0  0  0  0  0  0  0  0  0
  126.8850  123.4620   61.0140 C   0  0  0  0  0  0  0  0  0  0  0  0
  127.7090  123.1800   62.1040 C   0  0  0  0  0  0  0  0  0  0  0  0
  129.0050  122.7050   61.8840 C   0  0  0  0  0  0  0  0  0  0  0  0
  129.4480  122.5210   60.5690 C   0  0  0  0  0  0  0  0  0  0  0  0
  130.7660  122.0520   60.4140 N   0  0  0  0  0  0  0  0  0  0  0  0
  131.3090  120.8970   60.8550 C   0  0  0  0  0  0  0  0  0  0  0  0
  130.7020  120.0380   61.4980 O   0  0  0  0  0  0  0  0  0  0  0  0
  132.7900  120.7040   60.4920 C   0  0  0  0  0  0  0  0  0  0  0  0
  133.9320  121.9320   61.2120 S   0  0  0  0  0  0  0  0  0  0  0  0
  133.0550  123.4720   61.3750 C   0  0  0  0  0  0  0  0  0  0  0  0
  132.6800  123.7520   62.6480 N   0  0  0  0  0  0  0  0  0  0  0  0
  132.0050  124.9010   62.9180 C   0  0  0  0  0  0  0  0  0  0  0  0
  131.6150  125.1280   64.3490 C   0  0  0  0  0  0  0  0  0  0  0  0
  130.2650  125.1240   64.7330 C   0  0  0  0  0  0  0  0  0  0  0  0
  129.8960  125.3370   66.0580 C   0  0  0  0  0  0  0  0  0  0  0  0
  130.8750  125.5580   67.0210 C   0  0  0  0  0  0  0  0  0  0  0  0
  132.2190  125.5680   66.6660 C   0  0  0  0  0  0  0  0  0  0  0  0
  132.5840  125.3560   65.3400 C   0  0  0  0  0  0  0  0  0  0  0  0
  131.6870  125.8020   61.8970 C   0  0  0  0  0  0  0  0  0  0  0  0
  132.0870  125.5410   60.5830 C   0  0  0  0  0  0  0  0  0  0  0  0
  131.7320  126.5620   59.5040 C   0  0  0  0  0  0  0  0  0  0  0  0
  132.8010  124.3550   60.3020 C   0  0  0  0  0  0  0  0  0  0  0  0
  133.2770  124.0880   58.9430 C   0  0  0  0  0  0  0  0  0  0  0  0
  133.6530  123.8790   57.8680 N   0  0  0  0  0  0  0  0  0  0  0  0
  128.6470  122.7990   59.4980 N   0  0  0  0  0  0  0  0  0  0  0  0
  1  2  1  0
  2  3  2  0
  3  4  1  0
  4  5  2  0
  5  6  1  0
  6  7  1  0
  7  8  1  0
  8  9  2  0
  8 10  1  0
 10 11  1  0
 11 12  1  0
 12 13  2  0
 13 14  1  0
 14 15  1  0
 15 16  2  0
 16 17  1  0
 17 18  2  0
 18 19  1  0
 19 20  2  0
 14 21  2  0
 21 22  1  0
 22 23  1  0
 22 24  2  0
 24 25  1  0
 25 26  3  0
  6 27  2  0
 27  2  1  0
 24 12  1  0
 20 15  1  0
M  END
>  <Binding energies>  (76) 
[-7.54]

>  <Ligand effiencies>  (76) 
[-0.2692857142857143]

>  <Interactions>  (76) 
["V-A:ASP:366:CG:3213, H-B:TYR:539:OH:9850, V-A:ASP:366:CB:3212, V-B:TYR:539:CZ:9849, V-B:PRO:540:N:9856, V-B:PRO:540:CB:9857, V-B:PRO:540:CA:9855, V-B:TYR:539:CE2:9848, V-B:TYR:539:CD2:9846, V-B:ALA:541:CB:9864, V-A:ASP:366:CA:3210, V-B:GLU:543:CG:9879, V-A:ILE:369:CG2:3237, V-A:LEU:475:CD2:4259, V-A:TYR:484:CZ:4347, V-B:GLU:543:CB:9878, V-A:ARG:545:CZ:4926, V-B:GLU:543:CD:9880, V-A:HIS:456:CE1:4070, V-A:ARG:545:CG:4922, V-A:ARG:545:CD:4923, V-A:SER:385:CB:3409"]

$$$$
3bf_Grossjean_2025
     RDKit          3D

 26 28  0  0  0  0  0  0  0  0999 V2000
  134.4910  124.2630   59.5530 C   0  0  0  0  0  0  0  0  0  0  0  0
  132.9700  124.2360   59.6910 C   0  0  0  0  0  0  0  0  0  0  0  0
  132.2120  124.9770   58.7790 C   0  0  0  0  0  0  0  0  0  0  0  0
  130.8150  124.9680   58.8600 C   0  0  0  0  0  0  0  0  0  0  0  0
  129.9460  125.7220   57.9000 C   0  0  0  0  0  0  0  0  0  0  0  0
  129.9150  127.1250   57.9110 C   0  0  0  0  0  0  0  0  0  0  0  0
  129.1100  127.8330   57.0230 C   0  0  0  0  0  0  0  0  0  0  0  0
  128.3210  127.1430   56.1080 C   0  0  0  0  0  0  0  0  0  0  0  0
  128.3320  125.7530   56.0770 C   0  0  0  0  0  0  0  0  0  0  0  0
  129.1380  125.0490   56.9680 C   0  0  0  0  0  0  0  0  0  0  0  0
  130.1780  124.2450   59.8190 N   0  0  0  0  0  0  0  0  0  0  0  0
  130.8990  123.5420   60.7260 C   0  0  0  0  0  0  0  0  0  0  0  0
  129.8980  122.6640   61.9080 S   0  0  0  0  0  0  0  0  0  0  0  0
  128.3450  123.5950   62.1360 C   0  0  0  0  0  0  0  0  0  0  0  0
  127.2460  123.2930   61.1060 C   0  0  0  0  0  0  0  0  0  0  0  0
  126.0940  123.0520   61.4680 O   0  0  0  0  0  0  0  0  0  0  0  0
  127.6510  123.3490   59.8180 N   0  0  0  0  0  0  0  0  0  0  0  0
  126.9060  123.1160   58.6470 C   0  0  0  0  0  0  0  0  0  0  0  0
  125.6830  123.7850   58.5250 C   0  0  0  0  0  0  0  0  0  0  0  0
  124.9030  123.6070   57.3810 C   0  0  0  0  0  0  0  0  0  0  0  0
  125.3760  122.7590   56.3780 C   0  0  0  0  0  0  0  0  0  0  0  0
  126.5620  122.1060   56.4650 N   0  0  0  0  0  0  0  0  0  0  0  0
  127.3090  122.2890   57.5840 C   0  0  0  0  0  0  0  0  0  0  0  0
  132.3100  123.4900   60.6920 C   0  0  0  0  0  0  0  0  0  0  0  0
  133.0830  122.6680   61.6270 C   0  0  0  0  0  0  0  0  0  0  0  0
  133.6950  122.0200   62.3650 N   0  0  0  0  0  0  0  0  0  0  0  0
  1  2  1  0
  2  3  2  0
  3  4  1  0
  4  5  1  0
  5  6  2  0
  6  7  1  0
  7  8  2  0
  8  9  1  0
  9 10  2  0
  4 11  2  0
 11 12  1  0
 12 13  1  0
 13 14  1  0
 14 15  1  0
 15 16  2  0
 15 17  1  0
 17 18  1  0
 18 19  2  0
 19 20  1  0
 20 21  2  0
 21 22  1  0
 22 23  2  0
 12 24  2  0
 24 25  1  0
 25 26  3  0
 24  2  1  0
 10  5  1  0
 23 18  1  0
M  END
>  <Binding energies>  (77) 
[-7.5]

>  <Ligand effiencies>  (77) 
[-0.2777777777777778]

>  <Interactions>  (77) 
["V-A:ASP:366:CG:3213, V-A:ASP:366:CB:3212, V-B:TYR:539:CZ:9849, V-B:PRO:540:N:9856, V-B:PRO:540:CB:9857, V-B:TYR:539:CD1:9845, V-B:PRO:540:CA:9855, V-B:TYR:539:CE2:9848, H-B:TYR:539:N:9842, V-B:PRO:540:CD:9859, V-B:MET:535:CE:9807, V-B:LEU:363:CD1:8160, V-B:TYR:539:C:9839, V-B:TYR:539:CG:9844, H-B:ALA:541:N:9863, V-B:TYR:539:CD2:9846, V-A:MET:535:CE:4835, V-A:ASP:366:C:3208, V-A:ASP:366:CA:3210, V-A:ILE:369:CD1:3239, V-A:ILE:369:CB:3236, V-A:ILE:369:CG2:3237, H-A:GLY:454:N:4050, V-B:ILE:538:CG2:9835, V-B:TYR:539:CA:9841, V-A:ILE:369:CG1:3238"]

$$$$
3bg_Grossjean_2025
     RDKit          3D

 27 29  0  0  0  0  0  0  0  0999 V2000
  134.1640  124.3720   59.6860 C   0  0  0  0  0  0  0  0  0  0  0  0
  132.6490  124.1810   59.6750 C   0  0  0  0  0  0  0  0  0  0  0  0
  131.8850  125.0050   58.8440 C   0  0  0  0  0  0  0  0  0  0  0  0
  130.4920  124.8590   58.7980 C   0  0  0  0  0  0  0  0  0  0  0  0
  129.6130  125.7040   57.9180 C   0  0  0  0  0  0  0  0  0  0  0  0
  129.0000  126.8680   58.4100 C   0  0  0  0  0  0  0  0  0  0  0  0
  128.2010  127.6630   57.5930 C   0  0  0  0  0  0  0  0  0  0  0  0
  127.9970  127.3030   56.2660 C   0  0  0  0  0  0  0  0  0  0  0  0
  128.5810  126.1500   55.7540 C   0  0  0  0  0  0  0  0  0  0  0  0
  129.3780  125.3570   56.5750 C   0  0  0  0  0  0  0  0  0  0  0  0
  129.8730  123.9060   59.5450 N   0  0  0  0  0  0  0  0  0  0  0  0
  130.6010  123.0950   60.3550 C   0  0  0  0  0  0  0  0  0  0  0  0
  129.6710  121.8640   61.2550 S   0  0  0  0  0  0  0  0  0  0  0  0
  128.6420  122.7180   62.4940 C   0  0  0  0  0  0  0  0  0  0  0  0
  127.3100  123.1880   61.9020 C   0  0  0  0  0  0  0  0  0  0  0  0
  126.2500  122.7760   62.3740 O   0  0  0  0  0  0  0  0  0  0  0  0
  127.3830  124.0280   60.8560 N   0  0  0  0  0  0  0  0  0  0  0  0
  126.2540  124.4550   60.0280 C   0  0  0  0  0  0  0  0  0  0  0  0
  126.2250  123.7250   58.6910 C   0  0  0  0  0  0  0  0  0  0  0  0
  127.3560  123.0330   58.2460 C   0  0  0  0  0  0  0  0  0  0  0  0
  127.3330  122.3740   57.0200 C   0  0  0  0  0  0  0  0  0  0  0  0
  126.1740  122.3980   56.2460 C   0  0  0  0  0  0  0  0  0  0  0  0
  125.0360  123.0670   56.6920 C   0  0  0  0  0  0  0  0  0  0  0  0
  125.0600  123.7270   57.9190 C   0  0  0  0  0  0  0  0  0  0  0  0
  132.0030  123.2030   60.4600 C   0  0  0  0  0  0  0  0  0  0  0  0
  132.7780  122.3190   61.3350 C   0  0  0  0  0  0  0  0  0  0  0  0
  133.3910  121.6220   62.0250 N   0  0  0  0  0  0  0  0  0  0  0  0
  1  2  1  0
  2  3  2  0
  3  4  1  0
  4  5  1  0
  5  6  2  0
  6  7  1  0
  7  8  2  0
  8  9  1  0
  9 10  2  0
  4 11  2  0
 11 12  1  0
 12 13  1  0
 13 14  1  0
 14 15  1  0
 15 16  2  0
 15 17  1  0
 17 18  1  0
 18 19  1  0
 19 20  2  0
 20 21  1  0
 21 22  2  0
 22 23  1  0
 23 24  2  0
 12 25  2  0
 25 26  1  0
 26 27  3  0
 25  2  1  0
 10  5  1  0
 24 19  1  0
M  END
>  <Binding energies>  (78) 
[-7.49]

>  <Ligand effiencies>  (78) 
[-0.2675]

>  <Interactions>  (78) 
["V-A:ASP:366:CG:3213, V-A:ASP:366:CB:3212, V-B:TYR:539:CZ:9849, V-B:PRO:540:N:9856, V-B:TYR:539:CE1:9847, V-B:PRO:540:CB:9857, V-B:TYR:539:CD1:9845, V-B:PRO:540:CA:9855, V-B:TYR:539:CE2:9848, V-B:PRO:540:CD:9859, V-B:MET:535:CE:9807, V-B:LEU:363:CD1:8160, V-B:TYR:539:C:9839, V-B:TYR:539:CG:9844, H-B:ALA:541:N:9863, V-B:TYR:539:CD2:9846, V-B:ALA:541:CB:9864, V-A:ASP:366:CA:3210, V-A:ILE:369:CD1:3239, V-A:ILE:369:CB:3236, V-A:ILE:369:CG2:3237, V-A:LEU:475:CD2:4259, V-B:GLU:543:CD:9880, V-B:ILE:538:CG2:9835, V-B:TYR:539:CA:9841"]

$$$$
3ca_Grossjean_2025
     RDKit          3D

 31 33  0  0  0  0  0  0  0  0999 V2000
  127.4570  131.7820   56.6000 C   0  0  0  0  0  0  0  0  0  0  0  0
  128.3280  132.8850   55.9920 C   0  0  0  0  0  0  0  0  0  0  0  0
  129.1150  133.4840   57.0140 O   0  0  0  0  0  0  0  0  0  0  0  0
  130.4000  133.1010   57.2240 C   0  0  0  0  0  0  0  0  0  0  0  0
  131.3640  133.5970   56.6310 O   0  0  0  0  0  0  0  0  0  0  0  0
  130.5360  132.0180   58.2560 C   0  0  0  0  0  0  0  0  0  0  0  0
  130.9580  130.7430   57.8580 C   0  0  0  0  0  0  0  0  0  0  0  0
  131.0940  129.7190   58.7910 C   0  0  0  0  0  0  0  0  0  0  0  0
  130.8030  129.9450   60.1370 C   0  0  0  0  0  0  0  0  0  0  0  0
  130.9740  128.8410   60.9950 N   0  0  0  0  0  0  0  0  0  0  0  0
  130.9360  127.5200   60.7180 C   0  0  0  0  0  0  0  0  0  0  0  0
  130.7540  127.0310   59.6040 O   0  0  0  0  0  0  0  0  0  0  0  0
  131.1650  126.5930   61.9170 C   0  0  0  0  0  0  0  0  0  0  0  0
  129.6190  125.9150   62.6050 S   0  0  0  0  0  0  0  0  0  0  0  0
  129.1130  124.4810   61.6640 C   0  0  0  0  0  0  0  0  0  0  0  0
  129.6790  123.3050   62.0340 N   0  0  0  0  0  0  0  0  0  0  0  0
  129.3280  122.1770   61.3790 C   0  0  0  0  0  0  0  0  0  0  0  0
  129.9900  120.9020   61.8630 C   0  0  0  0  0  0  0  0  0  0  0  0
  128.4160  122.1750   60.3270 C   0  0  0  0  0  0  0  0  0  0  0  0
  127.8310  123.3790   59.9140 C   0  0  0  0  0  0  0  0  0  0  0  0
  126.8690  123.3290   58.7720 C   0  0  0  0  0  0  0  0  0  0  0  0
  127.2510  122.7510   57.5560 C   0  0  0  0  0  0  0  0  0  0  0  0
  126.3640  122.7090   56.4830 C   0  0  0  0  0  0  0  0  0  0  0  0
  125.0890  123.2510   56.6220 C   0  0  0  0  0  0  0  0  0  0  0  0
  124.6950  123.8360   57.8230 C   0  0  0  0  0  0  0  0  0  0  0  0
  125.5850  123.8770   58.8930 C   0  0  0  0  0  0  0  0  0  0  0  0
  128.1780  124.5680   60.6040 C   0  0  0  0  0  0  0  0  0  0  0  0
  127.5600  125.8500   60.2510 C   0  0  0  0  0  0  0  0  0  0  0  0
  127.0710  126.8610   59.9710 N   0  0  0  0  0  0  0  0  0  0  0  0
  130.3870  131.2210   60.5460 C   0  0  0  0  0  0  0  0  0  0  0  0
  130.2540  132.2450   59.6110 C   0  0  0  0  0  0  0  0  0  0  0  0
  1  2  1  0
  2  3  1  0
  3  4  1  0
  4  5  2  0
  4  6  1  0
  6  7  2  0
  7  8  1  0
  8  9  2  0
  9 10  1  0
 10 11  1  0
 11 12  2  0
 11 13  1  0
 13 14  1  0
 14 15  1  0
 15 16  2  0
 16 17  1  0
 17 18  1  0
 17 19  2  0
 19 20  1  0
 20 21  1  0
 21 22  2  0
 22 23  1  0
 23 24  2  0
 24 25  1  0
 25 26  2  0
 20 27  2  0
 27 28  1  0
 28 29  3  0
  9 30  1  0
 30 31  2  0
 31  6  1  0
 27 15  1  0
 26 21  1  0
M  END
>  <Binding energies>  (79) 
[-8.46]

>  <Ligand effiencies>  (79) 
[-0.264375]

>  <Interactions>  (79) 
["V-A:ASP:366:CG:3213, V-A:PRO:540:CA:4883, V-A:PRO:540:CB:4885, V-A:PRO:540:CD:4887, H-A:ASP:366:OD2:3215, V-A:PRO:540:N:4884, V-A:TYR:539:C:4867, H-A:TYR:539:N:4870, V-B:PRO:540:N:9856, V-B:PRO:540:CB:9857, V-B:PRO:540:CA:9855, V-B:TYR:539:CE2:9848, V-B:PRO:540:CD:9859, V-B:MET:535:CE:9807, V-B:LEU:363:CD1:8160, V-B:TYR:539:C:9839, V-B:PRO:540:C:9853, V-B:TYR:539:CD2:9846, V-A:MET:535:CE:4835, V-B:ALA:541:CB:9864, V-A:LEU:475:CD2:4259, H-A:GLU:543:OE1:4909, V-A:TYR:539:CE1:4875, V-A:TYR:539:CZ:4877, V-A:TYR:539:CD1:4873, V-A:TYR:539:CD2:4874, V-A:ILE:538:CA:4860, V-A:TYR:539:CG:4872, V-A:TYR:539:CE2:4876"]

$$$$
3ce_Grossjean_2025
     RDKit          3D

 27 29  0  0  0  0  0  0  0  0999 V2000
  134.7270  124.9670   66.7220 C   0  0  0  0  0  0  0  0  0  0  0  0
  133.4670  125.0770   65.8840 C   0  0  0  0  0  0  0  0  0  0  0  0
  132.2300  125.3790   66.4600 C   0  0  0  0  0  0  0  0  0  0  0  0
  131.1160  125.4750   65.6260 C   0  0  0  0  0  0  0  0  0  0  0  0
  131.2620  125.2670   64.2520 C   0  0  0  0  0  0  0  0  0  0  0  0
  132.5270  124.9580   63.7430 C   0  0  0  0  0  0  0  0  0  0  0  0
  132.6180  124.7790   62.3520 N   0  0  0  0  0  0  0  0  0  0  0  0
  133.7250  124.5610   61.6070 C   0  0  0  0  0  0  0  0  0  0  0  0
  134.8700  124.4750   62.0530 O   0  0  0  0  0  0  0  0  0  0  0  0
  133.4930  124.4050   60.1050 C   0  0  0  0  0  0  0  0  0  0  0  0
  132.0390  125.3380   59.5420 S   0  0  0  0  0  0  0  0  0  0  0  0
  130.6590  124.2300   59.7100 C   0  0  0  0  0  0  0  0  0  0  0  0
  130.7640  123.3740   60.7550 N   0  0  0  0  0  0  0  0  0  0  0  0
  129.7550  122.5000   60.9790 C   0  0  0  0  0  0  0  0  0  0  0  0
  129.9310  121.5810   62.1730 C   0  0  0  0  0  0  0  0  0  0  0  0
  128.6240  122.4380   60.1700 C   0  0  0  0  0  0  0  0  0  0  0  0
  128.5090  123.2960   59.0690 C   0  0  0  0  0  0  0  0  0  0  0  0
  127.2890  123.1740   58.2160 C   0  0  0  0  0  0  0  0  0  0  0  0
  127.3390  122.4550   57.0160 C   0  0  0  0  0  0  0  0  0  0  0  0
  126.2070  122.3420   56.2130 C   0  0  0  0  0  0  0  0  0  0  0  0
  125.0200  122.9560   56.6030 C   0  0  0  0  0  0  0  0  0  0  0  0
  124.9570  123.6840   57.7890 C   0  0  0  0  0  0  0  0  0  0  0  0
  126.0890  123.7940   58.5900 C   0  0  0  0  0  0  0  0  0  0  0  0
  129.5520  124.2260   58.8280 C   0  0  0  0  0  0  0  0  0  0  0  0
  129.4810  125.1600   57.7000 C   0  0  0  0  0  0  0  0  0  0  0  0
  129.4230  125.8970   56.8090 N   0  0  0  0  0  0  0  0  0  0  0  0
  133.6240  124.8710   64.5520 N   0  0  0  0  0  0  0  0  0  0  0  0
  1  2  1  0
  2  3  2  0
  3  4  1  0
  4  5  2  0
  5  6  1  0
  6  7  1  0
  7  8  1  0
  8  9  2  0
  8 10  1  0
 10 11  1  0
 11 12  1  0
 12 13  2  0
 13 14  1  0
 14 15  1  0
 14 16  2  0
 16 17  1  0
 17 18  1  0
 18 19  2  0
 19 20  1  0
 20 21  2  0
 21 22  1  0
 22 23  2  0
 17 24  2  0
 24 25  1  0
 25 26  3  0
  6 27  2  0
 27  2  1  0
 24 12  1  0
 23 18  1  0
M  END
>  <Binding energies>  (80) 
[-7.94]

>  <Ligand effiencies>  (80) 
[-0.2835714285714286]

>  <Interactions>  (80) 
["V-A:ASP:366:CG:3213, H-A:TYR:531:OH:4795, H-B:TYR:539:OH:9850, V-A:ASP:366:CB:3212, V-B:TYR:539:CZ:9849, V-B:PRO:540:N:9856, V-B:TYR:539:CE1:9847, V-B:PRO:540:CB:9857, V-B:TYR:539:CD1:9845, V-B:PRO:540:CA:9855, V-B:TYR:539:CE2:9848, V-B:PRO:540:CD:9859, V-B:MET:535:CE:9807, V-B:LEU:363:CD1:8160, V-B:TYR:539:C:9839, V-B:TYR:539:CG:9844, V-B:TYR:539:CD2:9846, V-B:ALA:541:CB:9864, V-A:ASP:366:CA:3210, V-A:LEU:475:CD2:4259, V-A:TYR:484:CZ:4347, V-A:GLY:453:CA:4044, H-A:TYR:484:OH:4348, V-A:GLU:543:CD:4908, H-A:ARG:545:NE:4924, V-A:GLY:454:CA:4049, V-A:ARG:545:CZ:4926, V-A:HIS:456:CE1:4070, V-A:ARG:545:CG:4922, H-A:ARG:545:NH2:4928, H-A:GLY:454:N:4050, V-A:GLY:453:C:4042, V-B:ILE:538:CG2:9835, V-B:TYR:539:CA:9841, V-A:ARG:545:CD:4923, V-A:GLY:454:C:4047, V-A:ILE:455:C:4052"]

$$$$
3cj_Grossjean_2025
     RDKit          3D

 25 27  0  0  0  0  0  0  0  0999 V2000
  131.9410  126.4730   58.1530 C   0  0  0  0  0  0  0  0  0  0  0  0
  131.1600  125.3380   58.7860 C   0  0  0  0  0  0  0  0  0  0  0  0
  129.8970  124.9750   58.3220 C   0  0  0  0  0  0  0  0  0  0  0  0
  129.2200  123.9040   58.9210 C   0  0  0  0  0  0  0  0  0  0  0  0
  127.8990  123.5090   58.3500 C   0  0  0  0  0  0  0  0  0  0  0  0
  127.8310  122.7500   57.1760 C   0  0  0  0  0  0  0  0  0  0  0  0
  126.5970  122.3930   56.6370 C   0  0  0  0  0  0  0  0  0  0  0  0
  125.4260  122.8010   57.2680 C   0  0  0  0  0  0  0  0  0  0  0  0
  125.4780  123.5650   58.4310 C   0  0  0  0  0  0  0  0  0  0  0  0
  126.7130  123.9200   58.9690 C   0  0  0  0  0  0  0  0  0  0  0  0
  129.8370  123.2420   60.0120 C   0  0  0  0  0  0  0  0  0  0  0  0
  129.1670  122.1340   60.6990 C   0  0  0  0  0  0  0  0  0  0  0  0
  128.6380  121.2580   61.2410 N   0  0  0  0  0  0  0  0  0  0  0  0
  131.1210  123.6740   60.4130 C   0  0  0  0  0  0  0  0  0  0  0  0
  132.0630  122.8460   61.6770 S   0  0  0  0  0  0  0  0  0  0  0  0
  133.3240  121.8940   60.7720 C   0  0  0  0  0  0  0  0  0  0  0  0
  132.7880  120.5360   60.3070 C   0  0  0  0  0  0  0  0  0  0  0  0
  133.4960  119.8130   59.6020 O   0  0  0  0  0  0  0  0  0  0  0  0
  131.5550  120.2160   60.7560 N   0  0  0  0  0  0  0  0  0  0  0  0
  130.9050  119.0030   60.5930 C   0  0  0  0  0  0  0  0  0  0  0  0
  130.9970  118.1660   59.5830 N   0  0  0  0  0  0  0  0  0  0  0  0
  130.2590  117.0910   59.7780 C   0  0  0  0  0  0  0  0  0  0  0  0
  129.5430  117.0420   60.9700 C   0  0  0  0  0  0  0  0  0  0  0  0
  129.8600  118.4890   61.8800 S   0  0  0  0  0  0  0  0  0  0  0  0
  131.7740  124.6960   59.8040 N   0  0  0  0  0  0  0  0  0  0  0  0
  1  2  1  0
  2  3  2  0
  3  4  1  0
  4  5  1  0
  5  6  2  0
  6  7  1  0
  7  8  2  0
  8  9  1  0
  9 10  2  0
  4 11  2  0
 11 12  1  0
 12 13  3  0
 11 14  1  0
 14 15  1  0
 15 16  1  0
 16 17  1  0
 17 18  2  0
 17 19  1  0
 19 20  1  0
 20 21  2  0
 21 22  1  0
 22 23  2  0
 23 24  1  0
 14 25  2  0
 25  2  1  0
 10  5  1  0
 24 20  1  0
M  END
>  <Binding energies>  (81) 
[-7.61]

>  <Ligand effiencies>  (81) 
[-0.2926923076923077]

>  <Interactions>  (81) 
["V-A:ASP:366:CG:3213, V-A:ASP:366:CB:3212, V-B:TYR:539:CZ:9849, V-B:PRO:540:N:9856, V-B:TYR:539:CE1:9847, V-B:PRO:540:CB:9857, V-B:TYR:539:CD1:9845, V-B:PRO:540:CA:9855, V-B:TYR:539:CE2:9848, V-B:PRO:540:CD:9859, V-B:LEU:363:CD1:8160, V-B:PRO:540:CG:9858, V-B:TYR:539:C:9839, V-B:TYR:539:CG:9844, H-B:ALA:541:N:9863, V-B:TYR:539:CD2:9846, V-B:ALA:541:CB:9864, V-A:ILE:369:CG2:3237, V-A:LEU:475:CD2:4259, V-B:TYR:539:CA:9841, V-B:TYR:539:CB:9843, H-A:SER:385:OG:3410, V-A:HIS:383:NE2:3394, V-A:LEU:475:CG:4257, V-A:HIS:383:CE1:3393, V-A:LEU:475:CD1:4258, V-A:PRO:482:CB:4326, V-A:PRO:482:CG:4327, H-A:HIS:383:HE2:3395, V-A:SER:385:CB:3409, V-B:VAL:344:CG1:7972"]

$$$$
4ba_Grossjean_2025
     RDKit          3D

 28 30  0  0  0  0  0  0  0  0999 V2000
  124.9940  124.4680   57.0040 C   0  0  0  0  0  0  0  0  0  0  0  0
  125.3740  122.9800   56.8890 C   0  0  0  0  0  0  0  0  0  0  0  0
  126.8070  122.6330   57.3450 C   0  0  0  0  0  0  0  0  0  0  0  0
  127.5120  121.9120   56.6360 O   0  0  0  0  0  0  0  0  0  0  0  0
  127.2810  123.2050   58.6490 C   0  0  0  0  0  0  0  0  0  0  0  0
  126.3450  123.5230   59.6410 C   0  0  0  0  0  0  0  0  0  0  0  0
  126.7570  124.0560   60.8590 C   0  0  0  0  0  0  0  0  0  0  0  0
  128.1110  124.2780   61.1130 C   0  0  0  0  0  0  0  0  0  0  0  0
  128.4160  124.8280   62.3730 N   0  0  0  0  0  0  0  0  0  0  0  0
  129.5900  124.8610   63.0490 C   0  0  0  0  0  0  0  0  0  0  0  0
  130.6330  124.3400   62.6500 O   0  0  0  0  0  0  0  0  0  0  0  0
  129.5490  125.5530   64.3390 C   0  0  0  0  0  0  0  0  0  0  0  0
  130.1960  124.7760   65.7820 S   0  0  0  0  0  0  0  0  0  0  0  0
  129.7370  126.1360   66.7780 C   0  0  0  0  0  0  0  0  0  0  0  0
  129.9770  126.1510   68.0880 N   0  0  0  0  0  0  0  0  0  0  0  0
  129.5750  127.2570   68.7540 C   0  0  0  0  0  0  0  0  0  0  0  0
  129.8500  127.2490   70.2470 C   0  0  0  0  0  0  0  0  0  0  0  0
  128.9480  128.3420   68.1460 C   0  0  0  0  0  0  0  0  0  0  0  0
  128.6920  128.3330   66.7650 C   0  0  0  0  0  0  0  0  0  0  0  0
  128.0030  129.5500   66.1410 C   0  0  0  0  0  0  0  0  0  0  0  0
  128.4580  129.8390   64.9200 F   0  0  0  0  0  0  0  0  0  0  0  0
  126.6930  129.3240   66.0350 F   0  0  0  0  0  0  0  0  0  0  0  0
  128.2030  130.6240   66.9060 F   0  0  0  0  0  0  0  0  0  0  0  0
  129.0990  127.1770   66.0350 C   0  0  0  0  0  0  0  0  0  0  0  0
  128.9980  126.8090   64.6430 C   0  0  0  0  0  0  0  0  0  0  0  0
  128.4160  127.6210   63.7040 N   0  0  0  0  0  0  0  0  0  0  0  0
  129.0550  123.9690   60.1220 C   0  0  0  0  0  0  0  0  0  0  0  0
  128.6410  123.4360   58.9030 C   0  0  0  0  0  0  0  0  0  0  0  0
  1  2  1  0
  2  3  1  0
  3  4  2  0
  3  5  1  0
  5  6  2  0
  6  7  1  0
  7  8  2  0
  8  9  1  0
  9 10  1  0
 10 11  2  0
 10 12  1  0
 12 13  1  0
 13 14  1  0
 14 15  2  0
 15 16  1  0
 16 17  1  0
 16 18  2  0
 18 19  1  0
 19 20  1  0
 20 21  1  0
 20 22  1  0
 20 23  1  0
 19 24  2  0
 24 25  1  0
 25 26  1  0
  8 27  1  0
 27 28  2  0
 28  5  1  0
 25 12  2  0
 24 14  1  0
M  END
>  <Binding energies>  (82) 
[-6.99]

>  <Ligand effiencies>  (82) 
[-0.22548387096774195]

>  <Interactions>  (82) 
["V-B:TYR:539:CZ:9849, V-B:PRO:540:N:9856, V-B:PRO:540:CB:9857, V-B:PRO:540:CA:9855, V-B:TYR:539:CE2:9848, H-B:TYR:539:N:9842, V-B:PRO:540:CD:9859, V-B:MET:535:CE:9807, V-B:LEU:363:CD1:8160, V-B:TYR:539:C:9839, H-B:GLU:543:OE1:9881, V-B:TYR:531:CZ:9766, V-B:TYR:539:CD2:9846, V-B:TYR:531:CE2:9765, V-B:GLU:543:CG:9879, V-B:GLU:543:CB:9878, V-A:GLU:543:CD:4908, V-A:TYR:484:CE2:4346, V-B:GLU:543:CD:9880, V-B:HIS:456:CE1:9041, V-A:HIS:456:CE1:4070, V-A:GLU:543:CG:4907, V-A:GLU:543:CB:4906, H-A:GLU:543:OE1:4909, V-B:TYR:484:CZ:9318, V-A:GLU:543:CA:4904, H-B:GLU:543:OE2:9882, V-B:TYR:484:CE2:9317"]

$$$$
4bb_Grossjean_2025
     RDKit          3D

 27 29  0  0  0  0  0  0  0  0999 V2000
  125.0150  122.7310   56.7170 C   0  0  0  0  0  0  0  0  0  0  0  0
  126.4930  122.5550   57.0750 C   0  0  0  0  0  0  0  0  0  0  0  0
  127.2190  121.9670   56.2710 O   0  0  0  0  0  0  0  0  0  0  0  0
  126.9760  123.0960   58.3870 C   0  0  0  0  0  0  0  0  0  0  0  0
  126.1950  124.0350   59.0730 C   0  0  0  0  0  0  0  0  0  0  0  0
  126.6200  124.5530   60.2920 C   0  0  0  0  0  0  0  0  0  0  0  0
  127.8290  124.1380   60.8540 C   0  0  0  0  0  0  0  0  0  0  0  0
  128.1650  124.7290   62.0880 N   0  0  0  0  0  0  0  0  0  0  0  0
  129.3730  124.8710   62.6860 C   0  0  0  0  0  0  0  0  0  0  0  0
  130.4300  124.4500   62.2180 O   0  0  0  0  0  0  0  0  0  0  0  0
  129.3500  125.5510   63.9840 C   0  0  0  0  0  0  0  0  0  0  0  0
  130.0210  124.7630   65.4110 S   0  0  0  0  0  0  0  0  0  0  0  0
  129.5820  126.1180   66.4240 C   0  0  0  0  0  0  0  0  0  0  0  0
  129.8520  126.1280   67.7280 N   0  0  0  0  0  0  0  0  0  0  0  0
  129.4640  127.2310   68.4070 C   0  0  0  0  0  0  0  0  0  0  0  0
  129.7820  127.2220   69.8910 C   0  0  0  0  0  0  0  0  0  0  0  0
  128.8180  128.3150   67.8190 C   0  0  0  0  0  0  0  0  0  0  0  0
  128.5310  128.3110   66.4460 C   0  0  0  0  0  0  0  0  0  0  0  0
  127.8190  129.5270   65.8430 C   0  0  0  0  0  0  0  0  0  0  0  0
  128.2670  129.8450   64.6260 F   0  0  0  0  0  0  0  0  0  0  0  0
  126.5130  129.2770   65.7360 F   0  0  0  0  0  0  0  0  0  0  0  0
  128.0000  130.5910   66.6250 F   0  0  0  0  0  0  0  0  0  0  0  0
  128.9270  127.1610   65.6980 C   0  0  0  0  0  0  0  0  0  0  0  0
  128.8050  126.8050   64.3070 C   0  0  0  0  0  0  0  0  0  0  0  0
  128.2140  127.6260   63.3820 N   0  0  0  0  0  0  0  0  0  0  0  0
  128.6210  123.2040   60.1690 C   0  0  0  0  0  0  0  0  0  0  0  0
  128.1940  122.6870   58.9480 C   0  0  0  0  0  0  0  0  0  0  0  0
  1  2  1  0
  2  3  2  0
  2  4  1  0
  4  5  2  0
  5  6  1  0
  6  7  2  0
  7  8  1  0
  8  9  1  0
  9 10  2  0
  9 11  1  0
 11 12  1  0
 12 13  1  0
 13 14  2  0
 14 15  1  0
 15 16  1  0
 15 17  2  0
 17 18  1  0
 18 19  1  0
 19 20  1  0
 19 21  1  0
 19 22  1  0
 18 23  2  0
 23 24  1  0
 24 25  1  0
  7 26  1  0
 26 27  2  0
 27  4  1  0
 24 11  2  0
 23 13  1  0
M  END
>  <Binding energies>  (83) 
[-6.91]

>  <Ligand effiencies>  (83) 
[-0.23033333333333333]

>  <Interactions>  (83) 
["V-B:PRO:540:N:9856, V-B:PRO:540:CB:9857, V-B:PRO:540:CA:9855, V-B:TYR:539:CE2:9848, H-B:TYR:539:N:9842, V-B:PRO:540:CD:9859, V-B:MET:535:CE:9807, V-B:LEU:363:CD1:8160, V-B:PRO:540:CG:9858, V-B:TYR:539:C:9839, H-B:GLU:543:OE1:9881, V-B:TYR:539:CD2:9846, V-B:GLU:543:CG:9879, V-B:GLU:543:CB:9878, V-A:GLU:543:CD:4908, V-B:GLU:543:CD:9880, V-B:HIS:456:CE1:9041, V-A:HIS:456:CE1:4070, V-A:GLU:543:CG:4907, V-A:GLU:543:CB:4906, H-A:GLU:543:OE1:4909, V-B:TYR:484:CZ:9318, V-A:GLU:543:CA:4904, H-B:GLU:543:OE2:9882, V-B:ILE:538:CG2:9835, V-B:TYR:484:CE2:9317"]

$$$$
4bd_Grossjean_2025
     RDKit          3D

 24 26  0  0  0  0  0  0  0  0999 V2000
  134.3460  124.2060   60.3560 C   0  0  0  0  0  0  0  0  0  0  0  0
  133.2350  123.9650   61.3620 C   0  0  0  0  0  0  0  0  0  0  0  0
  132.2190  123.0500   61.1050 C   0  0  0  0  0  0  0  0  0  0  0  0
  131.1970  122.8400   62.0440 C   0  0  0  0  0  0  0  0  0  0  0  0
  130.0970  121.8240   61.7150 C   0  0  0  0  0  0  0  0  0  0  0  0
  128.9280  122.3980   61.4190 F   0  0  0  0  0  0  0  0  0  0  0  0
  130.4590  121.0900   60.6640 F   0  0  0  0  0  0  0  0  0  0  0  0
  129.8940  121.0250   62.7620 F   0  0  0  0  0  0  0  0  0  0  0  0
  131.2540  123.5960   63.2520 C   0  0  0  0  0  0  0  0  0  0  0  0
  130.4060  123.6500   64.4180 C   0  0  0  0  0  0  0  0  0  0  0  0
  129.2830  122.8770   64.5510 N   0  0  0  0  0  0  0  0  0  0  0  0
  130.8350  124.5620   65.3980 C   0  0  0  0  0  0  0  0  0  0  0  0
  130.2090  124.8800   66.6850 C   0  0  0  0  0  0  0  0  0  0  0  0
  129.5300  124.0410   67.2770 O   0  0  0  0  0  0  0  0  0  0  0  0
  130.4480  126.1310   67.1540 N   0  0  0  0  0  0  0  0  0  0  0  0
  129.9680  126.7550   68.3200 C   0  0  0  0  0  0  0  0  0  0  0  0
  130.8600  127.6190   68.9620 C   0  0  0  0  0  0  0  0  0  0  0  0
  130.4760  128.2930   70.1180 C   0  0  0  0  0  0  0  0  0  0  0  0
  129.1940  128.1100   70.6300 C   0  0  0  0  0  0  0  0  0  0  0  0
  128.2920  127.2630   69.9920 C   0  0  0  0  0  0  0  0  0  0  0  0
  128.6720  126.5870   68.8350 C   0  0  0  0  0  0  0  0  0  0  0  0
  132.3140  125.3810   64.9030 S   0  0  0  0  0  0  0  0  0  0  0  0
  132.3490  124.5030   63.3910 C   0  0  0  0  0  0  0  0  0  0  0  0
  133.3170  124.6980   62.4970 N   0  0  0  0  0  0  0  0  0  0  0  0
  1  2  1  0
  2  3  2  0
  3  4  1  0
  4  5  1  0
  5  6  1  0
  5  7  1  0
  5  8  1  0
  4  9  2  0
  9 10  1  0
 10 11  1  0
 10 12  2  0
 12 13  1  0
 13 14  2  0
 13 15  1  0
 15 16  1  0
 16 17  2  0
 17 18  1  0
 18 19  2  0
 19 20  1  0
 20 21  2  0
 12 22  1  0
 22 23  1  0
 23 24  2  0
 24  2  1  0
 23  9  1  0
 21 16  1  0
M  END
>  <Binding energies>  (84) 
[-5.95]

>  <Ligand effiencies>  (84) 
[-0.22037037037037038]

>  <Interactions>  (84) 
["V-A:ASP:366:CG:3213, V-A:ASP:366:CB:3212, V-B:TYR:539:CE2:9848, V-B:TYR:539:CD2:9846, V-B:ALA:541:CB:9864, V-A:ASP:366:CA:3210, V-A:ILE:369:CD1:3239, V-B:GLU:543:CG:9879, V-A:ILE:369:CB:3236, V-A:ILE:369:CG2:3237, V-A:LEU:475:CD2:4259, V-A:TYR:484:CZ:4347, V-B:GLU:543:CB:9878, H-A:TYR:484:OH:4348, V-A:GLU:543:CD:4908, V-A:TYR:484:CE2:4346, V-A:ARG:545:CZ:4926, V-B:HIS:456:CE1:9041, V-A:GLY:544:C:4912, V-B:GLU:543:C:9874, V-B:HIS:456:CD2:9039, V-A:HIS:456:CE1:4070, V-A:GLU:543:C:4902, V-A:GLU:543:CB:4906, H-A:GLU:543:OE1:4909, H-A:GLU:543:OE2:4910, H-A:ARG:545:NH2:4928, V-A:LEU:475:CD1:4258"]

$$$$
4be_Grossjean_2025
     RDKit          3D

 25 27  0  0  0  0  0  0  0  0999 V2000
  127.3040  126.8710   70.7620 C   0  0  0  0  0  0  0  0  0  0  0  0
  128.6810  127.1700   70.1990 C   0  0  0  0  0  0  0  0  0  0  0  0
  129.5600  128.0430   70.8450 C   0  0  0  0  0  0  0  0  0  0  0  0
  130.8100  128.2730   70.2680 C   0  0  0  0  0  0  0  0  0  0  0  0
  131.1460  127.6330   69.0730 C   0  0  0  0  0  0  0  0  0  0  0  0
  130.2200  126.7660   68.4820 C   0  0  0  0  0  0  0  0  0  0  0  0
  130.6170  126.1590   67.2770 N   0  0  0  0  0  0  0  0  0  0  0  0
  130.2700  124.9450   66.7800 C   0  0  0  0  0  0  0  0  0  0  0  0
  129.5090  124.1620   67.3500 O   0  0  0  0  0  0  0  0  0  0  0  0
  130.8860  124.5910   65.4980 C   0  0  0  0  0  0  0  0  0  0  0  0
  132.3780  125.3790   64.9850 S   0  0  0  0  0  0  0  0  0  0  0  0
  132.3880  124.4820   63.4850 C   0  0  0  0  0  0  0  0  0  0  0  0
  133.3560  124.6460   62.5840 N   0  0  0  0  0  0  0  0  0  0  0  0
  133.2570  123.8950   61.4620 C   0  0  0  0  0  0  0  0  0  0  0  0
  134.3670  124.0990   60.4480 C   0  0  0  0  0  0  0  0  0  0  0  0
  132.2250  122.9920   61.2250 C   0  0  0  0  0  0  0  0  0  0  0  0
  131.2030  122.8130   62.1700 C   0  0  0  0  0  0  0  0  0  0  0  0
  130.0900  121.8050   61.8650 C   0  0  0  0  0  0  0  0  0  0  0  0
  129.8560  120.9650   62.8770 F   0  0  0  0  0  0  0  0  0  0  0  0
  128.9520  122.4510   61.6140 F   0  0  0  0  0  0  0  0  0  0  0  0
  130.4240  121.0710   60.8040 F   0  0  0  0  0  0  0  0  0  0  0  0
  131.2750  123.5940   63.3620 C   0  0  0  0  0  0  0  0  0  0  0  0
  130.4280  123.6870   64.5270 C   0  0  0  0  0  0  0  0  0  0  0  0
  129.2810  122.9500   64.6690 N   0  0  0  0  0  0  0  0  0  0  0  0
  128.9940  126.5400   69.0380 N   0  0  0  0  0  0  0  0  0  0  0  0
  1  2  1  0
  2  3  2  0
  3  4  1  0
  4  5  2  0
  5  6  1  0
  6  7  1  0
  7  8  1  0
  8  9  2  0
  8 10  1  0
 10 11  1  0
 11 12  1  0
 12 13  2  0
 13 14  1  0
 14 15  1  0
 14 16  2  0
 16 17  1  0
 17 18  1  0
 18 19  1  0
 18 20  1  0
 18 21  1  0
 17 22  2  0
 22 23  1  0
 23 24  1  0
  6 25  2  0
 25  2  1  0
 23 10  2  0
 22 12  1  0
M  END
>  <Binding energies>  (85) 
[-5.99]

>  <Ligand effiencies>  (85) 
[-0.21392857142857144]

>  <Interactions>  (85) 
["V-A:ASP:366:CG:3213, V-B:TYR:539:CE2:9848, V-B:TYR:539:CD2:9846, V-B:ALA:541:CB:9864, V-A:ASP:366:CA:3210, V-A:ILE:369:CD1:3239, V-B:GLU:543:CG:9879, V-A:ILE:369:CB:3236, V-A:ILE:369:CG2:3237, V-A:LEU:475:CD2:4259, V-A:TYR:484:CZ:4347, V-B:GLU:543:CB:9878, H-A:TYR:484:OH:4348, V-A:GLU:543:CD:4908, V-A:TYR:484:CE2:4346, V-A:ARG:545:CZ:4926, V-B:GLU:543:CD:9880, V-B:HIS:456:CE1:9041, V-A:GLY:544:C:4912, V-B:GLY:544:C:9884, V-B:GLU:543:C:9874, V-A:HIS:456:CE1:4070, V-A:GLU:543:C:4902, V-A:GLU:543:CB:4906, V-B:GLY:544:CA:9886, V-A:ARG:545:CG:4922, H-A:GLU:543:OE2:4910, H-A:ARG:545:NH2:4928, V-A:LEU:475:CG:4257, V-A:LEU:475:CD1:4258"]

$$$$
4bg_Grossjean_2025
     RDKit          3D

 25 27  0  0  0  0  0  0  0  0999 V2000
  130.2680  120.6570   61.0710 C   0  0  0  0  0  0  0  0  0  0  0  0
  130.6740  121.7700   62.0210 C   0  0  0  0  0  0  0  0  0  0  0  0
  131.7130  122.6400   61.7040 C   0  0  0  0  0  0  0  0  0  0  0  0
  132.0820  123.6620   62.5940 C   0  0  0  0  0  0  0  0  0  0  0  0
  133.2320  124.5950   62.2010 C   0  0  0  0  0  0  0  0  0  0  0  0
  133.8620  124.2090   61.0900 F   0  0  0  0  0  0  0  0  0  0  0  0
  132.7620  125.8240   61.9870 F   0  0  0  0  0  0  0  0  0  0  0  0
  134.1370  124.6330   63.1790 F   0  0  0  0  0  0  0  0  0  0  0  0
  131.3500  123.7590   63.8140 C   0  0  0  0  0  0  0  0  0  0  0  0
  131.4410  124.6490   64.9460 C   0  0  0  0  0  0  0  0  0  0  0  0
  132.3730  125.6530   65.0280 N   0  0  0  0  0  0  0  0  0  0  0  0
  130.4900  124.4010   65.9460 C   0  0  0  0  0  0  0  0  0  0  0  0
  130.3160  125.0830   67.2290 C   0  0  0  0  0  0  0  0  0  0  0  0
  129.8590  124.4970   68.2120 O   0  0  0  0  0  0  0  0  0  0  0  0
  130.7220  126.3690   67.2730 N   0  0  0  0  0  0  0  0  0  0  0  0
  130.6310  127.2480   68.4390 C   0  0  0  0  0  0  0  0  0  0  0  0
  129.3040  127.1440   69.1790 C   0  0  0  0  0  0  0  0  0  0  0  0
  128.1100  127.0100   68.4630 C   0  0  0  0  0  0  0  0  0  0  0  0
  126.9030  126.8770   69.1430 C   0  0  0  0  0  0  0  0  0  0  0  0
  126.8930  126.8640   70.5370 C   0  0  0  0  0  0  0  0  0  0  0  0
  128.0800  126.9810   71.2560 C   0  0  0  0  0  0  0  0  0  0  0  0
  129.2880  127.1150   70.5760 C   0  0  0  0  0  0  0  0  0  0  0  0
  129.4690  123.0250   65.5350 S   0  0  0  0  0  0  0  0  0  0  0  0
  130.3020  122.8080   64.0140 C   0  0  0  0  0  0  0  0  0  0  0  0
  129.9580  121.8380   63.1660 N   0  0  0  0  0  0  0  0  0  0  0  0
  1  2  1  0
  2  3  2  0
  3  4  1  0
  4  5  1  0
  5  6  1  0
  5  7  1  0
  5  8  1  0
  4  9  2  0
  9 10  1  0
 10 11  1  0
 10 12  2  0
 12 13  1  0
 13 14  2  0
 13 15  1  0
 15 16  1  0
 16 17  1  0
 17 18  2  0
 18 19  1  0
 19 20  2  0
 20 21  1  0
 21 22  2  0
 12 23  1  0
 23 24  1  0
 24 25  2  0
 25  2  1  0
 24  9  1  0
 22 17  1  0
M  END
>  <Binding energies>  (86) 
[-6.11]

>  <Ligand effiencies>  (86) 
[-0.21821428571428572]

>  <Interactions>  (86) 
["V-A:ASP:366:CG:3213, V-B:TYR:539:CE2:9848, V-B:TYR:539:CD2:9846, V-A:ILE:369:CD1:3239, V-B:GLU:543:CG:9879, V-A:LEU:475:CD2:4259, V-A:TYR:484:CZ:4347, V-A:GLY:453:CA:4044, V-B:GLU:543:CB:9878, H-A:TYR:484:OH:4348, V-A:GLU:543:CD:4908, V-A:TYR:484:CE2:4346, V-A:ARG:545:CZ:4926, V-B:HIS:456:CE1:9041, V-B:GLY:544:C:9884, V-B:GLU:543:C:9874, V-A:HIS:456:CE1:4070, V-A:GLU:543:CB:4906, V-B:GLY:544:CA:9886, H-A:GLU:543:OE1:4909, H-A:GLU:543:OE2:4910, V-B:GLU:543:CA:9876, V-A:GLY:453:C:4042"]

$$$$
4ca_Grossjean_2025
     RDKit          3D

 34 37  0  0  0  0  0  0  0  0999 V2000
  131.4790  131.8850   55.6520 C   0  0  0  0  0  0  0  0  0  0  0  0
  131.7080  132.6830   56.9390 C   0  0  0  0  0  0  0  0  0  0  0  0
  130.6500  133.6160   57.1120 O   0  0  0  0  0  0  0  0  0  0  0  0
  129.3860  133.2010   57.3870 C   0  0  0  0  0  0  0  0  0  0  0  0
  128.4330  133.3680   56.6190 O   0  0  0  0  0  0  0  0  0  0  0  0
  129.2640  132.5160   58.7170 C   0  0  0  0  0  0  0  0  0  0  0  0
  129.5190  131.1410   58.8040 C   0  0  0  0  0  0  0  0  0  0  0  0
  129.4190  130.4790   60.0250 C   0  0  0  0  0  0  0  0  0  0  0  0
  129.0540  131.1720   61.1780 C   0  0  0  0  0  0  0  0  0  0  0  0
  128.9910  130.4060   62.3590 N   0  0  0  0  0  0  0  0  0  0  0  0
  127.9340  129.7960   62.9480 C   0  0  0  0  0  0  0  0  0  0  0  0
  126.7950  129.7800   62.4790 O   0  0  0  0  0  0  0  0  0  0  0  0
  128.2290  129.1130   64.2090 C   0  0  0  0  0  0  0  0  0  0  0  0
  127.8670  129.8950   65.7460 S   0  0  0  0  0  0  0  0  0  0  0  0
  128.4320  128.5030   66.6390 C   0  0  0  0  0  0  0  0  0  0  0  0
  128.4090  128.4770   67.9690 N   0  0  0  0  0  0  0  0  0  0  0  0
  128.8550  127.3460   68.5760 C   0  0  0  0  0  0  0  0  0  0  0  0
  128.8070  127.3430   70.0770 C   0  0  0  0  0  0  0  0  0  0  0  0
  129.9020  127.7930   70.8320 C   0  0  0  0  0  0  0  0  0  0  0  0
  129.8660  127.7880   72.2240 C   0  0  0  0  0  0  0  0  0  0  0  0
  128.7310  127.3290   72.8830 C   0  0  0  0  0  0  0  0  0  0  0  0
  127.6330  126.8760   72.1600 C   0  0  0  0  0  0  0  0  0  0  0  0
  127.6730  126.8830   70.7680 C   0  0  0  0  0  0  0  0  0  0  0  0
  129.3420  126.2580   67.8440 C   0  0  0  0  0  0  0  0  0  0  0  0
  129.3740  126.2780   66.4420 C   0  0  0  0  0  0  0  0  0  0  0  0
  129.9180  125.0490   65.7030 C   0  0  0  0  0  0  0  0  0  0  0  0
  129.2240  124.7510   64.6030 F   0  0  0  0  0  0  0  0  0  0  0  0
  131.1790  125.2660   65.3330 F   0  0  0  0  0  0  0  0  0  0  0  0
  129.8710  123.9840   66.5030 F   0  0  0  0  0  0  0  0  0  0  0  0
  128.8930  127.4520   65.7950 C   0  0  0  0  0  0  0  0  0  0  0  0
  128.7630  127.8280   64.4080 C   0  0  0  0  0  0  0  0  0  0  0  0
  129.1310  127.0010   63.3780 N   0  0  0  0  0  0  0  0  0  0  0  0
  128.8010  132.5500   61.1020 C   0  0  0  0  0  0  0  0  0  0  0  0
  128.9050  133.2120   59.8810 C   0  0  0  0  0  0  0  0  0  0  0  0
  1  2  1  0
  2  3  1  0
  3  4  1  0
  4  5  2  0
  4  6  1  0
  6  7  2  0
  7  8  1  0
  8  9  2  0
  9 10  1  0
 10 11  1  0
 11 12  2  0
 11 13  1  0
 13 14  1  0
 14 15  1  0
 15 16  2  0
 16 17  1  0
 17 18  1  0
 18 19  2  0
 19 20  1  0
 20 21  2  0
 21 22  1  0
 22 23  2  0
 17 24  2  0
 24 25  1  0
 25 26  1  0
 26 27  1  0
 26 28  1  0
 26 29  1  0
 25 30  2  0
 30 31  1  0
 31 32  1  0
  9 33  1  0
 33 34  2  0
 34  6  1  0
 31 13  2  0
 30 15  1  0
 23 18  1  0
M  END
>  <Binding energies>  (87) 
[-8.5]

>  <Ligand effiencies>  (87) 
[-0.22972972972972974]

>  <Interactions>  (87) 
["V-A:LEU:363:CD1:3189, V-A:PRO:540:CA:4883, V-A:PRO:540:CB:4885, V-A:PRO:540:CD:4887, V-A:PRO:540:N:4884, V-A:TYR:539:C:4867, H-A:TYR:539:N:4870, H-B:GLU:543:OE1:9881, V-A:MET:535:CE:4835, V-B:GLU:543:CG:9879, V-A:TYR:484:CZ:4347, V-B:GLU:543:CB:9878, V-A:GLU:543:CD:4908, V-A:TYR:484:CE2:4346, V-B:GLU:543:CD:9880, V-B:HIS:456:CE1:9041, V-B:GLY:544:C:9884, V-B:GLU:543:C:9874, V-B:LYS:547:CE:9922, V-A:HIS:456:CE1:4070, V-A:GLU:543:CG:4907, V-A:GLU:543:CB:4906, V-B:GLY:544:CA:9886, H-A:GLU:543:OE1:4909, H-A:GLU:543:OE2:4910, V-B:TYR:484:CZ:9318, H-B:GLU:543:OE2:9882, V-B:GLU:543:CA:9876, V-A:TYR:539:CD1:4873, V-A:TYR:539:CG:4872, V-A:TYR:539:CA:4869, V-A:TYR:531:CE2:4793, V-B:TYR:484:CE2:9317, V-A:ILE:538:CG2:4863, V-A:ILE:538:CB:4862"]

$$$$
4cb_Grossjean_2025
     RDKit          3D

 33 36  0  0  0  0  0  0  0  0999 V2000
  131.6840  132.6320   56.2850 C   0  0  0  0  0  0  0  0  0  0  0  0
  130.9210  133.4970   57.1160 O   0  0  0  0  0  0  0  0  0  0  0  0
  129.6100  133.2500   57.3650 C   0  0  0  0  0  0  0  0  0  0  0  0
  128.6950  133.6100   56.6180 O   0  0  0  0  0  0  0  0  0  0  0  0
  129.3810  132.4920   58.6420 C   0  0  0  0  0  0  0  0  0  0  0  0
  130.4310  131.7440   59.1910 C   0  0  0  0  0  0  0  0  0  0  0  0
  130.2530  131.0380   60.3770 C   0  0  0  0  0  0  0  0  0  0  0  0
  129.0230  131.0580   61.0350 C   0  0  0  0  0  0  0  0  0  0  0  0
  128.9580  130.3210   62.2330 N   0  0  0  0  0  0  0  0  0  0  0  0
  127.8980  129.7370   62.8420 C   0  0  0  0  0  0  0  0  0  0  0  0
  126.7550  129.7250   62.3810 O   0  0  0  0  0  0  0  0  0  0  0  0
  128.1940  129.0790   64.1180 C   0  0  0  0  0  0  0  0  0  0  0  0
  127.8020  129.8780   65.6390 S   0  0  0  0  0  0  0  0  0  0  0  0
  128.3850  128.5110   66.5600 C   0  0  0  0  0  0  0  0  0  0  0  0
  128.3520  128.5040   67.8900 N   0  0  0  0  0  0  0  0  0  0  0  0
  128.8170  127.3920   68.5170 C   0  0  0  0  0  0  0  0  0  0  0  0
  128.7620  127.4120   70.0180 C   0  0  0  0  0  0  0  0  0  0  0  0
  127.6570  126.8800   70.7020 C   0  0  0  0  0  0  0  0  0  0  0  0
  127.5980  126.8980   72.0930 C   0  0  0  0  0  0  0  0  0  0  0  0
  128.6460  127.4500   72.8220 C   0  0  0  0  0  0  0  0  0  0  0  0
  129.7520  127.9870   72.1690 C   0  0  0  0  0  0  0  0  0  0  0  0
  129.8050  127.9680   70.7780 C   0  0  0  0  0  0  0  0  0  0  0  0
  129.3330  126.3040   67.8060 C   0  0  0  0  0  0  0  0  0  0  0  0
  129.3750  126.3030   66.4040 C   0  0  0  0  0  0  0  0  0  0  0  0
  129.9510  125.0750   65.6870 C   0  0  0  0  0  0  0  0  0  0  0  0
  129.9870  123.9870   66.4600 F   0  0  0  0  0  0  0  0  0  0  0  0
  129.2040  124.7830   64.6230 F   0  0  0  0  0  0  0  0  0  0  0  0
  131.1990  125.3260   65.2930 F   0  0  0  0  0  0  0  0  0  0  0  0
  128.8750  127.4570   65.7350 C   0  0  0  0  0  0  0  0  0  0  0  0
  128.7480  127.8080   64.3410 C   0  0  0  0  0  0  0  0  0  0  0  0
  129.1370  126.9700   63.3270 N   0  0  0  0  0  0  0  0  0  0  0  0
  127.9670  131.8070   60.4940 C   0  0  0  0  0  0  0  0  0  0  0  0
  128.1470  132.5140   59.3090 C   0  0  0  0  0  0  0  0  0  0  0  0
  1  2  1  0
  2  3  1  0
  3  4  2  0
  3  5  1  0
  5  6  2  0
  6  7  1  0
  7  8  2  0
  8  9  1  0
  9 10  1  0
 10 11  2  0
 10 12  1  0
 12 13  1  0
 13 14  1  0
 14 15  2  0
 15 16  1  0
 16 17  1  0
 17 18  2  0
 18 19  1  0
 19 20  2  0
 20 21  1  0
 21 22  2  0
 16 23  2  0
 23 24  1  0
 24 25  1  0
 25 26  1  0
 25 27  1  0
 25 28  1  0
 24 29  2  0
 29 30  1  0
 30 31  1  0
  8 32  1  0
 32 33  2  0
 33  5  1  0
 30 12  2  0
 29 14  1  0
 22 17  1  0
M  END
>  <Binding energies>  (88) 
[-8.27]

>  <Ligand effiencies>  (88) 
[-0.22972222222222222]

>  <Interactions>  (88) 
["V-A:LEU:363:CD1:3189, V-A:PRO:540:CA:4883, V-A:PRO:540:CB:4885, V-A:PRO:540:N:4884, V-A:TYR:539:C:4867, H-A:TYR:539:N:4870, H-B:GLU:543:OE1:9881, V-B:GLU:543:CG:9879, V-A:TYR:484:CZ:4347, V-B:GLU:543:CB:9878, V-A:GLU:543:CD:4908, V-A:TYR:484:CE2:4346, V-B:GLU:543:CD:9880, V-B:HIS:456:CE1:9041, V-B:GLY:544:C:9884, V-B:GLU:543:C:9874, V-B:HIS:456:CD2:9039, V-B:LYS:547:CE:9922, V-A:HIS:456:CE1:4070, V-A:GLU:543:CG:4907, V-A:GLU:543:CB:4906, V-B:GLY:544:CA:9886, H-A:GLU:543:OE1:4909, H-A:GLU:543:OE2:4910, V-B:TYR:484:CZ:9318, H-B:GLU:543:OE2:9882, V-A:TYR:539:CE1:4875, V-B:GLU:543:CA:9876, V-A:TYR:539:CD1:4873, V-A:TYR:539:CA:4869, V-A:ILE:538:CG2:4863, V-A:ILE:538:CB:4862"]

$$$$
4cc_Grossjean_2025
     RDKit          3D

 31 34  0  0  0  0  0  0  0  0999 V2000
  130.7960  132.8570   56.6060 C   0  0  0  0  0  0  0  0  0  0  0  0
  129.7860  133.3430   57.4840 O   0  0  0  0  0  0  0  0  0  0  0  0
  129.5200  132.6570   58.6530 C   0  0  0  0  0  0  0  0  0  0  0  0
  130.4890  131.7470   59.0740 C   0  0  0  0  0  0  0  0  0  0  0  0
  130.3100  131.0100   60.2420 C   0  0  0  0  0  0  0  0  0  0  0  0
  129.1490  131.1670   61.0010 C   0  0  0  0  0  0  0  0  0  0  0  0
  129.0630  130.3920   62.1720 N   0  0  0  0  0  0  0  0  0  0  0  0
  127.9770  129.8110   62.7380 C   0  0  0  0  0  0  0  0  0  0  0  0
  126.8450  129.8500   62.2540 O   0  0  0  0  0  0  0  0  0  0  0  0
  128.2260  129.1060   63.9990 C   0  0  0  0  0  0  0  0  0  0  0  0
  127.8350  129.8720   65.5370 S   0  0  0  0  0  0  0  0  0  0  0  0
  128.3860  128.4720   66.4260 C   0  0  0  0  0  0  0  0  0  0  0  0
  128.3430  128.4320   67.7560 N   0  0  0  0  0  0  0  0  0  0  0  0
  128.7840  127.2970   68.3580 C   0  0  0  0  0  0  0  0  0  0  0  0
  128.7250  127.2820   69.8580 C   0  0  0  0  0  0  0  0  0  0  0  0
  129.8460  127.6430   70.6240 C   0  0  0  0  0  0  0  0  0  0  0  0
  129.8000  127.6300   72.0150 C   0  0  0  0  0  0  0  0  0  0  0  0
  128.6290  127.2530   72.6630 C   0  0  0  0  0  0  0  0  0  0  0  0
  127.5050  126.8870   71.9290 C   0  0  0  0  0  0  0  0  0  0  0  0
  127.5560  126.9010   70.5380 C   0  0  0  0  0  0  0  0  0  0  0  0
  129.2810  126.2160   67.6240 C   0  0  0  0  0  0  0  0  0  0  0  0
  129.3330  126.2490   66.2210 C   0  0  0  0  0  0  0  0  0  0  0  0
  129.8850  125.0260   65.4790 C   0  0  0  0  0  0  0  0  0  0  0  0
  129.1680  124.6980   64.4010 F   0  0  0  0  0  0  0  0  0  0  0  0
  131.1300  125.2700   65.0700 F   0  0  0  0  0  0  0  0  0  0  0  0
  129.8890  123.9700   66.2920 F   0  0  0  0  0  0  0  0  0  0  0  0
  128.8650  127.4300   65.5780 C   0  0  0  0  0  0  0  0  0  0  0  0
  128.7650  127.8240   64.1940 C   0  0  0  0  0  0  0  0  0  0  0  0
  129.1600  127.0100   63.1620 N   0  0  0  0  0  0  0  0  0  0  0  0
  128.1750  132.0900   60.5900 C   0  0  0  0  0  0  0  0  0  0  0  0
  128.3590  132.8250   59.4230 C   0  0  0  0  0  0  0  0  0  0  0  0
  1  2  1  0
  2  3  1  0
  3  4  2  0
  4  5  1  0
  5  6  2  0
  6  7  1  0
  7  8  1  0
  8  9  2  0
  8 10  1  0
 10 11  1  0
 11 12  1  0
 12 13  2  0
 13 14  1  0
 14 15  1  0
 15 16  2  0
 16 17  1  0
 17 18  2  0
 18 19  1  0
 19 20  2  0
 14 21  2  0
 21 22  1  0
 22 23  1  0
 23 24  1  0
 23 25  1  0
 23 26  1  0
 22 27  2  0
 27 28  1  0
 28 29  1  0
  6 30  1  0
 30 31  2  0
 31  3  1  0
 28 10  2  0
 27 12  1  0
 20 15  1  0
M  END
>  <Binding energies>  (89) 
[-7.44]

>  <Ligand effiencies>  (89) 
[-0.21882352941176472]

>  <Interactions>  (89) 
["V-A:PRO:540:CA:4883, V-A:PRO:540:CB:4885, V-A:PRO:540:N:4884, V-A:TYR:539:C:4867, H-A:TYR:539:N:4870, H-B:GLU:543:OE1:9881, V-B:GLU:543:CG:9879, V-A:TYR:484:CZ:4347, V-B:GLU:543:CB:9878, V-A:GLU:543:CD:4908, V-A:TYR:484:CE2:4346, V-B:GLU:543:CD:9880, V-B:HIS:456:CE1:9041, V-B:GLY:544:C:9884, V-B:GLU:543:C:9874, V-B:HIS:456:CD2:9039, V-A:HIS:456:CE1:4070, V-A:GLU:543:CG:4907, V-A:GLU:543:CB:4906, V-B:GLY:544:CA:9886, H-A:GLU:543:OE1:4909, H-A:GLU:543:OE2:4910, V-B:TYR:484:CZ:9318, V-A:TYR:539:CE1:4875, V-B:GLU:543:CA:9876, V-A:TYR:539:CD1:4873, V-A:ILE:538:CA:4860, V-A:ILE:538:CG2:4863, V-A:ILE:538:CB:4862"]

$$$$
4ce_Grossjean_2025
     RDKit          3D

 30 33  0  0  0  0  0  0  0  0999 V2000
  131.5560  120.2310   60.7250 C   0  0  0  0  0  0  0  0  0  0  0  0
  132.3420  121.2650   61.5090 C   0  0  0  0  0  0  0  0  0  0  0  0
  133.7130  121.4460   61.3090 C   0  0  0  0  0  0  0  0  0  0  0  0
  134.3700  122.4220   62.0600 C   0  0  0  0  0  0  0  0  0  0  0  0
  133.6490  123.1850   62.9810 C   0  0  0  0  0  0  0  0  0  0  0  0
  132.2780  122.9470   63.1350 C   0  0  0  0  0  0  0  0  0  0  0  0
  131.6030  123.7640   64.0600 N   0  0  0  0  0  0  0  0  0  0  0  0
  130.4570  124.4700   63.8900 C   0  0  0  0  0  0  0  0  0  0  0  0
  129.8060  124.4780   62.8440 O   0  0  0  0  0  0  0  0  0  0  0  0
  130.0180  125.2460   65.0520 C   0  0  0  0  0  0  0  0  0  0  0  0
  130.3000  124.6390   66.6820 S   0  0  0  0  0  0  0  0  0  0  0  0
  129.5780  126.0660   67.3870 C   0  0  0  0  0  0  0  0  0  0  0  0
  129.4900  126.2190   68.7050 N   0  0  0  0  0  0  0  0  0  0  0  0
  128.9270  127.3690   69.1610 C   0  0  0  0  0  0  0  0  0  0  0  0
  128.8470  127.5140   70.6510 C   0  0  0  0  0  0  0  0  0  0  0  0
  129.9290  128.0350   71.3790 C   0  0  0  0  0  0  0  0  0  0  0  0
  129.8650  128.1650   72.7640 C   0  0  0  0  0  0  0  0  0  0  0  0
  128.7140  127.7780   73.4420 C   0  0  0  0  0  0  0  0  0  0  0  0
  127.6290  127.2580   72.7450 C   0  0  0  0  0  0  0  0  0  0  0  0
  127.6970  127.1270   71.3600 C   0  0  0  0  0  0  0  0  0  0  0  0
  128.4360  128.3480   68.2900 C   0  0  0  0  0  0  0  0  0  0  0  0
  128.5200  128.1930   66.8970 C   0  0  0  0  0  0  0  0  0  0  0  0
  127.9640  129.3050   66.0010 C   0  0  0  0  0  0  0  0  0  0  0  0
  128.5770  129.3800   64.8170 F   0  0  0  0  0  0  0  0  0  0  0  0
  126.6690  129.0910   65.7660 F   0  0  0  0  0  0  0  0  0  0  0  0
  128.1120  130.4850   66.6020 F   0  0  0  0  0  0  0  0  0  0  0  0
  129.1230  126.9980   66.4090 C   0  0  0  0  0  0  0  0  0  0  0  0
  129.3860  126.5010   65.0800 C   0  0  0  0  0  0  0  0  0  0  0  0
  129.0500  127.1970   63.9480 N   0  0  0  0  0  0  0  0  0  0  0  0
  131.6280  121.9980   62.4010 N   0  0  0  0  0  0  0  0  0  0  0  0
  1  2  1  0
  2  3  2  0
  3  4  1  0
  4  5  2  0
  5  6  1  0
  6  7  1  0
  7  8  1  0
  8  9  2  0
  8 10  1  0
 10 11  1  0
 11 12  1  0
 12 13  2  0
 13 14  1  0
 14 15  1  0
 15 16  2  0
 16 17  1  0
 17 18  2  0
 18 19  1  0
 19 20  2  0
 14 21  2  0
 21 22  1  0
 22 23  1  0
 23 24  1  0
 23 25  1  0
 23 26  1  0
 22 27  2  0
 27 28  1  0
 28 29  1  0
  6 30  2  0
 30  2  1  0
 28 10  2  0
 27 12  1  0
 20 15  1  0
M  END
>  <Binding energies>  (90) 
[-7.44]

>  <Ligand effiencies>  (90) 
[-0.22545454545454546]

>  <Interactions>  (90) 
["V-B:TYR:539:CE2:9848, H-B:GLU:543:OE1:9881, V-B:TYR:539:CD2:9846, V-A:ILE:369:CD1:3239, V-B:GLU:543:CG:9879, V-A:ILE:369:CG2:3237, V-A:LEU:475:CD2:4259, V-A:TYR:484:CZ:4347, V-B:GLU:543:CB:9878, H-A:TYR:484:OH:4348, V-A:GLU:543:CD:4908, V-A:TYR:484:CE2:4346, V-A:GLY:454:CA:4049, V-B:GLU:543:CD:9880, V-B:HIS:456:CE1:9041, V-B:GLY:544:C:9884, V-B:HIS:456:CD2:9039, V-B:LYS:547:CE:9922, V-A:HIS:456:CE1:4070, V-A:GLU:543:CG:4907, V-A:GLU:543:CB:4906, H-A:GLU:543:OE1:4909, H-A:GLU:543:OE2:4910, V-B:TYR:484:CZ:9318, V-A:GLU:543:CA:4904, H-B:GLU:543:OE2:9882, V-B:TYR:484:CE2:9317, V-A:SER:385:CB:3409"]

$$$$
4cf_Grossjean_2025
     RDKit          3D

 29 32  0  0  0  0  0  0  0  0999 V2000
  129.0100  127.2330   63.8750 N   0  0  0  0  0  0  0  0  0  0  0  0
  129.3790  126.5270   64.9910 C   0  0  0  0  0  0  0  0  0  0  0  0
  130.0310  125.2850   64.9350 C   0  0  0  0  0  0  0  0  0  0  0  0
  130.4040  124.5010   63.7540 C   0  0  0  0  0  0  0  0  0  0  0  0
  129.7380  124.5690   62.7200 O   0  0  0  0  0  0  0  0  0  0  0  0
  131.5120  123.7340   63.8920 N   0  0  0  0  0  0  0  0  0  0  0  0
  132.1030  122.8370   62.9820 C   0  0  0  0  0  0  0  0  0  0  0  0
  133.4850  122.6000   62.8490 C   0  0  0  0  0  0  0  0  0  0  0  0
  133.9410  121.6920   61.8920 C   0  0  0  0  0  0  0  0  0  0  0  0
  133.0050  121.0420   61.0880 C   0  0  0  0  0  0  0  0  0  0  0  0
  131.6690  121.2560   61.1900 N   0  0  0  0  0  0  0  0  0  0  0  0
  131.2410  122.1440   62.1250 C   0  0  0  0  0  0  0  0  0  0  0  0
  130.3600  124.6650   66.5510 S   0  0  0  0  0  0  0  0  0  0  0  0
  129.6180  126.0660   67.2880 C   0  0  0  0  0  0  0  0  0  0  0  0
  129.5400  126.1960   68.6110 N   0  0  0  0  0  0  0  0  0  0  0  0
  128.9290  127.3120   69.0890 C   0  0  0  0  0  0  0  0  0  0  0  0
  128.8500  127.4290   70.5840 C   0  0  0  0  0  0  0  0  0  0  0  0
  127.6690  127.0990   71.2670 C   0  0  0  0  0  0  0  0  0  0  0  0
  127.5870  127.2030   72.6530 C   0  0  0  0  0  0  0  0  0  0  0  0
  128.6910  127.6380   73.3780 C   0  0  0  0  0  0  0  0  0  0  0  0
  129.8760  127.9690   72.7270 C   0  0  0  0  0  0  0  0  0  0  0  0
  129.9520  127.8620   71.3410 C   0  0  0  0  0  0  0  0  0  0  0  0
  128.4240  128.3010   68.2400 C   0  0  0  0  0  0  0  0  0  0  0  0
  128.5050  128.1750   66.8440 C   0  0  0  0  0  0  0  0  0  0  0  0
  127.9250  129.2940   65.9710 C   0  0  0  0  0  0  0  0  0  0  0  0
  128.5110  129.3830   64.7750 F   0  0  0  0  0  0  0  0  0  0  0  0
  126.6270  129.0770   65.7630 F   0  0  0  0  0  0  0  0  0  0  0  0
  128.0830  130.4690   66.5800 F   0  0  0  0  0  0  0  0  0  0  0  0
  129.1260  127.0000   66.3300 C   0  0  0  0  0  0  0  0  0  0  0  0
  1  2  1  0
  2  3  2  0
  3  4  1  0
  4  5  2  0
  4  6  1  0
  6  7  1  0
  7  8  2  0
  8  9  1  0
  9 10  2  0
 10 11  1  0
 11 12  2  0
  3 13  1  0
 13 14  1  0
 14 15  2  0
 15 16  1  0
 16 17  1  0
 17 18  2  0
 18 19  1  0
 19 20  2  0
 20 21  1  0
 21 22  2  0
 16 23  2  0
 23 24  1  0
 24 25  1  0
 25 26  1  0
 25 27  1  0
 25 28  1  0
 24 29  2  0
 29  2  1  0
 12  7  1  0
 29 14  1  0
 22 17  1  0
M  END
>  <Binding energies>  (91) 
[-6.91]

>  <Ligand effiencies>  (91) 
[-0.2159375]

>  <Interactions>  (91) 
["H-B:GLU:543:OE1:9881, V-A:ILE:369:CD1:3239, V-B:GLU:543:CG:9879, V-A:ILE:369:CG2:3237, V-A:LEU:475:CD2:4259, V-A:TYR:484:CZ:4347, V-B:GLU:543:CB:9878, H-A:TYR:484:OH:4348, V-A:GLU:543:CD:4908, V-A:TYR:484:CE2:4346, V-A:GLY:454:CA:4049, V-B:GLU:543:CD:9880, V-B:HIS:456:CE1:9041, V-B:GLY:544:C:9884, V-B:HIS:456:CD2:9039, V-B:LYS:547:CE:9922, V-A:HIS:456:CE1:4070, V-A:GLU:543:CG:4907, V-A:GLU:543:CB:4906, H-A:GLU:543:OE1:4909, H-A:GLU:543:OE2:4910, V-B:TYR:484:CZ:9318, V-A:GLU:543:CA:4904, H-B:GLU:543:OE2:9882, V-B:TYR:484:CE2:9317, V-A:SER:385:CB:3409, V-A:SER:385:C:3405"]

$$$$
4ci_Grossjean_2025
     RDKit          3D

 28 31  0  0  0  0  0  0  0  0999 V2000
  129.1800  127.2010   63.9360 N   0  0  0  0  0  0  0  0  0  0  0  0
  129.4900  126.5160   65.0820 C   0  0  0  0  0  0  0  0  0  0  0  0
  130.1440  125.2730   65.0840 C   0  0  0  0  0  0  0  0  0  0  0  0
  130.6210  124.4910   63.9400 C   0  0  0  0  0  0  0  0  0  0  0  0
  130.0230  124.5250   62.8620 O   0  0  0  0  0  0  0  0  0  0  0  0
  131.7300  123.7440   64.1650 N   0  0  0  0  0  0  0  0  0  0  0  0
  132.3880  122.9140   63.2660 C   0  0  0  0  0  0  0  0  0  0  0  0
  131.7870  122.4100   62.1130 C   0  0  0  0  0  0  0  0  0  0  0  0
  132.7570  121.6450   61.5080 C   0  0  0  0  0  0  0  0  0  0  0  0
  133.8850  121.6850   62.2590 O   0  0  0  0  0  0  0  0  0  0  0  0
  133.6370  122.4920   63.3710 N   0  0  0  0  0  0  0  0  0  0  0  0
  130.3920  124.6850   66.7260 S   0  0  0  0  0  0  0  0  0  0  0  0
  129.6120  126.0980   67.3980 C   0  0  0  0  0  0  0  0  0  0  0  0
  129.4740  126.2580   68.7120 N   0  0  0  0  0  0  0  0  0  0  0  0
  128.8570  127.3900   69.1400 C   0  0  0  0  0  0  0  0  0  0  0  0
  128.7120  127.5390   70.6280 C   0  0  0  0  0  0  0  0  0  0  0  0
  127.5250  127.1620   71.2770 C   0  0  0  0  0  0  0  0  0  0  0  0
  127.3850  127.2970   72.6560 C   0  0  0  0  0  0  0  0  0  0  0  0
  128.4340  127.8150   73.4080 C   0  0  0  0  0  0  0  0  0  0  0  0
  129.6180  128.2000   72.7910 C   0  0  0  0  0  0  0  0  0  0  0  0
  129.7540  128.0650   71.4120 C   0  0  0  0  0  0  0  0  0  0  0  0
  128.3670  128.3470   68.2450 C   0  0  0  0  0  0  0  0  0  0  0  0
  128.5080  128.1890   66.8570 C   0  0  0  0  0  0  0  0  0  0  0  0
  127.9470  129.2770   65.9340 C   0  0  0  0  0  0  0  0  0  0  0  0
  128.5760  129.3430   64.7590 F   0  0  0  0  0  0  0  0  0  0  0  0
  126.6600  129.0360   65.6850 F   0  0  0  0  0  0  0  0  0  0  0  0
  128.0660  130.4700   66.5190 F   0  0  0  0  0  0  0  0  0  0  0  0
  129.1640  127.0110   66.3980 C   0  0  0  0  0  0  0  0  0  0  0  0
  1  2  1  0
  2  3  2  0
  3  4  1  0
  4  5  2  0
  4  6  1  0
  6  7  1  0
  7  8  1  0
  8  9  2  0
  9 10  1  0
 10 11  1  0
  3 12  1  0
 12 13  1  0
 13 14  2  0
 14 15  1  0
 15 16  1  0
 16 17  2  0
 17 18  1  0
 18 19  2  0
 19 20  1  0
 20 21  2  0
 15 22  2  0
 22 23  1  0
 23 24  1  0
 24 25  1  0
 24 26  1  0
 24 27  1  0
 23 28  2  0
 28  2  1  0
 11  7  2  0
 28 13  1  0
 21 16  1  0
M  END
>  <Binding energies>  (92) 
[-6.72]

>  <Ligand effiencies>  (92) 
[-0.2167741935483871]

>  <Interactions>  (92) 
["H-B:GLU:543:OE1:9881, V-B:GLU:543:CG:9879, V-A:LEU:475:CD2:4259, V-A:TYR:484:CZ:4347, V-B:GLU:543:CB:9878, H-A:TYR:484:OH:4348, V-A:GLU:543:CD:4908, V-A:TYR:484:CE2:4346, V-B:GLU:543:CD:9880, V-B:HIS:456:CE1:9041, V-B:GLY:544:C:9884, V-B:HIS:456:CD2:9039, V-B:LYS:547:CE:9922, V-A:HIS:456:CE1:4070, V-A:GLU:543:CG:4907, V-A:GLU:543:CB:4906, V-B:HIS:456:CG:9037, H-A:GLU:543:OE1:4909, H-A:GLU:543:OE2:4910, V-B:TYR:484:CZ:9318, V-A:GLU:543:CA:4904, H-B:GLU:543:OE2:9882, H-A:GLY:454:N:4050, V-B:TYR:484:CE2:9317"]

$$$$
8a_Ghoteimi_2023
     RDKit          3D

 40 44  0  0  0  0  0  0  0  0999 V2000
  131.2330  131.7560   55.5360 C   0  0  0  0  0  0  0  0  0  0  0  0
  131.7570  132.8780   56.4360 C   0  0  0  0  0  0  0  0  0  0  0  0
  130.6590  133.6110   56.9650 O   0  0  0  0  0  0  0  0  0  0  0  0
  129.4280  133.0460   57.0760 C   0  0  0  0  0  0  0  0  0  0  0  0
  128.5590  133.1340   56.2030 O   0  0  0  0  0  0  0  0  0  0  0  0
  129.2270  132.3090   58.3690 C   0  0  0  0  0  0  0  0  0  0  0  0
  130.3210  131.6720   58.9700 C   0  0  0  0  0  0  0  0  0  0  0  0
  130.1670  130.9800   60.1670 C   0  0  0  0  0  0  0  0  0  0  0  0
  128.9190  130.9080   60.7900 C   0  0  0  0  0  0  0  0  0  0  0  0
  128.8820  130.1770   61.9940 N   0  0  0  0  0  0  0  0  0  0  0  0
  127.8970  129.4110   62.5240 C   0  0  0  0  0  0  0  0  0  0  0  0
  126.8020  129.2260   61.9960 O   0  0  0  0  0  0  0  0  0  0  0  0
  128.2190  128.7840   63.8100 C   0  0  0  0  0  0  0  0  0  0  0  0
  127.5680  129.4410   65.3100 S   0  0  0  0  0  0  0  0  0  0  0  0
  128.3850  128.2190   66.2560 C   0  0  0  0  0  0  0  0  0  0  0  0
  128.2980  128.1880   67.5860 N   0  0  0  0  0  0  0  0  0  0  0  0
  128.9770  127.1980   68.2250 C   0  0  0  0  0  0  0  0  0  0  0  0
  128.8820  127.1950   69.7170 C   0  0  0  0  0  0  0  0  0  0  0  0
  127.6800  126.8780   70.3650 C   0  0  0  0  0  0  0  0  0  0  0  0
  127.5950  126.8880   71.7550 C   0  0  0  0  0  0  0  0  0  0  0  0
  128.7070  127.2120   72.5300 C   0  0  0  0  0  0  0  0  0  0  0  0
  128.5290  127.1980   73.9010 O   0  0  0  0  0  0  0  0  0  0  0  0
  128.0420  128.3680   74.5480 C   0  0  0  0  0  0  0  0  0  0  0  0
  129.9160  127.5240   71.8920 C   0  0  0  0  0  0  0  0  0  0  0  0
  129.9970  127.5160   70.5020 C   0  0  0  0  0  0  0  0  0  0  0  0
  129.7290  126.2440   67.5370 C   0  0  0  0  0  0  0  0  0  0  0  0
  129.8090  126.2630   66.1400 C   0  0  0  0  0  0  0  0  0  0  0  0
  130.5970  125.2050   65.4560 C   0  0  0  0  0  0  0  0  0  0  0  0
  131.9420  125.4190   65.1490 C   0  0  0  0  0  0  0  0  0  0  0  0
  132.6890  124.4230   64.5270 C   0  0  0  0  0  0  0  0  0  0  0  0
  132.1080  123.1960   64.2060 C   0  0  0  0  0  0  0  0  0  0  0  0
  132.9250  122.2680   63.5900 O   0  0  0  0  0  0  0  0  0  0  0  0
  133.7010  122.6640   62.4660 C   0  0  0  0  0  0  0  0  0  0  0  0
  130.7580  122.9760   64.5210 C   0  0  0  0  0  0  0  0  0  0  0  0
  130.0130  123.9740   65.1450 C   0  0  0  0  0  0  0  0  0  0  0  0
  129.1250  127.3030   65.4510 C   0  0  0  0  0  0  0  0  0  0  0  0
  129.0270  127.6620   64.0570 C   0  0  0  0  0  0  0  0  0  0  0  0
  129.6840  126.9710   63.0700 N   0  0  0  0  0  0  0  0  0  0  0  0
  127.8190  131.5470   60.1970 C   0  0  0  0  0  0  0  0  0  0  0  0
  127.9750  132.2390   58.9990 C   0  0  0  0  0  0  0  0  0  0  0  0
  1  2  1  0
  2  3  1  0
  3  4  1  0
  4  5  2  0
  4  6  1  0
  6  7  2  0
  7  8  1  0
  8  9  2  0
  9 10  1  0
 10 11  1  0
 11 12  2  0
 11 13  1  0
 13 14  1  0
 14 15  1  0
 15 16  2  0
 16 17  1  0
 17 18  1  0
 18 19  2  0
 19 20  1  0
 20 21  2  0
 21 22  1  0
 22 23  1  0
 21 24  1  0
 24 25  2  0
 17 26  2  0
 26 27  1  0
 27 28  1  0
 28 29  2  0
 29 30  1  0
 30 31  2  0
 31 32  1  0
 32 33  1  0
 31 34  1  0
 34 35  2  0
 27 36  2  0
 36 37  1  0
 37 38  1  0
  9 39  1  0
 39 40  2  0
 40  6  1  0
 37 13  2  0
 36 15  1  0
 25 18  1  0
 35 28  1  0
M  END
>  <Binding energies>  (93) 
[-9.66]

>  <Ligand effiencies>  (93) 
[-0.2246511627906977]

>  <Interactions>  (93) 
["V-A:LEU:363:CD1:3189, V-A:PRO:540:CA:4883, V-A:PRO:540:CD:4887, V-A:PRO:540:N:4884, V-A:TYR:539:C:4867, H-A:TYR:539:N:4870, H-B:GLU:543:OE1:9881, V-A:MET:535:CE:4835, V-B:GLU:543:CG:9879, V-A:LEU:475:CD2:4259, V-A:TYR:484:CZ:4347, V-B:GLU:543:CB:9878, H-A:TYR:484:OH:4348, V-A:GLU:543:CD:4908, V-A:TYR:484:CE2:4346, V-A:GLY:454:CA:4049, V-A:ARG:545:CZ:4926, V-B:GLU:543:CD:9880, V-B:HIS:456:CE1:9041, V-B:GLY:544:C:9884, V-B:GLU:543:C:9874, V-B:HIS:456:CD2:9039, V-A:HIS:456:CE1:4070, V-A:GLU:543:CG:4907, V-A:GLU:543:CB:4906, V-B:GLY:544:CA:9886, H-B:LYS:547:NZ:9923, H-A:GLU:543:OE1:4909, H-A:GLU:543:OE2:4910, V-A:TYR:539:CE1:4875, H-A:GLY:454:N:4050, V-A:TYR:539:CD1:4873, V-A:ILE:538:CA:4860, V-A:ILE:538:CG2:4863, V-A:ILE:538:CB:4862, V-A:MET:535:CG:4833"]

$$$$
8c_Ghoteimi_2023
     RDKit          3D

 34 38  0  0  0  0  0  0  0  0999 V2000
  126.8290  128.7400   74.8290 C   0  0  0  0  0  0  0  0  0  0  0  0
  127.9310  127.9690   74.3640 O   0  0  0  0  0  0  0  0  0  0  0  0
  128.1720  127.8890   73.0060 C   0  0  0  0  0  0  0  0  0  0  0  0
  127.2600  127.1510   72.2530 C   0  0  0  0  0  0  0  0  0  0  0  0
  127.4250  127.0140   70.8780 C   0  0  0  0  0  0  0  0  0  0  0  0
  128.5080  127.6130   70.2190 C   0  0  0  0  0  0  0  0  0  0  0  0
  128.6920  127.4660   68.7410 C   0  0  0  0  0  0  0  0  0  0  0  0
  128.0800  128.3330   67.8320 C   0  0  0  0  0  0  0  0  0  0  0  0
  128.2710  128.1760   66.4550 C   0  0  0  0  0  0  0  0  0  0  0  0
  127.6010  129.1060   65.5190 C   0  0  0  0  0  0  0  0  0  0  0  0
  126.2060  129.1400   65.4370 C   0  0  0  0  0  0  0  0  0  0  0  0
  125.5780  130.0210   64.5640 C   0  0  0  0  0  0  0  0  0  0  0  0
  126.3290  130.8780   63.7580 C   0  0  0  0  0  0  0  0  0  0  0  0
  125.6200  131.7210   62.9230 O   0  0  0  0  0  0  0  0  0  0  0  0
  124.3130  131.3460   62.5050 C   0  0  0  0  0  0  0  0  0  0  0  0
  127.7300  130.8400   63.8380 C   0  0  0  0  0  0  0  0  0  0  0  0
  128.3580  129.9580   64.7130 C   0  0  0  0  0  0  0  0  0  0  0  0
  129.1070  127.1160   66.0140 C   0  0  0  0  0  0  0  0  0  0  0  0
  129.5160  126.6750   64.7070 C   0  0  0  0  0  0  0  0  0  0  0  0
  129.1010  127.2990   63.5570 N   0  0  0  0  0  0  0  0  0  0  0  0
  130.3690  125.5600   64.7230 C   0  0  0  0  0  0  0  0  0  0  0  0
  130.9740  124.8580   63.5890 C   0  0  0  0  0  0  0  0  0  0  0  0
  130.6740  125.1560   62.4310 O   0  0  0  0  0  0  0  0  0  0  0  0
  131.8610  123.8850   63.9140 N   0  0  0  0  0  0  0  0  0  0  0  0
  132.5710  123.0770   63.0370 C   0  0  0  0  0  0  0  0  0  0  0  0
  133.8730  122.8950   62.9800 N   0  0  0  0  0  0  0  0  0  0  0  0
  134.2030  122.0530   62.0210 C   0  0  0  0  0  0  0  0  0  0  0  0
  133.1540  121.5310   61.2720 C   0  0  0  0  0  0  0  0  0  0  0  0
  131.6560  122.1860   61.8640 S   0  0  0  0  0  0  0  0  0  0  0  0
  130.6920  125.0290   66.3740 S   0  0  0  0  0  0  0  0  0  0  0  0
  129.6830  126.2980   67.0290 C   0  0  0  0  0  0  0  0  0  0  0  0
  129.5000  126.4460   68.3410 N   0  0  0  0  0  0  0  0  0  0  0  0
  129.4190  128.3550   70.9820 C   0  0  0  0  0  0  0  0  0  0  0  0
  129.2580  128.4930   72.3570 C   0  0  0  0  0  0  0  0  0  0  0  0
  1  2  1  0
  2  3  1  0
  3  4  2  0
  4  5  1  0
  5  6  2  0
  6  7  1  0
  7  8  2  0
  8  9  1  0
  9 10  1  0
 10 11  2  0
 11 12  1  0
 12 13  2  0
 13 14  1  0
 14 15  1  0
 13 16  1  0
 16 17  2  0
  9 18  2  0
 18 19  1  0
 19 20  1  0
 19 21  2  0
 21 22  1  0
 22 23  2  0
 22 24  1  0
 24 25  1  0
 25 26  2  0
 26 27  1  0
 27 28  2  0
 28 29  1  0
 21 30  1  0
 30 31  1  0
 31 32  2  0
  6 33  1  0
 33 34  2  0
 34  3  1  0
 32  7  1  0
 17 10  1  0
 31 18  1  0
 29 25  1  0
M  END
>  <Binding energies>  (94) 
[-7.59]

>  <Ligand effiencies>  (94) 
[-0.20513513513513512]

>  <Interactions>  (94) 
["H-B:GLU:543:OE1:9881, V-A:ILE:369:CD1:3239, V-B:GLU:543:CG:9879, V-A:ILE:369:CG2:3237, V-A:LEU:475:CD2:4259, V-A:TYR:484:CZ:4347, V-B:GLU:543:CB:9878, H-A:TYR:484:OH:4348, V-A:GLU:543:CD:4908, V-A:TYR:484:CE2:4346, V-A:GLY:454:CA:4049, V-B:GLU:543:CD:9880, V-B:HIS:456:CE1:9041, V-B:GLY:544:C:9884, V-B:GLU:543:C:9874, V-B:HIS:456:CD2:9039, V-B:LYS:547:CE:9922, V-A:HIS:456:CE1:4070, V-A:GLU:543:CG:4907, V-A:GLU:543:C:4902, V-A:GLU:543:CB:4906, V-B:HIS:456:CG:9037, V-B:GLY:544:CA:9886, H-B:LYS:547:NZ:9923, H-A:GLU:543:OE1:4909, H-A:GLU:543:OE2:4910, H-B:GLU:543:OE2:9882, H-B:TYR:484:OH:9319, V-B:HIS:456:CB:9036, H-A:GLY:454:N:4050, V-A:SER:385:C:3405"]

$$$$
8d_Ghoteimi_2023
     RDKit          3D

 30 33  0  0  0  0  0  0  0  0999 V2000
  133.9140  131.7230   61.0720 C   0  0  0  0  0  0  0  0  0  0  0  0
  132.6170  131.3930   60.5940 O   0  0  0  0  0  0  0  0  0  0  0  0
  131.5510  131.3660   61.4360 C   0  0  0  0  0  0  0  0  0  0  0  0
  131.3900  132.1560   62.3690 O   0  0  0  0  0  0  0  0  0  0  0  0
  130.5930  130.2850   61.1180 C   0  0  0  0  0  0  0  0  0  0  0  0
  130.9920  129.0920   59.8800 S   0  0  0  0  0  0  0  0  0  0  0  0
  129.4660  128.2730   60.1230 C   0  0  0  0  0  0  0  0  0  0  0  0
  129.1300  127.1890   59.4220 N   0  0  0  0  0  0  0  0  0  0  0  0
  127.9200  126.6290   59.6920 C   0  0  0  0  0  0  0  0  0  0  0  0
  127.5660  125.4180   58.8890 C   0  0  0  0  0  0  0  0  0  0  0  0
  128.0340  125.2550   57.5770 C   0  0  0  0  0  0  0  0  0  0  0  0
  127.7000  124.1260   56.8350 C   0  0  0  0  0  0  0  0  0  0  0  0
  126.8910  123.1320   57.3810 C   0  0  0  0  0  0  0  0  0  0  0  0
  126.6120  122.0480   56.5720 O   0  0  0  0  0  0  0  0  0  0  0  0
  125.3680  121.9980   55.8810 C   0  0  0  0  0  0  0  0  0  0  0  0
  126.4190  123.2830   58.6930 C   0  0  0  0  0  0  0  0  0  0  0  0
  126.7550  124.4130   59.4330 C   0  0  0  0  0  0  0  0  0  0  0  0
  127.0510  127.1560   60.6520 C   0  0  0  0  0  0  0  0  0  0  0  0
  127.4050  128.2900   61.3890 C   0  0  0  0  0  0  0  0  0  0  0  0
  126.4660  128.8190   62.4050 C   0  0  0  0  0  0  0  0  0  0  0  0
  126.7870  128.7470   63.7620 C   0  0  0  0  0  0  0  0  0  0  0  0
  125.9000  129.2360   64.7170 C   0  0  0  0  0  0  0  0  0  0  0  0
  124.6860  129.8070   64.3320 C   0  0  0  0  0  0  0  0  0  0  0  0
  123.8700  130.2640   65.3480 O   0  0  0  0  0  0  0  0  0  0  0  0
  124.0200  129.7250   66.6560 C   0  0  0  0  0  0  0  0  0  0  0  0
  124.3680  129.8820   62.9660 C   0  0  0  0  0  0  0  0  0  0  0  0
  125.2560  129.3920   62.0120 C   0  0  0  0  0  0  0  0  0  0  0  0
  128.6650  128.8900   61.1260 C   0  0  0  0  0  0  0  0  0  0  0  0
  129.3340  130.0370   61.6760 C   0  0  0  0  0  0  0  0  0  0  0  0
  128.7770  130.8170   62.6570 N   0  0  0  0  0  0  0  0  0  0  0  0
  1  2  1  0
  2  3  1  0
  3  4  2  0
  3  5  1  0
  5  6  1  0
  6  7  1  0
  7  8  2  0
  8  9  1  0
  9 10  1  0
 10 11  2  0
 11 12  1  0
 12 13  2  0
 13 14  1  0
 14 15  1  0
 13 16  1  0
 16 17  2  0
  9 18  2  0
 18 19  1  0
 19 20  1  0
 20 21  2  0
 21 22  1  0
 22 23  2  0
 23 24  1  0
 24 25  1  0
 23 26  1  0
 26 27  2  0
 19 28  2  0
 28 29  1  0
 29 30  1  0
 29  5  2  0
 28  7  1  0
 17 10  1  0
 27 20  1  0
M  END
>  <Binding energies>  (95) 
[-6.34]

>  <Ligand effiencies>  (95) 
[-0.198125]

>  <Interactions>  (95) 
["V-A:ASP:366:CG:3213, V-A:PRO:540:CA:4883, V-A:PRO:540:CB:4885, V-B:TYR:539:CZ:9849, V-B:PRO:540:N:9856, V-B:PRO:540:CB:9857, V-B:PRO:540:CA:9855, H-B:TYR:539:N:9842, V-B:PRO:540:CD:9859, V-B:ASP:366:CG:8184, V-B:MET:535:CE:9807, V-B:LEU:363:CD1:8160, V-A:GLU:543:CD:4908, V-B:GLU:543:CD:9880, V-B:HIS:456:CE1:9041, H-A:GLU:543:OE1:4909, V-B:TYR:484:CZ:9318, H-B:TYR:484:OH:9319, H-A:ALA:541:N:4891, V-B:ILE:538:CG2:9835, V-B:ILE:538:CA:9832, V-B:ILE:538:C:9830, V-B:GLY:454:CA:9020, V-B:ARG:545:CZ:9898, V-A:LEU:363:CA:3185, V-A:ASN:362:CB:3176, V-A:ASN:362:C:3172, V-B:ARG:545:CD:9895, V-B:ILE:538:CB:9834, H-B:ARG:545:NE:9896, H-B:GLY:454:N:9021, V-B:ARG:545:CG:9894, V-B:TYR:484:CE1:9316"]

$$$$
9a_Ghoteimi_2023
     RDKit          3D

 48 54  0  0  0  0  0  0  0  0999 V2000
  131.7190  132.8180   56.4680 C   0  0  0  0  0  0  0  0  0  0  0  0
  130.5630  132.5730   55.4930 C   0  0  0  0  0  0  0  0  0  0  0  0
  129.4430  133.3610   55.8790 O   0  0  0  0  0  0  0  0  0  0  0  0
  128.2390  132.7900   56.1370 C   0  0  0  0  0  0  0  0  0  0  0  0
  127.2710  132.8680   55.3740 O   0  0  0  0  0  0  0  0  0  0  0  0
  128.1980  132.0570   57.4470 C   0  0  0  0  0  0  0  0  0  0  0  0
  129.1870  132.3130   58.4060 C   0  0  0  0  0  0  0  0  0  0  0  0
  129.1770  131.6480   59.6290 C   0  0  0  0  0  0  0  0  0  0  0  0
  128.1800  130.7170   59.9210 C   0  0  0  0  0  0  0  0  0  0  0  0
  128.2700  130.1070   61.1870 N   0  0  0  0  0  0  0  0  0  0  0  0
  127.3030  129.8060   62.0880 C   0  0  0  0  0  0  0  0  0  0  0  0
  126.1050  130.0390   61.9210 O   0  0  0  0  0  0  0  0  0  0  0  0
  127.7710  129.1590   63.3170 C   0  0  0  0  0  0  0  0  0  0  0  0
  127.4860  129.9140   64.8860 S   0  0  0  0  0  0  0  0  0  0  0  0
  128.2790  128.5950   65.7150 C   0  0  0  0  0  0  0  0  0  0  0  0
  128.3800  128.5650   67.0430 N   0  0  0  0  0  0  0  0  0  0  0  0
  129.0040  127.4890   67.5910 C   0  0  0  0  0  0  0  0  0  0  0  0
  129.0970  127.4710   69.0820 C   0  0  0  0  0  0  0  0  0  0  0  0
  128.0570  126.9380   69.8530 C   0  0  0  0  0  0  0  0  0  0  0  0
  128.1350  126.9160   71.2420 C   0  0  0  0  0  0  0  0  0  0  0  0
  129.2630  127.4150   71.9140 C   0  0  0  0  0  0  0  0  0  0  0  0
  129.3470  127.4180   73.3100 N   0  0  0  0  0  0  0  0  0  0  0  0
  130.5280  126.8770   74.0130 C   0  0  0  0  0  0  0  0  0  0  0  0
  130.2980  126.6300   75.5190 C   0  0  0  0  0  0  0  0  0  0  0  0
  129.8350  127.8170   76.1410 O   0  0  0  0  0  0  0  0  0  0  0  0
  128.6080  128.2550   75.5780 C   0  0  0  0  0  0  0  0  0  0  0  0
  128.7940  128.5540   74.0760 C   0  0  0  0  0  0  0  0  0  0  0  0
  130.2950  127.9620   71.1370 C   0  0  0  0  0  0  0  0  0  0  0  0
  130.2150  127.9850   69.7480 C   0  0  0  0  0  0  0  0  0  0  0  0
  129.5470  126.4650   66.8100 C   0  0  0  0  0  0  0  0  0  0  0  0
  129.4600  126.5030   65.4140 C   0  0  0  0  0  0  0  0  0  0  0  0
  130.0860  125.4070   64.6310 C   0  0  0  0  0  0  0  0  0  0  0  0
  129.6850  124.0810   64.8150 C   0  0  0  0  0  0  0  0  0  0  0  0
  130.2630  123.0580   64.0700 C   0  0  0  0  0  0  0  0  0  0  0  0
  131.2460  123.3340   63.1070 C   0  0  0  0  0  0  0  0  0  0  0  0
  131.8490  122.3220   62.3550 N   0  0  0  0  0  0  0  0  0  0  0  0
  133.2780  122.4390   62.0060 C   0  0  0  0  0  0  0  0  0  0  0  0
  133.8990  121.1120   61.5210 C   0  0  0  0  0  0  0  0  0  0  0  0
  133.1520  120.5950   60.4310 O   0  0  0  0  0  0  0  0  0  0  0  0
  131.8040  120.3400   60.7930 C   0  0  0  0  0  0  0  0  0  0  0  0
  131.1270  121.6470   61.2580 C   0  0  0  0  0  0  0  0  0  0  0  0
  131.6400  124.6680   62.9290 C   0  0  0  0  0  0  0  0  0  0  0  0
  131.0650  125.6910   63.6760 C   0  0  0  0  0  0  0  0  0  0  0  0
  128.7780  127.6030   64.8210 C   0  0  0  0  0  0  0  0  0  0  0  0
  128.4530  127.9400   63.4570 C   0  0  0  0  0  0  0  0  0  0  0  0
  128.7720  127.1270   62.4000 N   0  0  0  0  0  0  0  0  0  0  0  0
  127.1830  130.4570   58.9670 C   0  0  0  0  0  0  0  0  0  0  0  0
  127.1950  131.1220   57.7440 C   0  0  0  0  0  0  0  0  0  0  0  0
  1  2  1  0
  2  3  1  0
  3  4  1  0
  4  5  2  0
  4  6  1  0
  6  7  2  0
  7  8  1  0
  8  9  2  0
  9 10  1  0
 10 11  1  0
 11 12  2  0
 11 13  1  0
 13 14  1  0
 14 15  1  0
 15 16  2  0
 16 17  1  0
 17 18  1  0
 18 19  2  0
 19 20  1  0
 20 21  2  0
 21 22  1  0
 22 23  1  0
 23 24  1  0
 24 25  1  0
 25 26  1  0
 26 27  1  0
 21 28  1  0
 28 29  2  0
 17 30  2  0
 30 31  1  0
 31 32  1  0
 32 33  2  0
 33 34  1  0
 34 35  2  0
 35 36  1  0
 36 37  1  0
 37 38  1  0
 38 39  1  0
 39 40  1  0
 40 41  1  0
 35 42  1  0
 42 43  2  0
 31 44  2  0
 44 45  1  0
 45 46  1  0
  9 47  1  0
 47 48  2  0
 48  6  1  0
 45 13  2  0
 44 15  1  0
 29 18  1  0
 43 32  1  0
 27 22  1  0
 41 36  1  0
M  END
>  <Binding energies>  (96) 
[-10.26]

>  <Ligand effiencies>  (96) 
[-0.2011764705882353]

>  <Interactions>  (96) 
["V-A:LEU:363:CD1:3189, V-A:PRO:540:CD:4887, H-A:TYR:539:N:4870, V-B:TYR:539:CE2:9848, H-B:GLU:543:OE1:9881, V-B:TYR:539:CD2:9846, V-A:MET:535:CE:4835, V-A:ILE:369:CD1:3239, V-B:GLU:543:CG:9879, V-A:ILE:369:CG2:3237, V-A:LEU:475:CD2:4259, V-B:GLU:543:CB:9878, V-A:GLU:543:CD:4908, V-B:GLU:543:CD:9880, V-B:HIS:456:CE1:9041, V-A:GLY:544:C:4912, H-A:LYS:547:NZ:4951, V-B:GLU:543:C:9874, V-B:HIS:456:CD2:9039, V-A:HIS:456:CE1:4070, V-A:GLU:543:CG:4907, V-A:GLU:543:C:4902, V-A:GLU:543:CB:4906, H-B:LYS:547:NZ:9923, H-A:GLU:543:OE1:4909, V-A:HIS:456:CD2:4068, H-A:TYR:539:OH:4878, V-A:TYR:539:CE1:4875, V-A:TYR:539:CZ:4877, V-A:TYR:539:CD1:4873, V-A:TYR:539:CD2:4874, V-A:ILE:538:CA:4860, V-A:TYR:539:CG:4872, V-A:TYR:539:CE2:4876, V-A:ILE:538:CG2:4863, V-A:ILE:538:CB:4862, H-A:SER:385:OG:3410, V-A:SER:385:CA:3407, V-A:SER:385:CB:3409, V-A:SER:385:C:3405"]

$$$$
9b_Ghoteimi_2023
     RDKit          3D

 42 48  0  0  0  0  0  0  0  0999 V2000
  128.6620  126.0540   59.2550 N   0  0  0  0  0  0  0  0  0  0  0  0
  128.6310  125.3220   60.4150 C   0  0  0  0  0  0  0  0  0  0  0  0
  128.3460  123.9490   60.4550 C   0  0  0  0  0  0  0  0  0  0  0  0
  128.0620  123.0410   59.3400 C   0  0  0  0  0  0  0  0  0  0  0  0
  128.7000  121.9960   59.2020 O   0  0  0  0  0  0  0  0  0  0  0  0
  127.0730  123.4400   58.5010 N   0  0  0  0  0  0  0  0  0  0  0  0
  126.6090  122.7860   57.3670 C   0  0  0  0  0  0  0  0  0  0  0  0
  125.2600  122.7310   57.0190 C   0  0  0  0  0  0  0  0  0  0  0  0
  125.2220  122.0070   55.8500 C   0  0  0  0  0  0  0  0  0  0  0  0
  126.4830  121.6440   55.5120 O   0  0  0  0  0  0  0  0  0  0  0  0
  127.3530  122.1440   56.4820 N   0  0  0  0  0  0  0  0  0  0  0  0
  128.3600  123.3430   62.1110 S   0  0  0  0  0  0  0  0  0  0  0  0
  128.7280  124.9320   62.7370 C   0  0  0  0  0  0  0  0  0  0  0  0
  128.8510  125.1560   64.0440 N   0  0  0  0  0  0  0  0  0  0  0  0
  129.1210  126.4310   64.4290 C   0  0  0  0  0  0  0  0  0  0  0  0
  129.2330  126.6590   65.9020 C   0  0  0  0  0  0  0  0  0  0  0  0
  128.7450  127.8320   66.4920 C   0  0  0  0  0  0  0  0  0  0  0  0
  128.8650  128.0450   67.8610 C   0  0  0  0  0  0  0  0  0  0  0  0
  129.4900  127.1010   68.6900 C   0  0  0  0  0  0  0  0  0  0  0  0
  129.6150  127.3000   70.0700 N   0  0  0  0  0  0  0  0  0  0  0  0
  128.4450  127.6300   70.9080 C   0  0  0  0  0  0  0  0  0  0  0  0
  128.6990  127.4730   72.4220 C   0  0  0  0  0  0  0  0  0  0  0  0
  129.8300  128.2360   72.8060 O   0  0  0  0  0  0  0  0  0  0  0  0
  131.0000  127.8100   72.1270 C   0  0  0  0  0  0  0  0  0  0  0  0
  130.8180  127.9730   70.6020 C   0  0  0  0  0  0  0  0  0  0  0  0
  129.9590  125.9200   68.0970 C   0  0  0  0  0  0  0  0  0  0  0  0
  129.8350  125.7040   66.7270 C   0  0  0  0  0  0  0  0  0  0  0  0
  129.2940  127.4680   63.5080 C   0  0  0  0  0  0  0  0  0  0  0  0
  129.1860  127.2320   62.1330 C   0  0  0  0  0  0  0  0  0  0  0  0
  129.4080  128.3620   61.1940 C   0  0  0  0  0  0  0  0  0  0  0  0
  130.6780  128.6010   60.6680 C   0  0  0  0  0  0  0  0  0  0  0  0
  130.8860  129.6460   59.7730 C   0  0  0  0  0  0  0  0  0  0  0  0
  129.8280  130.4820   59.3810 C   0  0  0  0  0  0  0  0  0  0  0  0
  130.0110  131.5280   58.4720 N   0  0  0  0  0  0  0  0  0  0  0  0
  131.3540  131.7690   57.9100 C   0  0  0  0  0  0  0  0  0  0  0  0
  131.4980  133.1600   57.2560 C   0  0  0  0  0  0  0  0  0  0  0  0
  130.4990  133.3360   56.2640 O   0  0  0  0  0  0  0  0  0  0  0  0
  129.1920  133.2400   56.8100 C   0  0  0  0  0  0  0  0  0  0  0  0
  128.9900  131.8540   57.4570 C   0  0  0  0  0  0  0  0  0  0  0  0
  128.5530  130.2200   59.9030 C   0  0  0  0  0  0  0  0  0  0  0  0
  128.3450  129.1740   60.7980 C   0  0  0  0  0  0  0  0  0  0  0  0
  128.8690  125.9110   61.7090 C   0  0  0  0  0  0  0  0  0  0  0  0
  1  2  1  0
  2  3  2  0
  3  4  1  0
  4  5  2  0
  4  6  1  0
  6  7  1  0
  7  8  1  0
  8  9  2  0
  9 10  1  0
 10 11  1  0
  3 12  1  0
 12 13  1  0
 13 14  2  0
 14 15  1  0
 15 16  1  0
 16 17  2  0
 17 18  1  0
 18 19  2  0
 19 20  1  0
 20 21  1  0
 21 22  1  0
 22 23  1  0
 23 24  1  0
 24 25  1  0
 19 26  1  0
 26 27  2  0
 15 28  2  0
 28 29  1  0
 29 30  1  0
 30 31  2  0
 31 32  1  0
 32 33  2  0
 33 34  1  0
 34 35  1  0
 35 36  1  0
 36 37  1  0
 37 38  1  0
 38 39  1  0
 33 40  1  0
 40 41  2  0
 29 42  2  0
 42  2  1  0
 11  7  2  0
 42 13  1  0
 27 16  1  0
 41 30  1  0
 25 20  1  0
 39 34  1  0
M  END
>  <Binding energies>  (97) 
[-9.83]

>  <Ligand effiencies>  (97) 
[-0.21844444444444444]

>  <Interactions>  (97) 
["V-A:LEU:363:CD1:3189, V-A:PRO:540:CA:4883, V-A:PRO:540:CB:4885, V-A:PRO:540:CD:4887, V-A:PRO:540:CG:4886, V-A:PRO:540:N:4884, V-A:TYR:539:C:4867, H-A:TYR:539:N:4870, V-B:PRO:540:N:9856, V-B:PRO:540:CB:9857, V-B:PRO:540:CA:9855, V-B:TYR:539:CE2:9848, H-B:TYR:539:N:9842, V-B:PRO:540:CD:9859, V-B:MET:535:CE:9807, V-B:LEU:363:CD1:8160, V-B:PRO:540:CG:9858, V-B:TYR:539:C:9839, V-B:TYR:539:CD2:9846, V-B:GLU:543:CG:9879, V-B:GLU:543:CB:9878, V-A:GLU:543:CD:4908, V-B:GLU:543:CD:9880, V-B:HIS:456:CE1:9041, V-A:GLY:544:C:4912, H-A:LYS:547:NZ:4951, V-B:HIS:456:CD2:9039, V-A:HIS:456:CE1:4070, V-A:GLU:543:CG:4907, V-A:GLU:543:C:4902, V-A:GLU:543:CB:4906, V-A:HIS:456:CD2:4068, V-B:ILE:538:CG2:9835, V-A:TYR:539:CD1:4873, V-A:ILE:538:CA:4860, V-A:TYR:539:CG:4872, V-A:TYR:539:CA:4869, V-A:ILE:538:C:4858, V-A:ILE:538:CB:4862, V-B:ILE:538:CA:9832, V-B:ILE:538:CB:9834"]

$$$$
9c_Ghoteimi_2023
     RDKit          3D

 42 48  0  0  0  0  0  0  0  0999 V2000
  129.0030  127.1560   62.1460 N   0  0  0  0  0  0  0  0  0  0  0  0
  128.5070  127.8810   63.1990 C   0  0  0  0  0  0  0  0  0  0  0  0
  127.7270  129.0380   63.0420 C   0  0  0  0  0  0  0  0  0  0  0  0
  127.2790  129.6760   61.8000 C   0  0  0  0  0  0  0  0  0  0  0  0
  128.0060  130.4720   61.2030 O   0  0  0  0  0  0  0  0  0  0  0  0
  126.0360  129.3300   61.3840 N   0  0  0  0  0  0  0  0  0  0  0  0
  125.3740  129.7980   60.2570 C   0  0  0  0  0  0  0  0  0  0  0  0
  125.5850  129.4700   59.0010 N   0  0  0  0  0  0  0  0  0  0  0  0
  124.7700  130.1150   58.1880 C   0  0  0  0  0  0  0  0  0  0  0  0
  123.8700  130.9920   58.7870 C   0  0  0  0  0  0  0  0  0  0  0  0
  124.1120  130.9620   60.5080 S   0  0  0  0  0  0  0  0  0  0  0  0
  127.2880  129.7280   64.6040 S   0  0  0  0  0  0  0  0  0  0  0  0
  128.1640  128.4780   65.4540 C   0  0  0  0  0  0  0  0  0  0  0  0
  128.2390  128.4590   66.7840 N   0  0  0  0  0  0  0  0  0  0  0  0
  128.9600  127.4540   67.3460 C   0  0  0  0  0  0  0  0  0  0  0  0
  129.0460  127.4690   68.8380 C   0  0  0  0  0  0  0  0  0  0  0  0
  127.9960  126.9890   69.6290 C   0  0  0  0  0  0  0  0  0  0  0  0
  128.0770  127.0130   71.0180 C   0  0  0  0  0  0  0  0  0  0  0  0
  129.2080  127.5330   71.6680 C   0  0  0  0  0  0  0  0  0  0  0  0
  129.3080  127.5580   73.0640 N   0  0  0  0  0  0  0  0  0  0  0  0
  128.7510  128.6750   73.8550 C   0  0  0  0  0  0  0  0  0  0  0  0
  128.6380  128.3750   75.3640 C   0  0  0  0  0  0  0  0  0  0  0  0
  129.8990  127.9730   75.8730 O   0  0  0  0  0  0  0  0  0  0  0  0
  130.3660  126.7960   75.2340 C   0  0  0  0  0  0  0  0  0  0  0  0
  130.5290  127.0440   73.7180 C   0  0  0  0  0  0  0  0  0  0  0  0
  130.2640  127.9950   70.8710 C   0  0  0  0  0  0  0  0  0  0  0  0
  130.1840  127.9660   69.4810 C   0  0  0  0  0  0  0  0  0  0  0  0
  129.5760  126.4600   66.5830 C   0  0  0  0  0  0  0  0  0  0  0  0
  129.4810  126.4630   65.1870 C   0  0  0  0  0  0  0  0  0  0  0  0
  130.1270  125.3680   64.4220 C   0  0  0  0  0  0  0  0  0  0  0  0
  129.3500  124.4330   63.7360 C   0  0  0  0  0  0  0  0  0  0  0  0
  129.9520  123.4140   63.0040 C   0  0  0  0  0  0  0  0  0  0  0  0
  131.3500  123.3010   62.9400 C   0  0  0  0  0  0  0  0  0  0  0  0
  131.9760  122.2930   62.2020 N   0  0  0  0  0  0  0  0  0  0  0  0
  131.1930  121.5390   61.2020 C   0  0  0  0  0  0  0  0  0  0  0  0
  131.8760  120.2290   60.7550 C   0  0  0  0  0  0  0  0  0  0  0  0
  133.1810  120.5030   60.2680 O   0  0  0  0  0  0  0  0  0  0  0  0
  133.9960  121.1060   61.2600 C   0  0  0  0  0  0  0  0  0  0  0  0
  133.3650  122.4380   61.7260 C   0  0  0  0  0  0  0  0  0  0  0  0
  132.1210  124.2580   63.6160 C   0  0  0  0  0  0  0  0  0  0  0  0
  131.5190  125.2770   64.3480 C   0  0  0  0  0  0  0  0  0  0  0  0
  128.7610  127.5280   64.5730 C   0  0  0  0  0  0  0  0  0  0  0  0
  1  2  1  0
  2  3  2  0
  3  4  1  0
  4  5  2  0
  4  6  1  0
  6  7  1  0
  7  8  2  0
  8  9  1  0
  9 10  2  0
 10 11  1  0
  3 12  1  0
 12 13  1  0
 13 14  2  0
 14 15  1  0
 15 16  1  0
 16 17  2  0
 17 18  1  0
 18 19  2  0
 19 20  1  0
 20 21  1  0
 21 22  1  0
 22 23  1  0
 23 24  1  0
 24 25  1  0
 19 26  1  0
 26 27  2  0
 15 28  2  0
 28 29  1  0
 29 30  1  0
 30 31  2  0
 31 32  1  0
 32 33  2  0
 33 34  1  0
 34 35  1  0
 35 36  1  0
 36 37  1  0
 37 38  1  0
 38 39  1  0
 33 40  1  0
 40 41  2  0
 29 42  2  0
 42  2  1  0
 11  7  1  0
 42 13  1  0
 27 16  1  0
 41 30  1  0
 25 20  1  0
 39 34  1  0
M  END
>  <Binding energies>  (98) 
[-9.04]

>  <Ligand effiencies>  (98) 
[-0.20088888888888887]

>  <Interactions>  (98) 
["V-B:TYR:539:CE2:9848, V-B:ASP:366:CB:8183, H-B:TYR:531:OH:9767, H-B:ASP:366:OD1:8185, V-B:ASP:366:CG:8184, H-B:GLU:543:OE1:9881, V-B:TYR:539:CD2:9846, V-A:ILE:369:CD1:3239, V-B:GLU:543:CG:9879, V-A:ILE:369:CG2:3237, V-A:LEU:475:CD2:4259, V-B:GLU:543:CB:9878, V-A:GLU:543:CD:4908, V-B:GLU:543:CD:9880, V-B:HIS:456:CE1:9041, V-A:GLY:544:C:4912, H-A:LYS:547:NZ:4951, V-B:GLU:543:C:9874, V-B:HIS:456:CD2:9039, V-A:HIS:456:CE1:4070, V-A:GLU:543:CG:4907, V-A:GLU:543:C:4902, V-A:GLU:543:CB:4906, H-A:GLU:543:OE1:4909, V-A:HIS:456:CD2:4068, V-B:ASP:366:CA:8181, V-B:ILE:369:CG2:8208, V-B:ILE:369:CB:8207, H-B:ASP:366:OD2:8186, H-A:SER:385:OG:3410, V-A:SER:385:CA:3407, V-A:SER:385:CB:3409, V-A:SER:385:C:3405"]

$$$$
RR11_Rahimova_2017
     RDKit          3D

 33 38  0  0  0  0  0  0  0  0999 V2000
  129.9640  132.8720   56.7540 N   0  0  0  0  0  0  0  0  0  0  0  0
  130.3680  131.6280   57.2340 C   0  0  0  0  0  0  0  0  0  0  0  0
  131.6870  131.4360   57.6400 C   0  0  0  0  0  0  0  0  0  0  0  0
  132.0890  130.1940   58.1220 C   0  0  0  0  0  0  0  0  0  0  0  0
  131.1790  129.1320   58.2010 C   0  0  0  0  0  0  0  0  0  0  0  0
  131.6120  127.7960   58.7260 C   0  0  0  0  0  0  0  0  0  0  0  0
  131.3730  127.3620   59.9440 N   0  0  0  0  0  0  0  0  0  0  0  0
  131.9230  126.1080   59.9970 C   0  0  0  0  0  0  0  0  0  0  0  0
  131.9480  125.1960   61.0600 C   0  0  0  0  0  0  0  0  0  0  0  0
  132.5640  123.9550   60.8580 C   0  0  0  0  0  0  0  0  0  0  0  0
  132.6120  122.9450   61.9970 C   0  0  0  0  0  0  0  0  0  0  0  0
  131.7550  123.3520   63.1880 C   0  0  0  0  0  0  0  0  0  0  0  0
  130.5840  122.6400   63.4690 C   0  0  0  0  0  0  0  0  0  0  0  0
  129.7700  122.9690   64.5550 C   0  0  0  0  0  0  0  0  0  0  0  0
  130.1590  124.0390   65.3710 C   0  0  0  0  0  0  0  0  0  0  0  0
  129.5370  124.5580   66.4770 N   0  0  0  0  0  0  0  0  0  0  0  0
  130.3030  125.5530   66.8710 C   0  0  0  0  0  0  0  0  0  0  0  0
  130.0100  126.4340   68.0510 C   0  0  0  0  0  0  0  0  0  0  0  0
  131.0050  127.2650   68.5820 C   0  0  0  0  0  0  0  0  0  0  0  0
  130.7360  128.0750   69.6830 C   0  0  0  0  0  0  0  0  0  0  0  0
  129.4690  128.0590   70.2610 C   0  0  0  0  0  0  0  0  0  0  0  0
  129.2000  128.8660   71.3660 N   0  0  0  0  0  0  0  0  0  0  0  0
  128.4690  127.2420   69.7410 C   0  0  0  0  0  0  0  0  0  0  0  0
  128.7390  126.4320   68.6400 C   0  0  0  0  0  0  0  0  0  0  0  0
  131.4120  125.7010   66.0650 N   0  0  0  0  0  0  0  0  0  0  0  0
  131.3520  124.7430   65.0820 C   0  0  0  0  0  0  0  0  0  0  0  0
  132.1740  124.4140   64.0000 C   0  0  0  0  0  0  0  0  0  0  0  0
  133.1630  123.6470   59.6320 C   0  0  0  0  0  0  0  0  0  0  0  0
  133.1590  124.5360   58.5540 C   0  0  0  0  0  0  0  0  0  0  0  0
  132.5270  125.7640   58.7640 C   0  0  0  0  0  0  0  0  0  0  0  0
  132.3100  126.8710   57.9760 N   0  0  0  0  0  0  0  0  0  0  0  0
  129.8550  129.3390   57.7880 C   0  0  0  0  0  0  0  0  0  0  0  0
  129.4510  130.5810   57.3060 C   0  0  0  0  0  0  0  0  0  0  0  0
  1  2  1  0
  2  3  2  0
  3  4  1  0
  4  5  2  0
  5  6  1  0
  6  7  2  0
  7  8  1  0
  8  9  2  0
  9 10  1  0
 10 11  1  0
 11 12  1  0
 12 13  2  0
 13 14  1  0
 14 15  2  0
 15 16  1  0
 16 17  2  0
 17 18  1  0
 18 19  2  0
 19 20  1  0
 20 21  2  0
 21 22  1  0
 21 23  1  0
 23 24  2  0
 17 25  1  0
 25 26  1  0
 26 27  2  0
 10 28  2  0
 28 29  1  0
 29 30  2  0
 30 31  1  0
  5 32  1  0
 32 33  2  0
 33  2  1  0
 31  6  1  0
 30  8  1  0
 27 12  1  0
 26 15  1  0
 24 18  1  0
M  END
>  <Binding energies>  (99) 
[-8.62]

>  <Ligand effiencies>  (99) 
[-0.221025641025641]

>  <Interactions>  (99) 
["V-A:LEU:363:CD1:3189, V-A:ASP:366:CG:3213, H-A:TYR:531:OH:4795, V-A:ASP:366:CB:3212, V-B:TYR:539:CZ:9849, V-B:TYR:539:CE2:9848, V-A:MET:535:CE:4835, V-B:ALA:541:CB:9864, V-A:ASP:366:CA:3210, V-B:GLU:543:CG:9879, H-A:ASP:366:O:3209, V-A:ILE:369:CG2:3237, V-A:LEU:475:CD2:4259, V-A:TYR:484:CZ:4347, V-B:GLU:543:CB:9878, H-A:TYR:484:OH:4348, V-A:GLU:543:CD:4908, V-A:TYR:484:CE2:4346, V-B:HIS:456:CE1:9041, V-A:GLY:544:C:4912, V-B:GLU:543:C:9874, V-B:HIS:456:CD2:9039, V-A:HIS:456:CE1:4070, V-A:GLU:543:C:4902, V-A:GLU:543:CB:4906, V-A:TYR:531:CZ:4794, V-A:ARG:545:CG:4922, H-A:GLU:543:OE2:4910, V-A:GLU:543:CA:4904, H-B:HIS:456:NE2:9042, H-A:GLU:543:O:4903, V-B:GLU:543:CA:9876, V-A:ILE:538:CA:4860"]

$$$$
RR16_Rahimova_2017
     RDKit          3D

 44 49  0  0  0  0  0  0  0  0999 V2000
  129.1390  123.3400   65.7010 O   0  0  0  0  0  0  0  0  0  0  0  0
  129.8360  122.3790   64.8380 S   0  0  0  0  0  0  0  0  0  0  0  0
  129.9080  120.9580   65.1990 O   0  0  0  0  0  0  0  0  0  0  0  0
  131.4830  122.9700   64.6060 N   0  0  0  0  0  0  0  0  0  0  0  0
  131.7920  124.4160   64.6940 C   0  0  0  0  0  0  0  0  0  0  0  0
  133.3190  124.6220   64.5160 C   0  0  0  0  0  0  0  0  0  0  0  0
  133.9060  124.3800   63.1120 C   0  0  0  0  0  0  0  0  0  0  0  0
  133.3700  125.3400   62.0360 C   0  0  0  0  0  0  0  0  0  0  0  0
  132.0570  124.9170   61.3530 C   0  0  0  0  0  0  0  0  0  0  0  0
  130.8660  124.5730   62.2680 C   0  0  0  0  0  0  0  0  0  0  0  0
  130.8920  125.1720   63.6880 C   0  0  0  0  0  0  0  0  0  0  0  0
  129.0870  122.4980   63.2180 C   0  0  0  0  0  0  0  0  0  0  0  0
  129.6560  121.8350   62.1280 C   0  0  0  0  0  0  0  0  0  0  0  0
  129.1350  122.0350   60.8530 C   0  0  0  0  0  0  0  0  0  0  0  0
  128.0490  122.8940   60.6730 C   0  0  0  0  0  0  0  0  0  0  0  0
  127.4680  123.2620   59.0190 S   0  0  0  0  0  0  0  0  0  0  0  0
  126.0050  123.3810   59.0840 O   0  0  0  0  0  0  0  0  0  0  0  0
  128.0930  122.2950   58.1080 O   0  0  0  0  0  0  0  0  0  0  0  0
  128.1420  124.8660   58.6690 N   0  0  0  0  0  0  0  0  0  0  0  0
  129.6110  124.8820   58.4510 C   0  0  0  0  0  0  0  0  0  0  0  0
  130.1440  126.3300   58.4680 C   0  0  0  0  0  0  0  0  0  0  0  0
  129.3750  127.2360   57.4740 C   0  0  0  0  0  0  0  0  0  0  0  0
  129.8570  128.6880   57.5090 C   0  0  0  0  0  0  0  0  0  0  0  0
  131.0830  129.0000   58.1140 C   0  0  0  0  0  0  0  0  0  0  0  0
  131.5650  130.3090   58.1620 C   0  0  0  0  0  0  0  0  0  0  0  0
  132.7670  130.5950   58.7550 O   0  0  0  0  0  0  0  0  0  0  0  0
  130.7880  131.3230   57.5800 C   0  0  0  0  0  0  0  0  0  0  0  0
  131.0080  132.6640   57.4610 N   0  0  0  0  0  0  0  0  0  0  0  0
  129.9400  133.2000   56.7750 N   0  0  0  0  0  0  0  0  0  0  0  0
  129.0610  132.2130   56.5170 N   0  0  0  0  0  0  0  0  0  0  0  0
  127.8700  132.4810   55.7220 C   0  0  0  0  0  0  0  0  0  0  0  0
  126.6310  131.7830   56.2660 C   0  0  0  0  0  0  0  0  0  0  0  0
  125.6390  131.3290   55.3890 C   0  0  0  0  0  0  0  0  0  0  0  0
  124.5140  130.6690   55.8840 C   0  0  0  0  0  0  0  0  0  0  0  0
  124.3740  130.4590   57.2560 C   0  0  0  0  0  0  0  0  0  0  0  0
  125.3600  130.9080   58.1350 C   0  0  0  0  0  0  0  0  0  0  0  0
  125.1950  130.6400   59.8320 Cl  0  0  0  0  0  0  0  0  0  0  0  0
  126.4850  131.5720   57.6410 C   0  0  0  0  0  0  0  0  0  0  0  0
  129.5480  131.0010   56.9780 C   0  0  0  0  0  0  0  0  0  0  0  0
  129.0620  129.6900   56.9330 C   0  0  0  0  0  0  0  0  0  0  0  0
  127.8370  127.1100   57.6320 C   0  0  0  0  0  0  0  0  0  0  0  0
  127.3790  125.6380   57.6530 C   0  0  0  0  0  0  0  0  0  0  0  0
  127.4560  123.5230   61.7700 C   0  0  0  0  0  0  0  0  0  0  0  0
  127.9780  123.3270   63.0440 C   0  0  0  0  0  0  0  0  0  0  0  0
  1  2  2  0
  2  3  2  0
  2  4  1  0
  4  5  1  0
  5  6  1  0
  6  7  1  0
  7  8  1  0
  8  9  1  0
  9 10  1  0
 10 11  1  0
  2 12  1  0
 12 13  2  0
 13 14  1  0
 14 15  2  0
 15 16  1  0
 16 17  2  0
 16 18  2  0
 16 19  1  0
 19 20  1  0
 20 21  1  0
 21 22  1  0
 22 23  1  0
 23 24  2  0
 24 25  1  0
 25 26  1  0
 25 27  2  0
 27 28  1  0
 28 29  2  0
 29 30  1  0
 30 31  1  0
 31 32  1  0
 32 33  2  0
 33 34  1  0
 34 35  2  0
 35 36  1  0
 36 37  1  0
 36 38  2  0
 30 39  1  0
 39 40  2  0
 22 41  1  0
 41 42  1  0
 15 43  1  0
 43 44  2  0
 11  5  1  0
 44 12  1  0
 42 19  1  0
 40 23  1  0
 39 27  1  0
 38 32  1  0
M  END
>  <Binding energies>  (100) 
[-9.73]

>  <Ligand effiencies>  (100) 
[-0.20270833333333335]

>  <Interactions>  (100) 
["V-A:ASP:366:CG:3213, H-A:ASP:366:OD2:3215, H-A:TYR:539:N:4870, V-B:TYR:539:CZ:9849, V-B:PRO:540:N:9856, V-B:PRO:540:CA:9855, V-B:TYR:539:CE2:9848, V-B:ASP:366:CB:8183, V-B:ASP:366:CG:8184, V-B:TYR:531:CE1:9764, V-B:TYR:531:CZ:9766, V-B:TYR:539:CD2:9846, V-A:MET:535:CE:4835, V-B:ALA:541:CB:9864, V-B:GLU:543:CG:9879, V-A:LEU:475:CD2:4259, V-A:TYR:484:CZ:4347, V-A:GLY:453:CA:4044, H-A:TYR:484:OH:4348, V-A:TYR:484:CE2:4346, V-A:GLY:454:CA:4049, V-A:ARG:545:CZ:4926, V-B:GLU:543:CD:9880, V-A:TYR:539:CE1:4875, V-B:ASP:366:CA:8181, V-A:TYR:539:CZ:4877, V-B:ASP:366:C:8179, V-A:GLY:453:C:4042, V-A:TYR:539:CD1:4873, V-A:TYR:539:CE2:4876"]

$$$$
RR18_Rahimova_2017
     RDKit          3D

 36 41  0  0  0  0  0  0  0  0999 V2000
  132.9380  125.0210   61.2970 C   0  0  0  0  0  0  0  0  0  0  0  0
  132.2910  125.1480   62.6530 C   0  0  0  0  0  0  0  0  0  0  0  0
  132.7340  124.9760   63.9540 C   0  0  0  0  0  0  0  0  0  0  0  0
  131.6490  125.2440   64.7880 C   0  0  0  0  0  0  0  0  0  0  0  0
  130.5820  125.5710   63.9660 C   0  0  0  0  0  0  0  0  0  0  0  0
  129.1320  125.9700   64.2250 C   0  0  1  0  0  0  0  0  0  0  0  0
  129.0200  126.9970   65.3900 C   0  0  0  0  0  0  0  0  0  0  0  0
  129.3920  126.6160   66.7490 C   0  0  0  0  0  0  0  0  0  0  0  0
  129.7970  125.4840   67.0190 O   0  0  0  0  0  0  0  0  0  0  0  0
  129.2680  127.6120   67.6570 N   0  0  0  0  0  0  0  0  0  0  0  0
  129.5110  127.6140   69.0480 C   0  0  0  0  0  0  0  0  0  0  0  0
  130.7570  127.9360   69.6170 C   0  0  0  0  0  0  0  0  0  0  0  0
  130.9320  127.9120   70.9990 C   0  0  0  0  0  0  0  0  0  0  0  0
  129.8740  127.5620   71.8320 C   0  0  0  0  0  0  0  0  0  0  0  0
  128.6380  127.2300   71.2820 C   0  0  0  0  0  0  0  0  0  0  0  0
  128.4460  127.2500   69.8970 C   0  0  0  0  0  0  0  0  0  0  0  0
  127.0740  126.8720   69.3450 C   0  0  0  0  0  0  0  0  0  0  0  0
  128.6700  128.2760   65.0940 C   0  0  0  0  0  0  0  0  0  0  0  0
  128.2880  128.7120   63.8610 N   0  0  0  0  0  0  0  0  0  0  0  0
  128.1650  127.8670   62.9040 C   0  0  0  0  0  0  0  0  0  0  0  0
  127.5430  128.2510   61.3160 S   0  0  0  0  0  0  0  0  0  0  0  0
  127.7160  126.5500   60.7800 C   0  0  0  0  0  0  0  0  0  0  0  0
  127.3990  126.0300   59.5440 C   0  0  0  0  0  0  0  0  0  0  0  0
  126.7760  126.8810   58.5190 C   0  0  0  0  0  0  0  0  0  0  0  0
  126.4820  128.0750   58.5530 O   0  0  0  0  0  0  0  0  0  0  0  0
  126.5340  126.1090   57.4540 N   0  0  0  0  0  0  0  0  0  0  0  0
  126.9540  124.8250   57.6220 C   0  0  0  0  0  0  0  0  0  0  0  0
  126.8690  123.7710   56.7120 C   0  0  0  0  0  0  0  0  0  0  0  0
  127.3910  122.5310   57.0690 C   0  0  0  0  0  0  0  0  0  0  0  0
  127.9920  122.3690   58.3150 C   0  0  0  0  0  0  0  0  0  0  0  0
  128.0650  123.4390   59.2100 C   0  0  0  0  0  0  0  0  0  0  0  0
  127.5220  124.6950   58.8780 C   0  0  0  0  0  0  0  0  0  0  0  0
  128.2490  125.7750   61.9010 C   0  0  0  0  0  0  0  0  0  0  0  0
  128.4490  124.5640   61.9220 O   0  0  0  0  0  0  0  0  0  0  0  0
  128.4960  126.5530   62.9900 N   0  0  0  0  0  0  0  0  0  0  0  0
  130.9810  125.5090   62.6680 O   0  0  0  0  0  0  0  0  0  0  0  0
  1  2  1  0
  2  3  2  0
  3  4  1  0
  4  5  2  0
  6  5  1  6
  6  7  1  0
  7  8  1  0
  8  9  2  0
  8 10  1  0
 10 11  1  0
 11 12  2  0
 12 13  1  0
 13 14  2  0
 14 15  1  0
 15 16  2  0
 16 17  1  0
  7 18  2  0
 18 19  1  0
 19 20  2  0
 20 21  1  0
 21 22  1  0
 22 23  2  0
 23 24  1  0
 24 25  2  0
 24 26  1  0
 26 27  1  0
 27 28  2  0
 28 29  1  0
 29 30  2  0
 30 31  1  0
 31 32  2  0
 22 33  1  0
 33 34  2  0
 33 35  1  0
  5 36  1  0
 36  2  1  0
 35  6  1  0
 16 11  1  0
 35 20  1  0
 32 23  1  0
 32 27  1  0
M  END
>  <Binding energies>  (101) 
[-8.58]

>  <Ligand effiencies>  (101) 
[-0.22578947368421054]

>  <Interactions>  (101) 
["V-A:ASP:366:CG:3213, V-B:TYR:539:CZ:9849, V-B:PRO:540:N:9856, V-B:TYR:539:CE1:9847, V-B:TYR:539:CD1:9845, V-B:PRO:540:CA:9855, V-B:TYR:539:CE2:9848, H-B:TYR:531:OH:9767, V-B:TYR:539:C:9839, V-B:TYR:539:CG:9844, V-B:TYR:531:CZ:9766, V-B:TYR:539:CD2:9846, V-B:GLU:543:CG:9879, V-B:GLU:543:CB:9878, V-A:GLU:543:CD:4908, V-A:ARG:545:CZ:4926, V-B:GLU:543:CD:9880, V-B:HIS:456:CE1:9041, V-A:GLY:544:C:4912, V-B:GLY:544:C:9884, V-B:GLU:543:C:9874, V-A:HIS:456:CE1:4070, V-A:GLU:543:CG:4907, V-A:GLU:543:C:4902, V-A:GLU:543:CB:4906, H-A:GLU:543:OE2:4910, V-B:GLU:543:CA:9876, H-B:MET:535:SD:9806"]

$$$$
RR20_Rahimova_2017
     RDKit          3D

 38 43  0  0  0  0  0  0  0  0999 V2000
  133.1150  124.1160   76.3840 C   0  0  0  0  0  0  0  0  0  0  0  0
  132.3560  125.0720   75.4810 C   0  0  0  0  0  0  0  0  0  0  0  0
  130.9600  125.0700   75.4850 C   0  0  0  0  0  0  0  0  0  0  0  0
  130.2620  125.9520   74.6640 C   0  0  0  0  0  0  0  0  0  0  0  0
  130.9530  126.8330   73.8240 C   0  0  0  0  0  0  0  0  0  0  0  0
  130.1750  127.7970   72.9560 C   0  0  0  0  0  0  0  0  0  0  0  0
  130.3810  129.0030   73.1150 O   0  0  0  0  0  0  0  0  0  0  0  0
  129.2970  127.3070   72.0320 N   0  0  0  0  0  0  0  0  0  0  0  0
  127.9220  126.9320   72.3980 C   0  0  0  0  0  0  0  0  0  0  0  0
  127.2130  126.5840   71.1000 C   0  0  0  0  0  0  0  0  0  0  0  0
  128.1290  127.1510   70.0570 C   0  0  0  0  0  0  0  0  0  0  0  0
  127.9560  127.2100   68.6740 C   0  0  0  0  0  0  0  0  0  0  0  0
  129.0020  127.6310   67.8420 C   0  0  0  0  0  0  0  0  0  0  0  0
  128.8140  127.7030   66.3530 C   0  0  0  0  0  0  0  0  0  0  0  0
  128.2750  128.7980   65.8400 N   0  0  0  0  0  0  0  0  0  0  0  0
  128.1770  128.7610   64.5350 C   0  0  0  0  0  0  0  0  0  0  0  0
  127.6700  129.7340   63.6880 N   0  0  0  0  0  0  0  0  0  0  0  0
  127.7520  131.0770   63.8480 C   0  0  0  0  0  0  0  0  0  0  0  0
  128.3290  131.6250   64.7900 O   0  0  0  0  0  0  0  0  0  0  0  0
  127.1070  131.9790   62.7690 C   0  0  0  0  0  0  0  0  0  0  0  0
  127.8810  132.0190   61.5140 N   0  0  0  0  0  0  0  0  0  0  0  0
  127.6780  133.2710   60.7700 C   0  0  0  0  0  0  0  0  0  0  0  0
  128.2880  133.1540   59.3550 C   0  0  0  0  0  0  0  0  0  0  0  0
  129.6910  132.5450   59.3580 C   0  0  0  0  0  0  0  0  0  0  0  0
  130.5050  132.6050   58.2210 C   0  0  0  0  0  0  0  0  0  0  0  0
  131.7670  132.0170   58.2110 C   0  0  0  0  0  0  0  0  0  0  0  0
  132.2340  131.3610   59.3460 C   0  0  0  0  0  0  0  0  0  0  0  0
  131.4370  131.3020   60.4880 C   0  0  0  0  0  0  0  0  0  0  0  0
  130.1670  131.8880   60.5110 C   0  0  0  0  0  0  0  0  0  0  0  0
  129.3170  131.8740   61.7820 C   0  0  0  0  0  0  0  0  0  0  0  0
  128.7560  127.3070   63.8200 S   0  0  0  0  0  0  0  0  0  0  0  0
  129.1510  126.7060   65.4130 C   0  0  0  0  0  0  0  0  0  0  0  0
  129.7250  125.3170   65.5870 C   0  0  0  0  0  0  0  0  0  0  0  0
  130.2400  127.9370   68.4270 C   0  0  0  0  0  0  0  0  0  0  0  0
  130.4210  127.8600   69.8070 C   0  0  0  0  0  0  0  0  0  0  0  0
  129.3430  127.5200   70.6350 C   0  0  0  0  0  0  0  0  0  0  0  0
  132.3530  126.8490   73.8480 C   0  0  0  0  0  0  0  0  0  0  0  0
  133.0520  125.9680   74.6690 C   0  0  0  0  0  0  0  0  0  0  0  0
  1  2  1  0
  2  3  2  0
  3  4  1  0
  4  5  2  0
  5  6  1  0
  6  7  2  0
  6  8  1  0
  8  9  1  0
  9 10  1  0
 10 11  1  0
 11 12  2  0
 12 13  1  0
 13 14  1  0
 14 15  1  0
 15 16  2  0
 16 17  1  0
 17 18  1  0
 18 19  2  0
 18 20  1  0
 20 21  1  0
 21 22  1  0
 22 23  1  0
 23 24  1  0
 24 25  2  0
 25 26  1  0
 26 27  2  0
 27 28  1  0
 28 29  2  0
 29 30  1  0
 16 31  1  0
 31 32  1  0
 32 33  1  0
 13 34  2  0
 34 35  1  0
 35 36  2  0
  5 37  1  0
 37 38  2  0
 38  2  1  0
 36  8  1  0
 36 11  1  0
 32 14  2  0
 30 21  1  0
 29 24  1  0
M  END
>  <Binding energies>  (102) 
[-10.1]

>  <Ligand effiencies>  (102) 
[-0.25897435897435894]

>  <Interactions>  (102) 
["V-A:LEU:363:CD1:3189, V-A:PRO:540:CA:4883, V-A:PRO:540:CB:4885, V-A:PRO:540:N:4884, V-A:TYR:539:C:4867, V-B:GLU:543:CG:9879, V-B:GLU:543:CB:9878, V-A:GLU:543:CD:4908, V-B:GLU:543:CD:9880, V-B:HIS:456:CE1:9041, V-A:GLY:544:C:4912, H-A:LYS:547:NZ:4951, V-B:GLY:544:C:9884, V-B:GLU:543:C:9874, V-B:LYS:547:CE:9922, V-A:HIS:456:CE1:4070, V-A:GLU:543:CG:4907, V-A:GLU:543:C:4902, V-A:GLU:543:CB:4906, V-B:GLY:544:CA:9886, H-B:TYR:484:OH:9319, V-A:HIS:456:CD2:4068, V-A:HIS:456:CB:4065, V-A:HIS:456:CG:4066, V-A:TYR:539:CE1:4875, V-A:TYR:539:CD1:4873"]

$$$$
RR21_Rahimova_2017
     RDKit          3D

 40 45  0  0  0  0  0  0  0  0999 V2000
  133.8030  123.0040   62.0720 C   0  0  0  0  0  0  0  0  0  0  0  0
  133.4180  122.5650   63.3710 O   0  0  0  0  0  0  0  0  0  0  0  0
  132.5690  123.3530   64.1260 C   0  0  0  0  0  0  0  0  0  0  0  0
  131.2740  122.9720   64.5140 C   0  0  0  0  0  0  0  0  0  0  0  0
  130.4810  123.8260   65.2800 C   0  0  0  0  0  0  0  0  0  0  0  0
  130.9610  125.0790   65.6790 C   0  0  0  0  0  0  0  0  0  0  0  0
  130.1090  125.9930   66.5050 C   0  0  0  0  0  0  0  0  0  0  0  0
  130.2330  125.9950   67.8180 N   0  0  0  0  0  0  0  0  0  0  0  0
  129.3590  126.8990   68.2860 N   0  0  0  0  0  0  0  0  0  0  0  0
  129.2450  127.1710   69.6740 C   0  0  0  0  0  0  0  0  0  0  0  0
  130.3230  127.7150   70.3900 C   0  0  0  0  0  0  0  0  0  0  0  0
  130.1970  127.9820   71.7510 C   0  0  0  0  0  0  0  0  0  0  0  0
  128.9970  127.7060   72.4000 C   0  0  0  0  0  0  0  0  0  0  0  0
  127.9210  127.1630   71.7020 C   0  0  0  0  0  0  0  0  0  0  0  0
  128.0430  126.8950   70.3420 C   0  0  0  0  0  0  0  0  0  0  0  0
  128.6850  127.4880   67.2460 C   0  0  0  0  0  0  0  0  0  0  0  0
  129.1330  126.9160   66.0650 C   0  0  0  0  0  0  0  0  0  0  0  0
  128.7460  127.2470   64.7020 C   0  0  0  0  0  0  0  0  0  0  0  0
  128.2230  128.4050   64.2380 C   0  0  0  0  0  0  0  0  0  0  0  0
  127.8400  129.8760   65.1580 S   0  0  0  0  0  0  0  0  0  0  0  0
  127.3060  130.6500   63.6730 C   0  0  0  0  0  0  0  0  0  0  0  0
  126.8590  131.8580   63.5210 N   0  0  0  0  0  0  0  0  0  0  0  0
  126.4690  132.3680   62.2520 C   0  0  0  0  0  0  0  0  0  0  0  0
  126.0560  133.5040   62.0220 O   0  0  0  0  0  0  0  0  0  0  0  0
  126.6080  131.3760   61.1300 C   0  0  0  0  0  0  0  0  0  0  0  0
  126.1980  131.8080   59.7160 C   0  0  0  0  0  0  0  0  0  0  0  0
  127.3710  132.1030   58.7830 C   0  0  0  0  0  0  0  0  0  0  0  0
  128.5490  132.6550   59.2940 C   0  0  0  0  0  0  0  0  0  0  0  0
  129.6240  132.9090   58.4450 C   0  0  0  0  0  0  0  0  0  0  0  0
  129.5250  132.6090   57.0850 C   0  0  0  0  0  0  0  0  0  0  0  0
  130.7040  132.8760   56.1680 C   0  0  0  0  0  0  0  0  0  0  0  0
  128.3520  132.0470   56.5750 C   0  0  0  0  0  0  0  0  0  0  0  0
  127.2770  131.7940   57.4230 C   0  0  0  0  0  0  0  0  0  0  0  0
  127.0500  130.1730   61.2970 N   0  0  0  0  0  0  0  0  0  0  0  0
  127.4100  129.8050   62.6000 N   0  0  0  0  0  0  0  0  0  0  0  0
  127.8970  128.5600   62.8270 C   0  0  0  0  0  0  0  0  0  0  0  0
  128.0450  127.6920   61.9590 O   0  0  0  0  0  0  0  0  0  0  0  0
  132.2480  125.4620   65.2870 C   0  0  0  0  0  0  0  0  0  0  0  0
  133.0430  124.6090   64.5210 C   0  0  0  0  0  0  0  0  0  0  0  0
  134.2840  125.0090   64.1590 F   0  0  0  0  0  0  0  0  0  0  0  0
  1  2  1  0
  2  3  1  0
  3  4  2  0
  4  5  1  0
  5  6  2  0
  6  7  1  0
  7  8  2  0
  8  9  1  0
  9 10  1  0
 10 11  2  0
 11 12  1  0
 12 13  2  0
 13 14  1  0
 14 15  2  0
  9 16  1  0
 16 17  2  0
 17 18  1  0
 18 19  2  0
 19 20  1  0
 20 21  1  0
 21 22  2  0
 22 23  1  0
 23 24  2  0
 23 25  1  0
 25 26  1  0
 26 27  1  0
 27 28  2  0
 28 29  1  0
 29 30  2  0
 30 31  1  0
 30 32  1  0
 32 33  2  0
 25 34  2  0
 34 35  1  0
 35 36  1  0
 36 37  2  0
  6 38  1  0
 38 39  2  0
 39 40  1  0
 39  3  1  0
 17  7  1  0
 36 19  1  0
 15 10  1  0
 35 21  1  0
 33 27  1  0
M  END
>  <Binding energies>  (103) 
[-9.66]

>  <Ligand effiencies>  (103) 
[-0.2415]

>  <Interactions>  (103) 
["V-A:PRO:540:CA:4883, V-A:PRO:540:N:4884, V-A:TYR:539:C:4867, V-A:MET:535:CE:4835, V-A:ILE:369:CD1:3239, V-B:GLU:543:CG:9879, V-A:LEU:475:CD2:4259, V-A:TYR:484:CZ:4347, V-A:GLY:453:CA:4044, V-B:GLU:543:CB:9878, H-A:TYR:484:OH:4348, V-A:GLU:543:CD:4908, V-A:TYR:484:CE2:4346, V-A:GLY:454:CA:4049, V-A:ARG:545:CZ:4926, V-B:GLU:543:CD:9880, V-B:HIS:456:CE1:9041, V-A:GLY:544:C:4912, V-B:GLY:544:C:9884, V-B:GLU:543:C:9874, V-B:HIS:456:CD2:9039, V-A:HIS:456:CE1:4070, V-A:GLU:543:CG:4907, H-B:TYR:484:OH:9319, V-A:TYR:539:CE1:4875, V-A:TYR:539:CZ:4877, H-A:GLY:454:N:4050, V-A:GLY:453:C:4042, V-A:TYR:539:CD1:4873, V-A:ILE:538:CA:4860, V-A:ILE:538:CG2:4863, V-A:ILE:538:CB:4862"]

$$$$
RR23_Rahimova_2017
     RDKit          3D

 39 44  0  0  0  0  0  0  0  0999 V2000
  127.1570  128.3780   74.7330 C   0  0  0  0  0  0  0  0  0  0  0  0
  127.9420  128.2010   73.4450 C   0  0  0  0  0  0  0  0  0  0  0  0
  127.4400  127.3880   72.4280 C   0  0  0  0  0  0  0  0  0  0  0  0
  128.1560  127.2340   71.2440 C   0  0  0  0  0  0  0  0  0  0  0  0
  129.3840  127.8820   71.0720 C   0  0  0  0  0  0  0  0  0  0  0  0
  130.1360  127.7190   69.7700 C   0  0  0  0  0  0  0  0  0  0  0  0
  131.3680  127.7070   69.8200 O   0  0  0  0  0  0  0  0  0  0  0  0
  129.4370  127.5760   68.6050 N   0  0  0  0  0  0  0  0  0  0  0  0
  128.5380  128.6320   68.1120 C   0  0  0  0  0  0  0  0  0  0  0  0
  128.0620  128.1820   66.7410 C   0  0  0  0  0  0  0  0  0  0  0  0
  129.0220  127.0840   66.3980 C   0  0  0  0  0  0  0  0  0  0  0  0
  129.1330  126.3510   65.2160 C   0  0  0  0  0  0  0  0  0  0  0  0
  129.9960  125.2470   65.1440 C   0  0  0  0  0  0  0  0  0  0  0  0
  130.1480  124.4130   63.8630 C   0  0  2  0  0  0  0  0  0  0  0  0
  129.1860  124.7880   62.8500 N   0  0  0  0  0  0  0  0  0  0  0  0
  128.8460  123.7970   62.1280 C   0  0  0  0  0  0  0  0  0  0  0  0
  127.9500  123.7710   61.1050 N   0  0  0  0  0  0  0  0  0  0  0  0
  127.1070  124.7520   60.7000 C   0  0  0  0  0  0  0  0  0  0  0  0
  127.0390  125.8830   61.1850 O   0  0  0  0  0  0  0  0  0  0  0  0
  126.1690  124.3810   59.5400 C   0  0  0  0  0  0  0  0  0  0  0  0
  126.9050  124.5090   58.2620 N   0  0  0  0  0  0  0  0  0  0  0  0
  127.3460  123.3150   57.7050 N   0  0  0  0  0  0  0  0  0  0  0  0
  128.0030  123.2900   56.5900 N   0  0  0  0  0  0  0  0  0  0  0  0
  128.2790  124.4850   55.9210 C   0  0  0  0  0  0  0  0  0  0  0  0
  128.9920  124.4240   54.7210 C   0  0  0  0  0  0  0  0  0  0  0  0
  129.2840  125.6010   54.0290 C   0  0  0  0  0  0  0  0  0  0  0  0
  128.8670  126.8340   54.5340 C   0  0  0  0  0  0  0  0  0  0  0  0
  128.1550  126.8970   55.7330 C   0  0  0  0  0  0  0  0  0  0  0  0
  127.8610  125.7170   56.4260 C   0  0  0  0  0  0  0  0  0  0  0  0
  127.0950  125.7640   57.7280 C   0  0  0  0  0  0  0  0  0  0  0  0
  126.6980  126.8080   58.2530 O   0  0  0  0  0  0  0  0  0  0  0  0
  129.6170  122.2260   62.4960 S   0  0  0  0  0  0  0  0  0  0  0  0
  130.1300  122.8840   64.0920 C   0  0  2  0  0  0  0  0  0  0  0  0
  129.1730  122.3590   65.1830 C   0  0  0  0  0  0  0  0  0  0  0  0
  130.7030  124.8670   66.2910 C   0  0  0  0  0  0  0  0  0  0  0  0
  130.5760  125.5870   67.4800 C   0  0  0  0  0  0  0  0  0  0  0  0
  129.7750  126.7360   67.5200 C   0  0  0  0  0  0  0  0  0  0  0  0
  129.8680  128.7200   72.0860 C   0  0  0  0  0  0  0  0  0  0  0  0
  129.1520  128.8740   73.2700 C   0  0  0  0  0  0  0  0  0  0  0  0
  1  2  1  0
  2  3  2  0
  3  4  1  0
  4  5  2  0
  5  6  1  0
  6  7  2  0
  6  8  1  0
  8  9  1  0
  9 10  1  0
 10 11  1  0
 11 12  2  0
 12 13  1  0
 14 13  1  1
 14 15  1  0
 15 16  2  0
 16 17  1  0
 17 18  1  0
 18 19  2  0
 18 20  1  0
 20 21  1  0
 21 22  1  0
 22 23  2  0
 23 24  1  0
 24 25  2  0
 25 26  1  0
 26 27  2  0
 27 28  1  0
 28 29  2  0
 29 30  1  0
 30 31  2  0
 16 32  1  0
 32 33  1  0
 33 34  1  1
 13 35  2  0
 35 36  1  0
 36 37  2  0
  5 38  1  0
 38 39  2  0
 39  2  1  0
 37  8  1  0
 37 11  1  0
 33 14  1  0
 30 21  1  0
 29 24  1  0
M  END
>  <Binding energies>  (104) 
[-9.68]

>  <Ligand effiencies>  (104) 
[-0.242]

>  <Interactions>  (104) 
["H-B:TYR:539:OH:9850, V-B:TYR:539:CZ:9849, V-B:TYR:539:CE1:9847, V-B:PRO:540:CB:9857, H-B:TYR:531:OH:9767, V-A:MET:535:CE:4835, V-B:MET:535:CG:9805, V-B:ALA:541:CB:9864, V-B:GLU:543:CG:9879, V-A:LEU:475:CD2:4259, V-A:TYR:484:CZ:4347, V-B:GLU:543:CB:9878, V-A:GLU:543:CD:4908, V-A:TYR:484:CE2:4346, V-B:GLU:543:CD:9880, V-B:HIS:456:CE1:9041, V-A:GLY:544:C:4912, V-B:GLY:544:C:9884, V-B:HIS:456:CD2:9039, V-B:LYS:547:CE:9922, V-A:HIS:456:CE1:4070, V-A:GLU:543:CG:4907, V-A:GLU:543:C:4902, V-A:GLU:543:CB:4906, V-B:HIS:456:CG:9037, H-A:HIS:456:ND1:4067, H-A:ARG:545:N:4920, V-B:GLU:543:CA:9876"]

$$$$
RR26_Rahimova_2017
     RDKit          3D

 38 44  0  0  0  0  0  0  0  0999 V2000
  124.2960  123.8930   58.5960 C   0  0  0  0  0  0  0  0  0  0  0  0
  125.4340  123.3490   57.7410 C   0  0  0  0  0  0  0  0  0  0  0  0
  125.1130  122.7130   56.5370 C   0  0  0  0  0  0  0  0  0  0  0  0
  126.1150  122.2320   55.6970 C   0  0  0  0  0  0  0  0  0  0  0  0
  127.4520  122.3900   56.0510 C   0  0  0  0  0  0  0  0  0  0  0  0
  127.7840  123.0230   57.2470 C   0  0  0  0  0  0  0  0  0  0  0  0
  126.7890  123.5060   58.1100 C   0  0  0  0  0  0  0  0  0  0  0  0
  127.2330  124.1610   59.3860 C   0  0  0  0  0  0  0  0  0  0  0  0
  127.5160  123.4630   60.4830 N   0  0  0  0  0  0  0  0  0  0  0  0
  127.8610  124.4040   61.3200 C   0  0  0  0  0  0  0  0  0  0  0  0
  128.3750  124.4680   62.9650 S   0  0  0  0  0  0  0  0  0  0  0  0
  128.5030  126.2620   62.8310 C   0  0  0  0  0  0  0  0  0  0  0  0
  128.8750  127.1400   63.7900 C   0  0  0  0  0  0  0  0  0  0  0  0
  129.2690  126.8560   65.1600 C   0  0  0  0  0  0  0  0  0  0  0  0
  128.8250  127.4660   66.3230 C   0  0  0  0  0  0  0  0  0  0  0  0
  129.4360  126.8480   67.3840 N   0  0  0  0  0  0  0  0  0  0  0  0
  129.2870  127.1260   68.7670 C   0  0  0  0  0  0  0  0  0  0  0  0
  128.0720  126.8770   69.4230 C   0  0  0  0  0  0  0  0  0  0  0  0
  127.9380  127.1580   70.7800 C   0  0  0  0  0  0  0  0  0  0  0  0
  129.0160  127.6850   71.4860 C   0  0  0  0  0  0  0  0  0  0  0  0
  130.2290  127.9350   70.8470 C   0  0  0  0  0  0  0  0  0  0  0  0
  130.3660  127.6570   69.4900 C   0  0  0  0  0  0  0  0  0  0  0  0
  130.2270  125.8540   66.9510 N   0  0  0  0  0  0  0  0  0  0  0  0
  130.1420  125.8500   65.6350 C   0  0  0  0  0  0  0  0  0  0  0  0
  130.9240  124.8520   64.8400 C   0  0  0  0  0  0  0  0  0  0  0  0
  130.5160  123.5100   64.7850 C   0  0  0  0  0  0  0  0  0  0  0  0
  131.2410  122.5710   64.0500 C   0  0  0  0  0  0  0  0  0  0  0  0
  132.3850  122.9680   63.3610 C   0  0  0  0  0  0  0  0  0  0  0  0
  132.7930  124.3100   63.3920 C   0  0  0  0  0  0  0  0  0  0  0  0
  132.0710  125.2450   64.1330 C   0  0  0  0  0  0  0  0  0  0  0  0
  133.9440  124.7400   62.7620 O   0  0  0  0  0  0  0  0  0  0  0  0
  134.4220  123.8520   61.7460 C   0  0  0  0  0  0  0  0  0  0  0  0
  134.3790  122.3860   62.2410 C   0  0  0  0  0  0  0  0  0  0  0  0
  133.0450  122.0180   62.6070 O   0  0  0  0  0  0  0  0  0  0  0  0
  128.1330  126.7470   61.5050 C   0  0  0  0  0  0  0  0  0  0  0  0
  128.1040  127.9040   61.0800 O   0  0  0  0  0  0  0  0  0  0  0  0
  127.7930  125.6180   60.7440 N   0  0  0  0  0  0  0  0  0  0  0  0
  127.3890  125.4730   59.4790 N   0  0  0  0  0  0  0  0  0  0  0  0
  1  2  1  0
  2  3  2  0
  3  4  1  0
  4  5  2  0
  5  6  1  0
  6  7  2  0
  7  8  1  0
  8  9  1  0
  9 10  2  0
 10 11  1  0
 11 12  1  0
 12 13  2  0
 13 14  1  0
 14 15  2  0
 15 16  1  0
 16 17  1  0
 17 18  2  0
 18 19  1  0
 19 20  2  0
 20 21  1  0
 21 22  2  0
 16 23  1  0
 23 24  2  0
 24 25  1  0
 25 26  2  0
 26 27  1  0
 27 28  2  0
 28 29  1  0
 29 30  2  0
 29 31  1  0
 31 32  1  0
 32 33  1  0
 33 34  1  0
 12 35  1  0
 35 36  2  0
 35 37  1  0
 37 38  1  0
  7  2  1  0
 38  8  2  0
 37 10  1  0
 24 14  1  0
 30 25  1  0
 22 17  1  0
 34 28  1  0
M  END
>  <Binding energies>  (105) 
[-9.66]

>  <Ligand effiencies>  (105) 
[-0.2542105263157895]

>  <Interactions>  (105) 
["V-B:TYR:539:CZ:9849, V-B:PRO:540:N:9856, V-B:TYR:539:CE1:9847, V-B:PRO:540:CB:9857, V-B:TYR:539:CD1:9845, V-B:PRO:540:CA:9855, V-B:TYR:539:CE2:9848, V-B:PRO:540:CD:9859, V-B:MET:535:CE:9807, V-B:LEU:363:CD1:8160, V-B:TYR:539:CG:9844, V-B:TYR:539:CD2:9846, V-B:LEU:363:CA:8156, V-A:ILE:369:CD1:3239, V-B:GLU:543:CG:9879, V-A:LEU:475:CD2:4259, V-A:TYR:484:CZ:4347, V-B:GLU:543:CB:9878, V-A:GLU:543:CD:4908, V-A:TYR:484:CE2:4346, V-A:GLY:454:CA:4049, V-A:ARG:545:CZ:4926, V-B:GLU:543:CD:9880, V-B:HIS:456:CE1:9041, V-A:GLY:544:C:4912, V-B:GLU:543:C:9874, V-B:HIS:456:CD2:9039, V-A:HIS:456:CE1:4070, V-A:GLU:543:C:4902, V-A:GLU:543:CB:4906, H-A:ARG:545:NH2:4928, H-A:GLY:454:N:4050, V-B:ILE:538:CG2:9835, V-B:ILE:538:CA:9832, V-B:ILE:538:C:9830, V-B:LEU:363:CB:8158, V-B:ILE:538:CB:9834"]

$$$$
RR2_Rahimova_2017
     RDKit          3D

 46 50  0  0  0  0  0  0  0  0999 V2000
  128.8060  133.4940   55.6270 C   0  0  0  0  0  0  0  0  0  0  0  0
  129.9800  133.1290   56.3440 O   0  0  0  0  0  0  0  0  0  0  0  0
  130.0600  131.8710   56.9120 C   0  0  0  0  0  0  0  0  0  0  0  0
  131.2470  131.2840   57.3720 C   0  0  0  0  0  0  0  0  0  0  0  0
  131.2300  130.0080   57.9290 C   0  0  0  0  0  0  0  0  0  0  0  0
  130.0320  129.2890   58.0360 C   0  0  0  0  0  0  0  0  0  0  0  0
  130.0420  127.8980   58.6410 C   0  0  0  0  0  0  0  0  0  0  0  0
  129.3320  127.6390   59.6180 O   0  0  0  0  0  0  0  0  0  0  0  0
  130.8720  127.0060   58.0520 N   0  0  0  0  0  0  0  0  0  0  0  0
  130.9890  125.7430   58.6230 N   0  0  0  0  0  0  0  0  0  0  0  0
  132.1930  125.1370   58.5890 C   0  0  0  0  0  0  0  0  0  0  0  0
  133.1630  125.5310   57.9350 O   0  0  0  0  0  0  0  0  0  0  0  0
  132.3260  123.8810   59.4610 C   0  0  0  0  0  0  0  0  0  0  0  0
  133.9950  123.5920   60.1530 S   0  0  0  0  0  0  0  0  0  0  0  0
  133.7650  124.1650   61.8090 C   0  0  0  0  0  0  0  0  0  0  0  0
  134.7430  124.6240   62.5480 N   0  0  0  0  0  0  0  0  0  0  0  0
  134.2210  124.9120   63.8010 N   0  0  0  0  0  0  0  0  0  0  0  0
  132.9370  124.6440   63.7630 C   0  0  0  0  0  0  0  0  0  0  0  0
  132.0210  124.8440   64.9270 C   0  0  0  0  0  0  0  0  0  0  0  0
  130.7350  124.2990   64.9010 C   0  0  0  0  0  0  0  0  0  0  0  0
  129.8730  124.4860   65.9760 C   0  0  0  0  0  0  0  0  0  0  0  0
  130.2950  125.2080   67.0990 C   0  0  0  0  0  0  0  0  0  0  0  0
  129.4660  125.4370   68.2070 N   0  0  0  0  0  0  0  0  0  0  0  0
  128.7880  127.0180   68.6550 S   0  0  0  0  0  0  0  0  0  0  0  0
  127.3340  126.8900   68.5100 O   0  0  0  0  0  0  0  0  0  0  0  0
  129.5290  128.0540   67.9240 O   0  0  0  0  0  0  0  0  0  0  0  0
  129.1190  127.1910   70.4060 C   0  0  0  0  0  0  0  0  0  0  0  0
  130.3640  127.6400   70.8540 C   0  0  0  0  0  0  0  0  0  0  0  0
  130.6060  127.7520   72.2210 C   0  0  0  0  0  0  0  0  0  0  0  0
  129.6050  127.4210   73.1370 C   0  0  0  0  0  0  0  0  0  0  0  0
  129.8760  127.5300   74.6260 C   0  0  0  0  0  0  0  0  0  0  0  0
  128.3630  126.9690   72.6860 C   0  0  0  0  0  0  0  0  0  0  0  0
  128.1200  126.8550   71.3200 C   0  0  0  0  0  0  0  0  0  0  0  0
  131.5800  125.7490   67.1250 C   0  0  0  0  0  0  0  0  0  0  0  0
  132.4420  125.5680   66.0470 C   0  0  0  0  0  0  0  0  0  0  0  0
  132.5770  124.1580   62.5170 N   0  0  0  0  0  0  0  0  0  0  0  0
  131.3120  123.7140   62.0810 C   0  0  0  0  0  0  0  0  0  0  0  0
  130.3210  124.6430   61.7580 C   0  0  0  0  0  0  0  0  0  0  0  0
  129.0760  124.1980   61.3230 C   0  0  0  0  0  0  0  0  0  0  0  0
  128.8080  122.8330   61.2090 C   0  0  0  0  0  0  0  0  0  0  0  0
  127.5440  122.4890   60.7720 O   0  0  0  0  0  0  0  0  0  0  0  0
  126.5160  123.4750   60.7730 C   0  0  0  0  0  0  0  0  0  0  0  0
  129.8110  121.9060   61.5370 C   0  0  0  0  0  0  0  0  0  0  0  0
  131.0590  122.3450   61.9700 C   0  0  0  0  0  0  0  0  0  0  0  0
  128.8460  129.8860   57.5800 C   0  0  0  0  0  0  0  0  0  0  0  0
  128.8650  131.1630   57.0250 C   0  0  0  0  0  0  0  0  0  0  0  0
  1  2  1  0
  2  3  1  0
  3  4  2  0
  4  5  1  0
  5  6  2  0
  6  7  1  0
  7  8  2  0
  7  9  1  0
  9 10  1  0
 10 11  1  0
 11 12  2  0
 11 13  1  0
 13 14  1  0
 14 15  1  0
 15 16  2  0
 16 17  1  0
 17 18  2  0
 18 19  1  0
 19 20  2  0
 20 21  1  0
 21 22  2  0
 22 23  1  0
 23 24  1  0
 24 25  2  0
 24 26  2  0
 24 27  1  0
 27 28  2  0
 28 29  1  0
 29 30  2  0
 30 31  1  0
 30 32  1  0
 32 33  2  0
 22 34  1  0
 34 35  2  0
 18 36  1  0
 36 37  1  0
 37 38  2  0
 38 39  1  0
 39 40  2  0
 40 41  1  0
 41 42  1  0
 40 43  1  0
 43 44  2  0
  6 45  1  0
 45 46  2  0
 46  3  1  0
 36 15  1  0
 44 37  1  0
 35 19  1  0
 33 27  1  0
M  END
>  <Binding energies>  (106) 
[-11.26]

>  <Ligand effiencies>  (106) 
[-0.22979591836734695]

>  <Interactions>  (106) 
["H-A:TYR:531:OH:4795, H-B:TYR:539:OH:9850, V-A:ASP:366:CB:3212, H-A:TYR:539:N:4870, V-B:TYR:539:CZ:9849, V-B:PRO:540:CB:9857, V-B:PRO:540:CA:9855, V-B:TYR:539:CE2:9848, H-B:ALA:541:N:9863, V-A:MET:535:CE:4835, V-A:ILE:369:CD1:3239, V-B:GLU:543:CG:9879, V-A:LEU:475:CD2:4259, V-A:TYR:484:CZ:4347, V-B:GLU:543:CB:9878, V-A:GLU:543:CD:4908, V-A:TYR:484:CE2:4346, H-A:ARG:545:NE:4924, V-A:ARG:545:CZ:4926, V-B:GLU:543:CD:9880, V-B:HIS:456:CE1:9041, V-A:GLY:544:C:4912, V-B:GLU:543:C:9874, V-B:LYS:547:CE:9922, V-A:HIS:456:CE1:4070, V-A:ARG:545:CG:4922, V-A:HIS:456:CD2:4068, H-A:HIS:456:NE2:4071, H-B:GLU:543:O:9875, V-A:TYR:539:CZ:4877, H-A:ARG:545:NH2:4928, V-B:GLU:543:CA:9876, H-A:GLY:454:N:4050, V-A:TYR:539:CD1:4873, V-A:TYR:539:CD2:4874, V-A:ILE:538:CA:4860, V-A:TYR:539:CG:4872, V-A:TYR:539:CE2:4876, V-A:ILE:538:C:4858, V-A:ILE:538:CB:4862, V-A:ARG:545:CD:4923, H-A:ARG:545:NH1:4927"]

$$$$
RR33_Rahimova_2017
     RDKit          3D

 18 19  0  0  0  0  0  0  0  0999 V2000
  136.5040  123.4470   76.5470 C   0  0  0  0  0  0  0  0  0  0  0  0
  135.1350  122.7610   76.5080 C   0  0  0  0  0  0  0  0  0  0  0  0
  134.1830  123.6020   77.1550 O   0  0  0  0  0  0  0  0  0  0  0  0
  133.2410  124.2690   76.3950 C   0  0  0  0  0  0  0  0  0  0  0  0
  133.6950  125.3680   75.6680 C   0  0  0  0  0  0  0  0  0  0  0  0
  132.8180  126.1050   74.8760 C   0  0  0  0  0  0  0  0  0  0  0  0
  131.4680  125.7500   74.8000 C   0  0  0  0  0  0  0  0  0  0  0  0
  130.5260  126.5410   73.9510 C   0  0  0  0  0  0  0  0  0  0  0  0
  130.5710  127.8290   73.6890 N   0  0  0  0  0  0  0  0  0  0  0  0
  129.5350  128.0610   72.8980 C   0  0  0  0  0  0  0  0  0  0  0  0
  129.2570  129.4510   72.3680 C   0  0  0  0  0  0  0  0  0  0  0  0
  129.9580  130.4520   73.1590 N   0  0  0  0  0  0  0  0  0  0  0  0
  129.0140  131.2890   73.8800 C   0  0  0  0  0  0  0  0  0  0  0  0
  128.8430  126.8770   72.6760 C   0  0  0  0  0  0  0  0  0  0  0  0
  127.6180  126.4810   71.8880 C   0  0  0  0  0  0  0  0  0  0  0  0
  129.4850  125.9010   73.3580 O   0  0  0  0  0  0  0  0  0  0  0  0
  131.0090  124.6450   75.5250 C   0  0  0  0  0  0  0  0  0  0  0  0
  131.8870  123.9090   76.3180 C   0  0  0  0  0  0  0  0  0  0  0  0
  1  2  1  0
  2  3  1  0
  3  4  1  0
  4  5  2  0
  5  6  1  0
  6  7  2  0
  7  8  1  0
  8  9  2  0
  9 10  1  0
 10 11  1  0
 11 12  1  0
 12 13  1  0
 10 14  2  0
 14 15  1  0
 14 16  1  0
  7 17  1  0
 17 18  2  0
 18  4  1  0
 16  8  1  0
M  END
>  <Binding energies>  (107) 
[-5.25]

>  <Ligand effiencies>  (107) 
[-0.27631578947368424]

>  <Interactions>  (107) 
["H-A:LYS:547:NZ:4951, V-B:GLY:544:C:9884, V-B:GLU:543:C:9874, V-B:HIS:456:CD2:9039, V-B:LYS:547:CE:9922, V-A:GLU:543:C:4902, V-B:GLY:544:CA:9886, H-B:LYS:547:NZ:9923, V-A:HIS:456:CD2:4068, V-A:HIS:456:CB:4065, H-A:GLU:543:O:4903, H-A:GLY:544:O:4913, V-A:HIS:456:CG:4066, V-A:HIS:456:C:4061, V-A:VAL:458:CG2:4087, V-A:VAL:457:C:4073, V-A:VAL:457:CA:4075, H-A:LYS:471:NZ:4221, V-A:LYS:547:CE:4950, V-A:ASP:473:CG:4240, V-A:LYS:471:CG:4218, V-A:LYS:471:CD:4219, V-A:LYS:471:C:4213, V-A:LYS:471:CB:4217, V-A:LYS:471:CA:4215, V-A:LEU:472:CA:4228, V-A:VAL:458:CB:4085"]

$$$$
RR3_Rahimova_2017
     RDKit          3D

 38 44  0  0  0  0  0  0  0  0999 V2000
  131.0840  121.3580   61.0160 C   0  0  0  0  0  0  0  0  0  0  0  0
  132.0810  122.1800   61.5310 C   0  0  0  0  0  0  0  0  0  0  0  0
  131.7860  123.0490   62.5780 C   0  0  0  0  0  0  0  0  0  0  0  0
  130.4940  123.1070   63.1230 C   0  0  0  0  0  0  0  0  0  0  0  0
  130.1790  124.0410   64.2490 C   0  0  0  0  0  0  0  0  0  0  0  0
  129.8850  125.3900   64.0060 C   0  0  0  0  0  0  0  0  0  0  0  0
  129.5950  126.2590   65.0540 C   0  0  0  0  0  0  0  0  0  0  0  0
  129.6000  125.7990   66.3740 C   0  0  0  0  0  0  0  0  0  0  0  0
  129.2940  126.7300   67.5060 C   0  0  0  0  0  0  0  0  0  0  0  0
  129.8190  126.5100   68.7070 N   0  0  0  0  0  0  0  0  0  0  0  0
  129.4200  127.4950   69.4750 C   0  0  0  0  0  0  0  0  0  0  0  0
  129.7640  127.6530   70.8860 C   0  0  0  0  0  0  0  0  0  0  0  0
  131.0450  127.7470   71.4020 C   0  0  0  0  0  0  0  0  0  0  0  0
  130.9970  127.8970   72.7630 N   0  0  0  0  0  0  0  0  0  0  0  0
  129.6870  127.9060   73.1880 C   0  0  0  0  0  0  0  0  0  0  0  0
  129.1430  128.0320   74.4710 C   0  0  0  0  0  0  0  0  0  0  0  0
  127.7530  128.0020   74.5750 C   0  0  0  0  0  0  0  0  0  0  0  0
  126.9370  127.8510   73.4590 C   0  0  0  0  0  0  0  0  0  0  0  0
  127.4780  127.7260   72.1810 C   0  0  0  0  0  0  0  0  0  0  0  0
  128.8750  127.7500   72.0200 C   0  0  0  0  0  0  0  0  0  0  0  0
  128.6240  128.3650   68.7820 N   0  0  0  0  0  0  0  0  0  0  0  0
  128.5000  127.8890   67.5030 C   0  0  0  0  0  0  0  0  0  0  0  0
  127.6490  128.5520   66.4700 C   0  0  0  0  0  0  0  0  0  0  0  0
  128.1800  128.8590   65.2160 C   0  0  0  0  0  0  0  0  0  0  0  0
  127.3940  129.4880   64.2560 C   0  0  0  0  0  0  0  0  0  0  0  0
  126.0580  129.8220   64.5240 C   0  0  0  0  0  0  0  0  0  0  0  0
  125.2220  130.5170   63.4960 C   0  0  0  0  0  0  0  0  0  0  0  0
  124.9350  129.9030   62.2670 C   0  0  0  0  0  0  0  0  0  0  0  0
  124.1530  130.5480   61.3120 C   0  0  0  0  0  0  0  0  0  0  0  0
  123.6480  131.8170   61.5770 C   0  0  0  0  0  0  0  0  0  0  0  0
  123.9180  132.4430   62.7890 C   0  0  0  0  0  0  0  0  0  0  0  0
  124.7020  131.7970   63.7410 C   0  0  0  0  0  0  0  0  0  0  0  0
  125.5320  129.4930   65.7810 C   0  0  0  0  0  0  0  0  0  0  0  0
  126.3150  128.8630   66.7440 C   0  0  0  0  0  0  0  0  0  0  0  0
  129.8780  124.4540   66.6250 C   0  0  0  0  0  0  0  0  0  0  0  0
  130.1680  123.5880   65.5750 C   0  0  0  0  0  0  0  0  0  0  0  0
  129.5050  122.2700   62.5870 C   0  0  0  0  0  0  0  0  0  0  0  0
  129.7960  121.3990   61.5400 C   0  0  0  0  0  0  0  0  0  0  0  0
  1  2  2  0
  2  3  1  0
  3  4  2  0
  4  5  1  0
  5  6  2  0
  6  7  1  0
  7  8  2  0
  8  9  1  0
  9 10  1  0
 10 11  2  0
 11 12  1  0
 12 13  2  0
 13 14  1  0
 14 15  1  0
 15 16  2  0
 16 17  1  0
 17 18  2  0
 18 19  1  0
 19 20  2  0
 11 21  1  0
 21 22  1  0
 22 23  1  0
 23 24  2  0
 24 25  1  0
 25 26  2  0
 26 27  1  0
 27 28  2  0
 28 29  1  0
 29 30  2  0
 30 31  1  0
 31 32  2  0
 26 33  1  0
 33 34  2  0
  8 35  1  0
 35 36  2  0
  4 37  1  0
 37 38  2  0
 38  1  1  0
 36  5  1  0
 22  9  2  0
 34 23  1  0
 20 12  1  0
 32 27  1  0
 20 15  1  0
M  END
>  <Binding energies>  (108) 
[-9.71]

>  <Ligand effiencies>  (108) 
[-0.24275000000000002]

>  <Interactions>  (108) 
["V-B:TYR:539:CE2:9848, V-B:ASP:366:CG:8184, V-B:TYR:539:CD2:9846, V-B:ALA:541:CB:9864, V-B:GLU:543:CG:9879, V-A:LEU:475:CD2:4259, V-A:TYR:484:CZ:4347, V-B:GLU:543:CB:9878, V-A:GLU:543:CD:4908, V-A:TYR:484:CE2:4346, V-B:GLU:543:CD:9880, V-B:HIS:456:CE1:9041, V-A:GLY:544:C:4912, V-B:HIS:456:CD2:9039, V-B:LYS:547:CE:9922, V-A:HIS:456:CE1:4070, V-A:GLU:543:CG:4907, V-A:GLU:543:CB:4906, V-B:HIS:456:CG:9037, V-B:TYR:484:CZ:9318, V-A:HIS:456:CD2:4068, V-B:HIS:456:CB:9036, H-B:HIS:456:NE2:9042, H-A:GLU:543:O:4903, H-A:GLY:544:O:4913, V-B:ILE:369:CG2:8208, V-B:GLU:543:CA:9876, V-B:GLY:454:CA:9020"]

$$$$
RR4_Rahimova_2017
     RDKit          3D

 40 44  0  0  0  0  0  0  0  0999 V2000
  127.7990  128.3710   74.1630 C   0  0  0  0  0  0  0  0  0  0  0  0
  128.5470  127.3100   73.5800 O   0  0  0  0  0  0  0  0  0  0  0  0
  128.7310  127.2870   72.2110 C   0  0  0  0  0  0  0  0  0  0  0  0
  127.6330  126.9140   71.4390 C   0  0  0  0  0  0  0  0  0  0  0  0
  127.7250  126.8650   70.0510 C   0  0  0  0  0  0  0  0  0  0  0  0
  128.9220  127.1850   69.3930 C   0  0  0  0  0  0  0  0  0  0  0  0
  129.0180  127.1290   67.8960 C   0  0  0  0  0  0  0  0  0  0  0  0
  129.8260  126.2070   67.2220 C   0  0  0  0  0  0  0  0  0  0  0  0
  129.8780  126.1930   65.8220 C   0  0  0  0  0  0  0  0  0  0  0  0
  130.7420  125.1610   65.1720 C   0  0  0  0  0  0  0  0  0  0  0  0
  132.1020  125.4110   64.9690 C   0  0  0  0  0  0  0  0  0  0  0  0
  132.9170  124.4510   64.3740 C   0  0  0  0  0  0  0  0  0  0  0  0
  132.3890  123.2220   63.9780 C   0  0  0  0  0  0  0  0  0  0  0  0
  133.2720  122.3310   63.3980 O   0  0  0  0  0  0  0  0  0  0  0  0
  133.9910  122.7250   62.2330 C   0  0  0  0  0  0  0  0  0  0  0  0
  131.0260  122.9650   64.1840 C   0  0  0  0  0  0  0  0  0  0  0  0
  130.2140  123.9270   64.7800 C   0  0  0  0  0  0  0  0  0  0  0  0
  129.1180  127.1510   65.1080 C   0  0  0  0  0  0  0  0  0  0  0  0
  129.1350  127.1790   63.6430 C   0  0  0  0  0  0  0  0  0  0  0  0
  129.1500  127.2020   62.4860 N   0  0  0  0  0  0  0  0  0  0  0  0
  128.3460  128.0720   65.8530 C   0  0  0  0  0  0  0  0  0  0  0  0
  127.3420  129.3490   65.1260 S   0  0  0  0  0  0  0  0  0  0  0  0
  128.4270  130.7680   64.7560 C   0  0  0  0  0  0  0  0  0  0  0  0
  128.3630  131.2570   63.3030 C   0  0  0  0  0  0  0  0  0  0  0  0
  127.3330  131.7730   62.8610 O   0  0  0  0  0  0  0  0  0  0  0  0
  129.4950  131.0600   62.5890 N   0  0  0  0  0  0  0  0  0  0  0  0
  129.7500  131.3940   61.2560 C   0  0  0  0  0  0  0  0  0  0  0  0
  128.4860  131.7080   60.0980 S   0  0  0  0  0  0  0  0  0  0  0  0
  129.6400  132.0020   58.8340 C   0  0  0  0  0  0  0  0  0  0  0  0
  130.9580  131.8580   59.2940 C   0  0  0  0  0  0  0  0  0  0  0  0
  131.0180  131.5290   60.6700 C   0  0  0  0  0  0  0  0  0  0  0  0
  132.2700  131.3420   61.3980 C   0  0  0  0  0  0  0  0  0  0  0  0
  133.2630  131.1930   61.9740 N   0  0  0  0  0  0  0  0  0  0  0  0
  132.1600  132.1040   58.3760 C   0  0  0  0  0  0  0  0  0  0  0  0
  131.7300  132.8790   57.1100 C   0  0  0  0  0  0  0  0  0  0  0  0
  130.4470  132.3030   56.4850 C   0  0  0  0  0  0  0  0  0  0  0  0
  129.2340  132.4320   57.4300 C   0  0  0  0  0  0  0  0  0  0  0  0
  128.2890  128.0430   67.2060 N   0  0  0  0  0  0  0  0  0  0  0  0
  130.0210  127.5630   70.1800 C   0  0  0  0  0  0  0  0  0  0  0  0
  129.9330  127.6140   71.5680 C   0  0  0  0  0  0  0  0  0  0  0  0
  1  2  1  0
  2  3  1  0
  3  4  2  0
  4  5  1  0
  5  6  2  0
  6  7  1  0
  7  8  2  0
  8  9  1  0
  9 10  1  0
 10 11  2  0
 11 12  1  0
 12 13  2  0
 13 14  1  0
 14 15  1  0
 13 16  1  0
 16 17  2  0
  9 18  2  0
 18 19  1  0
 19 20  3  0
 18 21  1  0
 21 22  1  0
 22 23  1  0
 23 24  1  0
 24 25  2  0
 24 26  1  0
 26 27  1  0
 27 28  1  0
 28 29  1  0
 29 30  2  0
 30 31  1  0
 31 32  1  0
 32 33  3  0
 30 34  1  0
 34 35  1  0
 35 36  1  0
 36 37  1  0
 21 38  2  0
  6 39  1  0
 39 40  2  0
 40  3  1  0
 38  7  1  0
 17 10  1  0
 31 27  2  0
 37 29  1  0
M  END
>  <Binding energies>  (109) 
[-10.99]

>  <Ligand effiencies>  (109) 
[-0.2680487804878049]

>  <Interactions>  (109) 
["V-A:LEU:363:CD1:3189, V-A:PRO:540:CA:4883, V-A:PRO:540:CB:4885, V-A:PRO:540:CD:4887, V-A:PRO:540:CG:4886, V-A:PRO:540:N:4884, V-A:MET:535:CE:4835, V-A:ILE:369:CD1:3239, V-B:GLU:543:CG:9879, V-A:LEU:475:CD2:4259, V-B:GLU:543:CB:9878, H-A:TYR:484:OH:4348, V-A:GLU:543:CD:4908, V-A:TYR:484:CE2:4346, V-A:GLY:454:CA:4049, V-A:ARG:545:CZ:4926, V-B:GLU:543:CD:9880, V-B:HIS:456:CE1:9041, V-B:GLY:544:C:9884, V-B:GLU:543:C:9874, V-B:HIS:456:CD2:9039, V-A:HIS:456:CE1:4070, V-A:GLU:543:CG:4907, V-B:GLY:544:CA:9886, H-B:LYS:547:NZ:9923, H-A:GLU:543:OE1:4909, H-B:TYR:484:OH:9319, H-A:ARG:545:NH2:4928, H-A:GLY:454:N:4050, V-A:ILE:538:CB:4862"]

$$$$
RR6_Rahimova_2017
     RDKit          3D

 38 41  0  0  0  0  0  0  0  0999 V2000
  131.5250  132.1800   56.1560 C   0  0  0  0  0  0  0  0  0  0  0  0
  130.9570  133.2490   56.9000 O   0  0  0  0  0  0  0  0  0  0  0  0
  129.6880  133.1710   57.3770 C   0  0  0  0  0  0  0  0  0  0  0  0
  128.6940  133.4920   56.7190 O   0  0  0  0  0  0  0  0  0  0  0  0
  129.6140  132.6550   58.7860 C   0  0  0  0  0  0  0  0  0  0  0  0
  130.7340  132.1300   59.4450 C   0  0  0  0  0  0  0  0  0  0  0  0
  130.6310  131.6520   60.7500 C   0  0  0  0  0  0  0  0  0  0  0  0
  129.3970  131.6890   61.4170 C   0  0  0  0  0  0  0  0  0  0  0  0
  129.1760  131.2080   62.7210 N   0  0  0  0  0  0  0  0  0  0  0  0
  128.2840  131.6250   63.6470 C   0  0  0  0  0  0  0  0  0  0  0  0
  127.4680  132.5340   63.4940 O   0  0  0  0  0  0  0  0  0  0  0  0
  128.3680  130.9260   65.0080 C   0  0  0  0  0  0  0  0  0  0  0  0
  127.3430  129.4210   65.1220 S   0  0  0  0  0  0  0  0  0  0  0  0
  128.3700  128.1550   65.8400 C   0  0  0  0  0  0  0  0  0  0  0  0
  128.4110  128.1720   67.1940 N   0  0  0  0  0  0  0  0  0  0  0  0
  129.1370  127.2360   67.8570 C   0  0  0  0  0  0  0  0  0  0  0  0
  129.0810  127.2870   69.3550 C   0  0  0  0  0  0  0  0  0  0  0  0
  130.1940  127.6980   70.1060 C   0  0  0  0  0  0  0  0  0  0  0  0
  130.1460  127.7320   71.4970 C   0  0  0  0  0  0  0  0  0  0  0  0
  128.9790  127.3610   72.1650 C   0  0  0  0  0  0  0  0  0  0  0  0
  128.9350  127.3910   73.6820 C   0  0  0  0  0  0  0  0  0  0  0  0
  127.8640  126.9530   71.4380 C   0  0  0  0  0  0  0  0  0  0  0  0
  127.9170  126.9210   70.0480 C   0  0  0  0  0  0  0  0  0  0  0  0
  129.8550  126.2610   67.1580 C   0  0  0  0  0  0  0  0  0  0  0  0
  129.8320  126.2250   65.7560 C   0  0  0  0  0  0  0  0  0  0  0  0
  130.6060  125.1450   65.0740 C   0  0  0  0  0  0  0  0  0  0  0  0
  129.9760  123.9510   64.7120 C   0  0  0  0  0  0  0  0  0  0  0  0
  130.6870  122.9450   64.0620 C   0  0  0  0  0  0  0  0  0  0  0  0
  132.0360  123.1160   63.7560 C   0  0  0  0  0  0  0  0  0  0  0  0
  132.6600  122.0660   63.1090 O   0  0  0  0  0  0  0  0  0  0  0  0
  133.8680  122.3110   62.3960 C   0  0  0  0  0  0  0  0  0  0  0  0
  132.6720  124.3150   64.1130 C   0  0  0  0  0  0  0  0  0  0  0  0
  131.9580  125.3180   64.7630 C   0  0  0  0  0  0  0  0  0  0  0  0
  129.0710  127.2040   65.0710 C   0  0  0  0  0  0  0  0  0  0  0  0
  129.0260  127.2420   63.6050 C   0  0  0  0  0  0  0  0  0  0  0  0
  128.9900  127.2700   62.4490 N   0  0  0  0  0  0  0  0  0  0  0  0
  128.2840  132.2260   60.7700 C   0  0  0  0  0  0  0  0  0  0  0  0
  128.3890  132.7010   59.4650 C   0  0  0  0  0  0  0  0  0  0  0  0
  1  2  1  0
  2  3  1  0
  3  4  2  0
  3  5  1  0
  5  6  2  0
  6  7  1  0
  7  8  2  0
  8  9  1  0
  9 10  1  0
 10 11  2  0
 10 12  1  0
 12 13  1  0
 13 14  1  0
 14 15  2  0
 15 16  1  0
 16 17  1  0
 17 18  2  0
 18 19  1  0
 19 20  2  0
 20 21  1  0
 20 22  1  0
 22 23  2  0
 16 24  2  0
 24 25  1  0
 25 26  1  0
 26 27  2  0
 27 28  1  0
 28 29  2  0
 29 30  1  0
 30 31  1  0
 29 32  1  0
 32 33  2  0
 25 34  2  0
 34 35  1  0
 35 36  3  0
  8 37  1  0
 37 38  2  0
 38  5  1  0
 34 14  1  0
 23 17  1  0
 33 26  1  0
M  END
>  <Binding energies>  (110) 
[-10.08]

>  <Ligand effiencies>  (110) 
[-0.25846153846153846]

>  <Interactions>  (110) 
["V-A:LEU:363:CD1:3189, V-A:PRO:540:CA:4883, V-A:PRO:540:CB:4885, V-A:PRO:540:N:4884, V-A:TYR:539:C:4867, H-A:TYR:539:N:4870, V-A:ILE:369:CD1:3239, V-B:GLU:543:CG:9879, V-A:LEU:475:CD2:4259, V-B:GLU:543:CB:9878, V-A:GLU:543:CD:4908, V-A:GLY:454:CA:4049, V-A:ARG:545:CZ:4926, V-B:GLU:543:CD:9880, V-B:HIS:456:CE1:9041, V-B:GLY:544:C:9884, V-B:GLU:543:C:9874, V-A:HIS:456:CE1:4070, V-A:GLU:543:CG:4907, V-A:GLU:543:CB:4906, H-A:GLU:543:OE1:4909, V-B:TYR:484:CZ:9318, H-B:TYR:484:OH:9319, V-A:TYR:539:CE1:4875, V-A:TYR:539:CD1:4873, V-A:TYR:539:CA:4869, V-B:TYR:484:CE2:9317, V-A:ILE:538:CG2:4863, V-A:ILE:538:CB:4862"]

$$$$
RR7_Rahimova_2017
     RDKit          3D

 47 53  0  0  0  0  0  0  0  0999 V2000
  133.1260  131.5300   61.6650 C   0  0  0  0  0  0  0  0  0  0  0  0
  133.0260  131.6470   60.2490 O   0  0  0  0  0  0  0  0  0  0  0  0
  131.8160  131.3830   59.6360 C   0  0  0  0  0  0  0  0  0  0  0  0
  130.6840  131.4230   60.4480 C   0  0  0  0  0  0  0  0  0  0  0  0
  129.4220  131.1760   59.9190 C   0  0  0  0  0  0  0  0  0  0  0  0
  129.2620  130.8690   58.5590 C   0  0  0  0  0  0  0  0  0  0  0  0
  127.8550  130.6200   57.9320 C   0  0  0  0  0  0  0  0  0  0  0  0
  127.7700  129.2000   57.6740 O   0  0  0  0  0  0  0  0  0  0  0  0
  127.8750  128.7070   56.3340 C   0  0  0  0  0  0  0  0  0  0  0  0
  129.1870  127.9180   56.1930 C   0  0  1  0  0  0  0  0  0  0  0  0
  129.8220  127.9410   57.4680 O   0  0  0  0  0  0  0  0  0  0  0  0
  130.0320  126.6530   57.9710 C   0  0  1  0  0  0  0  0  0  0  0  0
  129.9230  126.6570   59.4180 N   0  0  0  0  0  0  0  0  0  0  0  0
  128.9710  127.2880   60.1990 C   0  0  0  0  0  0  0  0  0  0  0  0
  129.1350  127.1660   61.4930 N   0  0  0  0  0  0  0  0  0  0  0  0
  130.2950  126.4480   61.6080 C   0  0  0  0  0  0  0  0  0  0  0  0
  131.0180  125.9990   62.7300 C   0  0  0  0  0  0  0  0  0  0  0  0
  130.5210  126.2890   64.0140 N   0  0  0  0  0  0  0  0  0  0  0  0
  130.0070  125.4440   64.9400 C   0  0  0  0  0  0  0  0  0  0  0  0
  129.8770  124.2290   64.7750 O   0  0  0  0  0  0  0  0  0  0  0  0
  129.5500  126.0870   66.2320 C   0  0  0  0  0  0  0  0  0  0  0  0
  128.8010  127.2740   66.1890 C   0  0  0  0  0  0  0  0  0  0  0  0
  128.3660  127.8790   67.3640 C   0  0  0  0  0  0  0  0  0  0  0  0
  128.6710  127.3010   68.5920 C   0  0  0  0  0  0  0  0  0  0  0  0
  129.4080  126.1220   68.6560 C   0  0  0  0  0  0  0  0  0  0  0  0
  129.8460  125.5160   67.4810 C   0  0  0  0  0  0  0  0  0  0  0  0
  132.1790  125.3020   62.5410 N   0  0  0  0  0  0  0  0  0  0  0  0
  132.5810  125.0750   61.2630 C   0  0  0  0  0  0  0  0  0  0  0  0
  131.9620  125.4570   60.1140 N   0  0  0  0  0  0  0  0  0  0  0  0
  130.8250  126.1320   60.3300 C   0  0  0  0  0  0  0  0  0  0  0  0
  129.0180  125.7710   57.2520 C   0  0  0  0  0  0  0  0  0  0  0  0
  129.0160  126.4240   55.8810 C   0  0  2  0  0  0  0  0  0  0  0  0
  130.0500  125.9220   55.0510 O   0  0  0  0  0  0  0  0  0  0  0  0
  126.7020  130.9720   58.9080 C   0  0  0  0  0  0  0  0  0  0  0  0
  126.6240  132.2530   59.4800 C   0  0  0  0  0  0  0  0  0  0  0  0
  125.6030  132.5750   60.3680 C   0  0  0  0  0  0  0  0  0  0  0  0
  124.6470  131.6190   60.6950 C   0  0  0  0  0  0  0  0  0  0  0  0
  124.7040  130.3440   60.1400 C   0  0  0  0  0  0  0  0  0  0  0  0
  125.7270  130.0210   59.2530 C   0  0  0  0  0  0  0  0  0  0  0  0
  127.5490  131.4040   56.6240 C   0  0  0  0  0  0  0  0  0  0  0  0
  128.3980  132.4390   56.2010 C   0  0  0  0  0  0  0  0  0  0  0  0
  128.1270  133.1520   55.0370 C   0  0  0  0  0  0  0  0  0  0  0  0
  126.9960  132.8430   54.2870 C   0  0  0  0  0  0  0  0  0  0  0  0
  126.1340  131.8300   54.6940 C   0  0  0  0  0  0  0  0  0  0  0  0
  126.4060  131.1180   55.8580 C   0  0  0  0  0  0  0  0  0  0  0  0
  130.4020  130.8440   57.7430 C   0  0  0  0  0  0  0  0  0  0  0  0
  131.6660  131.0920   58.2730 C   0  0  0  0  0  0  0  0  0  0  0  0
  1  2  1  0
  2  3  1  0
  3  4  2  0
  4  5  1  0
  5  6  2  0
  6  7  1  0
  7  8  1  0
  8  9  1  0
 10  9  1  1
 10 11  1  0
 11 12  1  0
 12 13  1  1
 13 14  1  0
 14 15  2  0
 15 16  1  0
 16 17  2  0
 17 18  1  0
 18 19  1  0
 19 20  2  0
 19 21  1  0
 21 22  2  0
 22 23  1  0
 23 24  2  0
 24 25  1  0
 25 26  2  0
 17 27  1  0
 27 28  2  0
 28 29  1  0
 29 30  2  0
 12 31  1  0
 31 32  1  0
 32 33  1  6
  7 34  1  0
 34 35  2  0
 35 36  1  0
 36 37  2  0
 37 38  1  0
 38 39  2  0
  7 40  1  0
 40 41  2  0
 41 42  1  0
 42 43  2  0
 43 44  1  0
 44 45  2  0
  6 46  1  0
 46 47  2  0
 47  3  1  0
 32 10  1  0
 39 34  1  0
 45 40  1  0
 30 13  1  0
 30 16  1  0
 26 21  1  0
M  END
>  <Binding energies>  (111) 
[-9.27]

>  <Ligand effiencies>  (111) 
[-0.18918367346938775]

>  <Interactions>  (111) 
["V-A:ASP:366:CG:3213, H-A:TYR:531:OH:4795, V-A:PRO:540:CA:4883, H-B:TYR:539:OH:9850, V-A:PRO:540:CB:4885, V-B:ASP:366:CB:8183, H-B:TYR:531:OH:9767, V-B:ASP:366:CG:8184, H-A:ASN:370:ND2:3248, V-A:MET:535:CE:4835, V-B:GLU:543:CG:9879, V-B:GLU:543:CB:9878, V-A:GLU:543:CD:4908, V-B:GLU:543:CD:9880, V-B:HIS:456:CE1:9041, V-B:GLU:543:C:9874, V-A:HIS:456:CE1:4070, V-A:GLU:543:CB:4906, H-A:GLU:543:OE1:4909, H-A:GLU:543:OE2:4910, V-A:TYR:539:CE1:4875, V-A:TYR:539:CZ:4877, H-A:ARG:545:NH2:4928, V-B:GLU:543:CA:9876, V-A:TYR:539:CD1:4873, V-A:TYR:539:CD2:4874, V-A:ILE:538:CA:4860, V-A:TYR:539:CG:4872, V-A:TYR:539:CE2:4876, V-A:ASN:362:CB:3176"]

$$$$
RR8_A_Rahimova_2017
     RDKit          3D

 42 46  0  0  0  0  0  0  0  0999 V2000
  134.1170  123.5310   57.4150 O   0  0  0  0  0  0  0  0  0  0  0  0
  133.4720  124.2730   58.1640 C   0  0  0  0  0  0  0  0  0  0  0  0
  132.7590  125.3640   57.7440 O   0  0  0  0  0  0  0  0  0  0  0  0
  131.6910  125.7870   58.5460 C   0  0  1  0  0  0  0  0  0  0  0  0
  132.1050  126.7070   59.5140 O   0  0  0  0  0  0  0  0  0  0  0  0
  131.1390  127.7350   59.7150 C   0  0  2  0  0  0  0  0  0  0  0  0
  130.7650  127.7710   61.2070 C   0  0  0  0  0  0  0  0  0  0  0  0
  130.7720  126.4430   61.7140 O   0  0  0  0  0  0  0  0  0  0  0  0
  129.5050  125.9970   62.1800 C   0  0  0  0  0  0  0  0  0  0  0  0
  129.2120  124.6100   61.6290 C   0  0  0  0  0  0  0  0  0  0  0  0
  129.0890  124.4200   60.2500 C   0  0  0  0  0  0  0  0  0  0  0  0
  128.8270  123.1490   59.7420 C   0  0  0  0  0  0  0  0  0  0  0  0
  128.6920  122.0710   60.6140 C   0  0  0  0  0  0  0  0  0  0  0  0
  128.8180  122.2510   61.9900 C   0  0  0  0  0  0  0  0  0  0  0  0
  129.0820  123.5210   62.4980 C   0  0  0  0  0  0  0  0  0  0  0  0
  129.9990  127.3580   58.7590 C   0  0  1  0  0  0  0  0  0  0  0  0
  129.4020  128.4870   58.1250 O   0  0  0  0  0  0  0  0  0  0  0  0
  129.5410  129.7250   58.8130 C   0  0  0  0  0  0  0  0  0  0  0  0
  130.2400  130.7400   57.9190 C   0  0  0  0  0  0  0  0  0  0  0  0
  129.5860  131.9280   57.5750 C   0  0  0  0  0  0  0  0  0  0  0  0
  130.2160  132.8560   56.7510 C   0  0  0  0  0  0  0  0  0  0  0  0
  131.4970  132.5950   56.2690 C   0  0  0  0  0  0  0  0  0  0  0  0
  132.1530  131.4120   56.6010 C   0  0  0  0  0  0  0  0  0  0  0  0
  131.5230  130.4820   57.4240 C   0  0  0  0  0  0  0  0  0  0  0  0
  130.7010  126.5540   57.6800 C   0  0  2  0  0  0  0  0  0  0  0  0
  129.7720  125.7180   56.9940 O   0  0  0  0  0  0  0  0  0  0  0  0
  128.3990  126.0520   57.1630 C   0  0  0  0  0  0  0  0  0  0  0  0
  127.5450  124.7960   57.0700 C   0  0  0  0  0  0  0  0  0  0  0  0
  126.2740  124.7650   57.6530 C   0  0  0  0  0  0  0  0  0  0  0  0
  125.4920  123.6170   57.5570 C   0  0  0  0  0  0  0  0  0  0  0  0
  125.9800  122.5040   56.8740 C   0  0  0  0  0  0  0  0  0  0  0  0
  127.2430  122.5300   56.2860 C   0  0  0  0  0  0  0  0  0  0  0  0
  128.0260  123.6780   56.3820 C   0  0  0  0  0  0  0  0  0  0  0  0
  133.3820  124.0580   59.6470 C   0  0  0  0  0  0  0  0  0  0  0  0
  132.3450  123.3100   60.2260 C   0  0  0  0  0  0  0  0  0  0  0  0
  132.2890  123.1300   61.6060 C   0  0  0  0  0  0  0  0  0  0  0  0
  133.2630  123.6920   62.4400 C   0  0  0  0  0  0  0  0  0  0  0  0
  133.2030  123.4970   63.9090 N   0  0  0  0  0  0  0  0  0  0  0  0
  133.6400  124.3820   64.6390 O   0  0  0  0  0  0  0  0  0  0  0  0
  132.7160  122.4580   64.3450 O   0  0  0  0  0  0  0  0  0  0  0  0
  134.2960  124.4400   61.8610 C   0  0  0  0  0  0  0  0  0  0  0  0
  134.3540  124.6220   60.4830 C   0  0  0  0  0  0  0  0  0  0  0  0
  1  2  2  0
  2  3  1  0
  4  3  1  6
  4  5  1  0
  5  6  1  0
  6  7  1  1
  7  8  1  0
  8  9  1  0
  9 10  1  0
 10 11  2  0
 11 12  1  0
 12 13  2  0
 13 14  1  0
 14 15  2  0
  6 16  1  0
 16 17  1  6
 17 18  1  0
 18 19  1  0
 19 20  2  0
 20 21  1  0
 21 22  2  0
 22 23  1  0
 23 24  2  0
 16 25  1  0
 25 26  1  1
 26 27  1  0
 27 28  1  0
 28 29  2  0
 29 30  1  0
 30 31  2  0
 31 32  1  0
 32 33  2  0
  2 34  1  0
 34 35  2  0
 35 36  1  0
 36 37  2  0
 37 38  1  0
 38 39  2  0
 38 40  1  0
 37 41  1  0
 41 42  2  0
 25  4  1  0
 33 28  1  0
 42 34  1  0
 15 10  1  0
 24 19  1  0
M  CHG  2  38   1  40  -1
M  END
>  <Binding energies>  (112) 
[-9.25]

>  <Ligand effiencies>  (112) 
[-0.22023809523809523]

>  <Interactions>  (112) 
["V-A:LEU:363:CD1:3189, V-A:ASP:366:CG:3213, H-A:TYR:531:OH:4795, H-B:TYR:539:OH:9850, V-A:ASP:366:CB:3212, V-B:TYR:539:CZ:9849, V-B:PRO:540:N:9856, V-B:TYR:539:CE1:9847, V-B:PRO:540:CB:9857, V-B:TYR:539:CD1:9845, V-B:PRO:540:CA:9855, V-B:TYR:539:CE2:9848, V-B:PRO:540:CD:9859, V-B:LEU:363:CD1:8160, V-B:TYR:539:C:9839, V-B:TYR:539:CG:9844, V-B:PRO:540:C:9853, V-B:TYR:539:CD2:9846, V-B:ALA:541:CB:9864, V-A:ASP:366:C:3208, V-A:ASP:366:CA:3210, V-A:ILE:369:CD1:3239, H-A:ASN:370:N:3244, V-A:ILE:369:CB:3236, V-A:ILE:369:CG2:3237, H-A:TYR:484:OH:4348, V-A:GLY:454:CA:4049, V-A:TYR:531:CZ:4794, H-A:GLY:454:N:4050, V-A:ILE:538:CA:4860, V-A:TYR:531:CE2:4793, V-A:ILE:538:CG2:4863, V-A:ILE:538:CB:4862"]

$$$$
RR8_B_Rahimova_2017
     RDKit          3D

 42 46  0  0  0  0  0  0  0  0999 V2000
  125.3540  128.3420   58.5580 O   0  0  0  0  0  0  0  0  0  0  0  0
  126.3050  127.5660   58.6970 C   0  0  0  0  0  0  0  0  0  0  0  0
  127.4330  127.8470   59.4180 O   0  0  0  0  0  0  0  0  0  0  0  0
  127.3500  127.8100   60.8210 C   0  0  2  0  0  0  0  0  0  0  0  0
  128.2710  128.6770   61.4210 O   0  0  0  0  0  0  0  0  0  0  0  0
  129.5030  128.0160   61.7040 C   0  0  2  0  0  0  0  0  0  0  0  0
  130.6540  128.7440   60.9870 C   0  0  0  0  0  0  0  0  0  0  0  0
  130.1120  129.7080   60.0930 O   0  0  0  0  0  0  0  0  0  0  0  0
  130.6960  131.0000   60.1800 C   0  0  0  0  0  0  0  0  0  0  0  0
  130.6420  131.6660   58.8140 C   0  0  0  0  0  0  0  0  0  0  0  0
  129.4600  132.2800   58.3870 C   0  0  0  0  0  0  0  0  0  0  0  0
  129.3970  132.8710   57.1280 C   0  0  0  0  0  0  0  0  0  0  0  0
  130.5170  132.8480   56.2990 C   0  0  0  0  0  0  0  0  0  0  0  0
  131.7000  132.2450   56.7200 C   0  0  0  0  0  0  0  0  0  0  0  0
  131.7630  131.6500   57.9780 C   0  0  0  0  0  0  0  0  0  0  0  0
  129.2650  126.5660   61.2650 C   0  0  1  0  0  0  0  0  0  0  0  0
  129.9520  125.6730   62.1470 O   0  0  0  0  0  0  0  0  0  0  0  0
  131.3730  125.8030   62.2260 C   0  0  0  0  0  0  0  0  0  0  0  0
  132.0800  125.1610   61.0360 C   0  0  0  0  0  0  0  0  0  0  0  0
  131.8880  125.6720   59.7490 C   0  0  0  0  0  0  0  0  0  0  0  0
  132.5590  125.1050   58.6690 C   0  0  0  0  0  0  0  0  0  0  0  0
  133.4160  124.0260   58.8780 C   0  0  0  0  0  0  0  0  0  0  0  0
  133.6080  123.5090   60.1580 C   0  0  0  0  0  0  0  0  0  0  0  0
  132.9390  124.0780   61.2390 C   0  0  0  0  0  0  0  0  0  0  0  0
  127.7490  126.4210   61.3180 C   0  0  2  0  0  0  0  0  0  0  0  0
  127.3210  125.3610   60.4660 O   0  0  0  0  0  0  0  0  0  0  0  0
  126.8160  124.2100   61.1250 C   0  0  0  0  0  0  0  0  0  0  0  0
  127.9600  123.2270   61.3090 C   0  0  0  0  0  0  0  0  0  0  0  0
  128.5090  122.5690   60.2050 C   0  0  0  0  0  0  0  0  0  0  0  0
  129.5440  121.6560   60.3880 C   0  0  0  0  0  0  0  0  0  0  0  0
  130.0250  121.4040   61.6710 C   0  0  0  0  0  0  0  0  0  0  0  0
  129.4830  122.0580   62.7750 C   0  0  0  0  0  0  0  0  0  0  0  0
  128.4490  122.9710   62.5940 C   0  0  0  0  0  0  0  0  0  0  0  0
  126.3600  126.2110   58.0520 C   0  0  0  0  0  0  0  0  0  0  0  0
  127.5280  125.7290   57.4440 C   0  0  0  0  0  0  0  0  0  0  0  0
  127.5470  124.4730   56.8480 C   0  0  0  0  0  0  0  0  0  0  0  0
  126.3990  123.6720   56.8330 C   0  0  0  0  0  0  0  0  0  0  0  0
  126.4140  122.3440   56.1720 N   0  0  0  0  0  0  0  0  0  0  0  0
  127.4330  121.9900   55.5840 O   0  0  0  0  0  0  0  0  0  0  0  0
  125.4090  121.6410   56.2410 O   0  0  0  0  0  0  0  0  0  0  0  0
  125.2340  124.1520   57.4460 C   0  0  0  0  0  0  0  0  0  0  0  0
  125.2160  125.4050   58.0500 C   0  0  0  0  0  0  0  0  0  0  0  0
  1  2  2  0
  2  3  1  0
  4  3  1  6
  4  5  1  0
  5  6  1  0
  6  7  1  6
  7  8  1  0
  8  9  1  0
  9 10  1  0
 10 11  2  0
 11 12  1  0
 12 13  2  0
 13 14  1  0
 14 15  2  0
  6 16  1  0
 16 17  1  1
 17 18  1  0
 18 19  1  0
 19 20  2  0
 20 21  1  0
 21 22  2  0
 22 23  1  0
 23 24  2  0
 16 25  1  0
 25 26  1  6
 26 27  1  0
 27 28  1  0
 28 29  2  0
 29 30  1  0
 30 31  2  0
 31 32  1  0
 32 33  2  0
  2 34  1  0
 34 35  2  0
 35 36  1  0
 36 37  2  0
 37 38  1  0
 38 39  2  0
 38 40  1  0
 37 41  1  0
 41 42  2  0
 25  4  1  0
 33 28  1  0
 42 34  1  0
 15 10  1  0
 24 19  1  0
M  CHG  2  38   1  40  -1
M  END
>  <Binding energies>  (113) 
[-9.23]

>  <Ligand effiencies>  (113) 
[-0.21976190476190477]

>  <Interactions>  (113) 
["V-A:LEU:363:CD1:3189, V-A:ASP:366:CG:3213, V-A:PRO:540:CA:4883, V-A:PRO:540:CB:4885, V-A:ASP:366:CB:3212, V-B:TYR:539:CZ:9849, V-B:PRO:540:N:9856, V-B:PRO:540:CA:9855, V-B:TYR:539:CE2:9848, H-B:TYR:539:N:9842, V-B:ASP:366:CB:8183, H-B:TYR:531:OH:9767, V-B:PRO:540:CD:9859, V-B:ASP:366:CG:8184, V-B:MET:535:CE:9807, V-B:LEU:363:CD1:8160, V-B:TYR:539:C:9839, V-B:TYR:539:CD2:9846, V-B:TYR:531:CE2:9765, V-B:ALA:541:CB:9864, V-A:ASP:366:CA:3210, V-A:ILE:369:CD1:3239, V-B:GLU:543:CG:9879, V-A:ILE:369:CB:3236, V-A:ILE:369:CG2:3237, V-A:LEU:475:CD2:4259, V-B:ILE:538:CG2:9835, V-A:ILE:538:CA:4860, V-A:ILE:538:CG2:4863, V-A:ILE:538:CB:4862, V-B:ILE:538:CA:9832"]

$$$$
RR9_Rahimova_2017
     RDKit          3D

 36 40  0  0  0  0  0  0  0  0999 V2000
  129.8820  127.5800   73.1230 C   0  0  0  0  0  0  0  0  0  0  0  0
  129.5770  128.8310   72.2930 C   0  0  0  0  0  0  0  0  0  0  0  0
  128.6570  128.4820   71.2620 O   0  0  0  0  0  0  0  0  0  0  0  0
  129.0990  127.7470   70.1790 C   0  0  0  0  0  0  0  0  0  0  0  0
  130.4130  127.9660   69.7710 C   0  0  0  0  0  0  0  0  0  0  0  0
  130.9450  127.2720   68.6890 C   0  0  0  0  0  0  0  0  0  0  0  0
  130.1740  126.3370   67.9810 C   0  0  0  0  0  0  0  0  0  0  0  0
  130.7400  125.5900   66.8110 C   0  0  0  0  0  0  0  0  0  0  0  0
  129.9570  124.7020   66.0560 C   0  0  0  0  0  0  0  0  0  0  0  0
  130.4880  124.0140   64.9510 C   0  0  0  0  0  0  0  0  0  0  0  0
  129.5720  123.1560   64.1210 C   0  0  0  0  0  0  0  0  0  0  0  0
  129.6020  121.9300   64.2270 O   0  0  0  0  0  0  0  0  0  0  0  0
  128.7650  123.8160   63.2670 N   0  0  0  0  0  0  0  0  0  0  0  0
  127.8840  123.2020   62.2690 C   0  0  0  0  0  0  0  0  0  0  0  0
  128.5050  123.1670   60.8530 C   0  0  0  0  0  0  0  0  0  0  0  0
  127.4980  123.2670   59.7130 C   0  0  0  0  0  0  0  0  0  0  0  0
  127.8050  122.7350   58.4560 C   0  0  0  0  0  0  0  0  0  0  0  0
  126.8690  122.7970   57.4270 C   0  0  0  0  0  0  0  0  0  0  0  0
  125.6320  123.3940   57.6560 C   0  0  0  0  0  0  0  0  0  0  0  0
  125.3200  123.9310   58.9040 C   0  0  0  0  0  0  0  0  0  0  0  0
  126.2560  123.8680   59.9340 C   0  0  0  0  0  0  0  0  0  0  0  0
  131.8580  124.2420   64.6700 C   0  0  0  0  0  0  0  0  0  0  0  0
  132.8640  123.7960   63.7350 C   0  0  0  0  0  0  0  0  0  0  0  0
  132.7740  122.7550   62.6680 C   0  0  0  0  0  0  0  0  0  0  0  0
  131.5950  122.6040   61.9320 C   0  0  0  0  0  0  0  0  0  0  0  0
  131.5070  121.6220   60.9480 C   0  0  0  0  0  0  0  0  0  0  0  0
  132.5990  120.7910   60.6940 C   0  0  0  0  0  0  0  0  0  0  0  0
  132.4970  119.7080   59.6350 C   0  0  0  0  0  0  0  0  0  0  0  0
  133.7770  120.9380   61.4280 C   0  0  0  0  0  0  0  0  0  0  0  0
  133.8640  121.9210   62.4090 C   0  0  0  0  0  0  0  0  0  0  0  0
  133.9960  124.4320   63.9370 N   0  0  0  0  0  0  0  0  0  0  0  0
  133.8310  125.2440   64.9940 N   0  0  0  0  0  0  0  0  0  0  0  0
  132.5510  125.1620   65.4910 C   0  0  0  0  0  0  0  0  0  0  0  0
  132.0520  125.8260   66.5330 N   0  0  0  0  0  0  0  0  0  0  0  0
  128.8520  126.1240   68.3970 C   0  0  0  0  0  0  0  0  0  0  0  0
  128.3180  126.8160   69.4810 C   0  0  0  0  0  0  0  0  0  0  0  0
  1  2  1  0
  2  3  1  0
  3  4  1  0
  4  5  2  0
  5  6  1  0
  6  7  2  0
  7  8  1  0
  8  9  2  0
  9 10  1  0
 10 11  1  0
 11 12  2  0
 11 13  1  0
 13 14  1  0
 14 15  1  0
 15 16  1  0
 16 17  2  0
 17 18  1  0
 18 19  2  0
 19 20  1  0
 20 21  2  0
 10 22  2  0
 22 23  1  0
 23 24  1  0
 24 25  2  0
 25 26  1  0
 26 27  2  0
 27 28  1  0
 27 29  1  0
 29 30  2  0
 23 31  2  0
 31 32  1  0
 32 33  1  0
 33 34  2  0
  7 35  1  0
 35 36  2  0
 36  4  1  0
 34  8  1  0
 21 16  1  0
 33 22  1  0
 30 24  1  0
M  END
>  <Binding energies>  (114) 
[-9.07]

>  <Ligand effiencies>  (114) 
[-0.2386842105263158]

>  <Interactions>  (114) 
["V-B:PRO:540:N:9856, V-B:PRO:540:CB:9857, V-B:PRO:540:CA:9855, V-B:TYR:539:CE2:9848, V-B:PRO:540:CD:9859, V-B:TYR:539:C:9839, V-B:TYR:539:CG:9844, H-B:GLU:543:OE1:9881, V-B:TYR:539:CD2:9846, V-B:ALA:541:CB:9864, V-A:ILE:369:CD1:3239, V-B:GLU:543:CG:9879, V-A:ILE:369:CG2:3237, V-A:LEU:475:CD2:4259, V-A:GLY:453:CA:4044, V-B:GLU:543:CB:9878, H-A:TYR:484:OH:4348, V-A:TYR:484:CE2:4346, H-A:ARG:545:NE:4924, V-A:GLY:454:CA:4049, V-A:ARG:545:CZ:4926, V-B:GLU:543:CD:9880, V-B:HIS:456:CE1:9041, V-B:GLU:543:C:9874, V-B:HIS:456:CD2:9039, V-A:HIS:456:CE1:4070, V-A:GLU:543:C:4902, V-A:GLU:543:CB:4906, V-A:ARG:545:CG:4922, H-A:ARG:545:NH2:4928, V-B:GLU:543:CA:9876, H-A:GLY:454:N:4050, V-A:ARG:545:CD:4923, V-A:SER:385:CA:3407, V-A:SER:385:CB:3409, V-A:SER:385:C:3405"]

$$$$
