1a_Ghoteimi_2023
     RDKit          3D

 67 70  0  0  0  0  0  0  0  0999 V2000
  131.3070  131.4470   56.2000 C   0  0  0  0  0  0  0  0  0  0  0  0
  131.7570  132.9050   56.3390 C   0  0  0  0  0  0  0  0  0  0  0  0
  130.9960  133.5370   57.3620 O   0  0  0  0  0  0  0  0  0  0  0  0
  129.6940  133.2120   57.5700 C   0  0  0  0  0  0  0  0  0  0  0  0
  128.8180  133.3270   56.7080 O   0  0  0  0  0  0  0  0  0  0  0  0
  129.4270  132.6940   58.9540 C   0  0  0  0  0  0  0  0  0  0  0  0
  128.1700  132.8200   59.5640 C   0  0  0  0  0  0  0  0  0  0  0  0
  127.9530  132.3330   60.8500 C   0  0  0  0  0  0  0  0  0  0  0  0
  128.9930  131.7030   61.5500 C   0  0  0  0  0  0  0  0  0  0  0  0
  128.8860  131.1790   62.8520 N   0  0  0  0  0  0  0  0  0  0  0  0
  128.2730  131.6880   63.9430 C   0  0  0  0  0  0  0  0  0  0  0  0
  127.6530  132.7510   63.9850 O   0  0  0  0  0  0  0  0  0  0  0  0
  128.3740  130.8390   65.2100 C   0  0  0  0  0  0  0  0  0  0  0  0
  127.3900  129.3180   65.0810 S   0  0  0  0  0  0  0  0  0  0  0  0
  128.3600  128.0340   65.8390 C   0  0  0  0  0  0  0  0  0  0  0  0
  128.3080  128.0340   67.1920 N   0  0  0  0  0  0  0  0  0  0  0  0
  129.0020  127.0990   67.8940 C   0  0  0  0  0  0  0  0  0  0  0  0
  128.8780  127.1510   69.3890 C   0  0  0  0  0  0  0  0  0  0  0  0
  127.6600  126.8710   70.0300 C   0  0  0  0  0  0  0  0  0  0  0  0
  127.5480  126.9200   71.4160 C   0  0  0  0  0  0  0  0  0  0  0  0
  128.6460  127.2510   72.2060 C   0  0  0  0  0  0  0  0  0  0  0  0
  128.4440  127.2720   73.5720 O   0  0  0  0  0  0  0  0  0  0  0  0
  127.8050  128.3990   74.1620 C   0  0  0  0  0  0  0  0  0  0  0  0
  129.8680  127.5370   71.5810 C   0  0  0  0  0  0  0  0  0  0  0  0
  129.9770  127.4880   70.1940 C   0  0  0  0  0  0  0  0  0  0  0  0
  129.7730  126.1370   67.2290 C   0  0  0  0  0  0  0  0  0  0  0  0
  129.8610  126.1330   65.8310 C   0  0  0  0  0  0  0  0  0  0  0  0
  130.7270  125.0970   65.1920 C   0  0  0  0  0  0  0  0  0  0  0  0
  130.2010  123.8580   64.8090 C   0  0  0  0  0  0  0  0  0  0  0  0
  131.0110  122.9040   64.2010 C   0  0  0  0  0  0  0  0  0  0  0  0
  132.3580  123.1690   63.9560 C   0  0  0  0  0  0  0  0  0  0  0  0
  133.0830  122.1630   63.3480 O   0  0  0  0  0  0  0  0  0  0  0  0
  133.8390  122.4610   62.1790 C   0  0  0  0  0  0  0  0  0  0  0  0
  132.8880  124.4130   64.3310 C   0  0  0  0  0  0  0  0  0  0  0  0
  132.0760  125.3660   64.9410 C   0  0  0  0  0  0  0  0  0  0  0  0
  129.1320  127.1070   65.1070 C   0  0  0  0  0  0  0  0  0  0  0  0
  129.1730  127.1440   63.6410 C   0  0  0  0  0  0  0  0  0  0  0  0
  129.2050  127.1720   62.4850 N   0  0  0  0  0  0  0  0  0  0  0  0
  130.2450  131.5790   60.9480 C   0  0  0  0  0  0  0  0  0  0  0  0
  130.4610  132.0670   59.6610 C   0  0  0  0  0  0  0  0  0  0  0  0
  131.1716  131.0082   57.1996 H   0  0  0  0  0  0  0  0  0  0  0  0
  130.3550  131.4079   55.6503 H   0  0  0  0  0  0  0  0  0  0  0  0
  132.0714  130.8782   55.6503 H   0  0  0  0  0  0  0  0  0  0  0  0
  132.8245  132.9365   56.6026 H   0  0  0  0  0  0  0  0  0  0  0  0
  131.6010  133.4311   55.3856 H   0  0  0  0  0  0  0  0  0  0  0  0
  127.3476  133.3085   59.0208 H   0  0  0  0  0  0  0  0  0  0  0  0
  126.9638  132.4424   61.3185 H   0  0  0  0  0  0  0  0  0  0  0  0
  129.3100  130.2700   62.9660 H   0  0  0  0  0  0  0  0  0  0  0  0
  129.4275  130.5689   65.3749 H   0  0  0  0  0  0  0  0  0  0  0  0
  127.9819  131.4303   66.0506 H   0  0  0  0  0  0  0  0  0  0  0  0
  126.7792  126.6084   69.4257 H   0  0  0  0  0  0  0  0  0  0  0  0
  126.5824  126.6950   71.8925 H   0  0  0  0  0  0  0  0  0  0  0  0
  127.8524  128.3154   75.2578 H   0  0  0  0  0  0  0  0  0  0  0  0
  128.3157  129.3192   73.8421 H   0  0  0  0  0  0  0  0  0  0  0  0
  126.7531  128.4332   73.8421 H   0  0  0  0  0  0  0  0  0  0  0  0
  130.7452  127.8015   72.1898 H   0  0  0  0  0  0  0  0  0  0  0  0
  130.9427  127.7178   69.7201 H   0  0  0  0  0  0  0  0  0  0  0  0
  130.3150  125.3768   67.8107 H   0  0  0  0  0  0  0  0  0  0  0  0
  129.1388  123.6366   64.9901 H   0  0  0  0  0  0  0  0  0  0  0  0
  130.5851  121.9321   63.9110 H   0  0  0  0  0  0  0  0  0  0  0  0
  134.8259  122.8500   62.4699 H   0  0  0  0  0  0  0  0  0  0  0  0
  133.9670  121.5460   61.5820 H   0  0  0  0  0  0  0  0  0  0  0  0
  133.3082  123.2172   61.5820 H   0  0  0  0  0  0  0  0  0  0  0  0
  133.9485  124.6362   64.1425 H   0  0  0  0  0  0  0  0  0  0  0  0
  132.4999  126.3396   65.2281 H   0  0  0  0  0  0  0  0  0  0  0  0
  131.0674  131.0926   61.4930 H   0  0  0  0  0  0  0  0  0  0  0  0
  131.4521  131.9590   59.1961 H   0  0  0  0  0  0  0  0  0  0  0  0
  1  2  1  0
  2  3  1  0
  3  4  1  0
  4  5  2  0
  4  6  1  0
  6  7  2  0
  7  8  1  0
  8  9  2  0
  9 10  1  0
 10 11  1  0
 11 12  2  0
 11 13  1  0
 13 14  1  0
 14 15  1  0
 15 16  2  0
 16 17  1  0
 17 18  1  0
 18 19  2  0
 19 20  1  0
 20 21  2  0
 21 22  1  0
 22 23  1  0
 21 24  1  0
 24 25  2  0
 17 26  2  0
 26 27  1  0
 27 28  1  0
 28 29  2  0
 29 30  1  0
 30 31  2  0
 31 32  1  0
 32 33  1  0
 31 34  1  0
 34 35  2  0
 27 36  2  0
 36 37  1  0
 37 38  3  0
  9 39  1  0
 39 40  2  0
 40  6  1  0
 36 15  1  0
 25 18  1  0
 35 28  1  0
  1 41  1  0
  1 42  1  0
  1 43  1  0
  2 44  1  0
  2 45  1  0
  7 46  1  0
  8 47  1  0
 10 48  1  0
 13 49  1  0
 13 50  1  0
 19 51  1  0
 20 52  1  0
 23 53  1  0
 23 54  1  0
 23 55  1  0
 24 56  1  0
 25 57  1  0
 26 58  1  0
 29 59  1  0
 30 60  1  0
 33 61  1  0
 33 62  1  0
 33 63  1  0
 34 64  1  0
 35 65  1  0
 39 66  1  0
 40 67  1  0
M  END
>  <Binding energies>  (1) 
[-10.39]

>  <Ligand effiencies>  (1) 
[-0.25341463414634147]

>  <Interactions>  (1) 
["V-A:LEU:363:CD1:3189, V-A:PRO:540:CA:4883, V-A:PRO:540:CB:4885, V-A:PRO:540:CD:4887, V-A:PRO:540:N:4884, V-A:TYR:539:C:4867, H-A:TYR:539:N:4870, V-A:MET:535:CE:4835, V-A:ILE:369:CD1:3239, V-B:GLU:543:CG:9879, V-A:LEU:475:CD2:4259, V-B:GLU:543:CB:9878, V-A:GLU:543:CD:4908, V-A:TYR:484:CE2:4346, V-A:GLY:454:CA:4049, V-A:ARG:545:CZ:4926, V-B:GLU:543:CD:9880, V-B:HIS:456:CE1:9041, V-B:GLY:544:C:9884, V-B:GLU:543:C:9874, V-B:HIS:456:CD2:9039, V-A:HIS:456:CE1:4070, V-A:GLU:543:CG:4907, V-A:GLU:543:CB:4906, V-A:TYR:531:CZ:4794, V-B:GLY:544:CA:9886, H-B:LYS:547:NZ:9923, H-A:GLU:543:OE1:4909, V-B:TYR:484:CZ:9318, H-B:TYR:484:OH:9319, V-A:TYR:539:CE1:4875, H-A:GLY:454:N:4050, V-A:TYR:539:CD1:4873, V-A:ILE:538:CA:4860, V-A:TYR:539:CA:4869, V-A:TYR:531:CE2:4793, V-B:TYR:484:CE2:9317, V-A:ILE:538:CG2:4863, V-A:ILE:538:CB:4862"]

$$$$
1a_Grossjean_2025
     RDKit          3D

 45 46  0  0  0  0  0  0  0  0999 V2000
  133.8040  124.1390   62.7290 C   0  0  0  0  0  0  0  0  0  0  0  0
  134.3650  122.9980   61.8760 C   0  0  0  0  0  0  0  0  0  0  0  0
  133.5670  121.8350   62.0570 O   0  0  0  0  0  0  0  0  0  0  0  0
  132.8720  121.2940   61.0220 C   0  0  0  0  0  0  0  0  0  0  0  0
  133.3510  120.4670   60.2400 O   0  0  0  0  0  0  0  0  0  0  0  0
  131.4680  121.8150   60.9140 C   0  0  0  0  0  0  0  0  0  0  0  0
  131.2610  123.1510   60.5460 C   0  0  0  0  0  0  0  0  0  0  0  0
  129.9720  123.6650   60.4410 C   0  0  0  0  0  0  0  0  0  0  0  0
  128.8650  122.8580   60.7030 C   0  0  0  0  0  0  0  0  0  0  0  0
  127.6090  123.4820   60.5700 N   0  0  0  0  0  0  0  0  0  0  0  0
  126.5180  123.4150   61.3620 C   0  0  0  0  0  0  0  0  0  0  0  0
  126.4260  122.7590   62.4000 O   0  0  0  0  0  0  0  0  0  0  0  0
  125.3160  124.2380   60.8920 C   0  0  0  0  0  0  0  0  0  0  0  0
  124.9860  124.0190   59.1180 S   0  0  0  0  0  0  0  0  0  0  0  0
  126.3560  124.7250   58.2290 C   0  0  0  0  0  0  0  0  0  0  0  0
  126.8070  125.8910   58.7560 N   0  0  0  0  0  0  0  0  0  0  0  0
  127.8460  126.5180   58.1540 C   0  0  0  0  0  0  0  0  0  0  0  0
  128.2870  127.8230   58.7900 C   0  0  0  0  0  0  0  0  0  0  0  0
  128.4770  126.0090   57.0210 C   0  0  0  0  0  0  0  0  0  0  0  0
  128.0330  124.7970   56.4830 C   0  0  0  0  0  0  0  0  0  0  0  0
  128.7500  124.2500   55.2500 C   0  0  0  0  0  0  0  0  0  0  0  0
  126.9520  124.1220   57.0960 C   0  0  0  0  0  0  0  0  0  0  0  0
  126.5020  122.8270   56.5790 C   0  0  0  0  0  0  0  0  0  0  0  0
  126.1480  121.8050   56.1690 N   0  0  0  0  0  0  0  0  0  0  0  0
  129.0620  121.5160   61.0650 C   0  0  0  0  0  0  0  0  0  0  0  0
  130.3520  121.0040   61.1690 C   0  0  0  0  0  0  0  0  0  0  0  0
  133.9246  123.8937   63.7945 H   0  0  0  0  0  0  0  0  0  0  0  0
  134.3482  125.0678   62.5027 H   0  0  0  0  0  0  0  0  0  0  0  0
  132.7362  124.2752   62.5027 H   0  0  0  0  0  0  0  0  0  0  0  0
  134.3507  123.2913   60.8159 H   0  0  0  0  0  0  0  0  0  0  0  0
  135.3995  122.7846   62.1832 H   0  0  0  0  0  0  0  0  0  0  0  0
  132.1250  123.7993   60.3382 H   0  0  0  0  0  0  0  0  0  0  0  0
  129.8251  124.7154   60.1492 H   0  0  0  0  0  0  0  0  0  0  0  0
  127.5390  124.0930   59.7700 H   0  0  0  0  0  0  0  0  0  0  0  0
  124.4276  123.9233   61.4592 H   0  0  0  0  0  0  0  0  0  0  0  0
  125.5454  125.2999   61.0644 H   0  0  0  0  0  0  0  0  0  0  0  0
  128.2544  127.7265   59.8853 H   0  0  0  0  0  0  0  0  0  0  0  0
  129.3140  128.0568   58.4729 H   0  0  0  0  0  0  0  0  0  0  0  0
  127.6123  128.6318   58.4729 H   0  0  0  0  0  0  0  0  0  0  0  0
  129.3126  126.5528   56.5562 H   0  0  0  0  0  0  0  0  0  0  0  0
  129.5876  123.6110   55.5663 H   0  0  0  0  0  0  0  0  0  0  0  0
  128.0446  123.6585   54.6479 H   0  0  0  0  0  0  0  0  0  0  0  0
  129.1341  125.0866   54.6479 H   0  0  0  0  0  0  0  0  0  0  0  0
  128.1959  120.8685   61.2667 H   0  0  0  0  0  0  0  0  0  0  0  0
  130.4982  119.9517   61.4543 H   0  0  0  0  0  0  0  0  0  0  0  0
  1  2  1  0
  2  3  1  0
  3  4  1  0
  4  5  2  0
  4  6  1  0
  6  7  2  0
  7  8  1  0
  8  9  2  0
  9 10  1  0
 10 11  1  0
 11 12  2  0
 11 13  1  0
 13 14  1  0
 14 15  1  0
 15 16  2  0
 16 17  1  0
 17 18  1  0
 17 19  2  0
 19 20  1  0
 20 21  1  0
 20 22  2  0
 22 23  1  0
 23 24  3  0
  9 25  1  0
 25 26  2  0
 26  6  1  0
 22 15  1  0
  1 27  1  0
  1 28  1  0
  1 29  1  0
  2 30  1  0
  2 31  1  0
  7 32  1  0
  8 33  1  0
 10 34  1  0
 13 35  1  0
 13 36  1  0
 18 37  1  0
 18 38  1  0
 18 39  1  0
 19 40  1  0
 21 41  1  0
 21 42  1  0
 21 43  1  0
 25 44  1  0
 26 45  1  0
M  END
>  <Binding energies>  (1) 
[-7.22]

>  <Ligand effiencies>  (1) 
[-0.26740740740740737]

>  <Interactions>  (1) 
["V-B:TYR:539:CZ:9849, V-B:PRO:540:N:9856, V-B:TYR:539:CE1:9847, V-B:PRO:540:CB:9857, V-B:TYR:539:CD1:9845, V-B:PRO:540:CA:9855, V-B:TYR:539:CE2:9848, H-B:TYR:539:N:9842, V-B:MET:535:CE:9807, V-B:TYR:539:C:9839, V-B:PRO:540:C:9853, H-B:ALA:541:N:9863, V-B:TYR:539:CD2:9846, V-B:ALA:541:CB:9864, V-A:ILE:369:CD1:3239, V-A:ILE:369:CG2:3237, V-A:LEU:475:CD2:4259, V-A:GLY:454:CA:4049, H-A:SER:385:OG:3410"]

$$$$
1aa_Ghoteimi_2023
     RDKit          3D

 67 70  0  0  0  0  0  0  0  0999 V2000
  127.8740  132.3440   56.4330 C   0  0  0  0  0  0  0  0  0  0  0  0
  129.1590  133.0140   55.9380 C   0  0  0  0  0  0  0  0  0  0  0  0
  129.8690  133.5520   57.0470 O   0  0  0  0  0  0  0  0  0  0  0  0
  130.8960  132.8730   57.6180 C   0  0  0  0  0  0  0  0  0  0  0  0
  131.9870  132.6990   57.0660 O   0  0  0  0  0  0  0  0  0  0  0  0
  130.5750  132.3540   58.9900 C   0  0  0  0  0  0  0  0  0  0  0  0
  131.3360  131.3440   59.5980 C   0  0  0  0  0  0  0  0  0  0  0  0
  131.0140  130.8810   60.8720 C   0  0  0  0  0  0  0  0  0  0  0  0
  129.9220  131.4260   61.5640 C   0  0  0  0  0  0  0  0  0  0  0  0
  129.5040  131.0390   62.8500 N   0  0  0  0  0  0  0  0  0  0  0  0
  128.2630  130.8070   63.3360 C   0  0  0  0  0  0  0  0  0  0  0  0
  127.2240  130.8970   62.6820 O   0  0  0  0  0  0  0  0  0  0  0  0
  128.1500  130.3980   64.8130 C   0  0  0  0  0  0  0  0  0  0  0  0
  127.6390  129.0630   64.9260 O   0  0  0  0  0  0  0  0  0  0  0  0
  128.3640  128.0900   65.6000 C   0  0  0  0  0  0  0  0  0  0  0  0
  128.2960  128.0670   66.9600 N   0  0  0  0  0  0  0  0  0  0  0  0
  129.0020  127.1380   67.6570 C   0  0  0  0  0  0  0  0  0  0  0  0
  128.8720  127.1790   69.1520 C   0  0  0  0  0  0  0  0  0  0  0  0
  127.6620  126.8520   69.7810 C   0  0  0  0  0  0  0  0  0  0  0  0
  127.5390  126.8910   71.1670 C   0  0  0  0  0  0  0  0  0  0  0  0
  128.6190  127.2560   71.9670 C   0  0  0  0  0  0  0  0  0  0  0  0
  128.4040  127.2670   73.3320 O   0  0  0  0  0  0  0  0  0  0  0  0
  127.5450  128.2560   73.8910 C   0  0  0  0  0  0  0  0  0  0  0  0
  129.8370  127.5810   71.3540 C   0  0  0  0  0  0  0  0  0  0  0  0
  129.9580  127.5400   69.9680 C   0  0  0  0  0  0  0  0  0  0  0  0
  129.7850  126.1890   66.9890 C   0  0  0  0  0  0  0  0  0  0  0  0
  129.8630  126.1830   65.5890 C   0  0  0  0  0  0  0  0  0  0  0  0
  130.7070  125.1380   64.9360 C   0  0  0  0  0  0  0  0  0  0  0  0
  132.0570  125.3890   64.6700 C   0  0  0  0  0  0  0  0  0  0  0  0
  132.8520  124.4170   64.0710 C   0  0  0  0  0  0  0  0  0  0  0  0
  132.3190  123.1740   63.7310 C   0  0  0  0  0  0  0  0  0  0  0  0
  133.1820  122.2720   63.1400 O   0  0  0  0  0  0  0  0  0  0  0  0
  133.9820  122.6930   62.0410 C   0  0  0  0  0  0  0  0  0  0  0  0
  130.9670  122.9150   64.0040 C   0  0  0  0  0  0  0  0  0  0  0  0
  130.1730  123.8890   64.6030 C   0  0  0  0  0  0  0  0  0  0  0  0
  129.1390  127.1670   64.8770 C   0  0  0  0  0  0  0  0  0  0  0  0
  129.1940  127.2670   63.4180 C   0  0  0  0  0  0  0  0  0  0  0  0
  129.2360  127.3470   62.2640 N   0  0  0  0  0  0  0  0  0  0  0  0
  129.1620  132.4300   60.9600 C   0  0  0  0  0  0  0  0  0  0  0  0
  129.4840  132.8900   59.6870 C   0  0  0  0  0  0  0  0  0  0  0  0
  127.8636  132.3386   57.5329 H   0  0  0  0  0  0  0  0  0  0  0  0
  127.0025  132.9025   56.0608 H   0  0  0  0  0  0  0  0  0  0  0  0
  127.8329  131.3097   56.0608 H   0  0  0  0  0  0  0  0  0  0  0  0
  129.7871  132.2700   55.4262 H   0  0  0  0  0  0  0  0  0  0  0  0
  128.9050  133.8228   55.2371 H   0  0  0  0  0  0  0  0  0  0  0  0
  132.1955  130.9134   59.0634 H   0  0  0  0  0  0  0  0  0  0  0  0
  131.6170  130.0867   61.3361 H   0  0  0  0  0  0  0  0  0  0  0  0
  130.2610  130.9120   63.5070 H   0  0  0  0  0  0  0  0  0  0  0  0
  129.1453  130.4455   65.2791 H   0  0  0  0  0  0  0  0  0  0  0  0
  127.4602  131.0875   65.3217 H   0  0  0  0  0  0  0  0  0  0  0  0
  126.7959  126.5599   69.1691 H   0  0  0  0  0  0  0  0  0  0  0  0
  126.5784  126.6307   71.6355 H   0  0  0  0  0  0  0  0  0  0  0  0
  127.5908  128.2033   74.9888 H   0  0  0  0  0  0  0  0  0  0  0  0
  127.8685  129.2532   73.5580 H   0  0  0  0  0  0  0  0  0  0  0  0
  126.5123  128.0753   73.5580 H   0  0  0  0  0  0  0  0  0  0  0  0
  130.7008  127.8696   71.9709 H   0  0  0  0  0  0  0  0  0  0  0  0
  130.9215  127.7949   69.5026 H   0  0  0  0  0  0  0  0  0  0  0  0
  130.3449  125.4402   67.5685 H   0  0  0  0  0  0  0  0  0  0  0  0
  132.4937  126.3628   64.9366 H   0  0  0  0  0  0  0  0  0  0  0  0
  133.9109  124.6310   63.8637 H   0  0  0  0  0  0  0  0  0  0  0  0
  134.8969  123.1745   62.4167 H   0  0  0  0  0  0  0  0  0  0  0  0
  134.2520  121.8202   61.4284 H   0  0  0  0  0  0  0  0  0  0  0  0
  133.4155  123.4098   61.4284 H   0  0  0  0  0  0  0  0  0  0  0  0
  130.5329  121.9384   63.7436 H   0  0  0  0  0  0  0  0  0  0  0  0
  129.1155  123.6742   64.8165 H   0  0  0  0  0  0  0  0  0  0  0  0
  128.3024  132.8603   61.4947 H   0  0  0  0  0  0  0  0  0  0  0  0
  128.8767  133.6815   59.2236 H   0  0  0  0  0  0  0  0  0  0  0  0
  1  2  1  0
  2  3  1  0
  3  4  1  0
  4  5  2  0
  4  6  1  0
  6  7  2  0
  7  8  1  0
  8  9  2  0
  9 10  1  0
 10 11  1  0
 11 12  2  0
 11 13  1  0
 13 14  1  0
 14 15  1  0
 15 16  2  0
 16 17  1  0
 17 18  1  0
 18 19  2  0
 19 20  1  0
 20 21  2  0
 21 22  1  0
 22 23  1  0
 21 24  1  0
 24 25  2  0
 17 26  2  0
 26 27  1  0
 27 28  1  0
 28 29  2  0
 29 30  1  0
 30 31  2  0
 31 32  1  0
 32 33  1  0
 31 34  1  0
 34 35  2  0
 27 36  2  0
 36 37  1  0
 37 38  3  0
  9 39  1  0
 39 40  2  0
 40  6  1  0
 36 15  1  0
 25 18  1  0
 35 28  1  0
  1 41  1  0
  1 42  1  0
  1 43  1  0
  2 44  1  0
  2 45  1  0
  7 46  1  0
  8 47  1  0
 10 48  1  0
 13 49  1  0
 13 50  1  0
 19 51  1  0
 20 52  1  0
 23 53  1  0
 23 54  1  0
 23 55  1  0
 24 56  1  0
 25 57  1  0
 26 58  1  0
 29 59  1  0
 30 60  1  0
 33 61  1  0
 33 62  1  0
 33 63  1  0
 34 64  1  0
 35 65  1  0
 39 66  1  0
 40 67  1  0
M  END
>  <Binding energies>  (1) 
[-9.48]

>  <Ligand effiencies>  (1) 
[-0.23121951219512196]

>  <Interactions>  (1) 
["V-A:PRO:540:CA:4883, V-A:PRO:540:CB:4885, V-A:PRO:540:CD:4887, V-A:PRO:540:N:4884, V-A:TYR:539:C:4867, H-A:TYR:539:N:4870, V-A:MET:535:CE:4835, V-A:ILE:369:CD1:3239, V-B:GLU:543:CG:9879, V-A:LEU:475:CD2:4259, V-B:GLU:543:CB:9878, V-A:GLU:543:CD:4908, V-A:GLY:454:CA:4049, V-A:ARG:545:CZ:4926, V-B:GLU:543:CD:9880, V-B:HIS:456:CE1:9041, V-B:GLY:544:C:9884, V-B:GLU:543:C:9874, V-B:HIS:456:CD2:9039, V-A:HIS:456:CE1:4070, V-A:GLU:543:CG:4907, V-B:HIS:456:CG:9037, V-B:GLY:544:CA:9886, H-B:LYS:547:NZ:9923, H-A:GLU:543:OE1:4909, H-B:TYR:484:OH:9319, V-A:TYR:539:CE1:4875, V-A:TYR:539:CZ:4877, H-A:GLY:454:N:4050, V-A:TYR:539:CD1:4873, V-A:ILE:538:CA:4860, V-A:TYR:539:CE2:4876, V-A:ILE:538:C:4858, V-A:ILE:538:CB:4862"]

$$$$
1b_Ghoteimi_2023
     RDKit          3D

 54 57  0  0  0  0  0  0  0  0999 V2000
  130.6030  126.5520   75.0460 C   0  0  0  0  0  0  0  0  0  0  0  0
  129.5550  127.2300   74.3630 O   0  0  0  0  0  0  0  0  0  0  0  0
  129.5520  127.2480   72.9820 C   0  0  0  0  0  0  0  0  0  0  0  0
  128.3770  126.8400   72.3540 C   0  0  0  0  0  0  0  0  0  0  0  0
  128.2820  126.8240   70.9660 C   0  0  0  0  0  0  0  0  0  0  0  0
  129.3610  127.2200   70.1610 C   0  0  0  0  0  0  0  0  0  0  0  0
  129.2550  127.1990   68.6620 C   0  0  0  0  0  0  0  0  0  0  0  0
  129.9340  126.2720   67.8640 C   0  0  0  0  0  0  0  0  0  0  0  0
  129.7980  126.2930   66.4700 C   0  0  0  0  0  0  0  0  0  0  0  0
  130.5560  125.2760   65.6810 C   0  0  0  0  0  0  0  0  0  0  0  0
  131.8910  125.5030   65.3360 C   0  0  0  0  0  0  0  0  0  0  0  0
  132.6000  124.5620   64.5940 C   0  0  0  0  0  0  0  0  0  0  0  0
  131.9870  123.3800   64.1780 C   0  0  0  0  0  0  0  0  0  0  0  0
  132.7660  122.5050   63.4450 O   0  0  0  0  0  0  0  0  0  0  0  0
  133.2400  122.9050   62.1640 C   0  0  0  0  0  0  0  0  0  0  0  0
  130.6440  123.1520   64.5140 C   0  0  0  0  0  0  0  0  0  0  0  0
  129.9390  124.0950   65.2560 C   0  0  0  0  0  0  0  0  0  0  0  0
  128.9490  127.2670   65.8890 C   0  0  0  0  0  0  0  0  0  0  0  0
  128.6980  127.2710   64.4450 C   0  0  0  0  0  0  0  0  0  0  0  0
  128.5010  127.2720   63.3050 N   0  0  0  0  0  0  0  0  0  0  0  0
  128.3090  128.1870   66.7510 C   0  0  0  0  0  0  0  0  0  0  0  0
  127.2170  129.4800   66.1990 S   0  0  0  0  0  0  0  0  0  0  0  0
  127.2960  129.5450   64.3780 C   0  0  0  0  0  0  0  0  0  0  0  0
  128.1790  130.6620   63.8050 C   0  0  0  0  0  0  0  0  0  0  0  0
  128.0030  131.8370   64.1370 O   0  0  0  0  0  0  0  0  0  0  0  0
  129.1260  130.2430   62.9360 N   0  0  0  0  0  0  0  0  0  0  0  0
  130.0610  131.0250   62.2680 C   0  0  0  0  0  0  0  0  0  0  0  0
  130.3080  130.9160   60.9000 C   0  0  0  0  0  0  0  0  0  0  0  0
  131.2850  131.8490   60.6370 C   0  0  0  0  0  0  0  0  0  0  0  0
  131.6070  132.4890   61.7870 O   0  0  0  0  0  0  0  0  0  0  0  0
  130.8250  131.9580   62.8130 N   0  0  0  0  0  0  0  0  0  0  0  0
  128.4470  128.1340   68.0970 N   0  0  0  0  0  0  0  0  0  0  0  0
  130.5400  127.6270   70.8040 C   0  0  0  0  0  0  0  0  0  0  0  0
  130.6400  127.6430   72.1910 C   0  0  0  0  0  0  0  0  0  0  0  0
  130.4551  126.6477   76.1318 H   0  0  0  0  0  0  0  0  0  0  0  0
  130.5942  125.4880   74.7671 H   0  0  0  0  0  0  0  0  0  0  0  0
  131.5699  126.9962   74.7671 H   0  0  0  0  0  0  0  0  0  0  0  0
  127.5153  126.5272   72.9620 H   0  0  0  0  0  0  0  0  0  0  0  0
  127.3454  126.4954   70.4918 H   0  0  0  0  0  0  0  0  0  0  0  0
  130.5816  125.5186   68.3363 H   0  0  0  0  0  0  0  0  0  0  0  0
  132.3858  126.4328   65.6532 H   0  0  0  0  0  0  0  0  0  0  0  0
  133.6517  124.7521   64.3338 H   0  0  0  0  0  0  0  0  0  0  0  0
  134.0755  123.6101   62.2859 H   0  0  0  0  0  0  0  0  0  0  0  0
  133.5847  122.0207   61.6080 H   0  0  0  0  0  0  0  0  0  0  0  0
  132.4262  123.3935   61.6080 H   0  0  0  0  0  0  0  0  0  0  0  0
  130.1471  122.2256   64.1902 H   0  0  0  0  0  0  0  0  0  0  0  0
  128.8852  123.9095   65.5110 H   0  0  0  0  0  0  0  0  0  0  0  0
  127.6886  128.5821   64.0192 H   0  0  0  0  0  0  0  0  0  0  0  0
  126.2727  129.7559   64.0339 H   0  0  0  0  0  0  0  0  0  0  0  0
  129.1780  129.2520   62.7520 H   0  0  0  0  0  0  0  0  0  0  0  0
  129.8262  130.2323   60.1856 H   0  0  0  0  0  0  0  0  0  0  0  0
  131.7326  132.0439   59.6513 H   0  0  0  0  0  0  0  0  0  0  0  0
  131.4032  127.9400   70.1983 H   0  0  0  0  0  0  0  0  0  0  0  0
  131.5762  127.9668   72.6692 H   0  0  0  0  0  0  0  0  0  0  0  0
  1  2  1  0
  2  3  1  0
  3  4  2  0
  4  5  1  0
  5  6  2  0
  6  7  1  0
  7  8  2  0
  8  9  1  0
  9 10  1  0
 10 11  2  0
 11 12  1  0
 12 13  2  0
 13 14  1  0
 14 15  1  0
 13 16  1  0
 16 17  2  0
  9 18  2  0
 18 19  1  0
 19 20  3  0
 18 21  1  0
 21 22  1  0
 22 23  1  0
 23 24  1  0
 24 25  2  0
 24 26  1  0
 26 27  1  0
 27 28  1  0
 28 29  2  0
 29 30  1  0
 30 31  1  0
 21 32  2  0
  6 33  1  0
 33 34  2  0
 34  3  1  0
 32  7  1  0
 17 10  1  0
 31 27  2  0
  1 35  1  0
  1 36  1  0
  1 37  1  0
  4 38  1  0
  5 39  1  0
  8 40  1  0
 11 41  1  0
 12 42  1  0
 15 43  1  0
 15 44  1  0
 15 45  1  0
 16 46  1  0
 17 47  1  0
 23 48  1  0
 23 49  1  0
 26 50  1  0
 28 51  1  0
 29 52  1  0
 33 53  1  0
 34 54  1  0
M  END
>  <Binding energies>  (1) 
[-8.67]

>  <Ligand effiencies>  (1) 
[-0.24771428571428572]

>  <Interactions>  (1) 
["V-A:PRO:540:CA:4883, V-A:PRO:540:CB:4885, V-B:GLU:543:CG:9879, V-A:LEU:475:CD2:4259, V-A:TYR:484:CZ:4347, V-B:GLU:543:CB:9878, H-A:TYR:484:OH:4348, V-A:GLU:543:CD:4908, V-A:TYR:484:CE2:4346, V-A:ARG:545:CZ:4926, V-B:GLU:543:CD:9880, V-B:HIS:456:CE1:9041, V-A:GLY:544:C:4912, H-A:LYS:547:NZ:4951, V-B:GLU:543:C:9874, V-A:HIS:456:CE1:4070, V-A:GLU:543:CG:4907, V-A:GLU:543:CB:4906, H-B:LYS:547:NZ:9923, H-A:GLU:543:OE1:4909, H-B:TYR:484:OH:9319, V-A:HIS:456:CD2:4068, H-A:ALA:541:N:4891, H-A:GLY:454:N:4050"]

$$$$
1b_Grossjean_2025
     RDKit          3D

 42 43  0  0  0  0  0  0  0  0999 V2000
  131.0220  126.8710   73.5720 C   0  0  0  0  0  0  0  0  0  0  0  0
  130.0530  127.9100   73.6180 O   0  0  0  0  0  0  0  0  0  0  0  0
  129.9610  128.8230   72.6180 C   0  0  0  0  0  0  0  0  0  0  0  0
  129.8710  130.0390   72.8120 O   0  0  0  0  0  0  0  0  0  0  0  0
  129.9860  128.2070   71.2480 C   0  0  0  0  0  0  0  0  0  0  0  0
  131.1370  128.2270   70.4460 C   0  0  0  0  0  0  0  0  0  0  0  0
  131.1260  127.6480   69.1810 C   0  0  0  0  0  0  0  0  0  0  0  0
  129.9720  127.0380   68.6900 C   0  0  0  0  0  0  0  0  0  0  0  0
  130.0760  126.4870   67.3990 N   0  0  0  0  0  0  0  0  0  0  0  0
  129.8720  125.2210   66.9730 C   0  0  0  0  0  0  0  0  0  0  0  0
  129.5330  124.2740   67.6820 O   0  0  0  0  0  0  0  0  0  0  0  0
  130.0790  124.9920   65.4750 C   0  0  0  0  0  0  0  0  0  0  0  0
  130.2460  123.2280   65.0680 S   0  0  0  0  0  0  0  0  0  0  0  0
  130.7870  123.1240   63.3750 C   0  0  0  0  0  0  0  0  0  0  0  0
  129.8920  122.5230   62.5510 N   0  0  0  0  0  0  0  0  0  0  0  0
  130.2020  122.3920   61.2400 C   0  0  0  0  0  0  0  0  0  0  0  0
  129.1470  121.7240   60.3770 C   0  0  0  0  0  0  0  0  0  0  0  0
  131.4070  122.8390   60.7040 C   0  0  0  0  0  0  0  0  0  0  0  0
  132.3460  123.4400   61.5490 C   0  0  0  0  0  0  0  0  0  0  0  0
  133.6670  123.9070   60.9420 C   0  0  0  0  0  0  0  0  0  0  0  0
  132.0450  123.5870   62.9220 C   0  0  0  0  0  0  0  0  0  0  0  0
  133.0300  124.1730   63.8350 C   0  0  0  0  0  0  0  0  0  0  0  0
  133.8100  124.6370   64.5530 N   0  0  0  0  0  0  0  0  0  0  0  0
  128.8170  127.0130   69.4860 C   0  0  0  0  0  0  0  0  0  0  0  0
  128.8290  127.5920   70.7520 C   0  0  0  0  0  0  0  0  0  0  0  0
  131.2948  126.5785   74.5967 H   0  0  0  0  0  0  0  0  0  0  0  0
  130.6037  126.0027   73.0419 H   0  0  0  0  0  0  0  0  0  0  0  0
  131.9173  127.2278   73.0419 H   0  0  0  0  0  0  0  0  0  0  0  0
  132.0549  128.7040   70.8201 H   0  0  0  0  0  0  0  0  0  0  0  0
  132.0355  127.6716   68.5627 H   0  0  0  0  0  0  0  0  0  0  0  0
  130.3600  127.1500   66.6930 H   0  0  0  0  0  0  0  0  0  0  0  0
  129.2147  125.4010   64.9311 H   0  0  0  0  0  0  0  0  0  0  0  0
  131.0113  125.4966   65.1814 H   0  0  0  0  0  0  0  0  0  0  0  0
  128.3940  121.2472   61.0217 H   0  0  0  0  0  0  0  0  0  0  0  0
  128.6608  122.4792   59.7419 H   0  0  0  0  0  0  0  0  0  0  0  0
  129.6217  120.9615   59.7419 H   0  0  0  0  0  0  0  0  0  0  0  0
  131.6176  122.7211   59.6308 H   0  0  0  0  0  0  0  0  0  0  0  0
  134.3729  124.1566   61.7479 H   0  0  0  0  0  0  0  0  0  0  0  0
  134.0892  123.1036   60.3204 H   0  0  0  0  0  0  0  0  0  0  0  0
  133.4905  124.7972   60.3204 H   0  0  0  0  0  0  0  0  0  0  0  0
  127.9006  126.5352   69.1093 H   0  0  0  0  0  0  0  0  0  0  0  0
  127.9194  127.5663   71.3701 H   0  0  0  0  0  0  0  0  0  0  0  0
  1  2  1  0
  2  3  1  0
  3  4  2  0
  3  5  1  0
  5  6  2  0
  6  7  1  0
  7  8  2  0
  8  9  1  0
  9 10  1  0
 10 11  2  0
 10 12  1  0
 12 13  1  0
 13 14  1  0
 14 15  2  0
 15 16  1  0
 16 17  1  0
 16 18  2  0
 18 19  1  0
 19 20  1  0
 19 21  2  0
 21 22  1  0
 22 23  3  0
  8 24  1  0
 24 25  2  0
 25  5  1  0
 21 14  1  0
  1 26  1  0
  1 27  1  0
  1 28  1  0
  6 29  1  0
  7 30  1  0
  9 31  1  0
 12 32  1  0
 12 33  1  0
 17 34  1  0
 17 35  1  0
 17 36  1  0
 18 37  1  0
 20 38  1  0
 20 39  1  0
 20 40  1  0
 24 41  1  0
 25 42  1  0
M  END
>  <Binding energies>  (1) 
[-7.73]

>  <Ligand effiencies>  (1) 
[-0.29730769230769233]

>  <Interactions>  (1) 
["V-B:PRO:540:CA:9855, V-B:TYR:539:CE2:9848, V-B:TYR:539:C:9839, V-B:TYR:539:CD2:9846, V-A:ILE:369:CD1:3239, V-B:GLU:543:CG:9879, V-A:LEU:475:CD2:4259, V-B:GLU:543:CB:9878, H-A:TYR:484:OH:4348, V-A:GLU:543:CD:4908, V-A:TYR:484:CE2:4346, H-A:ARG:545:NE:4924, V-A:GLY:454:CA:4049, V-B:GLU:543:CD:9880, V-B:HIS:456:CE1:9041, V-A:GLY:544:CA:4914, V-A:GLY:544:C:4912, H-A:LYS:547:NZ:4951, V-A:HIS:456:CE1:4070, V-A:GLU:543:C:4902, V-A:GLU:543:CB:4906, H-A:GLU:543:OE1:4909, V-A:ARG:545:CG:4922, H-A:GLU:543:OE2:4910, V-A:HIS:456:CD2:4068, V-A:HIS:456:CG:4066, H-A:ARG:545:NH2:4928, V-B:GLU:543:CA:9876, H-A:GLY:454:N:4050"]

$$$$
1c_Ghoteimi_2023
     RDKit          3D

 54 57  0  0  0  0  0  0  0  0999 V2000
  126.1970  122.3820   56.5740 C   0  0  0  0  0  0  0  0  0  0  0  0
  125.7190  122.8300   57.8380 O   0  0  0  0  0  0  0  0  0  0  0  0
  126.6270  123.1380   58.8330 C   0  0  0  0  0  0  0  0  0  0  0  0
  127.9460  122.7490   58.6180 C   0  0  0  0  0  0  0  0  0  0  0  0
  128.9270  123.0160   59.5690 C   0  0  0  0  0  0  0  0  0  0  0  0
  128.6170  123.6790   60.7660 C   0  0  0  0  0  0  0  0  0  0  0  0
  129.6700  123.9650   61.7970 C   0  0  0  0  0  0  0  0  0  0  0  0
  129.3800  124.5520   63.0330 C   0  0  0  0  0  0  0  0  0  0  0  0
  130.3930  124.7740   63.9730 C   0  0  0  0  0  0  0  0  0  0  0  0
  130.0010  125.3420   65.2970 C   0  0  0  0  0  0  0  0  0  0  0  0
  130.2630  124.6410   66.4780 C   0  0  0  0  0  0  0  0  0  0  0  0
  129.8770  125.1620   67.7090 C   0  0  0  0  0  0  0  0  0  0  0  0
  129.2190  126.3900   67.7840 C   0  0  0  0  0  0  0  0  0  0  0  0
  128.8740  126.8290   69.0480 O   0  0  0  0  0  0  0  0  0  0  0  0
  129.4730  128.0160   69.5580 C   0  0  0  0  0  0  0  0  0  0  0  0
  128.9480  127.0930   66.6000 C   0  0  0  0  0  0  0  0  0  0  0  0
  129.3350  126.5700   65.3690 C   0  0  0  0  0  0  0  0  0  0  0  0
  131.7190  124.4190   63.6320 C   0  0  0  0  0  0  0  0  0  0  0  0
  132.8300  124.6570   64.5600 C   0  0  0  0  0  0  0  0  0  0  0  0
  133.7050  124.8450   65.2930 N   0  0  0  0  0  0  0  0  0  0  0  0
  131.9390  123.8150   62.3760 C   0  0  0  0  0  0  0  0  0  0  0  0
  133.5210  123.1650   61.8850 S   0  0  0  0  0  0  0  0  0  0  0  0
  133.2470  122.4840   60.2170 C   0  0  0  0  0  0  0  0  0  0  0  0
  132.8140  121.0140   60.2570 C   0  0  0  0  0  0  0  0  0  0  0  0
  133.6300  120.1320   59.9870 O   0  0  0  0  0  0  0  0  0  0  0  0
  131.5350  120.8010   60.6400 N   0  0  0  0  0  0  0  0  0  0  0  0
  130.9430  119.5770   60.9050 C   0  0  0  0  0  0  0  0  0  0  0  0
  130.0730  119.2870   61.8480 N   0  0  0  0  0  0  0  0  0  0  0  0
  129.6890  118.0270   61.7820 C   0  0  0  0  0  0  0  0  0  0  0  0
  130.2520  117.2650   60.7630 C   0  0  0  0  0  0  0  0  0  0  0  0
  131.3450  118.2610   59.8490 S   0  0  0  0  0  0  0  0  0  0  0  0
  130.9390  123.5880   61.4900 N   0  0  0  0  0  0  0  0  0  0  0  0
  127.2850  124.0720   60.9690 C   0  0  0  0  0  0  0  0  0  0  0  0
  126.3010  123.8060   60.0220 C   0  0  0  0  0  0  0  0  0  0  0  0
  126.9919  121.6370   56.7257 H   0  0  0  0  0  0  0  0  0  0  0  0
  125.3700  121.9261   56.0098 H   0  0  0  0  0  0  0  0  0  0  0  0
  126.5984  123.2368   56.0098 H   0  0  0  0  0  0  0  0  0  0  0  0
  128.2156  122.2261   57.6886 H   0  0  0  0  0  0  0  0  0  0  0  0
  129.9637  122.7015   59.3786 H   0  0  0  0  0  0  0  0  0  0  0  0
  128.3454  124.8421   63.2687 H   0  0  0  0  0  0  0  0  0  0  0  0
  130.7782  123.6702   66.4336 H   0  0  0  0  0  0  0  0  0  0  0  0
  130.0923  124.6012   68.6305 H   0  0  0  0  0  0  0  0  0  0  0  0
  129.4599  127.9900   70.6576 H   0  0  0  0  0  0  0  0  0  0  0  0
  130.5127  128.0828   69.2052 H   0  0  0  0  0  0  0  0  0  0  0  0
  128.9091  128.8921   69.2052 H   0  0  0  0  0  0  0  0  0  0  0  0
  128.4277  128.0612   66.6447 H   0  0  0  0  0  0  0  0  0  0  0  0
  129.1153  127.1267   64.4461 H   0  0  0  0  0  0  0  0  0  0  0  0
  132.4616  123.0714   59.7189 H   0  0  0  0  0  0  0  0  0  0  0  0
  134.1983  122.5416   59.6677 H   0  0  0  0  0  0  0  0  0  0  0  0
  130.9660  121.6130   60.8260 H   0  0  0  0  0  0  0  0  0  0  0  0
  128.9645  117.6024   62.4925 H   0  0  0  0  0  0  0  0  0  0  0  0
  130.0397  116.2036   60.5673 H   0  0  0  0  0  0  0  0  0  0  0  0
  127.0138  124.6006   61.8948 H   0  0  0  0  0  0  0  0  0  0  0  0
  125.2634  124.1209   60.2067 H   0  0  0  0  0  0  0  0  0  0  0  0
  1  2  1  0
  2  3  1  0
  3  4  2  0
  4  5  1  0
  5  6  2  0
  6  7  1  0
  7  8  2  0
  8  9  1  0
  9 10  1  0
 10 11  2  0
 11 12  1  0
 12 13  2  0
 13 14  1  0
 14 15  1  0
 13 16  1  0
 16 17  2  0
  9 18  2  0
 18 19  1  0
 19 20  3  0
 18 21  1  0
 21 22  1  0
 22 23  1  0
 23 24  1  0
 24 25  2  0
 24 26  1  0
 26 27  1  0
 27 28  2  0
 28 29  1  0
 29 30  2  0
 30 31  1  0
 21 32  2  0
  6 33  1  0
 33 34  2  0
 34  3  1  0
 32  7  1  0
 17 10  1  0
 31 27  1  0
  1 35  1  0
  1 36  1  0
  1 37  1  0
  4 38  1  0
  5 39  1  0
  8 40  1  0
 11 41  1  0
 12 42  1  0
 15 43  1  0
 15 44  1  0
 15 45  1  0
 16 46  1  0
 17 47  1  0
 23 48  1  0
 23 49  1  0
 26 50  1  0
 29 51  1  0
 30 52  1  0
 33 53  1  0
 34 54  1  0
M  END
>  <Binding energies>  (1) 
[-8.77]

>  <Ligand effiencies>  (1) 
[-0.25057142857142856]

>  <Interactions>  (1) 
["V-B:PRO:540:N:9856, V-B:PRO:540:CB:9857, V-B:PRO:540:CA:9855, V-B:TYR:539:CE2:9848, V-B:PRO:540:CD:9859, V-B:MET:535:CE:9807, V-B:TYR:539:C:9839, V-B:TYR:539:CG:9844, V-B:TYR:539:CD2:9846, V-B:ALA:541:CB:9864, V-B:GLU:543:CG:9879, V-A:ILE:369:CG2:3237, V-A:LEU:475:CD2:4259, V-A:TYR:484:CZ:4347, V-B:GLU:543:CB:9878, H-A:TYR:484:OH:4348, V-A:GLU:543:CD:4908, V-A:TYR:484:CE2:4346, H-A:ARG:545:NE:4924, V-A:ARG:545:CZ:4926, V-B:GLU:543:CD:9880, V-B:HIS:456:CE1:9041, V-A:HIS:456:CE1:4070, V-A:GLU:543:CB:4906, H-A:ARG:545:NH2:4928, V-B:GLU:543:CA:9876, H-A:GLY:454:N:4050, V-B:TYR:539:CB:9843, H-A:SER:385:OG:3410, V-A:HIS:383:NE2:3394, V-A:LEU:475:CG:4257, V-A:HIS:383:CD2:3392, V-A:HIS:383:CE1:3393, V-A:LEU:475:CD1:4258, V-A:PRO:482:CB:4326, V-A:PRO:482:CG:4327"]

$$$$
1c_Grossjean_2025
     RDKit          3D

 40 41  0  0  0  0  0  0  0  0999 V2000
  129.5720  127.4040   70.0060 C   0  0  0  0  0  0  0  0  0  0  0  0
  129.1670  126.7020   68.8350 O   0  0  0  0  0  0  0  0  0  0  0  0
  128.8790  127.4150   67.6880 C   0  0  0  0  0  0  0  0  0  0  0  0
  128.3520  128.6950   67.8670 C   0  0  0  0  0  0  0  0  0  0  0  0
  128.0310  129.4920   66.7720 C   0  0  0  0  0  0  0  0  0  0  0  0
  128.2410  129.0130   65.4710 C   0  0  0  0  0  0  0  0  0  0  0  0
  127.9420  129.7290   64.2950 N   0  0  0  0  0  0  0  0  0  0  0  0
  127.9960  131.0580   64.0650 C   0  0  0  0  0  0  0  0  0  0  0  0
  128.3500  131.9110   64.8790 O   0  0  0  0  0  0  0  0  0  0  0  0
  127.5800  131.4970   62.6590 C   0  0  0  0  0  0  0  0  0  0  0  0
  128.5330  132.9360   62.0900 S   0  0  0  0  0  0  0  0  0  0  0  0
  130.0480  132.3530   61.3570 C   0  0  0  0  0  0  0  0  0  0  0  0
  131.0200  132.0890   62.2660 N   0  0  0  0  0  0  0  0  0  0  0  0
  132.2190  131.6390   61.8260 C   0  0  0  0  0  0  0  0  0  0  0  0
  133.2520  131.3560   62.9010 C   0  0  0  0  0  0  0  0  0  0  0  0
  132.4990  131.4470   60.4750 C   0  0  0  0  0  0  0  0  0  0  0  0
  131.5130  131.7390   59.5280 C   0  0  0  0  0  0  0  0  0  0  0  0
  131.8510  131.5360   58.0520 C   0  0  0  0  0  0  0  0  0  0  0  0
  130.2540  132.2120   59.9640 C   0  0  0  0  0  0  0  0  0  0  0  0
  129.2280  132.5760   58.9840 C   0  0  0  0  0  0  0  0  0  0  0  0
  128.4170  132.8620   58.2090 N   0  0  0  0  0  0  0  0  0  0  0  0
  128.7570  127.7290   65.2870 C   0  0  0  0  0  0  0  0  0  0  0  0
  129.0770  126.9350   66.3850 C   0  0  0  0  0  0  0  0  0  0  0  0
  129.2501  126.8461   70.8977 H   0  0  0  0  0  0  0  0  0  0  0  0
  130.6673  127.5053   70.0124 H   0  0  0  0  0  0  0  0  0  0  0  0
  129.1114  128.4029   70.0124 H   0  0  0  0  0  0  0  0  0  0  0  0
  128.1885  129.0782   68.8850 H   0  0  0  0  0  0  0  0  0  0  0  0
  127.6127  130.4974   66.9272 H   0  0  0  0  0  0  0  0  0  0  0  0
  127.6990  129.1500   63.5060 H   0  0  0  0  0  0  0  0  0  0  0  0
  127.7457  130.6623   61.9620 H   0  0  0  0  0  0  0  0  0  0  0  0
  126.5180  131.7817   62.6905 H   0  0  0  0  0  0  0  0  0  0  0  0
  132.7930  131.4817   63.8927 H   0  0  0  0  0  0  0  0  0  0  0  0
  133.6186  130.3243   62.7948 H   0  0  0  0  0  0  0  0  0  0  0  0
  134.0932  132.0568   62.7948 H   0  0  0  0  0  0  0  0  0  0  0  0
  133.4827  131.0707   60.1576 H   0  0  0  0  0  0  0  0  0  0  0  0
  132.7911  130.9714   57.9654 H   0  0  0  0  0  0  0  0  0  0  0  0
  131.0402  130.9753   57.5639 H   0  0  0  0  0  0  0  0  0  0  0  0
  131.9651  132.5152   57.5639 H   0  0  0  0  0  0  0  0  0  0  0  0
  128.9116  127.3424   64.2688 H   0  0  0  0  0  0  0  0  0  0  0  0
  129.4872  125.9262   66.2299 H   0  0  0  0  0  0  0  0  0  0  0  0
  1  2  1  0
  2  3  1  0
  3  4  2  0
  4  5  1  0
  5  6  2  0
  6  7  1  0
  7  8  1  0
  8  9  2  0
  8 10  1  0
 10 11  1  0
 11 12  1  0
 12 13  2  0
 13 14  1  0
 14 15  1  0
 14 16  2  0
 16 17  1  0
 17 18  1  0
 17 19  2  0
 19 20  1  0
 20 21  3  0
  6 22  1  0
 22 23  2  0
 23  3  1  0
 19 12  1  0
  1 24  1  0
  1 25  1  0
  1 26  1  0
  4 27  1  0
  5 28  1  0
  7 29  1  0
 10 30  1  0
 10 31  1  0
 15 32  1  0
 15 33  1  0
 15 34  1  0
 16 35  1  0
 18 36  1  0
 18 37  1  0
 18 38  1  0
 22 39  1  0
 23 40  1  0
M  END
>  <Binding energies>  (1) 
[-6.92]

>  <Ligand effiencies>  (1) 
[-0.28833333333333333]

>  <Interactions>  (1) 
["V-A:LEU:363:CD1:3189, V-A:PRO:540:CA:4883, V-A:PRO:540:CB:4885, V-A:PRO:540:N:4884, V-A:TYR:539:C:4867, V-B:GLU:543:CG:9879, V-B:GLU:543:CB:9878, V-A:GLU:543:CD:4908, V-B:GLU:543:CD:9880, V-B:HIS:456:CE1:9041, V-A:HIS:456:CE1:4070, V-A:GLU:543:CG:4907, V-A:GLU:543:CB:4906, H-A:GLU:543:OE1:4909, V-B:TYR:484:CZ:9318, H-B:GLU:543:OE2:9882, H-B:TYR:484:OH:9319, V-A:PRO:540:C:4881, H-A:ALA:541:N:4891, V-B:TYR:484:CE2:9317, V-A:ASN:362:CB:3176, V-A:ASN:362:CG:3177"]

$$$$
1d_Ghoteimi_2023
     RDKit          3D

 50 52  0  0  0  0  0  0  0  0999 V2000
  131.7730  126.1730   59.1600 C   0  0  0  0  0  0  0  0  0  0  0  0
  132.0850  124.9410   58.5290 O   0  0  0  0  0  0  0  0  0  0  0  0
  133.3250  124.4180   58.6230 C   0  0  0  0  0  0  0  0  0  0  0  0
  133.9650  123.8910   57.7110 O   0  0  0  0  0  0  0  0  0  0  0  0
  133.8980  124.5340   60.0330 C   0  0  0  0  0  0  0  0  0  0  0  0
  133.2750  123.1230   60.9950 S   0  0  0  0  0  0  0  0  0  0  0  0
  131.7220  123.6220   61.7050 C   0  0  0  0  0  0  0  0  0  0  0  0
  130.6670  123.4750   60.8680 N   0  0  0  0  0  0  0  0  0  0  0  0
  129.4210  123.8210   61.2810 C   0  0  0  0  0  0  0  0  0  0  0  0
  128.3070  123.6210   60.2950 C   0  0  0  0  0  0  0  0  0  0  0  0
  128.5270  122.9760   59.0680 C   0  0  0  0  0  0  0  0  0  0  0  0
  127.4940  122.7970   58.1530 C   0  0  0  0  0  0  0  0  0  0  0  0
  126.2100  123.2580   58.4330 C   0  0  0  0  0  0  0  0  0  0  0  0
  125.2480  123.0400   57.4650 O   0  0  0  0  0  0  0  0  0  0  0  0
  125.6140  122.3710   56.2630 C   0  0  0  0  0  0  0  0  0  0  0  0
  125.9740  123.9040   59.6540 C   0  0  0  0  0  0  0  0  0  0  0  0
  127.0100  124.0800   60.5680 C   0  0  0  0  0  0  0  0  0  0  0  0
  129.2110  124.3220   62.5710 C   0  0  0  0  0  0  0  0  0  0  0  0
  130.2860  124.4990   63.4520 C   0  0  0  0  0  0  0  0  0  0  0  0
  129.9910  125.0450   64.8120 C   0  0  0  0  0  0  0  0  0  0  0  0
  129.4330  126.3200   64.9530 C   0  0  0  0  0  0  0  0  0  0  0  0
  129.1560  126.8350   66.2160 C   0  0  0  0  0  0  0  0  0  0  0  0
  129.4260  126.0870   67.3620 C   0  0  0  0  0  0  0  0  0  0  0  0
  129.1250  126.6800   68.5730 O   0  0  0  0  0  0  0  0  0  0  0  0
  128.7920  128.0640   68.6050 C   0  0  0  0  0  0  0  0  0  0  0  0
  129.9740  124.8020   67.2250 C   0  0  0  0  0  0  0  0  0  0  0  0
  130.2490  124.2890   65.9600 C   0  0  0  0  0  0  0  0  0  0  0  0
  131.5870  124.1600   63.0050 C   0  0  0  0  0  0  0  0  0  0  0  0
  132.7590  124.4220   63.8460 C   0  0  0  0  0  0  0  0  0  0  0  0
  133.6830  124.6300   64.5110 N   0  0  0  0  0  0  0  0  0  0  0  0
  131.8056  126.0443   60.2520 H   0  0  0  0  0  0  0  0  0  0  0  0
  132.5064  126.9354   58.8586 H   0  0  0  0  0  0  0  0  0  0  0  0
  130.7651  126.4944   58.8586 H   0  0  0  0  0  0  0  0  0  0  0  0
  134.9970  124.5065   59.9950 H   0  0  0  0  0  0  0  0  0  0  0  0
  133.5938  125.4836   60.4975 H   0  0  0  0  0  0  0  0  0  0  0  0
  129.5339  122.6054   58.8254 H   0  0  0  0  0  0  0  0  0  0  0  0
  127.6935  122.2864   57.1993 H   0  0  0  0  0  0  0  0  0  0  0  0
  126.1286  121.4304   56.5090 H   0  0  0  0  0  0  0  0  0  0  0  0
  124.7102  122.1517   55.6756 H   0  0  0  0  0  0  0  0  0  0  0  0
  126.2861  123.0139   55.6756 H   0  0  0  0  0  0  0  0  0  0  0  0
  124.9657  124.2738   59.8917 H   0  0  0  0  0  0  0  0  0  0  0  0
  126.8073  124.5886   61.5221 H   0  0  0  0  0  0  0  0  0  0  0  0
  128.1922  124.5792   62.8963 H   0  0  0  0  0  0  0  0  0  0  0  0
  129.2113  126.9205   64.0584 H   0  0  0  0  0  0  0  0  0  0  0  0
  128.7204  127.8406   66.3113 H   0  0  0  0  0  0  0  0  0  0  0  0
  128.7117  128.3977   69.6501 H   0  0  0  0  0  0  0  0  0  0  0  0
  129.5767  128.6418   68.0948 H   0  0  0  0  0  0  0  0  0  0  0  0
  127.8303  128.2216   68.0948 H   0  0  0  0  0  0  0  0  0  0  0  0
  130.1869  124.1984   68.1196 H   0  0  0  0  0  0  0  0  0  0  0  0
  130.6735  123.2789   65.8626 H   0  0  0  0  0  0  0  0  0  0  0  0
  1  2  1  0
  2  3  1  0
  3  4  2  0
  3  5  1  0
  5  6  1  0
  6  7  1  0
  7  8  2  0
  8  9  1  0
  9 10  1  0
 10 11  2  0
 11 12  1  0
 12 13  2  0
 13 14  1  0
 14 15  1  0
 13 16  1  0
 16 17  2  0
  9 18  2  0
 18 19  1  0
 19 20  1  0
 20 21  2  0
 21 22  1  0
 22 23  2  0
 23 24  1  0
 24 25  1  0
 23 26  1  0
 26 27  2  0
 19 28  2  0
 28 29  1  0
 29 30  3  0
 28  7  1  0
 17 10  1  0
 27 20  1  0
  1 31  1  0
  1 32  1  0
  1 33  1  0
  5 34  1  0
  5 35  1  0
 11 36  1  0
 12 37  1  0
 15 38  1  0
 15 39  1  0
 15 40  1  0
 16 41  1  0
 17 42  1  0
 18 43  1  0
 21 44  1  0
 22 45  1  0
 25 46  1  0
 25 47  1  0
 25 48  1  0
 26 49  1  0
 27 50  1  0
M  END
>  <Binding energies>  (1) 
[-7.82]

>  <Ligand effiencies>  (1) 
[-0.26066666666666666]

>  <Interactions>  (1) 
["V-A:ASP:366:CG:3213, H-B:TYR:539:OH:9850, V-A:ASP:366:CB:3212, V-B:TYR:539:CZ:9849, V-B:PRO:540:N:9856, V-B:PRO:540:CB:9857, V-B:PRO:540:CA:9855, V-B:TYR:539:CE2:9848, V-B:PRO:540:CD:9859, V-B:MET:535:CE:9807, V-B:LEU:363:CD1:8160, V-B:TYR:539:C:9839, V-B:TYR:539:CD2:9846, V-A:ASP:366:CA:3210, V-A:ILE:369:CD1:3239, V-B:GLU:543:CG:9879, H-A:ASN:370:N:3244, V-A:ILE:369:CG2:3237, V-A:TYR:484:CZ:4347, V-B:GLU:543:CB:9878, H-A:TYR:484:OH:4348, V-A:GLU:543:CD:4908, V-A:TYR:484:CE2:4346, H-A:ARG:545:NE:4924, V-B:GLU:543:CD:9880, V-B:HIS:456:CE1:9041, V-A:HIS:456:CE1:4070, V-A:GLU:543:CB:4906, H-A:ARG:545:NH2:4928, V-B:GLU:543:CA:9876, H-A:GLY:454:N:4050, V-B:ILE:538:CG2:9835"]

$$$$
1d_Grossjean_2025
     RDKit          3D

 36 37  0  0  0  0  0  0  0  0999 V2000
  127.1260  127.8630   59.1920 C   0  0  0  0  0  0  0  0  0  0  0  0
  126.8920  126.5380   58.4930 C   0  0  0  0  0  0  0  0  0  0  0  0
  127.7560  126.0700   57.5050 C   0  0  0  0  0  0  0  0  0  0  0  0
  127.4950  124.8360   56.9020 C   0  0  0  0  0  0  0  0  0  0  0  0
  128.4660  124.3370   55.8330 C   0  0  0  0  0  0  0  0  0  0  0  0
  126.3570  124.0970   57.3020 C   0  0  0  0  0  0  0  0  0  0  0  0
  126.0900  122.7810   56.7180 C   0  0  0  0  0  0  0  0  0  0  0  0
  125.8830  121.7410   56.2550 N   0  0  0  0  0  0  0  0  0  0  0  0
  125.5210  124.6610   58.2940 C   0  0  0  0  0  0  0  0  0  0  0  0
  124.0520  123.8720   58.9150 S   0  0  0  0  0  0  0  0  0  0  0  0
  123.9860  124.1790   60.7060 C   0  0  0  0  0  0  0  0  0  0  0  0
  125.0960  123.4420   61.4580 C   0  0  0  0  0  0  0  0  0  0  0  0
  124.8040  122.7500   62.4330 O   0  0  0  0  0  0  0  0  0  0  0  0
  126.3390  123.6000   60.9540 N   0  0  0  0  0  0  0  0  0  0  0  0
  127.5680  123.0840   61.4060 C   0  0  0  0  0  0  0  0  0  0  0  0
  128.3890  122.5250   60.4220 C   0  0  0  0  0  0  0  0  0  0  0  0
  129.6280  121.9910   60.7610 C   0  0  0  0  0  0  0  0  0  0  0  0
  130.0540  122.0210   62.0870 C   0  0  0  0  0  0  0  0  0  0  0  0
  129.2500  122.5830   63.0760 C   0  0  0  0  0  0  0  0  0  0  0  0
  128.0090  123.1170   62.7400 C   0  0  0  0  0  0  0  0  0  0  0  0
  125.7950  125.8500   58.8890 N   0  0  0  0  0  0  0  0  0  0  0  0
  127.0994  127.7126   60.2813 H   0  0  0  0  0  0  0  0  0  0  0  0
  128.1086  128.2626   58.9009 H   0  0  0  0  0  0  0  0  0  0  0  0
  126.3397  128.5750   58.9009 H   0  0  0  0  0  0  0  0  0  0  0  0
  128.6317  126.6635   57.2035 H   0  0  0  0  0  0  0  0  0  0  0  0
  129.3444  123.8856   56.3175 H   0  0  0  0  0  0  0  0  0  0  0  0
  127.9658  123.5842   55.2060 H   0  0  0  0  0  0  0  0  0  0  0  0
  128.7869  125.1819   55.2060 H   0  0  0  0  0  0  0  0  0  0  0  0
  124.0932  125.2591   60.8848 H   0  0  0  0  0  0  0  0  0  0  0  0
  123.0201  123.8066   61.0779 H   0  0  0  0  0  0  0  0  0  0  0  0
  126.4110  124.1610   60.1170 H   0  0  0  0  0  0  0  0  0  0  0  0
  128.0535  122.5074   59.3745 H   0  0  0  0  0  0  0  0  0  0  0  0
  130.2688  121.5468   59.9851 H   0  0  0  0  0  0  0  0  0  0  0  0
  131.0331  121.5975   62.3552 H   0  0  0  0  0  0  0  0  0  0  0  0
  129.5949  122.6048   64.1203 H   0  0  0  0  0  0  0  0  0  0  0  0
  127.3737  123.5647   63.5185 H   0  0  0  0  0  0  0  0  0  0  0  0
  1  2  1  0
  2  3  2  0
  3  4  1  0
  4  5  1  0
  4  6  2  0
  6  7  1  0
  7  8  3  0
  6  9  1  0
  9 10  1  0
 10 11  1  0
 11 12  1  0
 12 13  2  0
 12 14  1  0
 14 15  1  0
 15 16  2  0
 16 17  1  0
 17 18  2  0
 18 19  1  0
 19 20  2  0
  9 21  2  0
 21  2  1  0
 20 15  1  0
  1 22  1  0
  1 23  1  0
  1 24  1  0
  3 25  1  0
  5 26  1  0
  5 27  1  0
  5 28  1  0
 11 29  1  0
 11 30  1  0
 14 31  1  0
 16 32  1  0
 17 33  1  0
 18 34  1  0
 19 35  1  0
 20 36  1  0
M  END
>  <Binding energies>  (1) 
[-6.61]

>  <Ligand effiencies>  (1) 
[-0.3004545454545455]

>  <Interactions>  (1) 
["V-B:TYR:539:CZ:9849, V-B:PRO:540:N:9856, V-B:TYR:539:CE1:9847, V-B:PRO:540:CB:9857, V-B:PRO:540:CA:9855, V-B:TYR:539:CE2:9848, H-B:TYR:539:N:9842, V-B:PRO:540:CD:9859, H-B:ASP:366:OD1:8185, V-B:ASP:366:CG:8184, V-B:MET:535:CE:9807, V-B:PRO:540:C:9853, H-B:ALA:541:N:9863, V-B:TYR:539:CD2:9846, V-B:LEU:363:CA:8156, V-B:ALA:541:CB:9864, V-B:GLU:543:CG:9879, V-A:LEU:475:CD2:4259, V-B:GLU:543:CD:9880, V-B:ASN:362:CB:8147, V-B:ASN:362:C:8143"]

$$$$
1e_Grossjean_2025
     RDKit          3D

 38 39  0  0  0  0  0  0  0  0999 V2000
  126.8790  122.3750   55.5480 C   0  0  0  0  0  0  0  0  0  0  0  0
  126.3180  122.9360   56.8400 C   0  0  0  0  0  0  0  0  0  0  0  0
  125.0050  123.4080   56.9230 C   0  0  0  0  0  0  0  0  0  0  0  0
  124.5580  123.9130   58.1450 C   0  0  0  0  0  0  0  0  0  0  0  0
  125.4230  123.9360   59.2410 C   0  0  0  0  0  0  0  0  0  0  0  0
  126.7240  123.4430   59.0900 C   0  0  0  0  0  0  0  0  0  0  0  0
  127.5520  123.5030   60.2250 N   0  0  0  0  0  0  0  0  0  0  0  0
  127.2550  123.1740   61.5010 C   0  0  0  0  0  0  0  0  0  0  0  0
  126.1600  122.7610   61.8880 O   0  0  0  0  0  0  0  0  0  0  0  0
  128.3810  123.3690   62.5190 C   0  0  0  0  0  0  0  0  0  0  0  0
  129.8540  122.3880   62.1000 S   0  0  0  0  0  0  0  0  0  0  0  0
  130.8500  123.3170   60.9510 C   0  0  0  0  0  0  0  0  0  0  0  0
  130.1210  123.9610   60.0040 N   0  0  0  0  0  0  0  0  0  0  0  0
  130.7690  124.6990   59.0720 C   0  0  0  0  0  0  0  0  0  0  0  0
  129.8890  125.3940   58.0510 C   0  0  0  0  0  0  0  0  0  0  0  0
  132.1570  124.8150   59.0370 C   0  0  0  0  0  0  0  0  0  0  0  0
  132.9190  124.1370   59.9940 C   0  0  0  0  0  0  0  0  0  0  0  0
  134.4400  124.2660   59.9230 C   0  0  0  0  0  0  0  0  0  0  0  0
  132.2650  123.3570   60.9750 C   0  0  0  0  0  0  0  0  0  0  0  0
  133.0500  122.5940   61.9470 C   0  0  0  0  0  0  0  0  0  0  0  0
  133.6740  121.9910   62.7140 N   0  0  0  0  0  0  0  0  0  0  0  0
  127.1700  122.9510   57.8960 N   0  0  0  0  0  0  0  0  0  0  0  0
  127.6396  121.6144   55.7782 H   0  0  0  0  0  0  0  0  0  0  0  0
  126.0671  121.9167   54.9642 H   0  0  0  0  0  0  0  0  0  0  0  0
  127.3373  123.1869   54.9642 H   0  0  0  0  0  0  0  0  0  0  0  0
  124.3404  123.3821   56.0469 H   0  0  0  0  0  0  0  0  0  0  0  0
  123.5297  124.2909   58.2442 H   0  0  0  0  0  0  0  0  0  0  0  0
  125.0867  124.3358   60.2090 H   0  0  0  0  0  0  0  0  0  0  0  0
  128.4690  123.8930   60.0600 H   0  0  0  0  0  0  0  0  0  0  0  0
  128.6579  124.4333   62.5430 H   0  0  0  0  0  0  0  0  0  0  0  0
  128.0151  123.0314   63.4999 H   0  0  0  0  0  0  0  0  0  0  0  0
  129.1283  125.9948   58.5710 H   0  0  0  0  0  0  0  0  0  0  0  0
  130.5069  126.0505   57.4207 H   0  0  0  0  0  0  0  0  0  0  0  0
  129.3935  124.6408   57.4207 H   0  0  0  0  0  0  0  0  0  0  0  0
  132.6463  125.4308   58.2680 H   0  0  0  0  0  0  0  0  0  0  0  0
  134.8530  124.3010   60.9419 H   0  0  0  0  0  0  0  0  0  0  0  0
  134.8569  123.4000   59.3880 H   0  0  0  0  0  0  0  0  0  0  0  0
  134.7051  125.1898   59.3880 H   0  0  0  0  0  0  0  0  0  0  0  0
  1  2  1  0
  2  3  2  0
  3  4  1  0
  4  5  2  0
  5  6  1  0
  6  7  1  0
  7  8  1  0
  8  9  2  0
  8 10  1  0
 10 11  1  0
 11 12  1  0
 12 13  2  0
 13 14  1  0
 14 15  1  0
 14 16  2  0
 16 17  1  0
 17 18  1  0
 17 19  2  0
 19 20  1  0
 20 21  3  0
  6 22  2  0
 22  2  1  0
 19 12  1  0
  1 23  1  0
  1 24  1  0
  1 25  1  0
  3 26  1  0
  4 27  1  0
  5 28  1  0
  7 29  1  0
 10 30  1  0
 10 31  1  0
 15 32  1  0
 15 33  1  0
 15 34  1  0
 16 35  1  0
 18 36  1  0
 18 37  1  0
 18 38  1  0
M  END
>  <Binding energies>  (1) 
[-6.62]

>  <Ligand effiencies>  (1) 
[-0.28782608695652173]

>  <Interactions>  (1) 
["V-A:ASP:366:CG:3213, V-A:ASP:366:CB:3212, V-B:TYR:539:CZ:9849, V-B:PRO:540:N:9856, V-B:TYR:539:CE1:9847, V-B:PRO:540:CB:9857, V-B:TYR:539:CD1:9845, V-B:PRO:540:CA:9855, V-B:TYR:539:CE2:9848, V-B:PRO:540:CD:9859, V-B:MET:535:CE:9807, V-B:LEU:363:CD1:8160, V-B:PRO:540:C:9853, H-B:ALA:541:N:9863, V-B:LEU:363:CA:8156, V-A:ASP:366:CA:3210, V-A:ILE:369:CD1:3239, V-B:GLU:543:CG:9879, V-A:ILE:369:CB:3236, V-A:ILE:369:CG2:3237, V-A:LEU:475:CD2:4259, V-B:GLU:543:CD:9880, H-A:GLY:454:N:4050, V-B:ILE:538:CA:9832, V-B:ILE:538:C:9830, V-A:ILE:369:CG1:3238"]

$$$$
1f_Grossjean_2025
     RDKit          3D

 35 36  0  0  0  0  0  0  0  0999 V2000
  131.3610  125.4110   66.7070 C   0  0  0  0  0  0  0  0  0  0  0  0
  131.5940  124.8330   65.3230 C   0  0  0  0  0  0  0  0  0  0  0  0
  132.8230  124.9550   64.6800 C   0  0  0  0  0  0  0  0  0  0  0  0
  132.9750  124.4130   63.3990 C   0  0  0  0  0  0  0  0  0  0  0  0
  134.3270  124.5750   62.7060 C   0  0  0  0  0  0  0  0  0  0  0  0
  131.8830  123.7480   62.7950 C   0  0  0  0  0  0  0  0  0  0  0  0
  132.0070  123.2230   61.4320 C   0  0  0  0  0  0  0  0  0  0  0  0
  132.1060  122.8090   60.3570 N   0  0  0  0  0  0  0  0  0  0  0  0
  130.6810  123.6470   63.5330 C   0  0  0  0  0  0  0  0  0  0  0  0
  129.2040  122.8490   62.9370 S   0  0  0  0  0  0  0  0  0  0  0  0
  128.1700  124.1000   62.1010 C   0  0  0  0  0  0  0  0  0  0  0  0
  127.1500  123.5330   61.1020 C   0  0  0  0  0  0  0  0  0  0  0  0
  126.1150  122.9990   61.5020 O   0  0  0  0  0  0  0  0  0  0  0  0
  127.5070  123.6540   59.8060 N   0  0  0  0  0  0  0  0  0  0  0  0
  126.8190  123.2570   58.6440 C   0  0  0  0  0  0  0  0  0  0  0  0
  125.5070  123.6320   58.3000 C   0  0  0  0  0  0  0  0  0  0  0  0
  124.9450  123.1660   57.1080 C   0  0  0  0  0  0  0  0  0  0  0  0
  125.7110  122.3390   56.2860 C   0  0  0  0  0  0  0  0  0  0  0  0
  126.9790  121.9670   56.5920 N   0  0  0  0  0  0  0  0  0  0  0  0
  127.5110  122.4280   57.7540 C   0  0  0  0  0  0  0  0  0  0  0  0
  130.5370  124.1980   64.7650 N   0  0  0  0  0  0  0  0  0  0  0  0
  131.6583  124.6736   67.4671 H   0  0  0  0  0  0  0  0  0  0  0  0
  131.9609  126.3250   66.8284 H   0  0  0  0  0  0  0  0  0  0  0  0
  130.2949  125.6534   66.8284 H   0  0  0  0  0  0  0  0  0  0  0  0
  133.6617  125.4697   65.1716 H   0  0  0  0  0  0  0  0  0  0  0  0
  135.1185  124.6698   63.4640 H   0  0  0  0  0  0  0  0  0  0  0  0
  134.5248  123.6941   62.0776 H   0  0  0  0  0  0  0  0  0  0  0  0
  134.3111  125.4777   62.0776 H   0  0  0  0  0  0  0  0  0  0  0  0
  127.6190  124.6586   62.8720 H   0  0  0  0  0  0  0  0  0  0  0  0
  128.8580  124.7283   61.5164 H   0  0  0  0  0  0  0  0  0  0  0  0
  128.4070  124.0770   59.6310 H   0  0  0  0  0  0  0  0  0  0  0  0
  124.9269  124.2882   58.9655 H   0  0  0  0  0  0  0  0  0  0  0  0
  123.9198  123.4456   56.8239 H   0  0  0  0  0  0  0  0  0  0  0  0
  125.2672  121.9725   55.3486 H   0  0  0  0  0  0  0  0  0  0  0  0
  128.5400  122.1341   58.0086 H   0  0  0  0  0  0  0  0  0  0  0  0
  1  2  1  0
  2  3  2  0
  3  4  1  0
  4  5  1  0
  4  6  2  0
  6  7  1  0
  7  8  3  0
  6  9  1  0
  9 10  1  0
 10 11  1  0
 11 12  1  0
 12 13  2  0
 12 14  1  0
 14 15  1  0
 15 16  2  0
 16 17  1  0
 17 18  2  0
 18 19  1  0
 19 20  2  0
  9 21  2  0
 21  2  1  0
 20 15  1  0
  1 22  1  0
  1 23  1  0
  1 24  1  0
  3 25  1  0
  5 26  1  0
  5 27  1  0
  5 28  1  0
 11 29  1  0
 11 30  1  0
 14 31  1  0
 16 32  1  0
 17 33  1  0
 18 34  1  0
 20 35  1  0
M  END
>  <Binding energies>  (1) 
[-6.84]

>  <Ligand effiencies>  (1) 
[-0.3109090909090909]

>  <Interactions>  (1) 
["V-B:TYR:539:CZ:9849, V-B:PRO:540:N:9856, V-B:PRO:540:CB:9857, V-B:TYR:539:CD1:9845, V-B:PRO:540:CA:9855, V-B:TYR:539:CE2:9848, H-B:TYR:539:N:9842, V-B:PRO:540:CD:9859, V-B:MET:535:CE:9807, V-B:LEU:363:CD1:8160, V-B:TYR:539:C:9839, V-B:TYR:539:CG:9844, H-B:ALA:541:N:9863, V-B:TYR:539:CD2:9846, V-A:ILE:369:CD1:3239, V-B:GLU:543:CG:9879, V-A:TYR:484:CZ:4347, V-A:GLY:453:CA:4044, H-A:TYR:484:OH:4348, V-A:ARG:545:CZ:4926, V-B:GLU:543:CD:9880, V-A:HIS:456:CE1:4070, V-A:GLY:453:C:4042, V-B:ILE:538:CG2:9835, V-B:TYR:539:CA:9841"]

$$$$
1g_Grossjean_2025
     RDKit          3D

 39 40  0  0  0  0  0  0  0  0999 V2000
  126.4700  128.1520   58.6620 C   0  0  0  0  0  0  0  0  0  0  0  0
  126.4660  126.7340   58.1220 C   0  0  0  0  0  0  0  0  0  0  0  0
  127.4990  126.2560   57.3170 C   0  0  0  0  0  0  0  0  0  0  0  0
  127.4330  124.9450   56.8350 C   0  0  0  0  0  0  0  0  0  0  0  0
  128.5690  124.4480   55.9420 C   0  0  0  0  0  0  0  0  0  0  0  0
  126.3280  124.1350   57.1820 C   0  0  0  0  0  0  0  0  0  0  0  0
  126.2110  122.7760   56.6460 C   0  0  0  0  0  0  0  0  0  0  0  0
  126.1220  121.7040   56.2200 N   0  0  0  0  0  0  0  0  0  0  0  0
  125.3380  124.6950   58.0240 C   0  0  0  0  0  0  0  0  0  0  0  0
  123.8890  123.8160   58.5660 S   0  0  0  0  0  0  0  0  0  0  0  0
  123.8700  123.8750   60.3830 C   0  0  0  0  0  0  0  0  0  0  0  0
  125.2800  123.8160   60.9730 C   0  0  0  0  0  0  0  0  0  0  0  0
  125.6610  122.8010   61.5590 O   0  0  0  0  0  0  0  0  0  0  0  0
  126.0380  124.9140   60.8140 N   0  0  0  0  0  0  0  0  0  0  0  0
  127.4290  125.0550   61.2450 C   0  0  0  0  0  0  0  0  0  0  0  0
  128.1930  123.7380   61.3400 C   0  0  0  0  0  0  0  0  0  0  0  0
  128.6550  123.2860   62.5800 C   0  0  0  0  0  0  0  0  0  0  0  0
  129.3520  122.0840   62.6660 C   0  0  0  0  0  0  0  0  0  0  0  0
  129.5810  121.3350   61.5130 C   0  0  0  0  0  0  0  0  0  0  0  0
  129.1190  121.7770   60.2760 C   0  0  0  0  0  0  0  0  0  0  0  0
  128.4230  122.9800   60.1880 C   0  0  0  0  0  0  0  0  0  0  0  0
  125.3990  125.9760   58.4690 N   0  0  0  0  0  0  0  0  0  0  0  0
  126.4699  128.1256   59.7617 H   0  0  0  0  0  0  0  0  0  0  0  0
  127.3696  128.6767   58.3079 H   0  0  0  0  0  0  0  0  0  0  0  0
  125.5733  128.6817   58.3079 H   0  0  0  0  0  0  0  0  0  0  0  0
  128.3537  126.9008   57.0646 H   0  0  0  0  0  0  0  0  0  0  0  0
  129.3969  124.0858   56.5693 H   0  0  0  0  0  0  0  0  0  0  0  0
  128.2040  123.6274   55.3069 H   0  0  0  0  0  0  0  0  0  0  0  0
  128.9240  125.2730   55.3069 H   0  0  0  0  0  0  0  0  0  0  0  0
  123.3901  124.8117   60.7029 H   0  0  0  0  0  0  0  0  0  0  0  0
  123.3130  122.9985   60.7456 H   0  0  0  0  0  0  0  0  0  0  0  0
  125.6520  125.6950   60.3020 H   0  0  0  0  0  0  0  0  0  0  0  0
  127.9489  125.7037   60.5246 H   0  0  0  0  0  0  0  0  0  0  0  0
  127.4031  125.4782   62.2600 H   0  0  0  0  0  0  0  0  0  0  0  0
  128.4678  123.8798   63.4869 H   0  0  0  0  0  0  0  0  0  0  0  0
  129.7202  121.7271   63.6391 H   0  0  0  0  0  0  0  0  0  0  0  0
  130.1321  120.3854   61.5809 H   0  0  0  0  0  0  0  0  0  0  0  0
  129.3031  121.1782   59.3718 H   0  0  0  0  0  0  0  0  0  0  0  0
  128.0548  123.3333   59.2135 H   0  0  0  0  0  0  0  0  0  0  0  0
  1  2  1  0
  2  3  2  0
  3  4  1  0
  4  5  1  0
  4  6  2  0
  6  7  1  0
  7  8  3  0
  6  9  1  0
  9 10  1  0
 10 11  1  0
 11 12  1  0
 12 13  2  0
 12 14  1  0
 14 15  1  0
 15 16  1  0
 16 17  2  0
 17 18  1  0
 18 19  2  0
 19 20  1  0
 20 21  2  0
  9 22  2  0
 22  2  1  0
 21 16  1  0
  1 23  1  0
  1 24  1  0
  1 25  1  0
  3 26  1  0
  5 27  1  0
  5 28  1  0
  5 29  1  0
 11 30  1  0
 11 31  1  0
 14 32  1  0
 15 33  1  0
 15 34  1  0
 17 35  1  0
 18 36  1  0
 19 37  1  0
 20 38  1  0
 21 39  1  0
M  END
>  <Binding energies>  (1) 
[-7.27]

>  <Ligand effiencies>  (1) 
[-0.3160869565217391]

>  <Interactions>  (1) 
["V-B:TYR:539:CZ:9849, V-B:PRO:540:N:9856, V-B:TYR:539:CE1:9847, V-B:PRO:540:CB:9857, V-B:PRO:540:CA:9855, V-B:TYR:539:CE2:9848, H-B:TYR:539:N:9842, H-B:TYR:531:OH:9767, V-B:PRO:540:CD:9859, H-B:ASP:366:OD1:8185, V-B:ASP:366:CG:8184, V-B:MET:535:CE:9807, V-B:TYR:539:C:9839, H-B:GLU:543:OE1:9881, H-B:ALA:541:N:9863, V-B:TYR:539:CD2:9846, V-B:LEU:363:CA:8156, V-B:ALA:541:CB:9864, V-B:GLU:543:CG:9879, V-A:LEU:475:CD2:4259, V-B:GLU:543:CD:9880, V-B:ASN:362:CB:8147, V-B:ASN:362:C:8143"]

$$$$
1h_Grossjean_2025
     RDKit          3D

 51 52  0  0  0  0  0  0  0  0999 V2000
  133.5610  121.5930   61.2070 C   0  0  0  0  0  0  0  0  0  0  0  0
  134.0910  122.8460   60.7900 O   0  0  0  0  0  0  0  0  0  0  0  0
  133.2310  123.9060   60.5660 C   0  0  0  0  0  0  0  0  0  0  0  0
  132.7970  124.3070   59.2930 C   0  0  0  0  0  0  0  0  0  0  0  0
  131.9380  125.3960   59.1410 C   0  0  0  0  0  0  0  0  0  0  0  0
  131.4560  125.8080   57.7530 C   0  0  0  0  0  0  0  0  0  0  0  0
  130.0810  125.4050   57.4580 N   0  0  0  0  0  0  0  0  0  0  0  0
  129.3990  125.7250   56.3430 C   0  0  0  0  0  0  0  0  0  0  0  0
  129.8740  126.3830   55.4180 O   0  0  0  0  0  0  0  0  0  0  0  0
  127.9550  125.2300   56.2610 C   0  0  0  0  0  0  0  0  0  0  0  0
  127.8080  123.4790   56.7280 S   0  0  0  0  0  0  0  0  0  0  0  0
  127.6320  123.3930   58.5030 C   0  0  0  0  0  0  0  0  0  0  0  0
  128.7590  123.0770   59.1930 N   0  0  0  0  0  0  0  0  0  0  0  0
  128.6970  122.9980   60.5430 C   0  0  0  0  0  0  0  0  0  0  0  0
  129.9960  122.6460   61.2420 C   0  0  0  0  0  0  0  0  0  0  0  0
  127.5220  123.2260   61.2560 C   0  0  0  0  0  0  0  0  0  0  0  0
  126.3550  123.5500   60.5570 C   0  0  0  0  0  0  0  0  0  0  0  0
  125.0790  123.7980   61.3590 C   0  0  0  0  0  0  0  0  0  0  0  0
  126.3970  123.6380   59.1470 C   0  0  0  0  0  0  0  0  0  0  0  0
  125.1890  123.9730   58.3880 C   0  0  0  0  0  0  0  0  0  0  0  0
  124.2340  124.2370   57.7900 N   0  0  0  0  0  0  0  0  0  0  0  0
  131.4760  126.0730   60.2710 C   0  0  0  0  0  0  0  0  0  0  0  0
  131.8900  125.6900   61.5570 C   0  0  0  0  0  0  0  0  0  0  0  0
  131.4750  126.3140   62.7190 O   0  0  0  0  0  0  0  0  0  0  0  0
  130.0830  126.4950   62.9570 C   0  0  0  0  0  0  0  0  0  0  0  0
  132.7760  124.6110   61.6900 C   0  0  0  0  0  0  0  0  0  0  0  0
  133.1850  124.2220   62.9420 O   0  0  0  0  0  0  0  0  0  0  0  0
  132.1600  123.6270   63.7260 C   0  0  0  0  0  0  0  0  0  0  0  0
  133.5428  121.5500   62.3060 H   0  0  0  0  0  0  0  0  0  0  0  0
  132.5380  121.4801   60.8187 H   0  0  0  0  0  0  0  0  0  0  0  0
  134.1924  120.7803   60.8187 H   0  0  0  0  0  0  0  0  0  0  0  0
  133.1382  123.7560   58.4042 H   0  0  0  0  0  0  0  0  0  0  0  0
  131.5198  126.9034   57.6754 H   0  0  0  0  0  0  0  0  0  0  0  0
  132.1018  125.2942   57.0257 H   0  0  0  0  0  0  0  0  0  0  0  0
  129.6100  124.8720   58.1740 H   0  0  0  0  0  0  0  0  0  0  0  0
  127.3340  125.8322   56.9405 H   0  0  0  0  0  0  0  0  0  0  0  0
  127.6190  125.3331   55.2187 H   0  0  0  0  0  0  0  0  0  0  0  0
  129.8487  122.6859   62.3314 H   0  0  0  0  0  0  0  0  0  0  0  0
  130.3059  121.6315   60.9508 H   0  0  0  0  0  0  0  0  0  0  0  0
  130.7757  123.3653   60.9508 H   0  0  0  0  0  0  0  0  0  0  0  0
  127.5124  123.1522   62.3535 H   0  0  0  0  0  0  0  0  0  0  0  0
  125.3072  123.7536   62.4341 H   0  0  0  0  0  0  0  0  0  0  0  0
  124.6768  124.7911   61.1102 H   0  0  0  0  0  0  0  0  0  0  0  0
  124.3340  123.0278   61.1102 H   0  0  0  0  0  0  0  0  0  0  0  0
  130.7796  126.9162   60.1527 H   0  0  0  0  0  0  0  0  0  0  0  0
  129.8964  126.5193   64.0408 H   0  0  0  0  0  0  0  0  0  0  0  0
  129.7544  127.4434   62.5070 H   0  0  0  0  0  0  0  0  0  0  0  0
  129.5227  125.6621   62.5070 H   0  0  0  0  0  0  0  0  0  0  0  0
  132.3904  123.7607   64.7933 H   0  0  0  0  0  0  0  0  0  0  0  0
  131.1972  124.1066   63.4958 H   0  0  0  0  0  0  0  0  0  0  0  0
  132.0990  122.5531   63.4958 H   0  0  0  0  0  0  0  0  0  0  0  0
  1  2  1  0
  2  3  1  0
  3  4  2  0
  4  5  1  0
  5  6  1  0
  6  7  1  0
  7  8  1  0
  8  9  2  0
  8 10  1  0
 10 11  1  0
 11 12  1  0
 12 13  2  0
 13 14  1  0
 14 15  1  0
 14 16  2  0
 16 17  1  0
 17 18  1  0
 17 19  2  0
 19 20  1  0
 20 21  3  0
  5 22  2  0
 22 23  1  0
 23 24  1  0
 24 25  1  0
 23 26  2  0
 26 27  1  0
 27 28  1  0
 26  3  1  0
 19 12  1  0
  1 29  1  0
  1 30  1  0
  1 31  1  0
  4 32  1  0
  6 33  1  0
  6 34  1  0
  7 35  1  0
 10 36  1  0
 10 37  1  0
 15 38  1  0
 15 39  1  0
 15 40  1  0
 16 41  1  0
 18 42  1  0
 18 43  1  0
 18 44  1  0
 22 45  1  0
 25 46  1  0
 25 47  1  0
 25 48  1  0
 28 49  1  0
 28 50  1  0
 28 51  1  0
M  END
>  <Binding energies>  (1) 
[-5.97]

>  <Ligand effiencies>  (1) 
[-0.20586206896551723]

>  <Interactions>  (1) 
["V-A:ASP:366:CG:3213, H-A:TYR:531:OH:4795, H-B:TYR:539:OH:9850, V-A:ASP:366:CB:3212, V-B:TYR:539:CZ:9849, V-B:PRO:540:CB:9857, V-B:PRO:540:CA:9855, V-B:TYR:539:CE2:9848, V-A:ILE:369:CG2:3237, V-A:LEU:475:CD2:4259, V-A:GLU:543:CD:4908, H-A:ARG:545:NH2:4928"]

$$$$
1i_Grossjean_2025
     RDKit          3D

 32 33  0  0  0  0  0  0  0  0999 V2000
  127.3840  122.3640   55.0970 C   0  0  0  0  0  0  0  0  0  0  0  0
  126.9230  122.8220   56.4670 C   0  0  0  0  0  0  0  0  0  0  0  0
  125.6400  123.3230   56.6750 C   0  0  0  0  0  0  0  0  0  0  0  0
  125.2660  123.7210   57.9640 C   0  0  0  0  0  0  0  0  0  0  0  0
  123.8480  124.2510   58.1710 C   0  0  0  0  0  0  0  0  0  0  0  0
  126.2000  123.6120   59.0200 C   0  0  0  0  0  0  0  0  0  0  0  0
  125.8140  123.9750   60.3850 C   0  0  0  0  0  0  0  0  0  0  0  0
  125.5060  124.2620   61.4640 N   0  0  0  0  0  0  0  0  0  0  0  0
  127.4890  123.1150   58.7110 C   0  0  0  0  0  0  0  0  0  0  0  0
  128.7850  122.9120   59.9130 S   0  0  0  0  0  0  0  0  0  0  0  0
  129.9210  124.3200   59.7400 C   0  0  0  0  0  0  0  0  0  0  0  0
  129.4240  125.3380   58.7100 C   0  0  0  0  0  0  0  0  0  0  0  0
  128.7840  126.3180   59.0910 O   0  0  0  0  0  0  0  0  0  0  0  0
  129.7430  125.0680   57.4250 N   0  0  0  0  0  0  0  0  0  0  0  0
  129.4160  125.8160   56.3030 C   0  0  0  0  0  0  0  0  0  0  0  0
  128.1530  126.3690   56.0990 C   0  0  0  0  0  0  0  0  0  0  0  0
  128.2390  127.0220   54.8910 C   0  0  0  0  0  0  0  0  0  0  0  0
  129.4880  126.8690   54.3920 O   0  0  0  0  0  0  0  0  0  0  0  0
  130.2250  126.1010   55.2960 N   0  0  0  0  0  0  0  0  0  0  0  0
  127.8350  122.7130   57.4620 N   0  0  0  0  0  0  0  0  0  0  0  0
  128.1602  121.5928   55.2102 H   0  0  0  0  0  0  0  0  0  0  0  0
  126.5301  121.9463   54.5435 H   0  0  0  0  0  0  0  0  0  0  0  0
  127.7961  123.2206   54.5435 H   0  0  0  0  0  0  0  0  0  0  0  0
  124.9307  123.4047   55.8382 H   0  0  0  0  0  0  0  0  0  0  0  0
  123.6393  124.3290   59.2482 H   0  0  0  0  0  0  0  0  0  0  0  0
  123.7563  125.2441   57.7069 H   0  0  0  0  0  0  0  0  0  0  0  0
  123.1274  123.5615   57.7069 H   0  0  0  0  0  0  0  0  0  0  0  0
  130.0171  124.8200   60.7150 H   0  0  0  0  0  0  0  0  0  0  0  0
  130.8902  123.9325   59.3928 H   0  0  0  0  0  0  0  0  0  0  0  0
  130.2480  124.2120   57.2420 H   0  0  0  0  0  0  0  0  0  0  0  0
  127.2770  126.2986   56.7606 H   0  0  0  0  0  0  0  0  0  0  0  0
  127.4230  127.5794   54.4078 H   0  0  0  0  0  0  0  0  0  0  0  0
  1  2  1  0
  2  3  2  0
  3  4  1  0
  4  5  1  0
  4  6  2  0
  6  7  1  0
  7  8  3  0
  6  9  1  0
  9 10  1  0
 10 11  1  0
 11 12  1  0
 12 13  2  0
 12 14  1  0
 14 15  1  0
 15 16  1  0
 16 17  2  0
 17 18  1  0
 18 19  1  0
  9 20  2  0
 20  2  1  0
 19 15  2  0
  1 21  1  0
  1 22  1  0
  1 23  1  0
  3 24  1  0
  5 25  1  0
  5 26  1  0
  5 27  1  0
 11 28  1  0
 11 29  1  0
 14 30  1  0
 16 31  1  0
 17 32  1  0
M  END
>  <Binding energies>  (1) 
[-6.31]

>  <Ligand effiencies>  (1) 
[-0.30047619047619045]

>  <Interactions>  (1) 
["H-A:TYR:531:OH:4795, H-B:TYR:539:OH:9850, V-B:TYR:539:CZ:9849, V-B:PRO:540:N:9856, V-B:TYR:539:CE1:9847, V-B:PRO:540:CB:9857, V-B:TYR:539:CD1:9845, V-B:PRO:540:CA:9855, V-B:TYR:539:CE2:9848, V-B:ASP:366:CB:8183, V-B:ASP:366:CG:8184, V-B:MET:535:CE:9807, V-B:LEU:363:CD1:8160, V-B:TYR:539:C:9839, V-B:TYR:539:CG:9844, H-A:ASN:370:ND2:3248, V-B:LEU:363:CA:8156, V-A:MET:535:CE:4835, V-B:TYR:531:CE2:9765, V-B:MET:535:CG:9805, V-B:ILE:538:CA:9832, H-B:ARG:545:NH2:9900, V-B:ILE:538:C:9830, V-B:LEU:363:CB:8158"]

$$$$
1j_Grossjean_2025
     RDKit          3D

 32 33  0  0  0  0  0  0  0  0999 V2000
  126.6530  127.8140   59.0460 C   0  0  0  0  0  0  0  0  0  0  0  0
  126.5750  126.4800   58.3280 C   0  0  0  0  0  0  0  0  0  0  0  0
  127.5250  126.1050   57.3810 C   0  0  0  0  0  0  0  0  0  0  0  0
  127.4100  124.8570   56.7600 C   0  0  0  0  0  0  0  0  0  0  0  0
  128.4740  124.4610   55.7380 C   0  0  0  0  0  0  0  0  0  0  0  0
  126.3290  124.0130   57.1020 C   0  0  0  0  0  0  0  0  0  0  0  0
  126.2180  122.6800   56.5030 C   0  0  0  0  0  0  0  0  0  0  0  0
  126.1340  121.6280   56.0280 N   0  0  0  0  0  0  0  0  0  0  0  0
  125.3960  124.4860   58.0540 C   0  0  0  0  0  0  0  0  0  0  0  0
  123.9780  123.5590   58.5990 S   0  0  0  0  0  0  0  0  0  0  0  0
  123.7470  123.8920   60.3700 C   0  0  0  0  0  0  0  0  0  0  0  0
  124.8800  123.3090   61.2160 C   0  0  0  0  0  0  0  0  0  0  0  0
  124.6090  122.7040   62.2540 O   0  0  0  0  0  0  0  0  0  0  0  0
  126.1280  123.5110   60.7380 N   0  0  0  0  0  0  0  0  0  0  0  0
  127.3160  123.0900   61.3200 C   0  0  0  0  0  0  0  0  0  0  0  0
  127.5250  122.7540   62.5750 N   0  0  0  0  0  0  0  0  0  0  0  0
  128.7790  122.4030   62.7780 C   0  0  0  0  0  0  0  0  0  0  0  0
  129.6200  122.4490   61.6690 C   0  0  0  0  0  0  0  0  0  0  0  0
  128.7060  122.9820   60.2900 S   0  0  0  0  0  0  0  0  0  0  0  0
  125.5290  125.6890   58.6670 N   0  0  0  0  0  0  0  0  0  0  0  0
  126.6432  127.6464   60.1331 H   0  0  0  0  0  0  0  0  0  0  0  0
  127.5828  128.3290   58.7628 H   0  0  0  0  0  0  0  0  0  0  0  0
  125.7896  128.4339   58.7628 H   0  0  0  0  0  0  0  0  0  0  0  0
  128.3542  126.7809   57.1250 H   0  0  0  0  0  0  0  0  0  0  0  0
  129.3797  124.1239   56.2635 H   0  0  0  0  0  0  0  0  0  0  0  0
  128.0910  123.6452   55.1073 H   0  0  0  0  0  0  0  0  0  0  0  0
  128.7175  125.3287   55.1073 H   0  0  0  0  0  0  0  0  0  0  0  0
  123.7122  124.9805   60.5250 H   0  0  0  0  0  0  0  0  0  0  0  0
  122.8076  123.4145   60.6854 H   0  0  0  0  0  0  0  0  0  0  0  0
  126.2210  124.0460   59.8870 H   0  0  0  0  0  0  0  0  0  0  0  0
  129.1413  122.0910   63.7686 H   0  0  0  0  0  0  0  0  0  0  0  0
  130.6891  122.1901   61.6662 H   0  0  0  0  0  0  0  0  0  0  0  0
  1  2  1  0
  2  3  2  0
  3  4  1  0
  4  5  1  0
  4  6  2  0
  6  7  1  0
  7  8  3  0
  6  9  1  0
  9 10  1  0
 10 11  1  0
 11 12  1  0
 12 13  2  0
 12 14  1  0
 14 15  1  0
 15 16  2  0
 16 17  1  0
 17 18  2  0
 18 19  1  0
  9 20  2  0
 20  2  1  0
 19 15  1  0
  1 21  1  0
  1 22  1  0
  1 23  1  0
  3 24  1  0
  5 25  1  0
  5 26  1  0
  5 27  1  0
 11 28  1  0
 11 29  1  0
 14 30  1  0
 17 31  1  0
 18 32  1  0
M  END
>  <Binding energies>  (1) 
[-6.34]

>  <Ligand effiencies>  (1) 
[-0.3019047619047619]

>  <Interactions>  (1) 
["V-B:TYR:539:CZ:9849, V-B:PRO:540:N:9856, V-B:TYR:539:CE1:9847, V-B:PRO:540:CB:9857, V-B:PRO:540:CA:9855, V-B:TYR:539:CE2:9848, H-B:TYR:539:N:9842, H-B:TYR:531:OH:9767, V-B:PRO:540:CD:9859, H-B:ASP:366:OD1:8185, V-B:ASP:366:CG:8184, V-B:MET:535:CE:9807, V-B:PRO:540:C:9853, H-B:ALA:541:N:9863, V-B:LEU:363:CA:8156, V-B:ALA:541:CB:9864, V-B:ALA:541:CA:9862, V-B:ASN:362:CB:8147, V-B:ASN:362:C:8143"]

$$$$
1k_Grossjean_2025
     RDKit          3D

 50 50  0  0  0  0  0  0  0  0999 V2000
  132.8170  125.0160   64.9000 C   0  0  0  0  0  0  0  0  0  0  0  0
  133.9470  124.6080   64.1460 O   0  0  0  0  0  0  0  0  0  0  0  0
  133.6160  123.8080   63.0190 C   0  0  0  0  0  0  0  0  0  0  0  0
  133.4090  124.7080   61.7940 C   0  0  0  0  0  0  0  0  0  0  0  0
  134.2480  124.2660   60.7340 O   0  0  0  0  0  0  0  0  0  0  0  0
  133.5470  123.6050   59.6890 C   0  0  0  0  0  0  0  0  0  0  0  0
  132.0460  123.6020   60.0040 C   0  0  0  0  0  0  0  0  0  0  0  0
  131.4230  124.7070   59.3600 O   0  0  0  0  0  0  0  0  0  0  0  0
  132.3150  125.4840   58.5710 C   0  0  0  0  0  0  0  0  0  0  0  0
  131.5470  126.1160   57.3950 C   0  0  0  0  0  0  0  0  0  0  0  0
  130.1800  125.6180   57.2400 N   0  0  0  0  0  0  0  0  0  0  0  0
  129.4040  125.8080   56.1590 C   0  0  0  0  0  0  0  0  0  0  0  0
  129.7770  126.4330   55.1640 O   0  0  0  0  0  0  0  0  0  0  0  0
  127.9960  125.1960   56.2370 C   0  0  0  0  0  0  0  0  0  0  0  0
  127.9250  123.4400   56.7350 S   0  0  0  0  0  0  0  0  0  0  0  0
  127.5450  123.3390   58.4790 C   0  0  0  0  0  0  0  0  0  0  0  0
  128.5550  122.9130   59.2810 N   0  0  0  0  0  0  0  0  0  0  0  0
  128.3320  122.8040   60.6110 C   0  0  0  0  0  0  0  0  0  0  0  0
  129.5040  122.3140   61.4380 C   0  0  0  0  0  0  0  0  0  0  0  0
  127.1070  123.1200   61.1960 C   0  0  0  0  0  0  0  0  0  0  0  0
  126.0620  123.5670   60.3810 C   0  0  0  0  0  0  0  0  0  0  0  0
  124.7270  123.9080   61.0420 C   0  0  0  0  0  0  0  0  0  0  0  0
  126.2730  123.6830   58.9890 C   0  0  0  0  0  0  0  0  0  0  0  0
  125.1940  124.1460   58.1110 C   0  0  0  0  0  0  0  0  0  0  0  0
  124.3410  124.5110   57.4190 N   0  0  0  0  0  0  0  0  0  0  0  0
  133.0434  124.9342   65.9733 H   0  0  0  0  0  0  0  0  0  0  0  0
  132.5706  126.0598   64.6557 H   0  0  0  0  0  0  0  0  0  0  0  0
  131.9606  124.3703   64.6557 H   0  0  0  0  0  0  0  0  0  0  0  0
  134.4338  123.0999   62.8194 H   0  0  0  0  0  0  0  0  0  0  0  0
  132.6899  123.2512   63.2247 H   0  0  0  0  0  0  0  0  0  0  0  0
  132.3575  124.6570   61.4750 H   0  0  0  0  0  0  0  0  0  0  0  0
  133.6632  125.7461   62.0544 H   0  0  0  0  0  0  0  0  0  0  0  0
  133.7215  124.1322   58.7395 H   0  0  0  0  0  0  0  0  0  0  0  0
  133.9064  122.5688   59.6039 H   0  0  0  0  0  0  0  0  0  0  0  0
  131.5972  122.6656   59.6410 H   0  0  0  0  0  0  0  0  0  0  0  0
  131.8999  123.6819   61.0913 H   0  0  0  0  0  0  0  0  0  0  0  0
  132.7544  126.2793   59.1910 H   0  0  0  0  0  0  0  0  0  0  0  0
  133.1148  124.8379   58.1802 H   0  0  0  0  0  0  0  0  0  0  0  0
  131.5028  127.2034   57.5554 H   0  0  0  0  0  0  0  0  0  0  0  0
  132.0903  125.8445   56.4778 H   0  0  0  0  0  0  0  0  0  0  0  0
  129.8050  125.0960   58.0180 H   0  0  0  0  0  0  0  0  0  0  0  0
  127.4138  125.7784   56.9663 H   0  0  0  0  0  0  0  0  0  0  0  0
  127.5939  125.2351   55.2139 H   0  0  0  0  0  0  0  0  0  0  0  0
  129.2655  122.4137   62.5072 H   0  0  0  0  0  0  0  0  0  0  0  0
  129.7021  121.2577   61.2035 H   0  0  0  0  0  0  0  0  0  0  0  0
  130.3950  122.9150   61.2035 H   0  0  0  0  0  0  0  0  0  0  0  0
  126.9643  123.0194   62.2821 H   0  0  0  0  0  0  0  0  0  0  0  0
  124.8413  123.8788   62.1357 H   0  0  0  0  0  0  0  0  0  0  0  0
  124.4117  124.9155   60.7331 H   0  0  0  0  0  0  0  0  0  0  0  0
  123.9671  123.1751   60.7331 H   0  0  0  0  0  0  0  0  0  0  0  0
  1  2  1  0
  2  3  1  0
  3  4  1  0
  4  5  1  0
  5  6  1  0
  6  7  1  0
  7  8  1  0
  8  9  1  0
  9 10  1  0
 10 11  1  0
 11 12  1  0
 12 13  2  0
 12 14  1  0
 14 15  1  0
 15 16  1  0
 16 17  2  0
 17 18  1  0
 18 19  1  0
 18 20  2  0
 20 21  1  0
 21 22  1  0
 21 23  2  0
 23 24  1  0
 24 25  3  0
 23 16  1  0
  1 26  1  0
  1 27  1  0
  1 28  1  0
  3 29  1  0
  3 30  1  0
  4 31  1  0
  4 32  1  0
  6 33  1  0
  6 34  1  0
  7 35  1  0
  7 36  1  0
  9 37  1  0
  9 38  1  0
 10 39  1  0
 10 40  1  0
 11 41  1  0
 14 42  1  0
 14 43  1  0
 19 44  1  0
 19 45  1  0
 19 46  1  0
 20 47  1  0
 22 48  1  0
 22 49  1  0
 22 50  1  0
M  END
>  <Binding energies>  (1) 
[-5.62]

>  <Ligand effiencies>  (1) 
[-0.21615384615384617]

>  <Interactions>  (1) 
["V-A:ASP:366:CG:3213, H-A:TYR:531:OH:4795, H-B:TYR:539:OH:9850, V-A:ASP:366:CB:3212, V-B:TYR:539:CZ:9849, V-B:PRO:540:N:9856, V-B:PRO:540:CB:9857, V-B:PRO:540:CA:9855, V-B:TYR:539:CE2:9848, V-B:PRO:540:C:9853, V-A:ILE:369:CD1:3239, V-A:ILE:369:CB:3236, V-A:ILE:369:CG2:3237, H-A:TYR:484:OH:4348, H-A:ARG:545:NE:4924, V-A:GLY:454:CA:4049, V-A:ARG:545:CZ:4926, V-A:TYR:531:CZ:4794, H-A:ARG:545:NH2:4928, H-A:GLY:454:N:4050, V-B:ASN:362:CB:8147"]

$$$$
1l_Grossjean_2025
     RDKit          3D

 30 30  0  0  0  0  0  0  0  0999 V2000
  127.6810  126.4770   61.4680 C   0  0  0  0  0  0  0  0  0  0  0  0
  127.3050  125.1360   61.1880 O   0  0  0  0  0  0  0  0  0  0  0  0
  125.9480  125.0780   60.8740 N   0  0  0  0  0  0  0  0  0  0  0  0
  125.3100  123.8950   60.9510 C   0  0  0  0  0  0  0  0  0  0  0  0
  125.7850  122.8950   61.4970 O   0  0  0  0  0  0  0  0  0  0  0  0
  123.9130  123.8650   60.3150 C   0  0  0  0  0  0  0  0  0  0  0  0
  123.8870  124.0400   58.4990 S   0  0  0  0  0  0  0  0  0  0  0  0
  125.3450  124.9430   58.0070 C   0  0  0  0  0  0  0  0  0  0  0  0
  125.4350  126.2160   58.4720 N   0  0  0  0  0  0  0  0  0  0  0  0
  126.5160  126.9600   58.1360 C   0  0  0  0  0  0  0  0  0  0  0  0
  126.5450  128.3700   58.6940 C   0  0  0  0  0  0  0  0  0  0  0  0
  127.5430  126.4730   57.3310 C   0  0  0  0  0  0  0  0  0  0  0  0
  127.4620  125.1630   56.8470 C   0  0  0  0  0  0  0  0  0  0  0  0
  128.6000  124.6480   55.9670 C   0  0  0  0  0  0  0  0  0  0  0  0
  126.3430  124.3700   57.1850 C   0  0  0  0  0  0  0  0  0  0  0  0
  126.2320  122.9930   56.6910 C   0  0  0  0  0  0  0  0  0  0  0  0
  126.1460  121.9080   56.3010 N   0  0  0  0  0  0  0  0  0  0  0  0
  127.7229  126.6263   62.5570 H   0  0  0  0  0  0  0  0  0  0  0  0
  128.6704  126.6791   61.0319 H   0  0  0  0  0  0  0  0  0  0  0  0
  126.9408  127.1640   61.0319 H   0  0  0  0  0  0  0  0  0  0  0  0
  125.6660  125.8300   60.2620 H   0  0  0  0  0  0  0  0  0  0  0  0
  123.4420  122.9047   60.5718 H   0  0  0  0  0  0  0  0  0  0  0  0
  123.3749  124.7370   60.7151 H   0  0  0  0  0  0  0  0  0  0  0  0
  126.5442  128.3294   59.7933 H   0  0  0  0  0  0  0  0  0  0  0  0
  127.4539  128.8831   58.3467 H   0  0  0  0  0  0  0  0  0  0  0  0
  125.6580  128.9201   58.3467 H   0  0  0  0  0  0  0  0  0  0  0  0
  128.4047  127.1088   57.0796 H   0  0  0  0  0  0  0  0  0  0  0  0
  129.4172  124.2782   56.6036 H   0  0  0  0  0  0  0  0  0  0  0  0
  128.2307  123.8293   55.3319 H   0  0  0  0  0  0  0  0  0  0  0  0
  128.9713  125.4658   55.3319 H   0  0  0  0  0  0  0  0  0  0  0  0
  1  2  1  0
  2  3  1  0
  3  4  1  0
  4  5  2  0
  4  6  1  0
  6  7  1  0
  7  8  1  0
  8  9  2  0
  9 10  1  0
 10 11  1  0
 10 12  2  0
 12 13  1  0
 13 14  1  0
 13 15  2  0
 15 16  1  0
 16 17  3  0
 15  8  1  0
  1 18  1  0
  1 19  1  0
  1 20  1  0
  3 21  1  0
  6 22  1  0
  6 23  1  0
 11 24  1  0
 11 25  1  0
 11 26  1  0
 12 27  1  0
 14 28  1  0
 14 29  1  0
 14 30  1  0
M  END
>  <Binding energies>  (1) 
[-5.76]

>  <Ligand effiencies>  (1) 
[-0.32]

>  <Interactions>  (1) 
["V-B:TYR:539:CZ:9849, V-B:PRO:540:N:9856, V-B:TYR:539:CE1:9847, V-B:PRO:540:CB:9857, V-B:PRO:540:CA:9855, H-B:TYR:539:N:9842, H-B:TYR:531:OH:9767, H-B:ASP:366:OD1:8185, V-B:ASP:366:CG:8184, V-B:MET:535:CE:9807, H-B:GLU:543:OE1:9881, H-B:ALA:541:N:9863, V-B:LEU:363:CA:8156, V-B:GLU:543:CD:9880, V-B:ASN:362:CB:8147, V-B:ASN:362:C:8143"]

$$$$
1m_Grossjean_2025
     RDKit          3D

 35 35  0  0  0  0  0  0  0  0999 V2000
  128.3720  127.2420   57.3620 C   0  0  0  0  0  0  0  0  0  0  0  0
  128.0220  126.5770   56.1570 O   0  0  0  0  0  0  0  0  0  0  0  0
  128.8960  125.7460   55.5530 C   0  0  0  0  0  0  0  0  0  0  0  0
  129.8690  126.0950   54.8780 O   0  0  0  0  0  0  0  0  0  0  0  0
  128.5440  124.2660   55.8150 C   0  0  0  0  0  0  0  0  0  0  0  0
  127.2950  124.1040   56.5740 N   0  0  0  0  0  0  0  0  0  0  0  0
  126.5120  123.0080   56.5730 C   0  0  0  0  0  0  0  0  0  0  0  0
  126.7610  122.0050   55.9010 O   0  0  0  0  0  0  0  0  0  0  0  0
  125.2650  123.0860   57.4630 C   0  0  0  0  0  0  0  0  0  0  0  0
  125.3380  124.3600   58.7680 S   0  0  0  0  0  0  0  0  0  0  0  0
  126.8190  124.0910   59.7180 C   0  0  0  0  0  0  0  0  0  0  0  0
  127.9570  124.4140   59.0530 N   0  0  0  0  0  0  0  0  0  0  0  0
  129.1460  124.2560   59.6800 C   0  0  0  0  0  0  0  0  0  0  0  0
  130.3710  124.6570   58.8800 C   0  0  0  0  0  0  0  0  0  0  0  0
  129.2510  123.7640   60.9790 C   0  0  0  0  0  0  0  0  0  0  0  0
  128.0870  123.4030   61.6650 C   0  0  0  0  0  0  0  0  0  0  0  0
  128.2280  122.8500   63.0820 C   0  0  0  0  0  0  0  0  0  0  0  0
  126.8330  123.5580   61.0300 C   0  0  0  0  0  0  0  0  0  0  0  0
  125.6060  123.1390   61.7110 C   0  0  0  0  0  0  0  0  0  0  0  0
  124.6370  122.8100   62.2500 N   0  0  0  0  0  0  0  0  0  0  0  0
  128.0525  126.6350   58.2219 H   0  0  0  0  0  0  0  0  0  0  0  0
  129.4621  127.3848   57.3987 H   0  0  0  0  0  0  0  0  0  0  0  0
  127.8725  128.2214   57.3987 H   0  0  0  0  0  0  0  0  0  0  0  0
  128.4366  123.7535   54.8476 H   0  0  0  0  0  0  0  0  0  0  0  0
  129.3565  123.8335   56.4173 H   0  0  0  0  0  0  0  0  0  0  0  0
  127.0080  124.8960   57.1300 H   0  0  0  0  0  0  0  0  0  0  0  0
  124.3986  123.3026   56.8207 H   0  0  0  0  0  0  0  0  0  0  0  0
  125.1901  122.1171   57.9785 H   0  0  0  0  0  0  0  0  0  0  0  0
  131.1868  124.9241   59.5678 H   0  0  0  0  0  0  0  0  0  0  0  0
  130.6866  123.8153   58.2461 H   0  0  0  0  0  0  0  0  0  0  0  0
  130.1278  125.5224   58.2461 H   0  0  0  0  0  0  0  0  0  0  0  0
  130.2356  123.6609   61.4584 H   0  0  0  0  0  0  0  0  0  0  0  0
  128.0242  123.6494   63.8096 H   0  0  0  0  0  0  0  0  0  0  0  0
  127.5104  122.0293   63.2284 H   0  0  0  0  0  0  0  0  0  0  0  0
  129.2510  122.4731   63.2284 H   0  0  0  0  0  0  0  0  0  0  0  0
  1  2  1  0
  2  3  1  0
  3  4  2  0
  3  5  1  0
  5  6  1  0
  6  7  1  0
  7  8  2  0
  7  9  1  0
  9 10  1  0
 10 11  1  0
 11 12  2  0
 12 13  1  0
 13 14  1  0
 13 15  2  0
 15 16  1  0
 16 17  1  0
 16 18  2  0
 18 19  1  0
 19 20  3  0
 18 11  1  0
  1 21  1  0
  1 22  1  0
  1 23  1  0
  5 24  1  0
  5 25  1  0
  6 26  1  0
  9 27  1  0
  9 28  1  0
 14 29  1  0
 14 30  1  0
 14 31  1  0
 15 32  1  0
 17 33  1  0
 17 34  1  0
 17 35  1  0
M  END
>  <Binding energies>  (1) 
[-5.51]

>  <Ligand effiencies>  (1) 
[-0.2623809523809524]

>  <Interactions>  (1) 
["H-A:TYR:531:OH:4795, H-B:TYR:539:OH:9850, V-B:TYR:539:CZ:9849, V-B:PRO:540:N:9856, V-B:TYR:539:CE1:9847, V-B:PRO:540:CB:9857, V-B:PRO:540:CA:9855, V-B:TYR:539:CE2:9848, H-B:TYR:539:N:9842, H-B:TYR:531:OH:9767, V-B:PRO:540:CD:9859, V-B:MET:535:CE:9807, V-B:LEU:363:CD1:8160, V-B:PRO:540:CG:9858, H-A:ASN:370:ND2:3248, V-B:PRO:540:C:9853, H-B:ALA:541:N:9863, V-B:ALA:541:CB:9864, V-B:GLU:543:CG:9879, V-B:GLU:543:CD:9880, V-B:ALA:541:CA:9862, H-B:MET:535:SD:9806"]

$$$$
1n_Grossjean_2025
     RDKit          3D

 48 49  0  0  0  0  0  0  0  0999 V2000
  128.4050  126.8770   71.7190 C   0  0  0  0  0  0  0  0  0  0  0  0
  127.9930  126.9120   70.2440 C   0  0  0  0  0  0  0  0  0  0  0  0
  129.1560  127.0300   69.4320 O   0  0  0  0  0  0  0  0  0  0  0  0
  129.1810  126.5330   68.1680 C   0  0  0  0  0  0  0  0  0  0  0  0
  129.5160  125.3760   67.8990 O   0  0  0  0  0  0  0  0  0  0  0  0
  128.7490  127.5300   67.1310 C   0  0  0  0  0  0  0  0  0  0  0  0
  128.7650  127.2290   65.7600 C   0  0  0  0  0  0  0  0  0  0  0  0
  128.3600  128.1760   64.8250 C   0  0  0  0  0  0  0  0  0  0  0  0
  127.9400  129.4420   65.2350 C   0  0  0  0  0  0  0  0  0  0  0  0
  127.5570  130.3230   64.2050 N   0  0  0  0  0  0  0  0  0  0  0  0
  127.7870  131.6470   64.0720 C   0  0  0  0  0  0  0  0  0  0  0  0
  128.4100  132.3470   64.8710 O   0  0  0  0  0  0  0  0  0  0  0  0
  127.2100  132.2970   62.8080 C   0  0  0  0  0  0  0  0  0  0  0  0
  128.1090  133.4140   62.2360 C   0  0  0  0  0  0  0  0  0  0  0  0
  128.3070  133.3720   60.4300 S   0  0  0  0  0  0  0  0  0  0  0  0
  129.8880  132.6330   60.0770 C   0  0  0  0  0  0  0  0  0  0  0  0
  130.5810  132.2790   61.1880 N   0  0  0  0  0  0  0  0  0  0  0  0
  131.7920  131.6920   61.0400 C   0  0  0  0  0  0  0  0  0  0  0  0
  132.5040  131.3150   62.3250 C   0  0  0  0  0  0  0  0  0  0  0  0
  132.3580  131.4410   59.7920 C   0  0  0  0  0  0  0  0  0  0  0  0
  131.6600  131.8220   58.6400 C   0  0  0  0  0  0  0  0  0  0  0  0
  132.3060  131.5490   57.2840 C   0  0  0  0  0  0  0  0  0  0  0  0
  130.3960  132.4410   58.7710 C   0  0  0  0  0  0  0  0  0  0  0  0
  129.6720  132.8930   57.5820 C   0  0  0  0  0  0  0  0  0  0  0  0
  129.1010  133.2510   56.6410 N   0  0  0  0  0  0  0  0  0  0  0  0
  127.9110  129.7460   66.6040 C   0  0  0  0  0  0  0  0  0  0  0  0
  128.3130  128.7960   67.5390 C   0  0  0  0  0  0  0  0  0  0  0  0
  127.5086  126.9532   72.3520 H   0  0  0  0  0  0  0  0  0  0  0  0
  128.9251  125.9314   71.9321 H   0  0  0  0  0  0  0  0  0  0  0  0
  129.0771  127.7213   71.9321 H   0  0  0  0  0  0  0  0  0  0  0  0
  127.4601  125.9840   69.9895 H   0  0  0  0  0  0  0  0  0  0  0  0
  127.3319  127.7732   70.0671 H   0  0  0  0  0  0  0  0  0  0  0  0
  129.1002  126.2371   65.4226 H   0  0  0  0  0  0  0  0  0  0  0  0
  128.3709  127.9249   63.7541 H   0  0  0  0  0  0  0  0  0  0  0  0
  127.0730  129.8780   63.4400 H   0  0  0  0  0  0  0  0  0  0  0  0
  127.0866  131.5194   62.0398 H   0  0  0  0  0  0  0  0  0  0  0  0
  126.2508  132.7584   63.0856 H   0  0  0  0  0  0  0  0  0  0  0  0
  127.6687  134.3838   62.5108 H   0  0  0  0  0  0  0  0  0  0  0  0
  129.1104  133.2593   62.6640 H   0  0  0  0  0  0  0  0  0  0  0  0
  131.8996  131.6350   63.1866 H   0  0  0  0  0  0  0  0  0  0  0  0
  132.6441  130.2245   62.3602 H   0  0  0  0  0  0  0  0  0  0  0  0
  133.4847  131.8120   62.3602 H   0  0  0  0  0  0  0  0  0  0  0  0
  133.3394  130.9504   59.7130 H   0  0  0  0  0  0  0  0  0  0  0  0
  133.3097  131.1248   57.4347 H   0  0  0  0  0  0  0  0  0  0  0  0
  131.6873  130.8354   56.7201 H   0  0  0  0  0  0  0  0  0  0  0  0
  132.3865  132.4900   56.7201 H   0  0  0  0  0  0  0  0  0  0  0  0
  127.5701  130.7366   66.9394 H   0  0  0  0  0  0  0  0  0  0  0  0
  128.2877  129.0431   68.6106 H   0  0  0  0  0  0  0  0  0  0  0  0
  1  2  1  0
  2  3  1  0
  3  4  1  0
  4  5  2  0
  4  6  1  0
  6  7  2  0
  7  8  1  0
  8  9  2  0
  9 10  1  0
 10 11  1  0
 11 12  2  0
 11 13  1  0
 13 14  1  0
 14 15  1  0
 15 16  1  0
 16 17  2  0
 17 18  1  0
 18 19  1  0
 18 20  2  0
 20 21  1  0
 21 22  1  0
 21 23  2  0
 23 24  1  0
 24 25  3  0
  9 26  1  0
 26 27  2  0
 27  6  1  0
 23 16  1  0
  1 28  1  0
  1 29  1  0
  1 30  1  0
  2 31  1  0
  2 32  1  0
  7 33  1  0
  8 34  1  0
 10 35  1  0
 13 36  1  0
 13 37  1  0
 14 38  1  0
 14 39  1  0
 19 40  1  0
 19 41  1  0
 19 42  1  0
 20 43  1  0
 22 44  1  0
 22 45  1  0
 22 46  1  0
 26 47  1  0
 27 48  1  0
M  END
>  <Binding energies>  (1) 
[-7.79]

>  <Ligand effiencies>  (1) 
[-0.2782142857142857]

>  <Interactions>  (1) 
["V-A:LEU:363:CD1:3189, V-A:PRO:540:CA:4883, V-A:PRO:540:CB:4885, V-A:PRO:540:N:4884, V-A:TYR:539:C:4867, H-A:TYR:539:N:4870, V-B:GLU:543:CG:9879, V-B:GLU:543:CB:9878, V-A:GLU:543:CD:4908, V-B:GLU:543:CD:9880, V-B:HIS:456:CE1:9041, V-B:GLU:543:C:9874, V-A:HIS:456:CE1:4070, V-A:GLU:543:CG:4907, V-A:GLU:543:CB:4906, V-B:TYR:484:CZ:9318, H-B:TYR:484:OH:9319, V-A:ALA:541:CB:4892, V-A:PRO:540:C:4881, H-A:ALA:541:N:4891, V-B:TYR:484:CE2:9317, V-B:LEU:475:CD2:9230, V-A:ASN:362:CB:3176"]

$$$$
1o_Grossjean_2025
     RDKit          3D

 45 46  0  0  0  0  0  0  0  0999 V2000
  131.4160  132.5910   55.8660 C   0  0  0  0  0  0  0  0  0  0  0  0
  130.7100  133.3360   56.8490 O   0  0  0  0  0  0  0  0  0  0  0  0
  129.5390  132.8800   57.3640 C   0  0  0  0  0  0  0  0  0  0  0  0
  128.6520  133.6230   57.7960 O   0  0  0  0  0  0  0  0  0  0  0  0
  129.4290  131.3830   57.3550 C   0  0  0  0  0  0  0  0  0  0  0  0
  130.4840  130.5580   57.7720 C   0  0  0  0  0  0  0  0  0  0  0  0
  130.3480  129.1720   57.7540 C   0  0  0  0  0  0  0  0  0  0  0  0
  129.1610  128.5830   57.3150 C   0  0  0  0  0  0  0  0  0  0  0  0
  129.1290  127.1750   57.3460 N   0  0  0  0  0  0  0  0  0  0  0  0
  129.2630  126.2840   56.3390 C   0  0  0  0  0  0  0  0  0  0  0  0
  129.4930  126.5700   55.1640 O   0  0  0  0  0  0  0  0  0  0  0  0
  129.1410  124.8070   56.7430 C   0  0  0  0  0  0  0  0  0  0  0  0
  128.1400  124.0180   55.8760 C   0  0  0  0  0  0  0  0  0  0  0  0
  127.5480  122.4820   56.6470 S   0  0  0  0  0  0  0  0  0  0  0  0
  127.3710  122.7610   58.3980 C   0  0  0  0  0  0  0  0  0  0  0  0
  128.3970  122.2610   59.1310 N   0  0  0  0  0  0  0  0  0  0  0  0
  128.3760  122.4210   60.4750 C   0  0  0  0  0  0  0  0  0  0  0  0
  129.5640  121.8490   61.2260 C   0  0  0  0  0  0  0  0  0  0  0  0
  127.3360  123.0680   61.1380 C   0  0  0  0  0  0  0  0  0  0  0  0
  126.2610  123.5650   60.3950 C   0  0  0  0  0  0  0  0  0  0  0  0
  125.1260  124.2580   61.1480 C   0  0  0  0  0  0  0  0  0  0  0  0
  126.2580  123.4060   58.9910 C   0  0  0  0  0  0  0  0  0  0  0  0
  125.1130  123.8670   58.2020 C   0  0  0  0  0  0  0  0  0  0  0  0
  124.2070  124.2330   57.5820 N   0  0  0  0  0  0  0  0  0  0  0  0
  128.1000  129.4020   56.9010 C   0  0  0  0  0  0  0  0  0  0  0  0
  128.2380  130.7880   56.9210 C   0  0  0  0  0  0  0  0  0  0  0  0
  132.0916  131.8781   56.3614 H   0  0  0  0  0  0  0  0  0  0  0  0
  130.6995  132.0413   55.2379 H   0  0  0  0  0  0  0  0  0  0  0  0
  132.0034  133.2769   55.2379 H   0  0  0  0  0  0  0  0  0  0  0  0
  131.4263  131.0093   58.1160 H   0  0  0  0  0  0  0  0  0  0  0  0
  131.1818  128.5370   58.0881 H   0  0  0  0  0  0  0  0  0  0  0  0
  129.0090  126.7860   58.2700 H   0  0  0  0  0  0  0  0  0  0  0  0
  130.1308  124.3365   56.6490 H   0  0  0  0  0  0  0  0  0  0  0  0
  128.7665  124.7821   57.7770 H   0  0  0  0  0  0  0  0  0  0  0  0
  127.2712  124.6626   55.6768 H   0  0  0  0  0  0  0  0  0  0  0  0
  128.6717  123.7296   54.9572 H   0  0  0  0  0  0  0  0  0  0  0  0
  129.3886  121.9335   62.3086 H   0  0  0  0  0  0  0  0  0  0  0  0
  129.6927  120.7902   60.9569 H   0  0  0  0  0  0  0  0  0  0  0  0
  130.4719  122.4087   60.9569 H   0  0  0  0  0  0  0  0  0  0  0  0
  127.3601  123.1864   62.2313 H   0  0  0  0  0  0  0  0  0  0  0  0
  125.2898  124.1580   62.2311 H   0  0  0  0  0  0  0  0  0  0  0  0
  125.1036  125.3240   60.8774 H   0  0  0  0  0  0  0  0  0  0  0  0
  124.1676  123.7909   60.8774 H   0  0  0  0  0  0  0  0  0  0  0  0
  127.1574  128.9490   56.5600 H   0  0  0  0  0  0  0  0  0  0  0  0
  127.4017  131.4224   56.5921 H   0  0  0  0  0  0  0  0  0  0  0  0
  1  2  1  0
  2  3  1  0
  3  4  2  0
  3  5  1  0
  5  6  2  0
  6  7  1  0
  7  8  2  0
  8  9  1  0
  9 10  1  0
 10 11  2  0
 10 12  1  0
 12 13  1  0
 13 14  1  0
 14 15  1  0
 15 16  2  0
 16 17  1  0
 17 18  1  0
 17 19  2  0
 19 20  1  0
 20 21  1  0
 20 22  2  0
 22 23  1  0
 23 24  3  0
  8 25  1  0
 25 26  2  0
 26  5  1  0
 22 15  1  0
  1 27  1  0
  1 28  1  0
  1 29  1  0
  6 30  1  0
  7 31  1  0
  9 32  1  0
 12 33  1  0
 12 34  1  0
 13 35  1  0
 13 36  1  0
 18 37  1  0
 18 38  1  0
 18 39  1  0
 19 40  1  0
 21 41  1  0
 21 42  1  0
 21 43  1  0
 25 44  1  0
 26 45  1  0
M  END
>  <Binding energies>  (1) 
[-7.5]

>  <Ligand effiencies>  (1) 
[-0.2777777777777778]

>  <Interactions>  (1) 
["V-A:LEU:363:CD1:3189, H-A:TYR:531:OH:4795, V-A:PRO:540:N:4884, V-A:TYR:539:C:4867, H-A:TYR:539:N:4870, V-B:TYR:539:CZ:9849, V-B:PRO:540:N:9856, V-B:TYR:539:CE1:9847, V-B:PRO:540:CB:9857, V-B:PRO:540:CA:9855, V-B:TYR:539:CE2:9848, H-B:TYR:539:N:9842, V-B:LEU:363:CD1:8160, V-B:TYR:539:C:9839, V-B:PRO:540:C:9853, V-B:TYR:539:CD2:9846, V-A:MET:535:CE:4835, V-A:ILE:538:CA:4860, V-A:ILE:538:CG2:4863, V-A:ILE:538:CB:4862"]

$$$$
1p_Grossjean_2025
     RDKit          3D

 35 36  0  0  0  0  0  0  0  0999 V2000
  132.0740  125.3150   64.6940 C   0  0  0  0  0  0  0  0  0  0  0  0
  132.4250  124.9270   63.2690 C   0  0  0  0  0  0  0  0  0  0  0  0
  133.2040  123.8060   62.9900 C   0  0  0  0  0  0  0  0  0  0  0  0
  133.5080  123.5040   61.6590 C   0  0  0  0  0  0  0  0  0  0  0  0
  134.3770  122.2790   61.3770 C   0  0  0  0  0  0  0  0  0  0  0  0
  133.0110  124.3360   60.6300 C   0  0  0  0  0  0  0  0  0  0  0  0
  133.3540  124.0690   59.2330 C   0  0  0  0  0  0  0  0  0  0  0  0
  133.6260  123.8560   58.1280 N   0  0  0  0  0  0  0  0  0  0  0  0
  132.2080  125.4400   61.0050 C   0  0  0  0  0  0  0  0  0  0  0  0
  131.4950  126.5790   59.8400 S   0  0  0  0  0  0  0  0  0  0  0  0
  129.9760  125.8070   59.2110 C   0  0  0  0  0  0  0  0  0  0  0  0
  129.9590  124.2720   59.3420 C   0  0  0  0  0  0  0  0  0  0  0  0
  128.6000  123.6420   59.0020 C   0  0  0  0  0  0  0  0  0  0  0  0
  127.8360  123.3160   59.9130 O   0  0  0  0  0  0  0  0  0  0  0  0
  128.3340  123.5030   57.6840 N   0  0  0  0  0  0  0  0  0  0  0  0
  127.1870  122.9690   57.1090 C   0  0  0  0  0  0  0  0  0  0  0  0
  125.9010  123.3970   57.4380 C   0  0  0  0  0  0  0  0  0  0  0  0
  125.0600  122.6320   56.6620 C   0  0  0  0  0  0  0  0  0  0  0  0
  125.8010  121.7870   55.9070 O   0  0  0  0  0  0  0  0  0  0  0  0
  127.1480  122.0090   56.2010 N   0  0  0  0  0  0  0  0  0  0  0  0
  131.9360  125.7370   62.3010 N   0  0  0  0  0  0  0  0  0  0  0  0
  132.6423  124.6868   65.3956 H   0  0  0  0  0  0  0  0  0  0  0  0
  132.3287  126.3722   64.8595 H   0  0  0  0  0  0  0  0  0  0  0  0
  130.9966  125.1672   64.8595 H   0  0  0  0  0  0  0  0  0  0  0  0
  133.5747  123.1675   63.8054 H   0  0  0  0  0  0  0  0  0  0  0  0
  134.6962  121.8290   62.3286 H   0  0  0  0  0  0  0  0  0  0  0  0
  133.7976  121.5435   60.7997 H   0  0  0  0  0  0  0  0  0  0  0  0
  135.2627  122.5828   60.7997 H   0  0  0  0  0  0  0  0  0  0  0  0
  129.1221  126.2126   59.7735 H   0  0  0  0  0  0  0  0  0  0  0  0
  129.9201  126.0377   58.1369 H   0  0  0  0  0  0  0  0  0  0  0  0
  130.7156  123.8562   58.6603 H   0  0  0  0  0  0  0  0  0  0  0  0
  130.1704  124.0353   60.3952 H   0  0  0  0  0  0  0  0  0  0  0  0
  129.0430  123.8090   57.0340 H   0  0  0  0  0  0  0  0  0  0  0  0
  125.6198  124.1769   58.1610 H   0  0  0  0  0  0  0  0  0  0  0  0
  123.9619  122.6968   56.6562 H   0  0  0  0  0  0  0  0  0  0  0  0
  1  2  1  0
  2  3  2  0
  3  4  1  0
  4  5  1  0
  4  6  2  0
  6  7  1  0
  7  8  3  0
  6  9  1  0
  9 10  1  0
 10 11  1  0
 11 12  1  0
 12 13  1  0
 13 14  2  0
 13 15  1  0
 15 16  1  0
 16 17  1  0
 17 18  2  0
 18 19  1  0
 19 20  1  0
  9 21  2  0
 21  2  1  0
 20 16  2  0
  1 22  1  0
  1 23  1  0
  1 24  1  0
  3 25  1  0
  5 26  1  0
  5 27  1  0
  5 28  1  0
 11 29  1  0
 11 30  1  0
 12 31  1  0
 12 32  1  0
 15 33  1  0
 17 34  1  0
 18 35  1  0
M  END
>  <Binding energies>  (1) 
[-7.03]

>  <Ligand effiencies>  (1) 
[-0.3195454545454546]

>  <Interactions>  (1) 
["V-A:ASP:366:CG:3213, H-B:TYR:539:OH:9850, V-B:TYR:539:CZ:9849, V-B:PRO:540:N:9856, V-B:TYR:539:CE1:9847, V-B:PRO:540:CB:9857, V-B:PRO:540:CA:9855, V-B:TYR:539:CE2:9848, H-B:TYR:539:N:9842, V-B:PRO:540:CD:9859, V-B:MET:535:CE:9807, V-B:LEU:363:CD1:8160, V-B:PRO:540:CG:9858, V-B:TYR:539:CD2:9846, V-A:ASP:366:CA:3210, V-A:ILE:369:CD1:3239, V-A:ILE:369:CB:3236, V-A:ILE:369:CG2:3237, V-A:ARG:545:CZ:4926, H-A:ARG:545:NH2:4928, V-B:ILE:538:CG2:9835, V-A:ILE:369:CG1:3238"]

$$$$
1q_Grossjean_2025
     RDKit          3D

 38 38  0  0  0  0  0  0  0  0999 V2000
  133.2700  124.5970   61.2820 C   0  0  0  0  0  0  0  0  0  0  0  0
  133.8960  124.3070   60.0410 O   0  0  0  0  0  0  0  0  0  0  0  0
  133.2480  124.5370   58.8730 C   0  0  0  0  0  0  0  0  0  0  0  0
  133.6310  124.1780   57.7580 O   0  0  0  0  0  0  0  0  0  0  0  0
  131.9430  125.3470   59.0270 C   0  0  0  0  0  0  0  0  0  0  0  0
  131.1320  125.3700   57.8000 N   0  0  0  0  0  0  0  0  0  0  0  0
  129.8230  125.6770   57.7240 C   0  0  0  0  0  0  0  0  0  0  0  0
  129.1450  125.9830   58.7070 O   0  0  0  0  0  0  0  0  0  0  0  0
  129.2050  125.6430   56.3190 C   0  0  0  0  0  0  0  0  0  0  0  0
  127.7130  125.2560   56.2930 C   0  0  0  0  0  0  0  0  0  0  0  0
  127.4060  123.5130   56.7090 S   0  0  0  0  0  0  0  0  0  0  0  0
  127.1660  123.3840   58.4690 C   0  0  0  0  0  0  0  0  0  0  0  0
  128.2740  122.9710   59.1360 N   0  0  0  0  0  0  0  0  0  0  0  0
  128.2130  122.8330   60.4800 C   0  0  0  0  0  0  0  0  0  0  0  0
  129.4850  122.3510   61.1520 C   0  0  0  0  0  0  0  0  0  0  0  0
  127.0600  123.1080   61.2130 C   0  0  0  0  0  0  0  0  0  0  0  0
  125.9200  123.5590   60.5400 C   0  0  0  0  0  0  0  0  0  0  0  0
  124.6740  123.8720   61.3680 C   0  0  0  0  0  0  0  0  0  0  0  0
  125.9600  123.7140   59.1360 C   0  0  0  0  0  0  0  0  0  0  0  0
  124.7950  124.2390   58.4220 C   0  0  0  0  0  0  0  0  0  0  0  0
  123.8710  124.6550   57.8620 N   0  0  0  0  0  0  0  0  0  0  0  0
  133.9308  124.2909   62.1064 H   0  0  0  0  0  0  0  0  0  0  0  0
  133.0746  125.6773   61.3505 H   0  0  0  0  0  0  0  0  0  0  0  0
  132.3196  124.0475   61.3505 H   0  0  0  0  0  0  0  0  0  0  0  0
  131.3451  124.8981   59.8339 H   0  0  0  0  0  0  0  0  0  0  0  0
  132.2255  126.3856   59.2539 H   0  0  0  0  0  0  0  0  0  0  0  0
  131.6100  125.1060   56.9500 H   0  0  0  0  0  0  0  0  0  0  0  0
  129.3097  126.6426   55.8720 H   0  0  0  0  0  0  0  0  0  0  0  0
  129.7426  124.8655   55.7564 H   0  0  0  0  0  0  0  0  0  0  0  0
  127.1776  125.8862   57.0184 H   0  0  0  0  0  0  0  0  0  0  0  0
  127.3578  125.4093   55.2633 H   0  0  0  0  0  0  0  0  0  0  0  0
  129.3629  122.3973   62.2442 H   0  0  0  0  0  0  0  0  0  0  0  0
  129.6889  121.3133   60.8495 H   0  0  0  0  0  0  0  0  0  0  0  0
  130.3254  122.9930   60.8495 H   0  0  0  0  0  0  0  0  0  0  0  0
  127.0468  122.9724   62.3045 H   0  0  0  0  0  0  0  0  0  0  0  0
  124.9200  123.8102   62.4384 H   0  0  0  0  0  0  0  0  0  0  0  0
  124.3215  124.8866   61.1308 H   0  0  0  0  0  0  0  0  0  0  0  0
  123.8838  123.1444   61.1308 H   0  0  0  0  0  0  0  0  0  0  0  0
  1  2  1  0
  2  3  1  0
  3  4  2  0
  3  5  1  0
  5  6  1  0
  6  7  1  0
  7  8  2  0
  7  9  1  0
  9 10  1  0
 10 11  1  0
 11 12  1  0
 12 13  2  0
 13 14  1  0
 14 15  1  0
 14 16  2  0
 16 17  1  0
 17 18  1  0
 17 19  2  0
 19 20  1  0
 20 21  3  0
 19 12  1  0
  1 22  1  0
  1 23  1  0
  1 24  1  0
  5 25  1  0
  5 26  1  0
  6 27  1  0
  9 28  1  0
  9 29  1  0
 10 30  1  0
 10 31  1  0
 15 32  1  0
 15 33  1  0
 15 34  1  0
 16 35  1  0
 18 36  1  0
 18 37  1  0
 18 38  1  0
M  END
>  <Binding energies>  (1) 
[-5.76]

>  <Ligand effiencies>  (1) 
[-0.2618181818181818]

>  <Interactions>  (1) 
["V-A:ASP:366:CG:3213, H-A:TYR:531:OH:4795, H-B:TYR:539:OH:9850, V-A:ASP:366:CB:3212, V-B:TYR:539:CZ:9849, V-B:PRO:540:N:9856, V-B:PRO:540:CB:9857, V-B:PRO:540:CA:9855, V-B:TYR:539:CE2:9848, V-B:LEU:363:CD1:8160, V-B:PRO:540:C:9853, V-A:ASP:366:CA:3210, V-A:ILE:369:CG2:3237, V-B:ASN:362:CB:8147"]

$$$$
2a_Ghoteimi_2023
     RDKit          3D

 85 90  0  0  0  0  0  0  0  0999 V2000
  128.0110  132.5790   56.2030 C   0  0  0  0  0  0  0  0  0  0  0  0
  129.3500  132.9560   55.5610 C   0  0  0  0  0  0  0  0  0  0  0  0
  130.2100  133.5040   56.5510 O   0  0  0  0  0  0  0  0  0  0  0  0
  131.1080  132.7270   57.2090 C   0  0  0  0  0  0  0  0  0  0  0  0
  132.1650  132.3340   56.7060 O   0  0  0  0  0  0  0  0  0  0  0  0
  130.6890  132.3970   58.6140 C   0  0  0  0  0  0  0  0  0  0  0  0
  131.4680  131.5830   59.4490 C   0  0  0  0  0  0  0  0  0  0  0  0
  131.0510  131.2980   60.7460 C   0  0  0  0  0  0  0  0  0  0  0  0
  129.8540  131.8220   61.2370 C   0  0  0  0  0  0  0  0  0  0  0  0
  129.5290  131.4660   62.5600 N   0  0  0  0  0  0  0  0  0  0  0  0
  128.5980  131.9840   63.3910 C   0  0  0  0  0  0  0  0  0  0  0  0
  127.8680  132.9410   63.1300 O   0  0  0  0  0  0  0  0  0  0  0  0
  128.5120  131.3170   64.7700 C   0  0  0  0  0  0  0  0  0  0  0  0
  127.3000  129.9610   64.8770 S   0  0  0  0  0  0  0  0  0  0  0  0
  128.2140  128.5430   65.4380 C   0  0  0  0  0  0  0  0  0  0  0  0
  128.3560  128.4800   66.7830 N   0  0  0  0  0  0  0  0  0  0  0  0
  129.0430  127.4480   67.3330 C   0  0  0  0  0  0  0  0  0  0  0  0
  129.1670  127.4480   68.8230 C   0  0  0  0  0  0  0  0  0  0  0  0
  128.1320  126.9730   69.6370 C   0  0  0  0  0  0  0  0  0  0  0  0
  128.2480  126.9870   71.0240 C   0  0  0  0  0  0  0  0  0  0  0  0
  129.4070  127.4690   71.6500 C   0  0  0  0  0  0  0  0  0  0  0  0
  129.4970  127.5050   73.0450 N   0  0  0  0  0  0  0  0  0  0  0  0
  130.1720  126.4300   73.8010 C   0  0  0  0  0  0  0  0  0  0  0  0
  130.4940  126.8050   75.2630 C   0  0  0  0  0  0  0  0  0  0  0  0
  129.3140  127.2290   75.9270 O   0  0  0  0  0  0  0  0  0  0  0  0
  128.7510  128.3710   75.3030 C   0  0  0  0  0  0  0  0  0  0  0  0
  128.3760  128.0460   73.8410 C   0  0  0  0  0  0  0  0  0  0  0  0
  130.4370  127.9560   70.8290 C   0  0  0  0  0  0  0  0  0  0  0  0
  130.3210  127.9400   69.4420 C   0  0  0  0  0  0  0  0  0  0  0  0
  129.5960  126.4420   66.5370 C   0  0  0  0  0  0  0  0  0  0  0  0
  129.4620  126.4860   65.1420 C   0  0  0  0  0  0  0  0  0  0  0  0
  130.0840  125.3810   64.3510 C   0  0  0  0  0  0  0  0  0  0  0  0
  129.5070  124.1080   64.3480 C   0  0  0  0  0  0  0  0  0  0  0  0
  130.0890  123.0680   63.6300 C   0  0  0  0  0  0  0  0  0  0  0  0
  131.2640  123.2690   62.8900 C   0  0  0  0  0  0  0  0  0  0  0  0
  131.8740  122.2330   62.1770 N   0  0  0  0  0  0  0  0  0  0  0  0
  133.2940  122.3590   61.7930 C   0  0  0  0  0  0  0  0  0  0  0  0
  133.9330  121.0180   61.3730 C   0  0  0  0  0  0  0  0  0  0  0  0
  133.1780  120.4260   60.3270 O   0  0  0  0  0  0  0  0  0  0  0  0
  131.8410  120.1680   60.7260 C   0  0  0  0  0  0  0  0  0  0  0  0
  131.1480  121.4850   61.1330 C   0  0  0  0  0  0  0  0  0  0  0  0
  131.8430  124.5460   62.9080 C   0  0  0  0  0  0  0  0  0  0  0  0
  131.2620  125.5870   63.6270 C   0  0  0  0  0  0  0  0  0  0  0  0
  128.7460  127.5640   64.5690 C   0  0  0  0  0  0  0  0  0  0  0  0
  128.5240  127.6360   63.1210 C   0  0  0  0  0  0  0  0  0  0  0  0
  128.3520  127.6900   61.9780 N   0  0  0  0  0  0  0  0  0  0  0  0
  129.0660  132.6310   60.4050 C   0  0  0  0  0  0  0  0  0  0  0  0
  129.4850  132.9160   59.1080 C   0  0  0  0  0  0  0  0  0  0  0  0
  128.1089  132.6066   57.2983 H   0  0  0  0  0  0  0  0  0  0  0  0
  127.2380  133.2944   55.8858 H   0  0  0  0  0  0  0  0  0  0  0  0
  127.7248  131.5654   55.8858 H   0  0  0  0  0  0  0  0  0  0  0  0
  129.8147  132.0583   55.1272 H   0  0  0  0  0  0  0  0  0  0  0  0
  129.1812  133.6997   54.7682 H   0  0  0  0  0  0  0  0  0  0  0  0
  132.4155  131.1667   59.0762 H   0  0  0  0  0  0  0  0  0  0  0  0
  131.6696  130.6548   61.3891 H   0  0  0  0  0  0  0  0  0  0  0  0
  130.1010  130.7280   62.9400 H   0  0  0  0  0  0  0  0  0  0  0  0
  129.5040  130.9119   65.0185 H   0  0  0  0  0  0  0  0  0  0  0  0
  128.1768  132.0934   65.4735 H   0  0  0  0  0  0  0  0  0  0  0  0
  127.2137  126.5830   69.1738 H   0  0  0  0  0  0  0  0  0  0  0  0
  127.4165  126.6137   71.6398 H   0  0  0  0  0  0  0  0  0  0  0  0
  129.5177  125.5457   73.8057 H   0  0  0  0  0  0  0  0  0  0  0  0
  131.1326  126.2400   73.2998 H   0  0  0  0  0  0  0  0  0  0  0  0
  130.9082  125.9276   75.7812 H   0  0  0  0  0  0  0  0  0  0  0  0
  131.2275  127.6247   75.2721 H   0  0  0  0  0  0  0  0  0  0  0  0
  127.8475  128.6768   75.8510 H   0  0  0  0  0  0  0  0  0  0  0  0
  129.4887  129.1869   75.3126 H   0  0  0  0  0  0  0  0  0  0  0  0
  127.5649  127.3030   73.8478 H   0  0  0  0  0  0  0  0  0  0  0  0
  128.0750  128.9929   73.3690 H   0  0  0  0  0  0  0  0  0  0  0  0
  131.3516  128.3572   71.2901 H   0  0  0  0  0  0  0  0  0  0  0  0
  131.1482  128.3195   68.8241 H   0  0  0  0  0  0  0  0  0  0  0  0
  130.1401  125.6099   67.0077 H   0  0  0  0  0  0  0  0  0  0  0  0
  128.5842  123.9267   64.9186 H   0  0  0  0  0  0  0  0  0  0  0  0
  129.6207  122.0728   63.6427 H   0  0  0  0  0  0  0  0  0  0  0  0
  133.3667  123.0603   60.9486 H   0  0  0  0  0  0  0  0  0  0  0  0
  133.8406  122.7181   62.6775 H   0  0  0  0  0  0  0  0  0  0  0  0
  134.9604  121.1979   61.0237 H   0  0  0  0  0  0  0  0  0  0  0  0
  133.9461  120.3382   62.2377 H   0  0  0  0  0  0  0  0  0  0  0  0
  131.2927  119.7115   59.8887 H   0  0  0  0  0  0  0  0  0  0  0  0
  131.8469  119.4824   61.5862 H   0  0  0  0  0  0  0  0  0  0  0  0
  131.0635  122.1241   60.2417 H   0  0  0  0  0  0  0  0  0  0  0  0
  130.1654  121.2186   61.5495 H   0  0  0  0  0  0  0  0  0  0  0  0
  132.7705  124.7280   62.3454 H   0  0  0  0  0  0  0  0  0  0  0  0
  131.7341  126.5805   63.6254 H   0  0  0  0  0  0  0  0  0  0  0  0
  128.1157  133.0409   60.7777 H   0  0  0  0  0  0  0  0  0  0  0  0
  128.8637  133.5558   58.4640 H   0  0  0  0  0  0  0  0  0  0  0  0
  1  2  1  0
  2  3  1  0
  3  4  1  0
  4  5  2  0
  4  6  1  0
  6  7  2  0
  7  8  1  0
  8  9  2  0
  9 10  1  0
 10 11  1  0
 11 12  2  0
 11 13  1  0
 13 14  1  0
 14 15  1  0
 15 16  2  0
 16 17  1  0
 17 18  1  0
 18 19  2  0
 19 20  1  0
 20 21  2  0
 21 22  1  0
 22 23  1  0
 23 24  1  0
 24 25  1  0
 25 26  1  0
 26 27  1  0
 21 28  1  0
 28 29  2  0
 17 30  2  0
 30 31  1  0
 31 32  1  0
 32 33  2  0
 33 34  1  0
 34 35  2  0
 35 36  1  0
 36 37  1  0
 37 38  1  0
 38 39  1  0
 39 40  1  0
 40 41  1  0
 35 42  1  0
 42 43  2  0
 31 44  2  0
 44 45  1  0
 45 46  3  0
  9 47  1  0
 47 48  2  0
 48  6  1  0
 44 15  1  0
 29 18  1  0
 43 32  1  0
 27 22  1  0
 41 36  1  0
  1 49  1  0
  1 50  1  0
  1 51  1  0
  2 52  1  0
  2 53  1  0
  7 54  1  0
  8 55  1  0
 10 56  1  0
 13 57  1  0
 13 58  1  0
 19 59  1  0
 20 60  1  0
 23 61  1  0
 23 62  1  0
 24 63  1  0
 24 64  1  0
 26 65  1  0
 26 66  1  0
 27 67  1  0
 27 68  1  0
 28 69  1  0
 29 70  1  0
 30 71  1  0
 33 72  1  0
 34 73  1  0
 37 74  1  0
 37 75  1  0
 38 76  1  0
 38 77  1  0
 40 78  1  0
 40 79  1  0
 41 80  1  0
 41 81  1  0
 42 82  1  0
 43 83  1  0
 47 84  1  0
 48 85  1  0
M  END
>  <Binding energies>  (1) 
[-11.91]

>  <Ligand effiencies>  (1) 
[-0.24306122448979592]

>  <Interactions>  (1) 
["V-A:PRO:540:CA:4883, V-A:PRO:540:CB:4885, V-A:PRO:540:CD:4887, V-A:PRO:540:N:4884, V-A:TYR:539:C:4867, H-A:TYR:539:N:4870, V-B:TYR:539:CE2:9848, V-B:TYR:539:CD2:9846, V-A:MET:535:CE:4835, V-A:ILE:369:CD1:3239, V-B:GLU:543:CG:9879, V-A:ILE:369:CG2:3237, V-A:LEU:475:CD2:4259, V-B:GLU:543:CB:9878, V-A:GLU:543:CD:4908, V-B:GLU:543:CD:9880, V-B:HIS:456:CE1:9041, V-A:GLY:544:C:4912, H-A:LYS:547:NZ:4951, V-B:GLU:543:C:9874, V-B:HIS:456:CD2:9039, V-A:HIS:456:CE1:4070, V-A:GLU:543:CG:4907, V-A:GLU:543:C:4902, V-A:GLU:543:CB:4906, H-B:LYS:547:NZ:9923, H-A:GLU:543:OE1:4909, V-B:TYR:484:CZ:9318, H-B:TYR:484:OH:9319, V-A:ALA:541:CB:4892, V-A:HIS:456:CD2:4068, V-A:TYR:539:CE1:4875, V-A:TYR:539:CZ:4877, V-A:TYR:539:CD1:4873, V-A:TYR:539:CD2:4874, V-A:ILE:538:CA:4860, V-A:TYR:539:CE2:4876, V-A:ILE:538:C:4858, V-B:TYR:484:CE2:9317, V-A:ILE:538:CG2:4863, V-A:ILE:538:CB:4862, H-A:SER:385:OG:3410, V-A:SER:385:CA:3407, V-A:SER:385:CB:3409, V-A:SER:385:C:3405"]

$$$$
2a_Grossjean_2025
     RDKit          3D

 45 46  0  0  0  0  0  0  0  0999 V2000
  128.6100  131.4390   74.3070 C   0  0  0  0  0  0  0  0  0  0  0  0
  129.4950  131.0120   73.1310 C   0  0  0  0  0  0  0  0  0  0  0  0
  129.8650  129.6480   73.2920 O   0  0  0  0  0  0  0  0  0  0  0  0
  129.0340  128.6460   72.9050 C   0  0  0  0  0  0  0  0  0  0  0  0
  128.1060  128.2240   73.6000 O   0  0  0  0  0  0  0  0  0  0  0  0
  129.3450  128.1180   71.5330 C   0  0  0  0  0  0  0  0  0  0  0  0
  128.4110  127.3780   70.7940 C   0  0  0  0  0  0  0  0  0  0  0  0
  128.7310  126.9020   69.5260 C   0  0  0  0  0  0  0  0  0  0  0  0
  129.9890  127.1470   68.9740 C   0  0  0  0  0  0  0  0  0  0  0  0
  130.2080  126.6060   67.6940 N   0  0  0  0  0  0  0  0  0  0  0  0
  129.9720  125.3620   67.2250 C   0  0  0  0  0  0  0  0  0  0  0  0
  129.5220  124.4230   67.8830 O   0  0  0  0  0  0  0  0  0  0  0  0
  130.3100  125.1380   65.7470 C   0  0  0  0  0  0  0  0  0  0  0  0
  130.2290  123.3860   65.2460 S   0  0  0  0  0  0  0  0  0  0  0  0
  130.6000  123.2390   63.5020 C   0  0  0  0  0  0  0  0  0  0  0  0
  129.6100  122.7220   62.7300 N   0  0  0  0  0  0  0  0  0  0  0  0
  129.8260  122.5710   61.4040 C   0  0  0  0  0  0  0  0  0  0  0  0
  128.6830  121.9610   60.6140 C   0  0  0  0  0  0  0  0  0  0  0  0
  131.0230  122.9320   60.7930 C   0  0  0  0  0  0  0  0  0  0  0  0
  132.0570  123.4770   61.5690 C   0  0  0  0  0  0  0  0  0  0  0  0
  133.3750  123.8730   60.8760 C   0  0  0  0  0  0  0  0  0  0  0  0
  134.4000  123.2420   61.4480 F   0  0  0  0  0  0  0  0  0  0  0  0
  133.3280  123.5430   59.5850 F   0  0  0  0  0  0  0  0  0  0  0  0
  133.6210  125.1840   60.9470 F   0  0  0  0  0  0  0  0  0  0  0  0
  131.8450  123.6380   62.9620 C   0  0  0  0  0  0  0  0  0  0  0  0
  132.8930  124.1990   63.8210 C   0  0  0  0  0  0  0  0  0  0  0  0
  133.7200  124.6420   64.4990 N   0  0  0  0  0  0  0  0  0  0  0  0
  130.9260  127.8930   69.7040 C   0  0  0  0  0  0  0  0  0  0  0  0
  130.6020  128.3720   70.9710 C   0  0  0  0  0  0  0  0  0  0  0  0
  129.1150  131.1953   75.2533 H   0  0  0  0  0  0  0  0  0  0  0  0
  128.4302  132.5230   74.2559 H   0  0  0  0  0  0  0  0  0  0  0  0
  127.6496  130.9052   74.2559 H   0  0  0  0  0  0  0  0  0  0  0  0
  128.9389  131.1332   72.1897 H   0  0  0  0  0  0  0  0  0  0  0  0
  130.3989  131.6382   73.1037 H   0  0  0  0  0  0  0  0  0  0  0  0
  127.4178  127.1721   71.2197 H   0  0  0  0  0  0  0  0  0  0  0  0
  127.9866  126.3282   68.9545 H   0  0  0  0  0  0  0  0  0  0  0  0
  130.5540  127.2720   67.0200 H   0  0  0  0  0  0  0  0  0  0  0  0
  129.5965  125.7095   65.1352 H   0  0  0  0  0  0  0  0  0  0  0  0
  131.3469  125.4726   65.5955 H   0  0  0  0  0  0  0  0  0  0  0  0
  127.9305  121.5594   61.3086 H   0  0  0  0  0  0  0  0  0  0  0  0
  128.2221  122.7331   59.9804 H   0  0  0  0  0  0  0  0  0  0  0  0
  129.0678  121.1483   59.9804 H   0  0  0  0  0  0  0  0  0  0  0  0
  131.1574  122.7912   59.7104 H   0  0  0  0  0  0  0  0  0  0  0  0
  131.9177  128.0999   69.2754 H   0  0  0  0  0  0  0  0  0  0  0  0
  131.3423  128.9567   71.5368 H   0  0  0  0  0  0  0  0  0  0  0  0
  1  2  1  0
  2  3  1  0
  3  4  1  0
  4  5  2  0
  4  6  1  0
  6  7  2  0
  7  8  1  0
  8  9  2  0
  9 10  1  0
 10 11  1  0
 11 12  2  0
 11 13  1  0
 13 14  1  0
 14 15  1  0
 15 16  2  0
 16 17  1  0
 17 18  1  0
 17 19  2  0
 19 20  1  0
 20 21  1  0
 21 22  1  0
 21 23  1  0
 21 24  1  0
 20 25  2  0
 25 26  1  0
 26 27  3  0
  9 28  1  0
 28 29  2  0
 29  6  1  0
 25 15  1  0
  1 30  1  0
  1 31  1  0
  1 32  1  0
  2 33  1  0
  2 34  1  0
  7 35  1  0
  8 36  1  0
 10 37  1  0
 13 38  1  0
 13 39  1  0
 18 40  1  0
 18 41  1  0
 18 42  1  0
 19 43  1  0
 28 44  1  0
 29 45  1  0
M  END
>  <Binding energies>  (1) 
[-7.51]

>  <Ligand effiencies>  (1) 
[-0.25033333333333335]

>  <Interactions>  (1) 
["V-A:ASP:366:CG:3213, V-A:ASP:366:CB:3212, V-B:PRO:540:N:9856, V-B:PRO:540:CA:9855, V-B:TYR:539:CE2:9848, V-B:TYR:539:C:9839, V-B:PRO:540:C:9853, V-B:TYR:539:CD2:9846, V-A:ASP:366:CA:3210, V-A:ILE:369:CD1:3239, V-B:GLU:543:CG:9879, V-A:ILE:369:CB:3236, V-A:ILE:369:CG2:3237, V-A:LEU:475:CD2:4259, V-B:GLU:543:CB:9878, H-A:TYR:484:OH:4348, V-A:GLU:543:CD:4908, V-A:TYR:484:CE2:4346, H-A:ARG:545:NE:4924, V-B:HIS:456:CE1:9041, V-A:GLY:544:CA:4914, V-A:GLY:544:C:4912, H-A:LYS:547:NZ:4951, V-B:GLU:543:C:9874, V-B:HIS:456:CD2:9039, V-A:HIS:456:CE1:4070, V-A:GLU:543:C:4902, V-A:GLU:543:CB:4906, H-B:LYS:547:NZ:9923, H-A:GLU:543:OE2:4910, H-A:ARG:545:NH2:4928, H-A:GLY:454:N:4050, V-A:LYS:547:CE:4950"]

$$$$
2aa_Ghoteimi_2023
     RDKit          3D

 85 90  0  0  0  0  0  0  0  0999 V2000
  131.0980  131.3660   55.8110 C   0  0  0  0  0  0  0  0  0  0  0  0
  131.8320  132.5460   56.4580 C   0  0  0  0  0  0  0  0  0  0  0  0
  130.8840  133.5260   56.8610 O   0  0  0  0  0  0  0  0  0  0  0  0
  129.5810  133.2020   57.0620 C   0  0  0  0  0  0  0  0  0  0  0  0
  128.7210  133.2570   56.1760 O   0  0  0  0  0  0  0  0  0  0  0  0
  129.2900  132.7550   58.4660 C   0  0  0  0  0  0  0  0  0  0  0  0
  128.0120  132.8740   59.0320 C   0  0  0  0  0  0  0  0  0  0  0  0
  127.7740  132.4470   60.3340 C   0  0  0  0  0  0  0  0  0  0  0  0
  128.8050  131.9010   61.1000 C   0  0  0  0  0  0  0  0  0  0  0  0
  128.4530  131.4990   62.4030 N   0  0  0  0  0  0  0  0  0  0  0  0
  129.0560  131.7610   63.5830 C   0  0  0  0  0  0  0  0  0  0  0  0
  130.0600  132.4620   63.7240 O   0  0  0  0  0  0  0  0  0  0  0  0
  128.3750  131.1280   64.8030 C   0  0  0  0  0  0  0  0  0  0  0  0
  127.8560  129.8410   64.4510 O   0  0  0  0  0  0  0  0  0  0  0  0
  128.3950  128.6940   65.0170 C   0  0  0  0  0  0  0  0  0  0  0  0
  128.4890  128.6330   66.3750 N   0  0  0  0  0  0  0  0  0  0  0  0
  129.0070  127.5240   66.9600 C   0  0  0  0  0  0  0  0  0  0  0  0
  129.0830  127.5300   68.4540 C   0  0  0  0  0  0  0  0  0  0  0  0
  130.2800  127.8420   69.1080 C   0  0  0  0  0  0  0  0  0  0  0  0
  130.3550  127.8560   70.4980 C   0  0  0  0  0  0  0  0  0  0  0  0
  129.2300  127.5710   71.2880 C   0  0  0  0  0  0  0  0  0  0  0  0
  129.2910  127.5680   72.6860 N   0  0  0  0  0  0  0  0  0  0  0  0
  130.4800  127.0670   73.4040 C   0  0  0  0  0  0  0  0  0  0  0  0
  130.2380  126.8080   74.9060 C   0  0  0  0  0  0  0  0  0  0  0  0
  129.7280  127.9780   75.5250 O   0  0  0  0  0  0  0  0  0  0  0  0
  128.4940  128.3740   74.9480 C   0  0  0  0  0  0  0  0  0  0  0  0
  128.6840  128.6800   73.4470 C   0  0  0  0  0  0  0  0  0  0  0  0
  128.0380  127.2380   70.6280 C   0  0  0  0  0  0  0  0  0  0  0  0
  127.9650  127.2220   69.2380 C   0  0  0  0  0  0  0  0  0  0  0  0
  129.4630  126.4480   66.1930 C   0  0  0  0  0  0  0  0  0  0  0  0
  129.3890  126.4900   64.7950 C   0  0  0  0  0  0  0  0  0  0  0  0
  129.9160  125.3200   64.0290 C   0  0  0  0  0  0  0  0  0  0  0  0
  129.0520  124.5300   63.2650 C   0  0  0  0  0  0  0  0  0  0  0  0
  129.5330  123.4270   62.5650 C   0  0  0  0  0  0  0  0  0  0  0  0
  130.8900  123.0740   62.6190 C   0  0  0  0  0  0  0  0  0  0  0  0
  131.3960  121.9730   61.9210 N   0  0  0  0  0  0  0  0  0  0  0  0
  132.6620  122.0560   61.1680 C   0  0  0  0  0  0  0  0  0  0  0  0
  133.2310  120.6770   60.7700 C   0  0  0  0  0  0  0  0  0  0  0  0
  132.2580  119.9420   60.0440 O   0  0  0  0  0  0  0  0  0  0  0  0
  131.0840  119.7280   60.8120 C   0  0  0  0  0  0  0  0  0  0  0  0
  130.4580  121.0800   61.2110 C   0  0  0  0  0  0  0  0  0  0  0  0
  131.7500  123.8760   63.3810 C   0  0  0  0  0  0  0  0  0  0  0  0
  131.2700  124.9790   64.0810 C   0  0  0  0  0  0  0  0  0  0  0  0
  128.8260  127.6390   64.1920 C   0  0  0  0  0  0  0  0  0  0  0  0
  128.6620  127.7490   62.7410 C   0  0  0  0  0  0  0  0  0  0  0  0
  128.5330  127.8350   61.5940 N   0  0  0  0  0  0  0  0  0  0  0  0
  130.0840  131.7720   60.5390 C   0  0  0  0  0  0  0  0  0  0  0  0
  130.3190  132.1970   59.2340 C   0  0  0  0  0  0  0  0  0  0  0  0
  130.6912  130.7121   56.5964 H   0  0  0  0  0  0  0  0  0  0  0  0
  130.2754  131.7440   55.1861 H   0  0  0  0  0  0  0  0  0  0  0  0
  131.8007  130.7952   55.1861 H   0  0  0  0  0  0  0  0  0  0  0  0
  132.3917  132.1932   57.3368 H   0  0  0  0  0  0  0  0  0  0  0  0
  132.5316  132.9869   55.7326 H   0  0  0  0  0  0  0  0  0  0  0  0
  127.1918  133.3084   58.4415 H   0  0  0  0  0  0  0  0  0  0  0  0
  126.7655  132.5403   60.7633 H   0  0  0  0  0  0  0  0  0  0  0  0
  127.5960  130.9660   62.4520 H   0  0  0  0  0  0  0  0  0  0  0  0
  129.1088  131.0170   65.6149 H   0  0  0  0  0  0  0  0  0  0  0  0
  127.5504  131.7749   65.1369 H   0  0  0  0  0  0  0  0  0  0  0  0
  131.1753  128.0798   68.5148 H   0  0  0  0  0  0  0  0  0  0  0  0
  131.3118  128.0944   70.9855 H   0  0  0  0  0  0  0  0  0  0  0  0
  130.7955  126.1229   72.9358 H   0  0  0  0  0  0  0  0  0  0  0  0
  131.2496  127.8498   73.3340 H   0  0  0  0  0  0  0  0  0  0  0  0
  129.5128  125.9891   75.0220 H   0  0  0  0  0  0  0  0  0  0  0  0
  131.1906  126.5337   75.3828 H   0  0  0  0  0  0  0  0  0  0  0  0
  127.7611  127.5620   75.0638 H   0  0  0  0  0  0  0  0  0  0  0  0
  128.1328  129.2797   75.4571 H   0  0  0  0  0  0  0  0  0  0  0  0
  127.6991  128.9025   73.0106 H   0  0  0  0  0  0  0  0  0  0  0  0
  129.3761  129.5322   73.3778 H   0  0  0  0  0  0  0  0  0  0  0  0
  127.1454  126.9851   71.2190 H   0  0  0  0  0  0  0  0  0  0  0  0
  127.0145  126.9635   68.7483 H   0  0  0  0  0  0  0  0  0  0  0  0
  129.8831  125.5617   66.6911 H   0  0  0  0  0  0  0  0  0  0  0  0
  127.9824  124.7822   63.2165 H   0  0  0  0  0  0  0  0  0  0  0  0
  128.8394  122.8236   61.9610 H   0  0  0  0  0  0  0  0  0  0  0  0
  132.4849  122.6377   60.2514 H   0  0  0  0  0  0  0  0  0  0  0  0
  133.4012  122.5338   61.8278 H   0  0  0  0  0  0  0  0  0  0  0  0
  134.1236  120.8184   60.1428 H   0  0  0  0  0  0  0  0  0  0  0  0
  133.4991  120.1205   61.6802 H   0  0  0  0  0  0  0  0  0  0  0  0
  130.3594  119.1532   60.2165 H   0  0  0  0  0  0  0  0  0  0  0  0
  131.3464  119.1699   61.7229 H   0  0  0  0  0  0  0  0  0  0  0  0
  130.1155  121.5888   60.2979 H   0  0  0  0  0  0  0  0  0  0  0  0
  129.6295  120.8635   61.9015 H   0  0  0  0  0  0  0  0  0  0  0  0
  132.8212  123.6300   63.4266 H   0  0  0  0  0  0  0  0  0  0  0  0
  131.9628  125.5878   64.6806 H   0  0  0  0  0  0  0  0  0  0  0  0
  130.9020  131.3348   61.1304 H   0  0  0  0  0  0  0  0  0  0  0  0
  131.3250  132.0931   58.8014 H   0  0  0  0  0  0  0  0  0  0  0  0
  1  2  1  0
  2  3  1  0
  3  4  1  0
  4  5  2  0
  4  6  1  0
  6  7  2  0
  7  8  1  0
  8  9  2  0
  9 10  1  0
 10 11  1  0
 11 12  2  0
 11 13  1  0
 13 14  1  0
 14 15  1  0
 15 16  2  0
 16 17  1  0
 17 18  1  0
 18 19  2  0
 19 20  1  0
 20 21  2  0
 21 22  1  0
 22 23  1  0
 23 24  1  0
 24 25  1  0
 25 26  1  0
 26 27  1  0
 21 28  1  0
 28 29  2  0
 17 30  2  0
 30 31  1  0
 31 32  1  0
 32 33  2  0
 33 34  1  0
 34 35  2  0
 35 36  1  0
 36 37  1  0
 37 38  1  0
 38 39  1  0
 39 40  1  0
 40 41  1  0
 35 42  1  0
 42 43  2  0
 31 44  2  0
 44 45  1  0
 45 46  3  0
  9 47  1  0
 47 48  2  0
 48  6  1  0
 44 15  1  0
 29 18  1  0
 43 32  1  0
 27 22  1  0
 41 36  1  0
  1 49  1  0
  1 50  1  0
  1 51  1  0
  2 52  1  0
  2 53  1  0
  7 54  1  0
  8 55  1  0
 10 56  1  0
 13 57  1  0
 13 58  1  0
 19 59  1  0
 20 60  1  0
 23 61  1  0
 23 62  1  0
 24 63  1  0
 24 64  1  0
 26 65  1  0
 26 66  1  0
 27 67  1  0
 27 68  1  0
 28 69  1  0
 29 70  1  0
 30 71  1  0
 33 72  1  0
 34 73  1  0
 37 74  1  0
 37 75  1  0
 38 76  1  0
 38 77  1  0
 40 78  1  0
 40 79  1  0
 41 80  1  0
 41 81  1  0
 42 82  1  0
 43 83  1  0
 47 84  1  0
 48 85  1  0
M  END
>  <Binding energies>  (1) 
[-10.65]

>  <Ligand effiencies>  (1) 
[-0.2173469387755102]

>  <Interactions>  (1) 
["V-A:LEU:363:CD1:3189, V-A:PRO:540:CA:4883, V-A:PRO:540:CB:4885, V-A:PRO:540:N:4884, V-A:TYR:539:C:4867, H-A:TYR:539:N:4870, V-B:TYR:539:CE2:9848, V-B:TYR:539:CD2:9846, V-A:MET:535:CE:4835, V-B:GLU:543:CG:9879, V-A:ILE:369:CG2:3237, V-A:LEU:475:CD2:4259, V-B:GLU:543:CB:9878, V-A:GLU:543:CD:4908, V-B:GLU:543:CD:9880, V-B:HIS:456:CE1:9041, H-A:LYS:547:NZ:4951, V-B:GLU:543:C:9874, V-B:HIS:456:CD2:9039, V-A:HIS:456:CE1:4070, V-A:GLU:543:CG:4907, V-A:GLU:543:C:4902, V-A:GLU:543:CB:4906, V-A:TYR:531:CZ:4794, H-B:LYS:547:NZ:9923, V-B:TYR:484:CZ:9318, H-B:TYR:484:OH:9319, V-A:ALA:541:CB:4892, V-A:HIS:456:CD2:4068, V-A:TYR:539:CE1:4875, H-A:ALA:541:N:4891, V-A:TYR:539:CD1:4873, V-A:ILE:538:CA:4860, V-A:TYR:539:CA:4869, V-A:TYR:531:CE2:4793, V-B:TYR:484:CE2:9317, V-A:ILE:538:CG2:4863, V-A:ILE:538:CB:4862, H-A:SER:385:OG:3410, V-A:SER:385:CA:3407, V-A:SER:385:CB:3409"]

$$$$
2b_Ghoteimi_2023
     RDKit          3D

 72 77  0  0  0  0  0  0  0  0999 V2000
  128.0260  132.3180   64.8980 N   0  0  0  0  0  0  0  0  0  0  0  0
  127.8780  131.4320   64.1690 C   0  0  0  0  0  0  0  0  0  0  0  0
  127.6890  130.3060   63.2500 C   0  0  0  0  0  0  0  0  0  0  0  0
  127.8060  128.9710   63.7130 C   0  0  0  0  0  0  0  0  0  0  0  0
  128.1170  128.6070   65.1280 C   0  0  0  0  0  0  0  0  0  0  0  0
  128.7900  127.4190   65.4170 C   0  0  0  0  0  0  0  0  0  0  0  0
  129.0820  127.0740   66.7340 C   0  0  0  0  0  0  0  0  0  0  0  0
  128.6920  127.9020   67.7990 C   0  0  0  0  0  0  0  0  0  0  0  0
  128.9850  127.5840   69.1270 N   0  0  0  0  0  0  0  0  0  0  0  0
  130.0270  128.3530   69.8370 C   0  0  0  0  0  0  0  0  0  0  0  0
  130.5120  127.6710   71.1340 C   0  0  0  0  0  0  0  0  0  0  0  0
  129.4080  127.3990   71.9850 O   0  0  0  0  0  0  0  0  0  0  0  0
  128.4660  126.5400   71.3630 C   0  0  0  0  0  0  0  0  0  0  0  0
  127.9240  127.1980   70.0770 C   0  0  0  0  0  0  0  0  0  0  0  0
  128.0150  129.0910   67.4980 C   0  0  0  0  0  0  0  0  0  0  0  0
  127.7260  129.4380   66.1820 C   0  0  0  0  0  0  0  0  0  0  0  0
  127.6130  127.9280   62.7990 C   0  0  0  0  0  0  0  0  0  0  0  0
  127.2820  128.2050   61.4700 C   0  0  0  0  0  0  0  0  0  0  0  0
  127.0360  127.1280   60.4610 C   0  0  0  0  0  0  0  0  0  0  0  0
  127.0790  127.4090   59.0910 C   0  0  0  0  0  0  0  0  0  0  0  0
  126.8670  126.4080   58.1470 C   0  0  0  0  0  0  0  0  0  0  0  0
  126.5900  125.0890   58.5380 C   0  0  0  0  0  0  0  0  0  0  0  0
  126.4050  124.0660   57.6010 N   0  0  0  0  0  0  0  0  0  0  0  0
  127.5610  123.2650   57.1470 C   0  0  0  0  0  0  0  0  0  0  0  0
  127.2880  122.4620   55.8570 C   0  0  0  0  0  0  0  0  0  0  0  0
  126.1390  121.6470   56.0260 O   0  0  0  0  0  0  0  0  0  0  0  0
  124.9850  122.4250   56.3010 C   0  0  0  0  0  0  0  0  0  0  0  0
  125.1890  123.2300   57.6020 C   0  0  0  0  0  0  0  0  0  0  0  0
  126.5550  124.8100   59.9120 C   0  0  0  0  0  0  0  0  0  0  0  0
  126.7700  125.8110   60.8550 C   0  0  0  0  0  0  0  0  0  0  0  0
  127.1690  129.4840   61.0280 N   0  0  0  0  0  0  0  0  0  0  0  0
  127.3840  130.5090   61.8850 C   0  0  0  0  0  0  0  0  0  0  0  0
  127.2000  132.1140   61.1380 S   0  0  0  0  0  0  0  0  0  0  0  0
  128.8650  132.7280   60.7400 C   0  0  0  0  0  0  0  0  0  0  0  0
  129.1410  132.7080   59.2350 C   0  0  0  0  0  0  0  0  0  0  0  0
  128.2110  132.8970   58.4490 O   0  0  0  0  0  0  0  0  0  0  0  0
  130.4230  132.4710   58.8820 N   0  0  0  0  0  0  0  0  0  0  0  0
  130.9450  132.4110   57.5980 C   0  0  0  0  0  0  0  0  0  0  0  0
  131.8440  131.4270   57.1880 C   0  0  0  0  0  0  0  0  0  0  0  0
  132.1130  131.7150   55.8710 C   0  0  0  0  0  0  0  0  0  0  0  0
  131.4130  132.8150   55.5060 O   0  0  0  0  0  0  0  0  0  0  0  0
  130.6730  133.2460   56.6100 N   0  0  0  0  0  0  0  0  0  0  0  0
  129.0922  126.7499   64.5979 H   0  0  0  0  0  0  0  0  0  0  0  0
  129.6253  126.1406   66.9429 H   0  0  0  0  0  0  0  0  0  0  0  0
  130.8886  128.4770   69.1645 H   0  0  0  0  0  0  0  0  0  0  0  0
  129.5821  129.3176   70.1228 H   0  0  0  0  0  0  0  0  0  0  0  0
  131.0179  126.7274   70.8816 H   0  0  0  0  0  0  0  0  0  0  0  0
  131.2105  128.3428   71.6543 H   0  0  0  0  0  0  0  0  0  0  0  0
  128.9538  125.5877   71.1077 H   0  0  0  0  0  0  0  0  0  0  0  0
  127.6311  126.3564   72.0553 H   0  0  0  0  0  0  0  0  0  0  0  0
  127.2504  126.4860   69.5777 H   0  0  0  0  0  0  0  0  0  0  0  0
  127.4041  128.1198   70.3769 H   0  0  0  0  0  0  0  0  0  0  0  0
  127.7072  129.7605   68.3147 H   0  0  0  0  0  0  0  0  0  0  0  0
  127.1862  130.3726   65.9694 H   0  0  0  0  0  0  0  0  0  0  0  0
  127.7226  126.8844   63.1291 H   0  0  0  0  0  0  0  0  0  0  0  0
  127.2834  128.4362   58.7548 H   0  0  0  0  0  0  0  0  0  0  0  0
  126.9175  126.6552   57.0763 H   0  0  0  0  0  0  0  0  0  0  0  0
  128.4044  123.9461   56.9607 H   0  0  0  0  0  0  0  0  0  0  0  0
  127.7798  122.5356   57.9408 H   0  0  0  0  0  0  0  0  0  0  0  0
  127.1205  123.1591   55.0227 H   0  0  0  0  0  0  0  0  0  0  0  0
  128.1558  121.8217   55.6401 H   0  0  0  0  0  0  0  0  0  0  0  0
  124.8067  123.1197   55.4669 H   0  0  0  0  0  0  0  0  0  0  0  0
  124.1194  121.7570   56.4216 H   0  0  0  0  0  0  0  0  0  0  0  0
  124.3174  123.8859   57.7442 H   0  0  0  0  0  0  0  0  0  0  0  0
  125.3035  122.4992   58.4161 H   0  0  0  0  0  0  0  0  0  0  0  0
  126.3542  123.7827   60.2502 H   0  0  0  0  0  0  0  0  0  0  0  0
  126.7303  125.5636   61.9261 H   0  0  0  0  0  0  0  0  0  0  0  0
  128.9583  133.7618   61.1041 H   0  0  0  0  0  0  0  0  0  0  0  0
  129.5958  132.0659   61.2274 H   0  0  0  0  0  0  0  0  0  0  0  0
  131.0920  132.3470   59.6270 H   0  0  0  0  0  0  0  0  0  0  0  0
  132.2500  130.5995   57.7884 H   0  0  0  0  0  0  0  0  0  0  0  0
  132.7889  131.1432   55.2181 H   0  0  0  0  0  0  0  0  0  0  0  0
  1  2  3  0
  2  3  1  0
  3  4  2  0
  4  5  1  0
  5  6  2  0
  6  7  1  0
  7  8  2  0
  8  9  1  0
  9 10  1  0
 10 11  1  0
 11 12  1  0
 12 13  1  0
 13 14  1  0
  8 15  1  0
 15 16  2  0
  4 17  1  0
 17 18  2  0
 18 19  1  0
 19 20  2  0
 20 21  1  0
 21 22  2  0
 22 23  1  0
 23 24  1  0
 24 25  1  0
 25 26  1  0
 26 27  1  0
 27 28  1  0
 22 29  1  0
 29 30  2  0
 18 31  1  0
 31 32  2  0
 32 33  1  0
 33 34  1  0
 34 35  1  0
 35 36  2  0
 35 37  1  0
 37 38  1  0
 38 39  1  0
 39 40  2  0
 40 41  1  0
 41 42  1  0
 32  3  1  0
 42 38  2  0
 16  5  1  0
 30 19  1  0
 14  9  1  0
 28 23  1  0
  6 43  1  0
  7 44  1  0
 10 45  1  0
 10 46  1  0
 11 47  1  0
 11 48  1  0
 13 49  1  0
 13 50  1  0
 14 51  1  0
 14 52  1  0
 15 53  1  0
 16 54  1  0
 17 55  1  0
 20 56  1  0
 21 57  1  0
 24 58  1  0
 24 59  1  0
 25 60  1  0
 25 61  1  0
 27 62  1  0
 27 63  1  0
 28 64  1  0
 28 65  1  0
 29 66  1  0
 30 67  1  0
 34 68  1  0
 34 69  1  0
 37 70  1  0
 39 71  1  0
 40 72  1  0
M  END
>  <Binding energies>  (1) 
[-11.64]

>  <Ligand effiencies>  (1) 
[-0.27069767441860465]

>  <Interactions>  (1) 
["V-A:LEU:363:CD1:3189, V-A:PRO:540:CA:4883, V-A:PRO:540:CB:4885, V-A:PRO:540:N:4884, V-A:TYR:539:C:4867, H-A:TYR:539:N:4870, V-B:TYR:539:CZ:9849, V-B:PRO:540:N:9856, V-B:TYR:539:CE1:9847, V-B:PRO:540:CB:9857, V-B:TYR:539:CD1:9845, V-B:PRO:540:CA:9855, V-B:TYR:539:CE2:9848, H-B:TYR:539:N:9842, V-B:PRO:540:CD:9859, V-B:MET:535:CE:9807, V-B:LEU:363:CD1:8160, V-B:PRO:540:CG:9858, V-B:TYR:539:CG:9844, V-B:GLU:543:CG:9879, V-B:GLU:543:CB:9878, V-A:GLU:543:CD:4908, V-B:GLU:543:CD:9880, V-B:HIS:456:CE1:9041, V-A:GLY:544:C:4912, V-B:GLU:543:C:9874, V-A:HIS:456:CE1:4070, V-A:GLU:543:CG:4907, V-A:GLU:543:C:4902, V-A:GLU:543:CB:4906, V-A:TYR:531:CZ:4794, V-B:TYR:484:CZ:9318, V-A:GLU:543:CA:4904, H-B:TYR:484:OH:9319, V-B:ILE:538:CG2:9835, V-A:TYR:531:CE2:4793, V-A:ILE:538:CG2:4863, V-A:ILE:538:CB:4862, V-B:ILE:538:CA:9832"]

$$$$
2b_Grossjean_2025
     RDKit          3D

 42 43  0  0  0  0  0  0  0  0999 V2000
  129.4440  131.1680   73.2710 C   0  0  0  0  0  0  0  0  0  0  0  0
  130.0180  129.8770   73.1200 O   0  0  0  0  0  0  0  0  0  0  0  0
  129.2440  128.7970   72.8410 C   0  0  0  0  0  0  0  0  0  0  0  0
  128.4240  128.3240   73.6350 O   0  0  0  0  0  0  0  0  0  0  0  0
  129.4870  128.2300   71.4720 C   0  0  0  0  0  0  0  0  0  0  0  0
  128.4790  127.5730   70.7510 C   0  0  0  0  0  0  0  0  0  0  0  0
  128.7380  127.0580   69.4840 C   0  0  0  0  0  0  0  0  0  0  0  0
  130.0020  127.1920   68.9100 C   0  0  0  0  0  0  0  0  0  0  0  0
  130.1570  126.6290   67.6290 N   0  0  0  0  0  0  0  0  0  0  0  0
  129.9070  125.3730   67.2040 C   0  0  0  0  0  0  0  0  0  0  0  0
  129.5030  124.4480   67.9100 O   0  0  0  0  0  0  0  0  0  0  0  0
  130.1800  125.1200   65.7170 C   0  0  0  0  0  0  0  0  0  0  0  0
  130.0920  123.3570   65.2620 S   0  0  0  0  0  0  0  0  0  0  0  0
  130.6220  123.1370   63.5690 C   0  0  0  0  0  0  0  0  0  0  0  0
  129.7130  122.5710   62.7350 N   0  0  0  0  0  0  0  0  0  0  0  0
  130.0490  122.3700   61.4420 C   0  0  0  0  0  0  0  0  0  0  0  0
  128.9820  121.7200   60.5800 C   0  0  0  0  0  0  0  0  0  0  0  0
  131.2890  122.7280   60.9230 C   0  0  0  0  0  0  0  0  0  0  0  0
  132.2430  123.3220   61.7640 C   0  0  0  0  0  0  0  0  0  0  0  0
  133.6090  123.7170   61.1730 C   0  0  0  0  0  0  0  0  0  0  0  0
  134.5720  122.9650   61.7080 F   0  0  0  0  0  0  0  0  0  0  0  0
  133.6060  123.5390   59.8510 F   0  0  0  0  0  0  0  0  0  0  0  0
  133.9230  124.9940   61.4050 F   0  0  0  0  0  0  0  0  0  0  0  0
  131.9060  123.5330   63.1260 C   0  0  0  0  0  0  0  0  0  0  0  0
  132.8660  124.1440   64.0510 C   0  0  0  0  0  0  0  0  0  0  0  0
  133.6230  124.6270   64.7810 N   0  0  0  0  0  0  0  0  0  0  0  0
  131.0180  127.8410   69.6280 C   0  0  0  0  0  0  0  0  0  0  0  0
  130.7580  128.3550   70.8950 C   0  0  0  0  0  0  0  0  0  0  0  0
  129.3407  131.4004   74.3412 H   0  0  0  0  0  0  0  0  0  0  0  0
  130.0942  131.9164   72.7944 H   0  0  0  0  0  0  0  0  0  0  0  0
  128.4528  131.1866   72.7944 H   0  0  0  0  0  0  0  0  0  0  0  0
  127.4764  127.4639   71.1901 H   0  0  0  0  0  0  0  0  0  0  0  0
  127.9396  126.5413   68.9312 H   0  0  0  0  0  0  0  0  0  0  0  0
  130.5580  127.2560   66.9480 H   0  0  0  0  0  0  0  0  0  0  0  0
  129.4343  125.6716   65.1256 H   0  0  0  0  0  0  0  0  0  0  0  0
  131.2051  125.4609   65.5097 H   0  0  0  0  0  0  0  0  0  0  0  0
  128.2213  121.2566   61.2254 H   0  0  0  0  0  0  0  0  0  0  0  0
  128.5085  122.4832   59.9450 H   0  0  0  0  0  0  0  0  0  0  0  0
  129.4430  120.9492   59.9450 H   0  0  0  0  0  0  0  0  0  0  0  0
  131.5199  122.5472   59.8628 H   0  0  0  0  0  0  0  0  0  0  0  0
  132.0213  127.9437   69.1889 H   0  0  0  0  0  0  0  0  0  0  0  0
  131.5592  128.8651   71.4498 H   0  0  0  0  0  0  0  0  0  0  0  0
  1  2  1  0
  2  3  1  0
  3  4  2  0
  3  5  1  0
  5  6  2  0
  6  7  1  0
  7  8  2  0
  8  9  1  0
  9 10  1  0
 10 11  2  0
 10 12  1  0
 12 13  1  0
 13 14  1  0
 14 15  2  0
 15 16  1  0
 16 17  1  0
 16 18  2  0
 18 19  1  0
 19 20  1  0
 20 21  1  0
 20 22  1  0
 20 23  1  0
 19 24  2  0
 24 25  1  0
 25 26  3  0
  8 27  1  0
 27 28  2  0
 28  5  1  0
 24 14  1  0
  1 29  1  0
  1 30  1  0
  1 31  1  0
  6 32  1  0
  7 33  1  0
  9 34  1  0
 12 35  1  0
 12 36  1  0
 17 37  1  0
 17 38  1  0
 17 39  1  0
 18 40  1  0
 27 41  1  0
 28 42  1  0
M  END
>  <Binding energies>  (1) 
[-7.56]

>  <Ligand effiencies>  (1) 
[-0.26068965517241377]

>  <Interactions>  (1) 
["V-A:ASP:366:CG:3213, V-A:ASP:366:CB:3212, V-B:PRO:540:N:9856, V-B:PRO:540:CA:9855, V-B:TYR:539:CE2:9848, V-B:TYR:539:C:9839, V-B:PRO:540:C:9853, V-B:TYR:539:CD2:9846, V-A:ILE:369:CD1:3239, V-B:GLU:543:CG:9879, V-A:ILE:369:CB:3236, V-A:ILE:369:CG2:3237, V-A:LEU:475:CD2:4259, V-B:GLU:543:CB:9878, H-A:TYR:484:OH:4348, V-A:GLU:543:CD:4908, H-A:ARG:545:NE:4924, V-A:GLY:454:CA:4049, V-B:HIS:456:CE1:9041, V-A:GLY:544:CA:4914, V-A:GLY:544:C:4912, H-A:LYS:547:NZ:4951, V-B:HIS:456:CD2:9039, V-A:HIS:456:CE1:4070, V-A:GLU:543:C:4902, V-A:GLU:543:CB:4906, H-B:LYS:547:NZ:9923, H-A:GLU:543:OE1:4909, H-A:GLU:543:OE2:4910, H-A:ARG:545:NH2:4928, V-B:GLU:543:CA:9876, H-A:GLY:454:N:4050, V-A:LYS:547:CE:4950"]

$$$$
2c_Ghoteimi_2023
     RDKit          3D

 72 77  0  0  0  0  0  0  0  0999 V2000
  126.4330  130.3970   58.6740 N   0  0  0  0  0  0  0  0  0  0  0  0
  126.6970  130.0610   59.7490 C   0  0  0  0  0  0  0  0  0  0  0  0
  127.0330  129.6280   61.1090 C   0  0  0  0  0  0  0  0  0  0  0  0
  127.1620  128.2510   61.4170 C   0  0  0  0  0  0  0  0  0  0  0  0
  126.9710  127.1540   60.4210 C   0  0  0  0  0  0  0  0  0  0  0  0
  126.4260  125.9320   60.8180 C   0  0  0  0  0  0  0  0  0  0  0  0
  126.2400  124.9060   59.8940 C   0  0  0  0  0  0  0  0  0  0  0  0
  126.6090  125.0700   58.5500 C   0  0  0  0  0  0  0  0  0  0  0  0
  126.4140  124.0620   57.6020 N   0  0  0  0  0  0  0  0  0  0  0  0
  127.5620  123.2350   57.1800 C   0  0  0  0  0  0  0  0  0  0  0  0
  127.2990  122.4470   55.8790 C   0  0  0  0  0  0  0  0  0  0  0  0
  126.1290  121.6550   56.0180 O   0  0  0  0  0  0  0  0  0  0  0  0
  124.9850  122.4520   56.2850 C   0  0  0  0  0  0  0  0  0  0  0  0
  125.1870  123.2420   57.5950 C   0  0  0  0  0  0  0  0  0  0  0  0
  127.1600  126.3000   58.1620 C   0  0  0  0  0  0  0  0  0  0  0  0
  127.3430  127.3250   59.0850 C   0  0  0  0  0  0  0  0  0  0  0  0
  127.4870  127.8890   62.7310 C   0  0  0  0  0  0  0  0  0  0  0  0
  127.7040  128.8700   63.7030 C   0  0  0  0  0  0  0  0  0  0  0  0
  128.0700  128.5370   65.1130 C   0  0  0  0  0  0  0  0  0  0  0  0
  128.7510  127.3520   65.4130 C   0  0  0  0  0  0  0  0  0  0  0  0
  129.1000  127.0380   66.7250 C   0  0  0  0  0  0  0  0  0  0  0  0
  128.7690  127.8940   67.7880 C   0  0  0  0  0  0  0  0  0  0  0  0
  129.1340  127.6060   69.1070 N   0  0  0  0  0  0  0  0  0  0  0  0
  130.2320  128.3580   69.7480 C   0  0  0  0  0  0  0  0  0  0  0  0
  130.7740  127.6910   71.0300 C   0  0  0  0  0  0  0  0  0  0  0  0
  129.7160  127.4670   71.9450 O   0  0  0  0  0  0  0  0  0  0  0  0
  128.7280  126.6090   71.3970 C   0  0  0  0  0  0  0  0  0  0  0  0
  128.1260  127.2390   70.1230 C   0  0  0  0  0  0  0  0  0  0  0  0
  128.0980  129.0860   67.4800 C   0  0  0  0  0  0  0  0  0  0  0  0
  127.7520  129.4000   66.1690 C   0  0  0  0  0  0  0  0  0  0  0  0
  127.5830  130.1890   63.4040 N   0  0  0  0  0  0  0  0  0  0  0  0
  127.2380  130.5630   62.1490 C   0  0  0  0  0  0  0  0  0  0  0  0
  127.1130  132.3250   61.9400 S   0  0  0  0  0  0  0  0  0  0  0  0
  128.7470  133.0350   62.3030 C   0  0  0  0  0  0  0  0  0  0  0  0
  129.7570  132.7500   61.1890 C   0  0  0  0  0  0  0  0  0  0  0  0
  130.9190  132.4700   61.4850 O   0  0  0  0  0  0  0  0  0  0  0  0
  129.2750  132.8360   59.9310 N   0  0  0  0  0  0  0  0  0  0  0  0
  129.9780  132.6090   58.7560 C   0  0  0  0  0  0  0  0  0  0  0  0
  129.9090  133.2850   57.6310 N   0  0  0  0  0  0  0  0  0  0  0  0
  130.7250  132.7940   56.7190 C   0  0  0  0  0  0  0  0  0  0  0  0
  131.4810  131.6890   57.1010 C   0  0  0  0  0  0  0  0  0  0  0  0
  131.0940  131.2810   58.7460 S   0  0  0  0  0  0  0  0  0  0  0  0
  126.1409  125.7777   61.8692 H   0  0  0  0  0  0  0  0  0  0  0  0
  125.7977  123.9540   60.2226 H   0  0  0  0  0  0  0  0  0  0  0  0
  128.4278  123.8944   57.0202 H   0  0  0  0  0  0  0  0  0  0  0  0
  127.7444  122.4987   57.9766 H   0  0  0  0  0  0  0  0  0  0  0  0
  127.1638  123.1533   55.0466 H   0  0  0  0  0  0  0  0  0  0  0  0
  128.1573  121.7898   55.6757 H   0  0  0  0  0  0  0  0  0  0  0  0
  124.8300  123.1567   55.4547 H   0  0  0  0  0  0  0  0  0  0  0  0
  124.1059  121.7990   56.3887 H   0  0  0  0  0  0  0  0  0  0  0  0
  124.3225  123.9070   57.7379 H   0  0  0  0  0  0  0  0  0  0  0  0
  125.2840  122.5057   58.4064 H   0  0  0  0  0  0  0  0  0  0  0  0
  127.4517  126.4566   57.1130 H   0  0  0  0  0  0  0  0  0  0  0  0
  127.7845  128.2786   58.7600 H   0  0  0  0  0  0  0  0  0  0  0  0
  127.5720  126.8257   62.9996 H   0  0  0  0  0  0  0  0  0  0  0  0
  129.0147  126.6581   64.6012 H   0  0  0  0  0  0  0  0  0  0  0  0
  129.6437  126.1043   66.9315 H   0  0  0  0  0  0  0  0  0  0  0  0
  131.0582  128.4483   69.0274 H   0  0  0  0  0  0  0  0  0  0  0  0
  129.8234  129.3360   70.0422 H   0  0  0  0  0  0  0  0  0  0  0  0
  131.2409  126.7293   70.7707 H   0  0  0  0  0  0  0  0  0  0  0  0
  131.5184  128.3543   71.4947 H   0  0  0  0  0  0  0  0  0  0  0  0
  129.1864  125.6419   71.1429 H   0  0  0  0  0  0  0  0  0  0  0  0
  127.9285  126.4611   72.1379 H   0  0  0  0  0  0  0  0  0  0  0  0
  127.4286  126.5161   69.6746 H   0  0  0  0  0  0  0  0  0  0  0  0
  127.6267  128.1697   70.4304 H   0  0  0  0  0  0  0  0  0  0  0  0
  127.8405  129.7855   68.2890 H   0  0  0  0  0  0  0  0  0  0  0  0
  127.2208  130.3401   65.9592 H   0  0  0  0  0  0  0  0  0  0  0  0
  128.6433  134.1240   62.4181 H   0  0  0  0  0  0  0  0  0  0  0  0
  129.1211  132.5707   63.2274 H   0  0  0  0  0  0  0  0  0  0  0  0
  128.2970  133.0640   59.8190 H   0  0  0  0  0  0  0  0  0  0  0  0
  130.8040  133.2326   55.7133 H   0  0  0  0  0  0  0  0  0  0  0  0
  132.2058  131.1598   56.4649 H   0  0  0  0  0  0  0  0  0  0  0  0
  1  2  3  0
  2  3  1  0
  3  4  2  0
  4  5  1  0
  5  6  2  0
  6  7  1  0
  7  8  2  0
  8  9  1  0
  9 10  1  0
 10 11  1  0
 11 12  1  0
 12 13  1  0
 13 14  1  0
  8 15  1  0
 15 16  2  0
  4 17  1  0
 17 18  2  0
 18 19  1  0
 19 20  2  0
 20 21  1  0
 21 22  2  0
 22 23  1  0
 23 24  1  0
 24 25  1  0
 25 26  1  0
 26 27  1  0
 27 28  1  0
 22 29  1  0
 29 30  2  0
 18 31  1  0
 31 32  2  0
 32 33  1  0
 33 34  1  0
 34 35  1  0
 35 36  2  0
 35 37  1  0
 37 38  1  0
 38 39  2  0
 39 40  1  0
 40 41  2  0
 41 42  1  0
 32  3  1  0
 42 38  1  0
 16  5  1  0
 30 19  1  0
 14  9  1  0
 28 23  1  0
  6 43  1  0
  7 44  1  0
 10 45  1  0
 10 46  1  0
 11 47  1  0
 11 48  1  0
 13 49  1  0
 13 50  1  0
 14 51  1  0
 14 52  1  0
 15 53  1  0
 16 54  1  0
 17 55  1  0
 20 56  1  0
 21 57  1  0
 24 58  1  0
 24 59  1  0
 25 60  1  0
 25 61  1  0
 27 62  1  0
 27 63  1  0
 28 64  1  0
 28 65  1  0
 29 66  1  0
 30 67  1  0
 34 68  1  0
 34 69  1  0
 37 70  1  0
 40 71  1  0
 41 72  1  0
M  END
>  <Binding energies>  (1) 
[-10.99]

>  <Ligand effiencies>  (1) 
[-0.2555813953488372]

>  <Interactions>  (1) 
["V-A:LEU:363:CD1:3189, V-A:PRO:540:CA:4883, V-A:PRO:540:CB:4885, V-A:PRO:540:N:4884, V-A:TYR:539:C:4867, H-A:TYR:539:N:4870, V-B:TYR:539:CZ:9849, V-B:PRO:540:N:9856, V-B:TYR:539:CE1:9847, V-B:PRO:540:CB:9857, V-B:TYR:539:CD1:9845, V-B:PRO:540:CA:9855, V-B:TYR:539:CE2:9848, H-B:TYR:539:N:9842, V-B:PRO:540:CD:9859, V-B:ASP:366:CG:8184, V-B:MET:535:CE:9807, V-B:LEU:363:CD1:8160, V-B:PRO:540:CG:9858, V-B:TYR:539:CG:9844, V-B:GLU:543:CG:9879, V-B:GLU:543:CB:9878, V-A:GLU:543:CD:4908, V-B:GLU:543:CD:9880, V-B:HIS:456:CE1:9041, V-A:GLY:544:C:4912, V-A:HIS:456:CE1:4070, V-A:GLU:543:CG:4907, V-A:GLU:543:C:4902, V-A:GLU:543:CB:4906, V-B:TYR:484:CZ:9318, V-A:GLU:543:CA:4904, V-A:ALA:541:CB:4892, V-A:HIS:456:CD2:4068, V-A:PRO:540:C:4881, H-A:ALA:541:N:4891, V-B:ILE:538:CG2:9835, V-A:ILE:538:CA:4860, V-A:ILE:538:CB:4862, V-B:ILE:538:CA:9832, H-A:TYR:539:O:4868"]

$$$$
2c_Grossjean_2025
     RDKit          3D

 40 41  0  0  0  0  0  0  0  0999 V2000
  125.1010  122.0310   55.9730 C   0  0  0  0  0  0  0  0  0  0  0  0
  126.4390  122.0160   56.4610 O   0  0  0  0  0  0  0  0  0  0  0  0
  126.7530  122.7430   57.5930 C   0  0  0  0  0  0  0  0  0  0  0  0
  125.7220  123.4960   58.1530 C   0  0  0  0  0  0  0  0  0  0  0  0
  125.9410  124.2630   59.2950 C   0  0  0  0  0  0  0  0  0  0  0  0
  127.2130  124.2910   59.8850 C   0  0  0  0  0  0  0  0  0  0  0  0
  127.5260  125.0200   61.0470 N   0  0  0  0  0  0  0  0  0  0  0  0
  128.4770  125.9620   61.2210 C   0  0  0  0  0  0  0  0  0  0  0  0
  129.2900  126.3040   60.3600 O   0  0  0  0  0  0  0  0  0  0  0  0
  128.5220  126.5860   62.6240 C   0  0  0  0  0  0  0  0  0  0  0  0
  129.4590  125.6400   63.8750 S   0  0  0  0  0  0  0  0  0  0  0  0
  130.4490  124.3940   63.0590 C   0  0  0  0  0  0  0  0  0  0  0  0
  131.7770  124.6630   62.9730 N   0  0  0  0  0  0  0  0  0  0  0  0
  132.5860  123.7700   62.3610 C   0  0  0  0  0  0  0  0  0  0  0  0
  134.0520  124.1510   62.2900 C   0  0  0  0  0  0  0  0  0  0  0  0
  132.1130  122.5760   61.8200 C   0  0  0  0  0  0  0  0  0  0  0  0
  130.7470  122.2740   61.9050 C   0  0  0  0  0  0  0  0  0  0  0  0
  130.2400  120.9480   61.3040 C   0  0  0  0  0  0  0  0  0  0  0  0
  129.2620  121.1880   60.4300 F   0  0  0  0  0  0  0  0  0  0  0  0
  131.2360  120.3180   60.6790 F   0  0  0  0  0  0  0  0  0  0  0  0
  129.7560  120.1150   62.2290 F   0  0  0  0  0  0  0  0  0  0  0  0
  129.8860  123.2040   62.5400 C   0  0  0  0  0  0  0  0  0  0  0  0
  128.4470  122.9410   62.6550 C   0  0  0  0  0  0  0  0  0  0  0  0
  127.3130  122.7330   62.7460 N   0  0  0  0  0  0  0  0  0  0  0  0
  128.2440  123.5260   59.3370 C   0  0  0  0  0  0  0  0  0  0  0  0
  128.0200  122.7600   58.1970 C   0  0  0  0  0  0  0  0  0  0  0  0
  124.4012  122.0388   56.8217 H   0  0  0  0  0  0  0  0  0  0  0  0
  124.9443  122.9310   55.3602 H   0  0  0  0  0  0  0  0  0  0  0  0
  124.9241  121.1348   55.3602 H   0  0  0  0  0  0  0  0  0  0  0  0
  124.7251  123.4843   57.6882 H   0  0  0  0  0  0  0  0  0  0  0  0
  125.1175  124.8458   59.7334 H   0  0  0  0  0  0  0  0  0  0  0  0
  127.0040  124.7500   61.8680 H   0  0  0  0  0  0  0  0  0  0  0  0
  128.9815  127.5817   62.5376 H   0  0  0  0  0  0  0  0  0  0  0  0
  127.4810  126.6078   62.9787 H   0  0  0  0  0  0  0  0  0  0  0  0
  134.4535  124.2553   63.3088 H   0  0  0  0  0  0  0  0  0  0  0  0
  134.6089  123.3678   61.7549 H   0  0  0  0  0  0  0  0  0  0  0  0
  134.1571  125.1063   61.7549 H   0  0  0  0  0  0  0  0  0  0  0  0
  132.8061  121.8762   61.3302 H   0  0  0  0  0  0  0  0  0  0  0  0
  129.2379  123.5287   59.8084 H   0  0  0  0  0  0  0  0  0  0  0  0
  128.8395  122.1652   57.7673 H   0  0  0  0  0  0  0  0  0  0  0  0
  1  2  1  0
  2  3  1  0
  3  4  2  0
  4  5  1  0
  5  6  2  0
  6  7  1  0
  7  8  1  0
  8  9  2  0
  8 10  1  0
 10 11  1  0
 11 12  1  0
 12 13  2  0
 13 14  1  0
 14 15  1  0
 14 16  2  0
 16 17  1  0
 17 18  1  0
 18 19  1  0
 18 20  1  0
 18 21  1  0
 17 22  2  0
 22 23  1  0
 23 24  3  0
  6 25  1  0
 25 26  2  0
 26  3  1  0
 22 12  1  0
  1 27  1  0
  1 28  1  0
  1 29  1  0
  4 30  1  0
  5 31  1  0
  7 32  1  0
 10 33  1  0
 10 34  1  0
 15 35  1  0
 15 36  1  0
 15 37  1  0
 16 38  1  0
 25 39  1  0
 26 40  1  0
M  END
>  <Binding energies>  (1) 
[-6.01]

>  <Ligand effiencies>  (1) 
[-0.2225925925925926]

>  <Interactions>  (1) 
["V-B:TYR:539:CZ:9849, V-B:PRO:540:N:9856, V-B:PRO:540:CB:9857, V-B:PRO:540:CA:9855, V-B:TYR:539:CE2:9848, H-B:TYR:539:N:9842, V-B:PRO:540:CD:9859, V-B:MET:535:CE:9807, V-B:LEU:363:CD1:8160, V-B:PRO:540:CG:9858, V-B:TYR:539:C:9839, V-B:TYR:539:CG:9844, H-B:GLU:543:OE1:9881, V-B:PRO:540:C:9853, H-B:ALA:541:N:9863, V-B:TYR:539:CD2:9846, V-B:ALA:541:CB:9864, V-A:ILE:369:CD1:3239, V-B:GLU:543:CG:9879, V-A:LEU:475:CD2:4259, V-B:GLU:543:CD:9880, V-B:ALA:541:CA:9862, V-B:ILE:538:CG2:9835, V-B:ILE:538:CA:9832, V-A:LEU:475:CG:4257, V-A:LEU:475:CD1:4258, V-B:ILE:538:CB:9834"]

$$$$
2d_Ghoteimi_2023
     RDKit          3D

 68 72  0  0  0  0  0  0  0  0999 V2000
  132.4180  131.4110   62.2490 C   0  0  0  0  0  0  0  0  0  0  0  0
  131.1960  132.1320   62.2520 O   0  0  0  0  0  0  0  0  0  0  0  0
  130.3240  132.0080   61.2300 C   0  0  0  0  0  0  0  0  0  0  0  0
  130.4470  131.2380   60.2730 O   0  0  0  0  0  0  0  0  0  0  0  0
  129.1260  132.9540   61.4010 C   0  0  0  0  0  0  0  0  0  0  0  0
  127.5500  132.0890   61.0830 S   0  0  0  0  0  0  0  0  0  0  0  0
  127.6190  130.4940   61.8720 C   0  0  0  0  0  0  0  0  0  0  0  0
  127.4220  129.4630   61.0130 N   0  0  0  0  0  0  0  0  0  0  0  0
  127.4400  128.1890   61.4790 C   0  0  0  0  0  0  0  0  0  0  0  0
  127.1980  127.1070   60.4770 C   0  0  0  0  0  0  0  0  0  0  0  0
  126.8930  125.8060   60.8930 C   0  0  0  0  0  0  0  0  0  0  0  0
  126.6660  124.7930   59.9650 C   0  0  0  0  0  0  0  0  0  0  0  0
  126.7250  125.0470   58.5860 C   0  0  0  0  0  0  0  0  0  0  0  0
  126.5180  124.0370   57.6400 N   0  0  0  0  0  0  0  0  0  0  0  0
  127.6250  123.1850   57.1650 C   0  0  0  0  0  0  0  0  0  0  0  0
  127.2930  122.4000   55.8790 C   0  0  0  0  0  0  0  0  0  0  0  0
  126.1140  121.6340   56.0700 O   0  0  0  0  0  0  0  0  0  0  0  0
  125.0010  122.4580   56.3750 C   0  0  0  0  0  0  0  0  0  0  0  0
  125.2670  123.2510   57.6720 C   0  0  0  0  0  0  0  0  0  0  0  0
  127.0440  126.3490   58.1740 C   0  0  0  0  0  0  0  0  0  0  0  0
  127.2740  127.3610   59.1020 C   0  0  0  0  0  0  0  0  0  0  0  0
  127.6640  127.9190   62.8320 C   0  0  0  0  0  0  0  0  0  0  0  0
  127.9040  128.9630   63.7340 C   0  0  0  0  0  0  0  0  0  0  0  0
  128.1630  128.5980   65.1590 C   0  0  0  0  0  0  0  0  0  0  0  0
  128.8100  127.4010   65.4700 C   0  0  0  0  0  0  0  0  0  0  0  0
  129.0670  127.0570   66.7940 C   0  0  0  0  0  0  0  0  0  0  0  0
  128.6810  127.9030   67.8470 C   0  0  0  0  0  0  0  0  0  0  0  0
  128.9400  127.5840   69.1830 N   0  0  0  0  0  0  0  0  0  0  0  0
  127.8610  127.1600   70.0960 C   0  0  0  0  0  0  0  0  0  0  0  0
  128.3770  126.5140   71.4000 C   0  0  0  0  0  0  0  0  0  0  0  0
  129.2790  127.3930   72.0540 O   0  0  0  0  0  0  0  0  0  0  0  0
  130.4000  127.6960   71.2380 C   0  0  0  0  0  0  0  0  0  0  0  0
  129.9360  128.3750   69.9320 C   0  0  0  0  0  0  0  0  0  0  0  0
  128.0480  129.1110   67.5240 C   0  0  0  0  0  0  0  0  0  0  0  0
  127.7910  129.4540   66.1990 C   0  0  0  0  0  0  0  0  0  0  0  0
  127.8880  130.2940   63.2460 C   0  0  0  0  0  0  0  0  0  0  0  0
  128.1520  131.4190   64.1470 C   0  0  0  0  0  0  0  0  0  0  0  0
  128.3610  132.3050   64.8620 N   0  0  0  0  0  0  0  0  0  0  0  0
  132.7357  131.2236   63.2853 H   0  0  0  0  0  0  0  0  0  0  0  0
  132.2765  130.4517   61.7297 H   0  0  0  0  0  0  0  0  0  0  0  0
  133.1893  131.9988   61.7297 H   0  0  0  0  0  0  0  0  0  0  0  0
  129.1203  133.3432   62.4298 H   0  0  0  0  0  0  0  0  0  0  0  0
  129.2247  133.7752   60.6758 H   0  0  0  0  0  0  0  0  0  0  0  0
  126.8318  125.5806   61.9679 H   0  0  0  0  0  0  0  0  0  0  0  0
  126.4367  123.7769   60.3186 H   0  0  0  0  0  0  0  0  0  0  0  0
  128.4963  123.8262   56.9657 H   0  0  0  0  0  0  0  0  0  0  0  0
  127.8223  122.4436   57.9533 H   0  0  0  0  0  0  0  0  0  0  0  0
  127.1383  123.1067   55.0503 H   0  0  0  0  0  0  0  0  0  0  0  0
  128.1284  121.7248   55.6418 H   0  0  0  0  0  0  0  0  0  0  0  0
  124.8316  123.1617   55.5467 H   0  0  0  0  0  0  0  0  0  0  0  0
  124.1126  121.8249   56.5162 H   0  0  0  0  0  0  0  0  0  0  0  0
  124.4267  123.9417   57.8356 H   0  0  0  0  0  0  0  0  0  0  0  0
  125.3692  122.5158   58.4838 H   0  0  0  0  0  0  0  0  0  0  0  0
  127.1137  126.5744   57.0996 H   0  0  0  0  0  0  0  0  0  0  0  0
  127.5188  128.3741   58.7503 H   0  0  0  0  0  0  0  0  0  0  0  0
  127.6517  126.8792   63.1908 H   0  0  0  0  0  0  0  0  0  0  0  0
  129.1198  126.7230   64.6610 H   0  0  0  0  0  0  0  0  0  0  0  0
  129.5793  126.1099   67.0189 H   0  0  0  0  0  0  0  0  0  0  0  0
  127.2600  128.0430   70.3588 H   0  0  0  0  0  0  0  0  0  0  0  0
  127.2710  126.3965   69.5677 H   0  0  0  0  0  0  0  0  0  0  0  0
  127.5257  126.3052   72.0646 H   0  0  0  0  0  0  0  0  0  0  0  0
  128.8991  125.5770   71.1564 H   0  0  0  0  0  0  0  0  0  0  0  0
  131.0733  128.3749   71.7819 H   0  0  0  0  0  0  0  0  0  0  0  0
  130.9288  126.7635   70.9913 H   0  0  0  0  0  0  0  0  0  0  0  0
  129.4902  129.3485   70.1842 H   0  0  0  0  0  0  0  0  0  0  0  0
  130.8210  128.4782   69.2869 H   0  0  0  0  0  0  0  0  0  0  0  0
  127.7497  129.7985   68.3292 H   0  0  0  0  0  0  0  0  0  0  0  0
  127.2911  130.4065   65.9692 H   0  0  0  0  0  0  0  0  0  0  0  0
  1  2  1  0
  2  3  1  0
  3  4  2  0
  3  5  1  0
  5  6  1  0
  6  7  1  0
  7  8  2  0
  8  9  1  0
  9 10  1  0
 10 11  2  0
 11 12  1  0
 12 13  2  0
 13 14  1  0
 14 15  1  0
 15 16  1  0
 16 17  1  0
 17 18  1  0
 18 19  1  0
 13 20  1  0
 20 21  2  0
  9 22  2  0
 22 23  1  0
 23 24  1  0
 24 25  2  0
 25 26  1  0
 26 27  2  0
 27 28  1  0
 28 29  1  0
 29 30  1  0
 30 31  1  0
 31 32  1  0
 32 33  1  0
 27 34  1  0
 34 35  2  0
 23 36  2  0
 36 37  1  0
 37 38  3  0
 36  7  1  0
 21 10  1  0
 35 24  1  0
 19 14  1  0
 33 28  1  0
  1 39  1  0
  1 40  1  0
  1 41  1  0
  5 42  1  0
  5 43  1  0
 11 44  1  0
 12 45  1  0
 15 46  1  0
 15 47  1  0
 16 48  1  0
 16 49  1  0
 18 50  1  0
 18 51  1  0
 19 52  1  0
 19 53  1  0
 20 54  1  0
 21 55  1  0
 22 56  1  0
 25 57  1  0
 26 58  1  0
 29 59  1  0
 29 60  1  0
 30 61  1  0
 30 62  1  0
 32 63  1  0
 32 64  1  0
 33 65  1  0
 33 66  1  0
 34 67  1  0
 35 68  1  0
M  END
>  <Binding energies>  (1) 
[-10.07]

>  <Ligand effiencies>  (1) 
[-0.265]

>  <Interactions>  (1) 
["V-A:PRO:540:CA:4883, V-B:TYR:539:CZ:9849, V-B:PRO:540:N:9856, V-B:TYR:539:CE1:9847, V-B:PRO:540:CB:9857, V-B:TYR:539:CD1:9845, V-B:PRO:540:CA:9855, V-B:TYR:539:CE2:9848, H-B:TYR:539:N:9842, V-B:PRO:540:CD:9859, V-B:MET:535:CE:9807, V-B:LEU:363:CD1:8160, V-B:PRO:540:CG:9858, V-B:TYR:539:CG:9844, V-B:TYR:539:CD2:9846, V-B:GLU:543:CG:9879, V-B:GLU:543:CB:9878, V-A:GLU:543:CD:4908, V-B:GLU:543:CD:9880, V-B:HIS:456:CE1:9041, V-A:GLY:544:C:4912, V-B:GLU:543:C:9874, V-A:HIS:456:CE1:4070, V-A:GLU:543:CG:4907, V-A:GLU:543:C:4902, V-A:GLU:543:CB:4906, V-B:TYR:484:CZ:9318, H-B:TYR:484:OH:9319, V-A:PRO:540:C:4881, H-A:ALA:541:N:4891, V-B:ILE:538:CG2:9835, V-B:ILE:538:CA:9832"]

$$$$
2d_Grossjean_2025
     RDKit          3D

 36 37  0  0  0  0  0  0  0  0999 V2000
  129.1940  122.4980   61.2490 C   0  0  0  0  0  0  0  0  0  0  0  0
  129.0150  123.2170   59.9250 C   0  0  0  0  0  0  0  0  0  0  0  0
  128.1640  122.7270   58.9380 C   0  0  0  0  0  0  0  0  0  0  0  0
  128.0290  123.4300   57.7320 C   0  0  0  0  0  0  0  0  0  0  0  0
  127.0740  122.8780   56.6560 C   0  0  0  0  0  0  0  0  0  0  0  0
  126.6300  121.6730   57.0150 F   0  0  0  0  0  0  0  0  0  0  0  0
  126.0310  123.6960   56.5060 F   0  0  0  0  0  0  0  0  0  0  0  0
  127.6580  122.7510   55.4630 F   0  0  0  0  0  0  0  0  0  0  0  0
  128.7760  124.6230   57.5550 C   0  0  0  0  0  0  0  0  0  0  0  0
  128.6350  125.4180   56.3330 C   0  0  0  0  0  0  0  0  0  0  0  0
  128.5220  126.0470   55.3680 N   0  0  0  0  0  0  0  0  0  0  0  0
  129.6350  125.0310   58.6030 C   0  0  0  0  0  0  0  0  0  0  0  0
  130.6670  126.4830   58.5350 S   0  0  0  0  0  0  0  0  0  0  0  0
  132.2370  126.0480   57.7180 C   0  0  0  0  0  0  0  0  0  0  0  0
  132.9500  124.8650   58.3800 C   0  0  0  0  0  0  0  0  0  0  0  0
  133.8090  124.2530   57.7450 O   0  0  0  0  0  0  0  0  0  0  0  0
  132.5430  124.5650   59.6310 N   0  0  0  0  0  0  0  0  0  0  0  0
  132.9990  123.5510   60.4950 C   0  0  0  0  0  0  0  0  0  0  0  0
  133.6510  123.9810   61.6530 C   0  0  0  0  0  0  0  0  0  0  0  0
  134.1440  123.0530   62.5660 C   0  0  0  0  0  0  0  0  0  0  0  0
  133.9920  121.6910   62.3160 C   0  0  0  0  0  0  0  0  0  0  0  0
  133.3560  121.2510   61.1580 C   0  0  0  0  0  0  0  0  0  0  0  0
  132.8610  122.1760   60.2440 C   0  0  0  0  0  0  0  0  0  0  0  0
  129.7370  124.3500   59.7700 N   0  0  0  0  0  0  0  0  0  0  0  0
  129.0186  123.2024   62.0754 H   0  0  0  0  0  0  0  0  0  0  0  0
  128.4750  121.6682   61.3157 H   0  0  0  0  0  0  0  0  0  0  0  0
  130.2181  122.1021   61.3157 H   0  0  0  0  0  0  0  0  0  0  0  0
  127.6020  121.7959   59.1028 H   0  0  0  0  0  0  0  0  0  0  0  0
  132.0263  125.7881   56.6701 H   0  0  0  0  0  0  0  0  0  0  0  0
  132.9024  126.9201   57.7997 H   0  0  0  0  0  0  0  0  0  0  0  0
  131.7640  125.0990   59.9890 H   0  0  0  0  0  0  0  0  0  0  0  0
  133.7754  125.0571   61.8442 H   0  0  0  0  0  0  0  0  0  0  0  0
  134.6513  123.3936   63.4807 H   0  0  0  0  0  0  0  0  0  0  0  0
  134.3775  120.9572   63.0392 H   0  0  0  0  0  0  0  0  0  0  0  0
  133.2451  120.1736   60.9661 H   0  0  0  0  0  0  0  0  0  0  0  0
  132.3624  121.8309   59.3262 H   0  0  0  0  0  0  0  0  0  0  0  0
  1  2  1  0
  2  3  2  0
  3  4  1  0
  4  5  1  0
  5  6  1  0
  5  7  1  0
  5  8  1  0
  4  9  2  0
  9 10  1  0
 10 11  3  0
  9 12  1  0
 12 13  1  0
 13 14  1  0
 14 15  1  0
 15 16  2  0
 15 17  1  0
 17 18  1  0
 18 19  2  0
 19 20  1  0
 20 21  2  0
 21 22  1  0
 22 23  2  0
 12 24  2  0
 24  2  1  0
 23 18  1  0
  1 25  1  0
  1 26  1  0
  1 27  1  0
  3 28  1  0
 14 29  1  0
 14 30  1  0
 17 31  1  0
 19 32  1  0
 20 33  1  0
 21 34  1  0
 22 35  1  0
 23 36  1  0
M  END
>  <Binding energies>  (1) 
[-6.28]

>  <Ligand effiencies>  (1) 
[-0.25120000000000003]

>  <Interactions>  (1) 
["H-A:TYR:531:OH:4795, H-B:TYR:539:OH:9850, V-A:ASP:366:CB:3212, V-B:TYR:539:CZ:9849, V-B:PRO:540:N:9856, V-B:TYR:539:CE1:9847, V-B:PRO:540:CB:9857, V-B:TYR:539:CD1:9845, V-B:PRO:540:CA:9855, V-B:TYR:539:CE2:9848, V-B:PRO:540:CD:9859, V-B:MET:535:CE:9807, V-B:PRO:540:CG:9858, V-B:TYR:539:C:9839, V-B:TYR:539:CG:9844, V-B:TYR:539:CD2:9846, V-A:ASP:366:CA:3210, V-A:ILE:369:CD1:3239, H-A:ASN:370:N:3244, V-A:ILE:369:CG2:3237, V-A:LEU:475:CD2:4259, V-A:GLY:454:CA:4049, V-A:TYR:531:CZ:4794, V-A:GLY:453:C:4042, V-B:TYR:539:CA:9841, V-B:ILE:538:C:9830, V-A:SER:385:CB:3409, V-A:SER:385:C:3405"]

$$$$
2e_Grossjean_2025
     RDKit          3D

 38 39  0  0  0  0  0  0  0  0999 V2000
  132.1050  120.1010   60.8120 C   0  0  0  0  0  0  0  0  0  0  0  0
  132.7680  121.4450   61.0500 C   0  0  0  0  0  0  0  0  0  0  0  0
  133.7580  121.6110   62.0220 C   0  0  0  0  0  0  0  0  0  0  0  0
  134.3310  122.8740   62.1760 C   0  0  0  0  0  0  0  0  0  0  0  0
  133.9060  123.9290   61.3660 C   0  0  0  0  0  0  0  0  0  0  0  0
  132.9030  123.6960   60.4180 C   0  0  0  0  0  0  0  0  0  0  0  0
  132.5440  124.7810   59.6000 N   0  0  0  0  0  0  0  0  0  0  0  0
  132.9330  125.0320   58.3310 C   0  0  0  0  0  0  0  0  0  0  0  0
  133.6330  124.2850   57.6450 O   0  0  0  0  0  0  0  0  0  0  0  0
  132.4880  126.3790   57.7520 C   0  0  0  0  0  0  0  0  0  0  0  0
  130.9620  126.9900   58.5360 S   0  0  0  0  0  0  0  0  0  0  0  0
  129.8680  125.5890   58.6010 C   0  0  0  0  0  0  0  0  0  0  0  0
  129.7770  124.9980   59.8180 N   0  0  0  0  0  0  0  0  0  0  0  0
  129.0010  123.8980   59.9460 C   0  0  0  0  0  0  0  0  0  0  0  0
  128.9440  123.2890   61.3330 C   0  0  0  0  0  0  0  0  0  0  0  0
  128.2980  123.3450   58.8770 C   0  0  0  0  0  0  0  0  0  0  0  0
  128.3880  123.9390   57.6090 C   0  0  0  0  0  0  0  0  0  0  0  0
  127.6220  123.3040   56.4340 C   0  0  0  0  0  0  0  0  0  0  0  0
  127.4910  121.9910   56.6280 F   0  0  0  0  0  0  0  0  0  0  0  0
  126.4100  123.8490   56.3320 F   0  0  0  0  0  0  0  0  0  0  0  0
  128.2400  123.4760   55.2630 F   0  0  0  0  0  0  0  0  0  0  0  0
  129.1930  125.0960   57.4600 C   0  0  0  0  0  0  0  0  0  0  0  0
  129.3530  125.7450   56.1560 C   0  0  0  0  0  0  0  0  0  0  0  0
  129.4790  126.2570   55.1250 N   0  0  0  0  0  0  0  0  0  0  0  0
  132.3430  122.4610   60.2550 N   0  0  0  0  0  0  0  0  0  0  0  0
  131.8728  119.6304   61.7787 H   0  0  0  0  0  0  0  0  0  0  0  0
  131.1753  120.2465   60.2424 H   0  0  0  0  0  0  0  0  0  0  0  0
  132.7862  119.4518   60.2424 H   0  0  0  0  0  0  0  0  0  0  0  0
  134.0778  120.7667   62.6504 H   0  0  0  0  0  0  0  0  0  0  0  0
  135.1135  123.0377   62.9316 H   0  0  0  0  0  0  0  0  0  0  0  0
  134.3529  124.9286   61.4714 H   0  0  0  0  0  0  0  0  0  0  0  0
  131.8830  125.4240   60.0110 H   0  0  0  0  0  0  0  0  0  0  0  0
  133.2888  127.1160   57.9120 H   0  0  0  0  0  0  0  0  0  0  0  0
  132.2852  126.2370   56.6802 H   0  0  0  0  0  0  0  0  0  0  0  0
  129.0186  124.0865   62.0870 H   0  0  0  0  0  0  0  0  0  0  0  0
  127.9918  122.7530   61.4593 H   0  0  0  0  0  0  0  0  0  0  0  0
  129.7802  122.5856   61.4593 H   0  0  0  0  0  0  0  0  0  0  0  0
  127.6771  122.4493   59.0263 H   0  0  0  0  0  0  0  0  0  0  0  0
  1  2  1  0
  2  3  2  0
  3  4  1  0
  4  5  2  0
  5  6  1  0
  6  7  1  0
  7  8  1  0
  8  9  2  0
  8 10  1  0
 10 11  1  0
 11 12  1  0
 12 13  2  0
 13 14  1  0
 14 15  1  0
 14 16  2  0
 16 17  1  0
 17 18  1  0
 18 19  1  0
 18 20  1  0
 18 21  1  0
 17 22  2  0
 22 23  1  0
 23 24  3  0
  6 25  2  0
 25  2  1  0
 22 12  1  0
  1 26  1  0
  1 27  1  0
  1 28  1  0
  3 29  1  0
  4 30  1  0
  5 31  1  0
  7 32  1  0
 10 33  1  0
 10 34  1  0
 15 35  1  0
 15 36  1  0
 15 37  1  0
 16 38  1  0
M  END
>  <Binding energies>  (1) 
[-6.35]

>  <Ligand effiencies>  (1) 
[-0.24423076923076922]

>  <Interactions>  (1) 
["V-A:ASP:366:CG:3213, H-A:TYR:531:OH:4795, H-B:TYR:539:OH:9850, V-A:ASP:366:CB:3212, V-B:TYR:539:CZ:9849, V-B:PRO:540:N:9856, V-B:TYR:539:CE1:9847, V-B:TYR:539:CD1:9845, V-B:TYR:539:CE2:9848, V-B:PRO:540:CD:9859, V-B:MET:535:CE:9807, V-B:TYR:539:C:9839, V-B:TYR:539:CG:9844, V-B:TYR:539:CD2:9846, V-A:ASP:366:C:3208, V-A:ASP:366:CA:3210, V-A:ILE:369:CD1:3239, V-A:ILE:369:CG2:3237, V-A:LEU:475:CD2:4259, V-A:GLY:454:CA:4049, V-A:TYR:531:CZ:4794, V-B:TYR:539:CA:9841, V-B:TYR:539:CB:9843, V-B:ILE:538:C:9830, V-A:SER:385:CB:3409"]

$$$$
2f_Grossjean_2025
     RDKit          3D

 35 36  0  0  0  0  0  0  0  0999 V2000
  129.3090  122.4840   61.1580 C   0  0  0  0  0  0  0  0  0  0  0  0
  129.0790  123.2100   59.8460 C   0  0  0  0  0  0  0  0  0  0  0  0
  128.1720  122.7390   58.8990 C   0  0  0  0  0  0  0  0  0  0  0  0
  128.0010  123.4420   57.6970 C   0  0  0  0  0  0  0  0  0  0  0  0
  127.0020  122.8980   56.6580 C   0  0  0  0  0  0  0  0  0  0  0  0
  125.9780  123.7430   56.5210 F   0  0  0  0  0  0  0  0  0  0  0  0
  127.6050  122.7560   55.4780 F   0  0  0  0  0  0  0  0  0  0  0  0
  126.4970  121.7100   56.9980 F   0  0  0  0  0  0  0  0  0  0  0  0
  128.7600  124.6230   57.4880 C   0  0  0  0  0  0  0  0  0  0  0  0
  128.6590  125.3600   56.2260 C   0  0  0  0  0  0  0  0  0  0  0  0
  128.5780  125.9420   55.2290 N   0  0  0  0  0  0  0  0  0  0  0  0
  129.6380  125.0400   58.5160 C   0  0  0  0  0  0  0  0  0  0  0  0
  130.6560  126.5000   58.4290 S   0  0  0  0  0  0  0  0  0  0  0  0
  132.2550  126.0310   57.6840 C   0  0  0  0  0  0  0  0  0  0  0  0
  132.9950  124.8890   58.3960 C   0  0  0  0  0  0  0  0  0  0  0  0
  133.8840  124.2610   57.8190 O   0  0  0  0  0  0  0  0  0  0  0  0
  132.5730  124.6480   59.6560 N   0  0  0  0  0  0  0  0  0  0  0  0
  133.0310  123.6960   60.5860 C   0  0  0  0  0  0  0  0  0  0  0  0
  133.0370  122.3020   60.3920 C   0  0  0  0  0  0  0  0  0  0  0  0
  133.5250  121.4660   61.3980 C   0  0  0  0  0  0  0  0  0  0  0  0
  134.0010  122.0450   62.5750 C   0  0  0  0  0  0  0  0  0  0  0  0
  134.0130  123.3860   62.7840 N   0  0  0  0  0  0  0  0  0  0  0  0
  133.5360  124.1850   61.7960 C   0  0  0  0  0  0  0  0  0  0  0  0
  129.8070  124.3350   59.6620 N   0  0  0  0  0  0  0  0  0  0  0  0
  129.0937  123.1636   61.9957 H   0  0  0  0  0  0  0  0  0  0  0  0
  128.6438  121.6097   61.2148 H   0  0  0  0  0  0  0  0  0  0  0  0
  130.3562  122.1522   61.2148 H   0  0  0  0  0  0  0  0  0  0  0  0
  127.5944  121.8230   59.0923 H   0  0  0  0  0  0  0  0  0  0  0  0
  132.0691  125.7212   56.6450 H   0  0  0  0  0  0  0  0  0  0  0  0
  132.9034  126.9156   57.7678 H   0  0  0  0  0  0  0  0  0  0  0  0
  131.7940  125.2030   59.9800 H   0  0  0  0  0  0  0  0  0  0  0  0
  132.6590  121.8732   59.4522 H   0  0  0  0  0  0  0  0  0  0  0  0
  133.5341  120.3740   61.2656 H   0  0  0  0  0  0  0  0  0  0  0  0
  134.3833  121.3857   63.3682 H   0  0  0  0  0  0  0  0  0  0  0  0
  133.5469  125.2734   61.9546 H   0  0  0  0  0  0  0  0  0  0  0  0
  1  2  1  0
  2  3  2  0
  3  4  1  0
  4  5  1  0
  5  6  1  0
  5  7  1  0
  5  8  1  0
  4  9  2  0
  9 10  1  0
 10 11  3  0
  9 12  1  0
 12 13  1  0
 13 14  1  0
 14 15  1  0
 15 16  2  0
 15 17  1  0
 17 18  1  0
 18 19  2  0
 19 20  1  0
 20 21  2  0
 21 22  1  0
 22 23  2  0
 12 24  2  0
 24  2  1  0
 23 18  1  0
  1 25  1  0
  1 26  1  0
  1 27  1  0
  3 28  1  0
 14 29  1  0
 14 30  1  0
 17 31  1  0
 19 32  1  0
 20 33  1  0
 21 34  1  0
 23 35  1  0
M  END
>  <Binding energies>  (1) 
[-6.14]

>  <Ligand effiencies>  (1) 
[-0.24559999999999998]

>  <Interactions>  (1) 
["V-A:ASP:366:CG:3213, H-A:TYR:531:OH:4795, H-B:TYR:539:OH:9850, V-A:ASP:366:CB:3212, V-B:TYR:539:CZ:9849, V-B:PRO:540:N:9856, V-B:TYR:539:CE1:9847, V-B:PRO:540:CB:9857, V-B:TYR:539:CD1:9845, V-B:PRO:540:CA:9855, V-B:TYR:539:CE2:9848, V-B:PRO:540:CD:9859, V-B:MET:535:CE:9807, V-B:PRO:540:CG:9858, V-B:TYR:539:C:9839, V-B:TYR:539:CG:9844, V-B:TYR:539:CD2:9846, V-A:ASP:366:CA:3210, V-A:ILE:369:CD1:3239, H-A:ASN:370:N:3244, V-A:ILE:369:CG2:3237, V-A:LEU:475:CD2:4259, V-A:GLY:454:CA:4049, V-A:TYR:531:CZ:4794, H-A:GLY:454:N:4050, V-B:TYR:539:CA:9841, V-B:ILE:538:C:9830, V-A:SER:385:CB:3409"]

$$$$
2g_Grossjean_2025
     RDKit          3D

 39 40  0  0  0  0  0  0  0  0999 V2000
  126.3760  128.6680   58.6880 C   0  0  0  0  0  0  0  0  0  0  0  0
  126.4980  127.2170   58.2640 C   0  0  0  0  0  0  0  0  0  0  0  0
  127.6710  126.7180   57.7020 C   0  0  0  0  0  0  0  0  0  0  0  0
  127.7330  125.3700   57.3190 C   0  0  0  0  0  0  0  0  0  0  0  0
  129.0360  124.8380   56.6910 C   0  0  0  0  0  0  0  0  0  0  0  0
  129.8100  124.2890   57.6280 F   0  0  0  0  0  0  0  0  0  0  0  0
  128.7500  123.9150   55.7710 F   0  0  0  0  0  0  0  0  0  0  0  0
  129.7500  125.7950   56.0940 F   0  0  0  0  0  0  0  0  0  0  0  0
  126.5920  124.5530   57.5260 C   0  0  0  0  0  0  0  0  0  0  0  0
  126.5840  123.1530   57.0910 C   0  0  0  0  0  0  0  0  0  0  0  0
  126.5780  122.0480   56.7480 N   0  0  0  0  0  0  0  0  0  0  0  0
  125.4540  125.1400   58.1310 C   0  0  0  0  0  0  0  0  0  0  0  0
  123.9510  124.2550   58.4860 S   0  0  0  0  0  0  0  0  0  0  0  0
  123.9390  123.8890   60.2740 C   0  0  0  0  0  0  0  0  0  0  0  0
  125.3270  123.8400   60.9280 C   0  0  0  0  0  0  0  0  0  0  0  0
  125.7150  122.8400   61.5350 O   0  0  0  0  0  0  0  0  0  0  0  0
  126.0680  124.9550   60.7940 N   0  0  0  0  0  0  0  0  0  0  0  0
  127.4210  125.1430   61.3210 C   0  0  0  0  0  0  0  0  0  0  0  0
  128.2300  123.8570   61.4520 C   0  0  0  0  0  0  0  0  0  0  0  0
  128.5510  123.1180   60.3100 C   0  0  0  0  0  0  0  0  0  0  0  0
  129.3220  121.9640   60.4220 C   0  0  0  0  0  0  0  0  0  0  0  0
  129.7770  121.5580   61.6740 C   0  0  0  0  0  0  0  0  0  0  0  0
  129.4710  122.2970   62.8150 C   0  0  0  0  0  0  0  0  0  0  0  0
  128.7010  123.4510   62.7030 C   0  0  0  0  0  0  0  0  0  0  0  0
  125.4050  126.4500   58.4740 N   0  0  0  0  0  0  0  0  0  0  0  0
  126.3708  128.7299   59.7862 H   0  0  0  0  0  0  0  0  0  0  0  0
  127.2293  129.2385   58.2926 H   0  0  0  0  0  0  0  0  0  0  0  0
  125.4394  129.0880   58.2926 H   0  0  0  0  0  0  0  0  0  0  0  0
  128.5413  127.3756   57.5598 H   0  0  0  0  0  0  0  0  0  0  0  0
  123.3494  124.6682   60.7793 H   0  0  0  0  0  0  0  0  0  0  0  0
  123.5088  122.8824   60.3822 H   0  0  0  0  0  0  0  0  0  0  0  0
  125.6890  125.7230   60.2610 H   0  0  0  0  0  0  0  0  0  0  0  0
  127.9619  125.8225   60.6459 H   0  0  0  0  0  0  0  0  0  0  0  0
  127.3087  125.5483   62.3374 H   0  0  0  0  0  0  0  0  0  0  0  0
  128.1947  123.4479   59.3230 H   0  0  0  0  0  0  0  0  0  0  0  0
  129.5704  121.3760   59.5261 H   0  0  0  0  0  0  0  0  0  0  0  0
  130.3839  120.6449   61.7631 H   0  0  0  0  0  0  0  0  0  0  0  0
  129.8363  121.9699   63.7997 H   0  0  0  0  0  0  0  0  0  0  0  0
  128.4634  124.0431   63.5991 H   0  0  0  0  0  0  0  0  0  0  0  0
  1  2  1  0
  2  3  2  0
  3  4  1  0
  4  5  1  0
  5  6  1  0
  5  7  1  0
  5  8  1  0
  4  9  2  0
  9 10  1  0
 10 11  3  0
  9 12  1  0
 12 13  1  0
 13 14  1  0
 14 15  1  0
 15 16  2  0
 15 17  1  0
 17 18  1  0
 18 19  1  0
 19 20  2  0
 20 21  1  0
 21 22  2  0
 22 23  1  0
 23 24  2  0
 12 25  2  0
 25  2  1  0
 24 19  1  0
  1 26  1  0
  1 27  1  0
  1 28  1  0
  3 29  1  0
 14 30  1  0
 14 31  1  0
 17 32  1  0
 18 33  1  0
 18 34  1  0
 20 35  1  0
 21 36  1  0
 22 37  1  0
 23 38  1  0
 24 39  1  0
M  END
>  <Binding energies>  (1) 
[-6.59]

>  <Ligand effiencies>  (1) 
[-0.25346153846153846]

>  <Interactions>  (1) 
["V-B:TYR:539:CZ:9849, V-B:PRO:540:N:9856, V-B:TYR:539:CE1:9847, V-B:PRO:540:CB:9857, V-B:TYR:539:CD1:9845, V-B:PRO:540:CA:9855, V-B:TYR:539:CE2:9848, H-B:TYR:539:N:9842, H-B:TYR:531:OH:9767, H-B:ASP:366:OD1:8185, V-B:ASP:366:CG:8184, V-B:TYR:539:C:9839, H-B:GLU:543:OE1:9881, H-B:ALA:541:N:9863, V-B:TYR:539:CD2:9846, V-B:LEU:363:CA:8156, V-B:ALA:541:CB:9864, V-B:GLU:543:CG:9879, V-A:LEU:475:CD2:4259, V-B:GLU:543:CD:9880, V-B:ASN:362:CB:8147, V-B:ASN:362:C:8143"]

$$$$
2h_Grossjean_2025
     RDKit          3D

 51 52  0  0  0  0  0  0  0  0999 V2000
  128.3320  133.2510   55.1750 C   0  0  0  0  0  0  0  0  0  0  0  0
  129.5340  133.5580   55.8720 O   0  0  0  0  0  0  0  0  0  0  0  0
  129.7950  132.9390   57.0810 C   0  0  0  0  0  0  0  0  0  0  0  0
  128.8310  132.7360   58.0810 C   0  0  0  0  0  0  0  0  0  0  0  0
  129.1660  132.0970   59.2720 C   0  0  0  0  0  0  0  0  0  0  0  0
  130.4690  131.6470   59.4920 C   0  0  0  0  0  0  0  0  0  0  0  0
  130.8090  130.9300   60.7970 C   0  0  0  0  0  0  0  0  0  0  0  0
  131.2090  129.5350   60.6140 N   0  0  0  0  0  0  0  0  0  0  0  0
  130.5130  128.6190   59.9160 C   0  0  0  0  0  0  0  0  0  0  0  0
  129.4090  128.8450   59.4190 O   0  0  0  0  0  0  0  0  0  0  0  0
  131.1900  127.2500   59.7610 C   0  0  0  0  0  0  0  0  0  0  0  0
  130.1310  125.8180   60.1540 S   0  0  0  0  0  0  0  0  0  0  0  0
  129.2750  125.3860   58.6540 C   0  0  0  0  0  0  0  0  0  0  0  0
  129.4130  126.3020   57.6640 N   0  0  0  0  0  0  0  0  0  0  0  0
  128.7870  126.0820   56.4870 C   0  0  0  0  0  0  0  0  0  0  0  0
  128.9790  127.1510   55.4280 C   0  0  0  0  0  0  0  0  0  0  0  0
  128.0110  124.9500   56.2470 C   0  0  0  0  0  0  0  0  0  0  0  0
  127.8730  123.9810   57.2520 C   0  0  0  0  0  0  0  0  0  0  0  0
  127.0180  122.7320   56.9660 C   0  0  0  0  0  0  0  0  0  0  0  0
  125.8520  122.8210   57.6060 F   0  0  0  0  0  0  0  0  0  0  0  0
  126.7500  122.5760   55.6670 F   0  0  0  0  0  0  0  0  0  0  0  0
  127.6550  121.6350   57.3780 F   0  0  0  0  0  0  0  0  0  0  0  0
  128.5300  124.1940   58.4920 C   0  0  0  0  0  0  0  0  0  0  0  0
  128.4660  123.1850   59.5530 C   0  0  0  0  0  0  0  0  0  0  0  0
  128.4170  122.3860   60.3880 N   0  0  0  0  0  0  0  0  0  0  0  0
  131.4490  131.8640   58.5110 C   0  0  0  0  0  0  0  0  0  0  0  0
  132.7350  131.4270   58.7210 O   0  0  0  0  0  0  0  0  0  0  0  0
  133.0830  130.2560   57.9940 C   0  0  0  0  0  0  0  0  0  0  0  0
  131.1040  132.4920   57.3020 C   0  0  0  0  0  0  0  0  0  0  0  0
  132.0570  132.6900   56.3320 O   0  0  0  0  0  0  0  0  0  0  0  0
  132.0040  131.7520   55.2660 C   0  0  0  0  0  0  0  0  0  0  0  0
  127.5301  133.0462   55.8996 H   0  0  0  0  0  0  0  0  0  0  0  0
  128.0461  134.1050   54.5433 H   0  0  0  0  0  0  0  0  0  0  0  0
  128.4906  132.3645   54.5433 H   0  0  0  0  0  0  0  0  0  0  0  0
  127.8001  133.0854   57.9221 H   0  0  0  0  0  0  0  0  0  0  0  0
  128.3983  131.9457   60.0451 H   0  0  0  0  0  0  0  0  0  0  0  0
  131.6363  131.4676   61.2834 H   0  0  0  0  0  0  0  0  0  0  0  0
  129.8949  130.9249   61.4088 H   0  0  0  0  0  0  0  0  0  0  0  0
  132.1220  129.2840   60.9640 H   0  0  0  0  0  0  0  0  0  0  0  0
  131.5247  127.1509   58.7179 H   0  0  0  0  0  0  0  0  0  0  0  0
  132.0153  127.2309   60.4880 H   0  0  0  0  0  0  0  0  0  0  0  0
  129.1534  128.1220   55.9146 H   0  0  0  0  0  0  0  0  0  0  0  0
  129.8454  126.8943   54.8008 H   0  0  0  0  0  0  0  0  0  0  0  0
  128.0774  127.2119   54.8008 H   0  0  0  0  0  0  0  0  0  0  0  0
  127.5102  124.8171   55.2767 H   0  0  0  0  0  0  0  0  0  0  0  0
  133.3238  129.4456   58.6977 H   0  0  0  0  0  0  0  0  0  0  0  0
  132.2363  129.9523   57.3609 H   0  0  0  0  0  0  0  0  0  0  0  0
  133.9581  130.4640   57.3609 H   0  0  0  0  0  0  0  0  0  0  0  0
  131.9464  130.7331   55.6766 H   0  0  0  0  0  0  0  0  0  0  0  0
  131.1156  131.9490   54.6481 H   0  0  0  0  0  0  0  0  0  0  0  0
  132.9090  131.8477   54.6481 H   0  0  0  0  0  0  0  0  0  0  0  0
  1  2  1  0
  2  3  1  0
  3  4  2  0
  4  5  1  0
  5  6  2  0
  6  7  1  0
  7  8  1  0
  8  9  1  0
  9 10  2  0
  9 11  1  0
 11 12  1  0
 12 13  1  0
 13 14  2  0
 14 15  1  0
 15 16  1  0
 15 17  2  0
 17 18  1  0
 18 19  1  0
 19 20  1  0
 19 21  1  0
 19 22  1  0
 18 23  2  0
 23 24  1  0
 24 25  3  0
  6 26  1  0
 26 27  1  0
 27 28  1  0
 26 29  2  0
 29 30  1  0
 30 31  1  0
 29  3  1  0
 23 13  1  0
  1 32  1  0
  1 33  1  0
  1 34  1  0
  4 35  1  0
  5 36  1  0
  7 37  1  0
  7 38  1  0
  8 39  1  0
 11 40  1  0
 11 41  1  0
 16 42  1  0
 16 43  1  0
 16 44  1  0
 17 45  1  0
 28 46  1  0
 28 47  1  0
 28 48  1  0
 31 49  1  0
 31 50  1  0
 31 51  1  0
M  END
>  <Binding energies>  (1) 
[-6.2]

>  <Ligand effiencies>  (1) 
[-0.19375]

>  <Interactions>  (1) 
["V-A:LEU:363:CD1:3189, V-A:ASP:366:CG:3213, V-A:PRO:540:CA:4883, V-A:PRO:540:CB:4885, H-A:ASP:366:OD2:3215, V-A:PRO:540:N:4884, V-A:TYR:539:C:4867, V-A:ASP:366:CB:3212, H-A:TYR:539:N:4870, V-B:TYR:539:CZ:9849, V-B:PRO:540:N:9856, V-B:TYR:539:CE1:9847, V-B:PRO:540:CB:9857, V-B:TYR:539:CD1:9845, V-B:PRO:540:CA:9855, V-B:TYR:539:CE2:9848, V-B:PRO:540:CD:9859, V-B:MET:535:CE:9807, V-B:PRO:540:CG:9858, V-B:TYR:539:C:9839, V-B:TYR:539:CG:9844, V-B:TYR:539:CD2:9846, V-A:MET:535:CE:4835, V-A:TYR:531:CZ:4794, H-A:GLU:543:OE1:4909, V-A:TYR:539:CE1:4875, V-A:TYR:539:CZ:4877, V-A:TYR:539:CD1:4873, V-A:TYR:539:CD2:4874, V-A:ILE:538:CA:4860, V-A:TYR:539:CG:4872, V-A:TYR:539:CE2:4876, V-A:TYR:531:CE2:4793, V-A:ILE:538:C:4858, V-A:ILE:538:CG2:4863, V-A:ILE:538:CB:4862, V-B:ILE:538:CA:9832, V-B:TYR:539:CA:9841, V-B:TYR:539:CB:9843, H-A:ASP:366:OD1:3214, V-A:MET:535:CG:4833"]

$$$$
2i_Grossjean_2025
     RDKit          3D

 32 33  0  0  0  0  0  0  0  0999 V2000
  129.9870  127.1420   62.2500 C   0  0  0  0  0  0  0  0  0  0  0  0
  130.9210  126.3940   61.3160 C   0  0  0  0  0  0  0  0  0  0  0  0
  131.9610  125.6060   61.8020 C   0  0  0  0  0  0  0  0  0  0  0  0
  132.7950  124.9330   60.8980 C   0  0  0  0  0  0  0  0  0  0  0  0
  133.9410  124.0650   61.4530 C   0  0  0  0  0  0  0  0  0  0  0  0
  133.8530  122.8260   60.9650 F   0  0  0  0  0  0  0  0  0  0  0  0
  135.1190  124.5840   61.1040 F   0  0  0  0  0  0  0  0  0  0  0  0
  133.9230  123.9740   62.7850 F   0  0  0  0  0  0  0  0  0  0  0  0
  132.5490  125.0800   59.5100 C   0  0  0  0  0  0  0  0  0  0  0  0
  133.3900  124.3980   58.5210 C   0  0  0  0  0  0  0  0  0  0  0  0
  134.0530  123.8600   57.7400 N   0  0  0  0  0  0  0  0  0  0  0  0
  131.4730  125.9030   59.1040 C   0  0  0  0  0  0  0  0  0  0  0  0
  131.0730  126.1690   57.3840 S   0  0  0  0  0  0  0  0  0  0  0  0
  129.2660  126.3110   57.2390 C   0  0  0  0  0  0  0  0  0  0  0  0
  128.5680  124.9530   57.3320 C   0  0  0  0  0  0  0  0  0  0  0  0
  129.1100  124.0430   57.9610 O   0  0  0  0  0  0  0  0  0  0  0  0
  127.3920  124.8500   56.6750 N   0  0  0  0  0  0  0  0  0  0  0  0
  126.5850  123.7270   56.5950 C   0  0  0  0  0  0  0  0  0  0  0  0
  125.2250  123.5690   56.8970 C   0  0  0  0  0  0  0  0  0  0  0  0
  124.9580  122.2470   56.6270 C   0  0  0  0  0  0  0  0  0  0  0  0
  126.0880  121.6490   56.1810 O   0  0  0  0  0  0  0  0  0  0  0  0
  127.1090  122.6020   56.1610 N   0  0  0  0  0  0  0  0  0  0  0  0
  130.6750  126.5450   59.9960 N   0  0  0  0  0  0  0  0  0  0  0  0
  130.2595  126.9238   63.2931 H   0  0  0  0  0  0  0  0  0  0  0  0
  130.0738  128.2232   62.0668 H   0  0  0  0  0  0  0  0  0  0  0  0
  128.9509  126.8211   62.0668 H   0  0  0  0  0  0  0  0  0  0  0  0
  132.1268  125.5123   62.8854 H   0  0  0  0  0  0  0  0  0  0  0  0
  128.8955  126.9555   58.0498 H   0  0  0  0  0  0  0  0  0  0  0  0
  129.0401  126.7387   56.2511 H   0  0  0  0  0  0  0  0  0  0  0  0
  127.0710  125.6570   56.1600 H   0  0  0  0  0  0  0  0  0  0  0  0
  124.5261  124.3332   57.2678 H   0  0  0  0  0  0  0  0  0  0  0  0
  123.9826  121.7544   56.7532 H   0  0  0  0  0  0  0  0  0  0  0  0
  1  2  1  0
  2  3  2  0
  3  4  1  0
  4  5  1  0
  5  6  1  0
  5  7  1  0
  5  8  1  0
  4  9  2  0
  9 10  1  0
 10 11  3  0
  9 12  1  0
 12 13  1  0
 13 14  1  0
 14 15  1  0
 15 16  2  0
 15 17  1  0
 17 18  1  0
 18 19  1  0
 19 20  2  0
 20 21  1  0
 21 22  1  0
 12 23  2  0
 23  2  1  0
 22 18  2  0
  1 24  1  0
  1 25  1  0
  1 26  1  0
  3 27  1  0
 14 28  1  0
 14 29  1  0
 17 30  1  0
 19 31  1  0
 20 32  1  0
M  END
>  <Binding energies>  (1) 
[-6.02]

>  <Ligand effiencies>  (1) 
[-0.2508333333333333]

>  <Interactions>  (1) 
["V-A:ASP:366:CG:3213, H-A:TYR:531:OH:4795, H-B:TYR:539:OH:9850, V-A:ASP:366:CB:3212, V-B:TYR:539:CZ:9849, V-B:PRO:540:N:9856, V-B:PRO:540:CB:9857, V-B:PRO:540:CA:9855, V-B:TYR:539:CE2:9848, H-B:TYR:539:N:9842, H-B:TYR:531:OH:9767, V-B:PRO:540:CD:9859, V-B:MET:535:CE:9807, V-B:LEU:363:CD1:8160, V-B:PRO:540:CG:9858, V-A:ASP:366:C:3208, V-A:ASP:366:CA:3210, V-A:ILE:369:CD1:3239, H-A:ASN:370:N:3244, V-A:ILE:369:CG2:3237, V-A:GLU:543:CD:4908, V-A:GLY:454:CA:4049, V-B:ILE:538:CG2:9835, H-B:MET:535:SD:9806, V-A:ILE:369:CG1:3238"]

$$$$
2j_Grossjean_2025
     RDKit          3D

 32 33  0  0  0  0  0  0  0  0999 V2000
  129.2340  122.8720   61.4020 C   0  0  0  0  0  0  0  0  0  0  0  0
  129.1780  123.5240   60.0330 C   0  0  0  0  0  0  0  0  0  0  0  0
  128.3080  123.0710   59.0450 C   0  0  0  0  0  0  0  0  0  0  0  0
  128.2900  123.7090   57.7950 C   0  0  0  0  0  0  0  0  0  0  0  0
  127.3210  123.1950   56.7130 C   0  0  0  0  0  0  0  0  0  0  0  0
  126.8650  121.9870   57.0470 F   0  0  0  0  0  0  0  0  0  0  0  0
  126.2890  124.0300   56.5910 F   0  0  0  0  0  0  0  0  0  0  0  0
  127.8970  123.0900   55.5130 F   0  0  0  0  0  0  0  0  0  0  0  0
  129.1680  124.8020   57.5810 C   0  0  0  0  0  0  0  0  0  0  0  0
  129.1920  125.5050   56.2950 C   0  0  0  0  0  0  0  0  0  0  0  0
  129.2100  126.0610   55.2800 N   0  0  0  0  0  0  0  0  0  0  0  0
  130.0180  125.1950   58.6420 C   0  0  0  0  0  0  0  0  0  0  0  0
  131.1620  126.5590   58.4850 S   0  0  0  0  0  0  0  0  0  0  0  0
  132.7070  125.9310   57.7420 C   0  0  0  0  0  0  0  0  0  0  0  0
  133.2490  124.6400   58.3740 C   0  0  0  0  0  0  0  0  0  0  0  0
  134.0230  123.9110   57.7500 O   0  0  0  0  0  0  0  0  0  0  0  0
  132.8000  124.3890   59.6240 N   0  0  0  0  0  0  0  0  0  0  0  0
  133.1280  123.3000   60.4210 C   0  0  0  0  0  0  0  0  0  0  0  0
  132.8580  122.0310   60.2040 N   0  0  0  0  0  0  0  0  0  0  0  0
  133.3240  121.2640   61.1710 C   0  0  0  0  0  0  0  0  0  0  0  0
  133.9900  121.9140   62.2050 C   0  0  0  0  0  0  0  0  0  0  0  0
  134.0020  123.6220   61.8840 S   0  0  0  0  0  0  0  0  0  0  0  0
  130.0190  124.5660   59.8440 N   0  0  0  0  0  0  0  0  0  0  0  0
  129.1675  123.6467   62.1801 H   0  0  0  0  0  0  0  0  0  0  0  0
  128.3927  122.1715   61.5092 H   0  0  0  0  0  0  0  0  0  0  0  0
  130.1824  122.3252   61.5092 H   0  0  0  0  0  0  0  0  0  0  0  0
  127.6399  122.2197   59.2425 H   0  0  0  0  0  0  0  0  0  0  0  0
  132.5194  125.7371   56.6756 H   0  0  0  0  0  0  0  0  0  0  0  0
  133.4700  126.7041   57.9156 H   0  0  0  0  0  0  0  0  0  0  0  0
  132.1580  125.0530   60.0310 H   0  0  0  0  0  0  0  0  0  0  0  0
  133.1933  120.1719   61.1603 H   0  0  0  0  0  0  0  0  0  0  0  0
  134.4368  121.4259   63.0837 H   0  0  0  0  0  0  0  0  0  0  0  0
  1  2  1  0
  2  3  2  0
  3  4  1  0
  4  5  1  0
  5  6  1  0
  5  7  1  0
  5  8  1  0
  4  9  2  0
  9 10  1  0
 10 11  3  0
  9 12  1  0
 12 13  1  0
 13 14  1  0
 14 15  1  0
 15 16  2  0
 15 17  1  0
 17 18  1  0
 18 19  2  0
 19 20  1  0
 20 21  2  0
 21 22  1  0
 12 23  2  0
 23  2  1  0
 22 18  1  0
  1 24  1  0
  1 25  1  0
  1 26  1  0
  3 27  1  0
 14 28  1  0
 14 29  1  0
 17 30  1  0
 20 31  1  0
 21 32  1  0
M  END
>  <Binding energies>  (1) 
[-5.84]

>  <Ligand effiencies>  (1) 
[-0.24333333333333332]

>  <Interactions>  (1) 
["V-A:ASP:366:CG:3213, H-A:TYR:531:OH:4795, H-B:TYR:539:OH:9850, V-A:ASP:366:CB:3212, V-B:TYR:539:CZ:9849, V-B:PRO:540:N:9856, V-B:TYR:539:CE1:9847, V-B:PRO:540:CB:9857, V-B:TYR:539:CD1:9845, V-B:PRO:540:CA:9855, V-B:TYR:539:CE2:9848, V-B:PRO:540:CD:9859, V-B:MET:535:CE:9807, V-B:TYR:539:C:9839, V-B:TYR:539:CG:9844, V-B:TYR:539:CD2:9846, V-A:ASP:366:C:3208, V-A:ASP:366:CA:3210, V-A:ILE:369:CD1:3239, H-A:ASN:370:N:3244, V-A:ILE:369:CG2:3237, V-A:LEU:475:CD2:4259, V-A:GLY:454:CA:4049, V-A:TYR:531:CZ:4794, V-B:TYR:539:CA:9841, V-A:SER:385:CB:3409"]

$$$$
2k_Grossjean_2025
     RDKit          3D

 50 50  0  0  0  0  0  0  0  0999 V2000
  125.0820  122.7690   56.8690 C   0  0  0  0  0  0  0  0  0  0  0  0
  125.9940  121.9130   56.2000 O   0  0  0  0  0  0  0  0  0  0  0  0
  127.2560  122.5170   55.9450 C   0  0  0  0  0  0  0  0  0  0  0  0
  127.5180  123.6230   56.9760 C   0  0  0  0  0  0  0  0  0  0  0  0
  128.6070  123.2380   57.8020 O   0  0  0  0  0  0  0  0  0  0  0  0
  128.2310  122.8180   59.1080 C   0  0  0  0  0  0  0  0  0  0  0  0
  128.4410  123.9910   60.0740 C   0  0  0  0  0  0  0  0  0  0  0  0
  129.1830  123.5120   61.1840 O   0  0  0  0  0  0  0  0  0  0  0  0
  128.5710  122.4560   61.9100 C   0  0  0  0  0  0  0  0  0  0  0  0
  129.5040  121.2310   61.8920 C   0  0  0  0  0  0  0  0  0  0  0  0
  130.8120  121.5170   61.2970 N   0  0  0  0  0  0  0  0  0  0  0  0
  131.6440  120.6050   60.7590 C   0  0  0  0  0  0  0  0  0  0  0  0
  131.3750  119.4040   60.6830 O   0  0  0  0  0  0  0  0  0  0  0  0
  132.9890  121.1460   60.2530 C   0  0  0  0  0  0  0  0  0  0  0  0
  133.6880  122.5310   61.2180 S   0  0  0  0  0  0  0  0  0  0  0  0
  132.6650  123.9810   61.0020 C   0  0  0  0  0  0  0  0  0  0  0  0
  131.9630  124.3740   62.0960 N   0  0  0  0  0  0  0  0  0  0  0  0
  131.1650  125.4610   62.0040 C   0  0  0  0  0  0  0  0  0  0  0  0
  130.4060  125.8280   63.2640 C   0  0  0  0  0  0  0  0  0  0  0  0
  131.0420  126.2050   60.8340 C   0  0  0  0  0  0  0  0  0  0  0  0
  131.7650  125.8230   59.6930 C   0  0  0  0  0  0  0  0  0  0  0  0
  131.6200  126.6610   58.4080 C   0  0  0  0  0  0  0  0  0  0  0  0
  130.6920  126.1800   57.5800 F   0  0  0  0  0  0  0  0  0  0  0  0
  131.2740  127.9120   58.7150 F   0  0  0  0  0  0  0  0  0  0  0  0
  132.7770  126.6830   57.7450 F   0  0  0  0  0  0  0  0  0  0  0  0
  132.6000  124.6790   59.7730 C   0  0  0  0  0  0  0  0  0  0  0  0
  133.3750  124.2320   58.6120 C   0  0  0  0  0  0  0  0  0  0  0  0
  133.9870  123.8800   57.6940 N   0  0  0  0  0  0  0  0  0  0  0  0
  125.2029  122.6555   57.9564 H   0  0  0  0  0  0  0  0  0  0  0  0
  125.2826  123.8125   56.5847 H   0  0  0  0  0  0  0  0  0  0  0  0
  124.0533  122.5028   56.5847 H   0  0  0  0  0  0  0  0  0  0  0  0
  128.0468  121.7557   56.0165 H   0  0  0  0  0  0  0  0  0  0  0  0
  127.2535  122.9535   54.9353 H   0  0  0  0  0  0  0  0  0  0  0  0
  127.7632  124.5609   56.4562 H   0  0  0  0  0  0  0  0  0  0  0  0
  126.6201  123.7756   57.5929 H   0  0  0  0  0  0  0  0  0  0  0  0
  127.1724  122.5190   59.1115 H   0  0  0  0  0  0  0  0  0  0  0  0
  128.8430  121.9585   59.4190 H   0  0  0  0  0  0  0  0  0  0  0  0
  128.9979  124.7950   59.5706 H   0  0  0  0  0  0  0  0  0  0  0  0
  127.4724  124.3941   60.4048 H   0  0  0  0  0  0  0  0  0  0  0  0
  128.3989  122.7737   62.9490 H   0  0  0  0  0  0  0  0  0  0  0  0
  127.6069  122.1966   61.4483 H   0  0  0  0  0  0  0  0  0  0  0  0
  129.6564  120.8911   62.9270 H   0  0  0  0  0  0  0  0  0  0  0  0
  129.0225  120.4594   61.2734 H   0  0  0  0  0  0  0  0  0  0  0  0
  131.1030  122.4840   61.3060 H   0  0  0  0  0  0  0  0  0  0  0  0
  133.7152  120.3199   60.2696 H   0  0  0  0  0  0  0  0  0  0  0  0
  132.7965  121.5443   59.2459 H   0  0  0  0  0  0  0  0  0  0  0  0
  130.9984  125.5415   64.1455 H   0  0  0  0  0  0  0  0  0  0  0  0
  130.2254  126.9130   63.2804 H   0  0  0  0  0  0  0  0  0  0  0  0
  129.4435  125.2958   63.2804 H   0  0  0  0  0  0  0  0  0  0  0  0
  130.3833  127.0855   60.8037 H   0  0  0  0  0  0  0  0  0  0  0  0
  1  2  1  0
  2  3  1  0
  3  4  1  0
  4  5  1  0
  5  6  1  0
  6  7  1  0
  7  8  1  0
  8  9  1  0
  9 10  1  0
 10 11  1  0
 11 12  1  0
 12 13  2  0
 12 14  1  0
 14 15  1  0
 15 16  1  0
 16 17  2  0
 17 18  1  0
 18 19  1  0
 18 20  2  0
 20 21  1  0
 21 22  1  0
 22 23  1  0
 22 24  1  0
 22 25  1  0
 21 26  2  0
 26 27  1  0
 27 28  3  0
 26 16  1  0
  1 29  1  0
  1 30  1  0
  1 31  1  0
  3 32  1  0
  3 33  1  0
  4 34  1  0
  4 35  1  0
  6 36  1  0
  6 37  1  0
  7 38  1  0
  7 39  1  0
  9 40  1  0
  9 41  1  0
 10 42  1  0
 10 43  1  0
 11 44  1  0
 14 45  1  0
 14 46  1  0
 19 47  1  0
 19 48  1  0
 19 49  1  0
 20 50  1  0
M  END
>  <Binding energies>  (1) 
[-4.91]

>  <Ligand effiencies>  (1) 
[-0.16931034482758622]

>  <Interactions>  (1) 
["V-A:ASP:366:CG:3213, H-B:TYR:539:OH:9850, V-A:ASP:366:CB:3212, V-B:TYR:539:CZ:9849, V-B:PRO:540:N:9856, V-B:TYR:539:CE1:9847, V-B:PRO:540:CB:9857, V-B:TYR:539:CD1:9845, V-B:PRO:540:CA:9855, V-B:TYR:539:CE2:9848, H-B:TYR:539:N:9842, V-B:PRO:540:CD:9859, V-B:MET:535:CE:9807, V-B:LEU:363:CD1:8160, V-B:PRO:540:CG:9858, V-B:TYR:539:C:9839, V-B:TYR:539:CG:9844, V-B:TYR:539:CD2:9846, V-B:ALA:541:CB:9864, V-A:ASP:366:C:3208, V-A:ASP:366:CA:3210, H-A:ASN:370:N:3244, V-A:ILE:369:CB:3236, V-A:ILE:369:CG2:3237, V-A:LEU:475:CD2:4259, V-A:TYR:531:CZ:4794, H-A:SER:385:OG:3410, H-A:HIS:383:HE2:3395"]

$$$$
3aa_Grossjean_2025
     RDKit          3D

 52 54  0  0  0  0  0  0  0  0999 V2000
  128.9530  125.3400   55.4850 C   0  0  0  0  0  0  0  0  0  0  0  0
  128.3350  124.8490   56.7980 C   0  0  0  0  0  0  0  0  0  0  0  0
  127.1680  124.0870   56.5170 O   0  0  0  0  0  0  0  0  0  0  0  0
  126.8890  122.9540   57.2100 C   0  0  0  0  0  0  0  0  0  0  0  0
  126.3940  121.9460   56.6970 O   0  0  0  0  0  0  0  0  0  0  0  0
  127.2270  123.0530   58.6710 C   0  0  0  0  0  0  0  0  0  0  0  0
  128.3700  122.4450   59.2120 C   0  0  0  0  0  0  0  0  0  0  0  0
  128.6570  122.5610   60.5700 C   0  0  0  0  0  0  0  0  0  0  0  0
  127.8140  123.2900   61.4110 C   0  0  0  0  0  0  0  0  0  0  0  0
  128.1970  123.3480   62.7660 N   0  0  0  0  0  0  0  0  0  0  0  0
  129.2150  122.7250   63.4000 C   0  0  0  0  0  0  0  0  0  0  0  0
  130.0090  121.9410   62.8780 O   0  0  0  0  0  0  0  0  0  0  0  0
  129.3510  123.0350   64.8910 C   0  0  0  0  0  0  0  0  0  0  0  0
  130.6320  124.2870   65.2060 S   0  0  0  0  0  0  0  0  0  0  0  0
  129.7930  125.7860   65.6670 C   0  0  0  0  0  0  0  0  0  0  0  0
  129.7510  125.9950   67.0050 N   0  0  0  0  0  0  0  0  0  0  0  0
  129.1370  127.1040   67.4940 C   0  0  0  0  0  0  0  0  0  0  0  0
  129.1450  127.2710   68.9830 C   0  0  0  0  0  0  0  0  0  0  0  0
  128.0320  126.8930   69.7510 C   0  0  0  0  0  0  0  0  0  0  0  0
  128.0320  127.0440   71.1360 C   0  0  0  0  0  0  0  0  0  0  0  0
  129.1490  127.5780   71.7710 C   0  0  0  0  0  0  0  0  0  0  0  0
  130.2650  127.9580   71.0330 C   0  0  0  0  0  0  0  0  0  0  0  0
  130.2620  127.8030   69.6500 C   0  0  0  0  0  0  0  0  0  0  0  0
  128.5530  128.0400   66.6350 C   0  0  0  0  0  0  0  0  0  0  0  0
  128.5690  127.8360   65.2460 C   0  0  0  0  0  0  0  0  0  0  0  0
  127.9050  128.8840   64.3340 C   0  0  0  0  0  0  0  0  0  0  0  0
  128.7050  129.2940   63.3470 F   0  0  0  0  0  0  0  0  0  0  0  0
  126.8080  128.3760   63.7710 F   0  0  0  0  0  0  0  0  0  0  0  0
  127.5650  129.9580   65.0480 F   0  0  0  0  0  0  0  0  0  0  0  0
  129.1950  126.6700   64.7420 C   0  0  0  0  0  0  0  0  0  0  0  0
  129.1920  126.3770   63.3060 C   0  0  0  0  0  0  0  0  0  0  0  0
  129.1880  126.1450   62.1720 N   0  0  0  0  0  0  0  0  0  0  0  0
  126.6630  123.8900   60.8790 C   0  0  0  0  0  0  0  0  0  0  0  0
  126.3770  123.7710   59.5220 C   0  0  0  0  0  0  0  0  0  0  0  0
  129.7968  126.0104   55.7051 H   0  0  0  0  0  0  0  0  0  0  0  0
  129.3116  124.4778   54.9036 H   0  0  0  0  0  0  0  0  0  0  0  0
  128.1942  125.8843   54.9036 H   0  0  0  0  0  0  0  0  0  0  0  0
  129.0625  124.2214   57.3335 H   0  0  0  0  0  0  0  0  0  0  0  0
  128.0666  125.7137   57.4227 H   0  0  0  0  0  0  0  0  0  0  0  0
  129.0446  121.8723   58.5586 H   0  0  0  0  0  0  0  0  0  0  0  0
  129.5535  122.0752   60.9825 H   0  0  0  0  0  0  0  0  0  0  0  0
  127.5860  123.9040   63.3450 H   0  0  0  0  0  0  0  0  0  0  0  0
  128.3872  123.4094   65.2663 H   0  0  0  0  0  0  0  0  0  0  0  0
  129.6434  122.1089   65.4076 H   0  0  0  0  0  0  0  0  0  0  0  0
  127.1471  126.4715   69.2518 H   0  0  0  0  0  0  0  0  0  0  0  0
  127.1531  126.7425   71.7247 H   0  0  0  0  0  0  0  0  0  0  0  0
  129.1494  127.7005   72.8642 H   0  0  0  0  0  0  0  0  0  0  0  0
  131.1457  128.3790   71.5400 H   0  0  0  0  0  0  0  0  0  0  0  0
  131.1476  128.1015   69.0698 H   0  0  0  0  0  0  0  0  0  0  0  0
  128.0783  128.9414   67.0499 H   0  0  0  0  0  0  0  0  0  0  0  0
  125.9853  124.4555   61.5354 H   0  0  0  0  0  0  0  0  0  0  0  0
  125.4731  124.2462   59.1132 H   0  0  0  0  0  0  0  0  0  0  0  0
  1  2  1  0
  2  3  1  0
  3  4  1  0
  4  5  2  0
  4  6  1  0
  6  7  2  0
  7  8  1  0
  8  9  2  0
  9 10  1  0
 10 11  1  0
 11 12  2  0
 11 13  1  0
 13 14  1  0
 14 15  1  0
 15 16  2  0
 16 17  1  0
 17 18  1  0
 18 19  2  0
 19 20  1  0
 20 21  2  0
 21 22  1  0
 22 23  2  0
 17 24  2  0
 24 25  1  0
 25 26  1  0
 26 27  1  0
 26 28  1  0
 26 29  1  0
 25 30  2  0
 30 31  1  0
 31 32  3  0
  9 33  1  0
 33 34  2  0
 34  6  1  0
 30 15  1  0
 23 18  1  0
  1 35  1  0
  1 36  1  0
  1 37  1  0
  2 38  1  0
  2 39  1  0
  7 40  1  0
  8 41  1  0
 10 42  1  0
 13 43  1  0
 13 44  1  0
 19 45  1  0
 20 46  1  0
 21 47  1  0
 22 48  1  0
 23 49  1  0
 24 50  1  0
 33 51  1  0
 34 52  1  0
M  END
>  <Binding energies>  (1) 
[-8.62]

>  <Ligand effiencies>  (1) 
[-0.24628571428571427]

>  <Interactions>  (1) 
["V-B:TYR:539:CZ:9849, V-B:PRO:540:N:9856, V-B:TYR:539:CE1:9847, V-B:PRO:540:CB:9857, V-B:PRO:540:CA:9855, V-B:TYR:539:CE2:9848, H-B:TYR:539:N:9842, V-B:TYR:539:C:9839, V-B:TYR:539:CG:9844, H-B:GLU:543:OE1:9881, V-B:TYR:539:CD2:9846, V-B:ALA:541:CB:9864, V-B:GLU:543:CG:9879, V-B:GLU:543:CB:9878, H-A:TYR:484:OH:4348, V-A:GLU:543:CD:4908, V-A:TYR:484:CE2:4346, V-B:GLU:543:CD:9880, V-B:HIS:456:CE1:9041, V-A:GLY:544:C:4912, V-B:GLU:543:C:9874, V-A:HIS:456:CE1:4070, V-A:GLU:543:CG:4907, V-A:GLU:543:C:4902, V-A:GLU:543:CB:4906, V-B:TYR:484:CZ:9318"]

$$$$
3ab_Grossjean_2025
     RDKit          3D

 49 51  0  0  0  0  0  0  0  0999 V2000
  127.2510  122.3750   55.5120 C   0  0  0  0  0  0  0  0  0  0  0  0
  126.4240  122.1590   56.6470 O   0  0  0  0  0  0  0  0  0  0  0  0
  125.9920  123.1990   57.4050 C   0  0  0  0  0  0  0  0  0  0  0  0
  125.1600  124.0240   57.0170 O   0  0  0  0  0  0  0  0  0  0  0  0
  126.6240  123.2440   58.7660 C   0  0  0  0  0  0  0  0  0  0  0  0
  127.9400  122.8100   58.9890 C   0  0  0  0  0  0  0  0  0  0  0  0
  128.5010  122.8650   60.2610 C   0  0  0  0  0  0  0  0  0  0  0  0
  127.7500  123.3560   61.3410 C   0  0  0  0  0  0  0  0  0  0  0  0
  128.2160  123.4620   62.6650 N   0  0  0  0  0  0  0  0  0  0  0  0
  129.2040  122.7890   63.2920 C   0  0  0  0  0  0  0  0  0  0  0  0
  129.8990  121.9060   62.7900 O   0  0  0  0  0  0  0  0  0  0  0  0
  129.4450  123.1870   64.7500 C   0  0  0  0  0  0  0  0  0  0  0  0
  130.6480  124.5420   64.9010 S   0  0  0  0  0  0  0  0  0  0  0  0
  129.7570  125.9910   65.4250 C   0  0  0  0  0  0  0  0  0  0  0  0
  129.7340  126.1560   66.7690 N   0  0  0  0  0  0  0  0  0  0  0  0
  129.0930  127.2250   67.3080 C   0  0  0  0  0  0  0  0  0  0  0  0
  129.1170  127.3370   68.8040 C   0  0  0  0  0  0  0  0  0  0  0  0
  128.0210  126.9150   69.5730 C   0  0  0  0  0  0  0  0  0  0  0  0
  128.0380  127.0160   70.9620 C   0  0  0  0  0  0  0  0  0  0  0  0
  129.1550  127.5420   71.6030 C   0  0  0  0  0  0  0  0  0  0  0  0
  130.2530  127.9700   70.8640 C   0  0  0  0  0  0  0  0  0  0  0  0
  130.2320  127.8680   69.4760 C   0  0  0  0  0  0  0  0  0  0  0  0
  128.4340  128.1510   66.4920 C   0  0  0  0  0  0  0  0  0  0  0  0
  128.4270  127.9920   65.0990 C   0  0  0  0  0  0  0  0  0  0  0  0
  127.6850  129.0310   64.2370 C   0  0  0  0  0  0  0  0  0  0  0  0
  128.4580  129.5610   63.2860 F   0  0  0  0  0  0  0  0  0  0  0  0
  126.6400  128.4650   63.6310 F   0  0  0  0  0  0  0  0  0  0  0  0
  127.2490  130.0310   65.0040 F   0  0  0  0  0  0  0  0  0  0  0  0
  129.0990  126.8760   64.5410 C   0  0  0  0  0  0  0  0  0  0  0  0
  129.0740  126.6310   63.0970 C   0  0  0  0  0  0  0  0  0  0  0  0
  129.0530  126.4400   61.9560 N   0  0  0  0  0  0  0  0  0  0  0  0
  126.4430  123.7940   61.1210 C   0  0  0  0  0  0  0  0  0  0  0  0
  125.8840  123.7370   59.8480 C   0  0  0  0  0  0  0  0  0  0  0  0
  128.2660  122.6401   55.8430 H   0  0  0  0  0  0  0  0  0  0  0  0
  127.2906  121.4571   54.9072 H   0  0  0  0  0  0  0  0  0  0  0  0
  126.8367  123.1951   54.9072 H   0  0  0  0  0  0  0  0  0  0  0  0
  128.5345  122.4220   58.1487 H   0  0  0  0  0  0  0  0  0  0  0  0
  129.5343  122.5234   60.4208 H   0  0  0  0  0  0  0  0  0  0  0  0
  127.7020  124.1230   63.2290 H   0  0  0  0  0  0  0  0  0  0  0  0
  128.4906  123.5095   65.1918 H   0  0  0  0  0  0  0  0  0  0  0  0
  129.8537  122.3118   65.2763 H   0  0  0  0  0  0  0  0  0  0  0  0
  127.1354  126.4983   69.0710 H   0  0  0  0  0  0  0  0  0  0  0  0
  127.1710  126.6809   71.5503 H   0  0  0  0  0  0  0  0  0  0  0  0
  129.1700  127.6199   72.7001 H   0  0  0  0  0  0  0  0  0  0  0  0
  131.1338  128.3871   71.3741 H   0  0  0  0  0  0  0  0  0  0  0  0
  131.1020  128.2084   68.8953 H   0  0  0  0  0  0  0  0  0  0  0  0
  127.9179  129.0096   66.9464 H   0  0  0  0  0  0  0  0  0  0  0  0
  125.8505  124.1872   61.9603 H   0  0  0  0  0  0  0  0  0  0  0  0
  124.8516  124.0823   59.6901 H   0  0  0  0  0  0  0  0  0  0  0  0
  1  2  1  0
  2  3  1  0
  3  4  2  0
  3  5  1  0
  5  6  2  0
  6  7  1  0
  7  8  2  0
  8  9  1  0
  9 10  1  0
 10 11  2  0
 10 12  1  0
 12 13  1  0
 13 14  1  0
 14 15  2  0
 15 16  1  0
 16 17  1  0
 17 18  2  0
 18 19  1  0
 19 20  2  0
 20 21  1  0
 21 22  2  0
 16 23  2  0
 23 24  1  0
 24 25  1  0
 25 26  1  0
 25 27  1  0
 25 28  1  0
 24 29  2  0
 29 30  1  0
 30 31  3  0
  8 32  1  0
 32 33  2  0
 33  5  1  0
 29 14  1  0
 22 17  1  0
  1 34  1  0
  1 35  1  0
  1 36  1  0
  6 37  1  0
  7 38  1  0
  9 39  1  0
 12 40  1  0
 12 41  1  0
 18 42  1  0
 19 43  1  0
 20 44  1  0
 21 45  1  0
 22 46  1  0
 23 47  1  0
 32 48  1  0
 33 49  1  0
M  END
>  <Binding energies>  (1) 
[-8.48]

>  <Ligand effiencies>  (1) 
[-0.24941176470588236]

>  <Interactions>  (1) 
["V-B:TYR:539:CZ:9849, V-B:PRO:540:N:9856, V-B:TYR:539:CE1:9847, V-B:PRO:540:CB:9857, V-B:TYR:539:CD1:9845, V-B:PRO:540:CA:9855, V-B:TYR:539:CE2:9848, H-B:TYR:539:N:9842, V-B:PRO:540:CD:9859, V-B:MET:535:CE:9807, V-B:TYR:539:C:9839, V-B:TYR:539:CG:9844, H-B:GLU:543:OE1:9881, V-B:TYR:539:CD2:9846, V-B:ALA:541:CB:9864, V-B:GLU:543:CG:9879, V-B:GLU:543:CB:9878, H-A:TYR:484:OH:4348, V-A:GLU:543:CD:4908, V-A:TYR:484:CE2:4346, V-B:GLU:543:CD:9880, V-B:HIS:456:CE1:9041, V-A:GLY:544:C:4912, V-B:GLU:543:C:9874, V-A:HIS:456:CE1:4070, V-A:GLU:543:CG:4907, V-A:GLU:543:C:4902, V-A:GLU:543:CB:4906, V-B:TYR:484:CZ:9318, V-B:ILE:538:CA:9832, V-B:ILE:538:C:9830"]

$$$$
3ac_Grossjean_2025
     RDKit          3D

 47 49  0  0  0  0  0  0  0  0999 V2000
  127.5460  128.0010   73.3250 C   0  0  0  0  0  0  0  0  0  0  0  0
  128.8590  128.3740   72.9180 O   0  0  0  0  0  0  0  0  0  0  0  0
  129.2980  128.0270   71.6540 C   0  0  0  0  0  0  0  0  0  0  0  0
  128.4140  127.2870   70.8700 C   0  0  0  0  0  0  0  0  0  0  0  0
  128.7670  126.8950   69.5820 C   0  0  0  0  0  0  0  0  0  0  0  0
  130.0180  127.2310   69.0620 C   0  0  0  0  0  0  0  0  0  0  0  0
  130.2760  126.8090   67.7450 N   0  0  0  0  0  0  0  0  0  0  0  0
  130.0940  125.5910   67.1900 C   0  0  0  0  0  0  0  0  0  0  0  0
  129.6100  124.6140   67.7620 O   0  0  0  0  0  0  0  0  0  0  0  0
  130.5350  125.4580   65.7320 C   0  0  0  0  0  0  0  0  0  0  0  0
  129.7930  124.0110   64.9180 S   0  0  0  0  0  0  0  0  0  0  0  0
  130.2960  123.9960   63.2080 C   0  0  0  0  0  0  0  0  0  0  0  0
  129.2610  123.8310   62.3490 N   0  0  0  0  0  0  0  0  0  0  0  0
  129.4900  123.8060   61.0100 C   0  0  0  0  0  0  0  0  0  0  0  0
  128.2920  123.6130   60.1290 C   0  0  0  0  0  0  0  0  0  0  0  0
  127.0250  124.0680   60.5310 C   0  0  0  0  0  0  0  0  0  0  0  0
  125.9100  123.8970   59.7150 C   0  0  0  0  0  0  0  0  0  0  0  0
  126.0470  123.2650   58.4830 C   0  0  0  0  0  0  0  0  0  0  0  0
  127.2880  122.8010   58.0640 C   0  0  0  0  0  0  0  0  0  0  0  0
  128.4010  122.9740   58.8830 C   0  0  0  0  0  0  0  0  0  0  0  0
  130.7870  123.9300   60.5030 C   0  0  0  0  0  0  0  0  0  0  0  0
  131.8790  124.0780   61.3720 C   0  0  0  0  0  0  0  0  0  0  0  0
  133.2920  124.2060   60.7700 C   0  0  0  0  0  0  0  0  0  0  0  0
  134.0950  124.9890   61.4940 F   0  0  0  0  0  0  0  0  0  0  0  0
  133.8710  123.0060   60.6940 F   0  0  0  0  0  0  0  0  0  0  0  0
  133.2170  124.7270   59.5450 F   0  0  0  0  0  0  0  0  0  0  0  0
  131.6360  124.0980   62.7680 C   0  0  0  0  0  0  0  0  0  0  0  0
  132.7500  124.1740   63.7150 C   0  0  0  0  0  0  0  0  0  0  0  0
  133.6310  124.2320   64.4630 N   0  0  0  0  0  0  0  0  0  0  0  0
  130.9110  127.9830   69.8420 C   0  0  0  0  0  0  0  0  0  0  0  0
  130.5540  128.3730   71.1300 C   0  0  0  0  0  0  0  0  0  0  0  0
  127.4931  127.9860   74.4236 H   0  0  0  0  0  0  0  0  0  0  0  0
  126.8200  128.7284   72.9328 H   0  0  0  0  0  0  0  0  0  0  0  0
  127.3109  127.0005   72.9328 H   0  0  0  0  0  0  0  0  0  0  0  0
  127.4286  127.0104   71.2730 H   0  0  0  0  0  0  0  0  0  0  0  0
  128.0571  126.3179   68.9713 H   0  0  0  0  0  0  0  0  0  0  0  0
  130.5960  127.5400   67.1270 H   0  0  0  0  0  0  0  0  0  0  0  0
  130.2333  126.3644   65.1867 H   0  0  0  0  0  0  0  0  0  0  0  0
  131.6273  125.3283   65.7205 H   0  0  0  0  0  0  0  0  0  0  0  0
  126.9123  124.5668   61.5049 H   0  0  0  0  0  0  0  0  0  0  0  0
  124.9248  124.2600   60.0429 H   0  0  0  0  0  0  0  0  0  0  0  0
  125.1671  123.1318   57.8364 H   0  0  0  0  0  0  0  0  0  0  0  0
  127.3907  122.2996   57.0903 H   0  0  0  0  0  0  0  0  0  0  0  0
  129.3815  122.6042   58.5486 H   0  0  0  0  0  0  0  0  0  0  0  0
  130.9527  123.9114   59.4157 H   0  0  0  0  0  0  0  0  0  0  0  0
  131.8935  128.2643   69.4351 H   0  0  0  0  0  0  0  0  0  0  0  0
  131.2598  128.9554   71.7405 H   0  0  0  0  0  0  0  0  0  0  0  0
  1  2  1  0
  2  3  1  0
  3  4  2  0
  4  5  1  0
  5  6  2  0
  6  7  1  0
  7  8  1  0
  8  9  2  0
  8 10  1  0
 10 11  1  0
 11 12  1  0
 12 13  2  0
 13 14  1  0
 14 15  1  0
 15 16  2  0
 16 17  1  0
 17 18  2  0
 18 19  1  0
 19 20  2  0
 14 21  2  0
 21 22  1  0
 22 23  1  0
 23 24  1  0
 23 25  1  0
 23 26  1  0
 22 27  2  0
 27 28  1  0
 28 29  3  0
  6 30  1  0
 30 31  2  0
 31  3  1  0
 27 12  1  0
 20 15  1  0
  1 32  1  0
  1 33  1  0
  1 34  1  0
  4 35  1  0
  5 36  1  0
  7 37  1  0
 10 38  1  0
 10 39  1  0
 16 40  1  0
 17 41  1  0
 18 42  1  0
 19 43  1  0
 20 44  1  0
 21 45  1  0
 30 46  1  0
 31 47  1  0
M  END
>  <Binding energies>  (1) 
[-7.61]

>  <Ligand effiencies>  (1) 
[-0.2378125]

>  <Interactions>  (1) 
["V-A:ASP:366:CG:3213, V-A:ASP:366:CB:3212, V-B:TYR:539:CZ:9849, V-B:PRO:540:N:9856, V-B:PRO:540:CB:9857, V-B:PRO:540:CA:9855, V-B:TYR:539:CE2:9848, V-B:TYR:539:C:9839, V-B:TYR:539:CD2:9846, V-A:ASP:366:CA:3210, V-A:ILE:369:CD1:3239, V-B:GLU:543:CG:9879, V-A:ILE:369:CB:3236, V-A:ILE:369:CG2:3237, V-B:GLU:543:CB:9878, H-A:TYR:484:OH:4348, V-A:GLU:543:CD:4908, V-B:HIS:456:CE1:9041, V-A:GLY:544:CA:4914, V-A:GLY:544:C:4912, V-B:GLU:543:C:9874, V-B:HIS:456:CD2:9039, V-A:HIS:456:CE1:4070, V-A:GLU:543:C:4902, V-A:GLU:543:CB:4906, V-B:HIS:456:CG:9037, H-A:GLU:543:OE1:4909, H-A:GLU:543:OE2:4910, H-A:GLY:454:N:4050"]

$$$$
3ad_Grossjean_2025
     RDKit          3D

 43 45  0  0  0  0  0  0  0  0999 V2000
  129.4370  126.8100   62.9720 N   0  0  0  0  0  0  0  0  0  0  0  0
  129.2990  126.8970   64.1180 C   0  0  0  0  0  0  0  0  0  0  0  0
  129.1220  127.0090   65.5690 C   0  0  0  0  0  0  0  0  0  0  0  0
  128.3510  128.0580   66.1250 C   0  0  0  0  0  0  0  0  0  0  0  0
  127.6230  129.1050   65.2610 C   0  0  0  0  0  0  0  0  0  0  0  0
  126.4650  129.5020   65.7930 F   0  0  0  0  0  0  0  0  0  0  0  0
  128.3900  130.1860   65.1140 F   0  0  0  0  0  0  0  0  0  0  0  0
  127.3540  128.5980   64.0560 F   0  0  0  0  0  0  0  0  0  0  0  0
  128.2510  128.1480   67.5220 C   0  0  0  0  0  0  0  0  0  0  0  0
  128.9050  127.2200   68.3400 C   0  0  0  0  0  0  0  0  0  0  0  0
  128.8450  127.2790   69.8370 C   0  0  0  0  0  0  0  0  0  0  0  0
  129.9480  127.7230   70.5830 C   0  0  0  0  0  0  0  0  0  0  0  0
  129.8980  127.7810   71.9720 C   0  0  0  0  0  0  0  0  0  0  0  0
  128.7390  127.3940   72.6380 C   0  0  0  0  0  0  0  0  0  0  0  0
  127.6320  126.9520   71.9230 C   0  0  0  0  0  0  0  0  0  0  0  0
  127.6850  126.8970   70.5320 C   0  0  0  0  0  0  0  0  0  0  0  0
  129.6480  126.2200   67.8010 N   0  0  0  0  0  0  0  0  0  0  0  0
  129.7420  126.1000   66.4560 C   0  0  0  0  0  0  0  0  0  0  0  0
  130.7440  124.7280   65.9300 S   0  0  0  0  0  0  0  0  0  0  0  0
  132.4170  125.3680   65.6220 C   0  0  0  0  0  0  0  0  0  0  0  0
  132.9340  124.9890   64.2320 C   0  0  0  0  0  0  0  0  0  0  0  0
  133.9570  124.3100   64.1390 O   0  0  0  0  0  0  0  0  0  0  0  0
  132.2000  125.4480   63.1960 N   0  0  0  0  0  0  0  0  0  0  0  0
  132.3860  125.2720   61.8120 C   0  0  0  0  0  0  0  0  0  0  0  0
  131.6540  126.1330   60.9890 C   0  0  0  0  0  0  0  0  0  0  0  0
  131.7610  126.0410   59.6040 C   0  0  0  0  0  0  0  0  0  0  0  0
  132.5990  125.0840   59.0390 C   0  0  0  0  0  0  0  0  0  0  0  0
  133.3290  124.2170   59.8460 C   0  0  0  0  0  0  0  0  0  0  0  0
  133.2250  124.3040   61.2320 C   0  0  0  0  0  0  0  0  0  0  0  0
  127.6549  128.9529   67.9767 H   0  0  0  0  0  0  0  0  0  0  0  0
  130.8664  128.0299   70.0611 H   0  0  0  0  0  0  0  0  0  0  0  0
  130.7713  128.1314   72.5417 H   0  0  0  0  0  0  0  0  0  0  0  0
  128.6987  127.4381   73.7364 H   0  0  0  0  0  0  0  0  0  0  0  0
  126.7179  126.6469   72.4533 H   0  0  0  0  0  0  0  0  0  0  0  0
  126.8059  126.5495   69.9695 H   0  0  0  0  0  0  0  0  0  0  0  0
  132.3979  126.4646   65.7060 H   0  0  0  0  0  0  0  0  0  0  0  0
  133.0920  124.9213   66.3668 H   0  0  0  0  0  0  0  0  0  0  0  0
  131.4160  126.0380   63.4340 H   0  0  0  0  0  0  0  0  0  0  0  0
  130.9904  126.8867   61.4379 H   0  0  0  0  0  0  0  0  0  0  0  0
  131.1858  126.7216   58.9591 H   0  0  0  0  0  0  0  0  0  0  0  0
  132.6849  125.0125   57.9447 H   0  0  0  0  0  0  0  0  0  0  0  0
  133.9877  123.4635   59.3896 H   0  0  0  0  0  0  0  0  0  0  0  0
  133.7981  123.6168   61.8718 H   0  0  0  0  0  0  0  0  0  0  0  0
  1  2  3  0
  2  3  1  0
  3  4  2  0
  4  5  1  0
  5  6  1  0
  5  7  1  0
  5  8  1  0
  4  9  1  0
  9 10  2  0
 10 11  1  0
 11 12  2  0
 12 13  1  0
 13 14  2  0
 14 15  1  0
 15 16  2  0
 10 17  1  0
 17 18  2  0
 18 19  1  0
 19 20  1  0
 20 21  1  0
 21 22  2  0
 21 23  1  0
 23 24  1  0
 24 25  2  0
 25 26  1  0
 26 27  2  0
 27 28  1  0
 28 29  2  0
 18  3  1  0
 29 24  1  0
 16 11  1  0
  9 30  1  0
 12 31  1  0
 13 32  1  0
 14 33  1  0
 15 34  1  0
 16 35  1  0
 20 36  1  0
 20 37  1  0
 23 38  1  0
 25 39  1  0
 26 40  1  0
 27 41  1  0
 28 42  1  0
 29 43  1  0
M  END
>  <Binding energies>  (1) 
[-7.62]

>  <Ligand effiencies>  (1) 
[-0.254]

>  <Interactions>  (1) 
["V-A:ASP:366:CG:3213, V-A:ASP:366:CB:3212, V-B:TYR:539:CE2:9848, V-B:GLU:543:CG:9879, V-A:ILE:369:CG2:3237, V-B:GLU:543:CB:9878, H-A:TYR:484:OH:4348, V-A:GLU:543:CD:4908, V-A:ARG:545:CZ:4926, V-B:GLU:543:CD:9880, V-B:HIS:456:CE1:9041, V-B:GLY:544:C:9884, V-B:GLU:543:C:9874, V-B:HIS:456:CD2:9039, V-A:HIS:456:CE1:4070, V-A:GLU:543:CG:4907, V-A:GLU:543:CB:4906, V-B:GLY:544:CA:9886, H-A:GLU:543:OE1:4909, H-A:GLU:543:OE2:4910, V-B:TYR:484:CZ:9318, H-A:GLY:454:N:4050"]

$$$$
3af_Grossjean_2025
     RDKit          3D

 42 44  0  0  0  0  0  0  0  0999 V2000
  128.9800  126.0500   55.0280 N   0  0  0  0  0  0  0  0  0  0  0  0
  129.0770  125.5740   56.0790 C   0  0  0  0  0  0  0  0  0  0  0  0
  129.1970  124.9690   57.4080 C   0  0  0  0  0  0  0  0  0  0  0  0
  128.3670  123.8870   57.7880 C   0  0  0  0  0  0  0  0  0  0  0  0
  127.3380  123.2520   56.8320 C   0  0  0  0  0  0  0  0  0  0  0  0
  126.8380  122.1050   57.2960 F   0  0  0  0  0  0  0  0  0  0  0  0
  126.3170  124.0890   56.6420 F   0  0  0  0  0  0  0  0  0  0  0  0
  127.9070  122.9900   55.6540 F   0  0  0  0  0  0  0  0  0  0  0  0
  128.4820  123.3770   59.0900 C   0  0  0  0  0  0  0  0  0  0  0  0
  129.3980  123.9340   59.9890 C   0  0  0  0  0  0  0  0  0  0  0  0
  129.5490  123.4420   61.3970 C   0  0  0  0  0  0  0  0  0  0  0  0
  129.5060  124.3360   62.4790 C   0  0  0  0  0  0  0  0  0  0  0  0
  129.6430  123.8850   63.7890 C   0  0  0  0  0  0  0  0  0  0  0  0
  129.8240  122.5280   64.0350 C   0  0  0  0  0  0  0  0  0  0  0  0
  129.8670  121.6210   62.9820 C   0  0  0  0  0  0  0  0  0  0  0  0
  129.7300  122.0760   61.6730 C   0  0  0  0  0  0  0  0  0  0  0  0
  130.1890  124.9740   59.6220 N   0  0  0  0  0  0  0  0  0  0  0  0
  130.1130  125.4690   58.3630 C   0  0  0  0  0  0  0  0  0  0  0  0
  131.2370  126.8180   58.0650 S   0  0  0  0  0  0  0  0  0  0  0  0
  132.7860  126.1260   57.4100 C   0  0  0  0  0  0  0  0  0  0  0  0
  133.2790  124.9460   58.2460 C   0  0  0  0  0  0  0  0  0  0  0  0
  133.9940  124.0940   57.7180 O   0  0  0  0  0  0  0  0  0  0  0  0
  132.8690  124.9370   59.5330 N   0  0  0  0  0  0  0  0  0  0  0  0
  133.1330  124.0030   60.5540 C   0  0  0  0  0  0  0  0  0  0  0  0
  133.0280  122.6050   60.4350 C   0  0  0  0  0  0  0  0  0  0  0  0
  133.3210  121.7940   61.5340 C   0  0  0  0  0  0  0  0  0  0  0  0
  133.7110  122.4020   62.7280 C   0  0  0  0  0  0  0  0  0  0  0  0
  133.8210  123.7460   62.8680 N   0  0  0  0  0  0  0  0  0  0  0  0
  133.5330  124.5200   61.7910 C   0  0  0  0  0  0  0  0  0  0  0  0
  127.8487  122.5348   59.4056 H   0  0  0  0  0  0  0  0  0  0  0  0
  129.3618  125.4097   62.2885 H   0  0  0  0  0  0  0  0  0  0  0  0
  129.6083  124.5984   64.6255 H   0  0  0  0  0  0  0  0  0  0  0  0
  129.9338  122.1701   65.0693 H   0  0  0  0  0  0  0  0  0  0  0  0
  130.0086  120.5487   63.1821 H   0  0  0  0  0  0  0  0  0  0  0  0
  129.7640  121.3554   60.8426 H   0  0  0  0  0  0  0  0  0  0  0  0
  132.6152  125.7847   56.3783 H   0  0  0  0  0  0  0  0  0  0  0  0
  133.5534  126.9133   57.4442 H   0  0  0  0  0  0  0  0  0  0  0  0
  132.2910  125.7120   59.8210 H   0  0  0  0  0  0  0  0  0  0  0  0
  132.7168  122.1530   59.4816 H   0  0  0  0  0  0  0  0  0  0  0  0
  133.2459  120.6991   61.4598 H   0  0  0  0  0  0  0  0  0  0  0  0
  133.9392  121.7627   63.5936 H   0  0  0  0  0  0  0  0  0  0  0  0
  133.6186  125.6116   61.8962 H   0  0  0  0  0  0  0  0  0  0  0  0
  1  2  3  0
  2  3  1  0
  3  4  2  0
  4  5  1  0
  5  6  1  0
  5  7  1  0
  5  8  1  0
  4  9  1  0
  9 10  2  0
 10 11  1  0
 11 12  2  0
 12 13  1  0
 13 14  2  0
 14 15  1  0
 15 16  2  0
 10 17  1  0
 17 18  2  0
 18 19  1  0
 19 20  1  0
 20 21  1  0
 21 22  2  0
 21 23  1  0
 23 24  1  0
 24 25  2  0
 25 26  1  0
 26 27  2  0
 27 28  1  0
 28 29  2  0
 18  3  1  0
 29 24  1  0
 16 11  1  0
  9 30  1  0
 12 31  1  0
 13 32  1  0
 14 33  1  0
 15 34  1  0
 16 35  1  0
 20 36  1  0
 20 37  1  0
 23 38  1  0
 25 39  1  0
 26 40  1  0
 27 41  1  0
 29 42  1  0
M  END
>  <Binding energies>  (1) 
[-7.03]

>  <Ligand effiencies>  (1) 
[-0.23433333333333334]

>  <Interactions>  (1) 
["V-A:ASP:366:CG:3213, H-A:TYR:531:OH:4795, H-B:TYR:539:OH:9850, H-A:ASP:366:OD2:3215, V-A:ASP:366:CB:3212, V-B:TYR:539:CZ:9849, V-B:PRO:540:N:9856, V-B:TYR:539:CE1:9847, V-B:PRO:540:CB:9857, V-B:TYR:539:CD1:9845, V-B:PRO:540:CA:9855, V-B:TYR:539:CE2:9848, V-B:PRO:540:CD:9859, V-B:MET:535:CE:9807, V-B:TYR:539:C:9839, V-B:TYR:539:CG:9844, V-B:TYR:539:CD2:9846, V-B:ALA:541:CB:9864, V-A:ASP:366:C:3208, V-A:ASP:366:CA:3210, V-B:GLU:543:CG:9879, H-A:ASN:370:N:3244, V-A:ILE:369:CG2:3237, V-A:LEU:475:CD2:4259, V-A:GLY:454:CA:4049, V-B:GLU:543:CD:9880, V-A:TYR:531:CZ:4794, H-A:GLY:454:N:4050, V-B:TYR:539:CA:9841, H-A:ASP:366:OD1:3214"]

$$$$
3ag_Grossjean_2025
     RDKit          3D

 46 48  0  0  0  0  0  0  0  0999 V2000
  129.2820  126.8180   63.3600 N   0  0  0  0  0  0  0  0  0  0  0  0
  129.1750  126.9260   64.5070 C   0  0  0  0  0  0  0  0  0  0  0  0
  129.0370  127.0660   65.9600 C   0  0  0  0  0  0  0  0  0  0  0  0
  128.2780  128.1250   66.5160 C   0  0  0  0  0  0  0  0  0  0  0  0
  127.5130  129.1450   65.6500 C   0  0  0  0  0  0  0  0  0  0  0  0
  127.3080  128.7150   64.4040 F   0  0  0  0  0  0  0  0  0  0  0  0
  126.3200  129.3940   66.1910 F   0  0  0  0  0  0  0  0  0  0  0  0
  128.1990  130.2860   65.5700 F   0  0  0  0  0  0  0  0  0  0  0  0
  128.2200  128.2470   67.9130 C   0  0  0  0  0  0  0  0  0  0  0  0
  128.9110  127.3460   68.7300 C   0  0  0  0  0  0  0  0  0  0  0  0
  128.8870  127.4310   70.2260 C   0  0  0  0  0  0  0  0  0  0  0  0
  127.7770  126.9690   70.9530 C   0  0  0  0  0  0  0  0  0  0  0  0
  127.7480  127.0450   72.3430 C   0  0  0  0  0  0  0  0  0  0  0  0
  128.8320  127.5860   73.0270 C   0  0  0  0  0  0  0  0  0  0  0  0
  129.9420  128.0540   72.3310 C   0  0  0  0  0  0  0  0  0  0  0  0
  129.9670  127.9770   70.9420 C   0  0  0  0  0  0  0  0  0  0  0  0
  129.6270  126.3240   68.1930 N   0  0  0  0  0  0  0  0  0  0  0  0
  129.6810  126.1760   66.8480 C   0  0  0  0  0  0  0  0  0  0  0  0
  130.6600  124.7850   66.3250 S   0  0  0  0  0  0  0  0  0  0  0  0
  132.3590  125.3830   66.0750 C   0  0  0  0  0  0  0  0  0  0  0  0
  132.8650  125.1110   64.6580 C   0  0  0  0  0  0  0  0  0  0  0  0
  133.9890  124.6370   64.4870 O   0  0  0  0  0  0  0  0  0  0  0  0
  132.0210  125.4100   63.6550 N   0  0  0  0  0  0  0  0  0  0  0  0
  132.2850  125.1990   62.2320 C   0  0  0  0  0  0  0  0  0  0  0  0
  132.5190  123.7410   61.8520 C   0  0  0  0  0  0  0  0  0  0  0  0
  131.4360  122.9350   61.4920 C   0  0  0  0  0  0  0  0  0  0  0  0
  131.6480  121.6110   61.1160 C   0  0  0  0  0  0  0  0  0  0  0  0
  132.9450  121.1010   61.0930 C   0  0  0  0  0  0  0  0  0  0  0  0
  134.0310  121.9030   61.4360 C   0  0  0  0  0  0  0  0  0  0  0  0
  133.8180  123.2270   61.8120 C   0  0  0  0  0  0  0  0  0  0  0  0
  127.6282  129.0551   68.3677 H   0  0  0  0  0  0  0  0  0  0  0  0
  126.9178  126.5408   70.4159 H   0  0  0  0  0  0  0  0  0  0  0  0
  126.8717  126.6788   72.8980 H   0  0  0  0  0  0  0  0  0  0  0  0
  128.8113  127.6441   74.1253 H   0  0  0  0  0  0  0  0  0  0  0  0
  130.7957  128.4828   72.8762 H   0  0  0  0  0  0  0  0  0  0  0  0
  130.8458  128.3493   70.3952 H   0  0  0  0  0  0  0  0  0  0  0  0
  132.3832  126.4675   66.2576 H   0  0  0  0  0  0  0  0  0  0  0  0
  133.0131  124.8440   66.7762 H   0  0  0  0  0  0  0  0  0  0  0  0
  131.1130  125.7870   63.8860 H   0  0  0  0  0  0  0  0  0  0  0  0
  131.4209  125.5703   61.6615 H   0  0  0  0  0  0  0  0  0  0  0  0
  133.2132  125.7409   61.9977 H   0  0  0  0  0  0  0  0  0  0  0  0
  130.4159  123.3463   61.5056 H   0  0  0  0  0  0  0  0  0  0  0  0
  130.7970  120.9715   60.8388 H   0  0  0  0  0  0  0  0  0  0  0  0
  133.1128  120.0539   60.8008 H   0  0  0  0  0  0  0  0  0  0  0  0
  135.0513  121.4928   61.4100 H   0  0  0  0  0  0  0  0  0  0  0  0
  134.6718  123.8678   62.0774 H   0  0  0  0  0  0  0  0  0  0  0  0
  1  2  3  0
  2  3  1  0
  3  4  2  0
  4  5  1  0
  5  6  1  0
  5  7  1  0
  5  8  1  0
  4  9  1  0
  9 10  2  0
 10 11  1  0
 11 12  2  0
 12 13  1  0
 13 14  2  0
 14 15  1  0
 15 16  2  0
 10 17  1  0
 17 18  2  0
 18 19  1  0
 19 20  1  0
 20 21  1  0
 21 22  2  0
 21 23  1  0
 23 24  1  0
 24 25  1  0
 25 26  2  0
 26 27  1  0
 27 28  2  0
 28 29  1  0
 29 30  2  0
 18  3  1  0
 30 25  1  0
 16 11  1  0
  9 31  1  0
 12 32  1  0
 13 33  1  0
 14 34  1  0
 15 35  1  0
 16 36  1  0
 20 37  1  0
 20 38  1  0
 23 39  1  0
 24 40  1  0
 24 41  1  0
 26 42  1  0
 27 43  1  0
 28 44  1  0
 29 45  1  0
 30 46  1  0
M  END
>  <Binding energies>  (1) 
[-7.88]

>  <Ligand effiencies>  (1) 
[-0.2541935483870968]

>  <Interactions>  (1) 
["V-B:TYR:539:CE2:9848, V-B:TYR:539:CD2:9846, V-A:ILE:369:CD1:3239, V-B:GLU:543:CG:9879, V-A:ILE:369:CG2:3237, V-A:LEU:475:CD2:4259, V-A:TYR:484:CZ:4347, V-B:GLU:543:CB:9878, H-A:TYR:484:OH:4348, V-A:GLU:543:CD:4908, H-A:ARG:545:NE:4924, V-A:ARG:545:CZ:4926, V-B:GLU:543:CD:9880, V-B:HIS:456:CE1:9041, V-B:GLY:544:C:9884, V-B:GLU:543:C:9874, V-B:HIS:456:CD2:9039, V-B:LYS:547:CE:9922, V-A:HIS:456:CE1:4070, V-A:GLU:543:CG:4907, V-A:GLU:543:CB:4906, H-A:GLU:543:OE1:4909, H-A:GLU:543:OE2:4910, V-B:TYR:484:CZ:9318, H-A:ARG:545:NH2:4928, H-A:GLY:454:N:4050, V-B:TYR:484:CE2:9317, V-A:SER:385:CB:3409"]

$$$$
3ai_Grossjean_2025
     RDKit          3D

 39 41  0  0  0  0  0  0  0  0999 V2000
  133.4230  123.9560   59.3780 N   0  0  0  0  0  0  0  0  0  0  0  0
  132.2980  123.8720   59.6360 C   0  0  0  0  0  0  0  0  0  0  0  0
  130.8730  123.7650   59.9650 C   0  0  0  0  0  0  0  0  0  0  0  0
  130.3650  122.6160   60.6190 C   0  0  0  0  0  0  0  0  0  0  0  0
  131.2640  121.4460   61.0610 C   0  0  0  0  0  0  0  0  0  0  0  0
  132.0660  121.7650   62.0790 F   0  0  0  0  0  0  0  0  0  0  0  0
  130.5100  120.4160   61.4500 F   0  0  0  0  0  0  0  0  0  0  0  0
  132.0400  121.0560   60.0500 F   0  0  0  0  0  0  0  0  0  0  0  0
  128.9860  122.5420   60.8680 C   0  0  0  0  0  0  0  0  0  0  0  0
  128.1380  123.5820   60.4730 C   0  0  0  0  0  0  0  0  0  0  0  0
  126.6580  123.5500   60.7040 C   0  0  0  0  0  0  0  0  0  0  0  0
  126.1340  123.1340   61.9380 C   0  0  0  0  0  0  0  0  0  0  0  0
  124.7600  123.1070   62.1610 C   0  0  0  0  0  0  0  0  0  0  0  0
  123.8890  123.4970   61.1490 C   0  0  0  0  0  0  0  0  0  0  0  0
  124.3820  123.9150   59.9180 C   0  0  0  0  0  0  0  0  0  0  0  0
  125.7560  123.9410   59.6990 C   0  0  0  0  0  0  0  0  0  0  0  0
  128.6290  124.6770   59.8390 N   0  0  0  0  0  0  0  0  0  0  0  0
  129.9600  124.7840   59.6090 C   0  0  0  0  0  0  0  0  0  0  0  0
  130.4190  126.2960   58.7900 S   0  0  0  0  0  0  0  0  0  0  0  0
  129.1650  126.6430   57.5100 C   0  0  0  0  0  0  0  0  0  0  0  0
  128.6230  125.4050   56.7800 C   0  0  0  0  0  0  0  0  0  0  0  0
  129.1290  125.0250   55.7210 O   0  0  0  0  0  0  0  0  0  0  0  0
  127.5790  124.8020   57.3920 N   0  0  0  0  0  0  0  0  0  0  0  0
  126.8960  123.6690   56.9680 C   0  0  0  0  0  0  0  0  0  0  0  0
  125.5400  123.6740   56.6420 C   0  0  0  0  0  0  0  0  0  0  0  0
  125.2540  122.3780   56.2800 C   0  0  0  0  0  0  0  0  0  0  0  0
  126.3790  121.6310   56.3820 O   0  0  0  0  0  0  0  0  0  0  0  0
  127.4130  122.4610   56.8190 N   0  0  0  0  0  0  0  0  0  0  0  0
  128.5692  121.6605   61.3771 H   0  0  0  0  0  0  0  0  0  0  0  0
  126.8193  122.8247   62.7409 H   0  0  0  0  0  0  0  0  0  0  0  0
  124.3648  122.7786   63.1336 H   0  0  0  0  0  0  0  0  0  0  0  0
  122.8032  123.4746   61.3237 H   0  0  0  0  0  0  0  0  0  0  0  0
  123.6894  124.2236   59.1211 H   0  0  0  0  0  0  0  0  0  0  0  0
  126.1425  124.2728   58.7240 H   0  0  0  0  0  0  0  0  0  0  0  0
  128.3179  127.1533   57.9916 H   0  0  0  0  0  0  0  0  0  0  0  0
  129.6666  127.2553   56.7461 H   0  0  0  0  0  0  0  0  0  0  0  0
  127.2510  125.2080   58.2560 H   0  0  0  0  0  0  0  0  0  0  0  0
  124.8487  124.5292   56.6686 H   0  0  0  0  0  0  0  0  0  0  0  0
  124.2692  122.0077   55.9591 H   0  0  0  0  0  0  0  0  0  0  0  0
  1  2  3  0
  2  3  1  0
  3  4  2  0
  4  5  1  0
  5  6  1  0
  5  7  1  0
  5  8  1  0
  4  9  1  0
  9 10  2  0
 10 11  1  0
 11 12  2  0
 12 13  1  0
 13 14  2  0
 14 15  1  0
 15 16  2  0
 10 17  1  0
 17 18  2  0
 18 19  1  0
 19 20  1  0
 20 21  1  0
 21 22  2  0
 21 23  1  0
 23 24  1  0
 24 25  1  0
 25 26  2  0
 26 27  1  0
 27 28  1  0
 18  3  1  0
 28 24  2  0
 16 11  1  0
  9 29  1  0
 12 30  1  0
 13 31  1  0
 14 32  1  0
 15 33  1  0
 16 34  1  0
 20 35  1  0
 20 36  1  0
 23 37  1  0
 25 38  1  0
 26 39  1  0
M  END
>  <Binding energies>  (1) 
[-6.64]

>  <Ligand effiencies>  (1) 
[-0.2289655172413793]

>  <Interactions>  (1) 
["H-B:TYR:539:OH:9850, V-B:TYR:539:CZ:9849, V-B:PRO:540:N:9856, V-B:PRO:540:CB:9857, V-B:PRO:540:CA:9855, V-B:TYR:539:CE2:9848, H-B:TYR:539:N:9842, V-B:PRO:540:CD:9859, V-B:ASP:366:CG:8184, V-B:MET:535:CE:9807, V-B:LEU:363:CD1:8160, V-B:PRO:540:CG:9858, V-B:PRO:540:C:9853, V-B:TYR:539:CD2:9846, V-B:LEU:363:CA:8156, V-B:ALA:541:CB:9864, V-A:ILE:369:CG2:3237, V-A:LEU:475:CD2:4259, V-B:GLU:543:CD:9880, V-B:ILE:538:CG2:9835, V-B:ASN:362:CB:8147, V-B:ASN:362:C:8143, V-B:ASN:362:CA:8145, V-B:ALA:541:C:9860"]

$$$$
3aj_Grossjean_2025
     RDKit          3D

 39 41  0  0  0  0  0  0  0  0999 V2000
  129.3240  126.7770   63.1000 N   0  0  0  0  0  0  0  0  0  0  0  0
  129.2350  126.8840   64.2490 C   0  0  0  0  0  0  0  0  0  0  0  0
  129.1200  127.0220   65.7040 C   0  0  0  0  0  0  0  0  0  0  0  0
  128.3730  128.0820   66.2740 C   0  0  0  0  0  0  0  0  0  0  0  0
  127.6110  129.1150   65.4210 C   0  0  0  0  0  0  0  0  0  0  0  0
  127.3010  128.6560   64.2060 F   0  0  0  0  0  0  0  0  0  0  0  0
  126.4730  129.4550   66.0260 F   0  0  0  0  0  0  0  0  0  0  0  0
  128.3560  130.2090   65.2560 F   0  0  0  0  0  0  0  0  0  0  0  0
  128.3330  128.1970   67.6720 C   0  0  0  0  0  0  0  0  0  0  0  0
  129.0220  127.2830   68.4770 C   0  0  0  0  0  0  0  0  0  0  0  0
  129.0200  127.3660   69.9730 C   0  0  0  0  0  0  0  0  0  0  0  0
  130.1200  127.9020   70.6610 C   0  0  0  0  0  0  0  0  0  0  0  0
  130.1240  127.9850   72.0520 C   0  0  0  0  0  0  0  0  0  0  0  0
  129.0240  127.5310   72.7730 C   0  0  0  0  0  0  0  0  0  0  0  0
  127.9220  126.9970   72.1140 C   0  0  0  0  0  0  0  0  0  0  0  0
  127.9220  126.9170   70.7250 C   0  0  0  0  0  0  0  0  0  0  0  0
  129.7420  126.2730   67.9250 N   0  0  0  0  0  0  0  0  0  0  0  0
  129.7760  126.1270   66.5790 C   0  0  0  0  0  0  0  0  0  0  0  0
  130.7490  124.7370   66.0410 S   0  0  0  0  0  0  0  0  0  0  0  0
  132.4200  125.3480   65.6340 C   0  0  0  0  0  0  0  0  0  0  0  0
  132.9160  124.9920   64.2240 C   0  0  0  0  0  0  0  0  0  0  0  0
  133.9940  124.4160   64.0620 O   0  0  0  0  0  0  0  0  0  0  0  0
  132.0840  125.3580   63.2240 N   0  0  0  0  0  0  0  0  0  0  0  0
  132.2810  125.1530   61.8650 C   0  0  0  0  0  0  0  0  0  0  0  0
  131.8800  125.9110   60.8670 N   0  0  0  0  0  0  0  0  0  0  0  0
  132.2470  125.4150   59.7020 C   0  0  0  0  0  0  0  0  0  0  0  0
  132.9650  124.2230   59.7400 C   0  0  0  0  0  0  0  0  0  0  0  0
  133.1630  123.7350   61.3960 S   0  0  0  0  0  0  0  0  0  0  0  0
  127.7568  129.0101   68.1376 H   0  0  0  0  0  0  0  0  0  0  0  0
  130.9913  128.2616   70.0939 H   0  0  0  0  0  0  0  0  0  0  0  0
  130.9929  128.4076   72.5777 H   0  0  0  0  0  0  0  0  0  0  0  0
  129.0261  127.5949   73.8711 H   0  0  0  0  0  0  0  0  0  0  0  0
  127.0545  126.6396   72.6881 H   0  0  0  0  0  0  0  0  0  0  0  0
  127.0478  126.4952   70.2073 H   0  0  0  0  0  0  0  0  0  0  0  0
  132.4147  126.4440   65.7272 H   0  0  0  0  0  0  0  0  0  0  0  0
  133.1076  124.8533   66.3358 H   0  0  0  0  0  0  0  0  0  0  0  0
  131.2230  125.8190   63.4790 H   0  0  0  0  0  0  0  0  0  0  0  0
  131.9999  125.9147   58.7537 H   0  0  0  0  0  0  0  0  0  0  0  0
  133.3455  123.6781   58.8635 H   0  0  0  0  0  0  0  0  0  0  0  0
  1  2  3  0
  2  3  1  0
  3  4  2  0
  4  5  1  0
  5  6  1  0
  5  7  1  0
  5  8  1  0
  4  9  1  0
  9 10  2  0
 10 11  1  0
 11 12  2  0
 12 13  1  0
 13 14  2  0
 14 15  1  0
 15 16  2  0
 10 17  1  0
 17 18  2  0
 18 19  1  0
 19 20  1  0
 20 21  1  0
 21 22  2  0
 21 23  1  0
 23 24  1  0
 24 25  2  0
 25 26  1  0
 26 27  2  0
 27 28  1  0
 18  3  1  0
 28 24  1  0
 16 11  1  0
  9 29  1  0
 12 30  1  0
 13 31  1  0
 14 32  1  0
 15 33  1  0
 16 34  1  0
 20 35  1  0
 20 36  1  0
 23 37  1  0
 26 38  1  0
 27 39  1  0
M  END
>  <Binding energies>  (1) 
[-7.1]

>  <Ligand effiencies>  (1) 
[-0.24482758620689654]

>  <Interactions>  (1) 
["V-A:ASP:366:CG:3213, V-A:ASP:366:CB:3212, V-B:TYR:539:CE2:9848, V-B:GLU:543:CG:9879, V-B:GLU:543:CB:9878, H-A:TYR:484:OH:4348, V-A:GLU:543:CD:4908, V-A:ARG:545:CZ:4926, V-B:GLU:543:CD:9880, V-B:HIS:456:CE1:9041, V-A:GLY:544:C:4912, V-B:GLY:544:C:9884, V-B:GLU:543:C:9874, V-B:HIS:456:CD2:9039, V-A:HIS:456:CE1:4070, V-A:GLU:543:CG:4907, V-A:GLU:543:C:4902, V-A:GLU:543:CB:4906, H-A:GLU:543:OE1:4909, H-A:GLU:543:OE2:4910, V-B:TYR:484:CZ:9318, H-A:ARG:545:NH2:4928, H-A:GLY:454:N:4050"]

$$$$
3ak_Grossjean_2025
     RDKit          3D

 57 58  0  0  0  0  0  0  0  0999 V2000
  127.4190  122.5180   56.0180 C   0  0  0  0  0  0  0  0  0  0  0  0
  126.1380  121.9090   56.0610 O   0  0  0  0  0  0  0  0  0  0  0  0
  125.2000  122.6240   56.8520 C   0  0  0  0  0  0  0  0  0  0  0  0
  125.9360  123.7150   57.6390 C   0  0  0  0  0  0  0  0  0  0  0  0
  124.9880  124.4610   58.3940 O   0  0  0  0  0  0  0  0  0  0  0  0
  124.7150  123.9640   59.7020 C   0  0  0  0  0  0  0  0  0  0  0  0
  125.8020  124.3090   60.7360 C   0  0  0  0  0  0  0  0  0  0  0  0
  126.1630  123.1330   61.4460 O   0  0  0  0  0  0  0  0  0  0  0  0
  127.4840  122.6810   61.1790 C   0  0  0  0  0  0  0  0  0  0  0  0
  128.2180  122.3770   62.4980 C   0  0  0  0  0  0  0  0  0  0  0  0
  128.5850  123.5770   63.2540 N   0  0  0  0  0  0  0  0  0  0  0  0
  129.7370  123.7670   63.9240 C   0  0  0  0  0  0  0  0  0  0  0  0
  130.6370  122.9260   63.9540 O   0  0  0  0  0  0  0  0  0  0  0  0
  129.9430  125.0870   64.6850 C   0  0  0  0  0  0  0  0  0  0  0  0
  130.6210  126.4890   63.7220 S   0  0  0  0  0  0  0  0  0  0  0  0
  131.1580  125.8840   62.1300 C   0  0  0  0  0  0  0  0  0  0  0  0
  130.3060  126.1080   61.0990 N   0  0  0  0  0  0  0  0  0  0  0  0
  130.6230  125.6800   59.8510 C   0  0  0  0  0  0  0  0  0  0  0  0
  129.6240  125.9710   58.7710 C   0  0  0  0  0  0  0  0  0  0  0  0
  129.9610  125.8080   57.4190 C   0  0  0  0  0  0  0  0  0  0  0  0
  129.0360  126.0730   56.4120 C   0  0  0  0  0  0  0  0  0  0  0  0
  127.7570  126.5050   56.7460 C   0  0  0  0  0  0  0  0  0  0  0  0
  127.3970  126.6720   58.0780 C   0  0  0  0  0  0  0  0  0  0  0  0
  128.3230  126.4050   59.0830 C   0  0  0  0  0  0  0  0  0  0  0  0
  131.8320  125.0200   59.6050 C   0  0  0  0  0  0  0  0  0  0  0  0
  132.7320  124.7760   60.6530 C   0  0  0  0  0  0  0  0  0  0  0  0
  134.0530  124.0440   60.3440 C   0  0  0  0  0  0  0  0  0  0  0  0
  133.9810  122.7790   60.7560 F   0  0  0  0  0  0  0  0  0  0  0  0
  134.2870  124.0590   59.0300 F   0  0  0  0  0  0  0  0  0  0  0  0
  135.1070  124.6030   60.9430 F   0  0  0  0  0  0  0  0  0  0  0  0
  132.3900  125.2170   61.9540 C   0  0  0  0  0  0  0  0  0  0  0  0
  133.2930  124.9900   63.0880 C   0  0  0  0  0  0  0  0  0  0  0  0
  134.0040  124.8100   63.9840 N   0  0  0  0  0  0  0  0  0  0  0  0
  127.7784  122.6889   57.0435 H   0  0  0  0  0  0  0  0  0  0  0  0
  128.1214  121.8575   55.4886 H   0  0  0  0  0  0  0  0  0  0  0  0
  127.3502  123.4798   55.4886 H   0  0  0  0  0  0  0  0  0  0  0  0
  124.4446  123.0864   56.1996 H   0  0  0  0  0  0  0  0  0  0  0  0
  124.7024  121.9350   57.5503 H   0  0  0  0  0  0  0  0  0  0  0  0
  126.6657  123.2508   58.3187 H   0  0  0  0  0  0  0  0  0  0  0  0
  126.4650  124.3826   56.9430 H   0  0  0  0  0  0  0  0  0  0  0  0
  123.7618  124.3931   60.0443 H   0  0  0  0  0  0  0  0  0  0  0  0
  124.6796  122.8671   59.6275 H   0  0  0  0  0  0  0  0  0  0  0  0
  126.6855  124.7127   60.2199 H   0  0  0  0  0  0  0  0  0  0  0  0
  125.4163  125.0612   61.4398 H   0  0  0  0  0  0  0  0  0  0  0  0
  127.4390  121.7667   60.5690 H   0  0  0  0  0  0  0  0  0  0  0  0
  128.0300  123.4672   60.6370 H   0  0  0  0  0  0  0  0  0  0  0  0
  127.5618  121.7570   63.1265 H   0  0  0  0  0  0  0  0  0  0  0  0
  129.1538  121.8619   62.2355 H   0  0  0  0  0  0  0  0  0  0  0  0
  127.9030  124.3220   63.2600 H   0  0  0  0  0  0  0  0  0  0  0  0
  128.9666  125.3978   65.0852 H   0  0  0  0  0  0  0  0  0  0  0  0
  130.7016  124.8661   65.4503 H   0  0  0  0  0  0  0  0  0  0  0  0
  130.9712  125.4657   57.1501 H   0  0  0  0  0  0  0  0  0  0  0  0
  129.3161  125.9411   55.3565 H   0  0  0  0  0  0  0  0  0  0  0  0
  127.0261  126.7157   55.9514 H   0  0  0  0  0  0  0  0  0  0  0  0
  126.3842  127.0139   58.3373 H   0  0  0  0  0  0  0  0  0  0  0  0
  128.0329  126.5354   60.1360 H   0  0  0  0  0  0  0  0  0  0  0  0
  132.0780  124.6908   58.5846 H   0  0  0  0  0  0  0  0  0  0  0  0
  1  2  1  0
  2  3  1  0
  3  4  1  0
  4  5  1  0
  5  6  1  0
  6  7  1  0
  7  8  1  0
  8  9  1  0
  9 10  1  0
 10 11  1  0
 11 12  1  0
 12 13  2  0
 12 14  1  0
 14 15  1  0
 15 16  1  0
 16 17  2  0
 17 18  1  0
 18 19  1  0
 19 20  2  0
 20 21  1  0
 21 22  2  0
 22 23  1  0
 23 24  2  0
 18 25  2  0
 25 26  1  0
 26 27  1  0
 27 28  1  0
 27 29  1  0
 27 30  1  0
 26 31  2  0
 31 32  1  0
 32 33  3  0
 31 16  1  0
 24 19  1  0
  1 34  1  0
  1 35  1  0
  1 36  1  0
  3 37  1  0
  3 38  1  0
  4 39  1  0
  4 40  1  0
  6 41  1  0
  6 42  1  0
  7 43  1  0
  7 44  1  0
  9 45  1  0
  9 46  1  0
 10 47  1  0
 10 48  1  0
 11 49  1  0
 14 50  1  0
 14 51  1  0
 20 52  1  0
 21 53  1  0
 22 54  1  0
 23 55  1  0
 24 56  1  0
 25 57  1  0
M  END
>  <Binding energies>  (1) 
[-6.03]

>  <Ligand effiencies>  (1) 
[-0.1773529411764706]

>  <Interactions>  (1) 
["V-A:ASP:366:CG:3213, V-A:ASP:366:CB:3212, V-B:TYR:539:CZ:9849, V-B:PRO:540:N:9856, V-B:TYR:539:CE1:9847, V-B:PRO:540:CB:9857, V-B:TYR:539:CD1:9845, V-B:PRO:540:CA:9855, V-B:TYR:539:CE2:9848, H-B:TYR:539:N:9842, V-B:PRO:540:CD:9859, V-B:MET:535:CE:9807, V-B:LEU:363:CD1:8160, V-B:PRO:540:CG:9858, V-B:TYR:539:CG:9844, H-B:GLU:543:OE1:9881, V-B:PRO:540:C:9853, H-B:ALA:541:N:9863, V-B:ALA:541:CB:9864, V-A:ASP:366:C:3208, V-A:ASP:366:CA:3210, V-A:ILE:369:CD1:3239, V-B:GLU:543:CG:9879, V-A:ILE:369:CB:3236, V-A:ILE:369:CG2:3237, H-A:ARG:545:NE:4924, V-A:ARG:545:CZ:4926, V-B:GLU:543:CD:9880, H-A:ARG:545:NH2:4928, H-A:GLY:454:N:4050, V-B:ALA:541:CA:9862, V-A:ILE:369:CG1:3238, H-A:ARG:545:NH1:4927"]

$$$$
3bc_Grossjean_2025
     RDKit          3D

 47 49  0  0  0  0  0  0  0  0999 V2000
  128.7440  133.4770   55.8310 C   0  0  0  0  0  0  0  0  0  0  0  0
  129.9260  133.3290   56.6100 O   0  0  0  0  0  0  0  0  0  0  0  0
  130.2660  132.0770   57.0880 C   0  0  0  0  0  0  0  0  0  0  0  0
  131.6280  131.7910   57.1700 C   0  0  0  0  0  0  0  0  0  0  0  0
  132.0670  130.5560   57.6390 C   0  0  0  0  0  0  0  0  0  0  0  0
  131.1440  129.5830   58.0270 C   0  0  0  0  0  0  0  0  0  0  0  0
  131.6810  128.3710   58.4990 N   0  0  0  0  0  0  0  0  0  0  0  0
  131.2740  127.1070   58.2570 C   0  0  0  0  0  0  0  0  0  0  0  0
  130.3400  126.8010   57.5130 O   0  0  0  0  0  0  0  0  0  0  0  0
  132.1020  126.0210   58.9590 C   0  0  0  0  0  0  0  0  0  0  0  0
  131.5270  125.5660   60.6300 S   0  0  0  0  0  0  0  0  0  0  0  0
  130.5150  124.1100   60.4790 C   0  0  0  0  0  0  0  0  0  0  0  0
  129.4260  124.2820   59.6900 N   0  0  0  0  0  0  0  0  0  0  0  0
  128.5680  123.2480   59.4860 C   0  0  0  0  0  0  0  0  0  0  0  0
  127.3770  123.5270   58.6180 C   0  0  0  0  0  0  0  0  0  0  0  0
  126.4720  124.5470   58.9480 C   0  0  0  0  0  0  0  0  0  0  0  0
  125.3650  124.8120   58.1470 C   0  0  0  0  0  0  0  0  0  0  0  0
  125.1460  124.0540   57.0010 C   0  0  0  0  0  0  0  0  0  0  0  0
  126.0260  123.0350   56.6520 C   0  0  0  0  0  0  0  0  0  0  0  0
  127.1320  122.7730   57.4580 C   0  0  0  0  0  0  0  0  0  0  0  0
  128.7900  122.0020   60.0820 C   0  0  0  0  0  0  0  0  0  0  0  0
  129.9220  121.8020   60.8800 C   0  0  0  0  0  0  0  0  0  0  0  0
  130.1330  120.4190   61.4960 C   0  0  0  0  0  0  0  0  0  0  0  0
  130.8210  122.8700   61.0850 C   0  0  0  0  0  0  0  0  0  0  0  0
  132.0370  122.6690   61.8760 C   0  0  0  0  0  0  0  0  0  0  0  0
  132.9970  122.5080   62.5020 N   0  0  0  0  0  0  0  0  0  0  0  0
  129.7720  129.8670   57.9610 C   0  0  0  0  0  0  0  0  0  0  0  0
  129.3370  131.1040   57.4910 C   0  0  0  0  0  0  0  0  0  0  0  0
  127.8763  133.5856   56.4983 H   0  0  0  0  0  0  0  0  0  0  0  0
  128.8327  134.3711   55.1963 H   0  0  0  0  0  0  0  0  0  0  0  0
  128.6095  132.5887   55.1963 H   0  0  0  0  0  0  0  0  0  0  0  0
  132.3631  132.5488   56.8610 H   0  0  0  0  0  0  0  0  0  0  0  0
  133.1448  130.3460   57.7041 H   0  0  0  0  0  0  0  0  0  0  0  0
  132.5230  128.4730   59.0480 H   0  0  0  0  0  0  0  0  0  0  0  0
  132.0785  125.1169   58.3329 H   0  0  0  0  0  0  0  0  0  0  0  0
  133.1109  126.4404   59.0865 H   0  0  0  0  0  0  0  0  0  0  0  0
  126.6400  125.1470   59.8545 H   0  0  0  0  0  0  0  0  0  0  0  0
  124.6664  125.6171   58.4188 H   0  0  0  0  0  0  0  0  0  0  0  0
  124.2714  124.2619   56.3670 H   0  0  0  0  0  0  0  0  0  0  0  0
  125.8497  122.4390   55.7444 H   0  0  0  0  0  0  0  0  0  0  0  0
  127.8238  121.9636   57.1819 H   0  0  0  0  0  0  0  0  0  0  0  0
  128.0757  121.1806   59.9236 H   0  0  0  0  0  0  0  0  0  0  0  0
  130.1206  120.5004   62.5929 H   0  0  0  0  0  0  0  0  0  0  0  0
  129.3273  119.7452   61.1692 H   0  0  0  0  0  0  0  0  0  0  0  0
  131.1030  120.0161   61.1692 H   0  0  0  0  0  0  0  0  0  0  0  0
  129.0387  129.1120   58.2808 H   0  0  0  0  0  0  0  0  0  0  0  0
  128.2598  131.3199   57.4352 H   0  0  0  0  0  0  0  0  0  0  0  0
  1  2  1  0
  2  3  1  0
  3  4  2  0
  4  5  1  0
  5  6  2  0
  6  7  1  0
  7  8  1  0
  8  9  2  0
  8 10  1  0
 10 11  1  0
 11 12  1  0
 12 13  2  0
 13 14  1  0
 14 15  1  0
 15 16  2  0
 16 17  1  0
 17 18  2  0
 18 19  1  0
 19 20  2  0
 14 21  2  0
 21 22  1  0
 22 23  1  0
 22 24  2  0
 24 25  1  0
 25 26  3  0
  6 27  1  0
 27 28  2  0
 28  3  1  0
 24 12  1  0
 20 15  1  0
  1 29  1  0
  1 30  1  0
  1 31  1  0
  4 32  1  0
  5 33  1  0
  7 34  1  0
 10 35  1  0
 10 36  1  0
 16 37  1  0
 17 38  1  0
 18 39  1  0
 19 40  1  0
 20 41  1  0
 21 42  1  0
 23 43  1  0
 23 44  1  0
 23 45  1  0
 27 46  1  0
 28 47  1  0
M  END
>  <Binding energies>  (1) 
[-7.8]

>  <Ligand effiencies>  (1) 
[-0.2689655172413793]

>  <Interactions>  (1) 
["V-A:LEU:363:CD1:3189, V-A:ASP:366:CG:3213, H-A:TYR:531:OH:4795, H-A:ASP:366:OD2:3215, V-A:ASP:366:CB:3212, H-A:TYR:539:N:4870, V-B:PRO:540:N:9856, V-B:PRO:540:CA:9855, V-B:TYR:539:CE2:9848, V-B:MET:535:CE:9807, V-B:LEU:363:CD1:8160, V-B:TYR:539:C:9839, V-B:TYR:539:CD2:9846, V-A:MET:535:CE:4835, V-B:TYR:531:CE2:9765, V-B:ALA:541:CB:9864, V-A:LEU:475:CD2:4259, V-A:TYR:531:CZ:4794, V-A:TYR:539:CE1:4875, V-A:TYR:539:CZ:4877, V-A:TYR:539:CD1:4873, V-A:TYR:539:CD2:4874, V-A:ILE:538:CA:4860, V-A:TYR:539:CG:4872, V-A:TYR:539:CE2:4876, V-A:TYR:531:CE2:4793, V-A:ILE:538:C:4858, V-A:ILE:538:CB:4862, H-A:ASP:366:OD1:3214"]

$$$$
3bd_Grossjean_2025
     RDKit          3D

 43 45  0  0  0  0  0  0  0  0999 V2000
  127.3830  123.6290   56.6320 C   0  0  0  0  0  0  0  0  0  0  0  0
  128.3610  124.1780   57.6690 C   0  0  0  0  0  0  0  0  0  0  0  0
  128.3010  123.6670   58.9710 C   0  0  0  0  0  0  0  0  0  0  0  0
  129.1780  124.1470   59.9510 C   0  0  0  0  0  0  0  0  0  0  0  0
  129.1700  123.6410   61.3630 C   0  0  0  0  0  0  0  0  0  0  0  0
  130.3580  123.5730   62.1070 C   0  0  0  0  0  0  0  0  0  0  0  0
  130.3580  123.1020   63.4180 C   0  0  0  0  0  0  0  0  0  0  0  0
  129.1650  122.6920   64.0040 C   0  0  0  0  0  0  0  0  0  0  0  0
  127.9750  122.7460   63.2870 C   0  0  0  0  0  0  0  0  0  0  0  0
  127.9790  123.2170   61.9770 C   0  0  0  0  0  0  0  0  0  0  0  0
  130.1020  125.0980   59.6520 N   0  0  0  0  0  0  0  0  0  0  0  0
  130.1740  125.6040   58.3950 C   0  0  0  0  0  0  0  0  0  0  0  0
  131.4210  126.8550   58.1360 S   0  0  0  0  0  0  0  0  0  0  0  0
  132.8640  126.0590   57.3670 C   0  0  0  0  0  0  0  0  0  0  0  0
  133.3190  124.8230   58.1440 C   0  0  0  0  0  0  0  0  0  0  0  0
  134.0020  123.9740   57.5710 O   0  0  0  0  0  0  0  0  0  0  0  0
  132.9080  124.7550   59.4290 N   0  0  0  0  0  0  0  0  0  0  0  0
  133.1810  123.7680   60.3950 C   0  0  0  0  0  0  0  0  0  0  0  0
  132.8220  122.4610   60.0570 C   0  0  0  0  0  0  0  0  0  0  0  0
  133.0460  121.4190   60.9530 C   0  0  0  0  0  0  0  0  0  0  0  0
  133.6200  121.6850   62.1930 C   0  0  0  0  0  0  0  0  0  0  0  0
  133.9700  122.9870   62.5470 C   0  0  0  0  0  0  0  0  0  0  0  0
  133.7490  124.0300   61.6530 C   0  0  0  0  0  0  0  0  0  0  0  0
  129.3150  125.1720   57.3620 C   0  0  0  0  0  0  0  0  0  0  0  0
  129.4040  125.7260   56.0070 C   0  0  0  0  0  0  0  0  0  0  0  0
  129.4740  126.1610   54.9380 N   0  0  0  0  0  0  0  0  0  0  0  0
  126.5343  123.1526   57.1446 H   0  0  0  0  0  0  0  0  0  0  0  0
  127.0156  124.4527   56.0023 H   0  0  0  0  0  0  0  0  0  0  0  0
  127.8949  122.8863   56.0023 H   0  0  0  0  0  0  0  0  0  0  0  0
  127.5655  122.8891   59.2238 H   0  0  0  0  0  0  0  0  0  0  0  0
  131.3038  123.8966   61.6479 H   0  0  0  0  0  0  0  0  0  0  0  0
  131.2978  123.0545   63.9876 H   0  0  0  0  0  0  0  0  0  0  0  0
  129.1630  122.3230   65.0403 H   0  0  0  0  0  0  0  0  0  0  0  0
  127.0342  122.4179   63.7530 H   0  0  0  0  0  0  0  0  0  0  0  0
  127.0351  123.2580   61.4136 H   0  0  0  0  0  0  0  0  0  0  0  0
  132.5991  125.7570   56.3430 H   0  0  0  0  0  0  0  0  0  0  0  0
  133.6916  126.7837   57.3670 H   0  0  0  0  0  0  0  0  0  0  0  0
  132.2750  125.4790   59.7360 H   0  0  0  0  0  0  0  0  0  0  0  0
  132.3609  122.2543   59.0799 H   0  0  0  0  0  0  0  0  0  0  0  0
  132.7703  120.3892   60.6819 H   0  0  0  0  0  0  0  0  0  0  0  0
  133.7989  120.8609   62.8993 H   0  0  0  0  0  0  0  0  0  0  0  0
  134.4196  123.1893   63.5303 H   0  0  0  0  0  0  0  0  0  0  0  0
  134.0189  125.0595   61.9311 H   0  0  0  0  0  0  0  0  0  0  0  0
  1  2  1  0
  2  3  2  0
  3  4  1  0
  4  5  1  0
  5  6  2  0
  6  7  1  0
  7  8  2  0
  8  9  1  0
  9 10  2  0
  4 11  2  0
 11 12  1  0
 12 13  1  0
 13 14  1  0
 14 15  1  0
 15 16  2  0
 15 17  1  0
 17 18  1  0
 18 19  2  0
 19 20  1  0
 20 21  2  0
 21 22  1  0
 22 23  2  0
 12 24  2  0
 24 25  1  0
 25 26  3  0
 24  2  1  0
 10  5  1  0
 23 18  1  0
  1 27  1  0
  1 28  1  0
  1 29  1  0
  3 30  1  0
  6 31  1  0
  7 32  1  0
  8 33  1  0
  9 34  1  0
 10 35  1  0
 14 36  1  0
 14 37  1  0
 17 38  1  0
 19 39  1  0
 20 40  1  0
 21 41  1  0
 22 42  1  0
 23 43  1  0
M  END
>  <Binding energies>  (1) 
[-7.49]

>  <Ligand effiencies>  (1) 
[-0.27740740740740744]

>  <Interactions>  (1) 
["V-A:ASP:366:CG:3213, H-A:TYR:531:OH:4795, H-B:TYR:539:OH:9850, V-A:ASP:366:CB:3212, V-B:TYR:539:CZ:9849, V-B:TYR:539:CE1:9847, V-B:TYR:539:CE2:9848, V-B:TYR:539:CD2:9846, V-B:ALA:541:CB:9864, V-A:ASP:366:C:3208, V-A:ASP:366:CA:3210, V-A:ILE:369:CD1:3239, V-B:GLU:543:CG:9879, H-A:ASN:370:N:3244, V-A:ILE:369:CG2:3237, V-A:LEU:475:CD2:4259, V-A:GLY:454:CA:4049, V-B:GLU:543:CD:9880, V-A:TYR:531:CZ:4794, V-B:ALA:541:CA:9862, H-A:ASP:366:OD1:3214"]

$$$$
3be_Grossjean_2025
     RDKit          3D

 45 47  0  0  0  0  0  0  0  0999 V2000
  126.5580  123.5460   58.4930 C   0  0  0  0  0  0  0  0  0  0  0  0
  127.3910  123.2600   59.7270 C   0  0  0  0  0  0  0  0  0  0  0  0
  126.8850  123.4620   61.0140 C   0  0  0  0  0  0  0  0  0  0  0  0
  127.7090  123.1800   62.1040 C   0  0  0  0  0  0  0  0  0  0  0  0
  129.0050  122.7050   61.8840 C   0  0  0  0  0  0  0  0  0  0  0  0
  129.4480  122.5210   60.5690 C   0  0  0  0  0  0  0  0  0  0  0  0
  130.7660  122.0520   60.4140 N   0  0  0  0  0  0  0  0  0  0  0  0
  131.3090  120.8970   60.8550 C   0  0  0  0  0  0  0  0  0  0  0  0
  130.7020  120.0380   61.4980 O   0  0  0  0  0  0  0  0  0  0  0  0
  132.7900  120.7040   60.4920 C   0  0  0  0  0  0  0  0  0  0  0  0
  133.9320  121.9320   61.2120 S   0  0  0  0  0  0  0  0  0  0  0  0
  133.0550  123.4720   61.3750 C   0  0  0  0  0  0  0  0  0  0  0  0
  132.6800  123.7520   62.6480 N   0  0  0  0  0  0  0  0  0  0  0  0
  132.0050  124.9010   62.9180 C   0  0  0  0  0  0  0  0  0  0  0  0
  131.6150  125.1280   64.3490 C   0  0  0  0  0  0  0  0  0  0  0  0
  130.2650  125.1240   64.7330 C   0  0  0  0  0  0  0  0  0  0  0  0
  129.8960  125.3370   66.0580 C   0  0  0  0  0  0  0  0  0  0  0  0
  130.8750  125.5580   67.0210 C   0  0  0  0  0  0  0  0  0  0  0  0
  132.2190  125.5680   66.6660 C   0  0  0  0  0  0  0  0  0  0  0  0
  132.5840  125.3560   65.3400 C   0  0  0  0  0  0  0  0  0  0  0  0
  131.6870  125.8020   61.8970 C   0  0  0  0  0  0  0  0  0  0  0  0
  132.0870  125.5410   60.5830 C   0  0  0  0  0  0  0  0  0  0  0  0
  131.7320  126.5620   59.5040 C   0  0  0  0  0  0  0  0  0  0  0  0
  132.8010  124.3550   60.3020 C   0  0  0  0  0  0  0  0  0  0  0  0
  133.2770  124.0880   58.9430 C   0  0  0  0  0  0  0  0  0  0  0  0
  133.6530  123.8790   57.8680 N   0  0  0  0  0  0  0  0  0  0  0  0
  128.6470  122.7990   59.4980 N   0  0  0  0  0  0  0  0  0  0  0  0
  125.5581  123.8893   58.7970 H   0  0  0  0  0  0  0  0  0  0  0  0
  127.0474  124.3276   57.8933 H   0  0  0  0  0  0  0  0  0  0  0  0
  126.4641  122.6286   57.8933 H   0  0  0  0  0  0  0  0  0  0  0  0
  125.8610  123.8346   61.1641 H   0  0  0  0  0  0  0  0  0  0  0  0
  127.3412  123.3305   63.1297 H   0  0  0  0  0  0  0  0  0  0  0  0
  129.6676  122.4789   62.7324 H   0  0  0  0  0  0  0  0  0  0  0  0
  131.3830  122.6860   59.9280 H   0  0  0  0  0  0  0  0  0  0  0  0
  133.0986  119.7071   60.8398 H   0  0  0  0  0  0  0  0  0  0  0  0
  132.8559  120.8282   59.4010 H   0  0  0  0  0  0  0  0  0  0  0  0
  129.4868  124.9499   63.9753 H   0  0  0  0  0  0  0  0  0  0  0  0
  128.8335  125.3306   66.3427 H   0  0  0  0  0  0  0  0  0  0  0  0
  130.5843  125.7257   68.0686 H   0  0  0  0  0  0  0  0  0  0  0  0
  132.9908  125.7428   67.4301 H   0  0  0  0  0  0  0  0  0  0  0  0
  133.6486  125.3671   65.0634 H   0  0  0  0  0  0  0  0  0  0  0  0
  131.1216  126.7169   62.1279 H   0  0  0  0  0  0  0  0  0  0  0  0
  131.4062  127.4991   59.9790 H   0  0  0  0  0  0  0  0  0  0  0  0
  132.6154  126.7561   58.8780 H   0  0  0  0  0  0  0  0  0  0  0  0
  130.9188  126.1661   58.8780 H   0  0  0  0  0  0  0  0  0  0  0  0
  1  2  1  0
  2  3  2  0
  3  4  1  0
  4  5  2  0
  5  6  1  0
  6  7  1  0
  7  8  1  0
  8  9  2  0
  8 10  1  0
 10 11  1  0
 11 12  1  0
 12 13  2  0
 13 14  1  0
 14 15  1  0
 15 16  2  0
 16 17  1  0
 17 18  2  0
 18 19  1  0
 19 20  2  0
 14 21  2  0
 21 22  1  0
 22 23  1  0
 22 24  2  0
 24 25  1  0
 25 26  3  0
  6 27  2  0
 27  2  1  0
 24 12  1  0
 20 15  1  0
  1 28  1  0
  1 29  1  0
  1 30  1  0
  3 31  1  0
  4 32  1  0
  5 33  1  0
  7 34  1  0
 10 35  1  0
 10 36  1  0
 16 37  1  0
 17 38  1  0
 18 39  1  0
 19 40  1  0
 20 41  1  0
 21 42  1  0
 23 43  1  0
 23 44  1  0
 23 45  1  0
M  END
>  <Binding energies>  (1) 
[-7.54]

>  <Ligand effiencies>  (1) 
[-0.2692857142857143]

>  <Interactions>  (1) 
["V-A:ASP:366:CG:3213, H-B:TYR:539:OH:9850, V-A:ASP:366:CB:3212, V-B:TYR:539:CZ:9849, V-B:PRO:540:N:9856, V-B:PRO:540:CB:9857, V-B:PRO:540:CA:9855, V-B:TYR:539:CE2:9848, V-B:TYR:539:CD2:9846, V-B:ALA:541:CB:9864, V-A:ASP:366:CA:3210, V-B:GLU:543:CG:9879, V-A:ILE:369:CG2:3237, V-A:LEU:475:CD2:4259, V-A:TYR:484:CZ:4347, V-B:GLU:543:CB:9878, V-A:ARG:545:CZ:4926, V-B:GLU:543:CD:9880, V-A:HIS:456:CE1:4070, V-A:ARG:545:CG:4922, V-A:ARG:545:CD:4923, V-A:SER:385:CB:3409"]

$$$$
3bf_Grossjean_2025
     RDKit          3D

 42 44  0  0  0  0  0  0  0  0999 V2000
  134.4910  124.2630   59.5530 C   0  0  0  0  0  0  0  0  0  0  0  0
  132.9700  124.2360   59.6910 C   0  0  0  0  0  0  0  0  0  0  0  0
  132.2120  124.9770   58.7790 C   0  0  0  0  0  0  0  0  0  0  0  0
  130.8150  124.9680   58.8600 C   0  0  0  0  0  0  0  0  0  0  0  0
  129.9460  125.7220   57.9000 C   0  0  0  0  0  0  0  0  0  0  0  0
  129.9150  127.1250   57.9110 C   0  0  0  0  0  0  0  0  0  0  0  0
  129.1100  127.8330   57.0230 C   0  0  0  0  0  0  0  0  0  0  0  0
  128.3210  127.1430   56.1080 C   0  0  0  0  0  0  0  0  0  0  0  0
  128.3320  125.7530   56.0770 C   0  0  0  0  0  0  0  0  0  0  0  0
  129.1380  125.0490   56.9680 C   0  0  0  0  0  0  0  0  0  0  0  0
  130.1780  124.2450   59.8190 N   0  0  0  0  0  0  0  0  0  0  0  0
  130.8990  123.5420   60.7260 C   0  0  0  0  0  0  0  0  0  0  0  0
  129.8980  122.6640   61.9080 S   0  0  0  0  0  0  0  0  0  0  0  0
  128.3450  123.5950   62.1360 C   0  0  0  0  0  0  0  0  0  0  0  0
  127.2460  123.2930   61.1060 C   0  0  0  0  0  0  0  0  0  0  0  0
  126.0940  123.0520   61.4680 O   0  0  0  0  0  0  0  0  0  0  0  0
  127.6510  123.3490   59.8180 N   0  0  0  0  0  0  0  0  0  0  0  0
  126.9060  123.1160   58.6470 C   0  0  0  0  0  0  0  0  0  0  0  0
  125.6830  123.7850   58.5250 C   0  0  0  0  0  0  0  0  0  0  0  0
  124.9030  123.6070   57.3810 C   0  0  0  0  0  0  0  0  0  0  0  0
  125.3760  122.7590   56.3780 C   0  0  0  0  0  0  0  0  0  0  0  0
  126.5620  122.1060   56.4650 N   0  0  0  0  0  0  0  0  0  0  0  0
  127.3090  122.2890   57.5840 C   0  0  0  0  0  0  0  0  0  0  0  0
  132.3100  123.4900   60.6920 C   0  0  0  0  0  0  0  0  0  0  0  0
  133.0830  122.6680   61.6270 C   0  0  0  0  0  0  0  0  0  0  0  0
  133.6950  122.0200   62.3650 N   0  0  0  0  0  0  0  0  0  0  0  0
  134.9498  124.2711   60.5527 H   0  0  0  0  0  0  0  0  0  0  0  0
  134.8252  123.3706   59.0034 H   0  0  0  0  0  0  0  0  0  0  0  0
  134.7933  125.1667   59.0034 H   0  0  0  0  0  0  0  0  0  0  0  0
  132.7139  125.5670   57.9979 H   0  0  0  0  0  0  0  0  0  0  0  0
  130.5370  127.6742   58.6331 H   0  0  0  0  0  0  0  0  0  0  0  0
  129.0977  128.9327   57.0446 H   0  0  0  0  0  0  0  0  0  0  0  0
  127.6847  127.7005   55.4049 H   0  0  0  0  0  0  0  0  0  0  0  0
  127.7067  125.2117   55.3517 H   0  0  0  0  0  0  0  0  0  0  0  0
  129.1422  123.9493   56.9418 H   0  0  0  0  0  0  0  0  0  0  0  0
  127.9498  123.3587   63.1350 H   0  0  0  0  0  0  0  0  0  0  0  0
  128.6027  124.6565   62.0061 H   0  0  0  0  0  0  0  0  0  0  0  0
  128.6050  123.6390   59.6570 H   0  0  0  0  0  0  0  0  0  0  0  0
  125.3366  124.4504   59.3296 H   0  0  0  0  0  0  0  0  0  0  0  0
  123.9377  124.1232   57.2724 H   0  0  0  0  0  0  0  0  0  0  0  0
  124.7603  122.6140   55.4780 H   0  0  0  0  0  0  0  0  0  0  0  0
  128.2737  121.7662   57.6624 H   0  0  0  0  0  0  0  0  0  0  0  0
  1  2  1  0
  2  3  2  0
  3  4  1  0
  4  5  1  0
  5  6  2  0
  6  7  1  0
  7  8  2  0
  8  9  1  0
  9 10  2  0
  4 11  2  0
 11 12  1  0
 12 13  1  0
 13 14  1  0
 14 15  1  0
 15 16  2  0
 15 17  1  0
 17 18  1  0
 18 19  2  0
 19 20  1  0
 20 21  2  0
 21 22  1  0
 22 23  2  0
 12 24  2  0
 24 25  1  0
 25 26  3  0
 24  2  1  0
 10  5  1  0
 23 18  1  0
  1 27  1  0
  1 28  1  0
  1 29  1  0
  3 30  1  0
  6 31  1  0
  7 32  1  0
  8 33  1  0
  9 34  1  0
 10 35  1  0
 14 36  1  0
 14 37  1  0
 17 38  1  0
 19 39  1  0
 20 40  1  0
 21 41  1  0
 23 42  1  0
M  END
>  <Binding energies>  (1) 
[-7.5]

>  <Ligand effiencies>  (1) 
[-0.2777777777777778]

>  <Interactions>  (1) 
["V-A:ASP:366:CG:3213, V-A:ASP:366:CB:3212, V-B:TYR:539:CZ:9849, V-B:PRO:540:N:9856, V-B:PRO:540:CB:9857, V-B:TYR:539:CD1:9845, V-B:PRO:540:CA:9855, V-B:TYR:539:CE2:9848, H-B:TYR:539:N:9842, V-B:PRO:540:CD:9859, V-B:MET:535:CE:9807, V-B:LEU:363:CD1:8160, V-B:TYR:539:C:9839, V-B:TYR:539:CG:9844, H-B:ALA:541:N:9863, V-B:TYR:539:CD2:9846, V-A:MET:535:CE:4835, V-A:ASP:366:C:3208, V-A:ASP:366:CA:3210, V-A:ILE:369:CD1:3239, V-A:ILE:369:CB:3236, V-A:ILE:369:CG2:3237, H-A:GLY:454:N:4050, V-B:ILE:538:CG2:9835, V-B:TYR:539:CA:9841, V-A:ILE:369:CG1:3238"]

$$$$
3bg_Grossjean_2025
     RDKit          3D

 46 48  0  0  0  0  0  0  0  0999 V2000
  134.1640  124.3720   59.6860 C   0  0  0  0  0  0  0  0  0  0  0  0
  132.6490  124.1810   59.6750 C   0  0  0  0  0  0  0  0  0  0  0  0
  131.8850  125.0050   58.8440 C   0  0  0  0  0  0  0  0  0  0  0  0
  130.4920  124.8590   58.7980 C   0  0  0  0  0  0  0  0  0  0  0  0
  129.6130  125.7040   57.9180 C   0  0  0  0  0  0  0  0  0  0  0  0
  129.0000  126.8680   58.4100 C   0  0  0  0  0  0  0  0  0  0  0  0
  128.2010  127.6630   57.5930 C   0  0  0  0  0  0  0  0  0  0  0  0
  127.9970  127.3030   56.2660 C   0  0  0  0  0  0  0  0  0  0  0  0
  128.5810  126.1500   55.7540 C   0  0  0  0  0  0  0  0  0  0  0  0
  129.3780  125.3570   56.5750 C   0  0  0  0  0  0  0  0  0  0  0  0
  129.8730  123.9060   59.5450 N   0  0  0  0  0  0  0  0  0  0  0  0
  130.6010  123.0950   60.3550 C   0  0  0  0  0  0  0  0  0  0  0  0
  129.6710  121.8640   61.2550 S   0  0  0  0  0  0  0  0  0  0  0  0
  128.6420  122.7180   62.4940 C   0  0  0  0  0  0  0  0  0  0  0  0
  127.3100  123.1880   61.9020 C   0  0  0  0  0  0  0  0  0  0  0  0
  126.2500  122.7760   62.3740 O   0  0  0  0  0  0  0  0  0  0  0  0
  127.3830  124.0280   60.8560 N   0  0  0  0  0  0  0  0  0  0  0  0
  126.2540  124.4550   60.0280 C   0  0  0  0  0  0  0  0  0  0  0  0
  126.2250  123.7250   58.6910 C   0  0  0  0  0  0  0  0  0  0  0  0
  127.3560  123.0330   58.2460 C   0  0  0  0  0  0  0  0  0  0  0  0
  127.3330  122.3740   57.0200 C   0  0  0  0  0  0  0  0  0  0  0  0
  126.1740  122.3980   56.2460 C   0  0  0  0  0  0  0  0  0  0  0  0
  125.0360  123.0670   56.6920 C   0  0  0  0  0  0  0  0  0  0  0  0
  125.0600  123.7270   57.9190 C   0  0  0  0  0  0  0  0  0  0  0  0
  132.0030  123.2030   60.4600 C   0  0  0  0  0  0  0  0  0  0  0  0
  132.7780  122.3190   61.3350 C   0  0  0  0  0  0  0  0  0  0  0  0
  133.3910  121.6220   62.0250 N   0  0  0  0  0  0  0  0  0  0  0  0
  134.5204  124.4169   60.7257 H   0  0  0  0  0  0  0  0  0  0  0  0
  134.6438  123.5272   59.1701 H   0  0  0  0  0  0  0  0  0  0  0  0
  134.4191  125.3094   59.1701 H   0  0  0  0  0  0  0  0  0  0  0  0
  132.3778  125.7693   58.2251 H   0  0  0  0  0  0  0  0  0  0  0  0
  129.1541  127.1567   59.4602 H   0  0  0  0  0  0  0  0  0  0  0  0
  127.7327  128.5730   57.9962 H   0  0  0  0  0  0  0  0  0  0  0  0
  127.3705  127.9334   55.6179 H   0  0  0  0  0  0  0  0  0  0  0  0
  128.4141  125.8655   54.7046 H   0  0  0  0  0  0  0  0  0  0  0  0
  129.8323  124.4424   56.1662 H   0  0  0  0  0  0  0  0  0  0  0  0
  128.4380  122.0265   63.3248 H   0  0  0  0  0  0  0  0  0  0  0  0
  129.1924  123.6043   62.8427 H   0  0  0  0  0  0  0  0  0  0  0  0
  128.2970  124.3090   60.5330 H   0  0  0  0  0  0  0  0  0  0  0  0
  125.3181  124.2473   60.5675 H   0  0  0  0  0  0  0  0  0  0  0  0
  126.3644  125.5310   59.8278 H   0  0  0  0  0  0  0  0  0  0  0  0
  128.2647  123.0094   58.8654 H   0  0  0  0  0  0  0  0  0  0  0  0
  128.2247  121.8372   56.6640 H   0  0  0  0  0  0  0  0  0  0  0  0
  126.1576  121.8838   55.2737 H   0  0  0  0  0  0  0  0  0  0  0  0
  124.1230  123.0741   56.0784 H   0  0  0  0  0  0  0  0  0  0  0  0
  124.1619  124.2496   58.2800 H   0  0  0  0  0  0  0  0  0  0  0  0
  1  2  1  0
  2  3  2  0
  3  4  1  0
  4  5  1  0
  5  6  2  0
  6  7  1  0
  7  8  2  0
  8  9  1  0
  9 10  2  0
  4 11  2  0
 11 12  1  0
 12 13  1  0
 13 14  1  0
 14 15  1  0
 15 16  2  0
 15 17  1  0
 17 18  1  0
 18 19  1  0
 19 20  2  0
 20 21  1  0
 21 22  2  0
 22 23  1  0
 23 24  2  0
 12 25  2  0
 25 26  1  0
 26 27  3  0
 25  2  1  0
 10  5  1  0
 24 19  1  0
  1 28  1  0
  1 29  1  0
  1 30  1  0
  3 31  1  0
  6 32  1  0
  7 33  1  0
  8 34  1  0
  9 35  1  0
 10 36  1  0
 14 37  1  0
 14 38  1  0
 17 39  1  0
 18 40  1  0
 18 41  1  0
 20 42  1  0
 21 43  1  0
 22 44  1  0
 23 45  1  0
 24 46  1  0
M  END
>  <Binding energies>  (1) 
[-7.49]

>  <Ligand effiencies>  (1) 
[-0.2675]

>  <Interactions>  (1) 
["V-A:ASP:366:CG:3213, V-A:ASP:366:CB:3212, V-B:TYR:539:CZ:9849, V-B:PRO:540:N:9856, V-B:TYR:539:CE1:9847, V-B:PRO:540:CB:9857, V-B:TYR:539:CD1:9845, V-B:PRO:540:CA:9855, V-B:TYR:539:CE2:9848, V-B:PRO:540:CD:9859, V-B:MET:535:CE:9807, V-B:LEU:363:CD1:8160, V-B:TYR:539:C:9839, V-B:TYR:539:CG:9844, H-B:ALA:541:N:9863, V-B:TYR:539:CD2:9846, V-B:ALA:541:CB:9864, V-A:ASP:366:CA:3210, V-A:ILE:369:CD1:3239, V-A:ILE:369:CB:3236, V-A:ILE:369:CG2:3237, V-A:LEU:475:CD2:4259, V-B:GLU:543:CD:9880, V-B:ILE:538:CG2:9835, V-B:TYR:539:CA:9841"]

$$$$
3bk_Grossjean_2025
     RDKit          3D

 57 58  0  0  0  0  0  0  0  0999 V2000
  125.0710  122.8080   56.9920 C   0  0  0  0  0  0  0  0  0  0  0  0
  125.9260  121.9410   56.2630 O   0  0  0  0  0  0  0  0  0  0  0  0
  127.2510  122.4350   56.1260 C   0  0  0  0  0  0  0  0  0  0  0  0
  127.8210  122.7740   57.5110 C   0  0  0  0  0  0  0  0  0  0  0  0
  128.6720  123.9070   57.4060 O   0  0  0  0  0  0  0  0  0  0  0  0
  128.1010  124.9890   56.6830 C   0  0  0  0  0  0  0  0  0  0  0  0
  129.2130  125.7510   55.9510 C   0  0  0  0  0  0  0  0  0  0  0  0
  129.5670  126.9050   56.7010 O   0  0  0  0  0  0  0  0  0  0  0  0
  130.1130  126.6140   57.9810 C   0  0  0  0  0  0  0  0  0  0  0  0
  131.5450  126.0830   57.8160 C   0  0  0  0  0  0  0  0  0  0  0  0
  131.9490  125.2170   58.9250 N   0  0  0  0  0  0  0  0  0  0  0  0
  132.9420  124.3110   58.8860 C   0  0  0  0  0  0  0  0  0  0  0  0
  133.6510  124.1160   57.8970 O   0  0  0  0  0  0  0  0  0  0  0  0
  133.1910  123.5170   60.1700 C   0  0  0  0  0  0  0  0  0  0  0  0
  133.4460  124.6060   61.6060 S   0  0  0  0  0  0  0  0  0  0  0  0
  131.9080  124.7620   62.4980 C   0  0  0  0  0  0  0  0  0  0  0  0
  130.7790  124.7180   61.7460 N   0  0  0  0  0  0  0  0  0  0  0  0
  129.5620  124.8320   62.3390 C   0  0  0  0  0  0  0  0  0  0  0  0
  128.3660  124.7520   61.4380 C   0  0  0  0  0  0  0  0  0  0  0  0
  127.5800  123.5900   61.3910 C   0  0  0  0  0  0  0  0  0  0  0  0
  126.4710  123.5080   60.5510 C   0  0  0  0  0  0  0  0  0  0  0  0
  126.1330  124.5900   59.7460 C   0  0  0  0  0  0  0  0  0  0  0  0
  126.8940  125.7550   59.7770 C   0  0  0  0  0  0  0  0  0  0  0  0
  128.0000  125.8330   60.6180 C   0  0  0  0  0  0  0  0  0  0  0  0
  129.4510  124.9890   63.7260 C   0  0  0  0  0  0  0  0  0  0  0  0
  130.6050  125.0380   64.5160 C   0  0  0  0  0  0  0  0  0  0  0  0
  130.4390  125.2120   66.0250 C   0  0  0  0  0  0  0  0  0  0  0  0
  131.8680  124.9230   63.9000 C   0  0  0  0  0  0  0  0  0  0  0  0
  133.0940  124.9680   64.7030 C   0  0  0  0  0  0  0  0  0  0  0  0
  134.0610  125.0050   65.3370 N   0  0  0  0  0  0  0  0  0  0  0  0
  125.2242  122.6527   58.0702 H   0  0  0  0  0  0  0  0  0  0  0  0
  125.3026  123.8523   56.7354 H   0  0  0  0  0  0  0  0  0  0  0  0
  124.0236  122.5910   56.7354 H   0  0  0  0  0  0  0  0  0  0  0  0
  127.8798  121.6687   55.6491 H   0  0  0  0  0  0  0  0  0  0  0  0
  127.2398  123.3421   55.5039 H   0  0  0  0  0  0  0  0  0  0  0  0
  126.9957  122.9976   58.2030 H   0  0  0  0  0  0  0  0  0  0  0  0
  128.3954  121.9168   57.8921 H   0  0  0  0  0  0  0  0  0  0  0  0
  127.3777  124.6009   55.9507 H   0  0  0  0  0  0  0  0  0  0  0  0
  127.5858  125.6670   57.3793 H   0  0  0  0  0  0  0  0  0  0  0  0
  130.0931  125.1003   55.8415 H   0  0  0  0  0  0  0  0  0  0  0  0
  128.8565  126.0547   54.9557 H   0  0  0  0  0  0  0  0  0  0  0  0
  130.1291  127.5299   58.5900 H   0  0  0  0  0  0  0  0  0  0  0  0
  129.4944  125.8537   58.4802 H   0  0  0  0  0  0  0  0  0  0  0  0
  131.6034  125.5087   56.8796 H   0  0  0  0  0  0  0  0  0  0  0  0
  132.2244  126.9480   57.8005 H   0  0  0  0  0  0  0  0  0  0  0  0
  131.4560  125.3550   59.7950 H   0  0  0  0  0  0  0  0  0  0  0  0
  132.3210  122.8722   60.3633 H   0  0  0  0  0  0  0  0  0  0  0  0
  134.1045  122.9207   60.0291 H   0  0  0  0  0  0  0  0  0  0  0  0
  127.8432  122.7316   62.0265 H   0  0  0  0  0  0  0  0  0  0  0  0
  125.8651  122.5903   60.5250 H   0  0  0  0  0  0  0  0  0  0  0  0
  125.2593  124.5250   59.0809 H   0  0  0  0  0  0  0  0  0  0  0  0
  126.6226  126.6097   59.1400 H   0  0  0  0  0  0  0  0  0  0  0  0
  128.5977  126.7562   60.6413 H   0  0  0  0  0  0  0  0  0  0  0  0
  128.4589  125.0736   64.1935 H   0  0  0  0  0  0  0  0  0  0  0  0
  131.1061  124.5127   66.5503 H   0  0  0  0  0  0  0  0  0  0  0  0
  130.6955  126.2442   66.3055 H   0  0  0  0  0  0  0  0  0  0  0  0
  129.3958  125.0043   66.3055 H   0  0  0  0  0  0  0  0  0  0  0  0
  1  2  1  0
  2  3  1  0
  3  4  1  0
  4  5  1  0
  5  6  1  0
  6  7  1  0
  7  8  1  0
  8  9  1  0
  9 10  1  0
 10 11  1  0
 11 12  1  0
 12 13  2  0
 12 14  1  0
 14 15  1  0
 15 16  1  0
 16 17  2  0
 17 18  1  0
 18 19  1  0
 19 20  2  0
 20 21  1  0
 21 22  2  0
 22 23  1  0
 23 24  2  0
 18 25  2  0
 25 26  1  0
 26 27  1  0
 26 28  2  0
 28 29  1  0
 29 30  3  0
 28 16  1  0
 24 19  1  0
  1 31  1  0
  1 32  1  0
  1 33  1  0
  3 34  1  0
  3 35  1  0
  4 36  1  0
  4 37  1  0
  6 38  1  0
  6 39  1  0
  7 40  1  0
  7 41  1  0
  9 42  1  0
  9 43  1  0
 10 44  1  0
 10 45  1  0
 11 46  1  0
 14 47  1  0
 14 48  1  0
 20 49  1  0
 21 50  1  0
 22 51  1  0
 23 52  1  0
 24 53  1  0
 25 54  1  0
 27 55  1  0
 27 56  1  0
 27 57  1  0
M  END
>  <Binding energies>  (1) 
[-6.75]

>  <Ligand effiencies>  (1) 
[-0.21774193548387097]

>  <Interactions>  (1) 
["H-A:TYR:531:OH:4795, H-B:TYR:539:OH:9850, V-B:TYR:539:CZ:9849, V-B:PRO:540:N:9856, V-B:TYR:539:CE1:9847, V-B:PRO:540:CB:9857, V-B:TYR:539:CD1:9845, V-B:PRO:540:CA:9855, V-B:TYR:539:CE2:9848, H-B:TYR:539:N:9842, V-B:PRO:540:CD:9859, V-B:MET:535:CE:9807, V-B:LEU:363:CD1:8160, V-B:PRO:540:CG:9858, V-B:TYR:539:C:9839, V-B:TYR:539:CG:9844, V-B:TYR:539:CD2:9846, V-B:GLU:543:CG:9879, V-A:ILE:369:CG2:3237, H-A:TYR:484:OH:4348, H-A:ARG:545:NE:4924, V-A:ARG:545:CZ:4926, V-B:GLU:543:CD:9880, H-A:ARG:545:NH2:4928, H-A:GLY:454:N:4050, H-A:ARG:545:NH1:4927"]

$$$$
3ca_Grossjean_2025
     RDKit          3D

 52 54  0  0  0  0  0  0  0  0999 V2000
  127.4570  131.7820   56.6000 C   0  0  0  0  0  0  0  0  0  0  0  0
  128.3280  132.8850   55.9920 C   0  0  0  0  0  0  0  0  0  0  0  0
  129.1150  133.4840   57.0140 O   0  0  0  0  0  0  0  0  0  0  0  0
  130.4000  133.1010   57.2240 C   0  0  0  0  0  0  0  0  0  0  0  0
  131.3640  133.5970   56.6310 O   0  0  0  0  0  0  0  0  0  0  0  0
  130.5360  132.0180   58.2560 C   0  0  0  0  0  0  0  0  0  0  0  0
  130.9580  130.7430   57.8580 C   0  0  0  0  0  0  0  0  0  0  0  0
  131.0940  129.7190   58.7910 C   0  0  0  0  0  0  0  0  0  0  0  0
  130.8030  129.9450   60.1370 C   0  0  0  0  0  0  0  0  0  0  0  0
  130.9740  128.8410   60.9950 N   0  0  0  0  0  0  0  0  0  0  0  0
  130.9360  127.5200   60.7180 C   0  0  0  0  0  0  0  0  0  0  0  0
  130.7540  127.0310   59.6040 O   0  0  0  0  0  0  0  0  0  0  0  0
  131.1650  126.5930   61.9170 C   0  0  0  0  0  0  0  0  0  0  0  0
  129.6190  125.9150   62.6050 S   0  0  0  0  0  0  0  0  0  0  0  0
  129.1130  124.4810   61.6640 C   0  0  0  0  0  0  0  0  0  0  0  0
  129.6790  123.3050   62.0340 N   0  0  0  0  0  0  0  0  0  0  0  0
  129.3280  122.1770   61.3790 C   0  0  0  0  0  0  0  0  0  0  0  0
  129.9900  120.9020   61.8630 C   0  0  0  0  0  0  0  0  0  0  0  0
  128.4160  122.1750   60.3270 C   0  0  0  0  0  0  0  0  0  0  0  0
  127.8310  123.3790   59.9140 C   0  0  0  0  0  0  0  0  0  0  0  0
  126.8690  123.3290   58.7720 C   0  0  0  0  0  0  0  0  0  0  0  0
  127.2510  122.7510   57.5560 C   0  0  0  0  0  0  0  0  0  0  0  0
  126.3640  122.7090   56.4830 C   0  0  0  0  0  0  0  0  0  0  0  0
  125.0890  123.2510   56.6220 C   0  0  0  0  0  0  0  0  0  0  0  0
  124.6950  123.8360   57.8230 C   0  0  0  0  0  0  0  0  0  0  0  0
  125.5850  123.8770   58.8930 C   0  0  0  0  0  0  0  0  0  0  0  0
  128.1780  124.5680   60.6040 C   0  0  0  0  0  0  0  0  0  0  0  0
  127.5600  125.8500   60.2510 C   0  0  0  0  0  0  0  0  0  0  0  0
  127.0710  126.8610   59.9710 N   0  0  0  0  0  0  0  0  0  0  0  0
  130.3870  131.2210   60.5460 C   0  0  0  0  0  0  0  0  0  0  0  0
  130.2540  132.2450   59.6110 C   0  0  0  0  0  0  0  0  0  0  0  0
  127.5036  131.8411   57.6974 H   0  0  0  0  0  0  0  0  0  0  0  0
  126.4160  131.9129   56.2697 H   0  0  0  0  0  0  0  0  0  0  0  0
  127.8257  130.7997   56.2697 H   0  0  0  0  0  0  0  0  0  0  0  0
  128.9887  132.4509   55.2272 H   0  0  0  0  0  0  0  0  0  0  0  0
  127.6844  133.6479   55.5297 H   0  0  0  0  0  0  0  0  0  0  0  0
  131.1839  130.5493   56.7990 H   0  0  0  0  0  0  0  0  0  0  0  0
  131.4332  128.7247   58.4651 H   0  0  0  0  0  0  0  0  0  0  0  0
  131.2060  129.0890   61.9450 H   0  0  0  0  0  0  0  0  0  0  0  0
  131.8014  125.7555   61.5951 H   0  0  0  0  0  0  0  0  0  0  0  0
  131.6400  127.1922   62.7078 H   0  0  0  0  0  0  0  0  0  0  0  0
  129.9975  120.8875   62.9629 H   0  0  0  0  0  0  0  0  0  0  0  0
  129.4293  120.0328   61.4887 H   0  0  0  0  0  0  0  0  0  0  0  0
  131.0235  120.8606   61.4887 H   0  0  0  0  0  0  0  0  0  0  0  0
  128.1561  121.2326   59.8226 H   0  0  0  0  0  0  0  0  0  0  0  0
  128.2599  122.3265   57.4468 H   0  0  0  0  0  0  0  0  0  0  0  0
  126.6691  122.2501   55.5310 H   0  0  0  0  0  0  0  0  0  0  0  0
  124.3868  123.2169   55.7760 H   0  0  0  0  0  0  0  0  0  0  0  0
  123.6865  124.2632   57.9256 H   0  0  0  0  0  0  0  0  0  0  0  0
  125.2778  124.3432   59.8408 H   0  0  0  0  0  0  0  0  0  0  0  0
  130.1656  131.4130   61.6062 H   0  0  0  0  0  0  0  0  0  0  0  0
  129.9244  133.2420   59.9388 H   0  0  0  0  0  0  0  0  0  0  0  0
  1  2  1  0
  2  3  1  0
  3  4  1  0
  4  5  2  0
  4  6  1  0
  6  7  2  0
  7  8  1  0
  8  9  2  0
  9 10  1  0
 10 11  1  0
 11 12  2  0
 11 13  1  0
 13 14  1  0
 14 15  1  0
 15 16  2  0
 16 17  1  0
 17 18  1  0
 17 19  2  0
 19 20  1  0
 20 21  1  0
 21 22  2  0
 22 23  1  0
 23 24  2  0
 24 25  1  0
 25 26  2  0
 20 27  2  0
 27 28  1  0
 28 29  3  0
  9 30  1  0
 30 31  2  0
 31  6  1  0
 27 15  1  0
 26 21  1  0
  1 32  1  0
  1 33  1  0
  1 34  1  0
  2 35  1  0
  2 36  1  0
  7 37  1  0
  8 38  1  0
 10 39  1  0
 13 40  1  0
 13 41  1  0
 18 42  1  0
 18 43  1  0
 18 44  1  0
 19 45  1  0
 22 46  1  0
 23 47  1  0
 24 48  1  0
 25 49  1  0
 26 50  1  0
 30 51  1  0
 31 52  1  0
M  END
>  <Binding energies>  (1) 
[-8.46]

>  <Ligand effiencies>  (1) 
[-0.264375]

>  <Interactions>  (1) 
["V-A:ASP:366:CG:3213, V-A:PRO:540:CA:4883, V-A:PRO:540:CB:4885, V-A:PRO:540:CD:4887, H-A:ASP:366:OD2:3215, V-A:PRO:540:N:4884, V-A:TYR:539:C:4867, H-A:TYR:539:N:4870, V-B:PRO:540:N:9856, V-B:PRO:540:CB:9857, V-B:PRO:540:CA:9855, V-B:TYR:539:CE2:9848, V-B:PRO:540:CD:9859, V-B:MET:535:CE:9807, V-B:LEU:363:CD1:8160, V-B:TYR:539:C:9839, V-B:PRO:540:C:9853, V-B:TYR:539:CD2:9846, V-A:MET:535:CE:4835, V-B:ALA:541:CB:9864, V-A:LEU:475:CD2:4259, H-A:GLU:543:OE1:4909, V-A:TYR:539:CE1:4875, V-A:TYR:539:CZ:4877, V-A:TYR:539:CD1:4873, V-A:TYR:539:CD2:4874, V-A:ILE:538:CA:4860, V-A:TYR:539:CG:4872, V-A:TYR:539:CE2:4876"]

$$$$
3cb_Grossjean_2025
     RDKit          3D

 49 51  0  0  0  0  0  0  0  0999 V2000
  127.4390  127.7660   73.1310 C   0  0  0  0  0  0  0  0  0  0  0  0
  128.8180  127.4500   73.0200 O   0  0  0  0  0  0  0  0  0  0  0  0
  129.6480  128.1990   72.2500 C   0  0  0  0  0  0  0  0  0  0  0  0
  130.2690  129.1790   72.6720 O   0  0  0  0  0  0  0  0  0  0  0  0
  129.7350  127.7190   70.8290 C   0  0  0  0  0  0  0  0  0  0  0  0
  130.8430  127.9980   70.0150 C   0  0  0  0  0  0  0  0  0  0  0  0
  130.8920  127.5350   68.7040 C   0  0  0  0  0  0  0  0  0  0  0  0
  129.8380  126.7890   68.1750 C   0  0  0  0  0  0  0  0  0  0  0  0
  129.9950  126.3690   66.8390 N   0  0  0  0  0  0  0  0  0  0  0  0
  129.8500  125.1430   66.2920 C   0  0  0  0  0  0  0  0  0  0  0  0
  129.5170  124.1300   66.9100 O   0  0  0  0  0  0  0  0  0  0  0  0
  130.1170  125.0840   64.7810 C   0  0  0  0  0  0  0  0  0  0  0  0
  129.7100  123.4900   63.9890 S   0  0  0  0  0  0  0  0  0  0  0  0
  129.6760  123.7500   62.2270 C   0  0  0  0  0  0  0  0  0  0  0  0
  130.8460  124.2210   61.7290 N   0  0  0  0  0  0  0  0  0  0  0  0
  130.9380  124.4560   60.4020 C   0  0  0  0  0  0  0  0  0  0  0  0
  132.2790  124.9690   59.9140 C   0  0  0  0  0  0  0  0  0  0  0  0
  129.8770  124.2390   59.5270 C   0  0  0  0  0  0  0  0  0  0  0  0
  128.6530  123.7680   60.0210 C   0  0  0  0  0  0  0  0  0  0  0  0
  127.5430  123.5570   59.0430 C   0  0  0  0  0  0  0  0  0  0  0  0
  126.3460  124.2730   59.1710 C   0  0  0  0  0  0  0  0  0  0  0  0
  125.3100  124.0910   58.2580 C   0  0  0  0  0  0  0  0  0  0  0  0
  125.4700  123.1920   57.2060 C   0  0  0  0  0  0  0  0  0  0  0  0
  126.6550  122.4780   57.0590 C   0  0  0  0  0  0  0  0  0  0  0  0
  127.6900  122.6640   57.9730 C   0  0  0  0  0  0  0  0  0  0  0  0
  128.5370  123.5290   61.4150 C   0  0  0  0  0  0  0  0  0  0  0  0
  127.2540  123.1260   62.0000 C   0  0  0  0  0  0  0  0  0  0  0  0
  126.2420  122.8080   62.4610 N   0  0  0  0  0  0  0  0  0  0  0  0
  128.7280  126.5020   68.9840 C   0  0  0  0  0  0  0  0  0  0  0  0
  128.6800  126.9650   70.2960 C   0  0  0  0  0  0  0  0  0  0  0  0
  127.1618  127.8295   74.1936 H   0  0  0  0  0  0  0  0  0  0  0  0
  127.2438  128.7322   72.6427 H   0  0  0  0  0  0  0  0  0  0  0  0
  126.8425  126.9813   72.6427 H   0  0  0  0  0  0  0  0  0  0  0  0
  131.6801  128.5878   70.4167 H   0  0  0  0  0  0  0  0  0  0  0  0
  131.7691  127.7589   68.0791 H   0  0  0  0  0  0  0  0  0  0  0  0
  130.2270  127.1150   66.1990 H   0  0  0  0  0  0  0  0  0  0  0  0
  129.5169  125.8688   64.2972 H   0  0  0  0  0  0  0  0  0  0  0  0
  131.2007  125.2233   64.6540 H   0  0  0  0  0  0  0  0  0  0  0  0
  132.9150  125.2123   60.7779 H   0  0  0  0  0  0  0  0  0  0  0  0
  132.7683  124.1946   59.3050 H   0  0  0  0  0  0  0  0  0  0  0  0
  132.1265  125.8723   59.3050 H   0  0  0  0  0  0  0  0  0  0  0  0
  129.9990  124.4365   58.4518 H   0  0  0  0  0  0  0  0  0  0  0  0
  126.2230  124.9855   60.0000 H   0  0  0  0  0  0  0  0  0  0  0  0
  124.3712  124.6538   58.3670 H   0  0  0  0  0  0  0  0  0  0  0  0
  124.6522  123.0453   56.4851 H   0  0  0  0  0  0  0  0  0  0  0  0
  126.7742  121.7702   56.2254 H   0  0  0  0  0  0  0  0  0  0  0  0
  128.6301  122.1054   57.8538 H   0  0  0  0  0  0  0  0  0  0  0  0
  127.8936  125.9096   68.5805 H   0  0  0  0  0  0  0  0  0  0  0  0
  127.8045  126.7367   70.9216 H   0  0  0  0  0  0  0  0  0  0  0  0
  1  2  1  0
  2  3  1  0
  3  4  2  0
  3  5  1  0
  5  6  2  0
  6  7  1  0
  7  8  2  0
  8  9  1  0
  9 10  1  0
 10 11  2  0
 10 12  1  0
 12 13  1  0
 13 14  1  0
 14 15  2  0
 15 16  1  0
 16 17  1  0
 16 18  2  0
 18 19  1  0
 19 20  1  0
 20 21  2  0
 21 22  1  0
 22 23  2  0
 23 24  1  0
 24 25  2  0
 19 26  2  0
 26 27  1  0
 27 28  3  0
  8 29  1  0
 29 30  2  0
 30  5  1  0
 26 14  1  0
 25 20  1  0
  1 31  1  0
  1 32  1  0
  1 33  1  0
  6 34  1  0
  7 35  1  0
  9 36  1  0
 12 37  1  0
 12 38  1  0
 17 39  1  0
 17 40  1  0
 17 41  1  0
 18 42  1  0
 21 43  1  0
 22 44  1  0
 23 45  1  0
 24 46  1  0
 25 47  1  0
 29 48  1  0
 30 49  1  0
M  END
>  <Binding energies>  (1) 
[-9.25]

>  <Ligand effiencies>  (1) 
[-0.29838709677419356]

>  <Interactions>  (1) 
["V-A:ASP:366:CG:3213, V-B:TYR:539:CZ:9849, V-B:PRO:540:N:9856, V-B:PRO:540:CB:9857, V-B:PRO:540:CA:9855, V-B:TYR:539:CE2:9848, V-B:PRO:540:CD:9859, V-B:MET:535:CE:9807, V-B:LEU:363:CD1:8160, V-B:TYR:539:C:9839, V-B:TYR:539:CG:9844, V-B:PRO:540:C:9853, H-B:ALA:541:N:9863, V-B:TYR:539:CD2:9846, V-B:GLU:543:CG:9879, V-B:GLU:543:CB:9878, H-A:TYR:484:OH:4348, V-A:GLU:543:CD:4908, V-B:GLU:543:CD:9880, V-B:HIS:456:CE1:9041, V-A:GLY:544:C:4912, H-A:LYS:547:NZ:4951, V-B:GLU:543:C:9874, V-B:HIS:456:CD2:9039, V-B:LYS:547:CE:9922, V-A:HIS:456:CE1:4070, V-A:GLU:543:C:4902, V-A:GLU:543:CB:4906, V-B:HIS:456:CG:9037, H-B:LYS:547:NZ:9923, H-A:GLU:543:OE1:4909, V-A:ARG:545:CG:4922, H-A:GLU:543:OE2:4910, V-B:GLU:543:CA:9876"]

$$$$
3ce_Grossjean_2025
     RDKit          3D

 45 47  0  0  0  0  0  0  0  0999 V2000
  134.7270  124.9670   66.7220 C   0  0  0  0  0  0  0  0  0  0  0  0
  133.4670  125.0770   65.8840 C   0  0  0  0  0  0  0  0  0  0  0  0
  132.2300  125.3790   66.4600 C   0  0  0  0  0  0  0  0  0  0  0  0
  131.1160  125.4750   65.6260 C   0  0  0  0  0  0  0  0  0  0  0  0
  131.2620  125.2670   64.2520 C   0  0  0  0  0  0  0  0  0  0  0  0
  132.5270  124.9580   63.7430 C   0  0  0  0  0  0  0  0  0  0  0  0
  132.6180  124.7790   62.3520 N   0  0  0  0  0  0  0  0  0  0  0  0
  133.7250  124.5610   61.6070 C   0  0  0  0  0  0  0  0  0  0  0  0
  134.8700  124.4750   62.0530 O   0  0  0  0  0  0  0  0  0  0  0  0
  133.4930  124.4050   60.1050 C   0  0  0  0  0  0  0  0  0  0  0  0
  132.0390  125.3380   59.5420 S   0  0  0  0  0  0  0  0  0  0  0  0
  130.6590  124.2300   59.7100 C   0  0  0  0  0  0  0  0  0  0  0  0
  130.7640  123.3740   60.7550 N   0  0  0  0  0  0  0  0  0  0  0  0
  129.7550  122.5000   60.9790 C   0  0  0  0  0  0  0  0  0  0  0  0
  129.9310  121.5810   62.1730 C   0  0  0  0  0  0  0  0  0  0  0  0
  128.6240  122.4380   60.1700 C   0  0  0  0  0  0  0  0  0  0  0  0
  128.5090  123.2960   59.0690 C   0  0  0  0  0  0  0  0  0  0  0  0
  127.2890  123.1740   58.2160 C   0  0  0  0  0  0  0  0  0  0  0  0
  127.3390  122.4550   57.0160 C   0  0  0  0  0  0  0  0  0  0  0  0
  126.2070  122.3420   56.2130 C   0  0  0  0  0  0  0  0  0  0  0  0
  125.0200  122.9560   56.6030 C   0  0  0  0  0  0  0  0  0  0  0  0
  124.9570  123.6840   57.7890 C   0  0  0  0  0  0  0  0  0  0  0  0
  126.0890  123.7940   58.5900 C   0  0  0  0  0  0  0  0  0  0  0  0
  129.5520  124.2260   58.8280 C   0  0  0  0  0  0  0  0  0  0  0  0
  129.4810  125.1600   57.7000 C   0  0  0  0  0  0  0  0  0  0  0  0
  129.4230  125.8970   56.8090 N   0  0  0  0  0  0  0  0  0  0  0  0
  133.6240  124.8710   64.5520 N   0  0  0  0  0  0  0  0  0  0  0  0
  134.4609  124.9902   67.7891 H   0  0  0  0  0  0  0  0  0  0  0  0
  135.2387  124.0208   66.4922 H   0  0  0  0  0  0  0  0  0  0  0  0
  135.3949  125.8102   66.4922 H   0  0  0  0  0  0  0  0  0  0  0  0
  132.1371  125.5371   67.5446 H   0  0  0  0  0  0  0  0  0  0  0  0
  130.1283  125.7131   66.0476 H   0  0  0  0  0  0  0  0  0  0  0  0
  130.3942  125.3452   63.5805 H   0  0  0  0  0  0  0  0  0  0  0  0
  131.7310  124.7220   61.8720 H   0  0  0  0  0  0  0  0  0  0  0  0
  134.3803  124.7719   59.5683 H   0  0  0  0  0  0  0  0  0  0  0  0
  133.3153  123.3396   59.8969 H   0  0  0  0  0  0  0  0  0  0  0  0
  129.8200  122.1606   63.1013 H   0  0  0  0  0  0  0  0  0  0  0  0
  129.1682  120.7891   62.1418 H   0  0  0  0  0  0  0  0  0  0  0  0
  130.9324  121.1269   62.1418 H   0  0  0  0  0  0  0  0  0  0  0  0
  127.8235  121.7178   60.3946 H   0  0  0  0  0  0  0  0  0  0  0  0
  128.2791  121.9759   56.7052 H   0  0  0  0  0  0  0  0  0  0  0  0
  126.2505  121.7700   55.2744 H   0  0  0  0  0  0  0  0  0  0  0  0
  124.1251  122.8656   55.9698 H   0  0  0  0  0  0  0  0  0  0  0  0
  124.0170  124.1693   58.0905 H   0  0  0  0  0  0  0  0  0  0  0  0
  126.0419  124.3723   59.5245 H   0  0  0  0  0  0  0  0  0  0  0  0
  1  2  1  0
  2  3  2  0
  3  4  1  0
  4  5  2  0
  5  6  1  0
  6  7  1  0
  7  8  1  0
  8  9  2  0
  8 10  1  0
 10 11  1  0
 11 12  1  0
 12 13  2  0
 13 14  1  0
 14 15  1  0
 14 16  2  0
 16 17  1  0
 17 18  1  0
 18 19  2  0
 19 20  1  0
 20 21  2  0
 21 22  1  0
 22 23  2  0
 17 24  2  0
 24 25  1  0
 25 26  3  0
  6 27  2  0
 27  2  1  0
 24 12  1  0
 23 18  1  0
  1 28  1  0
  1 29  1  0
  1 30  1  0
  3 31  1  0
  4 32  1  0
  5 33  1  0
  7 34  1  0
 10 35  1  0
 10 36  1  0
 15 37  1  0
 15 38  1  0
 15 39  1  0
 16 40  1  0
 19 41  1  0
 20 42  1  0
 21 43  1  0
 22 44  1  0
 23 45  1  0
M  END
>  <Binding energies>  (1) 
[-7.94]

>  <Ligand effiencies>  (1) 
[-0.2835714285714286]

>  <Interactions>  (1) 
["V-A:ASP:366:CG:3213, H-A:TYR:531:OH:4795, H-B:TYR:539:OH:9850, V-A:ASP:366:CB:3212, V-B:TYR:539:CZ:9849, V-B:PRO:540:N:9856, V-B:TYR:539:CE1:9847, V-B:PRO:540:CB:9857, V-B:TYR:539:CD1:9845, V-B:PRO:540:CA:9855, V-B:TYR:539:CE2:9848, V-B:PRO:540:CD:9859, V-B:MET:535:CE:9807, V-B:LEU:363:CD1:8160, V-B:TYR:539:C:9839, V-B:TYR:539:CG:9844, V-B:TYR:539:CD2:9846, V-B:ALA:541:CB:9864, V-A:ASP:366:CA:3210, V-A:LEU:475:CD2:4259, V-A:TYR:484:CZ:4347, V-A:GLY:453:CA:4044, H-A:TYR:484:OH:4348, V-A:GLU:543:CD:4908, H-A:ARG:545:NE:4924, V-A:GLY:454:CA:4049, V-A:ARG:545:CZ:4926, V-A:HIS:456:CE1:4070, V-A:ARG:545:CG:4922, H-A:ARG:545:NH2:4928, H-A:GLY:454:N:4050, V-A:GLY:453:C:4042, V-B:ILE:538:CG2:9835, V-B:TYR:539:CA:9841, V-A:ARG:545:CD:4923, V-A:GLY:454:C:4047, V-A:ILE:455:C:4052"]

$$$$
3ch_Grossjean_2025
     RDKit          3D

 55 57  0  0  0  0  0  0  0  0999 V2000
  132.4930  131.7420   54.9410 C   0  0  0  0  0  0  0  0  0  0  0  0
  131.7350  132.5660   55.8200 O   0  0  0  0  0  0  0  0  0  0  0  0
  131.0660  131.9910   56.8860 C   0  0  0  0  0  0  0  0  0  0  0  0
  131.5570  130.9040   57.6270 C   0  0  0  0  0  0  0  0  0  0  0  0
  130.8260  130.3790   58.7030 C   0  0  0  0  0  0  0  0  0  0  0  0
  131.2370  129.2980   59.5060 N   0  0  0  0  0  0  0  0  0  0  0  0
  130.6490  128.0980   59.7040 C   0  0  0  0  0  0  0  0  0  0  0  0
  129.6020  127.7200   59.1780 O   0  0  0  0  0  0  0  0  0  0  0  0
  131.3960  127.1420   60.6330 C   0  0  0  0  0  0  0  0  0  0  0  0
  131.8140  125.5740   59.8130 S   0  0  0  0  0  0  0  0  0  0  0  0
  130.3740  124.5400   59.9640 C   0  0  0  0  0  0  0  0  0  0  0  0
  130.2620  123.9250   61.1670 N   0  0  0  0  0  0  0  0  0  0  0  0
  129.2050  123.1090   61.3800 C   0  0  0  0  0  0  0  0  0  0  0  0
  129.1440  122.4490   62.7440 C   0  0  0  0  0  0  0  0  0  0  0  0
  128.2300  122.8760   60.4130 C   0  0  0  0  0  0  0  0  0  0  0  0
  128.3230  123.5090   59.1660 C   0  0  0  0  0  0  0  0  0  0  0  0
  127.2590  123.2210   58.1560 C   0  0  0  0  0  0  0  0  0  0  0  0
  127.5950  122.6380   56.9280 C   0  0  0  0  0  0  0  0  0  0  0  0
  126.6100  122.3750   55.9790 C   0  0  0  0  0  0  0  0  0  0  0  0
  125.2840  122.6980   56.2540 C   0  0  0  0  0  0  0  0  0  0  0  0
  124.9350  123.2840   57.4680 C   0  0  0  0  0  0  0  0  0  0  0  0
  125.9230  123.5470   58.4140 C   0  0  0  0  0  0  0  0  0  0  0  0
  129.4160  124.3820   58.9340 C   0  0  0  0  0  0  0  0  0  0  0  0
  129.5140  125.1430   57.6840 C   0  0  0  0  0  0  0  0  0  0  0  0
  129.5930  125.7420   56.6980 N   0  0  0  0  0  0  0  0  0  0  0  0
  129.5880  130.9390   59.0220 C   0  0  0  0  0  0  0  0  0  0  0  0
  129.0750  132.0250   58.2950 C   0  0  0  0  0  0  0  0  0  0  0  0
  127.8600  132.6300   58.5640 O   0  0  0  0  0  0  0  0  0  0  0  0
  127.4900  132.8890   59.9140 C   0  0  0  0  0  0  0  0  0  0  0  0
  129.8230  132.5400   57.2280 C   0  0  0  0  0  0  0  0  0  0  0  0
  129.3400  133.6140   56.5200 O   0  0  0  0  0  0  0  0  0  0  0  0
  128.4150  133.2670   55.4990 C   0  0  0  0  0  0  0  0  0  0  0  0
  133.1218  131.0584   55.5303 H   0  0  0  0  0  0  0  0  0  0  0  0
  131.8105  131.1573   54.3067 H   0  0  0  0  0  0  0  0  0  0  0  0
  133.1325  132.3735   54.3067 H   0  0  0  0  0  0  0  0  0  0  0  0
  132.5268  130.4587   57.3604 H   0  0  0  0  0  0  0  0  0  0  0  0
  132.1260  129.4370   59.9650 H   0  0  0  0  0  0  0  0  0  0  0  0
  132.3257  127.6262   60.9664 H   0  0  0  0  0  0  0  0  0  0  0  0
  130.7366  126.9132   61.4832 H   0  0  0  0  0  0  0  0  0  0  0  0
  129.2151  123.2183   63.5271 H   0  0  0  0  0  0  0  0  0  0  0  0
  128.1920  121.9077   62.8472 H   0  0  0  0  0  0  0  0  0  0  0  0
  129.9807  121.7423   62.8472 H   0  0  0  0  0  0  0  0  0  0  0  0
  127.3906  122.1981   60.6271 H   0  0  0  0  0  0  0  0  0  0  0  0
  128.6436  122.3861   56.7114 H   0  0  0  0  0  0  0  0  0  0  0  0
  126.8785  121.9143   55.0169 H   0  0  0  0  0  0  0  0  0  0  0  0
  124.5053  122.4885   55.5058 H   0  0  0  0  0  0  0  0  0  0  0  0
  123.8856  123.5377   57.6786 H   0  0  0  0  0  0  0  0  0  0  0  0
  125.6507  124.0148   59.3716 H   0  0  0  0  0  0  0  0  0  0  0  0
  129.0048  130.5227   59.8566 H   0  0  0  0  0  0  0  0  0  0  0  0
  128.2004  132.3917   60.5908 H   0  0  0  0  0  0  0  0  0  0  0  0
  127.5069  133.9735   60.0972 H   0  0  0  0  0  0  0  0  0  0  0  0
  126.4768  132.5019   60.0972 H   0  0  0  0  0  0  0  0  0  0  0  0
  127.4785  132.9157   55.9567 H   0  0  0  0  0  0  0  0  0  0  0  0
  128.2097  134.1493   54.8749 H   0  0  0  0  0  0  0  0  0  0  0  0
  128.8406  132.4674   54.8749 H   0  0  0  0  0  0  0  0  0  0  0  0
  1  2  1  0
  2  3  1  0
  3  4  2  0
  4  5  1  0
  5  6  1  0
  6  7  1  0
  7  8  2  0
  7  9  1  0
  9 10  1  0
 10 11  1  0
 11 12  2  0
 12 13  1  0
 13 14  1  0
 13 15  2  0
 15 16  1  0
 16 17  1  0
 17 18  2  0
 18 19  1  0
 19 20  2  0
 20 21  1  0
 21 22  2  0
 16 23  2  0
 23 24  1  0
 24 25  3  0
  5 26  2  0
 26 27  1  0
 27 28  1  0
 28 29  1  0
 27 30  2  0
 30 31  1  0
 31 32  1  0
 30  3  1  0
 23 11  1  0
 22 17  1  0
  1 33  1  0
  1 34  1  0
  1 35  1  0
  4 36  1  0
  6 37  1  0
  9 38  1  0
  9 39  1  0
 14 40  1  0
 14 41  1  0
 14 42  1  0
 15 43  1  0
 18 44  1  0
 19 45  1  0
 20 46  1  0
 21 47  1  0
 22 48  1  0
 26 49  1  0
 29 50  1  0
 29 51  1  0
 29 52  1  0
 32 53  1  0
 32 54  1  0
 32 55  1  0
M  END
>  <Binding energies>  (1) 
[-7.85]

>  <Ligand effiencies>  (1) 
[-0.23787878787878786]

>  <Interactions>  (1) 
["V-A:LEU:363:CD1:3189, V-A:ASP:366:CG:3213, H-A:TYR:531:OH:4795, H-B:TYR:539:OH:9850, H-A:ASP:366:OD2:3215, H-A:TYR:539:N:4870, V-B:TYR:539:CZ:9849, V-B:PRO:540:N:9856, V-B:TYR:539:CE1:9847, V-B:PRO:540:CB:9857, V-B:TYR:539:CD1:9845, V-B:PRO:540:CA:9855, V-B:TYR:539:CE2:9848, V-B:PRO:540:CD:9859, V-B:MET:535:CE:9807, V-B:LEU:363:CD1:8160, V-B:TYR:539:C:9839, V-B:TYR:539:CG:9844, V-B:TYR:539:CD2:9846, V-A:MET:535:CE:4835, V-B:ALA:541:CB:9864, V-A:TYR:531:CZ:4794, V-A:TYR:539:CE1:4875, V-A:TYR:539:CZ:4877, V-B:ILE:538:CG2:9835, V-A:TYR:539:CD1:4873, V-A:TYR:539:CD2:4874, V-A:ILE:538:CA:4860, V-A:TYR:539:CG:4872, V-A:TYR:539:CE2:4876, V-A:TYR:531:CE2:4793, V-A:ILE:538:C:4858, V-A:ILE:538:CG2:4863, V-A:ILE:538:CB:4862, V-B:ILE:538:CA:9832, V-A:MET:535:CG:4833, V-A:TYR:531:CD2:4791"]

$$$$
3ci_Grossjean_2025
     RDKit          3D

 39 41  0  0  0  0  0  0  0  0999 V2000
  129.8980  121.7670   62.1650 C   0  0  0  0  0  0  0  0  0  0  0  0
  129.7360  122.6280   60.9270 C   0  0  0  0  0  0  0  0  0  0  0  0
  128.6040  122.5430   60.1210 C   0  0  0  0  0  0  0  0  0  0  0  0
  128.4930  123.3710   58.9950 C   0  0  0  0  0  0  0  0  0  0  0  0
  127.2540  123.2570   58.1680 C   0  0  0  0  0  0  0  0  0  0  0  0
  126.0660  123.8830   58.5660 C   0  0  0  0  0  0  0  0  0  0  0  0
  124.9120  123.7660   57.7960 C   0  0  0  0  0  0  0  0  0  0  0  0
  124.9400  123.0150   56.6240 C   0  0  0  0  0  0  0  0  0  0  0  0
  126.1100  122.3780   56.2190 C   0  0  0  0  0  0  0  0  0  0  0  0
  127.2620  122.4980   56.9910 C   0  0  0  0  0  0  0  0  0  0  0  0
  129.5550  124.2670   58.7090 C   0  0  0  0  0  0  0  0  0  0  0  0
  129.5130  125.1270   57.5210 C   0  0  0  0  0  0  0  0  0  0  0  0
  129.4780  125.8060   56.5840 N   0  0  0  0  0  0  0  0  0  0  0  0
  130.6670  124.2920   59.5850 C   0  0  0  0  0  0  0  0  0  0  0  0
  132.0500  125.3970   59.3320 S   0  0  0  0  0  0  0  0  0  0  0  0
  133.6000  124.5380   59.7580 C   0  0  0  0  0  0  0  0  0  0  0  0
  133.9450  124.6070   61.2500 C   0  0  0  0  0  0  0  0  0  0  0  0
  135.1150  124.4540   61.6060 O   0  0  0  0  0  0  0  0  0  0  0  0
  132.9030  124.8230   62.0830 N   0  0  0  0  0  0  0  0  0  0  0  0
  132.9440  124.9570   63.4640 C   0  0  0  0  0  0  0  0  0  0  0  0
  131.8440  125.3540   64.2230 C   0  0  0  0  0  0  0  0  0  0  0  0
  132.2910  125.3650   65.5250 C   0  0  0  0  0  0  0  0  0  0  0  0
  133.5940  124.9920   65.5470 O   0  0  0  0  0  0  0  0  0  0  0  0
  133.9960  124.7370   64.2350 N   0  0  0  0  0  0  0  0  0  0  0  0
  130.7520  123.4790   60.6680 N   0  0  0  0  0  0  0  0  0  0  0  0
  129.7806  122.3908   63.0634 H   0  0  0  0  0  0  0  0  0  0  0  0
  129.1328  120.9768   62.1648 H   0  0  0  0  0  0  0  0  0  0  0  0
  130.8981  121.3089   62.1648 H   0  0  0  0  0  0  0  0  0  0  0  0
  127.8021  121.8310   60.3659 H   0  0  0  0  0  0  0  0  0  0  0  0
  126.0446  124.4720   59.4948 H   0  0  0  0  0  0  0  0  0  0  0  0
  123.9834  124.2641   58.1118 H   0  0  0  0  0  0  0  0  0  0  0  0
  124.0300  122.9241   56.0127 H   0  0  0  0  0  0  0  0  0  0  0  0
  126.1239  121.7831   55.2939 H   0  0  0  0  0  0  0  0  0  0  0  0
  128.1862  121.9926   56.6741 H   0  0  0  0  0  0  0  0  0  0  0  0
  133.5025  123.4805   59.4714 H   0  0  0  0  0  0  0  0  0  0  0  0
  134.4112  125.0437   59.2138 H   0  0  0  0  0  0  0  0  0  0  0  0
  131.9910  124.9260   61.6640 H   0  0  0  0  0  0  0  0  0  0  0  0
  130.8363  125.6044   63.8598 H   0  0  0  0  0  0  0  0  0  0  0  0
  131.6882  125.6331   66.4052 H   0  0  0  0  0  0  0  0  0  0  0  0
  1  2  1  0
  2  3  2  0
  3  4  1  0
  4  5  1  0
  5  6  2  0
  6  7  1  0
  7  8  2  0
  8  9  1  0
  9 10  2  0
  4 11  2  0
 11 12  1  0
 12 13  3  0
 11 14  1  0
 14 15  1  0
 15 16  1  0
 16 17  1  0
 17 18  2  0
 17 19  1  0
 19 20  1  0
 20 21  1  0
 21 22  2  0
 22 23  1  0
 23 24  1  0
 14 25  2  0
 25  2  1  0
 10  5  1  0
 24 20  2  0
  1 26  1  0
  1 27  1  0
  1 28  1  0
  3 29  1  0
  6 30  1  0
  7 31  1  0
  8 32  1  0
  9 33  1  0
 10 34  1  0
 16 35  1  0
 16 36  1  0
 19 37  1  0
 21 38  1  0
 22 39  1  0
M  END
>  <Binding energies>  (1) 
[-7.73]

>  <Ligand effiencies>  (1) 
[-0.29730769230769233]

>  <Interactions>  (1) 
["V-A:ASP:366:CG:3213, H-A:TYR:531:OH:4795, H-B:TYR:539:OH:9850, V-A:ASP:366:CB:3212, V-B:TYR:539:CZ:9849, V-B:PRO:540:N:9856, V-B:TYR:539:CE1:9847, V-B:PRO:540:CB:9857, V-B:TYR:539:CD1:9845, V-B:PRO:540:CA:9855, V-B:TYR:539:CE2:9848, V-B:PRO:540:CD:9859, V-B:MET:535:CE:9807, V-B:LEU:363:CD1:8160, V-B:TYR:539:C:9839, V-B:TYR:539:CG:9844, V-B:TYR:539:CD2:9846, V-B:ALA:541:CB:9864, V-A:ASP:366:CA:3210, V-A:ILE:369:CD1:3239, V-A:ILE:369:CG2:3237, V-A:LEU:475:CD2:4259, H-A:TYR:484:OH:4348, H-A:ARG:545:NE:4924, V-A:ARG:545:CZ:4926, H-A:ARG:545:NH2:4928, H-A:GLY:454:N:4050, V-B:ILE:538:CG2:9835, H-A:ARG:545:NH1:4927"]

$$$$
3cj_Grossjean_2025
     RDKit          3D

 39 41  0  0  0  0  0  0  0  0999 V2000
  131.9410  126.4730   58.1530 C   0  0  0  0  0  0  0  0  0  0  0  0
  131.1600  125.3380   58.7860 C   0  0  0  0  0  0  0  0  0  0  0  0
  129.8970  124.9750   58.3220 C   0  0  0  0  0  0  0  0  0  0  0  0
  129.2200  123.9040   58.9210 C   0  0  0  0  0  0  0  0  0  0  0  0
  127.8990  123.5090   58.3500 C   0  0  0  0  0  0  0  0  0  0  0  0
  127.8310  122.7500   57.1760 C   0  0  0  0  0  0  0  0  0  0  0  0
  126.5970  122.3930   56.6370 C   0  0  0  0  0  0  0  0  0  0  0  0
  125.4260  122.8010   57.2680 C   0  0  0  0  0  0  0  0  0  0  0  0
  125.4780  123.5650   58.4310 C   0  0  0  0  0  0  0  0  0  0  0  0
  126.7130  123.9200   58.9690 C   0  0  0  0  0  0  0  0  0  0  0  0
  129.8370  123.2420   60.0120 C   0  0  0  0  0  0  0  0  0  0  0  0
  129.1670  122.1340   60.6990 C   0  0  0  0  0  0  0  0  0  0  0  0
  128.6380  121.2580   61.2410 N   0  0  0  0  0  0  0  0  0  0  0  0
  131.1210  123.6740   60.4130 C   0  0  0  0  0  0  0  0  0  0  0  0
  132.0630  122.8460   61.6770 S   0  0  0  0  0  0  0  0  0  0  0  0
  133.3240  121.8940   60.7720 C   0  0  0  0  0  0  0  0  0  0  0  0
  132.7880  120.5360   60.3070 C   0  0  0  0  0  0  0  0  0  0  0  0
  133.4960  119.8130   59.6020 O   0  0  0  0  0  0  0  0  0  0  0  0
  131.5550  120.2160   60.7560 N   0  0  0  0  0  0  0  0  0  0  0  0
  130.9050  119.0030   60.5930 C   0  0  0  0  0  0  0  0  0  0  0  0
  130.9970  118.1660   59.5830 N   0  0  0  0  0  0  0  0  0  0  0  0
  130.2590  117.0910   59.7780 C   0  0  0  0  0  0  0  0  0  0  0  0
  129.5430  117.0420   60.9700 C   0  0  0  0  0  0  0  0  0  0  0  0
  129.8600  118.4890   61.8800 S   0  0  0  0  0  0  0  0  0  0  0  0
  131.7740  124.6960   59.8040 N   0  0  0  0  0  0  0  0  0  0  0  0
  132.3753  127.1042   58.9423 H   0  0  0  0  0  0  0  0  0  0  0  0
  132.7471  126.0600   57.5287 H   0  0  0  0  0  0  0  0  0  0  0  0
  131.2673  127.0783   57.5287 H   0  0  0  0  0  0  0  0  0  0  0  0
  129.4340  125.5261   57.4902 H   0  0  0  0  0  0  0  0  0  0  0  0
  128.7580  122.4333   56.6756 H   0  0  0  0  0  0  0  0  0  0  0  0
  126.5487  121.7916   55.7172 H   0  0  0  0  0  0  0  0  0  0  0  0
  124.4511  122.5177   56.8446 H   0  0  0  0  0  0  0  0  0  0  0  0
  124.5481  123.8868   58.9227 H   0  0  0  0  0  0  0  0  0  0  0  0
  126.7562  124.5268   59.8855 H   0  0  0  0  0  0  0  0  0  0  0  0
  133.6420  122.4715   59.8915 H   0  0  0  0  0  0  0  0  0  0  0  0
  134.1689  121.7128   61.4527 H   0  0  0  0  0  0  0  0  0  0  0  0
  131.0860  120.8900   61.3420 H   0  0  0  0  0  0  0  0  0  0  0  0
  130.2119  116.2776   59.0390 H   0  0  0  0  0  0  0  0  0  0  0  0
  128.8830  116.2205   61.2856 H   0  0  0  0  0  0  0  0  0  0  0  0
  1  2  1  0
  2  3  2  0
  3  4  1  0
  4  5  1  0
  5  6  2  0
  6  7  1  0
  7  8  2  0
  8  9  1  0
  9 10  2  0
  4 11  2  0
 11 12  1  0
 12 13  3  0
 11 14  1  0
 14 15  1  0
 15 16  1  0
 16 17  1  0
 17 18  2  0
 17 19  1  0
 19 20  1  0
 20 21  2  0
 21 22  1  0
 22 23  2  0
 23 24  1  0
 14 25  2  0
 25  2  1  0
 10  5  1  0
 24 20  1  0
  1 26  1  0
  1 27  1  0
  1 28  1  0
  3 29  1  0
  6 30  1  0
  7 31  1  0
  8 32  1  0
  9 33  1  0
 10 34  1  0
 16 35  1  0
 16 36  1  0
 19 37  1  0
 22 38  1  0
 23 39  1  0
M  END
>  <Binding energies>  (1) 
[-7.61]

>  <Ligand effiencies>  (1) 
[-0.2926923076923077]

>  <Interactions>  (1) 
["V-A:ASP:366:CG:3213, V-A:ASP:366:CB:3212, V-B:TYR:539:CZ:9849, V-B:PRO:540:N:9856, V-B:TYR:539:CE1:9847, V-B:PRO:540:CB:9857, V-B:TYR:539:CD1:9845, V-B:PRO:540:CA:9855, V-B:TYR:539:CE2:9848, V-B:PRO:540:CD:9859, V-B:LEU:363:CD1:8160, V-B:PRO:540:CG:9858, V-B:TYR:539:C:9839, V-B:TYR:539:CG:9844, H-B:ALA:541:N:9863, V-B:TYR:539:CD2:9846, V-B:ALA:541:CB:9864, V-A:ILE:369:CG2:3237, V-A:LEU:475:CD2:4259, V-B:TYR:539:CA:9841, V-B:TYR:539:CB:9843, H-A:SER:385:OG:3410, V-A:HIS:383:NE2:3394, V-A:LEU:475:CG:4257, V-A:HIS:383:CE1:3393, V-A:LEU:475:CD1:4258, V-A:PRO:482:CB:4326, V-A:PRO:482:CG:4327, H-A:HIS:383:HE2:3395, V-A:SER:385:CB:3409, V-B:VAL:344:CG1:7972"]

$$$$
3ck_Grossjean_2025
     RDKit          3D

 57 58  0  0  0  0  0  0  0  0999 V2000
  125.0390  122.5190   56.6420 C   0  0  0  0  0  0  0  0  0  0  0  0
  126.1420  121.6990   56.2900 O   0  0  0  0  0  0  0  0  0  0  0  0
  127.2700  122.4320   55.8310 C   0  0  0  0  0  0  0  0  0  0  0  0
  127.7580  123.3710   56.9420 C   0  0  0  0  0  0  0  0  0  0  0  0
  127.6140  122.7250   58.2010 O   0  0  0  0  0  0  0  0  0  0  0  0
  127.2100  123.5940   59.2510 C   0  0  0  0  0  0  0  0  0  0  0  0
  127.9250  124.9410   59.0900 C   0  0  0  0  0  0  0  0  0  0  0  0
  129.2690  124.7890   59.5210 O   0  0  0  0  0  0  0  0  0  0  0  0
  130.2350  124.8280   58.4820 C   0  0  0  0  0  0  0  0  0  0  0  0
  131.2900  125.9050   58.8010 C   0  0  0  0  0  0  0  0  0  0  0  0
  132.3900  125.4220   59.6420 N   0  0  0  0  0  0  0  0  0  0  0  0
  133.3790  124.6010   59.2450 C   0  0  0  0  0  0  0  0  0  0  0  0
  133.4820  124.1750   58.0930 O   0  0  0  0  0  0  0  0  0  0  0  0
  134.3970  124.2190   60.3310 C   0  0  0  0  0  0  0  0  0  0  0  0
  133.9600  122.7590   61.3370 S   0  0  0  0  0  0  0  0  0  0  0  0
  132.3010  122.9600   61.9700 C   0  0  0  0  0  0  0  0  0  0  0  0
  131.3320  122.2890   61.2970 N   0  0  0  0  0  0  0  0  0  0  0  0
  130.0530  122.3990   61.7180 C   0  0  0  0  0  0  0  0  0  0  0  0
  129.0260  121.6230   60.9160 C   0  0  0  0  0  0  0  0  0  0  0  0
  129.6870  123.1750   62.8150 C   0  0  0  0  0  0  0  0  0  0  0  0
  130.6700  123.8820   63.5210 C   0  0  0  0  0  0  0  0  0  0  0  0
  130.2290  124.7190   64.6760 C   0  0  0  0  0  0  0  0  0  0  0  0
  129.5630  125.9300   64.4530 C   0  0  0  0  0  0  0  0  0  0  0  0
  129.1570  126.7220   65.5260 C   0  0  0  0  0  0  0  0  0  0  0  0
  129.4240  126.3070   66.8270 C   0  0  0  0  0  0  0  0  0  0  0  0
  130.0940  125.1090   67.0660 C   0  0  0  0  0  0  0  0  0  0  0  0
  130.4970  124.3200   65.9920 C   0  0  0  0  0  0  0  0  0  0  0  0
  132.0190  123.7650   63.0970 C   0  0  0  0  0  0  0  0  0  0  0  0
  133.0950  124.4490   63.8240 C   0  0  0  0  0  0  0  0  0  0  0  0
  133.9430  124.9890   64.3970 N   0  0  0  0  0  0  0  0  0  0  0  0
  124.9604  122.5774   57.7376 H   0  0  0  0  0  0  0  0  0  0  0  0
  125.1865  123.5285   56.2306 H   0  0  0  0  0  0  0  0  0  0  0  0
  124.1148  122.0869   56.2306 H   0  0  0  0  0  0  0  0  0  0  0  0
  128.0759  121.7335   55.5613 H   0  0  0  0  0  0  0  0  0  0  0  0
  126.9871  123.0248   54.9486 H   0  0  0  0  0  0  0  0  0  0  0  0
  128.8167  123.6186   56.7751 H   0  0  0  0  0  0  0  0  0  0  0  0
  127.1613  124.2950   56.9318 H   0  0  0  0  0  0  0  0  0  0  0  0
  126.1216  123.7467   59.2046 H   0  0  0  0  0  0  0  0  0  0  0  0
  127.4720  123.1489   60.2222 H   0  0  0  0  0  0  0  0  0  0  0  0
  127.9060  125.2478   58.0338 H   0  0  0  0  0  0  0  0  0  0  0  0
  127.4200  125.7113   59.6913 H   0  0  0  0  0  0  0  0  0  0  0  0
  130.7257  123.8469   58.4007 H   0  0  0  0  0  0  0  0  0  0  0  0
  129.7399  125.0706   57.5302 H   0  0  0  0  0  0  0  0  0  0  0  0
  131.7120  126.2693   57.8528 H   0  0  0  0  0  0  0  0  0  0  0  0
  130.7786  126.6987   59.3653 H   0  0  0  0  0  0  0  0  0  0  0  0
  132.3870  125.7390   60.6000 H   0  0  0  0  0  0  0  0  0  0  0  0
  135.3589  124.0154   59.8377 H   0  0  0  0  0  0  0  0  0  0  0  0
  134.4285  125.0689   61.0287 H   0  0  0  0  0  0  0  0  0  0  0  0
  128.3401  121.1048   61.6023 H   0  0  0  0  0  0  0  0  0  0  0  0
  128.4550  122.3173   60.2820 H   0  0  0  0  0  0  0  0  0  0  0  0
  129.5379  120.8841   60.2820 H   0  0  0  0  0  0  0  0  0  0  0  0
  128.6333  123.2327   63.1254 H   0  0  0  0  0  0  0  0  0  0  0  0
  129.3585  126.2591   63.4235 H   0  0  0  0  0  0  0  0  0  0  0  0
  128.6286  127.6697   65.3452 H   0  0  0  0  0  0  0  0  0  0  0  0
  129.1032  126.9305   67.6746 H   0  0  0  0  0  0  0  0  0  0  0  0
  130.3033  124.7884   68.0972 H   0  0  0  0  0  0  0  0  0  0  0  0
  131.0300  123.3759   66.1782 H   0  0  0  0  0  0  0  0  0  0  0  0
  1  2  1  0
  2  3  1  0
  3  4  1  0
  4  5  1  0
  5  6  1  0
  6  7  1  0
  7  8  1  0
  8  9  1  0
  9 10  1  0
 10 11  1  0
 11 12  1  0
 12 13  2  0
 12 14  1  0
 14 15  1  0
 15 16  1  0
 16 17  2  0
 17 18  1  0
 18 19  1  0
 18 20  2  0
 20 21  1  0
 21 22  1  0
 22 23  2  0
 23 24  1  0
 24 25  2  0
 25 26  1  0
 26 27  2  0
 21 28  2  0
 28 29  1  0
 29 30  3  0
 28 16  1  0
 27 22  1  0
  1 31  1  0
  1 32  1  0
  1 33  1  0
  3 34  1  0
  3 35  1  0
  4 36  1  0
  4 37  1  0
  6 38  1  0
  6 39  1  0
  7 40  1  0
  7 41  1  0
  9 42  1  0
  9 43  1  0
 10 44  1  0
 10 45  1  0
 11 46  1  0
 14 47  1  0
 14 48  1  0
 19 49  1  0
 19 50  1  0
 19 51  1  0
 20 52  1  0
 23 53  1  0
 24 54  1  0
 25 55  1  0
 26 56  1  0
 27 57  1  0
M  END
>  <Binding energies>  (1) 
[-7.21]

>  <Ligand effiencies>  (1) 
[-0.23258064516129032]

>  <Interactions>  (1) 
["V-A:ASP:366:CG:3213, H-B:TYR:539:OH:9850, H-A:ASP:366:OD2:3215, V-A:ASP:366:CB:3212, V-B:TYR:539:CZ:9849, V-B:PRO:540:N:9856, V-B:TYR:539:CE1:9847, V-B:PRO:540:CB:9857, V-B:TYR:539:CD1:9845, V-B:PRO:540:CA:9855, V-B:TYR:539:CE2:9848, H-B:TYR:539:N:9842, V-B:PRO:540:CD:9859, V-B:MET:535:CE:9807, V-B:LEU:363:CD1:8160, V-B:PRO:540:CG:9858, V-B:TYR:539:C:9839, V-B:TYR:539:CG:9844, V-B:PRO:540:C:9853, V-B:TYR:539:CD2:9846, V-B:ALA:541:CB:9864, V-A:ASP:366:CA:3210, V-A:ILE:369:CD1:3239, V-B:GLU:543:CG:9879, V-A:ILE:369:CB:3236, V-A:ILE:369:CG2:3237, V-A:LEU:475:CD2:4259, V-A:TYR:484:CZ:4347, V-B:GLU:543:CB:9878, H-A:TYR:484:OH:4348, V-A:GLU:543:CD:4908, V-A:TYR:484:CE2:4346, H-A:ARG:545:NE:4924, V-A:ARG:545:CZ:4926, V-B:GLU:543:CD:9880, V-A:HIS:456:CE1:4070, H-A:ARG:545:NH2:4928, H-A:GLY:454:N:4050, V-B:ILE:538:CG2:9835, V-B:ILE:538:CA:9832, H-A:ASP:366:OD1:3214, H-A:ARG:545:NH1:4927"]

$$$$
4aa_Grossjean_2025
     RDKit          3D

 45 47  0  0  0  0  0  0  0  0999 V2000
  130.4780  127.9470   69.4710 C   0  0  0  0  0  0  0  0  0  0  0  0
  131.6370  127.4540   68.5990 C   0  0  0  0  0  0  0  0  0  0  0  0
  131.2320  126.2920   67.8880 O   0  0  0  0  0  0  0  0  0  0  0  0
  132.0460  125.7130   66.9680 C   0  0  0  0  0  0  0  0  0  0  0  0
  133.2450  125.4880   67.1660 O   0  0  0  0  0  0  0  0  0  0  0  0
  131.3460  125.3770   65.6830 C   0  0  0  0  0  0  0  0  0  0  0  0
  130.2050  124.5640   65.7180 C   0  0  0  0  0  0  0  0  0  0  0  0
  129.5370  124.2310   64.5430 C   0  0  0  0  0  0  0  0  0  0  0  0
  129.9880  124.7100   63.3130 C   0  0  0  0  0  0  0  0  0  0  0  0
  129.2430  124.3040   62.1890 N   0  0  0  0  0  0  0  0  0  0  0  0
  128.1860  123.4610   62.0990 C   0  0  0  0  0  0  0  0  0  0  0  0
  127.7100  122.8440   63.0530 O   0  0  0  0  0  0  0  0  0  0  0  0
  127.6320  123.2940   60.7540 C   0  0  0  0  0  0  0  0  0  0  0  0
  128.5190  122.3780   59.5330 S   0  0  0  0  0  0  0  0  0  0  0  0
  127.2850  122.6910   58.3340 C   0  0  0  0  0  0  0  0  0  0  0  0
  127.3770  122.2230   57.0880 N   0  0  0  0  0  0  0  0  0  0  0  0
  126.3550  122.5420   56.2570 C   0  0  0  0  0  0  0  0  0  0  0  0
  126.4810  122.0050   54.8430 C   0  0  0  0  0  0  0  0  0  0  0  0
  125.2530  123.3050   56.6390 C   0  0  0  0  0  0  0  0  0  0  0  0
  125.1600  123.7930   57.9470 C   0  0  0  0  0  0  0  0  0  0  0  0
  123.9390  124.6210   58.3170 C   0  0  0  0  0  0  0  0  0  0  0  0
  126.2150  123.4830   58.8470 C   0  0  0  0  0  0  0  0  0  0  0  0
  126.4400  123.8170   60.2290 C   0  0  0  0  0  0  0  0  0  0  0  0
  125.5550  124.5770   60.9510 N   0  0  0  0  0  0  0  0  0  0  0  0
  131.1320  125.5190   63.2670 C   0  0  0  0  0  0  0  0  0  0  0  0
  131.8020  125.8490   64.4430 C   0  0  0  0  0  0  0  0  0  0  0  0
  130.7438  127.8339   70.5324 H   0  0  0  0  0  0  0  0  0  0  0  0
  130.2805  129.0070   69.2534 H   0  0  0  0  0  0  0  0  0  0  0  0
  129.5774  127.3541   69.2534 H   0  0  0  0  0  0  0  0  0  0  0  0
  131.9195  128.2414   67.8847 H   0  0  0  0  0  0  0  0  0  0  0  0
  132.4997  127.2121   69.2371 H   0  0  0  0  0  0  0  0  0  0  0  0
  129.8342  124.1858   66.6821 H   0  0  0  0  0  0  0  0  0  0  0  0
  128.6472  123.5856   64.5848 H   0  0  0  0  0  0  0  0  0  0  0  0
  129.5640  124.7000   61.3160 H   0  0  0  0  0  0  0  0  0  0  0  0
  126.7321  120.9346   54.8783 H   0  0  0  0  0  0  0  0  0  0  0  0
  125.5267  122.1404   54.3130 H   0  0  0  0  0  0  0  0  0  0  0  0
  127.2755  122.5508   54.3130 H   0  0  0  0  0  0  0  0  0  0  0  0
  124.4566  123.5235   55.9124 H   0  0  0  0  0  0  0  0  0  0  0  0
  123.8535  124.6790   59.4121 H   0  0  0  0  0  0  0  0  0  0  0  0
  124.0443  125.6348   57.9032 H   0  0  0  0  0  0  0  0  0  0  0  0
  123.0362  124.1481   57.9032 H   0  0  0  0  0  0  0  0  0  0  0  0
  125.5980  124.6320   61.9590 H   0  0  0  0  0  0  0  0  0  0  0  0
  124.8250  125.1080   60.4970 H   0  0  0  0  0  0  0  0  0  0  0  0
  131.5011  125.8938   62.3009 H   0  0  0  0  0  0  0  0  0  0  0  0
  132.6976  126.4861   64.3989 H   0  0  0  0  0  0  0  0  0  0  0  0
  1  2  1  0
  2  3  1  0
  3  4  1  0
  4  5  2  0
  4  6  1  0
  6  7  2  0
  7  8  1  0
  8  9  2  0
  9 10  1  0
 10 11  1  0
 11 12  2  0
 11 13  1  0
 13 14  1  0
 14 15  1  0
 15 16  2  0
 16 17  1  0
 17 18  1  0
 17 19  2  0
 19 20  1  0
 20 21  1  0
 20 22  2  0
 22 23  1  0
 23 24  1  0
  9 25  1  0
 25 26  2  0
 26  6  1  0
 23 13  2  0
 22 15  1  0
  1 27  1  0
  1 28  1  0
  1 29  1  0
  2 30  1  0
  2 31  1  0
  7 32  1  0
  8 33  1  0
 10 34  1  0
 18 35  1  0
 18 36  1  0
 18 37  1  0
 19 38  1  0
 21 39  1  0
 21 40  1  0
 21 41  1  0
 24 42  1  0
 24 43  1  0
 25 44  1  0
 26 45  1  0
M  END
>  <Binding energies>  (1) 
[-7.22]

>  <Ligand effiencies>  (1) 
[-0.2489655172413793]

>  <Interactions>  (1) 
["V-B:PRO:540:N:9856, V-B:PRO:540:CB:9857, V-B:TYR:539:CD1:9845, V-B:PRO:540:CA:9855, V-B:TYR:539:CE2:9848, H-B:TYR:539:N:9842, V-B:ASP:366:CB:8183, V-B:PRO:540:CD:9859, H-B:ASP:366:OD1:8185, V-B:ASP:366:CG:8184, V-B:MET:535:CE:9807, V-B:LEU:363:CD1:8160, V-B:TYR:539:C:9839, H-B:GLU:543:OE1:9881, H-B:ALA:541:N:9863, V-B:TYR:539:CD2:9846, V-B:LEU:363:CA:8156, V-B:TYR:531:CE2:9765, V-B:GLU:543:CG:9879, V-A:TYR:484:CZ:4347, H-A:TYR:484:OH:4348, V-A:GLU:543:CD:4908, V-A:TYR:484:CE2:4346, H-A:ARG:545:NE:4924, V-A:ARG:545:CZ:4926, V-B:GLU:543:CD:9880, V-A:HIS:456:CE1:4070, V-A:GLU:543:C:4902, V-A:GLU:543:CB:4906, V-A:ARG:545:CG:4922, H-A:HIS:456:ND1:4067, V-B:ILE:538:CG2:9835, V-B:ILE:538:CA:9832, V-B:ILE:538:C:9830, V-B:LEU:363:CB:8158, V-B:ILE:538:CB:9834, V-B:ILE:538:CG1:9836"]

$$$$
4ab_Grossjean_2025
     RDKit          3D

 42 44  0  0  0  0  0  0  0  0999 V2000
  130.1290  126.7460   67.8750 C   0  0  0  0  0  0  0  0  0  0  0  0
  131.5470  126.6630   67.8910 O   0  0  0  0  0  0  0  0  0  0  0  0
  132.2030  125.7660   67.1110 C   0  0  0  0  0  0  0  0  0  0  0  0
  133.3570  125.3840   67.3350 O   0  0  0  0  0  0  0  0  0  0  0  0
  131.3890  125.2890   65.9430 C   0  0  0  0  0  0  0  0  0  0  0  0
  131.7340  125.7110   64.6520 C   0  0  0  0  0  0  0  0  0  0  0  0
  130.9970  125.2870   63.5490 C   0  0  0  0  0  0  0  0  0  0  0  0
  129.9100  124.4290   63.7110 C   0  0  0  0  0  0  0  0  0  0  0  0
  129.2340  124.0710   62.5300 N   0  0  0  0  0  0  0  0  0  0  0  0
  128.1740  123.2460   62.3460 C   0  0  0  0  0  0  0  0  0  0  0  0
  127.6270  122.6090   63.2460 O   0  0  0  0  0  0  0  0  0  0  0  0
  127.7070  123.1290   60.9630 C   0  0  0  0  0  0  0  0  0  0  0  0
  128.6460  122.2120   59.7810 S   0  0  0  0  0  0  0  0  0  0  0  0
  127.5060  122.5910   58.5100 C   0  0  0  0  0  0  0  0  0  0  0  0
  127.6680  122.1520   57.2620 N   0  0  0  0  0  0  0  0  0  0  0  0
  126.7140  122.5190   56.3720 C   0  0  0  0  0  0  0  0  0  0  0  0
  126.9200  122.0120   54.9570 C   0  0  0  0  0  0  0  0  0  0  0  0
  125.6110  123.3050   56.6990 C   0  0  0  0  0  0  0  0  0  0  0  0
  125.4440  123.7660   58.0100 C   0  0  0  0  0  0  0  0  0  0  0  0
  124.2250  124.6220   58.3170 C   0  0  0  0  0  0  0  0  0  0  0  0
  126.4270  123.4040   58.9710 C   0  0  0  0  0  0  0  0  0  0  0  0
  126.5700  123.7010   60.3710 C   0  0  0  0  0  0  0  0  0  0  0  0
  125.6630  124.4730   61.0520 N   0  0  0  0  0  0  0  0  0  0  0  0
  129.5540  124.0050   65.0000 C   0  0  0  0  0  0  0  0  0  0  0  0
  130.2900  124.4310   66.1030 C   0  0  0  0  0  0  0  0  0  0  0  0
  129.7513  126.7681   68.9079 H   0  0  0  0  0  0  0  0  0  0  0  0
  129.8213  127.6637   67.3524 H   0  0  0  0  0  0  0  0  0  0  0  0
  129.7163  125.8705   67.3524 H   0  0  0  0  0  0  0  0  0  0  0  0
  132.5935  126.3823   64.5087 H   0  0  0  0  0  0  0  0  0  0  0  0
  131.2747  125.6318   62.5420 H   0  0  0  0  0  0  0  0  0  0  0  0
  129.6140  124.4890   61.6940 H   0  0  0  0  0  0  0  0  0  0  0  0
  127.3339  120.9933   54.9891 H   0  0  0  0  0  0  0  0  0  0  0  0
  125.9557  121.9994   54.4280 H   0  0  0  0  0  0  0  0  0  0  0  0
  127.6198  122.6756   54.4280 H   0  0  0  0  0  0  0  0  0  0  0  0
  124.8714  123.5633   55.9268 H   0  0  0  0  0  0  0  0  0  0  0  0
  124.1024  124.7081   59.4068 H   0  0  0  0  0  0  0  0  0  0  0  0
  124.3616  125.6236   57.8831 H   0  0  0  0  0  0  0  0  0  0  0  0
  123.3293  124.1535   57.8831 H   0  0  0  0  0  0  0  0  0  0  0  0
  124.9670  125.0250   60.5730 H   0  0  0  0  0  0  0  0  0  0  0  0
  125.6660  124.5180   62.0620 H   0  0  0  0  0  0  0  0  0  0  0  0
  128.6926  123.3353   65.1397 H   0  0  0  0  0  0  0  0  0  0  0  0
  130.0069  124.0914   67.1102 H   0  0  0  0  0  0  0  0  0  0  0  0
  1  2  1  0
  2  3  1  0
  3  4  2  0
  3  5  1  0
  5  6  2  0
  6  7  1  0
  7  8  2  0
  8  9  1  0
  9 10  1  0
 10 11  2  0
 10 12  1  0
 12 13  1  0
 13 14  1  0
 14 15  2  0
 15 16  1  0
 16 17  1  0
 16 18  2  0
 18 19  1  0
 19 20  1  0
 19 21  2  0
 21 22  1  0
 22 23  1  0
  8 24  1  0
 24 25  2  0
 25  5  1  0
 22 12  2  0
 21 14  1  0
  1 26  1  0
  1 27  1  0
  1 28  1  0
  6 29  1  0
  7 30  1  0
  9 31  1  0
 17 32  1  0
 17 33  1  0
 17 34  1  0
 18 35  1  0
 20 36  1  0
 20 37  1  0
 20 38  1  0
 23 39  1  0
 23 40  1  0
 24 41  1  0
 25 42  1  0
M  END
>  <Binding energies>  (1) 
[-7.58]

>  <Ligand effiencies>  (1) 
[-0.27071428571428574]

>  <Interactions>  (1) 
["V-B:PRO:540:N:9856, V-B:TYR:539:CE1:9847, V-B:PRO:540:CB:9857, V-B:TYR:539:CD1:9845, V-B:PRO:540:CA:9855, V-B:TYR:539:CE2:9848, H-B:TYR:539:N:9842, V-B:ASP:366:CB:8183, V-B:PRO:540:CD:9859, H-B:ASP:366:OD1:8185, V-B:ASP:366:CG:8184, V-B:MET:535:CE:9807, V-B:LEU:363:CD1:8160, V-B:TYR:539:C:9839, H-B:GLU:543:OE1:9881, H-B:ALA:541:N:9863, V-B:TYR:539:CD2:9846, V-B:LEU:363:CA:8156, V-B:TYR:531:CE2:9765, V-B:ALA:541:CB:9864, V-B:GLU:543:CG:9879, V-A:TYR:484:CZ:4347, V-B:GLU:543:CB:9878, H-A:TYR:484:OH:4348, V-A:GLU:543:CD:4908, V-A:TYR:484:CE2:4346, H-A:ARG:545:NE:4924, V-A:ARG:545:CZ:4926, V-B:GLU:543:CD:9880, V-A:HIS:456:CE1:4070, V-A:GLU:543:CB:4906, V-A:ARG:545:CG:4922, H-A:HIS:456:ND1:4067, V-B:ILE:538:CG2:9835, V-B:ILE:538:CA:9832, V-B:ILE:538:C:9830, V-A:ARG:545:CD:4923, V-B:ILE:538:CB:9834, V-B:ILE:538:CG1:9836"]

$$$$
4ac_Grossjean_2025
     RDKit          3D

 40 42  0  0  0  0  0  0  0  0999 V2000
  129.9000  127.1300   68.2000 C   0  0  0  0  0  0  0  0  0  0  0  0
  130.7120  126.1700   67.5320 O   0  0  0  0  0  0  0  0  0  0  0  0
  130.2690  125.6220   66.3440 C   0  0  0  0  0  0  0  0  0  0  0  0
  129.6070  126.4820   65.4700 C   0  0  0  0  0  0  0  0  0  0  0  0
  129.1250  126.0190   64.2480 C   0  0  0  0  0  0  0  0  0  0  0  0
  129.3080  124.6860   63.8810 C   0  0  0  0  0  0  0  0  0  0  0  0
  128.7760  124.3050   62.6350 N   0  0  0  0  0  0  0  0  0  0  0  0
  127.8070  123.4010   62.3570 C   0  0  0  0  0  0  0  0  0  0  0  0
  127.2390  122.7150   63.2100 O   0  0  0  0  0  0  0  0  0  0  0  0
  127.4590  123.2680   60.9400 C   0  0  0  0  0  0  0  0  0  0  0  0
  128.5060  122.3640   59.8460 S   0  0  0  0  0  0  0  0  0  0  0  0
  127.4480  122.6850   58.4910 C   0  0  0  0  0  0  0  0  0  0  0  0
  127.7110  122.2290   57.2660 N   0  0  0  0  0  0  0  0  0  0  0  0
  126.8100  122.5490   56.3050 C   0  0  0  0  0  0  0  0  0  0  0  0
  127.1270  122.0200   54.9190 C   0  0  0  0  0  0  0  0  0  0  0  0
  125.6660  123.3110   56.5380 C   0  0  0  0  0  0  0  0  0  0  0  0
  125.3940  123.7890   57.8250 C   0  0  0  0  0  0  0  0  0  0  0  0
  124.1330  124.6140   58.0290 C   0  0  0  0  0  0  0  0  0  0  0  0
  126.3150  123.4700   58.8590 C   0  0  0  0  0  0  0  0  0  0  0  0
  126.3440  123.7870   60.2620 C   0  0  0  0  0  0  0  0  0  0  0  0
  125.3630  124.5330   60.8640 N   0  0  0  0  0  0  0  0  0  0  0  0
  129.9620  123.8100   64.7600 C   0  0  0  0  0  0  0  0  0  0  0  0
  130.4420  124.2770   65.9810 C   0  0  0  0  0  0  0  0  0  0  0  0
  130.0051  127.0057   69.2879 H   0  0  0  0  0  0  0  0  0  0  0  0
  130.2195  128.1430   67.9141 H   0  0  0  0  0  0  0  0  0  0  0  0
  128.8480  126.9830   67.9141 H   0  0  0  0  0  0  0  0  0  0  0  0
  129.4637  127.5367   65.7478 H   0  0  0  0  0  0  0  0  0  0  0  0
  128.5983  126.7069   63.5702 H   0  0  0  0  0  0  0  0  0  0  0  0
  129.2090  124.7530   61.8400 H   0  0  0  0  0  0  0  0  0  0  0  0
  127.6907  121.0794   55.0056 H   0  0  0  0  0  0  0  0  0  0  0  0
  126.1897  121.8369   54.3732 H   0  0  0  0  0  0  0  0  0  0  0  0
  127.7305  122.7602   54.3732 H   0  0  0  0  0  0  0  0  0  0  0  0
  124.9773  123.5365   55.7105 H   0  0  0  0  0  0  0  0  0  0  0  0
  123.9454  124.7368   59.1059 H   0  0  0  0  0  0  0  0  0  0  0  0
  124.2624  125.6026   57.5643 H   0  0  0  0  0  0  0  0  0  0  0  0
  123.2790  124.0994   57.5643 H   0  0  0  0  0  0  0  0  0  0  0  0
  124.6450  125.0000   60.3310 H   0  0  0  0  0  0  0  0  0  0  0  0
  125.3260  124.6370   61.8690 H   0  0  0  0  0  0  0  0  0  0  0  0
  130.0958  122.7535   64.4846 H   0  0  0  0  0  0  0  0  0  0  0  0
  130.9596  123.5882   66.6648 H   0  0  0  0  0  0  0  0  0  0  0  0
  1  2  1  0
  2  3  1  0
  3  4  2  0
  4  5  1  0
  5  6  2  0
  6  7  1  0
  7  8  1  0
  8  9  2  0
  8 10  1  0
 10 11  1  0
 11 12  1  0
 12 13  2  0
 13 14  1  0
 14 15  1  0
 14 16  2  0
 16 17  1  0
 17 18  1  0
 17 19  2  0
 19 20  1  0
 20 21  1  0
  6 22  1  0
 22 23  2  0
 23  3  1  0
 20 10  2  0
 19 12  1  0
  1 24  1  0
  1 25  1  0
  1 26  1  0
  4 27  1  0
  5 28  1  0
  7 29  1  0
 15 30  1  0
 15 31  1  0
 15 32  1  0
 16 33  1  0
 18 34  1  0
 18 35  1  0
 18 36  1  0
 21 37  1  0
 21 38  1  0
 22 39  1  0
 23 40  1  0
M  END
>  <Binding energies>  (1) 
[-7.19]

>  <Ligand effiencies>  (1) 
[-0.27653846153846157]

>  <Interactions>  (1) 
["V-B:PRO:540:N:9856, V-B:TYR:539:CE1:9847, V-B:PRO:540:CB:9857, V-B:TYR:539:CD1:9845, V-B:PRO:540:CA:9855, V-B:TYR:539:CE2:9848, H-B:TYR:539:N:9842, V-B:ASP:366:CB:8183, H-B:ASP:366:OD1:8185, V-B:ASP:366:CG:8184, V-B:MET:535:CE:9807, V-B:LEU:363:CD1:8160, V-B:TYR:539:C:9839, V-B:TYR:539:CG:9844, H-B:GLU:543:OE1:9881, H-B:ALA:541:N:9863, V-B:TYR:539:CD2:9846, V-B:LEU:363:CA:8156, V-B:TYR:531:CE2:9765, V-B:GLU:543:CG:9879, V-A:TYR:484:CZ:4347, V-A:GLU:543:CD:4908, V-A:TYR:484:CE2:4346, V-B:GLU:543:CD:9880, V-A:HIS:456:CE1:4070, V-A:GLU:543:CB:4906, V-B:ILE:538:CG2:9835, V-B:ILE:538:CA:9832, V-B:ILE:538:C:9830, V-B:ILE:538:CB:9834"]

$$$$
4ad_Grossjean_2025
     RDKit          3D

 36 38  0  0  0  0  0  0  0  0999 V2000
  126.8940  122.0020   55.0410 C   0  0  0  0  0  0  0  0  0  0  0  0
  126.6990  122.5260   56.4520 C   0  0  0  0  0  0  0  0  0  0  0  0
  125.5560  123.2410   56.8010 C   0  0  0  0  0  0  0  0  0  0  0  0
  125.3990  123.7160   58.1090 C   0  0  0  0  0  0  0  0  0  0  0  0
  124.1350  124.4940   58.4410 C   0  0  0  0  0  0  0  0  0  0  0  0
  126.4350  123.4430   59.0420 C   0  0  0  0  0  0  0  0  0  0  0  0
  126.5990  123.7710   60.4330 C   0  0  0  0  0  0  0  0  0  0  0  0
  125.6540  124.4770   61.1340 N   0  0  0  0  0  0  0  0  0  0  0  0
  127.7990  123.3040   60.9920 C   0  0  0  0  0  0  0  0  0  0  0  0
  128.2930  123.4700   62.3600 C   0  0  0  0  0  0  0  0  0  0  0  0
  127.7080  122.9410   63.3080 O   0  0  0  0  0  0  0  0  0  0  0  0
  129.4150  124.2200   62.4860 N   0  0  0  0  0  0  0  0  0  0  0  0
  130.1120  124.6020   63.6490 C   0  0  0  0  0  0  0  0  0  0  0  0
  131.5060  124.6070   63.5520 C   0  0  0  0  0  0  0  0  0  0  0  0
  132.2840  124.9800   64.6450 C   0  0  0  0  0  0  0  0  0  0  0  0
  131.6670  125.3570   65.8340 C   0  0  0  0  0  0  0  0  0  0  0  0
  130.2780  125.3700   65.9390 C   0  0  0  0  0  0  0  0  0  0  0  0
  129.4980  124.9960   64.8490 C   0  0  0  0  0  0  0  0  0  0  0  0
  128.7620  122.4330   59.7960 S   0  0  0  0  0  0  0  0  0  0  0  0
  127.5550  122.7010   58.5590 C   0  0  0  0  0  0  0  0  0  0  0  0
  127.7070  122.2460   57.3140 N   0  0  0  0  0  0  0  0  0  0  0  0
  127.2774  120.9718   55.0822 H   0  0  0  0  0  0  0  0  0  0  0  0
  125.9312  122.0140   54.5091 H   0  0  0  0  0  0  0  0  0  0  0  0
  127.6147  122.6405   54.5091 H   0  0  0  0  0  0  0  0  0  0  0  0
  124.7763  123.4327   56.0491 H   0  0  0  0  0  0  0  0  0  0  0  0
  124.0231  124.5629   59.5331 H   0  0  0  0  0  0  0  0  0  0  0  0
  124.2047  125.5058   58.0150 H   0  0  0  0  0  0  0  0  0  0  0  0
  123.2631  123.9760   58.0150 H   0  0  0  0  0  0  0  0  0  0  0  0
  124.9220  124.9950   60.6710 H   0  0  0  0  0  0  0  0  0  0  0  0
  125.6580  124.4980   62.1450 H   0  0  0  0  0  0  0  0  0  0  0  0
  129.8310  124.5450   61.6250 H   0  0  0  0  0  0  0  0  0  0  0  0
  131.9906  124.3152   62.6086 H   0  0  0  0  0  0  0  0  0  0  0  0
  133.3814  124.9767   64.5689 H   0  0  0  0  0  0  0  0  0  0  0  0
  132.2817  125.6474   66.6988 H   0  0  0  0  0  0  0  0  0  0  0  0
  129.7990  125.6751   66.8811 H   0  0  0  0  0  0  0  0  0  0  0  0
  128.4009  125.0090   64.9273 H   0  0  0  0  0  0  0  0  0  0  0  0
  1  2  1  0
  2  3  2  0
  3  4  1  0
  4  5  1  0
  4  6  2  0
  6  7  1  0
  7  8  1  0
  7  9  2  0
  9 10  1  0
 10 11  2  0
 10 12  1  0
 12 13  1  0
 13 14  2  0
 14 15  1  0
 15 16  2  0
 16 17  1  0
 17 18  2  0
  9 19  1  0
 19 20  1  0
 20 21  2  0
 21  2  1  0
 20  6  1  0
 18 13  1  0
  1 22  1  0
  1 23  1  0
  1 24  1  0
  3 25  1  0
  5 26  1  0
  5 27  1  0
  5 28  1  0
  8 29  1  0
  8 30  1  0
 12 31  1  0
 14 32  1  0
 15 33  1  0
 16 34  1  0
 17 35  1  0
 18 36  1  0
M  END
>  <Binding energies>  (1) 
[-7.36]

>  <Ligand effiencies>  (1) 
[-0.3066666666666667]

>  <Interactions>  (1) 
["V-B:PRO:540:N:9856, V-B:TYR:539:CE1:9847, V-B:PRO:540:CB:9857, V-B:TYR:539:CD1:9845, V-B:PRO:540:CA:9855, V-B:TYR:539:CE2:9848, H-B:TYR:539:N:9842, V-B:ASP:366:CB:8183, V-B:PRO:540:CD:9859, H-B:ASP:366:OD1:8185, V-B:ASP:366:CG:8184, V-B:MET:535:CE:9807, V-B:LEU:363:CD1:8160, V-B:TYR:539:C:9839, H-B:GLU:543:OE1:9881, H-B:ALA:541:N:9863, V-B:TYR:539:CD2:9846, V-B:LEU:363:CA:8156, V-B:GLU:543:CG:9879, V-B:GLU:543:CB:9878, V-A:ARG:545:CZ:4926, V-B:GLU:543:CD:9880, V-B:ILE:538:CG2:9835, V-B:ILE:538:CA:9832, V-B:ILE:538:C:9830, V-B:ILE:538:CB:9834, V-B:ILE:538:CG1:9836"]

$$$$
4ae_Grossjean_2025
     RDKit          3D

 38 40  0  0  0  0  0  0  0  0999 V2000
  129.5230  125.7340   67.0490 C   0  0  0  0  0  0  0  0  0  0  0  0
  130.2860  125.3180   65.8060 C   0  0  0  0  0  0  0  0  0  0  0  0
  131.6820  125.3070   65.7750 C   0  0  0  0  0  0  0  0  0  0  0  0
  132.3160  124.9200   64.5940 C   0  0  0  0  0  0  0  0  0  0  0  0
  131.5480  124.5600   63.4850 C   0  0  0  0  0  0  0  0  0  0  0  0
  130.1530  124.5860   63.5860 C   0  0  0  0  0  0  0  0  0  0  0  0
  129.4350  124.2330   62.4310 N   0  0  0  0  0  0  0  0  0  0  0  0
  128.3300  123.4530   62.3240 C   0  0  0  0  0  0  0  0  0  0  0  0
  127.7780  122.9110   63.2830 O   0  0  0  0  0  0  0  0  0  0  0  0
  127.8130  123.2800   60.9650 C   0  0  0  0  0  0  0  0  0  0  0  0
  128.7540  122.3990   59.7600 S   0  0  0  0  0  0  0  0  0  0  0  0
  127.5390  122.6810   58.5350 C   0  0  0  0  0  0  0  0  0  0  0  0
  127.6760  122.2280   57.2880 N   0  0  0  0  0  0  0  0  0  0  0  0
  126.6650  122.5200   56.4350 C   0  0  0  0  0  0  0  0  0  0  0  0
  126.8440  122.0010   55.0190 C   0  0  0  0  0  0  0  0  0  0  0  0
  125.5300  123.2440   56.7960 C   0  0  0  0  0  0  0  0  0  0  0  0
  125.3890  123.7160   58.1060 C   0  0  0  0  0  0  0  0  0  0  0  0
  124.1350  124.5050   58.4510 C   0  0  0  0  0  0  0  0  0  0  0  0
  126.4310  123.4320   59.0300 C   0  0  0  0  0  0  0  0  0  0  0  0
  126.6110  123.7590   60.4190 C   0  0  0  0  0  0  0  0  0  0  0  0
  125.6830  124.4770   61.1300 N   0  0  0  0  0  0  0  0  0  0  0  0
  129.5260  124.9700   64.7370 N   0  0  0  0  0  0  0  0  0  0  0  0
  130.0848  125.4277   67.9437 H   0  0  0  0  0  0  0  0  0  0  0  0
  129.3953  126.8266   67.0524 H   0  0  0  0  0  0  0  0  0  0  0  0
  128.5355  125.2494   67.0524 H   0  0  0  0  0  0  0  0  0  0  0  0
  132.2675  125.5964   66.6601 H   0  0  0  0  0  0  0  0  0  0  0  0
  133.4143  124.8986   64.5369 H   0  0  0  0  0  0  0  0  0  0  0  0
  132.0333  124.2600   62.5445 H   0  0  0  0  0  0  0  0  0  0  0  0
  129.8320  124.5700   61.5670 H   0  0  0  0  0  0  0  0  0  0  0  0
  127.2025  120.9616   55.0520 H   0  0  0  0  0  0  0  0  0  0  0  0
  125.8805  122.0399   54.4897 H   0  0  0  0  0  0  0  0  0  0  0  0
  127.5786  122.6256   54.4897 H   0  0  0  0  0  0  0  0  0  0  0  0
  124.7454  123.4443   56.0516 H   0  0  0  0  0  0  0  0  0  0  0  0
  124.0318  124.5699   59.5442 H   0  0  0  0  0  0  0  0  0  0  0  0
  124.2115  125.5180   58.0291 H   0  0  0  0  0  0  0  0  0  0  0  0
  123.2549  123.9976   58.0291 H   0  0  0  0  0  0  0  0  0  0  0  0
  125.6910  124.5070   62.1400 H   0  0  0  0  0  0  0  0  0  0  0  0
  124.9570  125.0030   60.6630 H   0  0  0  0  0  0  0  0  0  0  0  0
  1  2  1  0
  2  3  2  0
  3  4  1  0
  4  5  2  0
  5  6  1  0
  6  7  1  0
  7  8  1  0
  8  9  2  0
  8 10  1  0
 10 11  1  0
 11 12  1  0
 12 13  2  0
 13 14  1  0
 14 15  1  0
 14 16  2  0
 16 17  1  0
 17 18  1  0
 17 19  2  0
 19 20  1  0
 20 21  1  0
  6 22  2  0
 22  2  1  0
 20 10  2  0
 19 12  1  0
  1 23  1  0
  1 24  1  0
  1 25  1  0
  3 26  1  0
  4 27  1  0
  5 28  1  0
  7 29  1  0
 15 30  1  0
 15 31  1  0
 15 32  1  0
 16 33  1  0
 18 34  1  0
 18 35  1  0
 18 36  1  0
 21 37  1  0
 21 38  1  0
M  END
>  <Binding energies>  (1) 
[-7.62]

>  <Ligand effiencies>  (1) 
[-0.3048]

>  <Interactions>  (1) 
["V-B:PRO:540:N:9856, V-B:TYR:539:CE1:9847, V-B:PRO:540:CB:9857, V-B:TYR:539:CD1:9845, V-B:PRO:540:CA:9855, V-B:TYR:539:CE2:9848, H-B:TYR:539:N:9842, V-B:ASP:366:CB:8183, V-B:PRO:540:CD:9859, H-B:ASP:366:OD1:8185, V-B:ASP:366:CG:8184, V-B:MET:535:CE:9807, V-B:LEU:363:CD1:8160, V-B:TYR:539:C:9839, H-B:GLU:543:OE1:9881, H-B:ALA:541:N:9863, V-B:TYR:539:CD2:9846, V-B:LEU:363:CA:8156, V-B:GLU:543:CG:9879, V-B:GLU:543:CB:9878, V-A:ARG:545:CZ:4926, V-B:GLU:543:CD:9880, V-A:HIS:456:CE1:4070, V-B:GLU:543:CA:9876, V-B:ILE:538:CG2:9835, V-B:ILE:538:CA:9832, V-B:ILE:538:C:9830, V-B:ILE:538:CB:9834, V-B:ILE:538:CG1:9836"]

$$$$
4af_Grossjean_2025
     RDKit          3D

 35 37  0  0  0  0  0  0  0  0999 V2000
  126.8700  122.0100   55.0160 C   0  0  0  0  0  0  0  0  0  0  0  0
  126.7000  122.5350   56.4300 C   0  0  0  0  0  0  0  0  0  0  0  0
  125.5730  123.2710   56.7910 C   0  0  0  0  0  0  0  0  0  0  0  0
  125.4380  123.7460   58.1010 C   0  0  0  0  0  0  0  0  0  0  0  0
  124.1930  124.5460   58.4470 C   0  0  0  0  0  0  0  0  0  0  0  0
  126.4790  123.4520   59.0240 C   0  0  0  0  0  0  0  0  0  0  0  0
  126.6630  123.7780   60.4130 C   0  0  0  0  0  0  0  0  0  0  0  0
  125.7420  124.5070   61.1220 N   0  0  0  0  0  0  0  0  0  0  0  0
  127.8580  123.2840   60.9600 C   0  0  0  0  0  0  0  0  0  0  0  0
  128.3750  123.4520   62.3200 C   0  0  0  0  0  0  0  0  0  0  0  0
  127.7660  122.9860   63.2840 O   0  0  0  0  0  0  0  0  0  0  0  0
  129.5460  124.1260   62.4160 N   0  0  0  0  0  0  0  0  0  0  0  0
  130.2770  124.4950   63.5610 C   0  0  0  0  0  0  0  0  0  0  0  0
  129.7820  124.4980   64.8780 C   0  0  0  0  0  0  0  0  0  0  0  0
  130.6100  124.9050   65.9260 C   0  0  0  0  0  0  0  0  0  0  0  0
  131.9140  125.3040   65.6320 C   0  0  0  0  0  0  0  0  0  0  0  0
  132.4130  125.3170   64.3700 N   0  0  0  0  0  0  0  0  0  0  0  0
  131.5960  124.9200   63.3620 C   0  0  0  0  0  0  0  0  0  0  0  0
  128.7930  122.3970   59.7540 S   0  0  0  0  0  0  0  0  0  0  0  0
  127.5790  122.6900   58.5290 C   0  0  0  0  0  0  0  0  0  0  0  0
  127.7100  122.2340   57.2830 N   0  0  0  0  0  0  0  0  0  0  0  0
  127.2087  120.9640   55.0515 H   0  0  0  0  0  0  0  0  0  0  0  0
  125.9078  122.0661   54.4859 H   0  0  0  0  0  0  0  0  0  0  0  0
  127.6167  122.6194   54.4859 H   0  0  0  0  0  0  0  0  0  0  0  0
  124.7899  123.4786   56.0470 H   0  0  0  0  0  0  0  0  0  0  0  0
  124.0913  124.6114   59.5403 H   0  0  0  0  0  0  0  0  0  0  0  0
  124.2788  125.5584   58.0255 H   0  0  0  0  0  0  0  0  0  0  0  0
  123.3078  124.0472   58.0255 H   0  0  0  0  0  0  0  0  0  0  0  0
  125.0110  125.0340   60.6650 H   0  0  0  0  0  0  0  0  0  0  0  0
  125.7630  124.5360   62.1330 H   0  0  0  0  0  0  0  0  0  0  0  0
  129.9710  124.4060   61.5430 H   0  0  0  0  0  0  0  0  0  0  0  0
  128.7483  124.1814   65.0809 H   0  0  0  0  0  0  0  0  0  0  0  0
  130.2416  124.9109   66.9624 H   0  0  0  0  0  0  0  0  0  0  0  0
  132.5661  125.6219   66.4589 H   0  0  0  0  0  0  0  0  0  0  0  0
  131.9905  124.9328   62.3353 H   0  0  0  0  0  0  0  0  0  0  0  0
  1  2  1  0
  2  3  2  0
  3  4  1  0
  4  5  1  0
  4  6  2  0
  6  7  1  0
  7  8  1  0
  7  9  2  0
  9 10  1  0
 10 11  2  0
 10 12  1  0
 12 13  1  0
 13 14  2  0
 14 15  1  0
 15 16  2  0
 16 17  1  0
 17 18  2  0
  9 19  1  0
 19 20  1  0
 20 21  2  0
 21  2  1  0
 20  6  1  0
 18 13  1  0
  1 22  1  0
  1 23  1  0
  1 24  1  0
  3 25  1  0
  5 26  1  0
  5 27  1  0
  5 28  1  0
  8 29  1  0
  8 30  1  0
 12 31  1  0
 14 32  1  0
 15 33  1  0
 16 34  1  0
 18 35  1  0
M  END
>  <Binding energies>  (1) 
[-7.09]

>  <Ligand effiencies>  (1) 
[-0.29541666666666666]

>  <Interactions>  (1) 
["V-B:PRO:540:N:9856, V-B:TYR:539:CE1:9847, V-B:PRO:540:CB:9857, V-B:TYR:539:CD1:9845, V-B:PRO:540:CA:9855, V-B:TYR:539:CE2:9848, H-B:TYR:539:N:9842, V-B:ASP:366:CB:8183, V-B:PRO:540:CD:9859, H-B:ASP:366:OD1:8185, V-B:ASP:366:CG:8184, V-B:MET:535:CE:9807, V-B:LEU:363:CD1:8160, V-B:TYR:539:C:9839, H-B:GLU:543:OE1:9881, H-B:ALA:541:N:9863, V-B:TYR:539:CD2:9846, V-B:LEU:363:CA:8156, V-B:GLU:543:CG:9879, V-A:TYR:484:CZ:4347, H-A:TYR:484:OH:4348, V-A:TYR:484:CE2:4346, H-A:ARG:545:NE:4924, V-B:GLU:543:CD:9880, H-A:ARG:545:NH2:4928, V-B:ILE:538:CG2:9835, V-B:ILE:538:CA:9832, V-B:ILE:538:C:9830, V-B:ILE:538:CB:9834, V-B:ILE:538:CG1:9836"]

$$$$
4ag_Grossjean_2025
     RDKit          3D

 39 41  0  0  0  0  0  0  0  0999 V2000
  127.3350  122.3660   54.9910 C   0  0  0  0  0  0  0  0  0  0  0  0
  126.9690  122.7510   56.4120 C   0  0  0  0  0  0  0  0  0  0  0  0
  125.8110  123.4780   56.6820 C   0  0  0  0  0  0  0  0  0  0  0  0
  125.4920  123.8220   58.0010 C   0  0  0  0  0  0  0  0  0  0  0  0
  124.2170  124.6160   58.2450 C   0  0  0  0  0  0  0  0  0  0  0  0
  126.3800  123.4060   59.0280 C   0  0  0  0  0  0  0  0  0  0  0  0
  126.3610  123.5810   60.4550 C   0  0  0  0  0  0  0  0  0  0  0  0
  125.3550  124.2580   61.0980 N   0  0  0  0  0  0  0  0  0  0  0  0
  127.4570  123.0040   61.1140 C   0  0  0  0  0  0  0  0  0  0  0  0
  127.7470  122.9830   62.5470 C   0  0  0  0  0  0  0  0  0  0  0  0
  126.8650  122.7530   63.3780 O   0  0  0  0  0  0  0  0  0  0  0  0
  129.0230  123.2460   62.8990 N   0  0  0  0  0  0  0  0  0  0  0  0
  129.5420  123.2520   64.2660 C   0  0  0  0  0  0  0  0  0  0  0  0
  130.9330  123.8620   64.3980 C   0  0  0  0  0  0  0  0  0  0  0  0
  131.1800  124.8220   65.3840 C   0  0  0  0  0  0  0  0  0  0  0  0
  132.4560  125.3630   65.5220 C   0  0  0  0  0  0  0  0  0  0  0  0
  133.4830  124.9340   64.6830 C   0  0  0  0  0  0  0  0  0  0  0  0
  133.2460  123.9660   63.7090 C   0  0  0  0  0  0  0  0  0  0  0  0
  131.9710  123.4250   63.5710 C   0  0  0  0  0  0  0  0  0  0  0  0
  128.5440  122.2110   59.9740 S   0  0  0  0  0  0  0  0  0  0  0  0
  127.5310  122.6660   58.6220 C   0  0  0  0  0  0  0  0  0  0  0  0
  127.8380  122.3360   57.3660 N   0  0  0  0  0  0  0  0  0  0  0  0
  128.0928  121.5689   55.0107 H   0  0  0  0  0  0  0  0  0  0  0  0
  126.4379  122.0062   54.4660 H   0  0  0  0  0  0  0  0  0  0  0  0
  127.7397  123.2438   54.4660 H   0  0  0  0  0  0  0  0  0  0  0  0
  125.1477  123.7815   55.8587 H   0  0  0  0  0  0  0  0  0  0  0  0
  124.0509  124.7194   59.3275 H   0  0  0  0  0  0  0  0  0  0  0  0
  124.3140  125.6137   57.7920 H   0  0  0  0  0  0  0  0  0  0  0  0
  123.3644  124.0889   57.7920 H   0  0  0  0  0  0  0  0  0  0  0  0
  125.3000  124.2980   62.1060 H   0  0  0  0  0  0  0  0  0  0  0  0
  124.6360  124.7450   60.5810 H   0  0  0  0  0  0  0  0  0  0  0  0
  129.7050  123.3680   62.1640 H   0  0  0  0  0  0  0  0  0  0  0  0
  128.8497  123.8294   64.8964 H   0  0  0  0  0  0  0  0  0  0  0  0
  129.6240  122.2010   64.5801 H   0  0  0  0  0  0  0  0  0  0  0  0
  130.3679  125.1495   66.0497 H   0  0  0  0  0  0  0  0  0  0  0  0
  132.6524  126.1257   66.2899 H   0  0  0  0  0  0  0  0  0  0  0  0
  134.4899  125.3635   64.7907 H   0  0  0  0  0  0  0  0  0  0  0  0
  134.0625  123.6311   63.0524 H   0  0  0  0  0  0  0  0  0  0  0  0
  131.7805  122.6532   62.8107 H   0  0  0  0  0  0  0  0  0  0  0  0
  1  2  1  0
  2  3  2  0
  3  4  1  0
  4  5  1  0
  4  6  2  0
  6  7  1  0
  7  8  1  0
  7  9  2  0
  9 10  1  0
 10 11  2  0
 10 12  1  0
 12 13  1  0
 13 14  1  0
 14 15  2  0
 15 16  1  0
 16 17  2  0
 17 18  1  0
 18 19  2  0
  9 20  1  0
 20 21  1  0
 21 22  2  0
 22  2  1  0
 21  6  1  0
 19 14  1  0
  1 23  1  0
  1 24  1  0
  1 25  1  0
  3 26  1  0
  5 27  1  0
  5 28  1  0
  5 29  1  0
  8 30  1  0
  8 31  1  0
 12 32  1  0
 13 33  1  0
 13 34  1  0
 15 35  1  0
 16 36  1  0
 17 37  1  0
 18 38  1  0
 19 39  1  0
M  END
>  <Binding energies>  (1) 
[-7.73]

>  <Ligand effiencies>  (1) 
[-0.30920000000000003]

>  <Interactions>  (1) 
["V-B:TYR:539:CZ:9849, V-B:PRO:540:N:9856, V-B:TYR:539:CE1:9847, V-B:PRO:540:CB:9857, V-B:TYR:539:CD1:9845, V-B:PRO:540:CA:9855, V-B:TYR:539:CE2:9848, H-B:TYR:539:N:9842, V-B:ASP:366:CB:8183, H-B:ASP:366:OD1:8185, V-B:ASP:366:CG:8184, V-B:MET:535:CE:9807, V-B:LEU:363:CD1:8160, V-B:TYR:539:C:9839, V-B:TYR:539:CG:9844, H-B:GLU:543:OE1:9881, V-B:PRO:540:C:9853, H-B:ALA:541:N:9863, V-B:TYR:539:CD2:9846, V-B:LEU:363:CA:8156, V-B:TYR:531:CE2:9765, V-B:ALA:541:CB:9864, V-B:GLU:543:CG:9879, V-A:LEU:475:CD2:4259, V-A:TYR:484:CZ:4347, V-A:GLY:454:CA:4049, V-A:ARG:545:CZ:4926, V-B:GLU:543:CD:9880, V-B:ALA:541:CA:9862, V-B:ILE:538:CA:9832, V-B:ILE:538:C:9830"]

$$$$
4ah_Grossjean_2025
     RDKit          3D

 51 53  0  0  0  0  0  0  0  0999 V2000
  127.1980  128.6670   62.9350 C   0  0  0  0  0  0  0  0  0  0  0  0
  128.2730  128.7910   63.8600 O   0  0  0  0  0  0  0  0  0  0  0  0
  128.7200  127.6690   64.5360 C   0  0  0  0  0  0  0  0  0  0  0  0
  129.1390  126.4890   63.9040 C   0  0  0  0  0  0  0  0  0  0  0  0
  129.5770  125.3940   64.6510 C   0  0  0  0  0  0  0  0  0  0  0  0
  130.0720  124.1370   63.9450 C   0  0  0  0  0  0  0  0  0  0  0  0
  129.4310  123.9010   62.6520 N   0  0  0  0  0  0  0  0  0  0  0  0
  128.2270  123.3190   62.4710 C   0  0  0  0  0  0  0  0  0  0  0  0
  127.5510  122.8860   63.4050 O   0  0  0  0  0  0  0  0  0  0  0  0
  127.7790  123.1910   61.0840 C   0  0  0  0  0  0  0  0  0  0  0  0
  128.7570  122.3010   59.9160 S   0  0  0  0  0  0  0  0  0  0  0  0
  127.6210  122.6510   58.6320 C   0  0  0  0  0  0  0  0  0  0  0  0
  127.8060  122.2110   57.3870 N   0  0  0  0  0  0  0  0  0  0  0  0
  126.8510  122.5510   56.4880 C   0  0  0  0  0  0  0  0  0  0  0  0
  127.0820  122.0430   55.0770 C   0  0  0  0  0  0  0  0  0  0  0  0
  125.7260  123.3100   56.8020 C   0  0  0  0  0  0  0  0  0  0  0  0
  125.5350  123.7730   58.1090 C   0  0  0  0  0  0  0  0  0  0  0  0
  124.2930  124.6000   58.4020 C   0  0  0  0  0  0  0  0  0  0  0  0
  126.5180  123.4390   59.0800 C   0  0  0  0  0  0  0  0  0  0  0  0
  126.6400  123.7430   60.4810 C   0  0  0  0  0  0  0  0  0  0  0  0
  125.7110  124.4970   61.1520 N   0  0  0  0  0  0  0  0  0  0  0  0
  129.6240  125.4860   66.0420 C   0  0  0  0  0  0  0  0  0  0  0  0
  129.2060  126.6520   66.7020 C   0  0  0  0  0  0  0  0  0  0  0  0
  129.2130  126.8060   68.0770 O   0  0  0  0  0  0  0  0  0  0  0  0
  130.2120  127.6180   68.6830 C   0  0  0  0  0  0  0  0  0  0  0  0
  128.7500  127.7350   65.9370 C   0  0  0  0  0  0  0  0  0  0  0  0
  128.3550  128.8900   66.5690 O   0  0  0  0  0  0  0  0  0  0  0  0
  126.9480  129.0890   66.5830 C   0  0  0  0  0  0  0  0  0  0  0  0
  126.2517  128.5578   63.4851 H   0  0  0  0  0  0  0  0  0  0  0  0
  127.1529  129.5659   62.3026 H   0  0  0  0  0  0  0  0  0  0  0  0
  127.3587  127.7814   62.3026 H   0  0  0  0  0  0  0  0  0  0  0  0
  129.1223  126.4256   62.8060 H   0  0  0  0  0  0  0  0  0  0  0  0
  131.1559  124.2328   63.7835 H   0  0  0  0  0  0  0  0  0  0  0  0
  129.8191  123.2834   64.5910 H   0  0  0  0  0  0  0  0  0  0  0  0
  129.8900  124.3050   61.8490 H   0  0  0  0  0  0  0  0  0  0  0  0
  127.5370  121.0423   55.1175 H   0  0  0  0  0  0  0  0  0  0  0  0
  126.1206  121.9874   54.5453 H   0  0  0  0  0  0  0  0  0  0  0  0
  127.7558  122.7310   54.5453 H   0  0  0  0  0  0  0  0  0  0  0  0
  124.9870  123.5457   56.0221 H   0  0  0  0  0  0  0  0  0  0  0  0
  124.1599  124.6887   59.4903 H   0  0  0  0  0  0  0  0  0  0  0  0
  124.4081  125.6024   57.9638 H   0  0  0  0  0  0  0  0  0  0  0  0
  123.4126  124.1072   57.9638 H   0  0  0  0  0  0  0  0  0  0  0  0
  125.0060  125.0310   60.6660 H   0  0  0  0  0  0  0  0  0  0  0  0
  125.7070  124.5470   62.1610 H   0  0  0  0  0  0  0  0  0  0  0  0
  129.9938  124.6329   66.6298 H   0  0  0  0  0  0  0  0  0  0  0  0
  130.1267  127.5487   69.7775 H   0  0  0  0  0  0  0  0  0  0  0  0
  131.2073  127.2696   68.3700 H   0  0  0  0  0  0  0  0  0  0  0  0
  130.0743  128.6635   68.3700 H   0  0  0  0  0  0  0  0  0  0  0  0
  126.5951  129.1389   67.6237 H   0  0  0  0  0  0  0  0  0  0  0  0
  126.7057  130.0304   66.0681 H   0  0  0  0  0  0  0  0  0  0  0  0
  126.4541  128.2518   66.0681 H   0  0  0  0  0  0  0  0  0  0  0  0
  1  2  1  0
  2  3  1  0
  3  4  2  0
  4  5  1  0
  5  6  1  0
  6  7  1  0
  7  8  1  0
  8  9  2  0
  8 10  1  0
 10 11  1  0
 11 12  1  0
 12 13  2  0
 13 14  1  0
 14 15  1  0
 14 16  2  0
 16 17  1  0
 17 18  1  0
 17 19  2  0
 19 20  1  0
 20 21  1  0
  5 22  2  0
 22 23  1  0
 23 24  1  0
 24 25  1  0
 23 26  2  0
 26 27  1  0
 27 28  1  0
 26  3  1  0
 20 10  2  0
 19 12  1  0
  1 29  1  0
  1 30  1  0
  1 31  1  0
  4 32  1  0
  6 33  1  0
  6 34  1  0
  7 35  1  0
 15 36  1  0
 15 37  1  0
 15 38  1  0
 16 39  1  0
 18 40  1  0
 18 41  1  0
 18 42  1  0
 21 43  1  0
 21 44  1  0
 22 45  1  0
 25 46  1  0
 25 47  1  0
 25 48  1  0
 28 49  1  0
 28 50  1  0
 28 51  1  0
M  END
>  <Binding energies>  (1) 
[-6.76]

>  <Ligand effiencies>  (1) 
[-0.21806451612903224]

>  <Interactions>  (1) 
["V-B:PRO:540:N:9856, V-B:TYR:539:CE1:9847, V-B:PRO:540:CB:9857, V-B:TYR:539:CD1:9845, V-B:PRO:540:CA:9855, V-B:TYR:539:CE2:9848, H-B:TYR:539:N:9842, V-B:ASP:366:CB:8183, V-B:PRO:540:CD:9859, H-B:ASP:366:OD1:8185, V-B:ASP:366:CG:8184, V-B:MET:535:CE:9807, V-B:LEU:363:CD1:8160, V-B:TYR:539:C:9839, V-B:TYR:539:CG:9844, H-B:GLU:543:OE1:9881, H-B:ALA:541:N:9863, V-B:TYR:539:CD2:9846, V-B:LEU:363:CA:8156, V-B:GLU:543:CG:9879, V-B:GLU:543:CB:9878, V-A:GLU:543:CD:4908, V-B:GLU:543:CD:9880, V-B:HIS:456:CE1:9041, V-A:HIS:456:CE1:4070, V-A:GLU:543:CG:4907, V-A:GLU:543:CB:4906, V-B:TYR:484:CZ:9318, V-B:ILE:538:CG2:9835, V-B:ILE:538:CA:9832, V-B:ILE:538:C:9830, V-B:ILE:538:CB:9834"]

$$$$
4ai_Grossjean_2025
     RDKit          3D

 32 34  0  0  0  0  0  0  0  0999 V2000
  127.2270  122.0540   54.9940 C   0  0  0  0  0  0  0  0  0  0  0  0
  126.9060  122.5690   56.3850 C   0  0  0  0  0  0  0  0  0  0  0  0
  125.7800  123.3570   56.6150 C   0  0  0  0  0  0  0  0  0  0  0  0
  125.5000  123.8170   57.9070 C   0  0  0  0  0  0  0  0  0  0  0  0
  124.2590  124.6720   58.1090 C   0  0  0  0  0  0  0  0  0  0  0  0
  126.3950  123.4520   58.9500 C   0  0  0  0  0  0  0  0  0  0  0  0
  126.4120  123.7410   60.3580 C   0  0  0  0  0  0  0  0  0  0  0  0
  125.4470  124.5100   60.9590 N   0  0  0  0  0  0  0  0  0  0  0  0
  127.4900  123.1630   61.0470 C   0  0  0  0  0  0  0  0  0  0  0  0
  127.8190  123.2590   62.4700 C   0  0  0  0  0  0  0  0  0  0  0  0
  127.0860  122.7500   63.3210 O   0  0  0  0  0  0  0  0  0  0  0  0
  128.9680  123.9200   62.7580 N   0  0  0  0  0  0  0  0  0  0  0  0
  129.5190  124.1480   64.0120 C   0  0  0  0  0  0  0  0  0  0  0  0
  130.0300  125.3850   64.4070 C   0  0  0  0  0  0  0  0  0  0  0  0
  130.4770  125.1940   65.6940 C   0  0  0  0  0  0  0  0  0  0  0  0
  130.2470  123.9100   66.0570 O   0  0  0  0  0  0  0  0  0  0  0  0
  129.6380  123.2570   64.9840 N   0  0  0  0  0  0  0  0  0  0  0  0
  128.5350  122.2590   59.9490 S   0  0  0  0  0  0  0  0  0  0  0  0
  127.5120  122.6420   58.5820 C   0  0  0  0  0  0  0  0  0  0  0  0
  127.7820  122.2030   57.3520 N   0  0  0  0  0  0  0  0  0  0  0  0
  127.8074  121.1229   55.0726 H   0  0  0  0  0  0  0  0  0  0  0  0
  126.2909  121.8578   54.4506 H   0  0  0  0  0  0  0  0  0  0  0  0
  127.8154  122.8080   54.4506 H   0  0  0  0  0  0  0  0  0  0  0  0
  125.1113  123.6175   55.7814 H   0  0  0  0  0  0  0  0  0  0  0  0
  124.0732  124.8000   59.1856 H   0  0  0  0  0  0  0  0  0  0  0  0
  124.4126  125.6569   57.6438 H   0  0  0  0  0  0  0  0  0  0  0  0
  123.3934  124.1777   57.6438 H   0  0  0  0  0  0  0  0  0  0  0  0
  125.3850  124.5990   61.9630 H   0  0  0  0  0  0  0  0  0  0  0  0
  124.7600  125.0110   60.4130 H   0  0  0  0  0  0  0  0  0  0  0  0
  129.4960  124.2850   61.9800 H   0  0  0  0  0  0  0  0  0  0  0  0
  130.0673  126.3125   63.8168 H   0  0  0  0  0  0  0  0  0  0  0  0
  130.9462  125.9616   66.3269 H   0  0  0  0  0  0  0  0  0  0  0  0
  1  2  1  0
  2  3  2  0
  3  4  1  0
  4  5  1  0
  4  6  2  0
  6  7  1  0
  7  8  1  0
  7  9  2  0
  9 10  1  0
 10 11  2  0
 10 12  1  0
 12 13  1  0
 13 14  1  0
 14 15  2  0
 15 16  1  0
 16 17  1  0
  9 18  1  0
 18 19  1  0
 19 20  2  0
 20  2  1  0
 19  6  1  0
 17 13  2  0
  1 21  1  0
  1 22  1  0
  1 23  1  0
  3 24  1  0
  5 25  1  0
  5 26  1  0
  5 27  1  0
  8 28  1  0
  8 29  1  0
 12 30  1  0
 14 31  1  0
 15 32  1  0
M  END
>  <Binding energies>  (1) 
[-7.12]

>  <Ligand effiencies>  (1) 
[-0.3095652173913043]

>  <Interactions>  (1) 
["V-B:PRO:540:N:9856, V-B:TYR:539:CE1:9847, V-B:PRO:540:CB:9857, V-B:TYR:539:CD1:9845, V-B:PRO:540:CA:9855, V-B:TYR:539:CE2:9848, H-B:TYR:539:N:9842, V-B:ASP:366:CB:8183, H-B:ASP:366:OD1:8185, V-B:ASP:366:CG:8184, V-B:MET:535:CE:9807, V-B:LEU:363:CD1:8160, V-B:TYR:539:C:9839, V-B:TYR:539:CG:9844, H-B:GLU:543:OE1:9881, H-B:ALA:541:N:9863, V-B:TYR:539:CD2:9846, V-B:LEU:363:CA:8156, V-B:TYR:531:CE2:9765, V-B:ALA:541:CB:9864, V-B:GLU:543:CG:9879, H-A:TYR:484:OH:4348, V-B:GLU:543:CD:9880, V-B:ILE:538:CG2:9835, V-B:ILE:538:CA:9832, V-B:ILE:538:C:9830, V-B:ILE:538:CB:9834"]

$$$$
4aj_Grossjean_2025
     RDKit          3D

 32 34  0  0  0  0  0  0  0  0999 V2000
  126.9880  122.0010   54.9150 C   0  0  0  0  0  0  0  0  0  0  0  0
  126.7000  122.5260   56.3100 C   0  0  0  0  0  0  0  0  0  0  0  0
  125.5620  123.2860   56.5680 C   0  0  0  0  0  0  0  0  0  0  0  0
  125.3180  123.7650   57.8610 C   0  0  0  0  0  0  0  0  0  0  0  0
  124.0620  124.5910   58.0920 C   0  0  0  0  0  0  0  0  0  0  0  0
  126.2610  123.4480   58.8740 C   0  0  0  0  0  0  0  0  0  0  0  0
  126.3240  123.7690   60.2750 C   0  0  0  0  0  0  0  0  0  0  0  0
  125.3610  124.5220   60.8970 N   0  0  0  0  0  0  0  0  0  0  0  0
  127.4450  123.2390   60.9310 C   0  0  0  0  0  0  0  0  0  0  0  0
  127.8270  123.3760   62.3390 C   0  0  0  0  0  0  0  0  0  0  0  0
  127.2290  122.7510   63.2170 O   0  0  0  0  0  0  0  0  0  0  0  0
  128.8670  124.2110   62.5810 N   0  0  0  0  0  0  0  0  0  0  0  0
  129.4300  124.5050   63.8150 C   0  0  0  0  0  0  0  0  0  0  0  0
  129.6950  125.6920   64.3190 N   0  0  0  0  0  0  0  0  0  0  0  0
  130.2250  125.5990   65.5230 C   0  0  0  0  0  0  0  0  0  0  0  0
  130.4020  124.3110   66.0210 C   0  0  0  0  0  0  0  0  0  0  0  0
  129.8380  123.1670   64.8390 S   0  0  0  0  0  0  0  0  0  0  0  0
  128.4690  122.3340   59.8140 S   0  0  0  0  0  0  0  0  0  0  0  0
  127.3840  122.6590   58.4810 C   0  0  0  0  0  0  0  0  0  0  0  0
  127.6200  122.2020   57.2510 N   0  0  0  0  0  0  0  0  0  0  0  0
  127.5159  121.0387   54.9871 H   0  0  0  0  0  0  0  0  0  0  0  0
  126.0409  121.8600   54.3735 H   0  0  0  0  0  0  0  0  0  0  0  0
  127.6158  122.7239   54.3735 H   0  0  0  0  0  0  0  0  0  0  0  0
  124.8546  123.5101   55.7560 H   0  0  0  0  0  0  0  0  0  0  0  0
  123.8908  124.7036   59.1727 H   0  0  0  0  0  0  0  0  0  0  0  0
  124.1869  125.5838   57.6352 H   0  0  0  0  0  0  0  0  0  0  0  0
  123.1999  124.0830   57.6352 H   0  0  0  0  0  0  0  0  0  0  0  0
  125.3350  124.6310   61.9010 H   0  0  0  0  0  0  0  0  0  0  0  0
  124.6420  124.9960   60.3690 H   0  0  0  0  0  0  0  0  0  0  0  0
  129.2890  124.6680   61.7860 H   0  0  0  0  0  0  0  0  0  0  0  0
  130.5113  126.4896   66.1016 H   0  0  0  0  0  0  0  0  0  0  0  0
  130.8292  124.0581   67.0026 H   0  0  0  0  0  0  0  0  0  0  0  0
  1  2  1  0
  2  3  2  0
  3  4  1  0
  4  5  1  0
  4  6  2  0
  6  7  1  0
  7  8  1  0
  7  9  2  0
  9 10  1  0
 10 11  2  0
 10 12  1  0
 12 13  1  0
 13 14  2  0
 14 15  1  0
 15 16  2  0
 16 17  1  0
  9 18  1  0
 18 19  1  0
 19 20  2  0
 20  2  1  0
 19  6  1  0
 17 13  1  0
  1 21  1  0
  1 22  1  0
  1 23  1  0
  3 24  1  0
  5 25  1  0
  5 26  1  0
  5 27  1  0
  8 28  1  0
  8 29  1  0
 12 30  1  0
 15 31  1  0
 16 32  1  0
M  END
>  <Binding energies>  (1) 
[-7.18]

>  <Ligand effiencies>  (1) 
[-0.31217391304347825]

>  <Interactions>  (1) 
["V-B:PRO:540:N:9856, V-B:TYR:539:CE1:9847, V-B:PRO:540:CB:9857, V-B:TYR:539:CD1:9845, V-B:PRO:540:CA:9855, V-B:TYR:539:CE2:9848, H-B:TYR:539:N:9842, V-B:ASP:366:CB:8183, V-B:PRO:540:CD:9859, H-B:ASP:366:OD1:8185, V-B:ASP:366:CG:8184, V-B:MET:535:CE:9807, V-B:LEU:363:CD1:8160, V-B:TYR:539:C:9839, H-B:GLU:543:OE1:9881, H-B:ALA:541:N:9863, V-B:TYR:539:CD2:9846, V-B:LEU:363:CA:8156, V-B:TYR:531:CE2:9765, V-B:GLU:543:CG:9879, V-A:TYR:484:CZ:4347, V-A:GLU:543:CD:4908, V-A:TYR:484:CE2:4346, V-B:GLU:543:CD:9880, V-B:ILE:538:CG2:9835, V-B:ILE:538:CA:9832, V-B:ILE:538:C:9830, V-B:ILE:538:CB:9834, V-B:ILE:538:CG1:9836"]

$$$$
4ak_Grossjean_2025
     RDKit          3D

 50 51  0  0  0  0  0  0  0  0999 V2000
  127.3180  122.7530   56.2290 C   0  0  0  0  0  0  0  0  0  0  0  0
  126.1010  122.0250   56.2640 O   0  0  0  0  0  0  0  0  0  0  0  0
  125.0600  122.6950   56.9640 C   0  0  0  0  0  0  0  0  0  0  0  0
  125.6710  123.7060   57.9430 C   0  0  0  0  0  0  0  0  0  0  0  0
  124.9510  123.6690   59.1680 O   0  0  0  0  0  0  0  0  0  0  0  0
  125.6260  124.2980   60.2500 C   0  0  0  0  0  0  0  0  0  0  0  0
  125.3790  123.4980   61.5350 C   0  0  0  0  0  0  0  0  0  0  0  0
  126.6280  123.1380   62.1100 O   0  0  0  0  0  0  0  0  0  0  0  0
  127.6300  122.8170   61.1550 C   0  0  0  0  0  0  0  0  0  0  0  0
  129.0120  123.1900   61.7210 C   0  0  0  0  0  0  0  0  0  0  0  0
  128.9470  124.0020   62.9370 N   0  0  0  0  0  0  0  0  0  0  0  0
  130.0110  124.4510   63.6330 C   0  0  0  0  0  0  0  0  0  0  0  0
  131.1710  124.2270   63.2840 O   0  0  0  0  0  0  0  0  0  0  0  0
  129.7120  125.2320   64.8320 C   0  0  0  0  0  0  0  0  0  0  0  0
  130.0610  124.5770   66.4310 S   0  0  0  0  0  0  0  0  0  0  0  0
  129.4660  126.0280   67.2060 C   0  0  0  0  0  0  0  0  0  0  0  0
  129.4550  126.1660   68.5320 N   0  0  0  0  0  0  0  0  0  0  0  0
  128.9660  127.3390   69.0040 C   0  0  0  0  0  0  0  0  0  0  0  0
  128.9620  127.4770   70.5160 C   0  0  0  0  0  0  0  0  0  0  0  0
  128.4950  128.3660   68.1890 C   0  0  0  0  0  0  0  0  0  0  0  0
  128.5090  128.2190   66.7970 C   0  0  0  0  0  0  0  0  0  0  0  0
  127.9800  129.3660   65.9500 C   0  0  0  0  0  0  0  0  0  0  0  0
  129.0130  127.0020   66.2650 C   0  0  0  0  0  0  0  0  0  0  0  0
  129.1700  126.5240   64.9180 C   0  0  0  0  0  0  0  0  0  0  0  0
  128.8140  127.2760   63.8270 N   0  0  0  0  0  0  0  0  0  0  0  0
  127.6545  122.9543   57.2567 H   0  0  0  0  0  0  0  0  0  0  0  0
  128.0827  122.1638   55.7016 H   0  0  0  0  0  0  0  0  0  0  0  0
  127.1605  123.7054   55.7016 H   0  0  0  0  0  0  0  0  0  0  0  0
  124.4159  123.2233   56.2456 H   0  0  0  0  0  0  0  0  0  0  0  0
  124.4609  121.9602   57.5218 H   0  0  0  0  0  0  0  0  0  0  0  0
  126.7241  123.4478   58.1280 H   0  0  0  0  0  0  0  0  0  0  0  0
  125.6132  124.7166   57.5124 H   0  0  0  0  0  0  0  0  0  0  0  0
  126.7052  124.3319   60.0400 H   0  0  0  0  0  0  0  0  0  0  0  0
  125.2467  125.3229   60.3752 H   0  0  0  0  0  0  0  0  0  0  0  0
  124.8099  124.1132   62.2475 H   0  0  0  0  0  0  0  0  0  0  0  0
  124.8054  122.5894   61.2996 H   0  0  0  0  0  0  0  0  0  0  0  0
  127.6002  121.7387   60.9397 H   0  0  0  0  0  0  0  0  0  0  0  0
  127.4481  123.3797   60.2275 H   0  0  0  0  0  0  0  0  0  0  0  0
  129.5557  122.2619   61.9512 H   0  0  0  0  0  0  0  0  0  0  0  0
  129.5216  123.7944   60.9562 H   0  0  0  0  0  0  0  0  0  0  0  0
  128.0220  124.2270   63.2740 H   0  0  0  0  0  0  0  0  0  0  0  0
  128.9910  126.4780   70.9754 H   0  0  0  0  0  0  0  0  0  0  0  0
  129.8438  128.0525   70.8340 H   0  0  0  0  0  0  0  0  0  0  0  0
  128.0483  128.0005   70.8340 H   0  0  0  0  0  0  0  0  0  0  0  0
  128.1117  129.2933   68.6398 H   0  0  0  0  0  0  0  0  0  0  0  0
  127.6106  130.1670   66.6071 H   0  0  0  0  0  0  0  0  0  0  0  0
  128.7890  129.7564   65.3151 H   0  0  0  0  0  0  0  0  0  0  0  0
  127.1578  129.0041   65.3151 H   0  0  0  0  0  0  0  0  0  0  0  0
  127.9220  127.1580   63.3660 H   0  0  0  0  0  0  0  0  0  0  0  0
  129.4330  127.9790   63.4490 H   0  0  0  0  0  0  0  0  0  0  0  0
  1  2  1  0
  2  3  1  0
  3  4  1  0
  4  5  1  0
  5  6  1  0
  6  7  1  0
  7  8  1  0
  8  9  1  0
  9 10  1  0
 10 11  1  0
 11 12  1  0
 12 13  2  0
 12 14  1  0
 14 15  1  0
 15 16  1  0
 16 17  2  0
 17 18  1  0
 18 19  1  0
 18 20  2  0
 20 21  1  0
 21 22  1  0
 21 23  2  0
 23 24  1  0
 24 25  1  0
 24 14  2  0
 23 16  1  0
  1 26  1  0
  1 27  1  0
  1 28  1  0
  3 29  1  0
  3 30  1  0
  4 31  1  0
  4 32  1  0
  6 33  1  0
  6 34  1  0
  7 35  1  0
  7 36  1  0
  9 37  1  0
  9 38  1  0
 10 39  1  0
 10 40  1  0
 11 41  1  0
 19 42  1  0
 19 43  1  0
 19 44  1  0
 20 45  1  0
 22 46  1  0
 22 47  1  0
 22 48  1  0
 25 49  1  0
 25 50  1  0
M  END
>  <Binding energies>  (1) 
[-6.27]

>  <Ligand effiencies>  (1) 
[-0.22392857142857142]

>  <Interactions>  (1) 
["V-B:TYR:539:CZ:9849, V-B:PRO:540:N:9856, V-B:TYR:539:CE1:9847, V-B:PRO:540:CB:9857, V-B:TYR:539:CD1:9845, V-B:PRO:540:CA:9855, H-B:TYR:539:N:9842, V-B:PRO:540:CD:9859, V-B:MET:535:CE:9807, V-B:LEU:363:CD1:8160, V-B:PRO:540:CG:9858, V-B:TYR:539:CG:9844, H-B:GLU:543:OE1:9881, V-B:PRO:540:C:9853, H-B:ALA:541:N:9863, V-B:GLU:543:CG:9879, V-A:TYR:484:CZ:4347, V-B:GLU:543:CB:9878, V-A:GLU:543:CD:4908, V-A:TYR:484:CE2:4346, V-B:GLU:543:CD:9880, V-B:HIS:456:CE1:9041, V-A:HIS:456:CE1:4070, V-A:GLU:543:CG:4907, V-A:GLU:543:CB:4906, H-A:GLU:543:OE1:4909, H-A:GLU:543:OE2:4910, H-B:GLU:543:OE2:9882, V-B:GLU:543:CA:9876"]

$$$$
4al_Grossjean_2025
     RDKit          3D

 28 29  0  0  0  0  0  0  0  0999 V2000
  129.1280  125.2100   63.0930 C   0  0  0  0  0  0  0  0  0  0  0  0
  129.0960  123.8540   62.6750 O   0  0  0  0  0  0  0  0  0  0  0  0
  127.9140  123.2180   62.4640 C   0  0  0  0  0  0  0  0  0  0  0  0
  127.2080  122.7580   63.3640 O   0  0  0  0  0  0  0  0  0  0  0  0
  127.5550  123.1300   61.0310 C   0  0  0  0  0  0  0  0  0  0  0  0
  128.5690  122.2020   59.9240 S   0  0  0  0  0  0  0  0  0  0  0  0
  127.5240  122.5910   58.5770 C   0  0  0  0  0  0  0  0  0  0  0  0
  127.7690  122.1460   57.3440 N   0  0  0  0  0  0  0  0  0  0  0  0
  126.8820  122.5200   56.3880 C   0  0  0  0  0  0  0  0  0  0  0  0
  127.1790  122.0030   54.9930 C   0  0  0  0  0  0  0  0  0  0  0  0
  125.7670  123.3180   56.6360 C   0  0  0  0  0  0  0  0  0  0  0  0
  125.5130  123.7830   57.9310 C   0  0  0  0  0  0  0  0  0  0  0  0
  124.2850  124.6520   58.1520 C   0  0  0  0  0  0  0  0  0  0  0  0
  126.4220  123.4120   58.9580 C   0  0  0  0  0  0  0  0  0  0  0  0
  126.4660  123.7040   60.3640 C   0  0  0  0  0  0  0  0  0  0  0  0
  125.5210  124.4760   60.9880 N   0  0  0  0  0  0  0  0  0  0  0  0
  129.1291  125.2550   64.1921 H   0  0  0  0  0  0  0  0  0  0  0  0
  130.0378  125.6918   62.7054 H   0  0  0  0  0  0  0  0  0  0  0  0
  128.2420  125.7342   62.7054 H   0  0  0  0  0  0  0  0  0  0  0  0
  127.7258  121.0511   55.0634 H   0  0  0  0  0  0  0  0  0  0  0  0
  126.2345  121.8441   54.4520 H   0  0  0  0  0  0  0  0  0  0  0  0
  127.7921  122.7389   54.4520 H   0  0  0  0  0  0  0  0  0  0  0  0
  125.0862  123.5825   55.8134 H   0  0  0  0  0  0  0  0  0  0  0  0
  124.1119  124.7745   59.2314 H   0  0  0  0  0  0  0  0  0  0  0  0
  124.4462  125.6382   57.6923 H   0  0  0  0  0  0  0  0  0  0  0  0
  123.4085  124.1719   57.6923 H   0  0  0  0  0  0  0  0  0  0  0  0
  125.4770  124.5600   61.9940 H   0  0  0  0  0  0  0  0  0  0  0  0
  124.8300  124.9910   60.4590 H   0  0  0  0  0  0  0  0  0  0  0  0
  1  2  1  0
  2  3  1  0
  3  4  2  0
  3  5  1  0
  5  6  1  0
  6  7  1  0
  7  8  2  0
  8  9  1  0
  9 10  1  0
  9 11  2  0
 11 12  1  0
 12 13  1  0
 12 14  2  0
 14 15  1  0
 15 16  1  0
 15  5  2  0
 14  7  1  0
  1 17  1  0
  1 18  1  0
  1 19  1  0
 10 20  1  0
 10 21  1  0
 10 22  1  0
 11 23  1  0
 13 24  1  0
 13 25  1  0
 13 26  1  0
 16 27  1  0
 16 28  1  0
M  END
>  <Binding energies>  (1) 
[-5.94]

>  <Ligand effiencies>  (1) 
[-0.33]

>  <Interactions>  (1) 
["V-B:PRO:540:N:9856, V-B:TYR:539:CE1:9847, V-B:PRO:540:CB:9857, V-B:TYR:539:CD1:9845, V-B:PRO:540:CA:9855, V-B:TYR:539:CE2:9848, H-B:TYR:539:N:9842, V-B:ASP:366:CB:8183, V-B:PRO:540:CD:9859, H-B:ASP:366:OD1:8185, V-B:ASP:366:CG:8184, V-B:MET:535:CE:9807, V-B:LEU:363:CD1:8160, V-B:TYR:539:C:9839, V-B:TYR:539:CG:9844, H-B:GLU:543:OE1:9881, H-B:ALA:541:N:9863, V-B:TYR:539:CD2:9846, V-B:LEU:363:CA:8156, V-B:TYR:531:CE2:9765, V-B:ALA:541:CB:9864, V-B:GLU:543:CG:9879, V-B:GLU:543:CD:9880, V-B:ILE:538:CG2:9835, V-B:ILE:538:CA:9832, V-B:ILE:538:C:9830, V-B:ILE:538:CB:9834"]

$$$$
4ba_Grossjean_2025
     RDKit          3D

 44 46  0  0  0  0  0  0  0  0999 V2000
  124.9940  124.4680   57.0040 C   0  0  0  0  0  0  0  0  0  0  0  0
  125.3740  122.9800   56.8890 C   0  0  0  0  0  0  0  0  0  0  0  0
  126.8070  122.6330   57.3450 C   0  0  0  0  0  0  0  0  0  0  0  0
  127.5120  121.9120   56.6360 O   0  0  0  0  0  0  0  0  0  0  0  0
  127.2810  123.2050   58.6490 C   0  0  0  0  0  0  0  0  0  0  0  0
  126.3450  123.5230   59.6410 C   0  0  0  0  0  0  0  0  0  0  0  0
  126.7570  124.0560   60.8590 C   0  0  0  0  0  0  0  0  0  0  0  0
  128.1110  124.2780   61.1130 C   0  0  0  0  0  0  0  0  0  0  0  0
  128.4160  124.8280   62.3730 N   0  0  0  0  0  0  0  0  0  0  0  0
  129.5900  124.8610   63.0490 C   0  0  0  0  0  0  0  0  0  0  0  0
  130.6330  124.3400   62.6500 O   0  0  0  0  0  0  0  0  0  0  0  0
  129.5490  125.5530   64.3390 C   0  0  0  0  0  0  0  0  0  0  0  0
  130.1960  124.7760   65.7820 S   0  0  0  0  0  0  0  0  0  0  0  0
  129.7370  126.1360   66.7780 C   0  0  0  0  0  0  0  0  0  0  0  0
  129.9770  126.1510   68.0880 N   0  0  0  0  0  0  0  0  0  0  0  0
  129.5750  127.2570   68.7540 C   0  0  0  0  0  0  0  0  0  0  0  0
  129.8500  127.2490   70.2470 C   0  0  0  0  0  0  0  0  0  0  0  0
  128.9480  128.3420   68.1460 C   0  0  0  0  0  0  0  0  0  0  0  0
  128.6920  128.3330   66.7650 C   0  0  0  0  0  0  0  0  0  0  0  0
  128.0030  129.5500   66.1410 C   0  0  0  0  0  0  0  0  0  0  0  0
  128.4580  129.8390   64.9200 F   0  0  0  0  0  0  0  0  0  0  0  0
  126.6930  129.3240   66.0350 F   0  0  0  0  0  0  0  0  0  0  0  0
  128.2030  130.6240   66.9060 F   0  0  0  0  0  0  0  0  0  0  0  0
  129.0990  127.1770   66.0350 C   0  0  0  0  0  0  0  0  0  0  0  0
  128.9980  126.8090   64.6430 C   0  0  0  0  0  0  0  0  0  0  0  0
  128.4160  127.6210   63.7040 N   0  0  0  0  0  0  0  0  0  0  0  0
  129.0550  123.9690   60.1220 C   0  0  0  0  0  0  0  0  0  0  0  0
  128.6410  123.4360   58.9030 C   0  0  0  0  0  0  0  0  0  0  0  0
  124.9227  124.7472   58.0656 H   0  0  0  0  0  0  0  0  0  0  0  0
  125.7642  125.0820   56.5143 H   0  0  0  0  0  0  0  0  0  0  0  0
  124.0237  124.6376   56.5143 H   0  0  0  0  0  0  0  0  0  0  0  0
  124.6707  122.4001   57.5047 H   0  0  0  0  0  0  0  0  0  0  0  0
  125.3252  122.7333   55.8181 H   0  0  0  0  0  0  0  0  0  0  0  0
  125.2746  123.3500   59.4559 H   0  0  0  0  0  0  0  0  0  0  0  0
  126.0097  124.3041   61.6271 H   0  0  0  0  0  0  0  0  0  0  0  0
  127.6260  125.2480   62.8400 H   0  0  0  0  0  0  0  0  0  0  0  0
  128.8969  127.2767   70.7955 H   0  0  0  0  0  0  0  0  0  0  0  0
  130.4000  126.3345   70.5136 H   0  0  0  0  0  0  0  0  0  0  0  0
  130.4523  128.1300   70.5136 H   0  0  0  0  0  0  0  0  0  0  0  0
  128.6515  129.2114   68.7512 H   0  0  0  0  0  0  0  0  0  0  0  0
  127.4790  127.4590   63.3640 H   0  0  0  0  0  0  0  0  0  0  0  0
  128.9100  128.4100   63.3120 H   0  0  0  0  0  0  0  0  0  0  0  0
  130.1243  124.1479   60.3078 H   0  0  0  0  0  0  0  0  0  0  0  0
  129.3878  123.1941   58.1325 H   0  0  0  0  0  0  0  0  0  0  0  0
  1  2  1  0
  2  3  1  0
  3  4  2  0
  3  5  1  0
  5  6  2  0
  6  7  1  0
  7  8  2  0
  8  9  1  0
  9 10  1  0
 10 11  2  0
 10 12  1  0
 12 13  1  0
 13 14  1  0
 14 15  2  0
 15 16  1  0
 16 17  1  0
 16 18  2  0
 18 19  1  0
 19 20  1  0
 20 21  1  0
 20 22  1  0
 20 23  1  0
 19 24  2  0
 24 25  1  0
 25 26  1  0
  8 27  1  0
 27 28  2  0
 28  5  1  0
 25 12  2  0
 24 14  1  0
  1 29  1  0
  1 30  1  0
  1 31  1  0
  2 32  1  0
  2 33  1  0
  6 34  1  0
  7 35  1  0
  9 36  1  0
 17 37  1  0
 17 38  1  0
 17 39  1  0
 18 40  1  0
 26 41  1  0
 26 42  1  0
 27 43  1  0
 28 44  1  0
M  END
>  <Binding energies>  (1) 
[-6.99]

>  <Ligand effiencies>  (1) 
[-0.22548387096774195]

>  <Interactions>  (1) 
["V-B:TYR:539:CZ:9849, V-B:PRO:540:N:9856, V-B:PRO:540:CB:9857, V-B:PRO:540:CA:9855, V-B:TYR:539:CE2:9848, H-B:TYR:539:N:9842, V-B:PRO:540:CD:9859, V-B:MET:535:CE:9807, V-B:LEU:363:CD1:8160, V-B:TYR:539:C:9839, H-B:GLU:543:OE1:9881, V-B:TYR:531:CZ:9766, V-B:TYR:539:CD2:9846, V-B:TYR:531:CE2:9765, V-B:GLU:543:CG:9879, V-B:GLU:543:CB:9878, V-A:GLU:543:CD:4908, V-A:TYR:484:CE2:4346, V-B:GLU:543:CD:9880, V-B:HIS:456:CE1:9041, V-A:HIS:456:CE1:4070, V-A:GLU:543:CG:4907, V-A:GLU:543:CB:4906, H-A:GLU:543:OE1:4909, V-B:TYR:484:CZ:9318, V-A:GLU:543:CA:4904, H-B:GLU:543:OE2:9882, V-B:TYR:484:CE2:9317"]

$$$$
4bb_Grossjean_2025
     RDKit          3D

 41 43  0  0  0  0  0  0  0  0999 V2000
  125.0150  122.7310   56.7170 C   0  0  0  0  0  0  0  0  0  0  0  0
  126.4930  122.5550   57.0750 C   0  0  0  0  0  0  0  0  0  0  0  0
  127.2190  121.9670   56.2710 O   0  0  0  0  0  0  0  0  0  0  0  0
  126.9760  123.0960   58.3870 C   0  0  0  0  0  0  0  0  0  0  0  0
  126.1950  124.0350   59.0730 C   0  0  0  0  0  0  0  0  0  0  0  0
  126.6200  124.5530   60.2920 C   0  0  0  0  0  0  0  0  0  0  0  0
  127.8290  124.1380   60.8540 C   0  0  0  0  0  0  0  0  0  0  0  0
  128.1650  124.7290   62.0880 N   0  0  0  0  0  0  0  0  0  0  0  0
  129.3730  124.8710   62.6860 C   0  0  0  0  0  0  0  0  0  0  0  0
  130.4300  124.4500   62.2180 O   0  0  0  0  0  0  0  0  0  0  0  0
  129.3500  125.5510   63.9840 C   0  0  0  0  0  0  0  0  0  0  0  0
  130.0210  124.7630   65.4110 S   0  0  0  0  0  0  0  0  0  0  0  0
  129.5820  126.1180   66.4240 C   0  0  0  0  0  0  0  0  0  0  0  0
  129.8520  126.1280   67.7280 N   0  0  0  0  0  0  0  0  0  0  0  0
  129.4640  127.2310   68.4070 C   0  0  0  0  0  0  0  0  0  0  0  0
  129.7820  127.2220   69.8910 C   0  0  0  0  0  0  0  0  0  0  0  0
  128.8180  128.3150   67.8190 C   0  0  0  0  0  0  0  0  0  0  0  0
  128.5310  128.3110   66.4460 C   0  0  0  0  0  0  0  0  0  0  0  0
  127.8190  129.5270   65.8430 C   0  0  0  0  0  0  0  0  0  0  0  0
  128.2670  129.8450   64.6260 F   0  0  0  0  0  0  0  0  0  0  0  0
  126.5130  129.2770   65.7360 F   0  0  0  0  0  0  0  0  0  0  0  0
  128.0000  130.5910   66.6250 F   0  0  0  0  0  0  0  0  0  0  0  0
  128.9270  127.1610   65.6980 C   0  0  0  0  0  0  0  0  0  0  0  0
  128.8050  126.8050   64.3070 C   0  0  0  0  0  0  0  0  0  0  0  0
  128.2140  127.6260   63.3820 N   0  0  0  0  0  0  0  0  0  0  0  0
  128.6210  123.2040   60.1690 C   0  0  0  0  0  0  0  0  0  0  0  0
  128.1940  122.6870   58.9480 C   0  0  0  0  0  0  0  0  0  0  0  0
  124.4202  122.8018   57.6396 H   0  0  0  0  0  0  0  0  0  0  0  0
  124.8876  123.6507   56.1271 H   0  0  0  0  0  0  0  0  0  0  0  0
  124.6752  121.8670   56.1271 H   0  0  0  0  0  0  0  0  0  0  0  0
  125.2375  124.3655   58.6441 H   0  0  0  0  0  0  0  0  0  0  0  0
  125.9996  125.2945   60.8167 H   0  0  0  0  0  0  0  0  0  0  0  0
  127.3720  125.0770   62.6070 H   0  0  0  0  0  0  0  0  0  0  0  0
  128.8452  127.2485   70.4669 H   0  0  0  0  0  0  0  0  0  0  0  0
  130.3402  126.3077   70.1408 H   0  0  0  0  0  0  0  0  0  0  0  0
  130.3911  128.1033   70.1408 H   0  0  0  0  0  0  0  0  0  0  0  0
  128.5309  129.1800   68.4349 H   0  0  0  0  0  0  0  0  0  0  0  0
  128.6860  128.4370   63.0060 H   0  0  0  0  0  0  0  0  0  0  0  0
  127.2790  127.4480   63.0410 H   0  0  0  0  0  0  0  0  0  0  0  0
  129.5809  122.8794   60.5970 H   0  0  0  0  0  0  0  0  0  0  0  0
  128.8180  121.9514   58.4193 H   0  0  0  0  0  0  0  0  0  0  0  0
  1  2  1  0
  2  3  2  0
  2  4  1  0
  4  5  2  0
  5  6  1  0
  6  7  2  0
  7  8  1  0
  8  9  1  0
  9 10  2  0
  9 11  1  0
 11 12  1  0
 12 13  1  0
 13 14  2  0
 14 15  1  0
 15 16  1  0
 15 17  2  0
 17 18  1  0
 18 19  1  0
 19 20  1  0
 19 21  1  0
 19 22  1  0
 18 23  2  0
 23 24  1  0
 24 25  1  0
  7 26  1  0
 26 27  2  0
 27  4  1  0
 24 11  2  0
 23 13  1  0
  1 28  1  0
  1 29  1  0
  1 30  1  0
  5 31  1  0
  6 32  1  0
  8 33  1  0
 16 34  1  0
 16 35  1  0
 16 36  1  0
 17 37  1  0
 25 38  1  0
 25 39  1  0
 26 40  1  0
 27 41  1  0
M  END
>  <Binding energies>  (1) 
[-6.91]

>  <Ligand effiencies>  (1) 
[-0.23033333333333333]

>  <Interactions>  (1) 
["V-B:PRO:540:N:9856, V-B:PRO:540:CB:9857, V-B:PRO:540:CA:9855, V-B:TYR:539:CE2:9848, H-B:TYR:539:N:9842, V-B:PRO:540:CD:9859, V-B:MET:535:CE:9807, V-B:LEU:363:CD1:8160, V-B:PRO:540:CG:9858, V-B:TYR:539:C:9839, H-B:GLU:543:OE1:9881, V-B:TYR:539:CD2:9846, V-B:GLU:543:CG:9879, V-B:GLU:543:CB:9878, V-A:GLU:543:CD:4908, V-B:GLU:543:CD:9880, V-B:HIS:456:CE1:9041, V-A:HIS:456:CE1:4070, V-A:GLU:543:CG:4907, V-A:GLU:543:CB:4906, H-A:GLU:543:OE1:4909, V-B:TYR:484:CZ:9318, V-A:GLU:543:CA:4904, H-B:GLU:543:OE2:9882, V-B:ILE:538:CG2:9835, V-B:TYR:484:CE2:9317"]

$$$$
4bc_Grossjean_2025
     RDKit          3D

 40 42  0  0  0  0  0  0  0  0999 V2000
  130.5780  132.7990   56.6940 C   0  0  0  0  0  0  0  0  0  0  0  0
  129.8860  133.5070   57.7170 O   0  0  0  0  0  0  0  0  0  0  0  0
  129.6000  132.8640   58.9060 C   0  0  0  0  0  0  0  0  0  0  0  0
  130.4330  131.8010   59.2540 C   0  0  0  0  0  0  0  0  0  0  0  0
  130.2230  131.0920   60.4340 C   0  0  0  0  0  0  0  0  0  0  0  0
  129.1780  131.4460   61.2900 C   0  0  0  0  0  0  0  0  0  0  0  0
  129.0340  130.6640   62.4510 N   0  0  0  0  0  0  0  0  0  0  0  0
  127.9380  130.0180   62.9190 C   0  0  0  0  0  0  0  0  0  0  0  0
  126.8330  130.0570   62.3750 O   0  0  0  0  0  0  0  0  0  0  0  0
  128.1380  129.2510   64.1520 C   0  0  0  0  0  0  0  0  0  0  0  0
  127.5500  129.8760   65.6910 S   0  0  0  0  0  0  0  0  0  0  0  0
  128.1530  128.4750   66.5430 C   0  0  0  0  0  0  0  0  0  0  0  0
  128.0010  128.3440   67.8610 N   0  0  0  0  0  0  0  0  0  0  0  0
  128.5120  127.2170   68.4080 C   0  0  0  0  0  0  0  0  0  0  0  0
  128.3230  127.0840   69.9080 C   0  0  0  0  0  0  0  0  0  0  0  0
  129.1650  126.2270   67.6770 C   0  0  0  0  0  0  0  0  0  0  0  0
  129.3280  126.3610   66.2890 C   0  0  0  0  0  0  0  0  0  0  0  0
  130.0570  125.2470   65.5280 C   0  0  0  0  0  0  0  0  0  0  0  0
  129.4120  124.8610   64.4250 F   0  0  0  0  0  0  0  0  0  0  0  0
  131.2640  125.6700   65.1580 F   0  0  0  0  0  0  0  0  0  0  0  0
  130.1860  124.1750   66.3110 F   0  0  0  0  0  0  0  0  0  0  0  0
  128.8000  127.5370   65.6800 C   0  0  0  0  0  0  0  0  0  0  0  0
  128.7720  128.0100   64.3170 C   0  0  0  0  0  0  0  0  0  0  0  0
  129.3190  127.3010   63.2770 N   0  0  0  0  0  0  0  0  0  0  0  0
  128.3280  132.5060   60.9410 C   0  0  0  0  0  0  0  0  0  0  0  0
  128.5400  133.2110   59.7600 C   0  0  0  0  0  0  0  0  0  0  0  0
  131.2771  132.0837   57.1517 H   0  0  0  0  0  0  0  0  0  0  0  0
  129.8535  132.2553   56.0699 H   0  0  0  0  0  0  0  0  0  0  0  0
  131.1381  133.5109   56.0699 H   0  0  0  0  0  0  0  0  0  0  0  0
  131.2638  131.5199   58.5901 H   0  0  0  0  0  0  0  0  0  0  0  0
  130.8824  130.2504   60.6927 H   0  0  0  0  0  0  0  0  0  0  0  0
  129.8640  130.6090   63.0230 H   0  0  0  0  0  0  0  0  0  0  0  0
  129.1156  127.6417   70.4283 H   0  0  0  0  0  0  0  0  0  0  0  0
  127.3413  127.4914   70.1914 H   0  0  0  0  0  0  0  0  0  0  0  0
  128.3751  126.0224   70.1914 H   0  0  0  0  0  0  0  0  0  0  0  0
  129.5550  125.3356   68.1901 H   0  0  0  0  0  0  0  0  0  0  0  0
  128.8280  126.5410   62.8300 H   0  0  0  0  0  0  0  0  0  0  0  0
  130.2390  127.5220   62.9200 H   0  0  0  0  0  0  0  0  0  0  0  0
  127.4926  132.7804   61.6019 H   0  0  0  0  0  0  0  0  0  0  0  0
  127.8737  134.0448   59.4937 H   0  0  0  0  0  0  0  0  0  0  0  0
  1  2  1  0
  2  3  1  0
  3  4  2  0
  4  5  1  0
  5  6  2  0
  6  7  1  0
  7  8  1  0
  8  9  2  0
  8 10  1  0
 10 11  1  0
 11 12  1  0
 12 13  2  0
 13 14  1  0
 14 15  1  0
 14 16  2  0
 16 17  1  0
 17 18  1  0
 18 19  1  0
 18 20  1  0
 18 21  1  0
 17 22  2  0
 22 23  1  0
 23 24  1  0
  6 25  1  0
 25 26  2  0
 26  3  1  0
 23 10  2  0
 22 12  1  0
  1 27  1  0
  1 28  1  0
  1 29  1  0
  4 30  1  0
  5 31  1  0
  7 32  1  0
 15 33  1  0
 15 34  1  0
 15 35  1  0
 16 36  1  0
 24 37  1  0
 24 38  1  0
 25 39  1  0
 26 40  1  0
M  END
>  <Binding energies>  (1) 
[-5.84]

>  <Ligand effiencies>  (1) 
[-0.2013793103448276]

>  <Interactions>  (1) 
["V-A:PRO:540:CA:4883, V-A:PRO:540:CB:4885, V-A:PRO:540:N:4884, V-A:TYR:539:C:4867, H-A:TYR:539:N:4870, H-B:GLU:543:OE1:9881, V-B:GLU:543:CG:9879, V-A:TYR:484:CZ:4347, V-B:GLU:543:CB:9878, V-A:GLU:543:CD:4908, V-A:TYR:484:CE2:4346, V-B:GLU:543:CD:9880, V-B:HIS:456:CE1:9041, V-B:GLU:543:C:9874, V-A:HIS:456:CE1:4070, V-A:GLU:543:CG:4907, V-A:GLU:543:CB:4906, H-A:GLU:543:OE1:4909, H-A:GLU:543:OE2:4910, V-B:TYR:484:CZ:9318, V-A:TYR:539:CE1:4875, V-B:GLU:543:CA:9876, V-A:TYR:539:CD1:4873, V-A:ILE:538:CA:4860, V-A:ILE:538:CB:4862"]

$$$$
4bd_Grossjean_2025
     RDKit          3D

 36 38  0  0  0  0  0  0  0  0999 V2000
  134.3460  124.2060   60.3560 C   0  0  0  0  0  0  0  0  0  0  0  0
  133.2350  123.9650   61.3620 C   0  0  0  0  0  0  0  0  0  0  0  0
  132.2190  123.0500   61.1050 C   0  0  0  0  0  0  0  0  0  0  0  0
  131.1970  122.8400   62.0440 C   0  0  0  0  0  0  0  0  0  0  0  0
  130.0970  121.8240   61.7150 C   0  0  0  0  0  0  0  0  0  0  0  0
  128.9280  122.3980   61.4190 F   0  0  0  0  0  0  0  0  0  0  0  0
  130.4590  121.0900   60.6640 F   0  0  0  0  0  0  0  0  0  0  0  0
  129.8940  121.0250   62.7620 F   0  0  0  0  0  0  0  0  0  0  0  0
  131.2540  123.5960   63.2520 C   0  0  0  0  0  0  0  0  0  0  0  0
  130.4060  123.6500   64.4180 C   0  0  0  0  0  0  0  0  0  0  0  0
  129.2830  122.8770   64.5510 N   0  0  0  0  0  0  0  0  0  0  0  0
  130.8350  124.5620   65.3980 C   0  0  0  0  0  0  0  0  0  0  0  0
  130.2090  124.8800   66.6850 C   0  0  0  0  0  0  0  0  0  0  0  0
  129.5300  124.0410   67.2770 O   0  0  0  0  0  0  0  0  0  0  0  0
  130.4480  126.1310   67.1540 N   0  0  0  0  0  0  0  0  0  0  0  0
  129.9680  126.7550   68.3200 C   0  0  0  0  0  0  0  0  0  0  0  0
  130.8600  127.6190   68.9620 C   0  0  0  0  0  0  0  0  0  0  0  0
  130.4760  128.2930   70.1180 C   0  0  0  0  0  0  0  0  0  0  0  0
  129.1940  128.1100   70.6300 C   0  0  0  0  0  0  0  0  0  0  0  0
  128.2920  127.2630   69.9920 C   0  0  0  0  0  0  0  0  0  0  0  0
  128.6720  126.5870   68.8350 C   0  0  0  0  0  0  0  0  0  0  0  0
  132.3140  125.3810   64.9030 S   0  0  0  0  0  0  0  0  0  0  0  0
  132.3490  124.5030   63.3910 C   0  0  0  0  0  0  0  0  0  0  0  0
  133.3170  124.6980   62.4970 N   0  0  0  0  0  0  0  0  0  0  0  0
  135.2860  124.4099   60.8897 H   0  0  0  0  0  0  0  0  0  0  0  0
  134.4689  123.3136   59.7247 H   0  0  0  0  0  0  0  0  0  0  0  0
  134.0881  125.0691   59.7247 H   0  0  0  0  0  0  0  0  0  0  0  0
  132.2166  122.4874   60.1597 H   0  0  0  0  0  0  0  0  0  0  0  0
  128.8720  122.3900   63.7670 H   0  0  0  0  0  0  0  0  0  0  0  0
  128.8270  122.7610   65.4460 H   0  0  0  0  0  0  0  0  0  0  0  0
  131.0730  126.7000   66.6020 H   0  0  0  0  0  0  0  0  0  0  0  0
  131.8699  127.7670   68.5519 H   0  0  0  0  0  0  0  0  0  0  0  0
  131.1822  128.9672   70.6248 H   0  0  0  0  0  0  0  0  0  0  0  0
  128.8916  128.6389   71.5459 H   0  0  0  0  0  0  0  0  0  0  0  0
  127.2800  127.1277   70.4013 H   0  0  0  0  0  0  0  0  0  0  0  0
  127.9585  125.9227   68.3255 H   0  0  0  0  0  0  0  0  0  0  0  0
  1  2  1  0
  2  3  2  0
  3  4  1  0
  4  5  1  0
  5  6  1  0
  5  7  1  0
  5  8  1  0
  4  9  2  0
  9 10  1  0
 10 11  1  0
 10 12  2  0
 12 13  1  0
 13 14  2  0
 13 15  1  0
 15 16  1  0
 16 17  2  0
 17 18  1  0
 18 19  2  0
 19 20  1  0
 20 21  2  0
 12 22  1  0
 22 23  1  0
 23 24  2  0
 24  2  1  0
 23  9  1  0
 21 16  1  0
  1 25  1  0
  1 26  1  0
  1 27  1  0
  3 28  1  0
 11 29  1  0
 11 30  1  0
 15 31  1  0
 17 32  1  0
 18 33  1  0
 19 34  1  0
 20 35  1  0
 21 36  1  0
M  END
>  <Binding energies>  (1) 
[-5.95]

>  <Ligand effiencies>  (1) 
[-0.22037037037037038]

>  <Interactions>  (1) 
["V-A:ASP:366:CG:3213, V-A:ASP:366:CB:3212, V-B:TYR:539:CE2:9848, V-B:TYR:539:CD2:9846, V-B:ALA:541:CB:9864, V-A:ASP:366:CA:3210, V-A:ILE:369:CD1:3239, V-B:GLU:543:CG:9879, V-A:ILE:369:CB:3236, V-A:ILE:369:CG2:3237, V-A:LEU:475:CD2:4259, V-A:TYR:484:CZ:4347, V-B:GLU:543:CB:9878, H-A:TYR:484:OH:4348, V-A:GLU:543:CD:4908, V-A:TYR:484:CE2:4346, V-A:ARG:545:CZ:4926, V-B:HIS:456:CE1:9041, V-A:GLY:544:C:4912, V-B:GLU:543:C:9874, V-B:HIS:456:CD2:9039, V-A:HIS:456:CE1:4070, V-A:GLU:543:C:4902, V-A:GLU:543:CB:4906, H-A:GLU:543:OE1:4909, H-A:GLU:543:OE2:4910, H-A:ARG:545:NH2:4928, V-A:LEU:475:CD1:4258"]

$$$$
4be_Grossjean_2025
     RDKit          3D

 38 40  0  0  0  0  0  0  0  0999 V2000
  127.3040  126.8710   70.7620 C   0  0  0  0  0  0  0  0  0  0  0  0
  128.6810  127.1700   70.1990 C   0  0  0  0  0  0  0  0  0  0  0  0
  129.5600  128.0430   70.8450 C   0  0  0  0  0  0  0  0  0  0  0  0
  130.8100  128.2730   70.2680 C   0  0  0  0  0  0  0  0  0  0  0  0
  131.1460  127.6330   69.0730 C   0  0  0  0  0  0  0  0  0  0  0  0
  130.2200  126.7660   68.4820 C   0  0  0  0  0  0  0  0  0  0  0  0
  130.6170  126.1590   67.2770 N   0  0  0  0  0  0  0  0  0  0  0  0
  130.2700  124.9450   66.7800 C   0  0  0  0  0  0  0  0  0  0  0  0
  129.5090  124.1620   67.3500 O   0  0  0  0  0  0  0  0  0  0  0  0
  130.8860  124.5910   65.4980 C   0  0  0  0  0  0  0  0  0  0  0  0
  132.3780  125.3790   64.9850 S   0  0  0  0  0  0  0  0  0  0  0  0
  132.3880  124.4820   63.4850 C   0  0  0  0  0  0  0  0  0  0  0  0
  133.3560  124.6460   62.5840 N   0  0  0  0  0  0  0  0  0  0  0  0
  133.2570  123.8950   61.4620 C   0  0  0  0  0  0  0  0  0  0  0  0
  134.3670  124.0990   60.4480 C   0  0  0  0  0  0  0  0  0  0  0  0
  132.2250  122.9920   61.2250 C   0  0  0  0  0  0  0  0  0  0  0  0
  131.2030  122.8130   62.1700 C   0  0  0  0  0  0  0  0  0  0  0  0
  130.0900  121.8050   61.8650 C   0  0  0  0  0  0  0  0  0  0  0  0
  129.8560  120.9650   62.8770 F   0  0  0  0  0  0  0  0  0  0  0  0
  128.9520  122.4510   61.6140 F   0  0  0  0  0  0  0  0  0  0  0  0
  130.4240  121.0710   60.8040 F   0  0  0  0  0  0  0  0  0  0  0  0
  131.2750  123.5940   63.3620 C   0  0  0  0  0  0  0  0  0  0  0  0
  130.4280  123.6870   64.5270 C   0  0  0  0  0  0  0  0  0  0  0  0
  129.2810  122.9500   64.6690 N   0  0  0  0  0  0  0  0  0  0  0  0
  128.9940  126.5400   69.0380 N   0  0  0  0  0  0  0  0  0  0  0  0
  127.3473  126.8804   71.8611 H   0  0  0  0  0  0  0  0  0  0  0  0
  126.5927  127.6356   70.4165 H   0  0  0  0  0  0  0  0  0  0  0  0
  126.9738  125.8802   70.4165 H   0  0  0  0  0  0  0  0  0  0  0  0
  129.2740  128.5370   71.7853 H   0  0  0  0  0  0  0  0  0  0  0  0
  131.5259  128.9540   70.7514 H   0  0  0  0  0  0  0  0  0  0  0  0
  132.1249  127.8080   68.6028 H   0  0  0  0  0  0  0  0  0  0  0  0
  131.2810  126.6930   66.7350 H   0  0  0  0  0  0  0  0  0  0  0  0
  135.3170  124.2736   60.9744 H   0  0  0  0  0  0  0  0  0  0  0  0
  134.4568  123.2023   59.8172 H   0  0  0  0  0  0  0  0  0  0  0  0
  134.1321  124.9690   59.8172 H   0  0  0  0  0  0  0  0  0  0  0  0
  132.2102  122.4138   60.2893 H   0  0  0  0  0  0  0  0  0  0  0  0
  128.8150  122.8520   65.5600 H   0  0  0  0  0  0  0  0  0  0  0  0
  128.8640  122.4710   63.8830 H   0  0  0  0  0  0  0  0  0  0  0  0
  1  2  1  0
  2  3  2  0
  3  4  1  0
  4  5  2  0
  5  6  1  0
  6  7  1  0
  7  8  1  0
  8  9  2  0
  8 10  1  0
 10 11  1  0
 11 12  1  0
 12 13  2  0
 13 14  1  0
 14 15  1  0
 14 16  2  0
 16 17  1  0
 17 18  1  0
 18 19  1  0
 18 20  1  0
 18 21  1  0
 17 22  2  0
 22 23  1  0
 23 24  1  0
  6 25  2  0
 25  2  1  0
 23 10  2  0
 22 12  1  0
  1 26  1  0
  1 27  1  0
  1 28  1  0
  3 29  1  0
  4 30  1  0
  5 31  1  0
  7 32  1  0
 15 33  1  0
 15 34  1  0
 15 35  1  0
 16 36  1  0
 24 37  1  0
 24 38  1  0
M  END
>  <Binding energies>  (1) 
[-5.99]

>  <Ligand effiencies>  (1) 
[-0.21392857142857144]

>  <Interactions>  (1) 
["V-A:ASP:366:CG:3213, V-B:TYR:539:CE2:9848, V-B:TYR:539:CD2:9846, V-B:ALA:541:CB:9864, V-A:ASP:366:CA:3210, V-A:ILE:369:CD1:3239, V-B:GLU:543:CG:9879, V-A:ILE:369:CB:3236, V-A:ILE:369:CG2:3237, V-A:LEU:475:CD2:4259, V-A:TYR:484:CZ:4347, V-B:GLU:543:CB:9878, H-A:TYR:484:OH:4348, V-A:GLU:543:CD:4908, V-A:TYR:484:CE2:4346, V-A:ARG:545:CZ:4926, V-B:GLU:543:CD:9880, V-B:HIS:456:CE1:9041, V-A:GLY:544:C:4912, V-B:GLY:544:C:9884, V-B:GLU:543:C:9874, V-A:HIS:456:CE1:4070, V-A:GLU:543:C:4902, V-A:GLU:543:CB:4906, V-B:GLY:544:CA:9886, V-A:ARG:545:CG:4922, H-A:GLU:543:OE2:4910, H-A:ARG:545:NH2:4928, V-A:LEU:475:CG:4257, V-A:LEU:475:CD1:4258"]

$$$$
4bf_Grossjean_2025
     RDKit          3D

 35 37  0  0  0  0  0  0  0  0999 V2000
  133.0860  125.3640   65.6060 C   0  0  0  0  0  0  0  0  0  0  0  0
  132.4040  124.6180   64.4720 C   0  0  0  0  0  0  0  0  0  0  0  0
  133.1080  123.7090   63.6870 C   0  0  0  0  0  0  0  0  0  0  0  0
  132.4670  123.0290   62.6400 C   0  0  0  0  0  0  0  0  0  0  0  0
  133.2830  122.0400   61.8010 C   0  0  0  0  0  0  0  0  0  0  0  0
  132.6040  120.9320   61.4920 F   0  0  0  0  0  0  0  0  0  0  0  0
  133.6500  122.6150   60.6550 F   0  0  0  0  0  0  0  0  0  0  0  0
  134.3720  121.6660   62.4750 F   0  0  0  0  0  0  0  0  0  0  0  0
  131.0850  123.3110   62.4280 C   0  0  0  0  0  0  0  0  0  0  0  0
  130.1180  122.8230   61.4750 C   0  0  0  0  0  0  0  0  0  0  0  0
  130.4300  121.8930   60.5160 N   0  0  0  0  0  0  0  0  0  0  0  0
  128.8370  123.3790   61.6200 C   0  0  0  0  0  0  0  0  0  0  0  0
  127.6380  123.1350   60.8120 C   0  0  0  0  0  0  0  0  0  0  0  0
  126.5770  122.8100   61.3460 O   0  0  0  0  0  0  0  0  0  0  0  0
  127.7930  123.3080   59.4770 N   0  0  0  0  0  0  0  0  0  0  0  0
  126.8680  123.1100   58.4340 C   0  0  0  0  0  0  0  0  0  0  0  0
  125.5670  123.6420   58.3870 C   0  0  0  0  0  0  0  0  0  0  0  0
  124.7420  123.3550   57.2970 C   0  0  0  0  0  0  0  0  0  0  0  0
  125.2380  122.5370   56.2810 C   0  0  0  0  0  0  0  0  0  0  0  0
  126.4860  122.0060   56.3060 N   0  0  0  0  0  0  0  0  0  0  0  0
  127.2760  122.2940   57.3720 C   0  0  0  0  0  0  0  0  0  0  0  0
  128.7910  124.5350   62.9490 S   0  0  0  0  0  0  0  0  0  0  0  0
  130.4810  124.2650   63.3050 C   0  0  0  0  0  0  0  0  0  0  0  0
  131.0940  124.9070   64.2980 N   0  0  0  0  0  0  0  0  0  0  0  0
  132.7282  124.9727   66.5698 H   0  0  0  0  0  0  0  0  0  0  0  0
  134.1747  125.2238   65.5347 H   0  0  0  0  0  0  0  0  0  0  0  0
  132.8489  126.4358   65.5347 H   0  0  0  0  0  0  0  0  0  0  0  0
  134.1732  123.5226   63.8886 H   0  0  0  0  0  0  0  0  0  0  0  0
  131.3050  121.9190   60.0110 H   0  0  0  0  0  0  0  0  0  0  0  0
  129.7920  121.1450   60.2820 H   0  0  0  0  0  0  0  0  0  0  0  0
  128.6990  123.6340   59.1730 H   0  0  0  0  0  0  0  0  0  0  0  0
  125.2010  124.2808   59.2043 H   0  0  0  0  0  0  0  0  0  0  0  0
  123.7229  123.7651   57.2407 H   0  0  0  0  0  0  0  0  0  0  0  0
  124.5884  122.3129   55.4221 H   0  0  0  0  0  0  0  0  0  0  0  0
  128.2881  121.8643   57.4028 H   0  0  0  0  0  0  0  0  0  0  0  0
  1  2  1  0
  2  3  2  0
  3  4  1  0
  4  5  1  0
  5  6  1  0
  5  7  1  0
  5  8  1  0
  4  9  2  0
  9 10  1  0
 10 11  1  0
 10 12  2  0
 12 13  1  0
 13 14  2  0
 13 15  1  0
 15 16  1  0
 16 17  2  0
 17 18  1  0
 18 19  2  0
 19 20  1  0
 20 21  2  0
 12 22  1  0
 22 23  1  0
 23 24  2  0
 24  2  1  0
 23  9  1  0
 21 16  1  0
  1 25  1  0
  1 26  1  0
  1 27  1  0
  3 28  1  0
 11 29  1  0
 11 30  1  0
 15 31  1  0
 17 32  1  0
 18 33  1  0
 19 34  1  0
 21 35  1  0
M  END
>  <Binding energies>  (1) 
[-6.2]

>  <Ligand effiencies>  (1) 
[-0.22962962962962963]

>  <Interactions>  (1) 
["V-B:PRO:540:N:9856, V-B:TYR:539:CE1:9847, V-B:PRO:540:CB:9857, V-B:TYR:539:CD1:9845, V-B:PRO:540:CA:9855, V-B:TYR:539:CE2:9848, H-B:TYR:539:N:9842, V-B:PRO:540:CD:9859, V-B:MET:535:CE:9807, V-B:LEU:363:CD1:8160, V-B:TYR:539:C:9839, V-B:TYR:539:CG:9844, H-B:ALA:541:N:9863, V-B:TYR:539:CD2:9846, V-A:ILE:369:CD1:3239, V-B:GLU:543:CG:9879, V-A:ILE:369:CG2:3237, V-A:LEU:475:CD2:4259, V-A:GLY:454:CA:4049, V-A:ARG:545:CZ:4926, V-B:GLU:543:CD:9880, V-B:ILE:538:CG2:9835, V-B:TYR:539:CA:9841, V-A:ARG:545:CD:4923, H-B:TYR:539:O:9840, V-A:SER:385:CB:3409, V-A:SER:385:C:3405"]

$$$$
4bg_Grossjean_2025
     RDKit          3D

 39 41  0  0  0  0  0  0  0  0999 V2000
  130.2680  120.6570   61.0710 C   0  0  0  0  0  0  0  0  0  0  0  0
  130.6740  121.7700   62.0210 C   0  0  0  0  0  0  0  0  0  0  0  0
  131.7130  122.6400   61.7040 C   0  0  0  0  0  0  0  0  0  0  0  0
  132.0820  123.6620   62.5940 C   0  0  0  0  0  0  0  0  0  0  0  0
  133.2320  124.5950   62.2010 C   0  0  0  0  0  0  0  0  0  0  0  0
  133.8620  124.2090   61.0900 F   0  0  0  0  0  0  0  0  0  0  0  0
  132.7620  125.8240   61.9870 F   0  0  0  0  0  0  0  0  0  0  0  0
  134.1370  124.6330   63.1790 F   0  0  0  0  0  0  0  0  0  0  0  0
  131.3500  123.7590   63.8140 C   0  0  0  0  0  0  0  0  0  0  0  0
  131.4410  124.6490   64.9460 C   0  0  0  0  0  0  0  0  0  0  0  0
  132.3730  125.6530   65.0280 N   0  0  0  0  0  0  0  0  0  0  0  0
  130.4900  124.4010   65.9460 C   0  0  0  0  0  0  0  0  0  0  0  0
  130.3160  125.0830   67.2290 C   0  0  0  0  0  0  0  0  0  0  0  0
  129.8590  124.4970   68.2120 O   0  0  0  0  0  0  0  0  0  0  0  0
  130.7220  126.3690   67.2730 N   0  0  0  0  0  0  0  0  0  0  0  0
  130.6310  127.2480   68.4390 C   0  0  0  0  0  0  0  0  0  0  0  0
  129.3040  127.1440   69.1790 C   0  0  0  0  0  0  0  0  0  0  0  0
  128.1100  127.0100   68.4630 C   0  0  0  0  0  0  0  0  0  0  0  0
  126.9030  126.8770   69.1430 C   0  0  0  0  0  0  0  0  0  0  0  0
  126.8930  126.8640   70.5370 C   0  0  0  0  0  0  0  0  0  0  0  0
  128.0800  126.9810   71.2560 C   0  0  0  0  0  0  0  0  0  0  0  0
  129.2880  127.1150   70.5760 C   0  0  0  0  0  0  0  0  0  0  0  0
  129.4690  123.0250   65.5350 S   0  0  0  0  0  0  0  0  0  0  0  0
  130.3020  122.8080   64.0140 C   0  0  0  0  0  0  0  0  0  0  0  0
  129.9580  121.8380   63.1660 N   0  0  0  0  0  0  0  0  0  0  0  0
  129.9476  119.7788   61.6507 H   0  0  0  0  0  0  0  0  0  0  0  0
  129.4374  121.0008   60.4371 H   0  0  0  0  0  0  0  0  0  0  0  0
  131.1249  120.3852   60.4371 H   0  0  0  0  0  0  0  0  0  0  0  0
  132.2488  122.5265   60.7500 H   0  0  0  0  0  0  0  0  0  0  0  0
  133.3040  125.4910   65.3810 H   0  0  0  0  0  0  0  0  0  0  0  0
  132.1520  126.5980   64.7420 H   0  0  0  0  0  0  0  0  0  0  0  0
  131.0110  126.8070   66.4100 H   0  0  0  0  0  0  0  0  0  0  0  0
  131.4397  126.9850   69.1367 H   0  0  0  0  0  0  0  0  0  0  0  0
  130.7151  128.2813   68.0713 H   0  0  0  0  0  0  0  0  0  0  0  0
  128.1249  127.0097   67.3631 H   0  0  0  0  0  0  0  0  0  0  0  0
  125.9610  126.7825   68.5829 H   0  0  0  0  0  0  0  0  0  0  0  0
  125.9386  126.7604   71.0741 H   0  0  0  0  0  0  0  0  0  0  0  0
  128.0635  126.9676   72.3558 H   0  0  0  0  0  0  0  0  0  0  0  0
  130.2296  127.1980   71.1386 H   0  0  0  0  0  0  0  0  0  0  0  0
  1  2  1  0
  2  3  2  0
  3  4  1  0
  4  5  1  0
  5  6  1  0
  5  7  1  0
  5  8  1  0
  4  9  2  0
  9 10  1  0
 10 11  1  0
 10 12  2  0
 12 13  1  0
 13 14  2  0
 13 15  1  0
 15 16  1  0
 16 17  1  0
 17 18  2  0
 18 19  1  0
 19 20  2  0
 20 21  1  0
 21 22  2  0
 12 23  1  0
 23 24  1  0
 24 25  2  0
 25  2  1  0
 24  9  1  0
 22 17  1  0
  1 26  1  0
  1 27  1  0
  1 28  1  0
  3 29  1  0
 11 30  1  0
 11 31  1  0
 15 32  1  0
 16 33  1  0
 16 34  1  0
 18 35  1  0
 19 36  1  0
 20 37  1  0
 21 38  1  0
 22 39  1  0
M  END
>  <Binding energies>  (1) 
[-6.11]

>  <Ligand effiencies>  (1) 
[-0.21821428571428572]

>  <Interactions>  (1) 
["V-A:ASP:366:CG:3213, V-B:TYR:539:CE2:9848, V-B:TYR:539:CD2:9846, V-A:ILE:369:CD1:3239, V-B:GLU:543:CG:9879, V-A:LEU:475:CD2:4259, V-A:TYR:484:CZ:4347, V-A:GLY:453:CA:4044, V-B:GLU:543:CB:9878, H-A:TYR:484:OH:4348, V-A:GLU:543:CD:4908, V-A:TYR:484:CE2:4346, V-A:ARG:545:CZ:4926, V-B:HIS:456:CE1:9041, V-B:GLY:544:C:9884, V-B:GLU:543:C:9874, V-A:HIS:456:CE1:4070, V-A:GLU:543:CB:4906, V-B:GLY:544:CA:9886, H-A:GLU:543:OE1:4909, H-A:GLU:543:OE2:4910, V-B:GLU:543:CA:9876, V-A:GLY:453:C:4042"]

$$$$
4bh_Grossjean_2025
     RDKit          3D

 51 53  0  0  0  0  0  0  0  0999 V2000
  129.8920  127.5930   68.9460 C   0  0  0  0  0  0  0  0  0  0  0  0
  128.7490  127.2080   68.1900 O   0  0  0  0  0  0  0  0  0  0  0  0
  128.6750  127.5470   66.8510 C   0  0  0  0  0  0  0  0  0  0  0  0
  128.1330  128.7520   66.3770 C   0  0  0  0  0  0  0  0  0  0  0  0
  128.0880  129.0280   65.0100 C   0  0  0  0  0  0  0  0  0  0  0  0
  127.5390  130.3600   64.5160 C   0  0  0  0  0  0  0  0  0  0  0  0
  128.0080  130.7270   63.1790 N   0  0  0  0  0  0  0  0  0  0  0  0
  128.9320  131.6710   62.9070 C   0  0  0  0  0  0  0  0  0  0  0  0
  129.4520  132.3620   63.7850 O   0  0  0  0  0  0  0  0  0  0  0  0
  129.2540  131.8670   61.4930 C   0  0  0  0  0  0  0  0  0  0  0  0
  128.1360  132.7360   60.4460 S   0  0  0  0  0  0  0  0  0  0  0  0
  129.1730  132.4870   59.0600 C   0  0  0  0  0  0  0  0  0  0  0  0
  128.8490  132.9570   57.8570 N   0  0  0  0  0  0  0  0  0  0  0  0
  129.7320  132.7040   56.8630 C   0  0  0  0  0  0  0  0  0  0  0  0
  129.3430  133.2470   55.4990 C   0  0  0  0  0  0  0  0  0  0  0  0
  130.9200  132.0000   57.0420 C   0  0  0  0  0  0  0  0  0  0  0  0
  131.2660  131.5010   58.3080 C   0  0  0  0  0  0  0  0  0  0  0  0
  132.5840  130.7350   58.4580 C   0  0  0  0  0  0  0  0  0  0  0  0
  133.4050  131.2760   59.3610 F   0  0  0  0  0  0  0  0  0  0  0  0
  132.3380  129.4830   58.8440 F   0  0  0  0  0  0  0  0  0  0  0  0
  133.2300  130.7170   57.2920 F   0  0  0  0  0  0  0  0  0  0  0  0
  130.3550  131.7480   59.3770 C   0  0  0  0  0  0  0  0  0  0  0  0
  130.3650  131.3960   60.7760 C   0  0  0  0  0  0  0  0  0  0  0  0
  131.3770  130.6720   61.3530 N   0  0  0  0  0  0  0  0  0  0  0  0
  128.6150  128.1040   64.1050 C   0  0  0  0  0  0  0  0  0  0  0  0
  129.1560  126.8880   64.5500 C   0  0  0  0  0  0  0  0  0  0  0  0
  129.6820  125.9230   63.7100 O   0  0  0  0  0  0  0  0  0  0  0  0
  130.5510  126.3160   62.6530 C   0  0  0  0  0  0  0  0  0  0  0  0
  129.1740  126.6190   65.9260 C   0  0  0  0  0  0  0  0  0  0  0  0
  129.7180  125.4390   66.3780 O   0  0  0  0  0  0  0  0  0  0  0  0
  131.1340  125.3800   66.2770 C   0  0  0  0  0  0  0  0  0  0  0  0
  129.6644  127.5163   70.0195 H   0  0  0  0  0  0  0  0  0  0  0  0
  130.7341  126.9289   68.7014 H   0  0  0  0  0  0  0  0  0  0  0  0
  130.1607  128.6312   68.7014 H   0  0  0  0  0  0  0  0  0  0  0  0
  127.7386  129.4884   67.0927 H   0  0  0  0  0  0  0  0  0  0  0  0
  126.4410  130.2971   64.4944 H   0  0  0  0  0  0  0  0  0  0  0  0
  127.8999  131.1347   65.2086 H   0  0  0  0  0  0  0  0  0  0  0  0
  127.6860  130.1420   62.4210 H   0  0  0  0  0  0  0  0  0  0  0  0
  128.7067  134.1353   55.6258 H   0  0  0  0  0  0  0  0  0  0  0  0
  130.2504  133.5226   54.9416 H   0  0  0  0  0  0  0  0  0  0  0  0
  128.7902  132.4765   54.9416 H   0  0  0  0  0  0  0  0  0  0  0  0
  131.5913  131.8338   56.1866 H   0  0  0  0  0  0  0  0  0  0  0  0
  131.4340  130.5350   62.3530 H   0  0  0  0  0  0  0  0  0  0  0  0
  132.1080  130.2540   60.7950 H   0  0  0  0  0  0  0  0  0  0  0  0
  128.6059  128.3324   63.0290 H   0  0  0  0  0  0  0  0  0  0  0  0
  131.4764  126.7345   63.0755 H   0  0  0  0  0  0  0  0  0  0  0  0
  130.7941  125.4402   62.0334 H   0  0  0  0  0  0  0  0  0  0  0  0
  130.0539  127.0769   62.0334 H   0  0  0  0  0  0  0  0  0  0  0  0
  131.5731  125.3617   67.2854 H   0  0  0  0  0  0  0  0  0  0  0  0
  131.4252  124.4689   65.7337 H   0  0  0  0  0  0  0  0  0  0  0  0
  131.5000  126.2637   65.7337 H   0  0  0  0  0  0  0  0  0  0  0  0
  1  2  1  0
  2  3  1  0
  3  4  2  0
  4  5  1  0
  5  6  1  0
  6  7  1  0
  7  8  1  0
  8  9  2  0
  8 10  1  0
 10 11  1  0
 11 12  1  0
 12 13  2  0
 13 14  1  0
 14 15  1  0
 14 16  2  0
 16 17  1  0
 17 18  1  0
 18 19  1  0
 18 20  1  0
 18 21  1  0
 17 22  2  0
 22 23  1  0
 23 24  1  0
  5 25  2  0
 25 26  1  0
 26 27  1  0
 27 28  1  0
 26 29  2  0
 29 30  1  0
 30 31  1  0
 29  3  1  0
 23 10  2  0
 22 12  1  0
  1 32  1  0
  1 33  1  0
  1 34  1  0
  4 35  1  0
  6 36  1  0
  6 37  1  0
  7 38  1  0
 15 39  1  0
 15 40  1  0
 15 41  1  0
 16 42  1  0
 24 43  1  0
 24 44  1  0
 25 45  1  0
 28 46  1  0
 28 47  1  0
 28 48  1  0
 31 49  1  0
 31 50  1  0
 31 51  1  0
M  END
>  <Binding energies>  (1) 
[-6.02]

>  <Ligand effiencies>  (1) 
[-0.17705882352941174]

>  <Interactions>  (1) 
["V-A:LEU:363:CD1:3189, V-A:ASP:366:CG:3213, V-A:PRO:540:CA:4883, V-A:PRO:540:CB:4885, H-A:ASP:366:OD2:3215, V-A:PRO:540:N:4884, V-A:TYR:539:C:4867, V-A:ASP:366:CB:3212, V-A:MET:535:CE:4835, V-B:GLU:543:CG:9879, V-A:TYR:484:CZ:4347, V-B:GLU:543:CB:9878, V-A:GLU:543:CD:4908, V-B:GLU:543:CD:9880, V-A:HIS:456:CE1:4070, V-A:GLU:543:CG:4907, V-A:GLU:543:CB:4906, V-A:TYR:531:CZ:4794, H-A:GLU:543:OE1:4909, H-A:ALA:541:N:4891, V-A:ILE:538:CA:4860, V-A:TYR:531:CE2:4793, V-A:ILE:538:C:4858, V-A:ILE:538:CG2:4863, V-A:ILE:538:CB:4862, V-A:LEU:363:CA:3185, V-A:LEU:363:CB:3187"]

$$$$
4bi_Grossjean_2025
     RDKit          3D

 32 34  0  0  0  0  0  0  0  0999 V2000
  127.2830  122.0040   55.0160 C   0  0  0  0  0  0  0  0  0  0  0  0
  126.9710  122.5410   56.4010 C   0  0  0  0  0  0  0  0  0  0  0  0
  125.8730  123.3690   56.6190 C   0  0  0  0  0  0  0  0  0  0  0  0
  125.5930  123.8550   57.9070 C   0  0  0  0  0  0  0  0  0  0  0  0
  124.3700  124.7570   58.0990 C   0  0  0  0  0  0  0  0  0  0  0  0
  123.6530  124.4410   59.1800 F   0  0  0  0  0  0  0  0  0  0  0  0
  124.7590  126.0240   58.2360 F   0  0  0  0  0  0  0  0  0  0  0  0
  123.5630  124.6560   57.0420 F   0  0  0  0  0  0  0  0  0  0  0  0
  126.4780  123.4670   58.9570 C   0  0  0  0  0  0  0  0  0  0  0  0
  126.5150  123.7620   60.3680 C   0  0  0  0  0  0  0  0  0  0  0  0
  125.5900  124.5680   60.9820 N   0  0  0  0  0  0  0  0  0  0  0  0
  127.5740  123.1470   61.0560 C   0  0  0  0  0  0  0  0  0  0  0  0
  127.9160  123.2400   62.4780 C   0  0  0  0  0  0  0  0  0  0  0  0
  127.1870  122.7350   63.3350 O   0  0  0  0  0  0  0  0  0  0  0  0
  129.0730  123.8890   62.7580 N   0  0  0  0  0  0  0  0  0  0  0  0
  129.6390  124.1110   64.0070 C   0  0  0  0  0  0  0  0  0  0  0  0
  130.3550  125.2630   64.3260 C   0  0  0  0  0  0  0  0  0  0  0  0
  130.7400  125.0950   65.6370 C   0  0  0  0  0  0  0  0  0  0  0  0
  130.2780  123.9030   66.0840 O   0  0  0  0  0  0  0  0  0  0  0  0
  129.5820  123.2880   65.0410 N   0  0  0  0  0  0  0  0  0  0  0  0
  128.5780  122.1980   59.9630 S   0  0  0  0  0  0  0  0  0  0  0  0
  127.5670  122.6130   58.5990 C   0  0  0  0  0  0  0  0  0  0  0  0
  127.8260  122.1540   57.3750 N   0  0  0  0  0  0  0  0  0  0  0  0
  127.8338  121.0561   55.1058 H   0  0  0  0  0  0  0  0  0  0  0  0
  126.3441  121.8322   54.4693 H   0  0  0  0  0  0  0  0  0  0  0  0
  127.8973  122.7346   54.4693 H   0  0  0  0  0  0  0  0  0  0  0  0
  125.2206  123.6444   55.7773 H   0  0  0  0  0  0  0  0  0  0  0  0
  125.4930  124.5990   61.9870 H   0  0  0  0  0  0  0  0  0  0  0  0
  124.9680  125.1560   60.4460 H   0  0  0  0  0  0  0  0  0  0  0  0
  129.5980  124.2510   61.9750 H   0  0  0  0  0  0  0  0  0  0  0  0
  130.5669  126.1214   63.6716 H   0  0  0  0  0  0  0  0  0  0  0  0
  131.3283  125.8134   66.2267 H   0  0  0  0  0  0  0  0  0  0  0  0
  1  2  1  0
  2  3  2  0
  3  4  1  0
  4  5  1  0
  5  6  1  0
  5  7  1  0
  5  8  1  0
  4  9  2  0
  9 10  1  0
 10 11  1  0
 10 12  2  0
 12 13  1  0
 13 14  2  0
 13 15  1  0
 15 16  1  0
 16 17  1  0
 17 18  2  0
 18 19  1  0
 19 20  1  0
 12 21  1  0
 21 22  1  0
 22 23  2  0
 23  2  1  0
 22  9  1  0
 20 16  2  0
  1 24  1  0
  1 25  1  0
  1 26  1  0
  3 27  1  0
 11 28  1  0
 11 29  1  0
 15 30  1  0
 17 31  1  0
 18 32  1  0
M  END
>  <Binding energies>  (1) 
[-6.51]

>  <Ligand effiencies>  (1) 
[-0.25038461538461537]

>  <Interactions>  (1) 
["V-B:PRO:540:N:9856, V-B:TYR:539:CE1:9847, V-B:PRO:540:CB:9857, V-B:TYR:539:CD1:9845, V-B:PRO:540:CA:9855, V-B:TYR:539:CE2:9848, H-B:TYR:539:N:9842, V-B:ASP:366:CB:8183, H-B:ASP:366:OD1:8185, V-B:ASP:366:CG:8184, V-B:MET:535:CE:9807, V-B:LEU:363:CD1:8160, V-B:TYR:539:C:9839, V-B:TYR:539:CG:9844, H-B:GLU:543:OE1:9881, V-B:TYR:531:CZ:9766, H-B:ALA:541:N:9863, V-B:TYR:539:CD2:9846, V-B:LEU:363:CA:8156, V-B:TYR:531:CE2:9765, V-B:ALA:541:CB:9864, V-B:GLU:543:CG:9879, H-A:TYR:484:OH:4348, V-B:GLU:543:CD:9880, V-B:ILE:538:CG2:9835, V-B:ILE:538:CA:9832, V-B:ILE:538:C:9830, V-B:ASN:362:C:8143, V-B:LEU:363:CB:8158, V-B:ILE:538:CB:9834, V-B:LEU:363:CG:8159, V-B:TYR:531:CD2:9763"]

$$$$
4bj_Grossjean_2025
     RDKit          3D

 32 34  0  0  0  0  0  0  0  0999 V2000
  127.2460  122.0140   54.9560 C   0  0  0  0  0  0  0  0  0  0  0  0
  126.9790  122.5540   56.3490 C   0  0  0  0  0  0  0  0  0  0  0  0
  125.8530  123.3300   56.6140 C   0  0  0  0  0  0  0  0  0  0  0  0
  125.6220  123.8280   57.9060 C   0  0  0  0  0  0  0  0  0  0  0  0
  124.3710  124.6790   58.1500 C   0  0  0  0  0  0  0  0  0  0  0  0
  124.6500  125.9620   58.3860 F   0  0  0  0  0  0  0  0  0  0  0  0
  123.5790  124.6330   57.0790 F   0  0  0  0  0  0  0  0  0  0  0  0
  123.7090  124.2120   59.2090 F   0  0  0  0  0  0  0  0  0  0  0  0
  126.5810  123.5030   58.9120 C   0  0  0  0  0  0  0  0  0  0  0  0
  126.6820  123.8290   60.3140 C   0  0  0  0  0  0  0  0  0  0  0  0
  125.7530  124.6010   60.9640 N   0  0  0  0  0  0  0  0  0  0  0  0
  127.8070  123.2810   60.9500 C   0  0  0  0  0  0  0  0  0  0  0  0
  128.2200  123.4160   62.3490 C   0  0  0  0  0  0  0  0  0  0  0  0
  127.5310  122.9500   63.2590 O   0  0  0  0  0  0  0  0  0  0  0  0
  129.3950  124.0640   62.5490 N   0  0  0  0  0  0  0  0  0  0  0  0
  130.0120  124.3150   63.7670 C   0  0  0  0  0  0  0  0  0  0  0  0
  129.5470  124.0750   64.9730 N   0  0  0  0  0  0  0  0  0  0  0  0
  130.4060  124.4350   65.9050 C   0  0  0  0  0  0  0  0  0  0  0  0
  131.6040  124.9840   65.4590 C   0  0  0  0  0  0  0  0  0  0  0  0
  131.5930  125.0280   63.7210 S   0  0  0  0  0  0  0  0  0  0  0  0
  128.7930  122.3570   59.8200 S   0  0  0  0  0  0  0  0  0  0  0  0
  127.6880  122.6960   58.5080 C   0  0  0  0  0  0  0  0  0  0  0  0
  127.9050  122.2270   57.2800 N   0  0  0  0  0  0  0  0  0  0  0  0
  127.7324  121.0302   55.0311 H   0  0  0  0  0  0  0  0  0  0  0  0
  126.2944  121.9121   54.4136 H   0  0  0  0  0  0  0  0  0  0  0  0
  127.9047  122.7083   54.4136 H   0  0  0  0  0  0  0  0  0  0  0  0
  125.1407  123.5539   55.8062 H   0  0  0  0  0  0  0  0  0  0  0  0
  125.1010  125.1890   60.4640 H   0  0  0  0  0  0  0  0  0  0  0  0
  125.6930  124.6110   61.9730 H   0  0  0  0  0  0  0  0  0  0  0  0
  129.8840  124.3990   61.7320 H   0  0  0  0  0  0  0  0  0  0  0  0
  130.1881  124.3085   66.9758 H   0  0  0  0  0  0  0  0  0  0  0  0
  132.4252  125.3336   66.1019 H   0  0  0  0  0  0  0  0  0  0  0  0
  1  2  1  0
  2  3  2  0
  3  4  1  0
  4  5  1  0
  5  6  1  0
  5  7  1  0
  5  8  1  0
  4  9  2  0
  9 10  1  0
 10 11  1  0
 10 12  2  0
 12 13  1  0
 13 14  2  0
 13 15  1  0
 15 16  1  0
 16 17  2  0
 17 18  1  0
 18 19  2  0
 19 20  1  0
 12 21  1  0
 21 22  1  0
 22 23  2  0
 23  2  1  0
 22  9  1  0
 20 16  1  0
  1 24  1  0
  1 25  1  0
  1 26  1  0
  3 27  1  0
 11 28  1  0
 11 29  1  0
 15 30  1  0
 18 31  1  0
 19 32  1  0
M  END
>  <Binding energies>  (1) 
[-6.25]

>  <Ligand effiencies>  (1) 
[-0.2403846153846154]

>  <Interactions>  (1) 
["V-B:PRO:540:N:9856, V-B:TYR:539:CE1:9847, V-B:PRO:540:CB:9857, V-B:TYR:539:CD1:9845, V-B:PRO:540:CA:9855, V-B:TYR:539:CE2:9848, H-B:TYR:539:N:9842, V-B:ASP:366:CB:8183, H-B:ASP:366:OD1:8185, V-B:ASP:366:CG:8184, V-B:MET:535:CE:9807, V-B:LEU:363:CD1:8160, V-B:TYR:539:C:9839, V-B:TYR:539:CG:9844, H-B:GLU:543:OE1:9881, V-B:TYR:531:CZ:9766, H-B:ALA:541:N:9863, V-B:TYR:539:CD2:9846, V-B:LEU:363:CA:8156, V-B:TYR:531:CE2:9765, V-B:GLU:543:CG:9879, V-A:TYR:484:CZ:4347, V-A:TYR:484:CE2:4346, V-B:GLU:543:CD:9880, V-B:ILE:538:CG2:9835, V-B:ILE:538:CA:9832, V-B:ILE:538:C:9830, V-B:ASN:362:C:8143, V-B:LEU:363:CB:8158, V-B:ILE:538:CB:9834, V-B:LEU:363:CG:8159, V-B:TYR:531:CD2:9763"]

$$$$
4bk_Grossjean_2025
     RDKit          3D

 50 51  0  0  0  0  0  0  0  0999 V2000
  134.5260  126.8390   74.9540 C   0  0  0  0  0  0  0  0  0  0  0  0
  133.1570  127.2120   74.9210 O   0  0  0  0  0  0  0  0  0  0  0  0
  132.4240  126.5830   73.8780 C   0  0  0  0  0  0  0  0  0  0  0  0
  130.9290  126.8820   74.0500 C   0  0  0  0  0  0  0  0  0  0  0  0
  130.6360  128.1570   73.4950 O   0  0  0  0  0  0  0  0  0  0  0  0
  129.8620  128.1010   72.3040 C   0  0  0  0  0  0  0  0  0  0  0  0
  130.7970  127.9730   71.0940 C   0  0  0  0  0  0  0  0  0  0  0  0
  130.1240  127.2800   70.0520 O   0  0  0  0  0  0  0  0  0  0  0  0
  130.6180  127.5770   68.7510 C   0  0  0  0  0  0  0  0  0  0  0  0
  129.5010  127.3520   67.7180 C   0  0  0  0  0  0  0  0  0  0  0  0
  129.8670  126.4210   66.6500 N   0  0  0  0  0  0  0  0  0  0  0  0
  130.0040  125.0860   66.7920 C   0  0  0  0  0  0  0  0  0  0  0  0
  129.8060  124.5130   67.8640 O   0  0  0  0  0  0  0  0  0  0  0  0
  130.3930  124.3470   65.5900 C   0  0  0  0  0  0  0  0  0  0  0  0
  129.4960  122.9100   65.1070 S   0  0  0  0  0  0  0  0  0  0  0  0
  130.5090  122.6980   63.6990 C   0  0  0  0  0  0  0  0  0  0  0  0
  130.3180  121.6880   62.8500 N   0  0  0  0  0  0  0  0  0  0  0  0
  131.1640  121.6290   61.7960 C   0  0  0  0  0  0  0  0  0  0  0  0
  130.9270  120.4730   60.8420 C   0  0  0  0  0  0  0  0  0  0  0  0
  132.1870  122.5480   61.5720 C   0  0  0  0  0  0  0  0  0  0  0  0
  132.3950  123.6130   62.4620 C   0  0  0  0  0  0  0  0  0  0  0  0
  133.5350  124.5950   62.1760 C   0  0  0  0  0  0  0  0  0  0  0  0
  134.2800  124.2390   61.1270 F   0  0  0  0  0  0  0  0  0  0  0  0
  133.0350  125.8040   61.9200 F   0  0  0  0  0  0  0  0  0  0  0  0
  134.3430  124.6680   63.2320 F   0  0  0  0  0  0  0  0  0  0  0  0
  131.5180  123.7050   63.5850 C   0  0  0  0  0  0  0  0  0  0  0  0
  131.4220  124.6360   64.6810 C   0  0  0  0  0  0  0  0  0  0  0  0
  132.2660  125.7080   64.8200 N   0  0  0  0  0  0  0  0  0  0  0  0
  134.8564  126.7490   75.9993 H   0  0  0  0  0  0  0  0  0  0  0  0
  134.6552  125.8729   74.4441 H   0  0  0  0  0  0  0  0  0  0  0  0
  135.1274  127.6060   74.4441 H   0  0  0  0  0  0  0  0  0  0  0  0
  132.7654  126.9686   72.9060 H   0  0  0  0  0  0  0  0  0  0  0  0
  132.5873  125.4960   73.9196 H   0  0  0  0  0  0  0  0  0  0  0  0
  130.3387  126.1118   73.5320 H   0  0  0  0  0  0  0  0  0  0  0  0
  130.6745  126.8797   75.1201 H   0  0  0  0  0  0  0  0  0  0  0  0
  129.1910  127.2302   72.3430 H   0  0  0  0  0  0  0  0  0  0  0  0
  129.2642  129.0196   72.2108 H   0  0  0  0  0  0  0  0  0  0  0  0
  131.0836  128.9755   70.7433 H   0  0  0  0  0  0  0  0  0  0  0  0
  131.7004  127.4161   71.3835 H   0  0  0  0  0  0  0  0  0  0  0  0
  130.9468  128.6261   68.7137 H   0  0  0  0  0  0  0  0  0  0  0  0
  131.4692  126.9191   68.5216 H   0  0  0  0  0  0  0  0  0  0  0  0
  128.6198  126.9518   68.2408 H   0  0  0  0  0  0  0  0  0  0  0  0
  129.3014  128.3239   67.2431 H   0  0  0  0  0  0  0  0  0  0  0  0
  130.0420  126.8290   65.7440 H   0  0  0  0  0  0  0  0  0  0  0  0
  130.7388  119.5549   61.4180 H   0  0  0  0  0  0  0  0  0  0  0  0
  130.0554  120.6934   60.2082 H   0  0  0  0  0  0  0  0  0  0  0  0
  131.8151  120.3326   60.2082 H   0  0  0  0  0  0  0  0  0  0  0  0
  132.8364  122.4380   60.6910 H   0  0  0  0  0  0  0  0  0  0  0  0
  133.2710  125.5970   64.8560 H   0  0  0  0  0  0  0  0  0  0  0  0
  131.9110  126.6520   64.8880 H   0  0  0  0  0  0  0  0  0  0  0  0
  1  2  1  0
  2  3  1  0
  3  4  1  0
  4  5  1  0
  5  6  1  0
  6  7  1  0
  7  8  1  0
  8  9  1  0
  9 10  1  0
 10 11  1  0
 11 12  1  0
 12 13  2  0
 12 14  1  0
 14 15  1  0
 15 16  1  0
 16 17  2  0
 17 18  1  0
 18 19  1  0
 18 20  2  0
 20 21  1  0
 21 22  1  0
 22 23  1  0
 22 24  1  0
 22 25  1  0
 21 26  2  0
 26 27  1  0
 27 28  1  0
 27 14  2  0
 26 16  1  0
  1 29  1  0
  1 30  1  0
  1 31  1  0
  3 32  1  0
  3 33  1  0
  4 34  1  0
  4 35  1  0
  6 36  1  0
  6 37  1  0
  7 38  1  0
  7 39  1  0
  9 40  1  0
  9 41  1  0
 10 42  1  0
 10 43  1  0
 11 44  1  0
 19 45  1  0
 19 46  1  0
 19 47  1  0
 20 48  1  0
 28 49  1  0
 28 50  1  0
M  END
>  <Binding energies>  (1) 
[-5.65]

>  <Ligand effiencies>  (1) 
[-0.18225806451612905]

>  <Interactions>  (1) 
["V-A:ASP:366:CG:3213, V-B:TYR:539:CE2:9848, V-B:TYR:539:CD2:9846, V-B:ALA:541:CB:9864, V-A:ILE:369:CD1:3239, V-B:GLU:543:CG:9879, V-A:LEU:475:CD2:4259, V-A:TYR:484:CZ:4347, V-A:GLY:453:CA:4044, V-B:GLU:543:CB:9878, H-A:TYR:484:OH:4348, V-A:GLU:543:CD:4908, V-A:TYR:484:CE2:4346, V-A:GLY:454:CA:4049, V-A:ARG:545:CZ:4926, V-A:GLY:544:C:4912, H-A:LYS:547:NZ:4951, V-A:HIS:456:CE1:4070, V-A:GLU:543:C:4902, V-A:GLU:543:CB:4906, H-A:GLU:543:OE1:4909, H-A:GLU:543:OE2:4910, V-A:HIS:456:CD2:4068, V-A:HIS:456:CB:4065, V-A:ARG:545:C:4917, V-A:HIS:456:CG:4066, V-A:LYS:547:CG:4948, V-A:GLY:453:C:4042, V-A:LYS:547:CB:4947"]

$$$$
4ca_Grossjean_2025
     RDKit          3D

 52 55  0  0  0  0  0  0  0  0999 V2000
  131.4790  131.8850   55.6520 C   0  0  0  0  0  0  0  0  0  0  0  0
  131.7080  132.6830   56.9390 C   0  0  0  0  0  0  0  0  0  0  0  0
  130.6500  133.6160   57.1120 O   0  0  0  0  0  0  0  0  0  0  0  0
  129.3860  133.2010   57.3870 C   0  0  0  0  0  0  0  0  0  0  0  0
  128.4330  133.3680   56.6190 O   0  0  0  0  0  0  0  0  0  0  0  0
  129.2640  132.5160   58.7170 C   0  0  0  0  0  0  0  0  0  0  0  0
  129.5190  131.1410   58.8040 C   0  0  0  0  0  0  0  0  0  0  0  0
  129.4190  130.4790   60.0250 C   0  0  0  0  0  0  0  0  0  0  0  0
  129.0540  131.1720   61.1780 C   0  0  0  0  0  0  0  0  0  0  0  0
  128.9910  130.4060   62.3590 N   0  0  0  0  0  0  0  0  0  0  0  0
  127.9340  129.7960   62.9480 C   0  0  0  0  0  0  0  0  0  0  0  0
  126.7950  129.7800   62.4790 O   0  0  0  0  0  0  0  0  0  0  0  0
  128.2290  129.1130   64.2090 C   0  0  0  0  0  0  0  0  0  0  0  0
  127.8670  129.8950   65.7460 S   0  0  0  0  0  0  0  0  0  0  0  0
  128.4320  128.5030   66.6390 C   0  0  0  0  0  0  0  0  0  0  0  0
  128.4090  128.4770   67.9690 N   0  0  0  0  0  0  0  0  0  0  0  0
  128.8550  127.3460   68.5760 C   0  0  0  0  0  0  0  0  0  0  0  0
  128.8070  127.3430   70.0770 C   0  0  0  0  0  0  0  0  0  0  0  0
  129.9020  127.7930   70.8320 C   0  0  0  0  0  0  0  0  0  0  0  0
  129.8660  127.7880   72.2240 C   0  0  0  0  0  0  0  0  0  0  0  0
  128.7310  127.3290   72.8830 C   0  0  0  0  0  0  0  0  0  0  0  0
  127.6330  126.8760   72.1600 C   0  0  0  0  0  0  0  0  0  0  0  0
  127.6730  126.8830   70.7680 C   0  0  0  0  0  0  0  0  0  0  0  0
  129.3420  126.2580   67.8440 C   0  0  0  0  0  0  0  0  0  0  0  0
  129.3740  126.2780   66.4420 C   0  0  0  0  0  0  0  0  0  0  0  0
  129.9180  125.0490   65.7030 C   0  0  0  0  0  0  0  0  0  0  0  0
  129.2240  124.7510   64.6030 F   0  0  0  0  0  0  0  0  0  0  0  0
  131.1790  125.2660   65.3330 F   0  0  0  0  0  0  0  0  0  0  0  0
  129.8710  123.9840   66.5030 F   0  0  0  0  0  0  0  0  0  0  0  0
  128.8930  127.4520   65.7950 C   0  0  0  0  0  0  0  0  0  0  0  0
  128.7630  127.8280   64.4080 C   0  0  0  0  0  0  0  0  0  0  0  0
  129.1310  127.0010   63.3780 N   0  0  0  0  0  0  0  0  0  0  0  0
  128.8010  132.5500   61.1020 C   0  0  0  0  0  0  0  0  0  0  0  0
  128.9050  133.2120   59.8810 C   0  0  0  0  0  0  0  0  0  0  0  0
  131.1838  130.8563   55.9061 H   0  0  0  0  0  0  0  0  0  0  0  0
  130.6811  132.3605   55.0628 H   0  0  0  0  0  0  0  0  0  0  0  0
  132.4077  131.8651   55.0628 H   0  0  0  0  0  0  0  0  0  0  0  0
  131.7345  131.9953   57.7971 H   0  0  0  0  0  0  0  0  0  0  0  0
  132.6647  133.2216   56.8714 H   0  0  0  0  0  0  0  0  0  0  0  0
  129.8004  130.5800   57.9006 H   0  0  0  0  0  0  0  0  0  0  0  0
  129.6297  129.4008   60.0800 H   0  0  0  0  0  0  0  0  0  0  0  0
  129.8800  130.2920   62.8230 H   0  0  0  0  0  0  0  0  0  0  0  0
  130.8030  128.1554   70.3154 H   0  0  0  0  0  0  0  0  0  0  0  0
  130.7321  128.1458   72.8000 H   0  0  0  0  0  0  0  0  0  0  0  0
  128.7015  127.3242   73.9826 H   0  0  0  0  0  0  0  0  0  0  0  0
  126.7369  126.5138   72.6852 H   0  0  0  0  0  0  0  0  0  0  0  0
  126.8027  126.5226   70.2000 H   0  0  0  0  0  0  0  0  0  0  0  0
  129.7072  125.3688   68.3788 H   0  0  0  0  0  0  0  0  0  0  0  0
  128.5160  126.2810   63.0240 H   0  0  0  0  0  0  0  0  0  0  0  0
  130.0360  127.0840   62.9340 H   0  0  0  0  0  0  0  0  0  0  0  0
  128.5203  133.1080   62.0075 H   0  0  0  0  0  0  0  0  0  0  0  0
  128.7035  134.2921   59.8288 H   0  0  0  0  0  0  0  0  0  0  0  0
  1  2  1  0
  2  3  1  0
  3  4  1  0
  4  5  2  0
  4  6  1  0
  6  7  2  0
  7  8  1  0
  8  9  2  0
  9 10  1  0
 10 11  1  0
 11 12  2  0
 11 13  1  0
 13 14  1  0
 14 15  1  0
 15 16  2  0
 16 17  1  0
 17 18  1  0
 18 19  2  0
 19 20  1  0
 20 21  2  0
 21 22  1  0
 22 23  2  0
 17 24  2  0
 24 25  1  0
 25 26  1  0
 26 27  1  0
 26 28  1  0
 26 29  1  0
 25 30  2  0
 30 31  1  0
 31 32  1  0
  9 33  1  0
 33 34  2  0
 34  6  1  0
 31 13  2  0
 30 15  1  0
 23 18  1  0
  1 35  1  0
  1 36  1  0
  1 37  1  0
  2 38  1  0
  2 39  1  0
  7 40  1  0
  8 41  1  0
 10 42  1  0
 19 43  1  0
 20 44  1  0
 21 45  1  0
 22 46  1  0
 23 47  1  0
 24 48  1  0
 32 49  1  0
 32 50  1  0
 33 51  1  0
 34 52  1  0
M  END
>  <Binding energies>  (1) 
[-8.5]

>  <Ligand effiencies>  (1) 
[-0.22972972972972974]

>  <Interactions>  (1) 
["V-A:LEU:363:CD1:3189, V-A:PRO:540:CA:4883, V-A:PRO:540:CB:4885, V-A:PRO:540:CD:4887, V-A:PRO:540:N:4884, V-A:TYR:539:C:4867, H-A:TYR:539:N:4870, H-B:GLU:543:OE1:9881, V-A:MET:535:CE:4835, V-B:GLU:543:CG:9879, V-A:TYR:484:CZ:4347, V-B:GLU:543:CB:9878, V-A:GLU:543:CD:4908, V-A:TYR:484:CE2:4346, V-B:GLU:543:CD:9880, V-B:HIS:456:CE1:9041, V-B:GLY:544:C:9884, V-B:GLU:543:C:9874, V-B:LYS:547:CE:9922, V-A:HIS:456:CE1:4070, V-A:GLU:543:CG:4907, V-A:GLU:543:CB:4906, V-B:GLY:544:CA:9886, H-A:GLU:543:OE1:4909, H-A:GLU:543:OE2:4910, V-B:TYR:484:CZ:9318, H-B:GLU:543:OE2:9882, V-B:GLU:543:CA:9876, V-A:TYR:539:CD1:4873, V-A:TYR:539:CG:4872, V-A:TYR:539:CA:4869, V-A:TYR:531:CE2:4793, V-B:TYR:484:CE2:9317, V-A:ILE:538:CG2:4863, V-A:ILE:538:CB:4862"]

$$$$
4cb_Grossjean_2025
     RDKit          3D

 49 52  0  0  0  0  0  0  0  0999 V2000
  131.6840  132.6320   56.2850 C   0  0  0  0  0  0  0  0  0  0  0  0
  130.9210  133.4970   57.1160 O   0  0  0  0  0  0  0  0  0  0  0  0
  129.6100  133.2500   57.3650 C   0  0  0  0  0  0  0  0  0  0  0  0
  128.6950  133.6100   56.6180 O   0  0  0  0  0  0  0  0  0  0  0  0
  129.3810  132.4920   58.6420 C   0  0  0  0  0  0  0  0  0  0  0  0
  130.4310  131.7440   59.1910 C   0  0  0  0  0  0  0  0  0  0  0  0
  130.2530  131.0380   60.3770 C   0  0  0  0  0  0  0  0  0  0  0  0
  129.0230  131.0580   61.0350 C   0  0  0  0  0  0  0  0  0  0  0  0
  128.9580  130.3210   62.2330 N   0  0  0  0  0  0  0  0  0  0  0  0
  127.8980  129.7370   62.8420 C   0  0  0  0  0  0  0  0  0  0  0  0
  126.7550  129.7250   62.3810 O   0  0  0  0  0  0  0  0  0  0  0  0
  128.1940  129.0790   64.1180 C   0  0  0  0  0  0  0  0  0  0  0  0
  127.8020  129.8780   65.6390 S   0  0  0  0  0  0  0  0  0  0  0  0
  128.3850  128.5110   66.5600 C   0  0  0  0  0  0  0  0  0  0  0  0
  128.3520  128.5040   67.8900 N   0  0  0  0  0  0  0  0  0  0  0  0
  128.8170  127.3920   68.5170 C   0  0  0  0  0  0  0  0  0  0  0  0
  128.7620  127.4120   70.0180 C   0  0  0  0  0  0  0  0  0  0  0  0
  127.6570  126.8800   70.7020 C   0  0  0  0  0  0  0  0  0  0  0  0
  127.5980  126.8980   72.0930 C   0  0  0  0  0  0  0  0  0  0  0  0
  128.6460  127.4500   72.8220 C   0  0  0  0  0  0  0  0  0  0  0  0
  129.7520  127.9870   72.1690 C   0  0  0  0  0  0  0  0  0  0  0  0
  129.8050  127.9680   70.7780 C   0  0  0  0  0  0  0  0  0  0  0  0
  129.3330  126.3040   67.8060 C   0  0  0  0  0  0  0  0  0  0  0  0
  129.3750  126.3030   66.4040 C   0  0  0  0  0  0  0  0  0  0  0  0
  129.9510  125.0750   65.6870 C   0  0  0  0  0  0  0  0  0  0  0  0
  129.9870  123.9870   66.4600 F   0  0  0  0  0  0  0  0  0  0  0  0
  129.2040  124.7830   64.6230 F   0  0  0  0  0  0  0  0  0  0  0  0
  131.1990  125.3260   65.2930 F   0  0  0  0  0  0  0  0  0  0  0  0
  128.8750  127.4570   65.7350 C   0  0  0  0  0  0  0  0  0  0  0  0
  128.7480  127.8080   64.3410 C   0  0  0  0  0  0  0  0  0  0  0  0
  129.1370  126.9700   63.3270 N   0  0  0  0  0  0  0  0  0  0  0  0
  127.9670  131.8070   60.4940 C   0  0  0  0  0  0  0  0  0  0  0  0
  128.1470  132.5140   59.3090 C   0  0  0  0  0  0  0  0  0  0  0  0
  132.2818  131.9543   56.9121 H   0  0  0  0  0  0  0  0  0  0  0  0
  131.0067  132.0421   55.6499 H   0  0  0  0  0  0  0  0  0  0  0  0
  132.3538  133.2303   55.6499 H   0  0  0  0  0  0  0  0  0  0  0  0
  131.4047  131.7146   58.6800 H   0  0  0  0  0  0  0  0  0  0  0  0
  131.0884  130.4599   60.7988 H   0  0  0  0  0  0  0  0  0  0  0  0
  129.8490  130.2090   62.6960 H   0  0  0  0  0  0  0  0  0  0  0  0
  126.8254  126.4424   70.1302 H   0  0  0  0  0  0  0  0  0  0  0  0
  126.7253  126.4770   72.6137 H   0  0  0  0  0  0  0  0  0  0  0  0
  128.6007  127.4623   73.9210 H   0  0  0  0  0  0  0  0  0  0  0  0
  130.5788  128.4236   72.7485 H   0  0  0  0  0  0  0  0  0  0  0  0
  130.6788  128.3958   70.2647 H   0  0  0  0  0  0  0  0  0  0  0  0
  129.7136  125.4315   68.3573 H   0  0  0  0  0  0  0  0  0  0  0  0
  128.5260  126.2530   62.9630 H   0  0  0  0  0  0  0  0  0  0  0  0
  130.0530  127.0440   62.9060 H   0  0  0  0  0  0  0  0  0  0  0  0
  126.9947  131.8354   61.0077 H   0  0  0  0  0  0  0  0  0  0  0  0
  127.3128  133.0964   58.8908 H   0  0  0  0  0  0  0  0  0  0  0  0
  1  2  1  0
  2  3  1  0
  3  4  2  0
  3  5  1  0
  5  6  2  0
  6  7  1  0
  7  8  2  0
  8  9  1  0
  9 10  1  0
 10 11  2  0
 10 12  1  0
 12 13  1  0
 13 14  1  0
 14 15  2  0
 15 16  1  0
 16 17  1  0
 17 18  2  0
 18 19  1  0
 19 20  2  0
 20 21  1  0
 21 22  2  0
 16 23  2  0
 23 24  1  0
 24 25  1  0
 25 26  1  0
 25 27  1  0
 25 28  1  0
 24 29  2  0
 29 30  1  0
 30 31  1  0
  8 32  1  0
 32 33  2  0
 33  5  1  0
 30 12  2  0
 29 14  1  0
 22 17  1  0
  1 34  1  0
  1 35  1  0
  1 36  1  0
  6 37  1  0
  7 38  1  0
  9 39  1  0
 18 40  1  0
 19 41  1  0
 20 42  1  0
 21 43  1  0
 22 44  1  0
 23 45  1  0
 31 46  1  0
 31 47  1  0
 32 48  1  0
 33 49  1  0
M  END
>  <Binding energies>  (1) 
[-8.27]

>  <Ligand effiencies>  (1) 
[-0.22972222222222222]

>  <Interactions>  (1) 
["V-A:LEU:363:CD1:3189, V-A:PRO:540:CA:4883, V-A:PRO:540:CB:4885, V-A:PRO:540:N:4884, V-A:TYR:539:C:4867, H-A:TYR:539:N:4870, H-B:GLU:543:OE1:9881, V-B:GLU:543:CG:9879, V-A:TYR:484:CZ:4347, V-B:GLU:543:CB:9878, V-A:GLU:543:CD:4908, V-A:TYR:484:CE2:4346, V-B:GLU:543:CD:9880, V-B:HIS:456:CE1:9041, V-B:GLY:544:C:9884, V-B:GLU:543:C:9874, V-B:HIS:456:CD2:9039, V-B:LYS:547:CE:9922, V-A:HIS:456:CE1:4070, V-A:GLU:543:CG:4907, V-A:GLU:543:CB:4906, V-B:GLY:544:CA:9886, H-A:GLU:543:OE1:4909, H-A:GLU:543:OE2:4910, V-B:TYR:484:CZ:9318, H-B:GLU:543:OE2:9882, V-A:TYR:539:CE1:4875, V-B:GLU:543:CA:9876, V-A:TYR:539:CD1:4873, V-A:TYR:539:CA:4869, V-A:ILE:538:CG2:4863, V-A:ILE:538:CB:4862"]

$$$$
4cc_Grossjean_2025
     RDKit          3D

 47 50  0  0  0  0  0  0  0  0999 V2000
  130.7960  132.8570   56.6060 C   0  0  0  0  0  0  0  0  0  0  0  0
  129.7860  133.3430   57.4840 O   0  0  0  0  0  0  0  0  0  0  0  0
  129.5200  132.6570   58.6530 C   0  0  0  0  0  0  0  0  0  0  0  0
  130.4890  131.7470   59.0740 C   0  0  0  0  0  0  0  0  0  0  0  0
  130.3100  131.0100   60.2420 C   0  0  0  0  0  0  0  0  0  0  0  0
  129.1490  131.1670   61.0010 C   0  0  0  0  0  0  0  0  0  0  0  0
  129.0630  130.3920   62.1720 N   0  0  0  0  0  0  0  0  0  0  0  0
  127.9770  129.8110   62.7380 C   0  0  0  0  0  0  0  0  0  0  0  0
  126.8450  129.8500   62.2540 O   0  0  0  0  0  0  0  0  0  0  0  0
  128.2260  129.1060   63.9990 C   0  0  0  0  0  0  0  0  0  0  0  0
  127.8350  129.8720   65.5370 S   0  0  0  0  0  0  0  0  0  0  0  0
  128.3860  128.4720   66.4260 C   0  0  0  0  0  0  0  0  0  0  0  0
  128.3430  128.4320   67.7560 N   0  0  0  0  0  0  0  0  0  0  0  0
  128.7840  127.2970   68.3580 C   0  0  0  0  0  0  0  0  0  0  0  0
  128.7250  127.2820   69.8580 C   0  0  0  0  0  0  0  0  0  0  0  0
  129.8460  127.6430   70.6240 C   0  0  0  0  0  0  0  0  0  0  0  0
  129.8000  127.6300   72.0150 C   0  0  0  0  0  0  0  0  0  0  0  0
  128.6290  127.2530   72.6630 C   0  0  0  0  0  0  0  0  0  0  0  0
  127.5050  126.8870   71.9290 C   0  0  0  0  0  0  0  0  0  0  0  0
  127.5560  126.9010   70.5380 C   0  0  0  0  0  0  0  0  0  0  0  0
  129.2810  126.2160   67.6240 C   0  0  0  0  0  0  0  0  0  0  0  0
  129.3330  126.2490   66.2210 C   0  0  0  0  0  0  0  0  0  0  0  0
  129.8850  125.0260   65.4790 C   0  0  0  0  0  0  0  0  0  0  0  0
  129.1680  124.6980   64.4010 F   0  0  0  0  0  0  0  0  0  0  0  0
  131.1300  125.2700   65.0700 F   0  0  0  0  0  0  0  0  0  0  0  0
  129.8890  123.9700   66.2920 F   0  0  0  0  0  0  0  0  0  0  0  0
  128.8650  127.4300   65.5780 C   0  0  0  0  0  0  0  0  0  0  0  0
  128.7650  127.8240   64.1940 C   0  0  0  0  0  0  0  0  0  0  0  0
  129.1600  127.0100   63.1620 N   0  0  0  0  0  0  0  0  0  0  0  0
  128.1750  132.0900   60.5900 C   0  0  0  0  0  0  0  0  0  0  0  0
  128.3590  132.8250   59.4230 C   0  0  0  0  0  0  0  0  0  0  0  0
  131.6324  132.4545   57.1963 H   0  0  0  0  0  0  0  0  0  0  0  0
  130.3785  132.0612   55.9717 H   0  0  0  0  0  0  0  0  0  0  0  0
  131.1574  133.6798   55.9717 H   0  0  0  0  0  0  0  0  0  0  0  0
  131.4033  131.6100   58.4780 H   0  0  0  0  0  0  0  0  0  0  0  0
  131.0861  130.3017   60.5676 H   0  0  0  0  0  0  0  0  0  0  0  0
  129.9460  130.2300   62.6320 H   0  0  0  0  0  0  0  0  0  0  0  0
  130.7752  127.9408   70.1161 H   0  0  0  0  0  0  0  0  0  0  0  0
  130.6866  127.9169   72.5994 H   0  0  0  0  0  0  0  0  0  0  0  0
  128.5909  127.2440   73.7623 H   0  0  0  0  0  0  0  0  0  0  0  0
  126.5808  126.5881   72.4453 H   0  0  0  0  0  0  0  0  0  0  0  0
  126.6660  126.6088   69.9614 H   0  0  0  0  0  0  0  0  0  0  0  0
  129.6384  125.3219   68.1559 H   0  0  0  0  0  0  0  0  0  0  0  0
  128.5250  126.3620   62.7190 H   0  0  0  0  0  0  0  0  0  0  0  0
  130.1070  127.0320   62.8110 H   0  0  0  0  0  0  0  0  0  0  0  0
  127.2649  132.2326   61.1912 H   0  0  0  0  0  0  0  0  0  0  0  0
  127.5894  133.5424   59.1019 H   0  0  0  0  0  0  0  0  0  0  0  0
  1  2  1  0
  2  3  1  0
  3  4  2  0
  4  5  1  0
  5  6  2  0
  6  7  1  0
  7  8  1  0
  8  9  2  0
  8 10  1  0
 10 11  1  0
 11 12  1  0
 12 13  2  0
 13 14  1  0
 14 15  1  0
 15 16  2  0
 16 17  1  0
 17 18  2  0
 18 19  1  0
 19 20  2  0
 14 21  2  0
 21 22  1  0
 22 23  1  0
 23 24  1  0
 23 25  1  0
 23 26  1  0
 22 27  2  0
 27 28  1  0
 28 29  1  0
  6 30  1  0
 30 31  2  0
 31  3  1  0
 28 10  2  0
 27 12  1  0
 20 15  1  0
  1 32  1  0
  1 33  1  0
  1 34  1  0
  4 35  1  0
  5 36  1  0
  7 37  1  0
 16 38  1  0
 17 39  1  0
 18 40  1  0
 19 41  1  0
 20 42  1  0
 21 43  1  0
 29 44  1  0
 29 45  1  0
 30 46  1  0
 31 47  1  0
M  END
>  <Binding energies>  (1) 
[-7.44]

>  <Ligand effiencies>  (1) 
[-0.21882352941176472]

>  <Interactions>  (1) 
["V-A:PRO:540:CA:4883, V-A:PRO:540:CB:4885, V-A:PRO:540:N:4884, V-A:TYR:539:C:4867, H-A:TYR:539:N:4870, H-B:GLU:543:OE1:9881, V-B:GLU:543:CG:9879, V-A:TYR:484:CZ:4347, V-B:GLU:543:CB:9878, V-A:GLU:543:CD:4908, V-A:TYR:484:CE2:4346, V-B:GLU:543:CD:9880, V-B:HIS:456:CE1:9041, V-B:GLY:544:C:9884, V-B:GLU:543:C:9874, V-B:HIS:456:CD2:9039, V-A:HIS:456:CE1:4070, V-A:GLU:543:CG:4907, V-A:GLU:543:CB:4906, V-B:GLY:544:CA:9886, H-A:GLU:543:OE1:4909, H-A:GLU:543:OE2:4910, V-B:TYR:484:CZ:9318, V-A:TYR:539:CE1:4875, V-B:GLU:543:CA:9876, V-A:TYR:539:CD1:4873, V-A:ILE:538:CA:4860, V-A:ILE:538:CG2:4863, V-A:ILE:538:CB:4862"]

$$$$
4cd_Grossjean_2025
     RDKit          3D

 43 46  0  0  0  0  0  0  0  0999 V2000
  129.0490  127.2270   63.7940 N   0  0  0  0  0  0  0  0  0  0  0  0
  129.3870  126.5070   64.9120 C   0  0  0  0  0  0  0  0  0  0  0  0
  130.0140  125.2520   64.8590 C   0  0  0  0  0  0  0  0  0  0  0  0
  130.4050  124.4750   63.6780 C   0  0  0  0  0  0  0  0  0  0  0  0
  129.7630  124.5580   62.6310 O   0  0  0  0  0  0  0  0  0  0  0  0
  131.5020  123.6940   63.8340 N   0  0  0  0  0  0  0  0  0  0  0  0
  132.1010  122.8000   62.9280 C   0  0  0  0  0  0  0  0  0  0  0  0
  131.2320  122.1340   62.0590 C   0  0  0  0  0  0  0  0  0  0  0  0
  131.7310  121.2390   61.1170 C   0  0  0  0  0  0  0  0  0  0  0  0
  133.1020  121.0130   61.0380 C   0  0  0  0  0  0  0  0  0  0  0  0
  133.9810  121.6790   61.8880 C   0  0  0  0  0  0  0  0  0  0  0  0
  133.4860  122.5760   62.8320 C   0  0  0  0  0  0  0  0  0  0  0  0
  130.3100  124.6200   66.4770 S   0  0  0  0  0  0  0  0  0  0  0  0
  129.5850  126.0300   67.2100 C   0  0  0  0  0  0  0  0  0  0  0  0
  129.4960  126.1580   68.5320 N   0  0  0  0  0  0  0  0  0  0  0  0
  128.9040  127.2850   69.0080 C   0  0  0  0  0  0  0  0  0  0  0  0
  128.8150  127.3990   70.5020 C   0  0  0  0  0  0  0  0  0  0  0  0
  129.8610  127.9750   71.2420 C   0  0  0  0  0  0  0  0  0  0  0  0
  129.7850  128.0860   72.6280 C   0  0  0  0  0  0  0  0  0  0  0  0
  128.6580  127.6200   73.2960 C   0  0  0  0  0  0  0  0  0  0  0  0
  127.6070  127.0480   72.5880 C   0  0  0  0  0  0  0  0  0  0  0  0
  127.6850  126.9420   71.2030 C   0  0  0  0  0  0  0  0  0  0  0  0
  128.4230  128.2840   68.1570 C   0  0  0  0  0  0  0  0  0  0  0  0
  128.5160  128.1600   66.7610 C   0  0  0  0  0  0  0  0  0  0  0  0
  127.9640  129.2920   65.8860 C   0  0  0  0  0  0  0  0  0  0  0  0
  128.6000  129.4090   64.7180 F   0  0  0  0  0  0  0  0  0  0  0  0
  126.6770  129.0710   65.6200 F   0  0  0  0  0  0  0  0  0  0  0  0
  128.0880  130.4560   66.5240 F   0  0  0  0  0  0  0  0  0  0  0  0
  129.1230  126.9780   66.2500 C   0  0  0  0  0  0  0  0  0  0  0  0
  128.2180  127.0220   63.2580 H   0  0  0  0  0  0  0  0  0  0  0  0
  129.6230  127.9920   63.4690 H   0  0  0  0  0  0  0  0  0  0  0  0
  131.9760  123.7650   64.7230 H   0  0  0  0  0  0  0  0  0  0  0  0
  130.1492  122.3180   62.1199 H   0  0  0  0  0  0  0  0  0  0  0  0
  131.0445  120.7124   60.4377 H   0  0  0  0  0  0  0  0  0  0  0  0
  133.4950  120.3014   60.2969 H   0  0  0  0  0  0  0  0  0  0  0  0
  135.0634  121.4974   61.8143 H   0  0  0  0  0  0  0  0  0  0  0  0
  134.1776  123.1084   63.5015 H   0  0  0  0  0  0  0  0  0  0  0  0
  130.7548  128.3444   70.7179 H   0  0  0  0  0  0  0  0  0  0  0  0
  130.6129  128.5404   73.1920 H   0  0  0  0  0  0  0  0  0  0  0  0
  128.5976  127.7044   74.3911 H   0  0  0  0  0  0  0  0  0  0  0  0
  126.7174  126.6808   73.1207 H   0  0  0  0  0  0  0  0  0  0  0  0
  126.8487  126.4932   70.6470 H   0  0  0  0  0  0  0  0  0  0  0  0
  127.9627  129.1848   68.5889 H   0  0  0  0  0  0  0  0  0  0  0  0
  1  2  1  0
  2  3  2  0
  3  4  1  0
  4  5  2  0
  4  6  1  0
  6  7  1  0
  7  8  2  0
  8  9  1  0
  9 10  2  0
 10 11  1  0
 11 12  2  0
  3 13  1  0
 13 14  1  0
 14 15  2  0
 15 16  1  0
 16 17  1  0
 17 18  2  0
 18 19  1  0
 19 20  2  0
 20 21  1  0
 21 22  2  0
 16 23  2  0
 23 24  1  0
 24 25  1  0
 25 26  1  0
 25 27  1  0
 25 28  1  0
 24 29  2  0
 29  2  1  0
 12  7  1  0
 29 14  1  0
 22 17  1  0
  1 30  1  0
  1 31  1  0
  6 32  1  0
  8 33  1  0
  9 34  1  0
 10 35  1  0
 11 36  1  0
 12 37  1  0
 18 38  1  0
 19 39  1  0
 20 40  1  0
 21 41  1  0
 22 42  1  0
 23 43  1  0
M  END
>  <Binding energies>  (1) 
[-7.28]

>  <Ligand effiencies>  (1) 
[-0.2275]

>  <Interactions>  (1) 
["V-B:TYR:539:CE2:9848, H-B:GLU:543:OE1:9881, V-B:TYR:539:CD2:9846, V-A:ILE:369:CD1:3239, V-B:GLU:543:CG:9879, V-A:ILE:369:CG2:3237, V-A:LEU:475:CD2:4259, V-A:TYR:484:CZ:4347, V-B:GLU:543:CB:9878, H-A:TYR:484:OH:4348, V-A:GLU:543:CD:4908, V-A:TYR:484:CE2:4346, V-A:GLY:454:CA:4049, V-B:GLU:543:CD:9880, V-B:HIS:456:CE1:9041, V-B:GLY:544:C:9884, V-B:GLU:543:C:9874, V-B:HIS:456:CD2:9039, V-B:LYS:547:CE:9922, V-A:HIS:456:CE1:4070, V-A:GLU:543:CG:4907, V-A:GLU:543:CB:4906, H-A:GLU:543:OE1:4909, H-A:GLU:543:OE2:4910, V-B:TYR:484:CZ:9318, V-A:GLU:543:CA:4904, H-B:GLU:543:OE2:9882, V-B:TYR:484:CE2:9317, V-A:SER:385:CB:3409, V-A:SER:385:C:3405"]

$$$$
4ce_Grossjean_2025
     RDKit          3D

 45 48  0  0  0  0  0  0  0  0999 V2000
  131.5560  120.2310   60.7250 C   0  0  0  0  0  0  0  0  0  0  0  0
  132.3420  121.2650   61.5090 C   0  0  0  0  0  0  0  0  0  0  0  0
  133.7130  121.4460   61.3090 C   0  0  0  0  0  0  0  0  0  0  0  0
  134.3700  122.4220   62.0600 C   0  0  0  0  0  0  0  0  0  0  0  0
  133.6490  123.1850   62.9810 C   0  0  0  0  0  0  0  0  0  0  0  0
  132.2780  122.9470   63.1350 C   0  0  0  0  0  0  0  0  0  0  0  0
  131.6030  123.7640   64.0600 N   0  0  0  0  0  0  0  0  0  0  0  0
  130.4570  124.4700   63.8900 C   0  0  0  0  0  0  0  0  0  0  0  0
  129.8060  124.4780   62.8440 O   0  0  0  0  0  0  0  0  0  0  0  0
  130.0180  125.2460   65.0520 C   0  0  0  0  0  0  0  0  0  0  0  0
  130.3000  124.6390   66.6820 S   0  0  0  0  0  0  0  0  0  0  0  0
  129.5780  126.0660   67.3870 C   0  0  0  0  0  0  0  0  0  0  0  0
  129.4900  126.2190   68.7050 N   0  0  0  0  0  0  0  0  0  0  0  0
  128.9270  127.3690   69.1610 C   0  0  0  0  0  0  0  0  0  0  0  0
  128.8470  127.5140   70.6510 C   0  0  0  0  0  0  0  0  0  0  0  0
  129.9290  128.0350   71.3790 C   0  0  0  0  0  0  0  0  0  0  0  0
  129.8650  128.1650   72.7640 C   0  0  0  0  0  0  0  0  0  0  0  0
  128.7140  127.7780   73.4420 C   0  0  0  0  0  0  0  0  0  0  0  0
  127.6290  127.2580   72.7450 C   0  0  0  0  0  0  0  0  0  0  0  0
  127.6970  127.1270   71.3600 C   0  0  0  0  0  0  0  0  0  0  0  0
  128.4360  128.3480   68.2900 C   0  0  0  0  0  0  0  0  0  0  0  0
  128.5200  128.1930   66.8970 C   0  0  0  0  0  0  0  0  0  0  0  0
  127.9640  129.3050   66.0010 C   0  0  0  0  0  0  0  0  0  0  0  0
  128.5770  129.3800   64.8170 F   0  0  0  0  0  0  0  0  0  0  0  0
  126.6690  129.0910   65.7660 F   0  0  0  0  0  0  0  0  0  0  0  0
  128.1120  130.4850   66.6020 F   0  0  0  0  0  0  0  0  0  0  0  0
  129.1230  126.9980   66.4090 C   0  0  0  0  0  0  0  0  0  0  0  0
  129.3860  126.5010   65.0800 C   0  0  0  0  0  0  0  0  0  0  0  0
  129.0500  127.1970   63.9480 N   0  0  0  0  0  0  0  0  0  0  0  0
  131.6280  121.9980   62.4010 N   0  0  0  0  0  0  0  0  0  0  0  0
  131.0417  119.5544   61.4234 H   0  0  0  0  0  0  0  0  0  0  0  0
  130.8132  120.7379   60.0916 H   0  0  0  0  0  0  0  0  0  0  0  0
  132.2432  119.6509   60.0916 H   0  0  0  0  0  0  0  0  0  0  0  0
  134.2612  120.8342   60.5775 H   0  0  0  0  0  0  0  0  0  0  0  0
  135.4491  122.5892   61.9272 H   0  0  0  0  0  0  0  0  0  0  0  0
  134.1510  123.9616   63.5767 H   0  0  0  0  0  0  0  0  0  0  0  0
  132.0150  123.7890   64.9810 H   0  0  0  0  0  0  0  0  0  0  0  0
  130.8407  128.3450   70.8473 H   0  0  0  0  0  0  0  0  0  0  0  0
  130.7222  128.5725   73.3201 H   0  0  0  0  0  0  0  0  0  0  0  0
  128.6617  127.8839   74.5356 H   0  0  0  0  0  0  0  0  0  0  0  0
  126.7210  126.9515   73.2850 H   0  0  0  0  0  0  0  0  0  0  0  0
  126.8369  126.7141   70.8125 H   0  0  0  0  0  0  0  0  0  0  0  0
  127.9753  129.2567   68.7047 H   0  0  0  0  0  0  0  0  0  0  0  0
  128.2300  126.9680   63.4030 H   0  0  0  0  0  0  0  0  0  0  0  0
  129.6160  127.9650   63.6150 H   0  0  0  0  0  0  0  0  0  0  0  0
  1  2  1  0
  2  3  2  0
  3  4  1  0
  4  5  2  0
  5  6  1  0
  6  7  1  0
  7  8  1  0
  8  9  2  0
  8 10  1  0
 10 11  1  0
 11 12  1  0
 12 13  2  0
 13 14  1  0
 14 15  1  0
 15 16  2  0
 16 17  1  0
 17 18  2  0
 18 19  1  0
 19 20  2  0
 14 21  2  0
 21 22  1  0
 22 23  1  0
 23 24  1  0
 23 25  1  0
 23 26  1  0
 22 27  2  0
 27 28  1  0
 28 29  1  0
  6 30  2  0
 30  2  1  0
 28 10  2  0
 27 12  1  0
 20 15  1  0
  1 31  1  0
  1 32  1  0
  1 33  1  0
  3 34  1  0
  4 35  1  0
  5 36  1  0
  7 37  1  0
 16 38  1  0
 17 39  1  0
 18 40  1  0
 19 41  1  0
 20 42  1  0
 21 43  1  0
 29 44  1  0
 29 45  1  0
M  END
>  <Binding energies>  (1) 
[-7.44]

>  <Ligand effiencies>  (1) 
[-0.22545454545454546]

>  <Interactions>  (1) 
["V-B:TYR:539:CE2:9848, H-B:GLU:543:OE1:9881, V-B:TYR:539:CD2:9846, V-A:ILE:369:CD1:3239, V-B:GLU:543:CG:9879, V-A:ILE:369:CG2:3237, V-A:LEU:475:CD2:4259, V-A:TYR:484:CZ:4347, V-B:GLU:543:CB:9878, H-A:TYR:484:OH:4348, V-A:GLU:543:CD:4908, V-A:TYR:484:CE2:4346, V-A:GLY:454:CA:4049, V-B:GLU:543:CD:9880, V-B:HIS:456:CE1:9041, V-B:GLY:544:C:9884, V-B:HIS:456:CD2:9039, V-B:LYS:547:CE:9922, V-A:HIS:456:CE1:4070, V-A:GLU:543:CG:4907, V-A:GLU:543:CB:4906, H-A:GLU:543:OE1:4909, H-A:GLU:543:OE2:4910, V-B:TYR:484:CZ:9318, V-A:GLU:543:CA:4904, H-B:GLU:543:OE2:9882, V-B:TYR:484:CE2:9317, V-A:SER:385:CB:3409"]

$$$$
4cf_Grossjean_2025
     RDKit          3D

 42 45  0  0  0  0  0  0  0  0999 V2000
  129.0100  127.2330   63.8750 N   0  0  0  0  0  0  0  0  0  0  0  0
  129.3790  126.5270   64.9910 C   0  0  0  0  0  0  0  0  0  0  0  0
  130.0310  125.2850   64.9350 C   0  0  0  0  0  0  0  0  0  0  0  0
  130.4040  124.5010   63.7540 C   0  0  0  0  0  0  0  0  0  0  0  0
  129.7380  124.5690   62.7200 O   0  0  0  0  0  0  0  0  0  0  0  0
  131.5120  123.7340   63.8920 N   0  0  0  0  0  0  0  0  0  0  0  0
  132.1030  122.8370   62.9820 C   0  0  0  0  0  0  0  0  0  0  0  0
  133.4850  122.6000   62.8490 C   0  0  0  0  0  0  0  0  0  0  0  0
  133.9410  121.6920   61.8920 C   0  0  0  0  0  0  0  0  0  0  0  0
  133.0050  121.0420   61.0880 C   0  0  0  0  0  0  0  0  0  0  0  0
  131.6690  121.2560   61.1900 N   0  0  0  0  0  0  0  0  0  0  0  0
  131.2410  122.1440   62.1250 C   0  0  0  0  0  0  0  0  0  0  0  0
  130.3600  124.6650   66.5510 S   0  0  0  0  0  0  0  0  0  0  0  0
  129.6180  126.0660   67.2880 C   0  0  0  0  0  0  0  0  0  0  0  0
  129.5400  126.1960   68.6110 N   0  0  0  0  0  0  0  0  0  0  0  0
  128.9290  127.3120   69.0890 C   0  0  0  0  0  0  0  0  0  0  0  0
  128.8500  127.4290   70.5840 C   0  0  0  0  0  0  0  0  0  0  0  0
  127.6690  127.0990   71.2670 C   0  0  0  0  0  0  0  0  0  0  0  0
  127.5870  127.2030   72.6530 C   0  0  0  0  0  0  0  0  0  0  0  0
  128.6910  127.6380   73.3780 C   0  0  0  0  0  0  0  0  0  0  0  0
  129.8760  127.9690   72.7270 C   0  0  0  0  0  0  0  0  0  0  0  0
  129.9520  127.8620   71.3410 C   0  0  0  0  0  0  0  0  0  0  0  0
  128.4240  128.3010   68.2400 C   0  0  0  0  0  0  0  0  0  0  0  0
  128.5050  128.1750   66.8440 C   0  0  0  0  0  0  0  0  0  0  0  0
  127.9250  129.2940   65.9710 C   0  0  0  0  0  0  0  0  0  0  0  0
  128.5110  129.3830   64.7750 F   0  0  0  0  0  0  0  0  0  0  0  0
  126.6270  129.0770   65.7630 F   0  0  0  0  0  0  0  0  0  0  0  0
  128.0830  130.4690   66.5800 F   0  0  0  0  0  0  0  0  0  0  0  0
  129.1260  127.0000   66.3300 C   0  0  0  0  0  0  0  0  0  0  0  0
  129.5640  128.0010   63.5210 H   0  0  0  0  0  0  0  0  0  0  0  0
  128.1670  127.0080   63.3640 H   0  0  0  0  0  0  0  0  0  0  0  0
  131.9980  123.8090   64.7750 H   0  0  0  0  0  0  0  0  0  0  0  0
  134.2012  123.1277   63.4959 H   0  0  0  0  0  0  0  0  0  0  0  0
  135.0165  121.4932   61.7744 H   0  0  0  0  0  0  0  0  0  0  0  0
  133.3661  120.3235   60.3374 H   0  0  0  0  0  0  0  0  0  0  0  0
  130.1600  122.3278   62.2129 H   0  0  0  0  0  0  0  0  0  0  0  0
  126.7938  126.7525   70.6978 H   0  0  0  0  0  0  0  0  0  0  0  0
  126.6530  126.9422   73.1722 H   0  0  0  0  0  0  0  0  0  0  0  0
  128.6275  127.7211   74.4730 H   0  0  0  0  0  0  0  0  0  0  0  0
  130.7470  128.3130   73.3041 H   0  0  0  0  0  0  0  0  0  0  0  0
  130.8909  128.1209   70.8296 H   0  0  0  0  0  0  0  0  0  0  0  0
  127.9538  129.1957   68.6742 H   0  0  0  0  0  0  0  0  0  0  0  0
  1  2  1  0
  2  3  2  0
  3  4  1  0
  4  5  2  0
  4  6  1  0
  6  7  1  0
  7  8  2  0
  8  9  1  0
  9 10  2  0
 10 11  1  0
 11 12  2  0
  3 13  1  0
 13 14  1  0
 14 15  2  0
 15 16  1  0
 16 17  1  0
 17 18  2  0
 18 19  1  0
 19 20  2  0
 20 21  1  0
 21 22  2  0
 16 23  2  0
 23 24  1  0
 24 25  1  0
 25 26  1  0
 25 27  1  0
 25 28  1  0
 24 29  2  0
 29  2  1  0
 12  7  1  0
 29 14  1  0
 22 17  1  0
  1 30  1  0
  1 31  1  0
  6 32  1  0
  8 33  1  0
  9 34  1  0
 10 35  1  0
 12 36  1  0
 18 37  1  0
 19 38  1  0
 20 39  1  0
 21 40  1  0
 22 41  1  0
 23 42  1  0
M  END
>  <Binding energies>  (1) 
[-6.91]

>  <Ligand effiencies>  (1) 
[-0.2159375]

>  <Interactions>  (1) 
["H-B:GLU:543:OE1:9881, V-A:ILE:369:CD1:3239, V-B:GLU:543:CG:9879, V-A:ILE:369:CG2:3237, V-A:LEU:475:CD2:4259, V-A:TYR:484:CZ:4347, V-B:GLU:543:CB:9878, H-A:TYR:484:OH:4348, V-A:GLU:543:CD:4908, V-A:TYR:484:CE2:4346, V-A:GLY:454:CA:4049, V-B:GLU:543:CD:9880, V-B:HIS:456:CE1:9041, V-B:GLY:544:C:9884, V-B:HIS:456:CD2:9039, V-B:LYS:547:CE:9922, V-A:HIS:456:CE1:4070, V-A:GLU:543:CG:4907, V-A:GLU:543:CB:4906, H-A:GLU:543:OE1:4909, H-A:GLU:543:OE2:4910, V-B:TYR:484:CZ:9318, V-A:GLU:543:CA:4904, H-B:GLU:543:OE2:9882, V-B:TYR:484:CE2:9317, V-A:SER:385:CB:3409, V-A:SER:385:C:3405"]

$$$$
4cg_Grossjean_2025
     RDKit          3D

 46 49  0  0  0  0  0  0  0  0999 V2000
  128.7330  127.2250   63.5400 N   0  0  0  0  0  0  0  0  0  0  0  0
  129.1260  126.4660   64.6120 C   0  0  0  0  0  0  0  0  0  0  0  0
  129.6070  125.1550   64.4890 C   0  0  0  0  0  0  0  0  0  0  0  0
  129.8290  124.3750   63.2720 C   0  0  0  0  0  0  0  0  0  0  0  0
  130.9660  124.0780   62.8970 O   0  0  0  0  0  0  0  0  0  0  0  0
  128.7240  124.0410   62.5730 N   0  0  0  0  0  0  0  0  0  0  0  0
  128.7050  123.2490   61.3440 C   0  0  0  0  0  0  0  0  0  0  0  0
  127.4430  123.4480   60.5130 C   0  0  0  0  0  0  0  0  0  0  0  0
  126.2280  123.7210   61.1500 C   0  0  0  0  0  0  0  0  0  0  0  0
  125.0790  123.9350   60.3940 C   0  0  0  0  0  0  0  0  0  0  0  0
  125.1500  123.8850   59.0030 C   0  0  0  0  0  0  0  0  0  0  0  0
  126.3600  123.6300   58.3620 C   0  0  0  0  0  0  0  0  0  0  0  0
  127.5100  123.4180   59.1180 C   0  0  0  0  0  0  0  0  0  0  0  0
  130.0410  124.4800   66.0570 S   0  0  0  0  0  0  0  0  0  0  0  0
  129.5540  125.9500   66.8690 C   0  0  0  0  0  0  0  0  0  0  0  0
  129.6460  126.0750   68.1900 N   0  0  0  0  0  0  0  0  0  0  0  0
  129.2490  127.2550   68.7330 C   0  0  0  0  0  0  0  0  0  0  0  0
  129.3630  127.3650   70.2270 C   0  0  0  0  0  0  0  0  0  0  0  0
  128.3340  126.9030   71.0650 C   0  0  0  0  0  0  0  0  0  0  0  0
  128.4340  127.0040   72.4490 C   0  0  0  0  0  0  0  0  0  0  0  0
  129.5690  127.5710   73.0200 C   0  0  0  0  0  0  0  0  0  0  0  0
  130.6020  128.0390   72.2150 C   0  0  0  0  0  0  0  0  0  0  0  0
  130.4970  127.9360   70.8310 C   0  0  0  0  0  0  0  0  0  0  0  0
  128.7430  128.2970   67.9460 C   0  0  0  0  0  0  0  0  0  0  0  0
  128.6420  128.1750   66.5520 C   0  0  0  0  0  0  0  0  0  0  0  0
  128.0790  129.3540   65.7500 C   0  0  0  0  0  0  0  0  0  0  0  0
  128.6950  129.5330   64.5790 F   0  0  0  0  0  0  0  0  0  0  0  0
  126.7860  129.1500   65.4950 F   0  0  0  0  0  0  0  0  0  0  0  0
  128.2170  130.4800   66.4480 F   0  0  0  0  0  0  0  0  0  0  0  0
  129.0700  126.9460   65.9710 C   0  0  0  0  0  0  0  0  0  0  0  0
  127.8370  127.0940   63.0910 H   0  0  0  0  0  0  0  0  0  0  0  0
  129.3270  127.9520   63.1640 H   0  0  0  0  0  0  0  0  0  0  0  0
  127.8240  124.2530   62.9770 H   0  0  0  0  0  0  0  0  0  0  0  0
  129.5735  123.5344   60.7322 H   0  0  0  0  0  0  0  0  0  0  0  0
  128.7340  122.1901   61.6405 H   0  0  0  0  0  0  0  0  0  0  0  0
  126.1805  123.7666   62.2480 H   0  0  0  0  0  0  0  0  0  0  0  0
  124.1202  124.1424   60.8917 H   0  0  0  0  0  0  0  0  0  0  0  0
  124.2412  124.0486   58.4053 H   0  0  0  0  0  0  0  0  0  0  0  0
  126.4069  123.5962   57.2635 H   0  0  0  0  0  0  0  0  0  0  0  0
  128.4705  123.2270   58.6171 H   0  0  0  0  0  0  0  0  0  0  0  0
  127.4342  126.4539   70.6192 H   0  0  0  0  0  0  0  0  0  0  0  0
  127.6186  126.6369   73.0895 H   0  0  0  0  0  0  0  0  0  0  0  0
  129.6497  127.6496   74.1142 H   0  0  0  0  0  0  0  0  0  0  0  0
  131.4973  128.4882   72.6697 H   0  0  0  0  0  0  0  0  0  0  0  0
  131.3162  128.3081   70.1982 H   0  0  0  0  0  0  0  0  0  0  0  0
  128.4183  129.2297   68.4304 H   0  0  0  0  0  0  0  0  0  0  0  0
  1  2  1  0
  2  3  2  0
  3  4  1  0
  4  5  2  0
  4  6  1  0
  6  7  1  0
  7  8  1  0
  8  9  2  0
  9 10  1  0
 10 11  2  0
 11 12  1  0
 12 13  2  0
  3 14  1  0
 14 15  1  0
 15 16  2  0
 16 17  1  0
 17 18  1  0
 18 19  2  0
 19 20  1  0
 20 21  2  0
 21 22  1  0
 22 23  2  0
 17 24  2  0
 24 25  1  0
 25 26  1  0
 26 27  1  0
 26 28  1  0
 26 29  1  0
 25 30  2  0
 30  2  1  0
 13  8  1  0
 30 15  1  0
 23 18  1  0
  1 31  1  0
  1 32  1  0
  6 33  1  0
  7 34  1  0
  7 35  1  0
  9 36  1  0
 10 37  1  0
 11 38  1  0
 12 39  1  0
 13 40  1  0
 19 41  1  0
 20 42  1  0
 21 43  1  0
 22 44  1  0
 23 45  1  0
 24 46  1  0
M  END
>  <Binding energies>  (1) 
[-7.52]

>  <Ligand effiencies>  (1) 
[-0.22787878787878788]

>  <Interactions>  (1) 
["V-B:PRO:540:CB:9857, V-B:PRO:540:CA:9855, H-B:GLU:543:OE1:9881, V-B:GLU:543:CG:9879, V-A:TYR:484:CZ:4347, V-B:GLU:543:CB:9878, V-A:GLU:543:CD:4908, V-A:TYR:484:CE2:4346, V-B:GLU:543:CD:9880, V-B:HIS:456:CE1:9041, V-A:GLY:544:C:4912, V-A:HIS:456:CE1:4070, V-A:GLU:543:CG:4907, V-A:GLU:543:C:4902, V-A:GLU:543:CB:4906, H-A:GLU:543:OE1:4909, H-A:GLU:543:OE2:4910, V-B:TYR:484:CZ:9318, V-A:GLU:543:CA:4904, H-B:GLU:543:OE2:9882, V-B:TYR:484:CE2:9317"]

$$$$
4ch_Grossjean_2025
     RDKit          3D

 58 61  0  0  0  0  0  0  0  0999 V2000
  127.6240  122.9400   55.8820 C   0  0  0  0  0  0  0  0  0  0  0  0
  127.4360  122.0530   56.9800 O   0  0  0  0  0  0  0  0  0  0  0  0
  127.3930  122.5640   58.2640 C   0  0  0  0  0  0  0  0  0  0  0  0
  128.4720  122.5180   59.1630 C   0  0  0  0  0  0  0  0  0  0  0  0
  128.3580  123.0560   60.4450 C   0  0  0  0  0  0  0  0  0  0  0  0
  129.5300  122.9710   61.4160 C   0  0  0  0  0  0  0  0  0  0  0  0
  129.3690  123.7830   62.6240 N   0  0  0  0  0  0  0  0  0  0  0  0
  130.3430  124.5010   63.2210 C   0  0  0  0  0  0  0  0  0  0  0  0
  131.4900  124.5640   62.7740 O   0  0  0  0  0  0  0  0  0  0  0  0
  129.9500  125.2400   64.4220 C   0  0  0  0  0  0  0  0  0  0  0  0
  130.2520  124.5580   66.0160 S   0  0  0  0  0  0  0  0  0  0  0  0
  129.5700  125.9650   66.7960 C   0  0  0  0  0  0  0  0  0  0  0  0
  129.4980  126.0580   68.1210 N   0  0  0  0  0  0  0  0  0  0  0  0
  128.9570  127.1930   68.6360 C   0  0  0  0  0  0  0  0  0  0  0  0
  128.8840  127.2640   70.1350 C   0  0  0  0  0  0  0  0  0  0  0  0
  127.7120  126.8970   70.8160 C   0  0  0  0  0  0  0  0  0  0  0  0
  127.6370  126.9620   72.2050 C   0  0  0  0  0  0  0  0  0  0  0  0
  128.7380  127.3970   72.9360 C   0  0  0  0  0  0  0  0  0  0  0  0
  129.9100  127.7700   72.2860 C   0  0  0  0  0  0  0  0  0  0  0  0
  129.9790  127.7050   70.8970 C   0  0  0  0  0  0  0  0  0  0  0  0
  128.4760  128.2190   67.8180 C   0  0  0  0  0  0  0  0  0  0  0  0
  128.5450  128.1310   66.4180 C   0  0  0  0  0  0  0  0  0  0  0  0
  127.9990  129.2930   65.5810 C   0  0  0  0  0  0  0  0  0  0  0  0
  128.7240  129.5360   64.4860 F   0  0  0  0  0  0  0  0  0  0  0  0
  126.7580  129.0190   65.1840 F   0  0  0  0  0  0  0  0  0  0  0  0
  127.9920  130.4090   66.3090 F   0  0  0  0  0  0  0  0  0  0  0  0
  129.1230  126.9510   65.8680 C   0  0  0  0  0  0  0  0  0  0  0  0
  129.3640  126.5130   64.5140 C   0  0  0  0  0  0  0  0  0  0  0  0
  129.0400  127.2710   63.4180 N   0  0  0  0  0  0  0  0  0  0  0  0
  127.1520  123.6330   60.8450 C   0  0  0  0  0  0  0  0  0  0  0  0
  126.0570  123.6910   59.9680 C   0  0  0  0  0  0  0  0  0  0  0  0
  124.8340  124.2490   60.2970 O   0  0  0  0  0  0  0  0  0  0  0  0
  124.1300  123.7670   61.4360 C   0  0  0  0  0  0  0  0  0  0  0  0
  126.1930  123.1590   58.6780 C   0  0  0  0  0  0  0  0  0  0  0  0
  125.1250  123.1970   57.8150 O   0  0  0  0  0  0  0  0  0  0  0  0
  124.7670  124.5060   57.3930 C   0  0  0  0  0  0  0  0  0  0  0  0
  127.8382  123.9507   56.2596 H   0  0  0  0  0  0  0  0  0  0  0  0
  128.4681  122.5910   55.2691 H   0  0  0  0  0  0  0  0  0  0  0  0
  126.7109  122.9635   55.2691 H   0  0  0  0  0  0  0  0  0  0  0  0
  129.4185  122.0519   58.8519 H   0  0  0  0  0  0  0  0  0  0  0  0
  129.6507  121.9207   61.7199 H   0  0  0  0  0  0  0  0  0  0  0  0
  130.4093  123.3649   60.8853 H   0  0  0  0  0  0  0  0  0  0  0  0
  128.4670  123.7340   63.0750 H   0  0  0  0  0  0  0  0  0  0  0  0
  126.8387  126.5525   70.2427 H   0  0  0  0  0  0  0  0  0  0  0  0
  126.7110  126.6706   72.7222 H   0  0  0  0  0  0  0  0  0  0  0  0
  128.6814  127.4462   74.0334 H   0  0  0  0  0  0  0  0  0  0  0  0
  130.7782  128.1147   72.8668 H   0  0  0  0  0  0  0  0  0  0  0  0
  130.9068  128.0041   70.3873 H   0  0  0  0  0  0  0  0  0  0  0  0
  128.0342  129.1141   68.2803 H   0  0  0  0  0  0  0  0  0  0  0  0
  128.1570  127.1650   62.9380 H   0  0  0  0  0  0  0  0  0  0  0  0
  129.6750  127.9670   63.0540 H   0  0  0  0  0  0  0  0  0  0  0  0
  127.0581  124.0474   61.8596 H   0  0  0  0  0  0  0  0  0  0  0  0
  124.6335  124.1117   62.3512 H   0  0  0  0  0  0  0  0  0  0  0  0
  123.0988  124.1494   61.4186 H   0  0  0  0  0  0  0  0  0  0  0  0
  124.1136  122.6673   61.4186 H   0  0  0  0  0  0  0  0  0  0  0  0
  124.5934  125.1408   58.2744 H   0  0  0  0  0  0  0  0  0  0  0  0
  125.5816  124.9321   56.7890 H   0  0  0  0  0  0  0  0  0  0  0  0
  123.8489  124.4583   56.7890 H   0  0  0  0  0  0  0  0  0  0  0  0
  1  2  1  0
  2  3  1  0
  3  4  2  0
  4  5  1  0
  5  6  1  0
  6  7  1  0
  7  8  1  0
  8  9  2  0
  8 10  1  0
 10 11  1  0
 11 12  1  0
 12 13  2  0
 13 14  1  0
 14 15  1  0
 15 16  2  0
 16 17  1  0
 17 18  2  0
 18 19  1  0
 19 20  2  0
 14 21  2  0
 21 22  1  0
 22 23  1  0
 23 24  1  0
 23 25  1  0
 23 26  1  0
 22 27  2  0
 27 28  1  0
 28 29  1  0
  5 30  2  0
 30 31  1  0
 31 32  1  0
 32 33  1  0
 31 34  2  0
 34 35  1  0
 35 36  1  0
 34  3  1  0
 28 10  2  0
 27 12  1  0
 20 15  1  0
  1 37  1  0
  1 38  1  0
  1 39  1  0
  4 40  1  0
  6 41  1  0
  6 42  1  0
  7 43  1  0
 16 44  1  0
 17 45  1  0
 18 46  1  0
 19 47  1  0
 20 48  1  0
 21 49  1  0
 29 50  1  0
 29 51  1  0
 30 52  1  0
 33 53  1  0
 33 54  1  0
 33 55  1  0
 36 56  1  0
 36 57  1  0
 36 58  1  0
M  END
>  <Binding energies>  (1) 
[-7.61]

>  <Ligand effiencies>  (1) 
[-0.19512820512820514]

>  <Interactions>  (1) 
["V-B:TYR:539:CZ:9849, V-B:PRO:540:N:9856, V-B:TYR:539:CE1:9847, V-B:PRO:540:CB:9857, V-B:TYR:539:CD1:9845, V-B:PRO:540:CA:9855, V-B:TYR:539:CE2:9848, H-B:TYR:539:N:9842, V-B:MET:535:CE:9807, V-B:LEU:363:CD1:8160, V-B:TYR:539:C:9839, V-B:TYR:539:CG:9844, H-B:GLU:543:OE1:9881, V-B:TYR:539:CD2:9846, V-B:TYR:531:CE2:9765, V-B:GLU:543:CG:9879, V-A:TYR:484:CZ:4347, V-B:GLU:543:CB:9878, V-A:GLU:543:CD:4908, V-A:TYR:484:CE2:4346, V-B:GLU:543:CD:9880, V-B:HIS:456:CE1:9041, V-B:GLY:544:C:9884, V-B:GLU:543:C:9874, V-B:HIS:456:CD2:9039, V-B:LYS:547:CE:9922, V-A:HIS:456:CE1:4070, V-A:GLU:543:CG:4907, V-A:GLU:543:CB:4906, H-A:GLU:543:OE1:4909, H-A:GLU:543:OE2:4910, V-B:TYR:484:CZ:9318, H-B:GLU:543:OE2:9882, V-B:ASN:362:CB:8147, V-B:TYR:484:CE2:9317, V-B:ASN:362:C:8143"]

$$$$
4ci_Grossjean_2025
     RDKit          3D

 39 42  0  0  0  0  0  0  0  0999 V2000
  129.1800  127.2010   63.9360 N   0  0  0  0  0  0  0  0  0  0  0  0
  129.4900  126.5160   65.0820 C   0  0  0  0  0  0  0  0  0  0  0  0
  130.1440  125.2730   65.0840 C   0  0  0  0  0  0  0  0  0  0  0  0
  130.6210  124.4910   63.9400 C   0  0  0  0  0  0  0  0  0  0  0  0
  130.0230  124.5250   62.8620 O   0  0  0  0  0  0  0  0  0  0  0  0
  131.7300  123.7440   64.1650 N   0  0  0  0  0  0  0  0  0  0  0  0
  132.3880  122.9140   63.2660 C   0  0  0  0  0  0  0  0  0  0  0  0
  131.7870  122.4100   62.1130 C   0  0  0  0  0  0  0  0  0  0  0  0
  132.7570  121.6450   61.5080 C   0  0  0  0  0  0  0  0  0  0  0  0
  133.8850  121.6850   62.2590 O   0  0  0  0  0  0  0  0  0  0  0  0
  133.6370  122.4920   63.3710 N   0  0  0  0  0  0  0  0  0  0  0  0
  130.3920  124.6850   66.7260 S   0  0  0  0  0  0  0  0  0  0  0  0
  129.6120  126.0980   67.3980 C   0  0  0  0  0  0  0  0  0  0  0  0
  129.4740  126.2580   68.7120 N   0  0  0  0  0  0  0  0  0  0  0  0
  128.8570  127.3900   69.1400 C   0  0  0  0  0  0  0  0  0  0  0  0
  128.7120  127.5390   70.6280 C   0  0  0  0  0  0  0  0  0  0  0  0
  127.5250  127.1620   71.2770 C   0  0  0  0  0  0  0  0  0  0  0  0
  127.3850  127.2970   72.6560 C   0  0  0  0  0  0  0  0  0  0  0  0
  128.4340  127.8150   73.4080 C   0  0  0  0  0  0  0  0  0  0  0  0
  129.6180  128.2000   72.7910 C   0  0  0  0  0  0  0  0  0  0  0  0
  129.7540  128.0650   71.4120 C   0  0  0  0  0  0  0  0  0  0  0  0
  128.3670  128.3470   68.2450 C   0  0  0  0  0  0  0  0  0  0  0  0
  128.5080  128.1890   66.8570 C   0  0  0  0  0  0  0  0  0  0  0  0
  127.9470  129.2770   65.9340 C   0  0  0  0  0  0  0  0  0  0  0  0
  128.5760  129.3430   64.7590 F   0  0  0  0  0  0  0  0  0  0  0  0
  126.6600  129.0360   65.6850 F   0  0  0  0  0  0  0  0  0  0  0  0
  128.0660  130.4700   66.5190 F   0  0  0  0  0  0  0  0  0  0  0  0
  129.1640  127.0110   66.3980 C   0  0  0  0  0  0  0  0  0  0  0  0
  128.2950  127.0810   63.4630 H   0  0  0  0  0  0  0  0  0  0  0  0
  129.8290  127.8590   63.5260 H   0  0  0  0  0  0  0  0  0  0  0  0
  132.1330  123.7860   65.0890 H   0  0  0  0  0  0  0  0  0  0  0  0
  130.7592  122.5862   61.7629 H   0  0  0  0  0  0  0  0  0  0  0  0
  132.6368  121.0899   60.5660 H   0  0  0  0  0  0  0  0  0  0  0  0
  126.6920  126.7533   70.6863 H   0  0  0  0  0  0  0  0  0  0  0  0
  126.4488  126.9952   73.1483 H   0  0  0  0  0  0  0  0  0  0  0  0
  128.3258  127.9205   74.4976 H   0  0  0  0  0  0  0  0  0  0  0  0
  130.4447  128.6099   73.3898 H   0  0  0  0  0  0  0  0  0  0  0  0
  130.6919  128.3749   70.9279 H   0  0  0  0  0  0  0  0  0  0  0  0
  127.8609  129.2416   68.6367 H   0  0  0  0  0  0  0  0  0  0  0  0
  1  2  1  0
  2  3  2  0
  3  4  1  0
  4  5  2  0
  4  6  1  0
  6  7  1  0
  7  8  1  0
  8  9  2  0
  9 10  1  0
 10 11  1  0
  3 12  1  0
 12 13  1  0
 13 14  2  0
 14 15  1  0
 15 16  1  0
 16 17  2  0
 17 18  1  0
 18 19  2  0
 19 20  1  0
 20 21  2  0
 15 22  2  0
 22 23  1  0
 23 24  1  0
 24 25  1  0
 24 26  1  0
 24 27  1  0
 23 28  2  0
 28  2  1  0
 11  7  2  0
 28 13  1  0
 21 16  1  0
  1 29  1  0
  1 30  1  0
  6 31  1  0
  8 32  1  0
  9 33  1  0
 17 34  1  0
 18 35  1  0
 19 36  1  0
 20 37  1  0
 21 38  1  0
 22 39  1  0
M  END
>  <Binding energies>  (1) 
[-6.72]

>  <Ligand effiencies>  (1) 
[-0.2167741935483871]

>  <Interactions>  (1) 
["H-B:GLU:543:OE1:9881, V-B:GLU:543:CG:9879, V-A:LEU:475:CD2:4259, V-A:TYR:484:CZ:4347, V-B:GLU:543:CB:9878, H-A:TYR:484:OH:4348, V-A:GLU:543:CD:4908, V-A:TYR:484:CE2:4346, V-B:GLU:543:CD:9880, V-B:HIS:456:CE1:9041, V-B:GLY:544:C:9884, V-B:HIS:456:CD2:9039, V-B:LYS:547:CE:9922, V-A:HIS:456:CE1:4070, V-A:GLU:543:CG:4907, V-A:GLU:543:CB:4906, V-B:HIS:456:CG:9037, H-A:GLU:543:OE1:4909, H-A:GLU:543:OE2:4910, V-B:TYR:484:CZ:9318, V-A:GLU:543:CA:4904, H-B:GLU:543:OE2:9882, H-A:GLY:454:N:4050, V-B:TYR:484:CE2:9317"]

$$$$
4cj_Grossjean_2025
     RDKit          3D

 39 42  0  0  0  0  0  0  0  0999 V2000
  129.0700  127.1860   63.7830 N   0  0  0  0  0  0  0  0  0  0  0  0
  129.4760  126.5240   64.9140 C   0  0  0  0  0  0  0  0  0  0  0  0
  130.2690  125.3650   64.8840 C   0  0  0  0  0  0  0  0  0  0  0  0
  130.8090  124.6580   63.7200 C   0  0  0  0  0  0  0  0  0  0  0  0
  130.4050  124.9130   62.5830 O   0  0  0  0  0  0  0  0  0  0  0  0
  131.7530  123.7230   63.9940 N   0  0  0  0  0  0  0  0  0  0  0  0
  132.4190  122.9190   63.0790 C   0  0  0  0  0  0  0  0  0  0  0  0
  133.7110  122.6760   63.0080 N   0  0  0  0  0  0  0  0  0  0  0  0
  133.9960  121.8610   62.0120 C   0  0  0  0  0  0  0  0  0  0  0  0
  132.9200  121.4220   61.2470 C   0  0  0  0  0  0  0  0  0  0  0  0
  131.4570  122.1220   61.8760 S   0  0  0  0  0  0  0  0  0  0  0  0
  130.6140  124.7870   66.5120 S   0  0  0  0  0  0  0  0  0  0  0  0
  129.6950  126.0950   67.2190 C   0  0  0  0  0  0  0  0  0  0  0  0
  129.5710  126.2230   68.5380 N   0  0  0  0  0  0  0  0  0  0  0  0
  128.8450  127.2750   68.9950 C   0  0  0  0  0  0  0  0  0  0  0  0
  128.7360  127.3980   70.4880 C   0  0  0  0  0  0  0  0  0  0  0  0
  127.5940  126.9420   71.1650 C   0  0  0  0  0  0  0  0  0  0  0  0
  127.4840  127.0580   72.5490 C   0  0  0  0  0  0  0  0  0  0  0  0
  128.5190  127.6370   73.2770 C   0  0  0  0  0  0  0  0  0  0  0  0
  129.6600  128.0990   72.6310 C   0  0  0  0  0  0  0  0  0  0  0  0
  129.7660  127.9790   71.2480 C   0  0  0  0  0  0  0  0  0  0  0  0
  128.2250  128.1790   68.1250 C   0  0  0  0  0  0  0  0  0  0  0  0
  128.3470  128.0520   66.7320 C   0  0  0  0  0  0  0  0  0  0  0  0
  127.6440  129.0790   65.8370 C   0  0  0  0  0  0  0  0  0  0  0  0
  127.3370  128.6000   64.6310 F   0  0  0  0  0  0  0  0  0  0  0  0
  126.5080  129.4740   66.4110 F   0  0  0  0  0  0  0  0  0  0  0  0
  128.4360  130.1370   65.6570 F   0  0  0  0  0  0  0  0  0  0  0  0
  129.1230  126.9630   66.2420 C   0  0  0  0  0  0  0  0  0  0  0  0
  128.2310  126.9250   63.2830 H   0  0  0  0  0  0  0  0  0  0  0  0
  129.5960  127.9660   63.4140 H   0  0  0  0  0  0  0  0  0  0  0  0
  131.9980  123.5810   64.9630 H   0  0  0  0  0  0  0  0  0  0  0  0
  135.0277  121.5454   61.7975 H   0  0  0  0  0  0  0  0  0  0  0  0
  132.9840  120.7425   60.3843 H   0  0  0  0  0  0  0  0  0  0  0  0
  126.7724  126.4856   70.5934 H   0  0  0  0  0  0  0  0  0  0  0  0
  126.5829  126.6935   73.0640 H   0  0  0  0  0  0  0  0  0  0  0  0
  128.4338  127.7296   74.3698 H   0  0  0  0  0  0  0  0  0  0  0  0
  130.4754  128.5573   73.2099 H   0  0  0  0  0  0  0  0  0  0  0  0
  130.6712  128.3451   70.7414 H   0  0  0  0  0  0  0  0  0  0  0  0
  127.6302  129.0056   68.5408 H   0  0  0  0  0  0  0  0  0  0  0  0
  1  2  1  0
  2  3  2  0
  3  4  1  0
  4  5  2  0
  4  6  1  0
  6  7  1  0
  7  8  2  0
  8  9  1  0
  9 10  2  0
 10 11  1  0
  3 12  1  0
 12 13  1  0
 13 14  2  0
 14 15  1  0
 15 16  1  0
 16 17  2  0
 17 18  1  0
 18 19  2  0
 19 20  1  0
 20 21  2  0
 15 22  2  0
 22 23  1  0
 23 24  1  0
 24 25  1  0
 24 26  1  0
 24 27  1  0
 23 28  2  0
 28  2  1  0
 11  7  1  0
 28 13  1  0
 21 16  1  0
  1 29  1  0
  1 30  1  0
  6 31  1  0
  9 32  1  0
 10 33  1  0
 17 34  1  0
 18 35  1  0
 19 36  1  0
 20 37  1  0
 21 38  1  0
 22 39  1  0
M  END
>  <Binding energies>  (1) 
[-6.88]

>  <Ligand effiencies>  (1) 
[-0.22193548387096773]

>  <Interactions>  (1) 
["H-B:GLU:543:OE1:9881, V-A:ILE:369:CD1:3239, V-B:GLU:543:CG:9879, V-A:ILE:369:CG2:3237, V-A:LEU:475:CD2:4259, V-A:TYR:484:CZ:4347, V-B:GLU:543:CB:9878, H-A:TYR:484:OH:4348, V-A:GLU:543:CD:4908, V-A:TYR:484:CE2:4346, V-A:GLY:454:CA:4049, V-B:GLU:543:CD:9880, V-B:HIS:456:CE1:9041, V-B:GLY:544:C:9884, V-B:GLU:543:C:9874, V-B:HIS:456:CD2:9039, V-B:LYS:547:CE:9922, V-A:HIS:456:CE1:4070, V-A:GLU:543:CG:4907, V-A:GLU:543:CB:4906, V-B:GLY:544:CA:9886, H-A:GLU:543:OE1:4909, H-A:GLU:543:OE2:4910, V-B:TYR:484:CZ:9318, H-B:GLU:543:OE2:9882, H-A:GLY:454:N:4050, V-B:TYR:484:CE2:9317, V-A:SER:385:C:3405"]

$$$$
4ck_Grossjean_2025
     RDKit          3D

 57 59  0  0  0  0  0  0  0  0999 V2000
  125.1450  122.3810   56.2470 C   0  0  0  0  0  0  0  0  0  0  0  0
  126.5050  121.9850   56.1630 O   0  0  0  0  0  0  0  0  0  0  0  0
  127.3580  122.7040   57.0420 C   0  0  0  0  0  0  0  0  0  0  0  0
  126.5290  123.7470   57.8020 C   0  0  0  0  0  0  0  0  0  0  0  0
  126.1960  123.2310   59.0830 O   0  0  0  0  0  0  0  0  0  0  0  0
  125.7330  124.2210   59.9920 C   0  0  0  0  0  0  0  0  0  0  0  0
  126.7460  124.3690   61.1340 C   0  0  0  0  0  0  0  0  0  0  0  0
  126.9630  123.0930   61.7200 O   0  0  0  0  0  0  0  0  0  0  0  0
  128.0310  122.3620   61.1300 C   0  0  0  0  0  0  0  0  0  0  0  0
  129.3730  122.9800   61.5510 C   0  0  0  0  0  0  0  0  0  0  0  0
  129.2420  123.8190   62.7430 N   0  0  0  0  0  0  0  0  0  0  0  0
  130.2470  124.4700   63.3650 C   0  0  0  0  0  0  0  0  0  0  0  0
  131.4090  124.4440   62.9580 O   0  0  0  0  0  0  0  0  0  0  0  0
  129.8740  125.2310   64.5580 C   0  0  0  0  0  0  0  0  0  0  0  0
  130.1890  124.5710   66.1610 S   0  0  0  0  0  0  0  0  0  0  0  0
  129.5540  126.0090   66.9250 C   0  0  0  0  0  0  0  0  0  0  0  0
  129.5160  126.1330   68.2490 N   0  0  0  0  0  0  0  0  0  0  0  0
  129.0040  127.2860   68.7520 C   0  0  0  0  0  0  0  0  0  0  0  0
  128.9920  127.4030   70.2490 C   0  0  0  0  0  0  0  0  0  0  0  0
  127.8830  126.9710   70.9950 C   0  0  0  0  0  0  0  0  0  0  0  0
  127.8650  127.0780   72.3840 C   0  0  0  0  0  0  0  0  0  0  0  0
  128.9600  127.6210   73.0480 C   0  0  0  0  0  0  0  0  0  0  0  0
  130.0730  128.0510   72.3340 C   0  0  0  0  0  0  0  0  0  0  0  0
  130.0880  127.9410   70.9460 C   0  0  0  0  0  0  0  0  0  0  0  0
  128.5410  128.3130   67.9220 C   0  0  0  0  0  0  0  0  0  0  0  0
  128.5750  128.1920   66.5240 C   0  0  0  0  0  0  0  0  0  0  0  0
  128.0480  129.3540   65.6740 C   0  0  0  0  0  0  0  0  0  0  0  0
  128.7130  129.5090   64.5280 F   0  0  0  0  0  0  0  0  0  0  0  0
  126.7680  129.1440   65.3680 F   0  0  0  0  0  0  0  0  0  0  0  0
  128.1550  130.4950   66.3550 F   0  0  0  0  0  0  0  0  0  0  0  0
  129.1080  126.9850   65.9860 C   0  0  0  0  0  0  0  0  0  0  0  0
  129.3110  126.5140   64.6370 C   0  0  0  0  0  0  0  0  0  0  0  0
  128.9790  127.2560   63.5330 N   0  0  0  0  0  0  0  0  0  0  0  0
  124.8525  122.4662   57.3040 H   0  0  0  0  0  0  0  0  0  0  0  0
  125.0152  123.3542   55.7511 H   0  0  0  0  0  0  0  0  0  0  0  0
  124.5130  121.6296   55.7511 H   0  0  0  0  0  0  0  0  0  0  0  0
  127.8208  122.0084   57.7575 H   0  0  0  0  0  0  0  0  0  0  0  0
  128.1476  123.2067   56.4643 H   0  0  0  0  0  0  0  0  0  0  0  0
  127.1152  124.6706   57.9177 H   0  0  0  0  0  0  0  0  0  0  0  0
  125.6093  123.9702   57.2413 H   0  0  0  0  0  0  0  0  0  0  0  0
  125.6270  125.1819   59.4671 H   0  0  0  0  0  0  0  0  0  0  0  0
  124.7566  123.9208   60.4002 H   0  0  0  0  0  0  0  0  0  0  0  0
  127.6948  124.7607   60.7385 H   0  0  0  0  0  0  0  0  0  0  0  0
  126.3581  125.0672   61.8903 H   0  0  0  0  0  0  0  0  0  0  0  0
  127.9882  121.3156   61.4665 H   0  0  0  0  0  0  0  0  0  0  0  0
  127.9387  122.4006   60.0346 H   0  0  0  0  0  0  0  0  0  0  0  0
  130.0856  122.1696   61.7641 H   0  0  0  0  0  0  0  0  0  0  0  0
  129.7272  123.6157   60.7261 H   0  0  0  0  0  0  0  0  0  0  0  0
  128.3020  123.9600   63.0840 H   0  0  0  0  0  0  0  0  0  0  0  0
  127.0147  126.5413   70.4741 H   0  0  0  0  0  0  0  0  0  0  0  0
  126.9886  126.7345   72.9531 H   0  0  0  0  0  0  0  0  0  0  0  0
  128.9454  127.7108   74.1442 H   0  0  0  0  0  0  0  0  0  0  0  0
  130.9382  128.4764   72.8636 H   0  0  0  0  0  0  0  0  0  0  0  0
  130.9717  128.2805   70.3858 H   0  0  0  0  0  0  0  0  0  0  0  0
  128.1425  129.2333   68.3740 H   0  0  0  0  0  0  0  0  0  0  0  0
  128.1040  127.1270   63.0440 H   0  0  0  0  0  0  0  0  0  0  0  0
  129.6010  127.9670   63.1710 H   0  0  0  0  0  0  0  0  0  0  0  0
  1  2  1  0
  2  3  1  0
  3  4  1  0
  4  5  1  0
  5  6  1  0
  6  7  1  0
  7  8  1  0
  8  9  1  0
  9 10  1  0
 10 11  1  0
 11 12  1  0
 12 13  2  0
 12 14  1  0
 14 15  1  0
 15 16  1  0
 16 17  2  0
 17 18  1  0
 18 19  1  0
 19 20  2  0
 20 21  1  0
 21 22  2  0
 22 23  1  0
 23 24  2  0
 18 25  2  0
 25 26  1  0
 26 27  1  0
 27 28  1  0
 27 29  1  0
 27 30  1  0
 26 31  2  0
 31 32  1  0
 32 33  1  0
 32 14  2  0
 31 16  1  0
 24 19  1  0
  1 34  1  0
  1 35  1  0
  1 36  1  0
  3 37  1  0
  3 38  1  0
  4 39  1  0
  4 40  1  0
  6 41  1  0
  6 42  1  0
  7 43  1  0
  7 44  1  0
  9 45  1  0
  9 46  1  0
 10 47  1  0
 10 48  1  0
 11 49  1  0
 20 50  1  0
 21 51  1  0
 22 52  1  0
 23 53  1  0
 24 54  1  0
 25 55  1  0
 33 56  1  0
 33 57  1  0
M  END
>  <Binding energies>  (1) 
[-7.23]

>  <Ligand effiencies>  (1) 
[-0.20083333333333334]

>  <Interactions>  (1) 
["V-B:TYR:539:CZ:9849, V-B:PRO:540:N:9856, V-B:TYR:539:CE1:9847, V-B:PRO:540:CB:9857, V-B:TYR:539:CD1:9845, V-B:PRO:540:CA:9855, V-B:TYR:539:CE2:9848, H-B:TYR:539:N:9842, V-B:PRO:540:CD:9859, V-B:MET:535:CE:9807, V-B:LEU:363:CD1:8160, V-B:PRO:540:CG:9858, V-B:TYR:539:C:9839, V-B:TYR:539:CG:9844, H-B:GLU:543:OE1:9881, V-B:PRO:540:C:9853, H-B:ALA:541:N:9863, V-B:TYR:539:CD2:9846, V-B:GLU:543:CG:9879, V-A:TYR:484:CZ:4347, V-B:GLU:543:CB:9878, V-A:GLU:543:CD:4908, V-A:TYR:484:CE2:4346, V-B:GLU:543:CD:9880, V-B:HIS:456:CE1:9041, V-B:GLY:544:C:9884, V-B:GLU:543:C:9874, V-B:HIS:456:CD2:9039, V-B:LYS:547:CE:9922, V-A:HIS:456:CE1:4070, V-A:GLU:543:CG:4907, V-A:GLU:543:CB:4906, H-A:GLU:543:OE1:4909, H-A:GLU:543:OE2:4910, V-B:TYR:484:CZ:9318, V-A:GLU:543:CA:4904, H-B:GLU:543:OE2:9882, V-B:ILE:538:CG2:9835, V-B:TYR:484:CE2:9317"]

$$$$
4dd_Grossjean_2025
     RDKit          3D

 43 46  0  0  0  0  0  0  0  0999 V2000
  127.7050  129.0940   65.8910 C   0  0  0  0  0  0  0  0  0  0  0  0
  128.4030  128.0510   66.7510 C   0  0  0  0  0  0  0  0  0  0  0  0
  128.3240  128.1820   68.1430 C   0  0  0  0  0  0  0  0  0  0  0  0
  128.9450  127.2550   68.9890 C   0  0  0  0  0  0  0  0  0  0  0  0
  128.8810  127.3740   70.4830 C   0  0  0  0  0  0  0  0  0  0  0  0
  129.9500  127.9240   71.2080 C   0  0  0  0  0  0  0  0  0  0  0  0
  129.8960  128.0400   72.5950 C   0  0  0  0  0  0  0  0  0  0  0  0
  128.7680  127.6030   73.2790 C   0  0  0  0  0  0  0  0  0  0  0  0
  127.6930  127.0550   72.5870 C   0  0  0  0  0  0  0  0  0  0  0  0
  127.7500  126.9430   71.2000 C   0  0  0  0  0  0  0  0  0  0  0  0
  129.6570  126.2030   68.5030 N   0  0  0  0  0  0  0  0  0  0  0  0
  129.7280  126.0730   67.1790 C   0  0  0  0  0  0  0  0  0  0  0  0
  130.5950  124.7570   66.4200 S   0  0  0  0  0  0  0  0  0  0  0  0
  130.1770  125.3480   64.8100 C   0  0  0  0  0  0  0  0  0  0  0  0
  130.6220  124.6250   63.6170 C   0  0  0  0  0  0  0  0  0  0  0  0
  130.1690  124.9070   62.5060 O   0  0  0  0  0  0  0  0  0  0  0  0
  131.5480  123.6600   63.8340 N   0  0  0  0  0  0  0  0  0  0  0  0
  132.1350  122.7600   62.9260 C   0  0  0  0  0  0  0  0  0  0  0  0
  131.2540  122.0980   62.0660 C   0  0  0  0  0  0  0  0  0  0  0  0
  131.7390  121.1980   61.1210 C   0  0  0  0  0  0  0  0  0  0  0  0
  133.1080  120.9630   61.0300 C   0  0  0  0  0  0  0  0  0  0  0  0
  133.9980  121.6240   61.8730 C   0  0  0  0  0  0  0  0  0  0  0  0
  133.5160  122.5250   62.8190 C   0  0  0  0  0  0  0  0  0  0  0  0
  129.4050  126.5170   64.8860 C   0  0  0  0  0  0  0  0  0  0  0  0
  128.9410  127.1990   63.7880 N   0  0  0  0  0  0  0  0  0  0  0  0
  129.1320  126.9510   66.2300 C   0  0  0  0  0  0  0  0  0  0  0  0
  127.2107  129.8326   66.5392 H   0  0  0  0  0  0  0  0  0  0  0  0
  128.4462  129.6013   65.2560 H   0  0  0  0  0  0  0  0  0  0  0  0
  126.9534  128.6022   65.2560 H   0  0  0  0  0  0  0  0  0  0  0  0
  127.7665  129.0247   68.5778 H   0  0  0  0  0  0  0  0  0  0  0  0
  130.8459  128.2694   70.6713 H   0  0  0  0  0  0  0  0  0  0  0  0
  130.7423  128.4755   73.1464 H   0  0  0  0  0  0  0  0  0  0  0  0
  128.7250  127.6910   74.3746 H   0  0  0  0  0  0  0  0  0  0  0  0
  126.8018  126.7116   73.1328 H   0  0  0  0  0  0  0  0  0  0  0  0
  126.8970  126.5106   70.6564 H   0  0  0  0  0  0  0  0  0  0  0  0
  131.8830  123.5720   64.7820 H   0  0  0  0  0  0  0  0  0  0  0  0
  130.1730  122.2890   62.1362 H   0  0  0  0  0  0  0  0  0  0  0  0
  131.0431  120.6746   60.4489 H   0  0  0  0  0  0  0  0  0  0  0  0
  133.4903  120.2489   60.2857 H   0  0  0  0  0  0  0  0  0  0  0  0
  135.0786  121.4349   61.7918 H   0  0  0  0  0  0  0  0  0  0  0  0
  134.2167  123.0529   63.4827 H   0  0  0  0  0  0  0  0  0  0  0  0
  129.0350  126.8300   62.8520 H   0  0  0  0  0  0  0  0  0  0  0  0
  128.4850  128.0950   63.8820 H   0  0  0  0  0  0  0  0  0  0  0  0
  1  2  1  0
  2  3  2  0
  3  4  1  0
  4  5  1  0
  5  6  2  0
  6  7  1  0
  7  8  2  0
  8  9  1  0
  9 10  2  0
  4 11  2  0
 11 12  1  0
 12 13  1  0
 13 14  1  0
 14 15  1  0
 15 16  2  0
 15 17  1  0
 17 18  1  0
 18 19  2  0
 19 20  1  0
 20 21  2  0
 21 22  1  0
 22 23  2  0
 14 24  2  0
 24 25  1  0
 24 26  1  0
 26  2  1  0
 10  5  1  0
 26 12  2  0
 23 18  1  0
  1 27  1  0
  1 28  1  0
  1 29  1  0
  3 30  1  0
  6 31  1  0
  7 32  1  0
  8 33  1  0
  9 34  1  0
 10 35  1  0
 17 36  1  0
 19 37  1  0
 20 38  1  0
 21 39  1  0
 22 40  1  0
 23 41  1  0
 25 42  1  0
 25 43  1  0
M  END
>  <Binding energies>  (1) 
[-7.17]

>  <Ligand effiencies>  (1) 
[-0.24724137931034482]

>  <Interactions>  (1) 
["V-B:TYR:539:CE2:9848, H-B:GLU:543:OE1:9881, V-B:TYR:539:CD2:9846, V-A:ILE:369:CD1:3239, V-B:GLU:543:CG:9879, V-A:ILE:369:CG2:3237, V-A:LEU:475:CD2:4259, V-A:TYR:484:CZ:4347, V-B:GLU:543:CB:9878, H-A:TYR:484:OH:4348, V-A:GLU:543:CD:4908, V-A:TYR:484:CE2:4346, V-A:GLY:454:CA:4049, V-B:GLU:543:CD:9880, V-B:HIS:456:CE1:9041, V-B:GLY:544:C:9884, V-B:GLU:543:C:9874, V-B:HIS:456:CD2:9039, V-B:LYS:547:CE:9922, V-A:HIS:456:CE1:4070, V-A:GLU:543:CG:4907, V-A:GLU:543:CB:4906, H-A:GLU:543:OE1:4909, H-B:GLU:543:OE2:9882, V-A:SER:385:CB:3409, V-A:SER:385:C:3405"]

$$$$
4dg_Grossjean_2025
     RDKit          3D

 46 49  0  0  0  0  0  0  0  0999 V2000
  128.1140  129.3820   65.9330 C   0  0  0  0  0  0  0  0  0  0  0  0
  128.6310  128.2180   66.7640 C   0  0  0  0  0  0  0  0  0  0  0  0
  128.6850  128.3720   68.1540 C   0  0  0  0  0  0  0  0  0  0  0  0
  129.1500  127.3380   68.9760 C   0  0  0  0  0  0  0  0  0  0  0  0
  129.2180  127.4740   70.4710 C   0  0  0  0  0  0  0  0  0  0  0  0
  128.1140  127.1480   71.2750 C   0  0  0  0  0  0  0  0  0  0  0  0
  128.1710  127.2760   72.6610 C   0  0  0  0  0  0  0  0  0  0  0  0
  129.3370  127.7330   73.2650 C   0  0  0  0  0  0  0  0  0  0  0  0
  130.4450  128.0680   72.4920 C   0  0  0  0  0  0  0  0  0  0  0  0
  130.3830  127.9390   71.1080 C   0  0  0  0  0  0  0  0  0  0  0  0
  129.5500  126.1420   68.4670 N   0  0  0  0  0  0  0  0  0  0  0  0
  129.5000  125.9930   67.1430 C   0  0  0  0  0  0  0  0  0  0  0  0
  129.9900  124.5100   66.3590 S   0  0  0  0  0  0  0  0  0  0  0  0
  129.6100  125.1730   64.7700 C   0  0  0  0  0  0  0  0  0  0  0  0
  129.8540  124.3810   63.5660 C   0  0  0  0  0  0  0  0  0  0  0  0
  130.9990  124.1330   63.1820 O   0  0  0  0  0  0  0  0  0  0  0  0
  128.7560  123.9800   62.8920 N   0  0  0  0  0  0  0  0  0  0  0  0
  128.7590  123.1630   61.6790 C   0  0  0  0  0  0  0  0  0  0  0  0
  127.5770  123.4440   60.7570 C   0  0  0  0  0  0  0  0  0  0  0  0
  127.7520  123.4020   59.3710 C   0  0  0  0  0  0  0  0  0  0  0  0
  126.6690  123.6270   58.5260 C   0  0  0  0  0  0  0  0  0  0  0  0
  125.4120  123.8810   59.0700 C   0  0  0  0  0  0  0  0  0  0  0  0
  125.2260  123.9070   60.4500 C   0  0  0  0  0  0  0  0  0  0  0  0
  126.3090  123.6820   61.2950 C   0  0  0  0  0  0  0  0  0  0  0  0
  129.1420  126.4920   64.8670 C   0  0  0  0  0  0  0  0  0  0  0  0
  128.7850  127.2570   63.7860 N   0  0  0  0  0  0  0  0  0  0  0  0
  129.0580  126.9800   66.2170 C   0  0  0  0  0  0  0  0  0  0  0  0
  127.7593  130.1806   66.6012 H   0  0  0  0  0  0  0  0  0  0  0  0
  128.9252  129.7683   65.2984 H   0  0  0  0  0  0  0  0  0  0  0  0
  127.2835  129.0391   65.2984 H   0  0  0  0  0  0  0  0  0  0  0  0
  128.3574  129.3191   68.6075 H   0  0  0  0  0  0  0  0  0  0  0  0
  127.1890  126.7856   70.8027 H   0  0  0  0  0  0  0  0  0  0  0  0
  127.2964  127.0164   73.2756 H   0  0  0  0  0  0  0  0  0  0  0  0
  129.3841  127.8303   74.3597 H   0  0  0  0  0  0  0  0  0  0  0  0
  131.3647  128.4328   72.9727 H   0  0  0  0  0  0  0  0  0  0  0  0
  131.2608  128.2054   70.5009 H   0  0  0  0  0  0  0  0  0  0  0  0
  127.8530  124.1530   63.3080 H   0  0  0  0  0  0  0  0  0  0  0  0
  129.6883  123.3636   61.1257 H   0  0  0  0  0  0  0  0  0  0  0  0
  128.6820  122.1121   61.9949 H   0  0  0  0  0  0  0  0  0  0  0  0
  128.7453  123.1912   58.9480 H   0  0  0  0  0  0  0  0  0  0  0  0
  126.8050  123.6044   57.4347 H   0  0  0  0  0  0  0  0  0  0  0  0
  124.5570  124.0630   58.4023 H   0  0  0  0  0  0  0  0  0  0  0  0
  124.2286  124.1043   60.8699 H   0  0  0  0  0  0  0  0  0  0  0  0
  126.1671  123.6915   62.3858 H   0  0  0  0  0  0  0  0  0  0  0  0
  127.8830  127.1660   63.3420 H   0  0  0  0  0  0  0  0  0  0  0  0
  129.4160  127.9460   63.4000 H   0  0  0  0  0  0  0  0  0  0  0  0
  1  2  1  0
  2  3  2  0
  3  4  1  0
  4  5  1  0
  5  6  2  0
  6  7  1  0
  7  8  2  0
  8  9  1  0
  9 10  2  0
  4 11  2  0
 11 12  1  0
 12 13  1  0
 13 14  1  0
 14 15  1  0
 15 16  2  0
 15 17  1  0
 17 18  1  0
 18 19  1  0
 19 20  2  0
 20 21  1  0
 21 22  2  0
 22 23  1  0
 23 24  2  0
 14 25  2  0
 25 26  1  0
 25 27  1  0
 27  2  1  0
 10  5  1  0
 27 12  2  0
 24 19  1  0
  1 28  1  0
  1 29  1  0
  1 30  1  0
  3 31  1  0
  6 32  1  0
  7 33  1  0
  8 34  1  0
  9 35  1  0
 10 36  1  0
 17 37  1  0
 18 38  1  0
 18 39  1  0
 20 40  1  0
 21 41  1  0
 22 42  1  0
 23 43  1  0
 24 44  1  0
 26 45  1  0
 26 46  1  0
M  END
>  <Binding energies>  (1) 
[-7.79]

>  <Ligand effiencies>  (1) 
[-0.25966666666666666]

>  <Interactions>  (1) 
["V-B:PRO:540:CB:9857, V-B:PRO:540:CA:9855, H-B:GLU:543:OE1:9881, V-B:GLU:543:CG:9879, V-A:TYR:484:CZ:4347, V-B:GLU:543:CB:9878, V-A:GLU:543:CD:4908, V-A:TYR:484:CE2:4346, V-B:GLU:543:CD:9880, V-B:HIS:456:CE1:9041, V-A:GLY:544:C:4912, V-B:HIS:456:CD2:9039, V-A:HIS:456:CE1:4070, V-A:GLU:543:CG:4907, V-A:GLU:543:C:4902, V-A:GLU:543:CB:4906, H-A:GLU:543:OE1:4909, H-A:GLU:543:OE2:4910, H-B:GLU:543:OE2:9882, V-B:GLU:543:CA:9876"]

$$$$
4dj_Grossjean_2025
     RDKit          3D

 39 42  0  0  0  0  0  0  0  0999 V2000
  127.8430  129.1520   65.9440 C   0  0  0  0  0  0  0  0  0  0  0  0
  128.4680  128.0960   66.8440 C   0  0  0  0  0  0  0  0  0  0  0  0
  128.3370  128.2490   68.2290 C   0  0  0  0  0  0  0  0  0  0  0  0
  128.8900  127.3140   69.1120 C   0  0  0  0  0  0  0  0  0  0  0  0
  128.7600  127.4480   70.6030 C   0  0  0  0  0  0  0  0  0  0  0  0
  127.5620  127.1140   71.2550 C   0  0  0  0  0  0  0  0  0  0  0  0
  127.4350  127.2370   72.6360 C   0  0  0  0  0  0  0  0  0  0  0  0
  128.5090  127.7020   73.3880 C   0  0  0  0  0  0  0  0  0  0  0  0
  129.7060  128.0450   72.7690 C   0  0  0  0  0  0  0  0  0  0  0  0
  129.8280  127.9190   71.3880 C   0  0  0  0  0  0  0  0  0  0  0  0
  129.5590  126.2150   68.6680 N   0  0  0  0  0  0  0  0  0  0  0  0
  129.6860  126.0690   67.3500 C   0  0  0  0  0  0  0  0  0  0  0  0
  130.5290  124.7080   66.6430 S   0  0  0  0  0  0  0  0  0  0  0  0
  130.2140  125.3010   65.0110 C   0  0  0  0  0  0  0  0  0  0  0  0
  130.7050  124.5610   63.8480 C   0  0  0  0  0  0  0  0  0  0  0  0
  130.1610  124.6840   62.7470 O   0  0  0  0  0  0  0  0  0  0  0  0
  131.7660  123.7490   64.0780 N   0  0  0  0  0  0  0  0  0  0  0  0
  132.4160  122.9430   63.1540 C   0  0  0  0  0  0  0  0  0  0  0  0
  133.7030  122.6790   63.0770 N   0  0  0  0  0  0  0  0  0  0  0  0
  133.9720  121.8700   62.0710 C   0  0  0  0  0  0  0  0  0  0  0  0
  132.8860  121.4570   61.3050 C   0  0  0  0  0  0  0  0  0  0  0  0
  131.4380  122.1740   61.9460 S   0  0  0  0  0  0  0  0  0  0  0  0
  129.4900  126.5020   65.0400 C   0  0  0  0  0  0  0  0  0  0  0  0
  129.1080  127.1910   63.9160 N   0  0  0  0  0  0  0  0  0  0  0  0
  129.1730  126.9620   66.3660 C   0  0  0  0  0  0  0  0  0  0  0  0
  127.3800  129.9343   66.5634 H   0  0  0  0  0  0  0  0  0  0  0  0
  128.6215  129.6000   65.3090 H   0  0  0  0  0  0  0  0  0  0  0  0
  127.0757  128.6851   65.3090 H   0  0  0  0  0  0  0  0  0  0  0  0
  127.7917  129.1164   68.6294 H   0  0  0  0  0  0  0  0  0  0  0  0
  126.7089  126.7488   70.6643 H   0  0  0  0  0  0  0  0  0  0  0  0
  126.4898  126.9678   73.1301 H   0  0  0  0  0  0  0  0  0  0  0  0
  128.4107  127.7990   74.4793 H   0  0  0  0  0  0  0  0  0  0  0  0
  130.5520  128.4140   73.3674 H   0  0  0  0  0  0  0  0  0  0  0  0
  130.7762  128.1926   70.9021 H   0  0  0  0  0  0  0  0  0  0  0  0
  132.1280  123.7160   65.0200 H   0  0  0  0  0  0  0  0  0  0  0  0
  134.9977  121.5400   61.8496 H   0  0  0  0  0  0  0  0  0  0  0  0
  132.9358  120.7857   60.4350 H   0  0  0  0  0  0  0  0  0  0  0  0
  128.3090  126.9140   63.3660 H   0  0  0  0  0  0  0  0  0  0  0  0
  129.6190  128.0040   63.6010 H   0  0  0  0  0  0  0  0  0  0  0  0
  1  2  1  0
  2  3  2  0
  3  4  1  0
  4  5  1  0
  5  6  2  0
  6  7  1  0
  7  8  2  0
  8  9  1  0
  9 10  2  0
  4 11  2  0
 11 12  1  0
 12 13  1  0
 13 14  1  0
 14 15  1  0
 15 16  2  0
 15 17  1  0
 17 18  1  0
 18 19  2  0
 19 20  1  0
 20 21  2  0
 21 22  1  0
 14 23  2  0
 23 24  1  0
 23 25  1  0
 25  2  1  0
 10  5  1  0
 25 12  2  0
 22 18  1  0
  1 26  1  0
  1 27  1  0
  1 28  1  0
  3 29  1  0
  6 30  1  0
  7 31  1  0
  8 32  1  0
  9 33  1  0
 10 34  1  0
 17 35  1  0
 20 36  1  0
 21 37  1  0
 24 38  1  0
 24 39  1  0
M  END
>  <Binding energies>  (1) 
[-7.16]

>  <Ligand effiencies>  (1) 
[-0.2557142857142857]

>  <Interactions>  (1) 
["H-B:GLU:543:OE1:9881, V-A:ILE:369:CD1:3239, V-B:GLU:543:CG:9879, V-A:ILE:369:CG2:3237, V-A:LEU:475:CD2:4259, V-A:TYR:484:CZ:4347, V-B:GLU:543:CB:9878, H-A:TYR:484:OH:4348, V-A:GLU:543:CD:4908, V-A:TYR:484:CE2:4346, V-A:GLY:454:CA:4049, V-B:GLU:543:CD:9880, V-B:HIS:456:CE1:9041, V-B:GLY:544:C:9884, V-B:HIS:456:CD2:9039, V-B:LYS:547:CE:9922, V-A:HIS:456:CE1:4070, V-A:GLU:543:CG:4907, V-A:GLU:543:CB:4906, V-B:HIS:456:CG:9037, H-A:GLU:543:OE1:4909, H-A:GLU:543:OE2:4910, H-B:GLU:543:OE2:9882, H-A:GLY:454:N:4050"]

$$$$
4ea_Grossjean_2025
     RDKit          3D

 52 55  0  0  0  0  0  0  0  0999 V2000
  131.4160  131.9340   55.6710 C   0  0  0  0  0  0  0  0  0  0  0  0
  131.7510  132.6400   56.9880 C   0  0  0  0  0  0  0  0  0  0  0  0
  130.7550  133.6150   57.2680 O   0  0  0  0  0  0  0  0  0  0  0  0
  129.4790  133.2520   57.5570 C   0  0  0  0  0  0  0  0  0  0  0  0
  128.5200  133.4910   56.8160 O   0  0  0  0  0  0  0  0  0  0  0  0
  129.3490  132.5300   58.8670 C   0  0  0  0  0  0  0  0  0  0  0  0
  129.5560  131.1460   58.9080 C   0  0  0  0  0  0  0  0  0  0  0  0
  129.4430  130.4480   60.1070 C   0  0  0  0  0  0  0  0  0  0  0  0
  129.1220  131.1170   61.2880 C   0  0  0  0  0  0  0  0  0  0  0  0
  129.0350  130.3090   62.4390 N   0  0  0  0  0  0  0  0  0  0  0  0
  128.0080  129.5620   62.9120 C   0  0  0  0  0  0  0  0  0  0  0  0
  126.9090  129.4680   62.3640 O   0  0  0  0  0  0  0  0  0  0  0  0
  128.2820  128.8410   64.1580 C   0  0  0  0  0  0  0  0  0  0  0  0
  127.6550  129.4430   65.6950 S   0  0  0  0  0  0  0  0  0  0  0  0
  128.3820  128.1140   66.5670 C   0  0  0  0  0  0  0  0  0  0  0  0
  128.2590  127.9880   67.8900 N   0  0  0  0  0  0  0  0  0  0  0  0
  128.8700  126.9130   68.4450 C   0  0  0  0  0  0  0  0  0  0  0  0
  128.7180  126.7890   69.9500 C   0  0  0  0  0  0  0  0  0  0  0  0
  129.5930  125.9710   67.7170 C   0  0  0  0  0  0  0  0  0  0  0  0
  129.7200  126.1070   66.3310 C   0  0  0  0  0  0  0  0  0  0  0  0
  130.4920  125.0980   65.5710 C   0  0  0  0  0  0  0  0  0  0  0  0
  131.8150  125.3580   65.2000 C   0  0  0  0  0  0  0  0  0  0  0  0
  132.5420  124.4080   64.4870 C   0  0  0  0  0  0  0  0  0  0  0  0
  131.9440  123.1980   64.1430 C   0  0  0  0  0  0  0  0  0  0  0  0
  130.6260  122.9310   64.5030 C   0  0  0  0  0  0  0  0  0  0  0  0
  129.9000  123.8810   65.2160 C   0  0  0  0  0  0  0  0  0  0  0  0
  129.0930  127.2220   65.7090 C   0  0  0  0  0  0  0  0  0  0  0  0
  129.0200  127.6610   64.3400 C   0  0  0  0  0  0  0  0  0  0  0  0
  129.6240  126.9730   63.3180 N   0  0  0  0  0  0  0  0  0  0  0  0
  128.9130  132.5050   61.2570 C   0  0  0  0  0  0  0  0  0  0  0  0
  129.0260  133.2010   60.0570 C   0  0  0  0  0  0  0  0  0  0  0  0
  130.9534  130.9592   55.8849 H   0  0  0  0  0  0  0  0  0  0  0  0
  130.7155  132.5529   55.0911 H   0  0  0  0  0  0  0  0  0  0  0  0
  132.3384  131.7828   55.0911 H   0  0  0  0  0  0  0  0  0  0  0  0
  131.7811  131.9017   57.8028 H   0  0  0  0  0  0  0  0  0  0  0  0
  132.7317  133.1308   56.9026 H   0  0  0  0  0  0  0  0  0  0  0  0
  129.8102  130.6053   57.9844 H   0  0  0  0  0  0  0  0  0  0  0  0
  129.6081  129.3606   60.1232 H   0  0  0  0  0  0  0  0  0  0  0  0
  129.8800  130.2930   62.9910 H   0  0  0  0  0  0  0  0  0  0  0  0
  129.4781  127.4091   70.4476 H   0  0  0  0  0  0  0  0  0  0  0  0
  127.7151  127.1299   70.2466 H   0  0  0  0  0  0  0  0  0  0  0  0
  128.8506  125.7381   70.2466 H   0  0  0  0  0  0  0  0  0  0  0  0
  130.0638  125.1206   68.2320 H   0  0  0  0  0  0  0  0  0  0  0  0
  132.2828  126.3157   65.4721 H   0  0  0  0  0  0  0  0  0  0  0  0
  133.5832  124.6122   64.1970 H   0  0  0  0  0  0  0  0  0  0  0  0
  132.5185  122.4464   63.5817 H   0  0  0  0  0  0  0  0  0  0  0  0
  130.1604  121.9738   64.2254 H   0  0  0  0  0  0  0  0  0  0  0  0
  128.8579  123.6743   65.5011 H   0  0  0  0  0  0  0  0  0  0  0  0
  129.1780  126.1840   62.8700 H   0  0  0  0  0  0  0  0  0  0  0  0
  130.5390  127.2340   62.9770 H   0  0  0  0  0  0  0  0  0  0  0  0
  128.6596  133.0431   62.1823 H   0  0  0  0  0  0  0  0  0  0  0  0
  128.8605  134.2884   60.0409 H   0  0  0  0  0  0  0  0  0  0  0  0
  1  2  1  0
  2  3  1  0
  3  4  1  0
  4  5  2  0
  4  6  1  0
  6  7  2  0
  7  8  1  0
  8  9  2  0
  9 10  1  0
 10 11  1  0
 11 12  2  0
 11 13  1  0
 13 14  1  0
 14 15  1  0
 15 16  2  0
 16 17  1  0
 17 18  1  0
 17 19  2  0
 19 20  1  0
 20 21  1  0
 21 22  2  0
 22 23  1  0
 23 24  2  0
 24 25  1  0
 25 26  2  0
 20 27  2  0
 27 28  1  0
 28 29  1  0
  9 30  1  0
 30 31  2  0
 31  6  1  0
 28 13  2  0
 27 15  1  0
 26 21  1  0
  1 32  1  0
  1 33  1  0
  1 34  1  0
  2 35  1  0
  2 36  1  0
  7 37  1  0
  8 38  1  0
 10 39  1  0
 18 40  1  0
 18 41  1  0
 18 42  1  0
 19 43  1  0
 22 44  1  0
 23 45  1  0
 24 46  1  0
 25 47  1  0
 26 48  1  0
 29 49  1  0
 29 50  1  0
 30 51  1  0
 31 52  1  0
M  END
>  <Binding energies>  (1) 
[-8.52]

>  <Ligand effiencies>  (1) 
[-0.2505882352941176]

>  <Interactions>  (1) 
["V-A:LEU:363:CD1:3189, V-A:PRO:540:CA:4883, V-A:PRO:540:CB:4885, V-A:PRO:540:CD:4887, V-A:PRO:540:N:4884, V-A:TYR:539:C:4867, H-A:TYR:539:N:4870, H-B:GLU:543:OE1:9881, V-A:MET:535:CE:4835, V-B:GLU:543:CG:9879, V-A:LEU:475:CD2:4259, V-A:TYR:484:CZ:4347, V-B:GLU:543:CB:9878, V-A:GLU:543:CD:4908, V-A:TYR:484:CE2:4346, V-A:ARG:545:CZ:4926, V-B:GLU:543:CD:9880, V-B:GLU:543:C:9874, V-A:HIS:456:CE1:4070, V-A:GLU:543:CG:4907, V-A:GLU:543:CB:4906, H-A:GLU:543:OE1:4909, H-A:GLU:543:OE2:4910, V-A:TYR:539:CD1:4873, V-A:TYR:539:CG:4872, V-A:TYR:539:CA:4869, V-A:ILE:538:CG2:4863, V-A:ILE:538:CB:4862"]

$$$$
4eb_Grossjean_2025
     RDKit          3D

 49 52  0  0  0  0  0  0  0  0999 V2000
  131.7530  132.7750   56.4900 C   0  0  0  0  0  0  0  0  0  0  0  0
  130.9660  133.5520   57.3800 O   0  0  0  0  0  0  0  0  0  0  0  0
  129.6580  133.2550   57.5970 C   0  0  0  0  0  0  0  0  0  0  0  0
  128.7490  133.5870   56.8310 O   0  0  0  0  0  0  0  0  0  0  0  0
  129.4280  132.4810   58.8630 C   0  0  0  0  0  0  0  0  0  0  0  0
  130.4470  131.6530   59.3530 C   0  0  0  0  0  0  0  0  0  0  0  0
  130.2640  130.9240   60.5240 C   0  0  0  0  0  0  0  0  0  0  0  0
  129.0630  131.0050   61.2290 C   0  0  0  0  0  0  0  0  0  0  0  0
  128.9910  130.2230   62.3990 N   0  0  0  0  0  0  0  0  0  0  0  0
  127.9530  129.5320   62.9310 C   0  0  0  0  0  0  0  0  0  0  0  0
  126.8280  129.4790   62.4340 O   0  0  0  0  0  0  0  0  0  0  0  0
  128.2480  128.8230   64.1780 C   0  0  0  0  0  0  0  0  0  0  0  0
  127.6440  129.4370   65.7190 S   0  0  0  0  0  0  0  0  0  0  0  0
  128.3870  128.1160   66.5920 C   0  0  0  0  0  0  0  0  0  0  0  0
  128.2850  128.0020   67.9170 N   0  0  0  0  0  0  0  0  0  0  0  0
  128.9060  126.9330   68.4720 C   0  0  0  0  0  0  0  0  0  0  0  0
  128.7770  126.8220   69.9810 C   0  0  0  0  0  0  0  0  0  0  0  0
  129.6190  125.9850   67.7420 C   0  0  0  0  0  0  0  0  0  0  0  0
  129.7230  126.1090   66.3520 C   0  0  0  0  0  0  0  0  0  0  0  0
  130.4850  125.0940   65.5890 C   0  0  0  0  0  0  0  0  0  0  0  0
  129.8970  123.8640   65.2750 C   0  0  0  0  0  0  0  0  0  0  0  0
  130.6120  122.9090   64.5560 C   0  0  0  0  0  0  0  0  0  0  0  0
  131.9170  123.1840   64.1530 C   0  0  0  0  0  0  0  0  0  0  0  0
  132.5120  124.4050   64.4630 C   0  0  0  0  0  0  0  0  0  0  0  0
  131.7960  125.3590   65.1820 C   0  0  0  0  0  0  0  0  0  0  0  0
  129.0850  127.2180   65.7310 C   0  0  0  0  0  0  0  0  0  0  0  0
  128.9900  127.6450   64.3600 C   0  0  0  0  0  0  0  0  0  0  0  0
  129.5780  126.9490   63.3330 N   0  0  0  0  0  0  0  0  0  0  0  0
  128.0370  131.8310   60.7460 C   0  0  0  0  0  0  0  0  0  0  0  0
  128.2210  132.5600   59.5750 C   0  0  0  0  0  0  0  0  0  0  0  0
  132.4190  132.1175   57.0681 H   0  0  0  0  0  0  0  0  0  0  0  0
  131.0939  132.1636   55.8561 H   0  0  0  0  0  0  0  0  0  0  0  0
  132.3559  133.4418   55.8561 H   0  0  0  0  0  0  0  0  0  0  0  0
  131.3993  131.5788   58.8074 H   0  0  0  0  0  0  0  0  0  0  0  0
  131.0730  130.2786   60.8968 H   0  0  0  0  0  0  0  0  0  0  0  0
  129.8570  130.1780   62.9140 H   0  0  0  0  0  0  0  0  0  0  0  0
  129.5270  127.4674   70.4616 H   0  0  0  0  0  0  0  0  0  0  0  0
  127.7695  127.1399   70.2872 H   0  0  0  0  0  0  0  0  0  0  0  0
  128.9411  125.7783   70.2872 H   0  0  0  0  0  0  0  0  0  0  0  0
  130.0995  125.1402   68.2572 H   0  0  0  0  0  0  0  0  0  0  0  0
  128.8670  123.6504   65.5968 H   0  0  0  0  0  0  0  0  0  0  0  0
  130.1487  121.9427   64.3077 H   0  0  0  0  0  0  0  0  0  0  0  0
  132.4825  122.4305   63.5851 H   0  0  0  0  0  0  0  0  0  0  0  0
  133.5428  124.6147   64.1413 H   0  0  0  0  0  0  0  0  0  0  0  0
  132.2632  126.3234   65.4303 H   0  0  0  0  0  0  0  0  0  0  0  0
  129.1270  126.1540   62.9040 H   0  0  0  0  0  0  0  0  0  0  0  0
  130.4860  127.2110   62.9710 H   0  0  0  0  0  0  0  0  0  0  0  0
  127.0857  131.9025   61.2937 H   0  0  0  0  0  0  0  0  0  0  0  0
  127.4115  133.2053   59.2032 H   0  0  0  0  0  0  0  0  0  0  0  0
  1  2  1  0
  2  3  1  0
  3  4  2  0
  3  5  1  0
  5  6  2  0
  6  7  1  0
  7  8  2  0
  8  9  1  0
  9 10  1  0
 10 11  2  0
 10 12  1  0
 12 13  1  0
 13 14  1  0
 14 15  2  0
 15 16  1  0
 16 17  1  0
 16 18  2  0
 18 19  1  0
 19 20  1  0
 20 21  2  0
 21 22  1  0
 22 23  2  0
 23 24  1  0
 24 25  2  0
 19 26  2  0
 26 27  1  0
 27 28  1  0
  8 29  1  0
 29 30  2  0
 30  5  1  0
 27 12  2  0
 26 14  1  0
 25 20  1  0
  1 31  1  0
  1 32  1  0
  1 33  1  0
  6 34  1  0
  7 35  1  0
  9 36  1  0
 17 37  1  0
 17 38  1  0
 17 39  1  0
 18 40  1  0
 21 41  1  0
 22 42  1  0
 23 43  1  0
 24 44  1  0
 25 45  1  0
 28 46  1  0
 28 47  1  0
 29 48  1  0
 30 49  1  0
M  END
>  <Binding energies>  (1) 
[-8.28]

>  <Ligand effiencies>  (1) 
[-0.2509090909090909]

>  <Interactions>  (1) 
["V-A:LEU:363:CD1:3189, V-A:PRO:540:CA:4883, V-A:PRO:540:CD:4887, V-A:PRO:540:N:4884, V-A:TYR:539:C:4867, H-A:TYR:539:N:4870, H-B:GLU:543:OE1:9881, V-B:GLU:543:CG:9879, V-A:LEU:475:CD2:4259, V-A:TYR:484:CZ:4347, V-B:GLU:543:CB:9878, V-A:GLU:543:CD:4908, V-A:TYR:484:CE2:4346, V-A:ARG:545:CZ:4926, V-B:GLU:543:CD:9880, V-B:GLU:543:C:9874, V-A:HIS:456:CE1:4070, V-A:GLU:543:CG:4907, V-A:GLU:543:CB:4906, H-A:GLU:543:OE1:4909, H-A:GLU:543:OE2:4910, V-A:TYR:539:CE1:4875, V-A:TYR:539:CD1:4873, V-A:TYR:539:CA:4869, V-A:ILE:538:CG2:4863, V-A:ILE:538:CB:4862"]

$$$$
8a_Ghoteimi_2023
     RDKit          3D

 67 71  0  0  0  0  0  0  0  0999 V2000
  131.2330  131.7560   55.5360 C   0  0  0  0  0  0  0  0  0  0  0  0
  131.7570  132.8780   56.4360 C   0  0  0  0  0  0  0  0  0  0  0  0
  130.6590  133.6110   56.9650 O   0  0  0  0  0  0  0  0  0  0  0  0
  129.4280  133.0460   57.0760 C   0  0  0  0  0  0  0  0  0  0  0  0
  128.5590  133.1340   56.2030 O   0  0  0  0  0  0  0  0  0  0  0  0
  129.2270  132.3090   58.3690 C   0  0  0  0  0  0  0  0  0  0  0  0
  130.3210  131.6720   58.9700 C   0  0  0  0  0  0  0  0  0  0  0  0
  130.1670  130.9800   60.1670 C   0  0  0  0  0  0  0  0  0  0  0  0
  128.9190  130.9080   60.7900 C   0  0  0  0  0  0  0  0  0  0  0  0
  128.8820  130.1770   61.9940 N   0  0  0  0  0  0  0  0  0  0  0  0
  127.8970  129.4110   62.5240 C   0  0  0  0  0  0  0  0  0  0  0  0
  126.8020  129.2260   61.9960 O   0  0  0  0  0  0  0  0  0  0  0  0
  128.2190  128.7840   63.8100 C   0  0  0  0  0  0  0  0  0  0  0  0
  127.5680  129.4410   65.3100 S   0  0  0  0  0  0  0  0  0  0  0  0
  128.3850  128.2190   66.2560 C   0  0  0  0  0  0  0  0  0  0  0  0
  128.2980  128.1880   67.5860 N   0  0  0  0  0  0  0  0  0  0  0  0
  128.9770  127.1980   68.2250 C   0  0  0  0  0  0  0  0  0  0  0  0
  128.8820  127.1950   69.7170 C   0  0  0  0  0  0  0  0  0  0  0  0
  127.6800  126.8780   70.3650 C   0  0  0  0  0  0  0  0  0  0  0  0
  127.5950  126.8880   71.7550 C   0  0  0  0  0  0  0  0  0  0  0  0
  128.7070  127.2120   72.5300 C   0  0  0  0  0  0  0  0  0  0  0  0
  128.5290  127.1980   73.9010 O   0  0  0  0  0  0  0  0  0  0  0  0
  128.0420  128.3680   74.5480 C   0  0  0  0  0  0  0  0  0  0  0  0
  129.9160  127.5240   71.8920 C   0  0  0  0  0  0  0  0  0  0  0  0
  129.9970  127.5160   70.5020 C   0  0  0  0  0  0  0  0  0  0  0  0
  129.7290  126.2440   67.5370 C   0  0  0  0  0  0  0  0  0  0  0  0
  129.8090  126.2630   66.1400 C   0  0  0  0  0  0  0  0  0  0  0  0
  130.5970  125.2050   65.4560 C   0  0  0  0  0  0  0  0  0  0  0  0
  131.9420  125.4190   65.1490 C   0  0  0  0  0  0  0  0  0  0  0  0
  132.6890  124.4230   64.5270 C   0  0  0  0  0  0  0  0  0  0  0  0
  132.1080  123.1960   64.2060 C   0  0  0  0  0  0  0  0  0  0  0  0
  132.9250  122.2680   63.5900 O   0  0  0  0  0  0  0  0  0  0  0  0
  133.7010  122.6640   62.4660 C   0  0  0  0  0  0  0  0  0  0  0  0
  130.7580  122.9760   64.5210 C   0  0  0  0  0  0  0  0  0  0  0  0
  130.0130  123.9740   65.1450 C   0  0  0  0  0  0  0  0  0  0  0  0
  129.1250  127.3030   65.4510 C   0  0  0  0  0  0  0  0  0  0  0  0
  129.0270  127.6620   64.0570 C   0  0  0  0  0  0  0  0  0  0  0  0
  129.6840  126.9710   63.0700 N   0  0  0  0  0  0  0  0  0  0  0  0
  127.8190  131.5470   60.1970 C   0  0  0  0  0  0  0  0  0  0  0  0
  127.9750  132.2390   58.9990 C   0  0  0  0  0  0  0  0  0  0  0  0
  130.8495  130.9348   56.1594 H   0  0  0  0  0  0  0  0  0  0  0  0
  130.4227  132.1435   54.9010 H   0  0  0  0  0  0  0  0  0  0  0  0
  132.0503  131.3834   54.9010 H   0  0  0  0  0  0  0  0  0  0  0  0
  132.3404  132.4441   57.2615 H   0  0  0  0  0  0  0  0  0  0  0  0
  132.3990  133.5508   55.8484 H   0  0  0  0  0  0  0  0  0  0  0  0
  131.3101  131.7196   58.4911 H   0  0  0  0  0  0  0  0  0  0  0  0
  131.0354  130.4854   60.6267 H   0  0  0  0  0  0  0  0  0  0  0  0
  129.7330  130.2320   62.5330 H   0  0  0  0  0  0  0  0  0  0  0  0
  126.7932  126.6182   69.7683 H   0  0  0  0  0  0  0  0  0  0  0  0
  126.6425  126.6381   72.2451 H   0  0  0  0  0  0  0  0  0  0  0  0
  128.0977  128.2341   75.6384 H   0  0  0  0  0  0  0  0  0  0  0  0
  128.6551  129.2323   74.2529 H   0  0  0  0  0  0  0  0  0  0  0  0
  126.9967  128.5420   74.2529 H   0  0  0  0  0  0  0  0  0  0  0  0
  130.8032  127.7759   72.4915 H   0  0  0  0  0  0  0  0  0  0  0  0
  130.9503  127.7654   70.0132 H   0  0  0  0  0  0  0  0  0  0  0  0
  130.2659  125.4668   68.1007 H   0  0  0  0  0  0  0  0  0  0  0  0
  132.4140  126.3803   65.4002 H   0  0  0  0  0  0  0  0  0  0  0  0
  133.7468  124.6049   64.2864 H   0  0  0  0  0  0  0  0  0  0  0  0
  134.6312  123.1387   62.8115 H   0  0  0  0  0  0  0  0  0  0  0  0
  133.9443  121.7798   61.8585 H   0  0  0  0  0  0  0  0  0  0  0  0
  133.1278  123.3798   61.8585 H   0  0  0  0  0  0  0  0  0  0  0  0
  130.2871  122.0130   64.2745 H   0  0  0  0  0  0  0  0  0  0  0  0
  128.9573  123.7919   65.3948 H   0  0  0  0  0  0  0  0  0  0  0  0
  129.2440  126.2010   62.5840 H   0  0  0  0  0  0  0  0  0  0  0  0
  130.6250  127.2080   62.7920 H   0  0  0  0  0  0  0  0  0  0  0  0
  126.8317  131.5010   60.6797 H   0  0  0  0  0  0  0  0  0  0  0  0
  127.1072  132.7364   58.5412 H   0  0  0  0  0  0  0  0  0  0  0  0
  1  2  1  0
  2  3  1  0
  3  4  1  0
  4  5  2  0
  4  6  1  0
  6  7  2  0
  7  8  1  0
  8  9  2  0
  9 10  1  0
 10 11  1  0
 11 12  2  0
 11 13  1  0
 13 14  1  0
 14 15  1  0
 15 16  2  0
 16 17  1  0
 17 18  1  0
 18 19  2  0
 19 20  1  0
 20 21  2  0
 21 22  1  0
 22 23  1  0
 21 24  1  0
 24 25  2  0
 17 26  2  0
 26 27  1  0
 27 28  1  0
 28 29  2  0
 29 30  1  0
 30 31  2  0
 31 32  1  0
 32 33  1  0
 31 34  1  0
 34 35  2  0
 27 36  2  0
 36 37  1  0
 37 38  1  0
  9 39  1  0
 39 40  2  0
 40  6  1  0
 37 13  2  0
 36 15  1  0
 25 18  1  0
 35 28  1  0
  1 41  1  0
  1 42  1  0
  1 43  1  0
  2 44  1  0
  2 45  1  0
  7 46  1  0
  8 47  1  0
 10 48  1  0
 19 49  1  0
 20 50  1  0
 23 51  1  0
 23 52  1  0
 23 53  1  0
 24 54  1  0
 25 55  1  0
 26 56  1  0
 29 57  1  0
 30 58  1  0
 33 59  1  0
 33 60  1  0
 33 61  1  0
 34 62  1  0
 35 63  1  0
 38 64  1  0
 38 65  1  0
 39 66  1  0
 40 67  1  0
M  END
>  <Binding energies>  (1) 
[-9.66]

>  <Ligand effiencies>  (1) 
[-0.2246511627906977]

>  <Interactions>  (1) 
["V-A:LEU:363:CD1:3189, V-A:PRO:540:CA:4883, V-A:PRO:540:CD:4887, V-A:PRO:540:N:4884, V-A:TYR:539:C:4867, H-A:TYR:539:N:4870, H-B:GLU:543:OE1:9881, V-A:MET:535:CE:4835, V-B:GLU:543:CG:9879, V-A:LEU:475:CD2:4259, V-A:TYR:484:CZ:4347, V-B:GLU:543:CB:9878, H-A:TYR:484:OH:4348, V-A:GLU:543:CD:4908, V-A:TYR:484:CE2:4346, V-A:GLY:454:CA:4049, V-A:ARG:545:CZ:4926, V-B:GLU:543:CD:9880, V-B:HIS:456:CE1:9041, V-B:GLY:544:C:9884, V-B:GLU:543:C:9874, V-B:HIS:456:CD2:9039, V-A:HIS:456:CE1:4070, V-A:GLU:543:CG:4907, V-A:GLU:543:CB:4906, V-B:GLY:544:CA:9886, H-B:LYS:547:NZ:9923, H-A:GLU:543:OE1:4909, H-A:GLU:543:OE2:4910, V-A:TYR:539:CE1:4875, H-A:GLY:454:N:4050, V-A:TYR:539:CD1:4873, V-A:ILE:538:CA:4860, V-A:ILE:538:CG2:4863, V-A:ILE:538:CB:4862, V-A:MET:535:CG:4833"]

$$$$
8b_Ghoteimi_2023
     RDKit          3D

 54 58  0  0  0  0  0  0  0  0999 V2000
  130.9670  126.8970   73.9930 C   0  0  0  0  0  0  0  0  0  0  0  0
  130.2940  127.9730   73.3470 O   0  0  0  0  0  0  0  0  0  0  0  0
  129.9660  127.8560   72.0100 C   0  0  0  0  0  0  0  0  0  0  0  0
  130.9910  128.0850   71.0940 C   0  0  0  0  0  0  0  0  0  0  0  0
  130.7530  127.9900   69.7270 C   0  0  0  0  0  0  0  0  0  0  0  0
  129.4790  127.6630   69.2380 C   0  0  0  0  0  0  0  0  0  0  0  0
  129.2170  127.5620   67.7690 C   0  0  0  0  0  0  0  0  0  0  0  0
  128.5730  128.5830   67.0630 C   0  0  0  0  0  0  0  0  0  0  0  0
  128.3410  128.4640   65.6900 C   0  0  0  0  0  0  0  0  0  0  0  0
  127.6480  129.5600   64.9740 C   0  0  0  0  0  0  0  0  0  0  0  0
  128.3690  130.6580   64.5010 C   0  0  0  0  0  0  0  0  0  0  0  0
  127.7180  131.6830   63.8200 C   0  0  0  0  0  0  0  0  0  0  0  0
  126.3400  131.6270   63.6040 C   0  0  0  0  0  0  0  0  0  0  0  0
  125.7790  132.6880   62.9170 O   0  0  0  0  0  0  0  0  0  0  0  0
  124.3690  132.8730   62.9580 C   0  0  0  0  0  0  0  0  0  0  0  0
  125.6170  130.5250   64.0840 C   0  0  0  0  0  0  0  0  0  0  0  0
  126.2690  129.5000   64.7640 C   0  0  0  0  0  0  0  0  0  0  0  0
  128.7830  127.2830   65.0360 C   0  0  0  0  0  0  0  0  0  0  0  0
  128.7170  126.8400   63.6680 C   0  0  0  0  0  0  0  0  0  0  0  0
  128.1430  127.5980   62.6790 N   0  0  0  0  0  0  0  0  0  0  0  0
  129.2900  125.5780   63.4500 C   0  0  0  0  0  0  0  0  0  0  0  0
  129.4020  124.8320   62.1950 C   0  0  0  0  0  0  0  0  0  0  0  0
  130.4970  124.6770   61.6500 O   0  0  0  0  0  0  0  0  0  0  0  0
  128.2350  124.3450   61.7020 N   0  0  0  0  0  0  0  0  0  0  0  0
  128.0500  123.6050   60.5420 C   0  0  0  0  0  0  0  0  0  0  0  0
  127.3610  124.0900   59.4310 C   0  0  0  0  0  0  0  0  0  0  0  0
  127.3970  123.0660   58.5130 C   0  0  0  0  0  0  0  0  0  0  0  0
  128.0770  122.0200   59.0410 O   0  0  0  0  0  0  0  0  0  0  0  0
  128.4870  122.3740   60.3280 N   0  0  0  0  0  0  0  0  0  0  0  0
  129.9330  124.9030   64.9490 S   0  0  0  0  0  0  0  0  0  0  0  0
  129.4310  126.3120   65.8540 C   0  0  0  0  0  0  0  0  0  0  0  0
  129.6510  126.4240   67.1630 N   0  0  0  0  0  0  0  0  0  0  0  0
  128.4540  127.4310   70.1640 C   0  0  0  0  0  0  0  0  0  0  0  0
  128.6890  127.5260   71.5330 C   0  0  0  0  0  0  0  0  0  0  0  0
  130.8908  127.0188   75.0836 H   0  0  0  0  0  0  0  0  0  0  0  0
  130.5036  125.9443   73.6972 H   0  0  0  0  0  0  0  0  0  0  0  0
  132.0265  126.8968   73.6972 H   0  0  0  0  0  0  0  0  0  0  0  0
  131.9973  128.3432   71.4554 H   0  0  0  0  0  0  0  0  0  0  0  0
  131.5749  128.1737   69.0193 H   0  0  0  0  0  0  0  0  0  0  0  0
  128.2457  129.4891   67.5938 H   0  0  0  0  0  0  0  0  0  0  0  0
  129.4550  130.7134   64.6669 H   0  0  0  0  0  0  0  0  0  0  0  0
  128.2940  132.5437   63.4492 H   0  0  0  0  0  0  0  0  0  0  0  0
  124.0352  132.9168   64.0052 H   0  0  0  0  0  0  0  0  0  0  0  0
  124.1076  133.8131   62.4502 H   0  0  0  0  0  0  0  0  0  0  0  0
  123.8739  132.0321   62.4502 H   0  0  0  0  0  0  0  0  0  0  0  0
  124.5303  130.4705   63.9225 H   0  0  0  0  0  0  0  0  0  0  0  0
  125.6952  128.6390   65.1375 H   0  0  0  0  0  0  0  0  0  0  0  0
  127.1770  127.4700   62.4120 H   0  0  0  0  0  0  0  0  0  0  0  0
  128.6650  128.3060   62.1820 H   0  0  0  0  0  0  0  0  0  0  0  0
  127.3980  124.5350   62.2340 H   0  0  0  0  0  0  0  0  0  0  0  0
  126.8906  125.0774   59.3139 H   0  0  0  0  0  0  0  0  0  0  0  0
  126.9456  123.0923   57.5102 H   0  0  0  0  0  0  0  0  0  0  0  0
  127.4479  127.1697   69.8041 H   0  0  0  0  0  0  0  0  0  0  0  0
  127.8697  127.3415   72.2435 H   0  0  0  0  0  0  0  0  0  0  0  0
  1  2  1  0
  2  3  1  0
  3  4  2  0
  4  5  1  0
  5  6  2  0
  6  7  1  0
  7  8  2  0
  8  9  1  0
  9 10  1  0
 10 11  2  0
 11 12  1  0
 12 13  2  0
 13 14  1  0
 14 15  1  0
 13 16  1  0
 16 17  2  0
  9 18  2  0
 18 19  1  0
 19 20  1  0
 19 21  2  0
 21 22  1  0
 22 23  2  0
 22 24  1  0
 24 25  1  0
 25 26  1  0
 26 27  2  0
 27 28  1  0
 28 29  1  0
 21 30  1  0
 30 31  1  0
 31 32  2  0
  6 33  1  0
 33 34  2  0
 34  3  1  0
 32  7  1  0
 17 10  1  0
 31 18  1  0
 29 25  2  0
  1 35  1  0
  1 36  1  0
  1 37  1  0
  4 38  1  0
  5 39  1  0
  8 40  1  0
 11 41  1  0
 12 42  1  0
 15 43  1  0
 15 44  1  0
 15 45  1  0
 16 46  1  0
 17 47  1  0
 20 48  1  0
 20 49  1  0
 24 50  1  0
 26 51  1  0
 27 52  1  0
 33 53  1  0
 34 54  1  0
M  END
>  <Binding energies>  (1) 
[-7.47]

>  <Ligand effiencies>  (1) 
[-0.20189189189189188]

>  <Interactions>  (1) 
["V-B:PRO:540:N:9856, V-B:PRO:540:CB:9857, V-B:PRO:540:CA:9855, V-B:TYR:539:C:9839, H-B:GLU:543:OE1:9881, V-B:GLU:543:CG:9879, V-B:GLU:543:CB:9878, V-A:GLU:543:CD:4908, V-B:GLU:543:CD:9880, V-B:HIS:456:CE1:9041, V-A:GLY:544:CA:4914, V-A:GLY:544:C:4912, H-A:LYS:547:NZ:4951, V-B:HIS:456:CD2:9039, V-A:HIS:456:CE1:4070, V-A:GLU:543:CG:4907, V-A:GLU:543:C:4902, V-A:GLU:543:CB:4906, H-A:GLU:543:OE1:4909, H-B:GLU:543:OE2:9882, V-A:HIS:456:CD2:4068, V-B:LEU:475:CD2:9230, V-B:GLY:454:CA:9020"]

$$$$
8c_Ghoteimi_2023
     RDKit          3D

 54 58  0  0  0  0  0  0  0  0999 V2000
  126.8290  128.7400   74.8290 C   0  0  0  0  0  0  0  0  0  0  0  0
  127.9310  127.9690   74.3640 O   0  0  0  0  0  0  0  0  0  0  0  0
  128.1720  127.8890   73.0060 C   0  0  0  0  0  0  0  0  0  0  0  0
  127.2600  127.1510   72.2530 C   0  0  0  0  0  0  0  0  0  0  0  0
  127.4250  127.0140   70.8780 C   0  0  0  0  0  0  0  0  0  0  0  0
  128.5080  127.6130   70.2190 C   0  0  0  0  0  0  0  0  0  0  0  0
  128.6920  127.4660   68.7410 C   0  0  0  0  0  0  0  0  0  0  0  0
  128.0800  128.3330   67.8320 C   0  0  0  0  0  0  0  0  0  0  0  0
  128.2710  128.1760   66.4550 C   0  0  0  0  0  0  0  0  0  0  0  0
  127.6010  129.1060   65.5190 C   0  0  0  0  0  0  0  0  0  0  0  0
  126.2060  129.1400   65.4370 C   0  0  0  0  0  0  0  0  0  0  0  0
  125.5780  130.0210   64.5640 C   0  0  0  0  0  0  0  0  0  0  0  0
  126.3290  130.8780   63.7580 C   0  0  0  0  0  0  0  0  0  0  0  0
  125.6200  131.7210   62.9230 O   0  0  0  0  0  0  0  0  0  0  0  0
  124.3130  131.3460   62.5050 C   0  0  0  0  0  0  0  0  0  0  0  0
  127.7300  130.8400   63.8380 C   0  0  0  0  0  0  0  0  0  0  0  0
  128.3580  129.9580   64.7130 C   0  0  0  0  0  0  0  0  0  0  0  0
  129.1070  127.1160   66.0140 C   0  0  0  0  0  0  0  0  0  0  0  0
  129.5160  126.6750   64.7070 C   0  0  0  0  0  0  0  0  0  0  0  0
  129.1010  127.2990   63.5570 N   0  0  0  0  0  0  0  0  0  0  0  0
  130.3690  125.5600   64.7230 C   0  0  0  0  0  0  0  0  0  0  0  0
  130.9740  124.8580   63.5890 C   0  0  0  0  0  0  0  0  0  0  0  0
  130.6740  125.1560   62.4310 O   0  0  0  0  0  0  0  0  0  0  0  0
  131.8610  123.8850   63.9140 N   0  0  0  0  0  0  0  0  0  0  0  0
  132.5710  123.0770   63.0370 C   0  0  0  0  0  0  0  0  0  0  0  0
  133.8730  122.8950   62.9800 N   0  0  0  0  0  0  0  0  0  0  0  0
  134.2030  122.0530   62.0210 C   0  0  0  0  0  0  0  0  0  0  0  0
  133.1540  121.5310   61.2720 C   0  0  0  0  0  0  0  0  0  0  0  0
  131.6560  122.1860   61.8640 S   0  0  0  0  0  0  0  0  0  0  0  0
  130.6920  125.0290   66.3740 S   0  0  0  0  0  0  0  0  0  0  0  0
  129.6830  126.2980   67.0290 C   0  0  0  0  0  0  0  0  0  0  0  0
  129.5000  126.4460   68.3410 N   0  0  0  0  0  0  0  0  0  0  0  0
  129.4190  128.3550   70.9820 C   0  0  0  0  0  0  0  0  0  0  0  0
  129.2580  128.4930   72.3570 C   0  0  0  0  0  0  0  0  0  0  0  0
  126.8227  128.7444   75.9290 H   0  0  0  0  0  0  0  0  0  0  0  0
  126.9211  129.7717   74.4587 H   0  0  0  0  0  0  0  0  0  0  0  0
  125.8913  128.2999   74.4587 H   0  0  0  0  0  0  0  0  0  0  0  0
  126.4029  126.6730   72.7498 H   0  0  0  0  0  0  0  0  0  0  0  0
  126.6956  126.4276   70.3000 H   0  0  0  0  0  0  0  0  0  0  0  0
  127.4411  129.1479   68.2032 H   0  0  0  0  0  0  0  0  0  0  0  0
  125.6033  128.4676   66.0652 H   0  0  0  0  0  0  0  0  0  0  0  0
  124.4796  130.0429   64.5080 H   0  0  0  0  0  0  0  0  0  0  0  0
  123.6832  131.1653   63.3886 H   0  0  0  0  0  0  0  0  0  0  0  0
  123.8749  132.1547   61.9016 H   0  0  0  0  0  0  0  0  0  0  0  0
  124.3703  130.4280   61.9016 H   0  0  0  0  0  0  0  0  0  0  0  0
  128.3335  131.5093   63.2073 H   0  0  0  0  0  0  0  0  0  0  0  0
  129.4562  129.9323   64.7695 H   0  0  0  0  0  0  0  0  0  0  0  0
  129.6980  127.9510   63.0660 H   0  0  0  0  0  0  0  0  0  0  0  0
  128.1860  127.1330   63.1630 H   0  0  0  0  0  0  0  0  0  0  0  0
  132.0330  123.7250   64.8960 H   0  0  0  0  0  0  0  0  0  0  0  0
  135.2499  121.7785   61.8241 H   0  0  0  0  0  0  0  0  0  0  0  0
  133.2555  120.8190   60.4397 H   0  0  0  0  0  0  0  0  0  0  0  0
  130.2750  128.8360   70.4862 H   0  0  0  0  0  0  0  0  0  0  0  0
  129.9860  129.0786   72.9375 H   0  0  0  0  0  0  0  0  0  0  0  0
  1  2  1  0
  2  3  1  0
  3  4  2  0
  4  5  1  0
  5  6  2  0
  6  7  1  0
  7  8  2  0
  8  9  1  0
  9 10  1  0
 10 11  2  0
 11 12  1  0
 12 13  2  0
 13 14  1  0
 14 15  1  0
 13 16  1  0
 16 17  2  0
  9 18  2  0
 18 19  1  0
 19 20  1  0
 19 21  2  0
 21 22  1  0
 22 23  2  0
 22 24  1  0
 24 25  1  0
 25 26  2  0
 26 27  1  0
 27 28  2  0
 28 29  1  0
 21 30  1  0
 30 31  1  0
 31 32  2  0
  6 33  1  0
 33 34  2  0
 34  3  1  0
 32  7  1  0
 17 10  1  0
 31 18  1  0
 29 25  1  0
  1 35  1  0
  1 36  1  0
  1 37  1  0
  4 38  1  0
  5 39  1  0
  8 40  1  0
 11 41  1  0
 12 42  1  0
 15 43  1  0
 15 44  1  0
 15 45  1  0
 16 46  1  0
 17 47  1  0
 20 48  1  0
 20 49  1  0
 24 50  1  0
 27 51  1  0
 28 52  1  0
 33 53  1  0
 34 54  1  0
M  END
>  <Binding energies>  (1) 
[-7.59]

>  <Ligand effiencies>  (1) 
[-0.20513513513513512]

>  <Interactions>  (1) 
["H-B:GLU:543:OE1:9881, V-A:ILE:369:CD1:3239, V-B:GLU:543:CG:9879, V-A:ILE:369:CG2:3237, V-A:LEU:475:CD2:4259, V-A:TYR:484:CZ:4347, V-B:GLU:543:CB:9878, H-A:TYR:484:OH:4348, V-A:GLU:543:CD:4908, V-A:TYR:484:CE2:4346, V-A:GLY:454:CA:4049, V-B:GLU:543:CD:9880, V-B:HIS:456:CE1:9041, V-B:GLY:544:C:9884, V-B:GLU:543:C:9874, V-B:HIS:456:CD2:9039, V-B:LYS:547:CE:9922, V-A:HIS:456:CE1:4070, V-A:GLU:543:CG:4907, V-A:GLU:543:C:4902, V-A:GLU:543:CB:4906, V-B:HIS:456:CG:9037, V-B:GLY:544:CA:9886, H-B:LYS:547:NZ:9923, H-A:GLU:543:OE1:4909, H-A:GLU:543:OE2:4910, H-B:GLU:543:OE2:9882, H-B:TYR:484:OH:9319, V-B:HIS:456:CB:9036, H-A:GLY:454:N:4050, V-A:SER:385:C:3405"]

$$$$
8d_Ghoteimi_2023
     RDKit          3D

 50 53  0  0  0  0  0  0  0  0999 V2000
  133.9140  131.7230   61.0720 C   0  0  0  0  0  0  0  0  0  0  0  0
  132.6170  131.3930   60.5940 O   0  0  0  0  0  0  0  0  0  0  0  0
  131.5510  131.3660   61.4360 C   0  0  0  0  0  0  0  0  0  0  0  0
  131.3900  132.1560   62.3690 O   0  0  0  0  0  0  0  0  0  0  0  0
  130.5930  130.2850   61.1180 C   0  0  0  0  0  0  0  0  0  0  0  0
  130.9920  129.0920   59.8800 S   0  0  0  0  0  0  0  0  0  0  0  0
  129.4660  128.2730   60.1230 C   0  0  0  0  0  0  0  0  0  0  0  0
  129.1300  127.1890   59.4220 N   0  0  0  0  0  0  0  0  0  0  0  0
  127.9200  126.6290   59.6920 C   0  0  0  0  0  0  0  0  0  0  0  0
  127.5660  125.4180   58.8890 C   0  0  0  0  0  0  0  0  0  0  0  0
  128.0340  125.2550   57.5770 C   0  0  0  0  0  0  0  0  0  0  0  0
  127.7000  124.1260   56.8350 C   0  0  0  0  0  0  0  0  0  0  0  0
  126.8910  123.1320   57.3810 C   0  0  0  0  0  0  0  0  0  0  0  0
  126.6120  122.0480   56.5720 O   0  0  0  0  0  0  0  0  0  0  0  0
  125.3680  121.9980   55.8810 C   0  0  0  0  0  0  0  0  0  0  0  0
  126.4190  123.2830   58.6930 C   0  0  0  0  0  0  0  0  0  0  0  0
  126.7550  124.4130   59.4330 C   0  0  0  0  0  0  0  0  0  0  0  0
  127.0510  127.1560   60.6520 C   0  0  0  0  0  0  0  0  0  0  0  0
  127.4050  128.2900   61.3890 C   0  0  0  0  0  0  0  0  0  0  0  0
  126.4660  128.8190   62.4050 C   0  0  0  0  0  0  0  0  0  0  0  0
  126.7870  128.7470   63.7620 C   0  0  0  0  0  0  0  0  0  0  0  0
  125.9000  129.2360   64.7170 C   0  0  0  0  0  0  0  0  0  0  0  0
  124.6860  129.8070   64.3320 C   0  0  0  0  0  0  0  0  0  0  0  0
  123.8700  130.2640   65.3480 O   0  0  0  0  0  0  0  0  0  0  0  0
  124.0200  129.7250   66.6560 C   0  0  0  0  0  0  0  0  0  0  0  0
  124.3680  129.8820   62.9660 C   0  0  0  0  0  0  0  0  0  0  0  0
  125.2560  129.3920   62.0120 C   0  0  0  0  0  0  0  0  0  0  0  0
  128.6650  128.8900   61.1260 C   0  0  0  0  0  0  0  0  0  0  0  0
  129.3340  130.0370   61.6760 C   0  0  0  0  0  0  0  0  0  0  0  0
  128.7770  130.8170   62.6570 N   0  0  0  0  0  0  0  0  0  0  0  0
  133.9106  131.7221   62.1720 H   0  0  0  0  0  0  0  0  0  0  0  0
  134.6391  130.9807   60.7070 H   0  0  0  0  0  0  0  0  0  0  0  0
  134.1962  132.7216   60.7070 H   0  0  0  0  0  0  0  0  0  0  0  0
  128.6734  126.0296   57.1286 H   0  0  0  0  0  0  0  0  0  0  0  0
  128.0783  124.0175   55.8078 H   0  0  0  0  0  0  0  0  0  0  0  0
  124.5448  121.9649   56.6099 H   0  0  0  0  0  0  0  0  0  0  0  0
  125.2630  122.8927   55.2497 H   0  0  0  0  0  0  0  0  0  0  0  0
  125.3352  121.0978   55.2497 H   0  0  0  0  0  0  0  0  0  0  0  0
  125.7810  122.5057   59.1388 H   0  0  0  0  0  0  0  0  0  0  0  0
  126.3780  124.5188   60.4610 H   0  0  0  0  0  0  0  0  0  0  0  0
  126.0786  126.6734   60.8293 H   0  0  0  0  0  0  0  0  0  0  0  0
  127.7428  128.3029   64.0771 H   0  0  0  0  0  0  0  0  0  0  0  0
  126.1581  129.1718   65.7844 H   0  0  0  0  0  0  0  0  0  0  0  0
  123.8030  130.5047   67.4010 H   0  0  0  0  0  0  0  0  0  0  0  0
  123.3212  128.8860   66.7892 H   0  0  0  0  0  0  0  0  0  0  0  0
  125.0517  129.3676   66.7892 H   0  0  0  0  0  0  0  0  0  0  0  0
  123.4144  130.3293   62.6488 H   0  0  0  0  0  0  0  0  0  0  0  0
  125.0024  129.4569   60.9436 H   0  0  0  0  0  0  0  0  0  0  0  0
  127.8040  130.7280   62.9140 H   0  0  0  0  0  0  0  0  0  0  0  0
  129.3200  131.5030   63.1620 H   0  0  0  0  0  0  0  0  0  0  0  0
  1  2  1  0
  2  3  1  0
  3  4  2  0
  3  5  1  0
  5  6  1  0
  6  7  1  0
  7  8  2  0
  8  9  1  0
  9 10  1  0
 10 11  2  0
 11 12  1  0
 12 13  2  0
 13 14  1  0
 14 15  1  0
 13 16  1  0
 16 17  2  0
  9 18  2  0
 18 19  1  0
 19 20  1  0
 20 21  2  0
 21 22  1  0
 22 23  2  0
 23 24  1  0
 24 25  1  0
 23 26  1  0
 26 27  2  0
 19 28  2  0
 28 29  1  0
 29 30  1  0
 29  5  2  0
 28  7  1  0
 17 10  1  0
 27 20  1  0
  1 31  1  0
  1 32  1  0
  1 33  1  0
 11 34  1  0
 12 35  1  0
 15 36  1  0
 15 37  1  0
 15 38  1  0
 16 39  1  0
 17 40  1  0
 18 41  1  0
 21 42  1  0
 22 43  1  0
 25 44  1  0
 25 45  1  0
 25 46  1  0
 26 47  1  0
 27 48  1  0
 30 49  1  0
 30 50  1  0
M  END
>  <Binding energies>  (1) 
[-6.34]

>  <Ligand effiencies>  (1) 
[-0.198125]

>  <Interactions>  (1) 
["V-A:ASP:366:CG:3213, V-A:PRO:540:CA:4883, V-A:PRO:540:CB:4885, V-B:TYR:539:CZ:9849, V-B:PRO:540:N:9856, V-B:PRO:540:CB:9857, V-B:PRO:540:CA:9855, H-B:TYR:539:N:9842, V-B:PRO:540:CD:9859, V-B:ASP:366:CG:8184, V-B:MET:535:CE:9807, V-B:LEU:363:CD1:8160, V-A:GLU:543:CD:4908, V-B:GLU:543:CD:9880, V-B:HIS:456:CE1:9041, H-A:GLU:543:OE1:4909, V-B:TYR:484:CZ:9318, H-B:TYR:484:OH:9319, H-A:ALA:541:N:4891, V-B:ILE:538:CG2:9835, V-B:ILE:538:CA:9832, V-B:ILE:538:C:9830, V-B:GLY:454:CA:9020, V-B:ARG:545:CZ:9898, V-A:LEU:363:CA:3185, V-A:ASN:362:CB:3176, V-A:ASN:362:C:3172, V-B:ARG:545:CD:9895, V-B:ILE:538:CB:9834, H-B:ARG:545:NE:9896, H-B:GLY:454:N:9021, V-B:ARG:545:CG:9894, V-B:TYR:484:CE1:9316"]

$$$$
9a_Ghoteimi_2023
     RDKit          3D

 85 91  0  0  0  0  0  0  0  0999 V2000
  131.7190  132.8180   56.4680 C   0  0  0  0  0  0  0  0  0  0  0  0
  130.5630  132.5730   55.4930 C   0  0  0  0  0  0  0  0  0  0  0  0
  129.4430  133.3610   55.8790 O   0  0  0  0  0  0  0  0  0  0  0  0
  128.2390  132.7900   56.1370 C   0  0  0  0  0  0  0  0  0  0  0  0
  127.2710  132.8680   55.3740 O   0  0  0  0  0  0  0  0  0  0  0  0
  128.1980  132.0570   57.4470 C   0  0  0  0  0  0  0  0  0  0  0  0
  129.1870  132.3130   58.4060 C   0  0  0  0  0  0  0  0  0  0  0  0
  129.1770  131.6480   59.6290 C   0  0  0  0  0  0  0  0  0  0  0  0
  128.1800  130.7170   59.9210 C   0  0  0  0  0  0  0  0  0  0  0  0
  128.2700  130.1070   61.1870 N   0  0  0  0  0  0  0  0  0  0  0  0
  127.3030  129.8060   62.0880 C   0  0  0  0  0  0  0  0  0  0  0  0
  126.1050  130.0390   61.9210 O   0  0  0  0  0  0  0  0  0  0  0  0
  127.7710  129.1590   63.3170 C   0  0  0  0  0  0  0  0  0  0  0  0
  127.4860  129.9140   64.8860 S   0  0  0  0  0  0  0  0  0  0  0  0
  128.2790  128.5950   65.7150 C   0  0  0  0  0  0  0  0  0  0  0  0
  128.3800  128.5650   67.0430 N   0  0  0  0  0  0  0  0  0  0  0  0
  129.0040  127.4890   67.5910 C   0  0  0  0  0  0  0  0  0  0  0  0
  129.0970  127.4710   69.0820 C   0  0  0  0  0  0  0  0  0  0  0  0
  128.0570  126.9380   69.8530 C   0  0  0  0  0  0  0  0  0  0  0  0
  128.1350  126.9160   71.2420 C   0  0  0  0  0  0  0  0  0  0  0  0
  129.2630  127.4150   71.9140 C   0  0  0  0  0  0  0  0  0  0  0  0
  129.3470  127.4180   73.3100 N   0  0  0  0  0  0  0  0  0  0  0  0
  130.5280  126.8770   74.0130 C   0  0  0  0  0  0  0  0  0  0  0  0
  130.2980  126.6300   75.5190 C   0  0  0  0  0  0  0  0  0  0  0  0
  129.8350  127.8170   76.1410 O   0  0  0  0  0  0  0  0  0  0  0  0
  128.6080  128.2550   75.5780 C   0  0  0  0  0  0  0  0  0  0  0  0
  128.7940  128.5540   74.0760 C   0  0  0  0  0  0  0  0  0  0  0  0
  130.2950  127.9620   71.1370 C   0  0  0  0  0  0  0  0  0  0  0  0
  130.2150  127.9850   69.7480 C   0  0  0  0  0  0  0  0  0  0  0  0
  129.5470  126.4650   66.8100 C   0  0  0  0  0  0  0  0  0  0  0  0
  129.4600  126.5030   65.4140 C   0  0  0  0  0  0  0  0  0  0  0  0
  130.0860  125.4070   64.6310 C   0  0  0  0  0  0  0  0  0  0  0  0
  129.6850  124.0810   64.8150 C   0  0  0  0  0  0  0  0  0  0  0  0
  130.2630  123.0580   64.0700 C   0  0  0  0  0  0  0  0  0  0  0  0
  131.2460  123.3340   63.1070 C   0  0  0  0  0  0  0  0  0  0  0  0
  131.8490  122.3220   62.3550 N   0  0  0  0  0  0  0  0  0  0  0  0
  133.2780  122.4390   62.0060 C   0  0  0  0  0  0  0  0  0  0  0  0
  133.8990  121.1120   61.5210 C   0  0  0  0  0  0  0  0  0  0  0  0
  133.1520  120.5950   60.4310 O   0  0  0  0  0  0  0  0  0  0  0  0
  131.8040  120.3400   60.7930 C   0  0  0  0  0  0  0  0  0  0  0  0
  131.1270  121.6470   61.2580 C   0  0  0  0  0  0  0  0  0  0  0  0
  131.6400  124.6680   62.9290 C   0  0  0  0  0  0  0  0  0  0  0  0
  131.0650  125.6910   63.6760 C   0  0  0  0  0  0  0  0  0  0  0  0
  128.7780  127.6030   64.8210 C   0  0  0  0  0  0  0  0  0  0  0  0
  128.4530  127.9400   63.4570 C   0  0  0  0  0  0  0  0  0  0  0  0
  128.7720  127.1270   62.4000 N   0  0  0  0  0  0  0  0  0  0  0  0
  127.1830  130.4570   58.9670 C   0  0  0  0  0  0  0  0  0  0  0  0
  127.1950  131.1220   57.7440 C   0  0  0  0  0  0  0  0  0  0  0  0
  131.3500  132.7398   57.5013 H   0  0  0  0  0  0  0  0  0  0  0  0
  132.5047  132.0664   56.3014 H   0  0  0  0  0  0  0  0  0  0  0  0
  132.1323  133.8237   56.3014 H   0  0  0  0  0  0  0  0  0  0  0  0
  130.8753  132.8527   54.4760 H   0  0  0  0  0  0  0  0  0  0  0  0
  130.2866  131.5084   55.5115 H   0  0  0  0  0  0  0  0  0  0  0  0
  129.9784  133.0460   58.1906 H   0  0  0  0  0  0  0  0  0  0  0  0
  129.9614  131.8583   60.3709 H   0  0  0  0  0  0  0  0  0  0  0  0
  129.2100  129.8550   61.4540 H   0  0  0  0  0  0  0  0  0  0  0  0
  127.1655  126.5308   69.3535 H   0  0  0  0  0  0  0  0  0  0  0  0
  127.2990  126.5007   71.8239 H   0  0  0  0  0  0  0  0  0  0  0  0
  130.8036  125.9214   73.5430 H   0  0  0  0  0  0  0  0  0  0  0  0
  131.3236  127.6321   73.9302 H   0  0  0  0  0  0  0  0  0  0  0  0
  129.5482  125.8354   75.6473 H   0  0  0  0  0  0  0  0  0  0  0  0
  131.2476  126.3262   75.9837 H   0  0  0  0  0  0  0  0  0  0  0  0
  127.8491  127.4684   75.7016 H   0  0  0  0  0  0  0  0  0  0  0  0
  128.2820  129.1717   76.0911 H   0  0  0  0  0  0  0  0  0  0  0  0
  127.8144  128.8166   73.6499 H   0  0  0  0  0  0  0  0  0  0  0  0
  129.5187  129.3779   73.9988 H   0  0  0  0  0  0  0  0  0  0  0  0
  131.1827  128.3799   71.6343 H   0  0  0  0  0  0  0  0  0  0  0  0
  131.0432  128.4138   69.1647 H   0  0  0  0  0  0  0  0  0  0  0  0
  130.0496  125.6177   67.2994 H   0  0  0  0  0  0  0  0  0  0  0  0
  128.9061  123.8442   65.5548 H   0  0  0  0  0  0  0  0  0  0  0  0
  129.9452  122.0184   64.2381 H   0  0  0  0  0  0  0  0  0  0  0  0
  133.3817  123.1861   61.2054 H   0  0  0  0  0  0  0  0  0  0  0  0
  133.8134  122.7340   62.9205 H   0  0  0  0  0  0  0  0  0  0  0  0
  134.9356  121.2912   61.1995 H   0  0  0  0  0  0  0  0  0  0  0  0
  133.8841  120.3843   62.3457 H   0  0  0  0  0  0  0  0  0  0  0  0
  131.2628  119.9386   59.9235 H   0  0  0  0  0  0  0  0  0  0  0  0
  131.7825  119.6094   61.6151 H   0  0  0  0  0  0  0  0  0  0  0  0
  131.0715  122.3350   60.4015 H   0  0  0  0  0  0  0  0  0  0  0  0
  130.1311  121.3791   61.6406 H   0  0  0  0  0  0  0  0  0  0  0  0
  132.4157  124.9092   62.1873 H   0  0  0  0  0  0  0  0  0  0  0  0
  131.3836  126.7312   63.5134 H   0  0  0  0  0  0  0  0  0  0  0  0
  128.1690  126.3710   62.1080 H   0  0  0  0  0  0  0  0  0  0  0  0
  129.6260  127.2580   61.8750 H   0  0  0  0  0  0  0  0  0  0  0  0
  126.3907  129.7262   59.1865 H   0  0  0  0  0  0  0  0  0  0  0  0
  126.4098  130.9122   57.0027 H   0  0  0  0  0  0  0  0  0  0  0  0
  1  2  1  0
  2  3  1  0
  3  4  1  0
  4  5  2  0
  4  6  1  0
  6  7  2  0
  7  8  1  0
  8  9  2  0
  9 10  1  0
 10 11  1  0
 11 12  2  0
 11 13  1  0
 13 14  1  0
 14 15  1  0
 15 16  2  0
 16 17  1  0
 17 18  1  0
 18 19  2  0
 19 20  1  0
 20 21  2  0
 21 22  1  0
 22 23  1  0
 23 24  1  0
 24 25  1  0
 25 26  1  0
 26 27  1  0
 21 28  1  0
 28 29  2  0
 17 30  2  0
 30 31  1  0
 31 32  1  0
 32 33  2  0
 33 34  1  0
 34 35  2  0
 35 36  1  0
 36 37  1  0
 37 38  1  0
 38 39  1  0
 39 40  1  0
 40 41  1  0
 35 42  1  0
 42 43  2  0
 31 44  2  0
 44 45  1  0
 45 46  1  0
  9 47  1  0
 47 48  2  0
 48  6  1  0
 45 13  2  0
 44 15  1  0
 29 18  1  0
 43 32  1  0
 27 22  1  0
 41 36  1  0
  1 49  1  0
  1 50  1  0
  1 51  1  0
  2 52  1  0
  2 53  1  0
  7 54  1  0
  8 55  1  0
 10 56  1  0
 19 57  1  0
 20 58  1  0
 23 59  1  0
 23 60  1  0
 24 61  1  0
 24 62  1  0
 26 63  1  0
 26 64  1  0
 27 65  1  0
 27 66  1  0
 28 67  1  0
 29 68  1  0
 30 69  1  0
 33 70  1  0
 34 71  1  0
 37 72  1  0
 37 73  1  0
 38 74  1  0
 38 75  1  0
 40 76  1  0
 40 77  1  0
 41 78  1  0
 41 79  1  0
 42 80  1  0
 43 81  1  0
 46 82  1  0
 46 83  1  0
 47 84  1  0
 48 85  1  0
M  END
>  <Binding energies>  (1) 
[-10.26]

>  <Ligand effiencies>  (1) 
[-0.2011764705882353]

>  <Interactions>  (1) 
["V-A:LEU:363:CD1:3189, V-A:PRO:540:CD:4887, H-A:TYR:539:N:4870, V-B:TYR:539:CE2:9848, H-B:GLU:543:OE1:9881, V-B:TYR:539:CD2:9846, V-A:MET:535:CE:4835, V-A:ILE:369:CD1:3239, V-B:GLU:543:CG:9879, V-A:ILE:369:CG2:3237, V-A:LEU:475:CD2:4259, V-B:GLU:543:CB:9878, V-A:GLU:543:CD:4908, V-B:GLU:543:CD:9880, V-B:HIS:456:CE1:9041, V-A:GLY:544:C:4912, H-A:LYS:547:NZ:4951, V-B:GLU:543:C:9874, V-B:HIS:456:CD2:9039, V-A:HIS:456:CE1:4070, V-A:GLU:543:CG:4907, V-A:GLU:543:C:4902, V-A:GLU:543:CB:4906, H-B:LYS:547:NZ:9923, H-A:GLU:543:OE1:4909, V-A:HIS:456:CD2:4068, H-A:TYR:539:OH:4878, V-A:TYR:539:CE1:4875, V-A:TYR:539:CZ:4877, V-A:TYR:539:CD1:4873, V-A:TYR:539:CD2:4874, V-A:ILE:538:CA:4860, V-A:TYR:539:CG:4872, V-A:TYR:539:CE2:4876, V-A:ILE:538:CG2:4863, V-A:ILE:538:CB:4862, H-A:SER:385:OG:3410, V-A:SER:385:CA:3407, V-A:SER:385:CB:3409, V-A:SER:385:C:3405"]

$$$$
9b_Ghoteimi_2023
     RDKit          3D

 72 78  0  0  0  0  0  0  0  0999 V2000
  128.6620  126.0540   59.2550 N   0  0  0  0  0  0  0  0  0  0  0  0
  128.6310  125.3220   60.4150 C   0  0  0  0  0  0  0  0  0  0  0  0
  128.3460  123.9490   60.4550 C   0  0  0  0  0  0  0  0  0  0  0  0
  128.0620  123.0410   59.3400 C   0  0  0  0  0  0  0  0  0  0  0  0
  128.7000  121.9960   59.2020 O   0  0  0  0  0  0  0  0  0  0  0  0
  127.0730  123.4400   58.5010 N   0  0  0  0  0  0  0  0  0  0  0  0
  126.6090  122.7860   57.3670 C   0  0  0  0  0  0  0  0  0  0  0  0
  125.2600  122.7310   57.0190 C   0  0  0  0  0  0  0  0  0  0  0  0
  125.2220  122.0070   55.8500 C   0  0  0  0  0  0  0  0  0  0  0  0
  126.4830  121.6440   55.5120 O   0  0  0  0  0  0  0  0  0  0  0  0
  127.3530  122.1440   56.4820 N   0  0  0  0  0  0  0  0  0  0  0  0
  128.3600  123.3430   62.1110 S   0  0  0  0  0  0  0  0  0  0  0  0
  128.7280  124.9320   62.7370 C   0  0  0  0  0  0  0  0  0  0  0  0
  128.8510  125.1560   64.0440 N   0  0  0  0  0  0  0  0  0  0  0  0
  129.1210  126.4310   64.4290 C   0  0  0  0  0  0  0  0  0  0  0  0
  129.2330  126.6590   65.9020 C   0  0  0  0  0  0  0  0  0  0  0  0
  128.7450  127.8320   66.4920 C   0  0  0  0  0  0  0  0  0  0  0  0
  128.8650  128.0450   67.8610 C   0  0  0  0  0  0  0  0  0  0  0  0
  129.4900  127.1010   68.6900 C   0  0  0  0  0  0  0  0  0  0  0  0
  129.6150  127.3000   70.0700 N   0  0  0  0  0  0  0  0  0  0  0  0
  128.4450  127.6300   70.9080 C   0  0  0  0  0  0  0  0  0  0  0  0
  128.6990  127.4730   72.4220 C   0  0  0  0  0  0  0  0  0  0  0  0
  129.8300  128.2360   72.8060 O   0  0  0  0  0  0  0  0  0  0  0  0
  131.0000  127.8100   72.1270 C   0  0  0  0  0  0  0  0  0  0  0  0
  130.8180  127.9730   70.6020 C   0  0  0  0  0  0  0  0  0  0  0  0
  129.9590  125.9200   68.0970 C   0  0  0  0  0  0  0  0  0  0  0  0
  129.8350  125.7040   66.7270 C   0  0  0  0  0  0  0  0  0  0  0  0
  129.2940  127.4680   63.5080 C   0  0  0  0  0  0  0  0  0  0  0  0
  129.1860  127.2320   62.1330 C   0  0  0  0  0  0  0  0  0  0  0  0
  129.4080  128.3620   61.1940 C   0  0  0  0  0  0  0  0  0  0  0  0
  130.6780  128.6010   60.6680 C   0  0  0  0  0  0  0  0  0  0  0  0
  130.8860  129.6460   59.7730 C   0  0  0  0  0  0  0  0  0  0  0  0
  129.8280  130.4820   59.3810 C   0  0  0  0  0  0  0  0  0  0  0  0
  130.0110  131.5280   58.4720 N   0  0  0  0  0  0  0  0  0  0  0  0
  131.3540  131.7690   57.9100 C   0  0  0  0  0  0  0  0  0  0  0  0
  131.4980  133.1600   57.2560 C   0  0  0  0  0  0  0  0  0  0  0  0
  130.4990  133.3360   56.2640 O   0  0  0  0  0  0  0  0  0  0  0  0
  129.1920  133.2400   56.8100 C   0  0  0  0  0  0  0  0  0  0  0  0
  128.9900  131.8540   57.4570 C   0  0  0  0  0  0  0  0  0  0  0  0
  128.5530  130.2200   59.9030 C   0  0  0  0  0  0  0  0  0  0  0  0
  128.3450  129.1740   60.7980 C   0  0  0  0  0  0  0  0  0  0  0  0
  128.8690  125.9110   61.7090 C   0  0  0  0  0  0  0  0  0  0  0  0
  128.1240  125.7880   58.4420 H   0  0  0  0  0  0  0  0  0  0  0  0
  129.2270  126.8880   59.1730 H   0  0  0  0  0  0  0  0  0  0  0  0
  126.6120  124.3120   58.7180 H   0  0  0  0  0  0  0  0  0  0  0  0
  124.4104  123.1711   57.5616 H   0  0  0  0  0  0  0  0  0  0  0  0
  124.3133  121.7619   55.2806 H   0  0  0  0  0  0  0  0  0  0  0  0
  128.2606  128.5945   65.8643 H   0  0  0  0  0  0  0  0  0  0  0  0
  128.4631  128.9693   68.3015 H   0  0  0  0  0  0  0  0  0  0  0  0
  128.1604  128.6740   70.7105 H   0  0  0  0  0  0  0  0  0  0  0  0
  127.6492  126.9190   70.6413 H   0  0  0  0  0  0  0  0  0  0  0  0
  127.8170  127.8243   72.9776 H   0  0  0  0  0  0  0  0  0  0  0  0
  128.8851  126.4128   72.6486 H   0  0  0  0  0  0  0  0  0  0  0  0
  131.8547  128.4180   72.4584 H   0  0  0  0  0  0  0  0  0  0  0  0
  131.1834  126.7499   72.3563 H   0  0  0  0  0  0  0  0  0  0  0  0
  130.7441  129.0466   70.3743 H   0  0  0  0  0  0  0  0  0  0  0  0
  131.6880  127.5001   70.1230 H   0  0  0  0  0  0  0  0  0  0  0  0
  130.4329  125.1511   68.7248 H   0  0  0  0  0  0  0  0  0  0  0  0
  130.2156  124.7699   66.2881 H   0  0  0  0  0  0  0  0  0  0  0  0
  129.5179  128.4828   63.8687 H   0  0  0  0  0  0  0  0  0  0  0  0
  131.5209  127.9587   60.9629 H   0  0  0  0  0  0  0  0  0  0  0  0
  131.8934  129.8197   59.3668 H   0  0  0  0  0  0  0  0  0  0  0  0
  132.0926  131.6856   58.7209 H   0  0  0  0  0  0  0  0  0  0  0  0
  131.5188  131.0186   57.1228 H   0  0  0  0  0  0  0  0  0  0  0  0
  131.3876  133.9377   58.0261 H   0  0  0  0  0  0  0  0  0  0  0  0
  132.4900  133.2373   56.7869 H   0  0  0  0  0  0  0  0  0  0  0  0
  129.0578  134.0210   57.5729 H   0  0  0  0  0  0  0  0  0  0  0  0
  128.4541  133.3734   56.0052 H   0  0  0  0  0  0  0  0  0  0  0  0
  128.0010  131.8343   57.9381 H   0  0  0  0  0  0  0  0  0  0  0  0
  129.0769  131.1052   56.6559 H   0  0  0  0  0  0  0  0  0  0  0  0
  127.7040  130.8507   59.6006 H   0  0  0  0  0  0  0  0  0  0  0  0
  127.3365  128.9867   61.1952 H   0  0  0  0  0  0  0  0  0  0  0  0
  1  2  1  0
  2  3  2  0
  3  4  1  0
  4  5  2  0
  4  6  1  0
  6  7  1  0
  7  8  1  0
  8  9  2  0
  9 10  1  0
 10 11  1  0
  3 12  1  0
 12 13  1  0
 13 14  2  0
 14 15  1  0
 15 16  1  0
 16 17  2  0
 17 18  1  0
 18 19  2  0
 19 20  1  0
 20 21  1  0
 21 22  1  0
 22 23  1  0
 23 24  1  0
 24 25  1  0
 19 26  1  0
 26 27  2  0
 15 28  2  0
 28 29  1  0
 29 30  1  0
 30 31  2  0
 31 32  1  0
 32 33  2  0
 33 34  1  0
 34 35  1  0
 35 36  1  0
 36 37  1  0
 37 38  1  0
 38 39  1  0
 33 40  1  0
 40 41  2  0
 29 42  2  0
 42  2  1  0
 11  7  2  0
 42 13  1  0
 27 16  1  0
 41 30  1  0
 25 20  1  0
 39 34  1  0
  1 43  1  0
  1 44  1  0
  6 45  1  0
  8 46  1  0
  9 47  1  0
 17 48  1  0
 18 49  1  0
 21 50  1  0
 21 51  1  0
 22 52  1  0
 22 53  1  0
 24 54  1  0
 24 55  1  0
 25 56  1  0
 25 57  1  0
 26 58  1  0
 27 59  1  0
 28 60  1  0
 31 61  1  0
 32 62  1  0
 35 63  1  0
 35 64  1  0
 36 65  1  0
 36 66  1  0
 38 67  1  0
 38 68  1  0
 39 69  1  0
 39 70  1  0
 40 71  1  0
 41 72  1  0
M  END
>  <Binding energies>  (1) 
[-9.83]

>  <Ligand effiencies>  (1) 
[-0.21844444444444444]

>  <Interactions>  (1) 
["V-A:LEU:363:CD1:3189, V-A:PRO:540:CA:4883, V-A:PRO:540:CB:4885, V-A:PRO:540:CD:4887, V-A:PRO:540:CG:4886, V-A:PRO:540:N:4884, V-A:TYR:539:C:4867, H-A:TYR:539:N:4870, V-B:PRO:540:N:9856, V-B:PRO:540:CB:9857, V-B:PRO:540:CA:9855, V-B:TYR:539:CE2:9848, H-B:TYR:539:N:9842, V-B:PRO:540:CD:9859, V-B:MET:535:CE:9807, V-B:LEU:363:CD1:8160, V-B:PRO:540:CG:9858, V-B:TYR:539:C:9839, V-B:TYR:539:CD2:9846, V-B:GLU:543:CG:9879, V-B:GLU:543:CB:9878, V-A:GLU:543:CD:4908, V-B:GLU:543:CD:9880, V-B:HIS:456:CE1:9041, V-A:GLY:544:C:4912, H-A:LYS:547:NZ:4951, V-B:HIS:456:CD2:9039, V-A:HIS:456:CE1:4070, V-A:GLU:543:CG:4907, V-A:GLU:543:C:4902, V-A:GLU:543:CB:4906, V-A:HIS:456:CD2:4068, V-B:ILE:538:CG2:9835, V-A:TYR:539:CD1:4873, V-A:ILE:538:CA:4860, V-A:TYR:539:CG:4872, V-A:TYR:539:CA:4869, V-A:ILE:538:C:4858, V-A:ILE:538:CB:4862, V-B:ILE:538:CA:9832, V-B:ILE:538:CB:9834"]

$$$$
9c_Ghoteimi_2023
     RDKit          3D

 72 78  0  0  0  0  0  0  0  0999 V2000
  129.0030  127.1560   62.1460 N   0  0  0  0  0  0  0  0  0  0  0  0
  128.5070  127.8810   63.1990 C   0  0  0  0  0  0  0  0  0  0  0  0
  127.7270  129.0380   63.0420 C   0  0  0  0  0  0  0  0  0  0  0  0
  127.2790  129.6760   61.8000 C   0  0  0  0  0  0  0  0  0  0  0  0
  128.0060  130.4720   61.2030 O   0  0  0  0  0  0  0  0  0  0  0  0
  126.0360  129.3300   61.3840 N   0  0  0  0  0  0  0  0  0  0  0  0
  125.3740  129.7980   60.2570 C   0  0  0  0  0  0  0  0  0  0  0  0
  125.5850  129.4700   59.0010 N   0  0  0  0  0  0  0  0  0  0  0  0
  124.7700  130.1150   58.1880 C   0  0  0  0  0  0  0  0  0  0  0  0
  123.8700  130.9920   58.7870 C   0  0  0  0  0  0  0  0  0  0  0  0
  124.1120  130.9620   60.5080 S   0  0  0  0  0  0  0  0  0  0  0  0
  127.2880  129.7280   64.6040 S   0  0  0  0  0  0  0  0  0  0  0  0
  128.1640  128.4780   65.4540 C   0  0  0  0  0  0  0  0  0  0  0  0
  128.2390  128.4590   66.7840 N   0  0  0  0  0  0  0  0  0  0  0  0
  128.9600  127.4540   67.3460 C   0  0  0  0  0  0  0  0  0  0  0  0
  129.0460  127.4690   68.8380 C   0  0  0  0  0  0  0  0  0  0  0  0
  127.9960  126.9890   69.6290 C   0  0  0  0  0  0  0  0  0  0  0  0
  128.0770  127.0130   71.0180 C   0  0  0  0  0  0  0  0  0  0  0  0
  129.2080  127.5330   71.6680 C   0  0  0  0  0  0  0  0  0  0  0  0
  129.3080  127.5580   73.0640 N   0  0  0  0  0  0  0  0  0  0  0  0
  128.7510  128.6750   73.8550 C   0  0  0  0  0  0  0  0  0  0  0  0
  128.6380  128.3750   75.3640 C   0  0  0  0  0  0  0  0  0  0  0  0
  129.8990  127.9730   75.8730 O   0  0  0  0  0  0  0  0  0  0  0  0
  130.3660  126.7960   75.2340 C   0  0  0  0  0  0  0  0  0  0  0  0
  130.5290  127.0440   73.7180 C   0  0  0  0  0  0  0  0  0  0  0  0
  130.2640  127.9950   70.8710 C   0  0  0  0  0  0  0  0  0  0  0  0
  130.1840  127.9660   69.4810 C   0  0  0  0  0  0  0  0  0  0  0  0
  129.5760  126.4600   66.5830 C   0  0  0  0  0  0  0  0  0  0  0  0
  129.4810  126.4630   65.1870 C   0  0  0  0  0  0  0  0  0  0  0  0
  130.1270  125.3680   64.4220 C   0  0  0  0  0  0  0  0  0  0  0  0
  129.3500  124.4330   63.7360 C   0  0  0  0  0  0  0  0  0  0  0  0
  129.9520  123.4140   63.0040 C   0  0  0  0  0  0  0  0  0  0  0  0
  131.3500  123.3010   62.9400 C   0  0  0  0  0  0  0  0  0  0  0  0
  131.9760  122.2930   62.2020 N   0  0  0  0  0  0  0  0  0  0  0  0
  131.1930  121.5390   61.2020 C   0  0  0  0  0  0  0  0  0  0  0  0
  131.8760  120.2290   60.7550 C   0  0  0  0  0  0  0  0  0  0  0  0
  133.1810  120.5030   60.2680 O   0  0  0  0  0  0  0  0  0  0  0  0
  133.9960  121.1060   61.2600 C   0  0  0  0  0  0  0  0  0  0  0  0
  133.3650  122.4380   61.7260 C   0  0  0  0  0  0  0  0  0  0  0  0
  132.1210  124.2580   63.6160 C   0  0  0  0  0  0  0  0  0  0  0  0
  131.5190  125.2770   64.3480 C   0  0  0  0  0  0  0  0  0  0  0  0
  128.7610  127.5280   64.5730 C   0  0  0  0  0  0  0  0  0  0  0  0
  128.4660  126.4230   61.7030 H   0  0  0  0  0  0  0  0  0  0  0  0
  129.9270  127.3290   61.7760 H   0  0  0  0  0  0  0  0  0  0  0  0
  125.5290  128.6610   61.9440 H   0  0  0  0  0  0  0  0  0  0  0  0
  124.8001  129.9680   57.0983 H   0  0  0  0  0  0  0  0  0  0  0  0
  123.1260  131.6048   58.2569 H   0  0  0  0  0  0  0  0  0  0  0  0
  127.0934  126.5868   69.1457 H   0  0  0  0  0  0  0  0  0  0  0  0
  127.2423  126.6186   71.6160 H   0  0  0  0  0  0  0  0  0  0  0  0
  129.4026  129.5515   73.7237 H   0  0  0  0  0  0  0  0  0  0  0  0
  127.7296  128.8501   73.4862 H   0  0  0  0  0  0  0  0  0  0  0  0
  128.3038  129.2805   75.8916 H   0  0  0  0  0  0  0  0  0  0  0  0
  127.9107  127.5643   75.5181 H   0  0  0  0  0  0  0  0  0  0  0  0
  131.3381  126.5106   75.6626 H   0  0  0  0  0  0  0  0  0  0  0  0
  129.6363  125.9878   75.3902 H   0  0  0  0  0  0  0  0  0  0  0  0
  131.3360  127.7769   73.5711 H   0  0  0  0  0  0  0  0  0  0  0  0
  130.7549  126.0714   73.2564 H   0  0  0  0  0  0  0  0  0  0  0  0
  131.1722  128.3875   71.3518 H   0  0  0  0  0  0  0  0  0  0  0  0
  131.0271  128.3390   68.8809 H   0  0  0  0  0  0  0  0  0  0  0  0
  130.1438  125.6636   67.0863 H   0  0  0  0  0  0  0  0  0  0  0  0
  128.2529  124.5022   63.7743 H   0  0  0  0  0  0  0  0  0  0  0  0
  129.3239  122.6871   62.4682 H   0  0  0  0  0  0  0  0  0  0  0  0
  130.2144  121.2913   61.6390 H   0  0  0  0  0  0  0  0  0  0  0  0
  131.0989  122.1782   60.3117 H   0  0  0  0  0  0  0  0  0  0  0  0
  131.9437  119.5428   61.6120 H   0  0  0  0  0  0  0  0  0  0  0  0
  131.2811  119.7673   59.9532 H   0  0  0  0  0  0  0  0  0  0  0  0
  134.0867  120.4257   62.1196 H   0  0  0  0  0  0  0  0  0  0  0  0
  134.9909  121.3070   60.8361 H   0  0  0  0  0  0  0  0  0  0  0  0
  133.9743  122.8442   62.5468 H   0  0  0  0  0  0  0  0  0  0  0  0
  133.3415  123.1088   60.8545 H   0  0  0  0  0  0  0  0  0  0  0  0
  133.2185  124.2022   63.5668 H   0  0  0  0  0  0  0  0  0  0  0  0
  132.1434  126.0157   64.8718 H   0  0  0  0  0  0  0  0  0  0  0  0
  1  2  1  0
  2  3  2  0
  3  4  1  0
  4  5  2  0
  4  6  1  0
  6  7  1  0
  7  8  2  0
  8  9  1  0
  9 10  2  0
 10 11  1  0
  3 12  1  0
 12 13  1  0
 13 14  2  0
 14 15  1  0
 15 16  1  0
 16 17  2  0
 17 18  1  0
 18 19  2  0
 19 20  1  0
 20 21  1  0
 21 22  1  0
 22 23  1  0
 23 24  1  0
 24 25  1  0
 19 26  1  0
 26 27  2  0
 15 28  2  0
 28 29  1  0
 29 30  1  0
 30 31  2  0
 31 32  1  0
 32 33  2  0
 33 34  1  0
 34 35  1  0
 35 36  1  0
 36 37  1  0
 37 38  1  0
 38 39  1  0
 33 40  1  0
 40 41  2  0
 29 42  2  0
 42  2  1  0
 11  7  1  0
 42 13  1  0
 27 16  1  0
 41 30  1  0
 25 20  1  0
 39 34  1  0
  1 43  1  0
  1 44  1  0
  6 45  1  0
  9 46  1  0
 10 47  1  0
 17 48  1  0
 18 49  1  0
 21 50  1  0
 21 51  1  0
 22 52  1  0
 22 53  1  0
 24 54  1  0
 24 55  1  0
 25 56  1  0
 25 57  1  0
 26 58  1  0
 27 59  1  0
 28 60  1  0
 31 61  1  0
 32 62  1  0
 35 63  1  0
 35 64  1  0
 36 65  1  0
 36 66  1  0
 38 67  1  0
 38 68  1  0
 39 69  1  0
 39 70  1  0
 40 71  1  0
 41 72  1  0
M  END
>  <Binding energies>  (1) 
[-9.04]

>  <Ligand effiencies>  (1) 
[-0.20088888888888887]

>  <Interactions>  (1) 
["V-B:TYR:539:CE2:9848, V-B:ASP:366:CB:8183, H-B:TYR:531:OH:9767, H-B:ASP:366:OD1:8185, V-B:ASP:366:CG:8184, H-B:GLU:543:OE1:9881, V-B:TYR:539:CD2:9846, V-A:ILE:369:CD1:3239, V-B:GLU:543:CG:9879, V-A:ILE:369:CG2:3237, V-A:LEU:475:CD2:4259, V-B:GLU:543:CB:9878, V-A:GLU:543:CD:4908, V-B:GLU:543:CD:9880, V-B:HIS:456:CE1:9041, V-A:GLY:544:C:4912, H-A:LYS:547:NZ:4951, V-B:GLU:543:C:9874, V-B:HIS:456:CD2:9039, V-A:HIS:456:CE1:4070, V-A:GLU:543:CG:4907, V-A:GLU:543:C:4902, V-A:GLU:543:CB:4906, H-A:GLU:543:OE1:4909, V-A:HIS:456:CD2:4068, V-B:ASP:366:CA:8181, V-B:ILE:369:CG2:8208, V-B:ILE:369:CB:8207, H-B:ASP:366:OD2:8186, H-A:SER:385:OG:3410, V-A:SER:385:CA:3407, V-A:SER:385:CB:3409, V-A:SER:385:C:3405"]

$$$$
9d_Ghoteimi_2023
     RDKit          3D

 68 73  0  0  0  0  0  0  0  0999 V2000
  128.2360  132.8850   55.7740 C   0  0  0  0  0  0  0  0  0  0  0  0
  128.0630  132.2290   57.0220 O   0  0  0  0  0  0  0  0  0  0  0  0
  128.8310  132.5570   58.0940 C   0  0  0  0  0  0  0  0  0  0  0  0
  129.5700  133.5440   58.1360 O   0  0  0  0  0  0  0  0  0  0  0  0
  128.6950  131.6000   59.2140 C   0  0  0  0  0  0  0  0  0  0  0  0
  129.0490  132.1220   60.8610 S   0  0  0  0  0  0  0  0  0  0  0  0
  128.6420  130.5430   61.4900 C   0  0  0  0  0  0  0  0  0  0  0  0
  128.6810  130.2810   62.7960 N   0  0  0  0  0  0  0  0  0  0  0  0
  128.3300  129.0270   63.1850 C   0  0  0  0  0  0  0  0  0  0  0  0
  128.3560  128.7640   64.6570 C   0  0  0  0  0  0  0  0  0  0  0  0
  127.9980  129.7660   65.5640 C   0  0  0  0  0  0  0  0  0  0  0  0
  128.0210  129.5320   66.9360 C   0  0  0  0  0  0  0  0  0  0  0  0
  128.3930  128.2800   67.4510 C   0  0  0  0  0  0  0  0  0  0  0  0
  128.4390  128.0350   68.8280 N   0  0  0  0  0  0  0  0  0  0  0  0
  127.7330  126.8840   69.4270 C   0  0  0  0  0  0  0  0  0  0  0  0
  127.6010  126.9630   70.9620 C   0  0  0  0  0  0  0  0  0  0  0  0
  128.8780  127.1390   71.5510 O   0  0  0  0  0  0  0  0  0  0  0  0
  129.4930  128.3380   71.1090 C   0  0  0  0  0  0  0  0  0  0  0  0
  129.6840  128.3040   69.5770 C   0  0  0  0  0  0  0  0  0  0  0  0
  128.7670  127.2840   66.5380 C   0  0  0  0  0  0  0  0  0  0  0  0
  128.7460  127.5190   65.1660 C   0  0  0  0  0  0  0  0  0  0  0  0
  127.9740  128.0340   62.2690 C   0  0  0  0  0  0  0  0  0  0  0  0
  127.9510  128.2990   60.8950 C   0  0  0  0  0  0  0  0  0  0  0  0
  127.5920  127.1990   59.9610 C   0  0  0  0  0  0  0  0  0  0  0  0
  126.3950  127.2350   59.2430 C   0  0  0  0  0  0  0  0  0  0  0  0
  126.0720  126.2110   58.3560 C   0  0  0  0  0  0  0  0  0  0  0  0
  126.9470  125.1320   58.1520 C   0  0  0  0  0  0  0  0  0  0  0  0
  126.6420  124.0880   57.2750 N   0  0  0  0  0  0  0  0  0  0  0  0
  125.4020  123.3150   57.4830 C   0  0  0  0  0  0  0  0  0  0  0  0
  124.9930  122.4770   56.2530 C   0  0  0  0  0  0  0  0  0  0  0  0
  126.0620  121.6260   55.8670 O   0  0  0  0  0  0  0  0  0  0  0  0
  127.2260  122.3670   55.5280 C   0  0  0  0  0  0  0  0  0  0  0  0
  127.6910  123.1980   56.7430 C   0  0  0  0  0  0  0  0  0  0  0  0
  128.1460  125.1060   58.8800 C   0  0  0  0  0  0  0  0  0  0  0  0
  128.4670  126.1280   59.7670 C   0  0  0  0  0  0  0  0  0  0  0  0
  128.2750  129.6170   60.4690 C   0  0  0  0  0  0  0  0  0  0  0  0
  128.2960  130.2580   59.1800 C   0  0  0  0  0  0  0  0  0  0  0  0
  127.9350  129.6170   58.0230 N   0  0  0  0  0  0  0  0  0  0  0  0
  128.5130  133.9354   55.9472 H   0  0  0  0  0  0  0  0  0  0  0  0
  129.0329  132.3848   55.2042 H   0  0  0  0  0  0  0  0  0  0  0  0
  127.2960  132.8428   55.2042 H   0  0  0  0  0  0  0  0  0  0  0  0
  127.6937  130.7539   65.1878 H   0  0  0  0  0  0  0  0  0  0  0  0
  127.7433  130.3409   67.6277 H   0  0  0  0  0  0  0  0  0  0  0  0
  126.7229  126.8337   68.9944 H   0  0  0  0  0  0  0  0  0  0  0  0
  128.3326  125.9894   69.2032 H   0  0  0  0  0  0  0  0  0  0  0  0
  126.9567  127.8137   71.2287 H   0  0  0  0  0  0  0  0  0  0  0  0
  127.1580  126.0276   71.3344 H   0  0  0  0  0  0  0  0  0  0  0  0
  128.8560  129.1937   71.3772 H   0  0  0  0  0  0  0  0  0  0  0  0
  130.4764  128.4370   71.5919 H   0  0  0  0  0  0  0  0  0  0  0  0
  130.0792  129.2787   69.2548 H   0  0  0  0  0  0  0  0  0  0  0  0
  130.3754  127.4770   69.3580 H   0  0  0  0  0  0  0  0  0  0  0  0
  129.0827  126.2991   66.9125 H   0  0  0  0  0  0  0  0  0  0  0  0
  129.0394  126.7167   64.4730 H   0  0  0  0  0  0  0  0  0  0  0  0
  127.7082  127.0304   62.6326 H   0  0  0  0  0  0  0  0  0  0  0  0
  125.7020  128.0784   59.3789 H   0  0  0  0  0  0  0  0  0  0  0  0
  125.1189  126.2480   57.8081 H   0  0  0  0  0  0  0  0  0  0  0  0
  125.5528  122.6351   58.3345 H   0  0  0  0  0  0  0  0  0  0  0  0
  124.5940  124.0379   57.6687 H   0  0  0  0  0  0  0  0  0  0  0  0
  124.1138  121.8658   56.5048 H   0  0  0  0  0  0  0  0  0  0  0  0
  124.7515  123.1534   55.4198 H   0  0  0  0  0  0  0  0  0  0  0  0
  128.0269  121.6734   55.2323 H   0  0  0  0  0  0  0  0  0  0  0  0
  126.9942  123.0443   54.6928 H   0  0  0  0  0  0  0  0  0  0  0  0
  128.0009  122.5071   57.5409 H   0  0  0  0  0  0  0  0  0  0  0  0
  128.5199  123.8366   56.4038 H   0  0  0  0  0  0  0  0  0  0  0  0
  128.8424  124.2649   58.7473 H   0  0  0  0  0  0  0  0  0  0  0  0
  129.4173  126.0925   60.3199 H   0  0  0  0  0  0  0  0  0  0  0  0
  127.6130  130.1250   57.2120 H   0  0  0  0  0  0  0  0  0  0  0  0
  127.9840  128.6110   57.9400 H   0  0  0  0  0  0  0  0  0  0  0  0
  1  2  1  0
  2  3  1  0
  3  4  2  0
  3  5  1  0
  5  6  1  0
  6  7  1  0
  7  8  2  0
  8  9  1  0
  9 10  1  0
 10 11  2  0
 11 12  1  0
 12 13  2  0
 13 14  1  0
 14 15  1  0
 15 16  1  0
 16 17  1  0
 17 18  1  0
 18 19  1  0
 13 20  1  0
 20 21  2  0
  9 22  2  0
 22 23  1  0
 23 24  1  0
 24 25  2  0
 25 26  1  0
 26 27  2  0
 27 28  1  0
 28 29  1  0
 29 30  1  0
 30 31  1  0
 31 32  1  0
 32 33  1  0
 27 34  1  0
 34 35  2  0
 23 36  2  0
 36 37  1  0
 37 38  1  0
 37  5  2  0
 36  7  1  0
 21 10  1  0
 35 24  1  0
 19 14  1  0
 33 28  1  0
  1 39  1  0
  1 40  1  0
  1 41  1  0
 11 42  1  0
 12 43  1  0
 15 44  1  0
 15 45  1  0
 16 46  1  0
 16 47  1  0
 18 48  1  0
 18 49  1  0
 19 50  1  0
 19 51  1  0
 20 52  1  0
 21 53  1  0
 22 54  1  0
 25 55  1  0
 26 56  1  0
 29 57  1  0
 29 58  1  0
 30 59  1  0
 30 60  1  0
 32 61  1  0
 32 62  1  0
 33 63  1  0
 33 64  1  0
 34 65  1  0
 35 66  1  0
 38 67  1  0
 38 68  1  0
M  END
>  <Binding energies>  (1) 
[-8.43]

>  <Ligand effiencies>  (1) 
[-0.21075]

>  <Interactions>  (1) 
["H-A:TYR:539:N:4870, V-B:TYR:539:CZ:9849, V-B:PRO:540:N:9856, V-B:TYR:539:CE1:9847, V-B:PRO:540:CB:9857, V-B:TYR:539:CD1:9845, V-B:PRO:540:CA:9855, V-B:TYR:539:CE2:9848, H-B:TYR:539:N:9842, H-B:TYR:531:OH:9767, V-B:PRO:540:CD:9859, V-B:ASP:366:CG:8184, V-B:MET:535:CE:9807, V-B:LEU:363:CD1:8160, V-B:PRO:540:CG:9858, V-B:TYR:539:CG:9844, V-A:MET:535:CE:4835, V-B:GLU:543:CG:9879, V-B:GLU:543:CB:9878, V-A:GLU:543:CD:4908, V-B:GLU:543:CD:9880, V-B:HIS:456:CE1:9041, V-B:GLY:544:C:9884, V-B:GLU:543:C:9874, V-B:HIS:456:CD2:9039, V-A:GLU:543:CG:4907, V-A:GLU:543:C:4902, V-A:GLU:543:CB:4906, V-B:TYR:484:CZ:9318, V-A:TYR:539:CE1:4875, V-A:TYR:539:CZ:4877, V-B:ILE:538:CG2:9835, V-A:TYR:539:CD1:4873, V-A:TYR:539:CD2:4874, V-A:ILE:538:CA:4860, V-A:TYR:539:CG:4872, V-A:TYR:539:CE2:4876, V-B:TYR:484:CE2:9317, V-B:ILE:538:CA:9832, V-B:ILE:538:C:9830"]

$$$$
RR10_Rahimova_2017
     RDKit          3D

 66 70  0  0  0  0  0  0  0  0999 V2000
  133.6990  124.5720   58.6040 C   0  0  0  0  0  0  0  0  0  0  0  0
  133.5050  124.0080   60.0230 C   0  0  1  0  0  0  0  0  0  0  0  0
  132.6120  124.9250   60.8910 C   0  0  0  0  0  0  0  0  0  0  0  0
  132.4600  124.3580   62.3210 C   0  0  0  0  0  0  0  0  0  0  0  0
  131.8690  122.9250   62.3210 C   0  0  1  0  0  0  0  0  0  0  0  0
  130.4680  122.9400   61.8780 N   0  0  0  0  0  0  0  0  0  0  0  0
  129.8160  121.9050   61.3190 C   0  0  0  0  0  0  0  0  0  0  0  0
  130.3370  120.8020   61.1360 O   0  0  0  0  0  0  0  0  0  0  0  0
  128.3560  122.1550   60.8880 C   0  0  1  0  0  0  0  0  0  0  0  0
  127.7020  123.1770   61.8550 C   0  0  0  0  0  0  0  0  0  0  0  0
  126.2680  123.5010   61.3720 C   0  0  0  0  0  0  0  0  0  0  0  0
  126.2250  123.9260   59.8860 C   0  0  0  0  0  0  0  0  0  0  0  0
  126.9270  122.9280   59.0340 N   0  0  0  0  0  0  0  0  0  0  0  0
  126.6860  123.1500   57.2930 S   0  0  0  0  0  0  0  0  0  0  0  0
  125.2650  123.4340   57.0610 O   0  0  0  0  0  0  0  0  0  0  0  0
  127.3400  122.0330   56.6010 O   0  0  0  0  0  0  0  0  0  0  0  0
  127.5830  124.6490   56.8870 C   0  0  0  0  0  0  0  0  0  0  0  0
  128.5720  124.6090   55.8990 C   0  0  0  0  0  0  0  0  0  0  0  0
  129.3080  125.7420   55.5380 C   0  0  0  0  0  0  0  0  0  0  0  0
  129.0040  126.9250   56.2150 C   0  0  0  0  0  0  0  0  0  0  0  0
  129.4920  128.2090   56.1540 N   0  0  0  0  0  0  0  0  0  0  0  0
  128.8010  128.9700   57.0740 C   0  0  0  0  0  0  0  0  0  0  0  0
  129.0610  130.4310   57.3070 C   0  0  0  0  0  0  0  0  0  0  0  0
  130.2580  131.0170   56.8720 C   0  0  0  0  0  0  0  0  0  0  0  0
  130.4980  132.3720   57.0840 C   0  0  0  0  0  0  0  0  0  0  0  0
  129.5420  133.1490   57.7330 C   0  0  0  0  0  0  0  0  0  0  0  0
  128.3480  132.5830   58.1700 C   0  0  0  0  0  0  0  0  0  0  0  0
  128.1090  131.2270   57.9580 C   0  0  0  0  0  0  0  0  0  0  0  0
  127.8980  128.2640   57.7180 N   0  0  0  0  0  0  0  0  0  0  0  0
  128.0020  126.9950   57.2120 C   0  0  0  0  0  0  0  0  0  0  0  0
  127.2780  125.8440   57.5510 C   0  0  0  0  0  0  0  0  0  0  0  0
  128.3370  122.6940   59.4360 C   0  0  0  0  0  0  0  0  0  0  0  0
  132.7650  122.0200   61.4320 C   0  0  0  0  0  0  0  0  0  0  0  0
  132.9130  122.5800   60.0000 C   0  0  0  0  0  0  0  0  0  0  0  0
  134.0562  125.6104   58.6678 H   0  0  0  0  0  0  0  0  0  0  0  0
  134.4390  123.9622   58.0650 H   0  0  0  0  0  0  0  0  0  0  0  0
  132.7404  124.5464   58.0650 H   0  0  0  0  0  0  0  0  0  0  0  0
  134.5073  123.9651   60.4741 H   0  0  0  0  0  0  0  0  0  0  0  0
  133.0692  125.9239   60.9469 H   0  0  0  0  0  0  0  0  0  0  0  0
  131.6153  124.9825   60.4291 H   0  0  0  0  0  0  0  0  0  0  0  0
  133.4501  124.3332   62.7997 H   0  0  0  0  0  0  0  0  0  0  0  0
  131.7663  125.0102   62.8717 H   0  0  0  0  0  0  0  0  0  0  0  0
  131.8634  122.5140   63.3413 H   0  0  0  0  0  0  0  0  0  0  0  0
  130.0090  123.8390   61.8980 H   0  0  0  0  0  0  0  0  0  0  0  0
  127.7856  121.2152   60.9267 H   0  0  0  0  0  0  0  0  0  0  0  0
  127.6597  122.7486   62.8672 H   0  0  0  0  0  0  0  0  0  0  0  0
  128.3001  124.1000   61.8717 H   0  0  0  0  0  0  0  0  0  0  0  0
  125.6417  122.6059   61.5011 H   0  0  0  0  0  0  0  0  0  0  0  0
  125.8963  124.3449   61.9716 H   0  0  0  0  0  0  0  0  0  0  0  0
  125.1765  124.0033   59.5625 H   0  0  0  0  0  0  0  0  0  0  0  0
  126.7289  124.8981   59.7810 H   0  0  0  0  0  0  0  0  0  0  0  0
  128.7775  123.6560   55.3896 H   0  0  0  0  0  0  0  0  0  0  0  0
  130.0859  125.7034   54.7612 H   0  0  0  0  0  0  0  0  0  0  0  0
  130.2240  128.5790   55.5650 H   0  0  0  0  0  0  0  0  0  0  0  0
  131.0127  130.4021   56.3597 H   0  0  0  0  0  0  0  0  0  0  0  0
  131.4388  132.8267   56.7403 H   0  0  0  0  0  0  0  0  0  0  0  0
  129.7321  134.2192   57.9017 H   0  0  0  0  0  0  0  0  0  0  0  0
  127.5966  133.2034   58.6804 H   0  0  0  0  0  0  0  0  0  0  0  0
  127.1663  130.7780   58.3041 H   0  0  0  0  0  0  0  0  0  0  0  0
  126.4907  125.8781   58.3185 H   0  0  0  0  0  0  0  0  0  0  0  0
  128.7969  121.9568   58.7614 H   0  0  0  0  0  0  0  0  0  0  0  0
  128.9046  123.6345   59.3777 H   0  0  0  0  0  0  0  0  0  0  0  0
  133.7625  121.9482   61.8901 H   0  0  0  0  0  0  0  0  0  0  0  0
  132.2869  121.0318   61.3626 H   0  0  0  0  0  0  0  0  0  0  0  0
  133.5809  121.9228   59.4238 H   0  0  0  0  0  0  0  0  0  0  0  0
  131.9172  122.6205   59.5344 H   0  0  0  0  0  0  0  0  0  0  0  0
  1  2  1  0
  2  3  1  0
  3  4  1  0
  4  5  1  0
  5  6  1  0
  6  7  1  0
  7  8  2  0
  7  9  1  0
  9 10  1  0
 10 11  1  0
 11 12  1  0
 12 13  1  0
 13 14  1  0
 14 15  2  0
 14 16  2  0
 14 17  1  0
 17 18  2  0
 18 19  1  0
 19 20  2  0
 20 21  1  0
 21 22  1  0
 22 23  1  0
 23 24  2  0
 24 25  1  0
 25 26  2  0
 26 27  1  0
 27 28  2  0
 22 29  2  0
 29 30  1  0
 30 31  2  0
 13 32  1  0
  5 33  1  0
 33 34  1  0
 34  2  1  0
 32  9  1  0
 31 17  1  0
 30 20  1  0
 28 23  1  0
  1 35  1  0
  1 36  1  0
  1 37  1  0
  2 38  1  1
  3 39  1  0
  3 40  1  0
  4 41  1  0
  4 42  1  0
  5 43  1  1
  6 44  1  0
  9 45  1  6
 10 46  1  0
 10 47  1  0
 11 48  1  0
 11 49  1  0
 12 50  1  0
 12 51  1  0
 18 52  1  0
 19 53  1  0
 21 54  1  0
 24 55  1  0
 25 56  1  0
 26 57  1  0
 27 58  1  0
 28 59  1  0
 31 60  1  0
 32 61  1  0
 32 62  1  0
 33 63  1  0
 33 64  1  0
 34 65  1  0
 34 66  1  0
M  END
>  <Binding energies>  (1) 
[-10.45]

>  <Ligand effiencies>  (1) 
[-0.29027777777777775]

>  <Interactions>  (1) 
["V-A:ASP:366:CG:3213, H-A:TYR:531:OH:4795, V-A:PRO:540:CA:4883, V-A:PRO:540:N:4884, V-A:TYR:539:C:4867, V-A:ASP:366:CB:3212, V-B:TYR:539:CZ:9849, V-B:PRO:540:N:9856, V-B:TYR:539:CE1:9847, V-B:PRO:540:CB:9857, V-B:PRO:540:CA:9855, V-B:TYR:539:CE2:9848, H-B:TYR:539:N:9842, H-B:TYR:531:OH:9767, V-B:TYR:539:C:9839, V-B:PRO:540:C:9853, V-B:TYR:539:CD2:9846, V-A:MET:535:CE:4835, V-A:ASP:366:C:3208, V-A:ASP:366:CA:3210, V-A:ILE:369:CB:3236, V-A:ILE:369:CG2:3237, V-A:LEU:475:CD2:4259, V-A:TYR:531:CZ:4794, V-A:TYR:539:CE1:4875, V-A:TYR:539:CD1:4873, V-A:TYR:539:CA:4869, H-A:MET:535:SD:4834"]

$$$$
RR11_Rahimova_2017
     RDKit          3D

 55 60  0  0  0  0  0  0  0  0999 V2000
  129.9640  132.8720   56.7540 N   0  0  0  0  0  0  0  0  0  0  0  0
  130.3680  131.6280   57.2340 C   0  0  0  0  0  0  0  0  0  0  0  0
  131.6870  131.4360   57.6400 C   0  0  0  0  0  0  0  0  0  0  0  0
  132.0890  130.1940   58.1220 C   0  0  0  0  0  0  0  0  0  0  0  0
  131.1790  129.1320   58.2010 C   0  0  0  0  0  0  0  0  0  0  0  0
  131.6120  127.7960   58.7260 C   0  0  0  0  0  0  0  0  0  0  0  0
  131.3730  127.3620   59.9440 N   0  0  0  0  0  0  0  0  0  0  0  0
  131.9230  126.1080   59.9970 C   0  0  0  0  0  0  0  0  0  0  0  0
  131.9480  125.1960   61.0600 C   0  0  0  0  0  0  0  0  0  0  0  0
  132.5640  123.9550   60.8580 C   0  0  0  0  0  0  0  0  0  0  0  0
  132.6120  122.9450   61.9970 C   0  0  0  0  0  0  0  0  0  0  0  0
  131.7550  123.3520   63.1880 C   0  0  0  0  0  0  0  0  0  0  0  0
  130.5840  122.6400   63.4690 C   0  0  0  0  0  0  0  0  0  0  0  0
  129.7700  122.9690   64.5550 C   0  0  0  0  0  0  0  0  0  0  0  0
  130.1590  124.0390   65.3710 C   0  0  0  0  0  0  0  0  0  0  0  0
  129.5370  124.5580   66.4770 N   0  0  0  0  0  0  0  0  0  0  0  0
  130.3030  125.5530   66.8710 C   0  0  0  0  0  0  0  0  0  0  0  0
  130.0100  126.4340   68.0510 C   0  0  0  0  0  0  0  0  0  0  0  0
  131.0050  127.2650   68.5820 C   0  0  0  0  0  0  0  0  0  0  0  0
  130.7360  128.0750   69.6830 C   0  0  0  0  0  0  0  0  0  0  0  0
  129.4690  128.0590   70.2610 C   0  0  0  0  0  0  0  0  0  0  0  0
  129.2000  128.8660   71.3660 N   0  0  0  0  0  0  0  0  0  0  0  0
  128.4690  127.2420   69.7410 C   0  0  0  0  0  0  0  0  0  0  0  0
  128.7390  126.4320   68.6400 C   0  0  0  0  0  0  0  0  0  0  0  0
  131.4120  125.7010   66.0650 N   0  0  0  0  0  0  0  0  0  0  0  0
  131.3520  124.7430   65.0820 C   0  0  0  0  0  0  0  0  0  0  0  0
  132.1740  124.4140   64.0000 C   0  0  0  0  0  0  0  0  0  0  0  0
  133.1630  123.6470   59.6320 C   0  0  0  0  0  0  0  0  0  0  0  0
  133.1590  124.5360   58.5540 C   0  0  0  0  0  0  0  0  0  0  0  0
  132.5270  125.7640   58.7640 C   0  0  0  0  0  0  0  0  0  0  0  0
  132.3100  126.8710   57.9760 N   0  0  0  0  0  0  0  0  0  0  0  0
  129.8550  129.3390   57.7880 C   0  0  0  0  0  0  0  0  0  0  0  0
  129.4510  130.5810   57.3060 C   0  0  0  0  0  0  0  0  0  0  0  0
  130.1380  133.1140   55.7890 H   0  0  0  0  0  0  0  0  0  0  0  0
  129.4650  133.5020   57.3660 H   0  0  0  0  0  0  0  0  0  0  0  0
  132.4086  132.2640   57.5797 H   0  0  0  0  0  0  0  0  0  0  0  0
  133.1303  130.0449   58.4437 H   0  0  0  0  0  0  0  0  0  0  0  0
  131.4947  125.4487   62.0299 H   0  0  0  0  0  0  0  0  0  0  0  0
  132.2529  121.9755   61.6214 H   0  0  0  0  0  0  0  0  0  0  0  0
  133.6542  122.8895   62.3445 H   0  0  0  0  0  0  0  0  0  0  0  0
  130.2974  121.8005   62.8186 H   0  0  0  0  0  0  0  0  0  0  0  0
  128.8496  122.4040   64.7637 H   0  0  0  0  0  0  0  0  0  0  0  0
  132.0060  127.2780   68.1262 H   0  0  0  0  0  0  0  0  0  0  0  0
  131.5219  128.7253   70.0946 H   0  0  0  0  0  0  0  0  0  0  0  0
  129.0680  128.4400   72.2720 H   0  0  0  0  0  0  0  0  0  0  0  0
  129.1750  129.8700   71.2540 H   0  0  0  0  0  0  0  0  0  0  0  0
  127.4685  127.2359   70.1981 H   0  0  0  0  0  0  0  0  0  0  0  0
  127.9484  125.7862   68.2303 H   0  0  0  0  0  0  0  0  0  0  0  0
  132.1140  126.4120   66.2120 H   0  0  0  0  0  0  0  0  0  0  0  0
  133.1052  124.9628   63.7960 H   0  0  0  0  0  0  0  0  0  0  0  0
  133.6546  122.6703   59.5123 H   0  0  0  0  0  0  0  0  0  0  0  0
  133.6282  124.2826   57.5919 H   0  0  0  0  0  0  0  0  0  0  0  0
  132.5860  127.0270   57.0180 H   0  0  0  0  0  0  0  0  0  0  0  0
  129.1300  128.5137   57.8453 H   0  0  0  0  0  0  0  0  0  0  0  0
  128.4109  130.7355   56.9829 H   0  0  0  0  0  0  0  0  0  0  0  0
  1  2  1  0
  2  3  2  0
  3  4  1  0
  4  5  2  0
  5  6  1  0
  6  7  2  0
  7  8  1  0
  8  9  2  0
  9 10  1  0
 10 11  1  0
 11 12  1  0
 12 13  2  0
 13 14  1  0
 14 15  2  0
 15 16  1  0
 16 17  2  0
 17 18  1  0
 18 19  2  0
 19 20  1  0
 20 21  2  0
 21 22  1  0
 21 23  1  0
 23 24  2  0
 17 25  1  0
 25 26  1  0
 26 27  2  0
 10 28  2  0
 28 29  1  0
 29 30  2  0
 30 31  1  0
  5 32  1  0
 32 33  2  0
 33  2  1  0
 31  6  1  0
 30  8  1  0
 27 12  1  0
 26 15  1  0
 24 18  1  0
  1 34  1  0
  1 35  1  0
  3 36  1  0
  4 37  1  0
  9 38  1  0
 11 39  1  0
 11 40  1  0
 13 41  1  0
 14 42  1  0
 19 43  1  0
 20 44  1  0
 22 45  1  0
 22 46  1  0
 23 47  1  0
 24 48  1  0
 25 49  1  0
 27 50  1  0
 28 51  1  0
 29 52  1  0
 31 53  1  0
 32 54  1  0
 33 55  1  0
M  END
>  <Binding energies>  (1) 
[-8.62]

>  <Ligand effiencies>  (1) 
[-0.221025641025641]

>  <Interactions>  (1) 
["V-A:LEU:363:CD1:3189, V-A:ASP:366:CG:3213, H-A:TYR:531:OH:4795, V-A:ASP:366:CB:3212, V-B:TYR:539:CZ:9849, V-B:TYR:539:CE2:9848, V-A:MET:535:CE:4835, V-B:ALA:541:CB:9864, V-A:ASP:366:CA:3210, V-B:GLU:543:CG:9879, H-A:ASP:366:O:3209, V-A:ILE:369:CG2:3237, V-A:LEU:475:CD2:4259, V-A:TYR:484:CZ:4347, V-B:GLU:543:CB:9878, H-A:TYR:484:OH:4348, V-A:GLU:543:CD:4908, V-A:TYR:484:CE2:4346, V-B:HIS:456:CE1:9041, V-A:GLY:544:C:4912, V-B:GLU:543:C:9874, V-B:HIS:456:CD2:9039, V-A:HIS:456:CE1:4070, V-A:GLU:543:C:4902, V-A:GLU:543:CB:4906, V-A:TYR:531:CZ:4794, V-A:ARG:545:CG:4922, H-A:GLU:543:OE2:4910, V-A:GLU:543:CA:4904, H-B:HIS:456:NE2:9042, H-A:GLU:543:O:4903, V-B:GLU:543:CA:9876, V-A:ILE:538:CA:4860"]

$$$$
RR11_Rahimova_2017-again1
     RDKit          3D

 56 61  0  0  0  0  0  0  0  0999 V2000
  129.2140  128.7860   71.4350 N   0  0  0  0  0  0  0  0  0  0  0  0
  129.4770  127.9960   70.3170 C   0  0  0  0  0  0  0  0  0  0  0  0
  128.4950  127.1370   69.8280 C   0  0  0  0  0  0  0  0  0  0  0  0
  128.7590  126.3460   68.7120 C   0  0  0  0  0  0  0  0  0  0  0  0
  130.0070  126.4060   68.0780 C   0  0  0  0  0  0  0  0  0  0  0  0
  130.2940  125.5470   66.8810 C   0  0  0  0  0  0  0  0  0  0  0  0
  129.5610  124.5210   66.5110 N   0  0  0  0  0  0  0  0  0  0  0  0
  130.1820  124.0150   65.3990 C   0  0  0  0  0  0  0  0  0  0  0  0
  129.8250  122.9160   64.6060 C   0  0  0  0  0  0  0  0  0  0  0  0
  130.6430  122.5930   63.5220 C   0  0  0  0  0  0  0  0  0  0  0  0
  131.7920  123.3330   63.2240 C   0  0  0  0  0  0  0  0  0  0  0  0
  132.6510  122.9340   62.0330 C   0  0  0  0  0  0  0  0  0  0  0  0
  132.5890  123.9480   60.8990 C   0  0  0  0  0  0  0  0  0  0  0  0
  133.0970  123.6080   59.6400 C   0  0  0  0  0  0  0  0  0  0  0  0
  133.0690  124.4970   58.5620 C   0  0  0  0  0  0  0  0  0  0  0  0
  132.5030  125.7530   58.8000 C   0  0  0  0  0  0  0  0  0  0  0  0
  132.3260  126.8590   57.9800 N   0  0  0  0  0  0  0  0  0  0  0  0
  131.7160  127.8740   58.6810 C   0  0  0  0  0  0  0  0  0  0  0  0
  131.3650  129.2340   58.1710 C   0  0  0  0  0  0  0  0  0  0  0  0
  130.0600  129.5090   57.7460 C   0  0  0  0  0  0  0  0  0  0  0  0
  129.7250  130.7770   57.2770 C   0  0  0  0  0  0  0  0  0  0  0  0
  130.6950  131.7760   57.2300 C   0  0  0  0  0  0  0  0  0  0  0  0
  130.3580  133.0460   56.7650 N   0  0  0  0  0  0  0  0  0  0  0  0
  131.9990  131.5120   57.6490 C   0  0  0  0  0  0  0  0  0  0  0  0
  132.3330  130.2450   58.1180 C   0  0  0  0  0  0  0  0  0  0  0  0
  131.5030  127.3940   59.9520 N   0  0  0  0  0  0  0  0  0  0  0  0
  131.9790  126.0950   60.0580 C   0  0  0  0  0  0  0  0  0  0  0  0
  132.0030  125.1990   61.1300 C   0  0  0  0  0  0  0  0  0  0  0  0
  132.1560  124.4510   63.9880 C   0  0  0  0  0  0  0  0  0  0  0  0
  131.3380  124.7640   65.0760 C   0  0  0  0  0  0  0  0  0  0  0  0
  131.3730  125.7400   66.0440 N   0  0  0  0  0  0  0  0  0  0  0  0
  130.9850  127.2750   68.5800 C   0  0  0  0  0  0  0  0  0  0  0  0
  130.7210  128.0680   69.6950 C   0  0  0  0  0  0  0  0  0  0  0  0
  128.8850  128.3510   72.2840 H   0  0  0  0  0  0  0  0  0  0  0  0
  129.3180  129.7880   71.3700 H   0  0  0  0  0  0  0  0  0  0  0  0
  127.5136  127.0835   70.3220 H   0  0  0  0  0  0  0  0  0  0  0  0
  127.9822  125.6696   68.3259 H   0  0  0  0  0  0  0  0  0  0  0  0
  128.9254  122.3245   64.8315 H   0  0  0  0  0  0  0  0  0  0  0  0
  130.3775  121.7354   62.8864 H   0  0  0  0  0  0  0  0  0  0  0  0
  133.6951  122.8426   62.3669 H   0  0  0  0  0  0  0  0  0  0  0  0
  132.2626  121.9798   61.6476 H   0  0  0  0  0  0  0  0  0  0  0  0
  133.5325  122.6085   59.4942 H   0  0  0  0  0  0  0  0  0  0  0  0
  133.4720  124.2223   57.5760 H   0  0  0  0  0  0  0  0  0  0  0  0
  132.5930  126.9550   57.0110 H   0  0  0  0  0  0  0  0  0  0  0  0
  129.2949  128.7195   57.7826 H   0  0  0  0  0  0  0  0  0  0  0  0
  128.6980  130.9890   56.9448 H   0  0  0  0  0  0  0  0  0  0  0  0
  131.0110  133.5540   56.1850 H   0  0  0  0  0  0  0  0  0  0  0  0
  129.4760  133.4570   57.0350 H   0  0  0  0  0  0  0  0  0  0  0  0
  132.7617  132.3036   57.6088 H   0  0  0  0  0  0  0  0  0  0  0  0
  133.3613  130.0367   58.4484 H   0  0  0  0  0  0  0  0  0  0  0  0
  131.0640  127.9480   60.6720 H   0  0  0  0  0  0  0  0  0  0  0  0
  131.5809  125.4641   62.1106 H   0  0  0  0  0  0  0  0  0  0  0  0
  133.0434  125.0528   63.7422 H   0  0  0  0  0  0  0  0  0  0  0  0
  132.0480  126.4800   66.1700 H   0  0  0  0  0  0  0  0  0  0  0  0
  131.9684  127.3316   68.0903 H   0  0  0  0  0  0  0  0  0  0  0  0
  131.4930  128.7489   70.0828 H   0  0  0  0  0  0  0  0  0  0  0  0
  1  2  1  0
  2  3  2  0
  3  4  1  0
  4  5  2  0
  5  6  1  0
  6  7  2  0
  7  8  1  0
  8  9  2  0
  9 10  1  0
 10 11  2  0
 11 12  1  0
 12 13  1  0
 13 14  2  0
 14 15  1  0
 15 16  2  0
 16 17  1  0
 17 18  1  0
 18 19  1  0
 19 20  2  0
 20 21  1  0
 21 22  2  0
 22 23  1  0
 22 24  1  0
 24 25  2  0
 18 26  2  0
 26 27  1  0
 27 28  2  0
 11 29  1  0
 29 30  2  0
 30 31  1  0
  5 32  1  0
 32 33  2  0
 33  2  1  0
 31  6  1  0
 30  8  1  0
 28 13  1  0
 27 16  1  0
 25 19  1  0
  1 34  1  0
  1 35  1  0
  3 36  1  0
  4 37  1  0
  9 38  1  0
 10 39  1  0
 12 40  1  0
 12 41  1  0
 14 42  1  0
 15 43  1  0
 17 44  1  0
 20 45  1  0
 21 46  1  0
 23 47  1  0
 23 48  1  0
 24 49  1  0
 25 50  1  0
 26 51  1  0
 28 52  1  0
 29 53  1  0
 31 54  1  0
 32 55  1  0
 33 56  1  0
M  CHG  1  26   1
M  END
>  <Binding energies>  (1) 
[-9.28]

>  <Ligand effiencies>  (1) 
[-0.23199999999999998]

>  <Interactions>  (1) 
["V-A:LEU:363:CD1:3189, V-A:ASP:366:CG:3213, H-A:TYR:531:OH:4795, H-B:TYR:539:OH:9850, V-A:PRO:540:CB:4885, H-A:ASP:366:OD2:3215, V-A:PRO:540:N:4884, V-A:ASP:366:CB:3212, V-B:TYR:539:CZ:9849, V-B:TYR:539:CE2:9848, V-A:MET:535:CE:4835, V-B:ALA:541:CB:9864, V-A:ASP:366:CA:3210, V-B:GLU:543:CG:9879, H-A:ASP:366:O:3209, V-A:ILE:369:CG2:3237, V-A:LEU:475:CD2:4259, V-A:TYR:484:CZ:4347, V-B:GLU:543:CB:9878, H-A:TYR:484:OH:4348, V-A:GLU:543:CD:4908, V-A:TYR:484:CE2:4346, V-B:HIS:456:CE1:9041, V-A:GLY:544:C:4912, V-B:GLU:543:C:9874, V-B:HIS:456:CD2:9039, V-A:HIS:456:CE1:4070, V-A:GLU:543:C:4902, V-A:GLU:543:CB:4906, V-A:TYR:531:CZ:4794, H-A:GLU:543:OE1:4909, V-A:ARG:545:CG:4922, H-A:GLU:543:OE2:4910, V-A:GLU:543:CA:4904, H-B:HIS:456:NE2:9042, H-A:GLU:543:O:4903, V-B:GLU:543:CA:9876, V-A:ILE:538:CA:4860, V-A:ILE:538:CB:4862"]

$$$$
RR11_Rahimova_2017-again2
     RDKit          3D

 57 62  0  0  0  0  0  0  0  0999 V2000
  129.1490  128.8950   71.3560 N   0  0  0  0  0  0  0  0  0  0  0  0
  129.4350  128.0800   70.2620 C   0  0  0  0  0  0  0  0  0  0  0  0
  130.7080  128.1020   69.6950 C   0  0  0  0  0  0  0  0  0  0  0  0
  130.9920  127.2920   68.5990 C   0  0  0  0  0  0  0  0  0  0  0  0
  130.0040  126.4560   68.0620 C   0  0  0  0  0  0  0  0  0  0  0  0
  130.3050  125.5950   66.8800 C   0  0  0  0  0  0  0  0  0  0  0  0
  131.3490  125.7470   65.9950 N   0  0  0  0  0  0  0  0  0  0  0  0
  131.3120  124.7410   65.0380 C   0  0  0  0  0  0  0  0  0  0  0  0
  132.1450  124.4610   63.9510 C   0  0  0  0  0  0  0  0  0  0  0  0
  131.8280  123.3340   63.1830 C   0  0  0  0  0  0  0  0  0  0  0  0
  132.7020  122.9750   61.9890 C   0  0  0  0  0  0  0  0  0  0  0  0
  132.6140  123.9970   60.8640 C   0  0  0  0  0  0  0  0  0  0  0  0
  133.1750  123.7010   59.6160 C   0  0  0  0  0  0  0  0  0  0  0  0
  133.1260  124.5990   58.5470 C   0  0  0  0  0  0  0  0  0  0  0  0
  132.4800  125.8150   58.7800 C   0  0  0  0  0  0  0  0  0  0  0  0
  132.2610  126.9160   57.9630 N   0  0  0  0  0  0  0  0  0  0  0  0
  131.5720  127.8880   58.6530 C   0  0  0  0  0  0  0  0  0  0  0  0
  131.1560  129.2280   58.1400 C   0  0  0  0  0  0  0  0  0  0  0  0
  129.8640  129.4230   57.6410 C   0  0  0  0  0  0  0  0  0  0  0  0
  129.4720  130.6740   57.1720 C   0  0  0  0  0  0  0  0  0  0  0  0
  130.3720  131.7370   57.2010 C   0  0  0  0  0  0  0  0  0  0  0  0
  129.9790  132.9920   56.7380 N   0  0  0  0  0  0  0  0  0  0  0  0
  131.6640  131.5540   57.6930 C   0  0  0  0  0  0  0  0  0  0  0  0
  132.0540  130.3020   58.1620 C   0  0  0  0  0  0  0  0  0  0  0  0
  131.3510  127.3840   59.9140 N   0  0  0  0  0  0  0  0  0  0  0  0
  131.9020  126.1140   60.0240 C   0  0  0  0  0  0  0  0  0  0  0  0
  131.9480  125.2100   61.0890 C   0  0  0  0  0  0  0  0  0  0  0  0
  130.7090  122.5470   63.4780 C   0  0  0  0  0  0  0  0  0  0  0  0
  129.8680  122.8260   64.5590 C   0  0  0  0  0  0  0  0  0  0  0  0
  130.1980  123.9390   65.3360 C   0  0  0  0  0  0  0  0  0  0  0  0
  129.6030  124.4870   66.4650 N   0  0  0  0  0  0  0  0  0  0  0  0
  128.7300  126.4400   68.6420 C   0  0  0  0  0  0  0  0  0  0  0  0
  128.4460  127.2500   69.7390 C   0  0  0  0  0  0  0  0  0  0  0  0
  129.1500  129.8990   71.2420 H   0  0  0  0  0  0  0  0  0  0  0  0
  129.0090  128.4780   72.2650 H   0  0  0  0  0  0  0  0  0  0  0  0
  131.4863  128.7577   70.1125 H   0  0  0  0  0  0  0  0  0  0  0  0
  131.9971  127.3083   68.1523 H   0  0  0  0  0  0  0  0  0  0  0  0
  132.0220  126.4940   66.0760 H   0  0  0  0  0  0  0  0  0  0  0  0
  133.0097  125.0968   63.7101 H   0  0  0  0  0  0  0  0  0  0  0  0
  133.7474  122.9118   62.3252 H   0  0  0  0  0  0  0  0  0  0  0  0
  132.3418  122.0144   61.5922 H   0  0  0  0  0  0  0  0  0  0  0  0
  133.6706  122.7295   59.4724 H   0  0  0  0  0  0  0  0  0  0  0  0
  133.5737  124.3603   57.5710 H   0  0  0  0  0  0  0  0  0  0  0  0
  132.5490  127.0370   57.0030 H   0  0  0  0  0  0  0  0  0  0  0  0
  129.1537  128.5834   57.6190 H   0  0  0  0  0  0  0  0  0  0  0  0
  128.4551  130.8225   56.7799 H   0  0  0  0  0  0  0  0  0  0  0  0
  130.2430  133.2850   55.8090 H   0  0  0  0  0  0  0  0  0  0  0  0
  129.4900  133.6200   57.3600 H   0  0  0  0  0  0  0  0  0  0  0  0
  132.3724  132.3954   57.7106 H   0  0  0  0  0  0  0  0  0  0  0  0
  133.0723  130.1562   58.5516 H   0  0  0  0  0  0  0  0  0  0  0  0
  130.8600  127.9050   60.6260 H   0  0  0  0  0  0  0  0  0  0  0  0
  131.4830  125.4397   62.0591 H   0  0  0  0  0  0  0  0  0  0  0  0
  130.4840  121.6808   62.8384 H   0  0  0  0  0  0  0  0  0  0  0  0
  128.9915  122.2014   64.7862 H   0  0  0  0  0  0  0  0  0  0  0  0
  128.7820  124.1570   66.9500 H   0  0  0  0  0  0  0  0  0  0  0  0
  127.9491  125.7843   68.2293 H   0  0  0  0  0  0  0  0  0  0  0  0
  127.4434  127.2343   70.1912 H   0  0  0  0  0  0  0  0  0  0  0  0
  1  2  1  0
  2  3  2  0
  3  4  1  0
  4  5  2  0
  5  6  1  0
  6  7  1  0
  7  8  1  0
  8  9  2  0
  9 10  1  0
 10 11  1  0
 11 12  1  0
 12 13  2  0
 13 14  1  0
 14 15  2  0
 15 16  1  0
 16 17  1  0
 17 18  1  0
 18 19  2  0
 19 20  1  0
 20 21  2  0
 21 22  1  0
 21 23  1  0
 23 24  2  0
 17 25  2  0
 25 26  1  0
 26 27  2  0
 10 28  2  0
 28 29  1  0
 29 30  2  0
 30 31  1  0
  5 32  1  0
 32 33  2  0
 33  2  1  0
 31  6  2  0
 30  8  1  0
 27 12  1  0
 26 15  1  0
 24 18  1  0
  1 34  1  0
  1 35  1  0
  3 36  1  0
  4 37  1  0
  7 38  1  0
  9 39  1  0
 11 40  1  0
 11 41  1  0
 13 42  1  0
 14 43  1  0
 16 44  1  0
 19 45  1  0
 20 46  1  0
 22 47  1  0
 22 48  1  0
 23 49  1  0
 24 50  1  0
 25 51  1  0
 27 52  1  0
 28 53  1  0
 29 54  1  0
 31 55  1  0
 32 56  1  0
 33 57  1  0
M  CHG  2  25   1  31   1
M  END
>  <Binding energies>  (1) 
[-9.69]

>  <Ligand effiencies>  (1) 
[-0.23634146341463413]

>  <Interactions>  (1) 
["V-A:LEU:363:CD1:3189, V-A:ASP:366:CG:3213, H-A:TYR:531:OH:4795, H-A:ASP:366:OD2:3215, V-A:PRO:540:N:4884, V-A:ASP:366:CB:3212, V-B:TYR:539:CZ:9849, V-B:TYR:539:CE2:9848, V-A:MET:535:CE:4835, V-B:ALA:541:CB:9864, V-A:ASP:366:CA:3210, V-B:GLU:543:CG:9879, H-A:ASP:366:O:3209, V-A:ILE:369:CG2:3237, V-A:LEU:475:CD2:4259, V-A:TYR:484:CZ:4347, V-B:GLU:543:CB:9878, V-A:GLU:543:CD:4908, V-A:TYR:484:CE2:4346, V-B:GLU:543:CD:9880, V-B:HIS:456:CE1:9041, V-A:GLY:544:C:4912, V-B:GLU:543:C:9874, V-B:HIS:456:CD2:9039, V-A:HIS:456:CE1:4070, V-A:GLU:543:C:4902, V-A:GLU:543:CB:4906, V-A:TYR:531:CZ:4794, H-A:GLU:543:OE1:4909, V-A:ARG:545:CG:4922, H-A:GLU:543:OE2:4910, V-A:GLU:543:CA:4904, H-B:GLU:543:O:9875, H-B:HIS:456:NE2:9042, H-A:GLU:543:O:4903, V-B:GLU:543:CA:9876, V-A:ILE:538:CA:4860, V-A:ILE:538:CB:4862, H-A:TYR:539:O:4868"]

$$$$
RR12_Rahimova_2017
     RDKit          3D

 51 53  0  0  0  0  0  0  0  0999 V2000
  132.3310  120.5400   60.6760 C   0  0  0  0  0  0  0  0  0  0  0  0
  133.5530  121.1260   61.3940 C   0  0  0  0  0  0  0  0  0  0  0  0
  133.2030  122.3570   62.2500 C   0  0  0  0  0  0  0  0  0  0  0  0
  132.3190  123.2610   61.5180 N   0  0  0  0  0  0  0  0  0  0  0  0
  131.0640  123.7080   61.9010 C   0  0  0  0  0  0  0  0  0  0  0  0
  130.3620  123.2720   63.1760 C   0  0  0  0  0  0  0  0  0  0  0  0
  129.5250  121.9950   62.9780 C   0  0  0  0  0  0  0  0  0  0  0  0
  129.0380  121.8210   61.5260 C   0  0  0  0  0  0  0  0  0  0  0  0
  128.3020  122.9740   61.0090 N   0  0  0  0  0  0  0  0  0  0  0  0
  127.0850  123.3640   61.4290 C   0  0  0  0  0  0  0  0  0  0  0  0
  126.4530  122.7750   62.3090 O   0  0  0  0  0  0  0  0  0  0  0  0
  126.5140  124.6120   60.7430 C   0  0  0  0  0  0  0  0  0  0  0  0
  127.1300  124.7770   59.4650 O   0  0  0  0  0  0  0  0  0  0  0  0
  126.7050  124.0000   58.4030 C   0  0  0  0  0  0  0  0  0  0  0  0
  127.6950  123.2930   57.7160 C   0  0  0  0  0  0  0  0  0  0  0  0
  127.3630  122.4820   56.6350 C   0  0  0  0  0  0  0  0  0  0  0  0
  126.0340  122.3750   56.2370 C   0  0  0  0  0  0  0  0  0  0  0  0
  125.0340  123.0750   56.9080 C   0  0  0  0  0  0  0  0  0  0  0  0
  125.3680  123.8870   57.9900 C   0  0  0  0  0  0  0  0  0  0  0  0
  130.5240  124.5380   61.0430 N   0  0  0  0  0  0  0  0  0  0  0  0
  131.4580  124.6790   60.0550 C   0  0  0  0  0  0  0  0  0  0  0  0
  131.4020  125.4640   58.8930 C   0  0  0  0  0  0  0  0  0  0  0  0
  132.5000  125.4430   58.0330 C   0  0  0  0  0  0  0  0  0  0  0  0
  133.6250  124.6660   58.3120 C   0  0  0  0  0  0  0  0  0  0  0  0
  133.7100  123.8730   59.4590 C   0  0  0  0  0  0  0  0  0  0  0  0
  132.6070  123.8940   60.3220 C   0  0  0  0  0  0  0  0  0  0  0  0
  131.6011  120.1900   61.4208 H   0  0  0  0  0  0  0  0  0  0  0  0
  131.8694  121.3147   60.0461 H   0  0  0  0  0  0  0  0  0  0  0  0
  132.6461  119.6950   60.0461 H   0  0  0  0  0  0  0  0  0  0  0  0
  133.9818  120.3525   62.0481 H   0  0  0  0  0  0  0  0  0  0  0  0
  134.2690  121.4486   60.6237 H   0  0  0  0  0  0  0  0  0  0  0  0
  132.6990  122.0256   63.1699 H   0  0  0  0  0  0  0  0  0  0  0  0
  134.1319  122.8927   62.4953 H   0  0  0  0  0  0  0  0  0  0  0  0
  131.1206  123.0808   63.9492 H   0  0  0  0  0  0  0  0  0  0  0  0
  129.6768  124.0792   63.4744 H   0  0  0  0  0  0  0  0  0  0  0  0
  130.1412  121.1250   63.2489 H   0  0  0  0  0  0  0  0  0  0  0  0
  128.6348  122.0790   63.6187 H   0  0  0  0  0  0  0  0  0  0  0  0
  129.9150  121.6528   60.8837 H   0  0  0  0  0  0  0  0  0  0  0  0
  128.3431  120.9683   61.5208 H   0  0  0  0  0  0  0  0  0  0  0  0
  128.7590  123.5090   60.2850 H   0  0  0  0  0  0  0  0  0  0  0  0
  125.4279  124.4949   60.6141 H   0  0  0  0  0  0  0  0  0  0  0  0
  126.7164  125.4968   61.3644 H   0  0  0  0  0  0  0  0  0  0  0  0
  128.7452  123.3781   58.0321 H   0  0  0  0  0  0  0  0  0  0  0  0
  128.1472  121.9283   56.0979 H   0  0  0  0  0  0  0  0  0  0  0  0
  125.7706  121.7316   55.3845 H   0  0  0  0  0  0  0  0  0  0  0  0
  123.9860  122.9872   56.5854 H   0  0  0  0  0  0  0  0  0  0  0  0
  124.5812  124.4415   58.5225 H   0  0  0  0  0  0  0  0  0  0  0  0
  130.5178  126.0781   58.6670 H   0  0  0  0  0  0  0  0  0  0  0  0
  132.4786  126.0511   57.1166 H   0  0  0  0  0  0  0  0  0  0  0  0
  134.4700  124.6783   57.6079 H   0  0  0  0  0  0  0  0  0  0  0  0
  134.5993  123.2622   59.6738 H   0  0  0  0  0  0  0  0  0  0  0  0
  1  2  1  0
  2  3  1  0
  3  4  1  0
  4  5  1  0
  5  6  1  0
  6  7  1  0
  7  8  1  0
  8  9  1  0
  9 10  1  0
 10 11  2  0
 10 12  1  0
 12 13  1  0
 13 14  1  0
 14 15  2  0
 15 16  1  0
 16 17  2  0
 17 18  1  0
 18 19  2  0
  5 20  2  0
 20 21  1  0
 21 22  2  0
 22 23  1  0
 23 24  2  0
 24 25  1  0
 25 26  2  0
 26  4  1  0
 19 14  1  0
 26 21  1  0
  1 27  1  0
  1 28  1  0
  1 29  1  0
  2 30  1  0
  2 31  1  0
  3 32  1  0
  3 33  1  0
  6 34  1  0
  6 35  1  0
  7 36  1  0
  7 37  1  0
  8 38  1  0
  8 39  1  0
  9 40  1  0
 12 41  1  0
 12 42  1  0
 15 43  1  0
 16 44  1  0
 17 45  1  0
 18 46  1  0
 19 47  1  0
 22 48  1  0
 23 49  1  0
 24 50  1  0
 25 51  1  0
M  END
>  <Binding energies>  (1) 
[-6.35]

>  <Ligand effiencies>  (1) 
[-0.23518518518518516]

>  <Interactions>  (1) 
["V-A:ASP:366:CG:3213, V-A:ASP:366:CB:3212, V-B:TYR:539:CZ:9849, V-B:PRO:540:N:9856, V-B:TYR:539:CE1:9847, V-B:PRO:540:CB:9857, V-B:TYR:539:CD1:9845, V-B:PRO:540:CA:9855, V-B:TYR:539:CE2:9848, V-B:PRO:540:CD:9859, V-B:MET:535:CE:9807, V-B:LEU:363:CD1:8160, V-B:TYR:539:C:9839, V-B:TYR:539:CG:9844, V-B:PRO:540:C:9853, H-B:ALA:541:N:9863, V-B:TYR:539:CD2:9846, V-B:ALA:541:CB:9864, V-A:ASP:366:C:3208, V-A:ASP:366:CA:3210, V-A:ILE:369:CD1:3239, V-A:ILE:369:CB:3236, V-A:ILE:369:CG2:3237, V-A:LEU:475:CD2:4259, V-B:ILE:538:CG2:9835, V-A:SER:385:CA:3407, V-A:SER:385:CB:3409, V-A:SER:385:C:3405"]

$$$$
RR13_Rahimova_2017
     RDKit          3D

 84 90  0  0  0  0  0  0  0  0999 V2000
  128.4720  122.7770   60.9920 Cl  0  0  0  0  0  0  0  0  0  0  0  0
  128.3370  123.3400   59.3600 C   0  0  0  0  0  0  0  0  0  0  0  0
  127.2890  122.8380   58.5840 C   0  0  0  0  0  0  0  0  0  0  0  0
  127.1390  123.2350   57.2580 C   0  0  0  0  0  0  0  0  0  0  0  0
  128.0390  124.1370   56.6980 C   0  0  0  0  0  0  0  0  0  0  0  0
  129.0870  124.6420   57.4650 C   0  0  0  0  0  0  0  0  0  0  0  0
  129.2480  124.2630   58.8080 C   0  0  0  0  0  0  0  0  0  0  0  0
  130.4320  124.8180   59.6300 C   0  0  1  0  0  0  0  0  0  0  0  0
  131.7300  124.8000   58.8100 C   0  0  0  0  0  0  0  0  0  0  0  0
  132.0270  125.5790   57.7930 N   0  0  0  0  0  0  0  0  0  0  0  0
  133.2870  125.1780   57.3600 N   0  0  0  0  0  0  0  0  0  0  0  0
  133.7380  124.1220   58.1280 N   0  0  0  0  0  0  0  0  0  0  0  0
  132.7500  123.8920   58.9990 N   0  0  0  0  0  0  0  0  0  0  0  0
  132.8880  122.8540   60.0140 C   0  0  0  0  0  0  0  0  0  0  0  0
  133.6510  123.4000   61.2360 C   0  0  0  0  0  0  0  0  0  0  0  0
  132.7160  123.7970   62.3670 C   0  0  0  0  0  0  0  0  0  0  0  0
  131.6040  123.0040   62.6640 C   0  0  0  0  0  0  0  0  0  0  0  0
  130.7440  123.3730   63.6950 C   0  0  0  0  0  0  0  0  0  0  0  0
  130.9990  124.5330   64.4250 C   0  0  0  0  0  0  0  0  0  0  0  0
  132.1050  125.3270   64.1330 C   0  0  0  0  0  0  0  0  0  0  0  0
  132.9660  124.9590   63.1020 C   0  0  0  0  0  0  0  0  0  0  0  0
  130.1620  126.1460   60.2320 N   0  0  0  0  0  0  0  0  0  0  0  0
  129.2530  126.9270   59.3730 C   0  0  0  0  0  0  0  0  0  0  0  0
  128.8610  128.2590   60.0560 C   0  0  0  0  0  0  0  0  0  0  0  0
  130.0530  129.0870   60.3000 N   0  0  0  0  0  0  0  0  0  0  0  0
  129.7160  130.4080   60.8790 C   0  0  1  0  0  0  0  0  0  0  0  0
  128.6690  130.3900   62.0150 C   0  0  0  0  0  0  0  0  0  0  0  0
  128.6370  129.2560   62.8380 C   0  0  0  0  0  0  0  0  0  0  0  0
  127.7360  129.1600   63.8980 C   0  0  0  0  0  0  0  0  0  0  0  0
  126.8450  130.2000   64.1470 C   0  0  0  0  0  0  0  0  0  0  0  0
  126.8490  131.3280   63.3320 C   0  0  0  0  0  0  0  0  0  0  0  0
  127.7450  131.4320   62.2650 C   0  0  0  0  0  0  0  0  0  0  0  0
  127.6250  132.8430   61.2670 Cl  0  0  0  0  0  0  0  0  0  0  0  0
  130.9470  131.2070   61.3130 C   0  0  0  0  0  0  0  0  0  0  0  0
  131.0980  131.8050   62.4720 N   0  0  0  0  0  0  0  0  0  0  0  0
  132.3610  132.3870   62.4410 N   0  0  0  0  0  0  0  0  0  0  0  0
  132.9790  132.1130   61.2380 N   0  0  0  0  0  0  0  0  0  0  0  0
  132.0960  131.3640   60.5660 N   0  0  0  0  0  0  0  0  0  0  0  0
  132.4080  130.8990   59.2190 C   0  0  0  0  0  0  0  0  0  0  0  0
  132.4830  132.0880   58.2440 C   0  0  0  0  0  0  0  0  0  0  0  0
  131.1290  132.4180   57.6350 C   0  0  0  0  0  0  0  0  0  0  0  0
  130.0170  132.5950   58.4620 C   0  0  0  0  0  0  0  0  0  0  0  0
  128.7790  132.9040   57.9050 C   0  0  0  0  0  0  0  0  0  0  0  0
  128.6570  133.0340   56.5220 C   0  0  0  0  0  0  0  0  0  0  0  0
  129.7640  132.8590   55.6930 C   0  0  0  0  0  0  0  0  0  0  0  0
  131.0020  132.5510   56.2490 C   0  0  0  0  0  0  0  0  0  0  0  0
  130.9570  128.3050   61.1630 C   0  0  0  0  0  0  0  0  0  0  0  0
  131.3530  126.9800   60.4710 C   0  0  0  0  0  0  0  0  0  0  0  0
  126.5773  122.1239   59.0240 H   0  0  0  0  0  0  0  0  0  0  0  0
  126.3106  122.8365   56.6539 H   0  0  0  0  0  0  0  0  0  0  0  0
  127.9230  124.4511   55.6502 H   0  0  0  0  0  0  0  0  0  0  0  0
  129.7988  125.3479   57.0121 H   0  0  0  0  0  0  0  0  0  0  0  0
  130.5657  124.1389   60.4849 H   0  0  0  0  0  0  0  0  0  0  0  0
  131.8887  122.5198   60.3297 H   0  0  0  0  0  0  0  0  0  0  0  0
  133.4504  122.0098   59.5886 H   0  0  0  0  0  0  0  0  0  0  0  0
  134.3381  122.6224   61.6010 H   0  0  0  0  0  0  0  0  0  0  0  0
  134.1974  124.3002   60.9181 H   0  0  0  0  0  0  0  0  0  0  0  0
  131.4086  122.0899   62.0842 H   0  0  0  0  0  0  0  0  0  0  0  0
  129.8675  122.7522   63.9324 H   0  0  0  0  0  0  0  0  0  0  0  0
  130.3197  124.8240   65.2398 H   0  0  0  0  0  0  0  0  0  0  0  0
  132.2978  126.2409   64.7141 H   0  0  0  0  0  0  0  0  0  0  0  0
  133.8415  125.5820   62.8666 H   0  0  0  0  0  0  0  0  0  0  0  0
  129.7563  127.1451   58.4195 H   0  0  0  0  0  0  0  0  0  0  0  0
  128.3403  126.3383   59.1982 H   0  0  0  0  0  0  0  0  0  0  0  0
  128.1664  128.8088   59.4039 H   0  0  0  0  0  0  0  0  0  0  0  0
  128.3815  128.0351   61.0204 H   0  0  0  0  0  0  0  0  0  0  0  0
  129.2383  130.9224   60.0321 H   0  0  0  0  0  0  0  0  0  0  0  0
  129.3344  128.4277   62.6445 H   0  0  0  0  0  0  0  0  0  0  0  0
  127.7294  128.2641   64.5362 H   0  0  0  0  0  0  0  0  0  0  0  0
  126.1384  130.1303   64.9872 H   0  0  0  0  0  0  0  0  0  0  0  0
  126.1400  132.1455   63.5297 H   0  0  0  0  0  0  0  0  0  0  0  0
  133.3769  130.3784   59.2308 H   0  0  0  0  0  0  0  0  0  0  0  0
  131.6145  130.2140   58.8856 H   0  0  0  0  0  0  0  0  0  0  0  0
  132.8509  132.9701   58.7886 H   0  0  0  0  0  0  0  0  0  0  0  0
  133.1630  131.8107   57.4251 H   0  0  0  0  0  0  0  0  0  0  0  0
  130.1195  132.4903   59.5522 H   0  0  0  0  0  0  0  0  0  0  0  0
  127.9013  133.0449   58.5528 H   0  0  0  0  0  0  0  0  0  0  0  0
  127.6788  133.2767   56.0814 H   0  0  0  0  0  0  0  0  0  0  0  0
  129.6593  132.9640   54.6030 H   0  0  0  0  0  0  0  0  0  0  0  0
  131.8788  132.4125   55.5994 H   0  0  0  0  0  0  0  0  0  0  0  0
  131.8642  128.8935   61.3647 H   0  0  0  0  0  0  0  0  0  0  0  0
  130.4384  128.0737   62.1051 H   0  0  0  0  0  0  0  0  0  0  0  0
  131.8365  127.2046   59.5088 H   0  0  0  0  0  0  0  0  0  0  0  0
  132.0463  126.4307   61.1250 H   0  0  0  0  0  0  0  0  0  0  0  0
  1  2  1  0
  2  3  2  0
  3  4  1  0
  4  5  2  0
  5  6  1  0
  6  7  2  0
  7  8  1  0
  8  9  1  0
  9 10  2  0
 10 11  1  0
 11 12  2  0
 12 13  1  0
 13 14  1  0
 14 15  1  0
 15 16  1  0
 16 17  2  0
 17 18  1  0
 18 19  2  0
 19 20  1  0
 20 21  2  0
  8 22  1  0
 22 23  1  0
 23 24  1  0
 24 25  1  0
 25 26  1  0
 26 27  1  0
 27 28  2  0
 28 29  1  0
 29 30  2  0
 30 31  1  0
 31 32  2  0
 32 33  1  0
 26 34  1  0
 34 35  2  0
 35 36  1  0
 36 37  2  0
 37 38  1  0
 38 39  1  0
 39 40  1  0
 40 41  1  0
 41 42  2  0
 42 43  1  0
 43 44  2  0
 44 45  1  0
 45 46  2  0
 25 47  1  0
 47 48  1  0
  7  2  1  0
 13  9  1  0
 21 16  1  0
 48 22  1  0
 32 27  1  0
 38 34  1  0
 46 41  1  0
  3 49  1  0
  4 50  1  0
  5 51  1  0
  6 52  1  0
  8 53  1  1
 14 54  1  0
 14 55  1  0
 15 56  1  0
 15 57  1  0
 17 58  1  0
 18 59  1  0
 19 60  1  0
 20 61  1  0
 21 62  1  0
 23 63  1  0
 23 64  1  0
 24 65  1  0
 24 66  1  0
 26 67  1  6
 28 68  1  0
 29 69  1  0
 30 70  1  0
 31 71  1  0
 39 72  1  0
 39 73  1  0
 40 74  1  0
 40 75  1  0
 42 76  1  0
 43 77  1  0
 44 78  1  0
 45 79  1  0
 46 80  1  0
 47 81  1  0
 47 82  1  0
 48 83  1  0
 48 84  1  0
M  END
>  <Binding energies>  (1) 
[-12.78]

>  <Ligand effiencies>  (1) 
[-0.26625]

>  <Interactions>  (1) 
["V-A:LEU:363:CD1:3189, V-A:ASP:366:CG:3213, H-A:TYR:531:OH:4795, V-A:PRO:540:CA:4883, H-B:TYR:539:OH:9850, V-A:PRO:540:CB:4885, V-A:PRO:540:CG:4886, V-A:PRO:540:N:4884, V-A:TYR:539:C:4867, V-B:TYR:539:CZ:9849, V-B:PRO:540:N:9856, V-B:TYR:539:CE1:9847, V-B:PRO:540:CB:9857, V-B:PRO:540:CA:9855, V-B:TYR:539:CE2:9848, V-B:TYR:539:C:9839, V-B:TYR:539:CD2:9846, V-A:MET:535:CE:4835, V-A:ILE:369:CD1:3239, V-A:ILE:369:CG2:3237, V-A:LEU:475:CD2:4259, V-A:GLU:543:CD:4908, V-A:ARG:545:CZ:4926, V-A:TYR:539:CE1:4875, V-A:TYR:539:CZ:4877, H-A:ALA:541:N:4891, V-A:TYR:539:CD1:4873, V-A:TYR:539:CD2:4874, V-A:ILE:538:CA:4860, V-A:TYR:539:CG:4872, V-A:TYR:539:CE2:4876, V-A:ILE:538:C:4858, V-A:ILE:538:CG2:4863, V-A:ILE:538:CB:4862"]

$$$$
RR14_Rahimova_2017
     RDKit          3D

 76 80  0  0  0  0  0  0  0  0999 V2000
  133.0100  125.3760   66.1110 C   0  0  0  0  0  0  0  0  0  0  0  0
  133.9840  124.9970   65.1440 O   0  0  0  0  0  0  0  0  0  0  0  0
  133.5630  124.4870   63.9310 C   0  0  0  0  0  0  0  0  0  0  0  0
  134.3490  124.7950   62.8200 C   0  0  0  0  0  0  0  0  0  0  0  0
  133.9920  124.3460   61.5520 C   0  0  0  0  0  0  0  0  0  0  0  0
  132.8340  123.5830   61.3830 C   0  0  0  0  0  0  0  0  0  0  0  0
  132.4040  123.1450   59.9880 C   0  0  0  0  0  0  0  0  0  0  0  0
  132.5950  124.1790   58.9720 N   0  0  0  0  0  0  0  0  0  0  0  0
  133.6190  124.1040   58.1140 N   0  0  0  0  0  0  0  0  0  0  0  0
  133.5090  125.2380   57.3350 N   0  0  0  0  0  0  0  0  0  0  0  0
  132.4140  125.9940   57.7420 N   0  0  0  0  0  0  0  0  0  0  0  0
  131.8780  125.3340   58.7420 C   0  0  0  0  0  0  0  0  0  0  0  0
  130.6600  125.7840   59.5370 C   0  0  0  0  0  0  0  0  0  0  0  0
  130.2460  127.1570   59.2040 N   0  0  0  0  0  0  0  0  0  0  0  0
  131.3170  128.1290   59.4550 C   0  0  0  0  0  0  0  0  0  0  0  0
  131.6830  128.9730   58.2140 C   0  0  0  0  0  0  0  0  0  0  0  0
  131.7010  130.4930   58.4820 C   0  0  0  0  0  0  0  0  0  0  0  0
  130.7640  131.2420   57.6380 N   0  0  0  0  0  0  0  0  0  0  0  0
  131.4190  131.6540   56.3900 C   0  0  0  0  0  0  0  0  0  0  0  0
  130.4750  132.4910   55.5010 C   0  0  0  0  0  0  0  0  0  0  0  0
  129.9660  133.5990   56.2350 O   0  0  0  0  0  0  0  0  0  0  0  0
  129.2340  133.1940   57.3850 C   0  0  0  0  0  0  0  0  0  0  0  0
  130.1410  132.3800   58.3330 C   0  0  0  0  0  0  0  0  0  0  0  0
  129.8060  127.2260   57.8030 C   0  0  0  0  0  0  0  0  0  0  0  0
  128.9830  126.0420   57.2990 C   0  0  0  0  0  0  0  0  0  0  0  0
  127.9370  125.5620   58.0140 C   0  0  0  0  0  0  0  0  0  0  0  0
  127.1510  124.3930   57.5690 C   0  0  0  0  0  0  0  0  0  0  0  0
  126.0490  123.8820   58.2750 C   0  0  0  0  0  0  0  0  0  0  0  0
  125.5750  124.5090   59.5800 C   0  0  0  0  0  0  0  0  0  0  0  0
  125.3710  122.7720   57.7650 C   0  0  0  0  0  0  0  0  0  0  0  0
  125.7770  122.1760   56.5720 C   0  0  0  0  0  0  0  0  0  0  0  0
  126.8700  122.6790   55.8610 C   0  0  0  0  0  0  0  0  0  0  0  0
  127.2880  122.0070   54.5590 C   0  0  0  0  0  0  0  0  0  0  0  0
  127.5590  123.7940   56.3640 C   0  0  0  0  0  0  0  0  0  0  0  0
  128.6700  124.3340   55.6830 N   0  0  0  0  0  0  0  0  0  0  0  0
  129.4190  125.4020   56.0530 C   0  0  0  0  0  0  0  0  0  0  0  0
  130.3770  125.7600   55.3680 O   0  0  0  0  0  0  0  0  0  0  0  0
  132.0570  123.2440   62.4920 C   0  0  0  0  0  0  0  0  0  0  0  0
  132.4150  123.6950   63.7590 C   0  0  0  0  0  0  0  0  0  0  0  0
  133.4156  125.2182   67.1213 H   0  0  0  0  0  0  0  0  0  0  0  0
  132.7567  126.4383   65.9794 H   0  0  0  0  0  0  0  0  0  0  0  0
  132.1053  124.7643   65.9794 H   0  0  0  0  0  0  0  0  0  0  0  0
  135.2597  125.3986   62.9476 H   0  0  0  0  0  0  0  0  0  0  0  0
  134.6210  124.5917   60.6837 H   0  0  0  0  0  0  0  0  0  0  0  0
  132.9939  122.2616   59.7022 H   0  0  0  0  0  0  0  0  0  0  0  0
  131.3266  122.9276   60.0327 H   0  0  0  0  0  0  0  0  0  0  0  0
  129.8252  125.1013   59.3202 H   0  0  0  0  0  0  0  0  0  0  0  0
  130.9308  125.7655   60.6030 H   0  0  0  0  0  0  0  0  0  0  0  0
  130.9899  128.8093   60.2552 H   0  0  0  0  0  0  0  0  0  0  0  0
  132.2144  127.5580   59.7355 H   0  0  0  0  0  0  0  0  0  0  0  0
  132.6825  128.6690   57.8695 H   0  0  0  0  0  0  0  0  0  0  0  0
  130.9052  128.7885   57.4584 H   0  0  0  0  0  0  0  0  0  0  0  0
  131.4359  130.6649   59.5356 H   0  0  0  0  0  0  0  0  0  0  0  0
  132.7128  130.8537   58.2450 H   0  0  0  0  0  0  0  0  0  0  0  0
  132.3061  132.2566   56.6348 H   0  0  0  0  0  0  0  0  0  0  0  0
  131.7003  130.7474   55.8341 H   0  0  0  0  0  0  0  0  0  0  0  0
  131.0306  132.8588   54.6258 H   0  0  0  0  0  0  0  0  0  0  0  0
  129.6356  131.8600   55.1736 H   0  0  0  0  0  0  0  0  0  0  0  0
  128.8633  134.0852   57.9126 H   0  0  0  0  0  0  0  0  0  0  0  0
  128.3877  132.5660   57.0698 H   0  0  0  0  0  0  0  0  0  0  0  0
  130.9321  133.0374   58.7228 H   0  0  0  0  0  0  0  0  0  0  0  0
  129.5202  131.9867   59.1515 H   0  0  0  0  0  0  0  0  0  0  0  0
  129.1956  128.1337   57.6866 H   0  0  0  0  0  0  0  0  0  0  0  0
  130.7278  127.2224   57.2028 H   0  0  0  0  0  0  0  0  0  0  0  0
  127.6641  126.0590   58.9566 H   0  0  0  0  0  0  0  0  0  0  0  0
  125.9967  123.9512   60.4292 H   0  0  0  0  0  0  0  0  0  0  0  0
  125.9095  125.5559   59.6266 H   0  0  0  0  0  0  0  0  0  0  0  0
  124.4766  124.4726   59.6266 H   0  0  0  0  0  0  0  0  0  0  0  0
  124.5075  122.3639   58.3107 H   0  0  0  0  0  0  0  0  0  0  0  0
  125.2320  121.3017   56.1866 H   0  0  0  0  0  0  0  0  0  0  0  0
  127.8567  121.0928   54.7844 H   0  0  0  0  0  0  0  0  0  0  0  0
  126.3919  121.7472   53.9763 H   0  0  0  0  0  0  0  0  0  0  0  0
  127.9172  122.6959   53.9763 H   0  0  0  0  0  0  0  0  0  0  0  0
  128.9630  123.8930   54.8250 H   0  0  0  0  0  0  0  0  0  0  0  0
  131.1605  122.6195   62.3643 H   0  0  0  0  0  0  0  0  0  0  0  0
  131.7967  123.4304   64.6295 H   0  0  0  0  0  0  0  0  0  0  0  0
  1  2  1  0
  2  3  1  0
  3  4  2  0
  4  5  1  0
  5  6  2  0
  6  7  1  0
  7  8  1  0
  8  9  1  0
  9 10  2  0
 10 11  1  0
 11 12  2  0
 12 13  1  0
 13 14  1  0
 14 15  1  0
 15 16  1  0
 16 17  1  0
 17 18  1  0
 18 19  1  0
 19 20  1  0
 20 21  1  0
 21 22  1  0
 22 23  1  0
 14 24  1  0
 24 25  1  0
 25 26  2  0
 26 27  1  0
 27 28  2  0
 28 29  1  0
 28 30  1  0
 30 31  2  0
 31 32  1  0
 32 33  1  0
 32 34  2  0
 34 35  1  0
 35 36  1  0
 36 37  2  0
  6 38  1  0
 38 39  2  0
 39  3  1  0
 12  8  1  0
 23 18  1  0
 36 25  1  0
 34 27  1  0
  1 40  1  0
  1 41  1  0
  1 42  1  0
  4 43  1  0
  5 44  1  0
  7 45  1  0
  7 46  1  0
 13 47  1  0
 13 48  1  0
 15 49  1  0
 15 50  1  0
 16 51  1  0
 16 52  1  0
 17 53  1  0
 17 54  1  0
 19 55  1  0
 19 56  1  0
 20 57  1  0
 20 58  1  0
 22 59  1  0
 22 60  1  0
 23 61  1  0
 23 62  1  0
 24 63  1  0
 24 64  1  0
 26 65  1  0
 29 66  1  0
 29 67  1  0
 29 68  1  0
 30 69  1  0
 31 70  1  0
 33 71  1  0
 33 72  1  0
 33 73  1  0
 35 74  1  0
 38 75  1  0
 39 76  1  0
M  END
>  <Binding energies>  (1) 
[-10.56]

>  <Ligand effiencies>  (1) 
[-0.264]

>  <Interactions>  (1) 
["V-A:LEU:363:CD1:3189, V-A:ASP:366:CG:3213, H-A:TYR:531:OH:4795, V-A:PRO:540:CA:4883, H-B:TYR:539:OH:9850, V-A:PRO:540:N:4884, V-A:TYR:539:C:4867, V-A:ASP:366:CB:3212, H-A:TYR:539:N:4870, V-B:TYR:539:CZ:9849, V-B:PRO:540:N:9856, V-B:TYR:539:CE1:9847, V-B:PRO:540:CB:9857, V-B:TYR:539:CD1:9845, V-B:PRO:540:CA:9855, V-B:TYR:539:CE2:9848, V-B:PRO:540:CD:9859, V-B:MET:535:CE:9807, V-B:LEU:363:CD1:8160, V-B:PRO:540:CG:9858, V-B:TYR:539:C:9839, V-B:TYR:539:CG:9844, H-A:ASN:370:ND2:3248, V-B:TYR:539:CD2:9846, V-A:MET:535:CE:4835, V-A:ILE:369:CD1:3239, V-A:ILE:369:CG2:3237, V-A:LEU:475:CD2:4259, V-A:TYR:484:CZ:4347, V-A:GLY:453:CA:4044, H-A:TYR:484:OH:4348, H-A:ARG:545:NE:4924, V-A:GLY:454:CA:4049, V-A:ARG:545:CZ:4926, V-A:TYR:531:CZ:4794, V-A:ARG:545:CG:4922, H-A:ARG:545:NH2:4928, H-A:GLY:454:N:4050, V-A:GLY:453:C:4042, V-B:ILE:538:CG2:9835, H-B:MET:535:SD:9806, V-A:TYR:539:CD1:4873, V-A:ILE:538:CA:4860, V-A:TYR:539:CG:4872, V-A:TYR:539:CA:4869, V-A:ILE:538:CG2:4863, V-A:ILE:538:CB:4862, V-B:ILE:538:CA:9832, V-B:ILE:538:C:9830, V-A:ARG:545:CD:4923, H-A:ARG:545:NH1:4927, V-B:ILE:538:CB:9834, V-B:ILE:538:CG1:9836, V-B:VAL:537:C:9822"]

$$$$
RR15_Rahimova_2017
     RDKit          3D

 85 89  0  0  0  0  0  0  0  0999 V2000
  130.0220  123.3080   65.3240 C   0  0  0  0  0  0  0  0  0  0  0  0
  129.5220  122.2460   64.5170 O   0  0  0  0  0  0  0  0  0  0  0  0
  129.1030  122.5120   63.2250 C   0  0  0  0  0  0  0  0  0  0  0  0
  127.7920  122.8890   62.8950 C   0  0  0  0  0  0  0  0  0  0  0  0
  127.4350  123.1390   61.5720 C   0  0  0  0  0  0  0  0  0  0  0  0
  128.3740  123.0190   60.5420 C   0  0  0  0  0  0  0  0  0  0  0  0
  127.9870  123.2830   59.1130 C   0  0  0  0  0  0  0  0  0  0  0  0
  126.8900  122.7840   58.5600 N   0  0  0  0  0  0  0  0  0  0  0  0
  126.8830  123.2330   57.2550 N   0  0  0  0  0  0  0  0  0  0  0  0
  127.9730  123.9970   57.1800 N   0  0  0  0  0  0  0  0  0  0  0  0
  128.4450  124.5510   55.9110 C   0  0  0  0  0  0  0  0  0  0  0  0
  129.1420  125.9300   56.0240 C   0  0  0  0  0  0  0  0  0  0  0  0
  130.0760  126.1740   55.2580 O   0  0  0  0  0  0  0  0  0  0  0  0
  128.6900  126.8440   56.9360 N   0  0  0  0  0  0  0  0  0  0  0  0
  127.2470  127.0310   57.1870 C   0  0  0  0  0  0  0  0  0  0  0  0
  126.9140  127.3720   58.6550 C   0  0  0  0  0  0  0  0  0  0  0  0
  126.8110  128.8850   58.9630 C   0  0  0  0  0  0  0  0  0  0  0  0
  125.5130  129.4710   58.6150 N   0  0  0  0  0  0  0  0  0  0  0  0
  124.9260  130.2820   59.6910 C   0  0  0  0  0  0  0  0  0  0  0  0
  123.6050  130.9450   59.2440 C   0  0  0  0  0  0  0  0  0  0  0  0
  123.8120  131.6970   58.0530 O   0  0  0  0  0  0  0  0  0  0  0  0
  124.2830  130.8920   56.9770 C   0  0  0  0  0  0  0  0  0  0  0  0
  125.6240  130.2310   57.3620 C   0  0  0  0  0  0  0  0  0  0  0  0
  129.5900  127.5770   57.8800 C   0  0  2  0  0  0  0  0  0  0  0  0
  130.0770  128.9620   57.3480 C   0  0  0  0  0  0  0  0  0  0  0  0
  129.6320  129.4330   56.3020 O   0  0  0  0  0  0  0  0  0  0  0  0
  130.9680  129.6020   58.1250 N   0  0  0  0  0  0  0  0  0  0  0  0
  131.4850  130.9450   57.8860 C   0  0  0  0  0  0  0  0  0  0  0  0
  130.5340  132.0160   58.4520 C   0  0  2  0  0  0  0  0  0  0  0  0
  129.1280  131.5170   58.8300 C   0  0  0  0  0  0  0  0  0  0  0  0
  128.2510  131.9530   57.6820 C   0  0  0  0  0  0  0  0  0  0  0  0
  128.9150  133.2570   57.2760 C   0  0  0  0  0  0  0  0  0  0  0  0
  130.2990  132.9440   57.3850 O   0  0  0  0  0  0  0  0  0  0  0  0
  130.6410  126.6380   58.4590 C   0  0  0  0  0  0  0  0  0  0  0  0
  130.4710  126.1880   59.7740 C   0  0  0  0  0  0  0  0  0  0  0  0
  131.3990  125.3300   60.3560 C   0  0  0  0  0  0  0  0  0  0  0  0
  132.5080  124.9130   59.6240 C   0  0  0  0  0  0  0  0  0  0  0  0
  133.4100  124.0790   60.1890 F   0  0  0  0  0  0  0  0  0  0  0  0
  132.6940  125.3490   58.3150 C   0  0  0  0  0  0  0  0  0  0  0  0
  131.7650  126.2090   57.7350 C   0  0  0  0  0  0  0  0  0  0  0  0
  128.7110  124.0250   58.2960 N   0  0  0  0  0  0  0  0  0  0  0  0
  129.6820  122.6440   60.8750 C   0  0  0  0  0  0  0  0  0  0  0  0
  130.0580  122.3920   62.2050 C   0  0  0  0  0  0  0  0  0  0  0  0
  131.3380  122.0230   62.5840 O   0  0  0  0  0  0  0  0  0  0  0  0
  132.3320  123.0240   62.7720 C   0  0  0  0  0  0  0  0  0  0  0  0
  129.9004  123.0498   66.3863 H   0  0  0  0  0  0  0  0  0  0  0  0
  131.0884  123.4646   65.1044 H   0  0  0  0  0  0  0  0  0  0  0  0
  129.4633  124.2297   65.1044 H   0  0  0  0  0  0  0  0  0  0  0  0
  127.0381  122.9881   63.6899 H   0  0  0  0  0  0  0  0  0  0  0  0
  126.4024  123.4343   61.3343 H   0  0  0  0  0  0  0  0  0  0  0  0
  129.1611  123.8404   55.4725 H   0  0  0  0  0  0  0  0  0  0  0  0
  127.5512  124.7056   55.2888 H   0  0  0  0  0  0  0  0  0  0  0  0
  126.8866  127.8515   56.5491 H   0  0  0  0  0  0  0  0  0  0  0  0
  126.7533  126.0750   56.9581 H   0  0  0  0  0  0  0  0  0  0  0  0
  125.9494  126.9057   58.9042 H   0  0  0  0  0  0  0  0  0  0  0  0
  127.7501  126.9895   59.2588 H   0  0  0  0  0  0  0  0  0  0  0  0
  126.9809  129.0324   60.0398 H   0  0  0  0  0  0  0  0  0  0  0  0
  127.5676  129.3907   58.3452 H   0  0  0  0  0  0  0  0  0  0  0  0
  124.7257  129.6349   60.5576 H   0  0  0  0  0  0  0  0  0  0  0  0
  125.6398  131.0770   59.9524 H   0  0  0  0  0  0  0  0  0  0  0  0
  122.8525  130.1652   59.0554 H   0  0  0  0  0  0  0  0  0  0  0  0
  123.2546  131.6199   60.0388 H   0  0  0  0  0  0  0  0  0  0  0  0
  123.5417  130.1102   56.7549 H   0  0  0  0  0  0  0  0  0  0  0  0
  124.4332  131.5253   56.0902 H   0  0  0  0  0  0  0  0  0  0  0  0
  125.9294  129.5476   56.5560 H   0  0  0  0  0  0  0  0  0  0  0  0
  126.3701  131.0261   57.5071 H   0  0  0  0  0  0  0  0  0  0  0  0
  129.0009  127.8998   58.7511 H   0  0  0  0  0  0  0  0  0  0  0  0
  131.2630  129.1600   58.9840 H   0  0  0  0  0  0  0  0  0  0  0  0
  132.4667  131.0435   58.3724 H   0  0  0  0  0  0  0  0  0  0  0  0
  131.5736  131.0963   56.8001 H   0  0  0  0  0  0  0  0  0  0  0  0
  131.0163  132.4064   59.3603 H   0  0  0  0  0  0  0  0  0  0  0  0
  129.1186  130.4218   58.9323 H   0  0  0  0  0  0  0  0  0  0  0  0
  128.7861  131.9208   59.7944 H   0  0  0  0  0  0  0  0  0  0  0  0
  128.2682  131.2203   56.8617 H   0  0  0  0  0  0  0  0  0  0  0  0
  127.1867  132.0522   57.9417 H   0  0  0  0  0  0  0  0  0  0  0  0
  128.6500  133.5341   56.2450 H   0  0  0  0  0  0  0  0  0  0  0  0
  128.6094  134.1155   57.8921 H   0  0  0  0  0  0  0  0  0  0  0  0
  129.5950  126.5161   60.3528 H   0  0  0  0  0  0  0  0  0  0  0  0
  131.2573  124.9825   61.3900 H   0  0  0  0  0  0  0  0  0  0  0  0
  133.5713  125.0155   57.7412 H   0  0  0  0  0  0  0  0  0  0  0  0
  131.9129  126.5550   56.7014 H   0  0  0  0  0  0  0  0  0  0  0  0
  130.4321  122.5445   60.0766 H   0  0  0  0  0  0  0  0  0  0  0  0
  132.4916  123.1847   63.8484 H   0  0  0  0  0  0  0  0  0  0  0  0
  133.2737  122.6977   62.3064 H   0  0  0  0  0  0  0  0  0  0  0  0
  131.9991  123.9634   62.3064 H   0  0  0  0  0  0  0  0  0  0  0  0
  1  2  1  0
  2  3  1  0
  3  4  2  0
  4  5  1  0
  5  6  2  0
  6  7  1  0
  7  8  1  0
  8  9  2  0
  9 10  1  0
 10 11  1  0
 11 12  1  0
 12 13  2  0
 12 14  1  0
 14 15  1  0
 15 16  1  0
 16 17  1  0
 17 18  1  0
 18 19  1  0
 19 20  1  0
 20 21  1  0
 21 22  1  0
 22 23  1  0
 14 24  1  0
 24 25  1  0
 25 26  2  0
 25 27  1  0
 27 28  1  0
 28 29  1  0
 29 30  1  0
 30 31  1  0
 31 32  1  0
 32 33  1  0
 24 34  1  0
 34 35  2  0
 35 36  1  0
 36 37  2  0
 37 38  1  0
 37 39  1  0
 39 40  2  0
 10 41  1  0
  6 42  1  0
 42 43  2  0
 43 44  1  0
 44 45  1  0
 43  3  1  0
 41  7  2  0
 23 18  1  0
 33 29  1  0
 40 34  1  0
  1 46  1  0
  1 47  1  0
  1 48  1  0
  4 49  1  0
  5 50  1  0
 11 51  1  0
 11 52  1  0
 15 53  1  0
 15 54  1  0
 16 55  1  0
 16 56  1  0
 17 57  1  0
 17 58  1  0
 19 59  1  0
 19 60  1  0
 20 61  1  0
 20 62  1  0
 22 63  1  0
 22 64  1  0
 23 65  1  0
 23 66  1  0
 24 67  1  1
 27 68  1  0
 28 69  1  0
 28 70  1  0
 29 71  1  1
 30 72  1  0
 30 73  1  0
 31 74  1  0
 31 75  1  0
 32 76  1  0
 32 77  1  0
 35 78  1  0
 36 79  1  0
 39 80  1  0
 40 81  1  0
 42 82  1  0
 45 83  1  0
 45 84  1  0
 45 85  1  0
M  END
>  <Binding energies>  (1) 
[-8.09]

>  <Ligand effiencies>  (1) 
[-0.1758695652173913]

>  <Interactions>  (1) 
["V-A:ASP:366:CG:3213, H-A:TYR:531:OH:4795, V-A:PRO:540:CA:4883, H-B:TYR:539:OH:9850, V-A:PRO:540:CB:4885, H-A:ASP:366:OD2:3215, V-A:PRO:540:N:4884, V-A:TYR:539:C:4867, V-A:ASP:366:CB:3212, H-A:TYR:539:N:4870, V-B:TYR:539:CZ:9849, V-B:TYR:539:CE1:9847, V-B:PRO:540:CA:9855, V-B:TYR:539:CE2:9848, V-B:ASP:366:CB:8183, H-B:TYR:531:OH:9767, V-B:ASP:366:CG:8184, V-B:TYR:531:CE1:9764, V-B:TYR:531:CZ:9766, V-B:TYR:539:CD2:9846, V-B:ALA:541:CB:9864, V-A:ASP:366:CA:3210, V-B:GLU:543:CG:9879, V-A:ILE:369:CG2:3237, V-A:LEU:475:CD2:4259, V-A:TYR:484:CZ:4347, V-A:TYR:484:CE2:4346, V-B:GLU:543:CD:9880, V-A:TYR:531:CZ:4794, H-A:TYR:539:OH:4878, V-A:TYR:539:CE1:4875, V-B:ASP:366:CA:8181, V-B:ILE:369:CG2:8208, V-A:TYR:539:CZ:4877, V-B:ASP:366:C:8179, V-B:ILE:369:CB:8207, V-B:ALA:541:CA:9862, V-A:TYR:539:CD1:4873, V-A:TYR:539:CG:4872, V-A:TYR:539:CA:4869"]

$$$$
RR16_Rahimova_2017
     RDKit          3D

 80 85  0  0  0  0  0  0  0  0999 V2000
  129.1390  123.3400   65.7010 O   0  0  0  0  0  0  0  0  0  0  0  0
  129.8360  122.3790   64.8380 S   0  0  0  0  0  0  0  0  0  0  0  0
  129.9080  120.9580   65.1990 O   0  0  0  0  0  0  0  0  0  0  0  0
  131.4830  122.9700   64.6060 N   0  0  0  0  0  0  0  0  0  0  0  0
  131.7920  124.4160   64.6940 C   0  0  0  0  0  0  0  0  0  0  0  0
  133.3190  124.6220   64.5160 C   0  0  0  0  0  0  0  0  0  0  0  0
  133.9060  124.3800   63.1120 C   0  0  0  0  0  0  0  0  0  0  0  0
  133.3700  125.3400   62.0360 C   0  0  0  0  0  0  0  0  0  0  0  0
  132.0570  124.9170   61.3530 C   0  0  0  0  0  0  0  0  0  0  0  0
  130.8660  124.5730   62.2680 C   0  0  0  0  0  0  0  0  0  0  0  0
  130.8920  125.1720   63.6880 C   0  0  0  0  0  0  0  0  0  0  0  0
  129.0870  122.4980   63.2180 C   0  0  0  0  0  0  0  0  0  0  0  0
  129.6560  121.8350   62.1280 C   0  0  0  0  0  0  0  0  0  0  0  0
  129.1350  122.0350   60.8530 C   0  0  0  0  0  0  0  0  0  0  0  0
  128.0490  122.8940   60.6730 C   0  0  0  0  0  0  0  0  0  0  0  0
  127.4680  123.2620   59.0190 S   0  0  0  0  0  0  0  0  0  0  0  0
  126.0050  123.3810   59.0840 O   0  0  0  0  0  0  0  0  0  0  0  0
  128.0930  122.2950   58.1080 O   0  0  0  0  0  0  0  0  0  0  0  0
  128.1420  124.8660   58.6690 N   0  0  0  0  0  0  0  0  0  0  0  0
  129.6110  124.8820   58.4510 C   0  0  0  0  0  0  0  0  0  0  0  0
  130.1440  126.3300   58.4680 C   0  0  0  0  0  0  0  0  0  0  0  0
  129.3750  127.2360   57.4740 C   0  0  0  0  0  0  0  0  0  0  0  0
  129.8570  128.6880   57.5090 C   0  0  0  0  0  0  0  0  0  0  0  0
  131.0830  129.0000   58.1140 C   0  0  0  0  0  0  0  0  0  0  0  0
  131.5650  130.3090   58.1620 C   0  0  0  0  0  0  0  0  0  0  0  0
  132.7670  130.5950   58.7550 O   0  0  0  0  0  0  0  0  0  0  0  0
  130.7880  131.3230   57.5800 C   0  0  0  0  0  0  0  0  0  0  0  0
  131.0080  132.6640   57.4610 N   0  0  0  0  0  0  0  0  0  0  0  0
  129.9400  133.2000   56.7750 N   0  0  0  0  0  0  0  0  0  0  0  0
  129.0610  132.2130   56.5170 N   0  0  0  0  0  0  0  0  0  0  0  0
  127.8700  132.4810   55.7220 C   0  0  0  0  0  0  0  0  0  0  0  0
  126.6310  131.7830   56.2660 C   0  0  0  0  0  0  0  0  0  0  0  0
  125.6390  131.3290   55.3890 C   0  0  0  0  0  0  0  0  0  0  0  0
  124.5140  130.6690   55.8840 C   0  0  0  0  0  0  0  0  0  0  0  0
  124.3740  130.4590   57.2560 C   0  0  0  0  0  0  0  0  0  0  0  0
  125.3600  130.9080   58.1350 C   0  0  0  0  0  0  0  0  0  0  0  0
  125.1950  130.6400   59.8320 Cl  0  0  0  0  0  0  0  0  0  0  0  0
  126.4850  131.5720   57.6410 C   0  0  0  0  0  0  0  0  0  0  0  0
  129.5480  131.0010   56.9780 C   0  0  0  0  0  0  0  0  0  0  0  0
  129.0620  129.6900   56.9330 C   0  0  0  0  0  0  0  0  0  0  0  0
  127.8370  127.1100   57.6320 C   0  0  0  0  0  0  0  0  0  0  0  0
  127.3790  125.6380   57.6530 C   0  0  0  0  0  0  0  0  0  0  0  0
  127.4560  123.5230   61.7700 C   0  0  0  0  0  0  0  0  0  0  0  0
  127.9780  123.3270   63.0440 C   0  0  0  0  0  0  0  0  0  0  0  0
  132.2450  122.3250   64.8320 H   0  0  0  0  0  0  0  0  0  0  0  0
  131.5594  124.8409   65.6816 H   0  0  0  0  0  0  0  0  0  0  0  0
  133.5469  125.6614   64.7947 H   0  0  0  0  0  0  0  0  0  0  0  0
  133.7835  123.8544   65.1524 H   0  0  0  0  0  0  0  0  0  0  0  0
  134.9981  124.4987   63.1685 H   0  0  0  0  0  0  0  0  0  0  0  0
  133.6053  123.3654   62.8118 H   0  0  0  0  0  0  0  0  0  0  0  0
  133.2036  126.3186   62.5099 H   0  0  0  0  0  0  0  0  0  0  0  0
  134.1298  125.3506   61.2407 H   0  0  0  0  0  0  0  0  0  0  0  0
  131.7434  125.7435   60.6984 H   0  0  0  0  0  0  0  0  0  0  0  0
  132.2972  123.9768   60.8349 H   0  0  0  0  0  0  0  0  0  0  0  0
  129.9506  124.9286   61.7724 H   0  0  0  0  0  0  0  0  0  0  0  0
  130.9153  123.4835   62.4115 H   0  0  0  0  0  0  0  0  0  0  0  0
  131.2544  126.2081   63.6159 H   0  0  0  0  0  0  0  0  0  0  0  0
  129.8648  125.0978   64.0745 H   0  0  0  0  0  0  0  0  0  0  0  0
  130.5108  121.1588   62.2765 H   0  0  0  0  0  0  0  0  0  0  0  0
  129.5777  121.5176   59.9891 H   0  0  0  0  0  0  0  0  0  0  0  0
  130.1018  124.3062   59.2495 H   0  0  0  0  0  0  0  0  0  0  0  0
  129.8301  124.4337   57.4707 H   0  0  0  0  0  0  0  0  0  0  0  0
  130.0320  126.7391   59.4829 H   0  0  0  0  0  0  0  0  0  0  0  0
  131.2014  126.3095   58.1654 H   0  0  0  0  0  0  0  0  0  0  0  0
  129.6119  126.8641   56.4662 H   0  0  0  0  0  0  0  0  0  0  0  0
  131.6802  128.1923   58.5623 H   0  0  0  0  0  0  0  0  0  0  0  0
  133.0240  129.9530   59.4210 H   0  0  0  0  0  0  0  0  0  0  0  0
  127.6883  133.5659   55.7151 H   0  0  0  0  0  0  0  0  0  0  0  0
  128.0523  132.0926   54.7091 H   0  0  0  0  0  0  0  0  0  0  0  0
  125.7468  131.4931   54.3067 H   0  0  0  0  0  0  0  0  0  0  0  0
  123.7365  130.3138   55.1917 H   0  0  0  0  0  0  0  0  0  0  0  0
  123.4860  129.9393   57.6449 H   0  0  0  0  0  0  0  0  0  0  0  0
  127.2590  131.9303   58.3357 H   0  0  0  0  0  0  0  0  0  0  0  0
  128.0950  129.4543   56.4646 H   0  0  0  0  0  0  0  0  0  0  0  0
  127.5361  127.5894   58.5752 H   0  0  0  0  0  0  0  0  0  0  0  0
  127.3646  127.6013   56.7686 H   0  0  0  0  0  0  0  0  0  0  0  0
  126.3073  125.5965   57.8975 H   0  0  0  0  0  0  0  0  0  0  0  0
  127.5611  125.1962   56.6622 H   0  0  0  0  0  0  0  0  0  0  0  0
  126.5790  124.1713   61.6267 H   0  0  0  0  0  0  0  0  0  0  0  0
  127.5184  123.8236   63.9113 H   0  0  0  0  0  0  0  0  0  0  0  0
  1  2  2  0
  2  3  2  0
  2  4  1  0
  4  5  1  0
  5  6  1  0
  6  7  1  0
  7  8  1  0
  8  9  1  0
  9 10  1  0
 10 11  1  0
  2 12  1  0
 12 13  2  0
 13 14  1  0
 14 15  2  0
 15 16  1  0
 16 17  2  0
 16 18  2  0
 16 19  1  0
 19 20  1  0
 20 21  1  0
 21 22  1  0
 22 23  1  0
 23 24  2  0
 24 25  1  0
 25 26  1  0
 25 27  2  0
 27 28  1  0
 28 29  2  0
 29 30  1  0
 30 31  1  0
 31 32  1  0
 32 33  2  0
 33 34  1  0
 34 35  2  0
 35 36  1  0
 36 37  1  0
 36 38  2  0
 30 39  1  0
 39 40  2  0
 22 41  1  0
 41 42  1  0
 15 43  1  0
 43 44  2  0
 11  5  1  0
 44 12  1  0
 42 19  1  0
 40 23  1  0
 39 27  1  0
 38 32  1  0
  4 45  1  0
  5 46  1  0
  6 47  1  0
  6 48  1  0
  7 49  1  0
  7 50  1  0
  8 51  1  0
  8 52  1  0
  9 53  1  0
  9 54  1  0
 10 55  1  0
 10 56  1  0
 11 57  1  0
 11 58  1  0
 13 59  1  0
 14 60  1  0
 20 61  1  0
 20 62  1  0
 21 63  1  0
 21 64  1  0
 22 65  1  0
 24 66  1  0
 26 67  1  0
 31 68  1  0
 31 69  1  0
 33 70  1  0
 34 71  1  0
 35 72  1  0
 38 73  1  0
 40 74  1  0
 41 75  1  0
 41 76  1  0
 42 77  1  0
 42 78  1  0
 43 79  1  0
 44 80  1  0
M  END
>  <Binding energies>  (1) 
[-9.73]

>  <Ligand effiencies>  (1) 
[-0.20270833333333335]

>  <Interactions>  (1) 
["V-A:ASP:366:CG:3213, H-A:ASP:366:OD2:3215, H-A:TYR:539:N:4870, V-B:TYR:539:CZ:9849, V-B:PRO:540:N:9856, V-B:PRO:540:CA:9855, V-B:TYR:539:CE2:9848, V-B:ASP:366:CB:8183, V-B:ASP:366:CG:8184, V-B:TYR:531:CE1:9764, V-B:TYR:531:CZ:9766, V-B:TYR:539:CD2:9846, V-A:MET:535:CE:4835, V-B:ALA:541:CB:9864, V-B:GLU:543:CG:9879, V-A:LEU:475:CD2:4259, V-A:TYR:484:CZ:4347, V-A:GLY:453:CA:4044, H-A:TYR:484:OH:4348, V-A:TYR:484:CE2:4346, V-A:GLY:454:CA:4049, V-A:ARG:545:CZ:4926, V-B:GLU:543:CD:9880, V-A:TYR:539:CE1:4875, V-B:ASP:366:CA:8181, V-A:TYR:539:CZ:4877, V-B:ASP:366:C:8179, V-A:GLY:453:C:4042, V-A:TYR:539:CD1:4873, V-A:TYR:539:CE2:4876"]

$$$$
RR17_Rahimova_2017
     RDKit          3D

 63 66  0  0  0  0  0  0  0  0999 V2000
  129.8420  116.9700   60.8530 C   0  0  0  0  0  0  0  0  0  0  0  0
  130.2540  118.3100   61.4700 C   0  0  0  0  0  0  0  0  0  0  0  0
  131.3650  118.8260   60.7430 O   0  0  0  0  0  0  0  0  0  0  0  0
  131.6120  120.1870   60.7580 C   0  0  0  0  0  0  0  0  0  0  0  0
  132.9220  120.5850   60.4970 C   0  0  0  0  0  0  0  0  0  0  0  0
  133.2660  121.9320   60.4930 C   0  0  0  0  0  0  0  0  0  0  0  0
  132.3010  122.9160   60.7530 C   0  0  0  0  0  0  0  0  0  0  0  0
  132.7020  124.3630   60.7400 C   0  0  0  0  0  0  0  0  0  0  0  0
  132.9120  124.9820   59.6930 O   0  0  0  0  0  0  0  0  0  0  0  0
  132.8600  125.0590   62.1110 C   0  0  0  0  0  0  0  0  0  0  0  0
  133.6120  123.9560   63.3610 S   0  0  0  0  0  0  0  0  0  0  0  0
  132.9700  124.6890   64.8390 C   0  0  0  0  0  0  0  0  0  0  0  0
  133.6880  125.2630   65.7760 N   0  0  0  0  0  0  0  0  0  0  0  0
  132.8180  125.7170   66.7600 N   0  0  0  0  0  0  0  0  0  0  0  0
  131.6060  125.4040   66.3780 C   0  0  0  0  0  0  0  0  0  0  0  0
  130.3420  125.7290   67.1600 C   0  0  0  0  0  0  0  0  0  0  0  0
  130.3760  127.0320   67.8210 N   0  0  0  0  0  0  0  0  0  0  0  0
  129.8550  127.2700   69.1050 C   0  0  0  0  0  0  0  0  0  0  0  0
  130.6870  127.9040   70.0280 C   0  0  0  0  0  0  0  0  0  0  0  0
  130.2360  128.1650   71.3190 C   0  0  0  0  0  0  0  0  0  0  0  0
  128.9430  127.7970   71.7020 C   0  0  0  0  0  0  0  0  0  0  0  0
  128.4660  128.0850   73.1250 C   0  0  0  0  0  0  0  0  0  0  0  0
  129.0640  127.3030   74.0260 F   0  0  0  0  0  0  0  0  0  0  0  0
  128.7160  129.3540   73.4510 F   0  0  0  0  0  0  0  0  0  0  0  0
  127.1520  127.8760   73.1950 F   0  0  0  0  0  0  0  0  0  0  0  0
  128.1050  127.1690   70.7750 C   0  0  0  0  0  0  0  0  0  0  0  0
  128.5550  126.9090   69.4840 C   0  0  0  0  0  0  0  0  0  0  0  0
  131.6310  124.7380   65.1700 N   0  0  0  0  0  0  0  0  0  0  0  0
  130.5410  124.2510   64.4330 C   0  0  0  0  0  0  0  0  0  0  0  0
  129.8830  125.0960   63.5390 C   0  0  0  0  0  0  0  0  0  0  0  0
  128.7990  124.6140   62.8110 C   0  0  0  0  0  0  0  0  0  0  0  0
  128.3700  123.2870   62.9740 C   0  0  0  0  0  0  0  0  0  0  0  0
  127.3070  122.7230   62.2950 O   0  0  0  0  0  0  0  0  0  0  0  0
  126.5310  123.5370   61.4220 C   0  0  0  0  0  0  0  0  0  0  0  0
  129.0400  122.4560   63.8750 C   0  0  0  0  0  0  0  0  0  0  0  0
  130.1250  122.9310   64.6060 C   0  0  0  0  0  0  0  0  0  0  0  0
  130.9830  122.5150   61.0150 C   0  0  0  0  0  0  0  0  0  0  0  0
  130.6410  121.1650   61.0170 C   0  0  0  0  0  0  0  0  0  0  0  0
  129.6206  116.2499   61.6545 H   0  0  0  0  0  0  0  0  0  0  0  0
  128.9463  117.1128   60.2307 H   0  0  0  0  0  0  0  0  0  0  0  0
  130.6632  116.5849   60.2307 H   0  0  0  0  0  0  0  0  0  0  0  0
  129.4137  119.0175   61.4130 H   0  0  0  0  0  0  0  0  0  0  0  0
  130.5306  118.1672   62.5250 H   0  0  0  0  0  0  0  0  0  0  0  0
  133.6913  119.8259   60.2922 H   0  0  0  0  0  0  0  0  0  0  0  0
  134.3044  122.2287   60.2840 H   0  0  0  0  0  0  0  0  0  0  0  0
  133.5014  125.9441   61.9875 H   0  0  0  0  0  0  0  0  0  0  0  0
  131.8572  125.3387   62.4661 H   0  0  0  0  0  0  0  0  0  0  0  0
  129.4904  125.7154   66.4639 H   0  0  0  0  0  0  0  0  0  0  0  0
  130.2510  124.9705   67.9515 H   0  0  0  0  0  0  0  0  0  0  0  0
  130.5950  127.8350   67.2500 H   0  0  0  0  0  0  0  0  0  0  0  0
  131.7050  128.1993   69.7341 H   0  0  0  0  0  0  0  0  0  0  0  0
  130.9001  128.6630   72.0408 H   0  0  0  0  0  0  0  0  0  0  0  0
  127.0851  126.8791   71.0678 H   0  0  0  0  0  0  0  0  0  0  0  0
  127.8885  126.4188   68.7591 H   0  0  0  0  0  0  0  0  0  0  0  0
  130.2184  126.1357   63.4104 H   0  0  0  0  0  0  0  0  0  0  0  0
  128.2760  125.2757   62.1048 H   0  0  0  0  0  0  0  0  0  0  0  0
  125.8923  124.2069   62.0164 H   0  0  0  0  0  0  0  0  0  0  0  0
  127.2006  124.1362   60.7875 H   0  0  0  0  0  0  0  0  0  0  0  0
  125.9005  122.8968   60.7875 H   0  0  0  0  0  0  0  0  0  0  0  0
  128.7069  121.4161   64.0081 H   0  0  0  0  0  0  0  0  0  0  0  0
  130.6494  122.2717   65.3134 H   0  0  0  0  0  0  0  0  0  0  0  0
  130.2129  123.2731   61.2206 H   0  0  0  0  0  0  0  0  0  0  0  0
  129.6032  120.8641   61.2229 H   0  0  0  0  0  0  0  0  0  0  0  0
  1  2  1  0
  2  3  1  0
  3  4  1  0
  4  5  2  0
  5  6  1  0
  6  7  2  0
  7  8  1  0
  8  9  2  0
  8 10  1  0
 10 11  1  0
 11 12  1  0
 12 13  2  0
 13 14  1  0
 14 15  2  0
 15 16  1  0
 16 17  1  0
 17 18  1  0
 18 19  2  0
 19 20  1  0
 20 21  2  0
 21 22  1  0
 22 23  1  0
 22 24  1  0
 22 25  1  0
 21 26  1  0
 26 27  2  0
 15 28  1  0
 28 29  1  0
 29 30  2  0
 30 31  1  0
 31 32  2  0
 32 33  1  0
 33 34  1  0
 32 35  1  0
 35 36  2  0
  7 37  1  0
 37 38  2  0
 38  4  1  0
 28 12  1  0
 36 29  1  0
 27 18  1  0
  1 39  1  0
  1 40  1  0
  1 41  1  0
  2 42  1  0
  2 43  1  0
  5 44  1  0
  6 45  1  0
 10 46  1  0
 10 47  1  0
 16 48  1  0
 16 49  1  0
 17 50  1  0
 19 51  1  0
 20 52  1  0
 26 53  1  0
 27 54  1  0
 30 55  1  0
 31 56  1  0
 34 57  1  0
 34 58  1  0
 34 59  1  0
 35 60  1  0
 36 61  1  0
 37 62  1  0
 38 63  1  0
M  END
>  <Binding energies>  (1) 
[-9.17]

>  <Ligand effiencies>  (1) 
[-0.23512820512820512]

>  <Interactions>  (1) 
["V-A:ASP:366:CG:3213, V-B:PRO:540:CB:9857, V-B:PRO:540:CA:9855, V-B:TYR:539:CE2:9848, H-B:ALA:541:N:9863, V-B:TYR:539:CD2:9846, V-B:ALA:541:CB:9864, V-B:GLU:543:CG:9879, V-A:ILE:369:CG2:3237, V-A:LEU:475:CD2:4259, V-A:TYR:484:CZ:4347, V-B:GLU:543:CB:9878, H-A:TYR:484:OH:4348, V-A:GLU:543:CD:4908, V-A:TYR:484:CE2:4346, H-A:ARG:545:NE:4924, V-A:ARG:545:CZ:4926, V-B:GLU:543:CD:9880, V-B:HIS:456:CE1:9041, V-A:GLY:544:C:4912, V-B:GLU:543:C:9874, V-B:HIS:456:CD2:9039, V-B:LYS:547:CE:9922, V-A:HIS:456:CE1:4070, V-A:GLU:543:C:4902, V-A:GLU:543:CB:4906, V-B:HIS:456:CG:9037, H-A:GLU:543:OE1:4909, H-A:GLU:543:OE2:4910, H-A:ARG:545:NH2:4928, H-A:GLY:454:N:4050, H-A:SER:385:OG:3410, V-A:HIS:383:NE2:3394, V-A:LEU:475:CG:4257, V-A:HIS:383:CE1:3393, V-A:LEU:475:CD1:4258, V-A:PRO:482:CB:4326, V-A:PRO:482:CG:4327, H-A:HIS:383:HE2:3395, V-A:SER:385:CB:3409, V-B:VAL:344:CG1:7972"]

$$$$
RR18_Rahimova_2017
     RDKit          3D

 56 61  0  0  0  0  0  0  0  0999 V2000
  132.9380  125.0210   61.2970 C   0  0  0  0  0  0  0  0  0  0  0  0
  132.2910  125.1480   62.6530 C   0  0  0  0  0  0  0  0  0  0  0  0
  132.7340  124.9760   63.9540 C   0  0  0  0  0  0  0  0  0  0  0  0
  131.6490  125.2440   64.7880 C   0  0  0  0  0  0  0  0  0  0  0  0
  130.5820  125.5710   63.9660 C   0  0  0  0  0  0  0  0  0  0  0  0
  129.1320  125.9700   64.2250 C   0  0  1  0  0  0  0  0  0  0  0  0
  129.0200  126.9970   65.3900 C   0  0  0  0  0  0  0  0  0  0  0  0
  129.3920  126.6160   66.7490 C   0  0  0  0  0  0  0  0  0  0  0  0
  129.7970  125.4840   67.0190 O   0  0  0  0  0  0  0  0  0  0  0  0
  129.2680  127.6120   67.6570 N   0  0  0  0  0  0  0  0  0  0  0  0
  129.5110  127.6140   69.0480 C   0  0  0  0  0  0  0  0  0  0  0  0
  130.7570  127.9360   69.6170 C   0  0  0  0  0  0  0  0  0  0  0  0
  130.9320  127.9120   70.9990 C   0  0  0  0  0  0  0  0  0  0  0  0
  129.8740  127.5620   71.8320 C   0  0  0  0  0  0  0  0  0  0  0  0
  128.6380  127.2300   71.2820 C   0  0  0  0  0  0  0  0  0  0  0  0
  128.4460  127.2500   69.8970 C   0  0  0  0  0  0  0  0  0  0  0  0
  127.0740  126.8720   69.3450 C   0  0  0  0  0  0  0  0  0  0  0  0
  128.6700  128.2760   65.0940 C   0  0  0  0  0  0  0  0  0  0  0  0
  128.2880  128.7120   63.8610 N   0  0  0  0  0  0  0  0  0  0  0  0
  128.1650  127.8670   62.9040 C   0  0  0  0  0  0  0  0  0  0  0  0
  127.5430  128.2510   61.3160 S   0  0  0  0  0  0  0  0  0  0  0  0
  127.7160  126.5500   60.7800 C   0  0  0  0  0  0  0  0  0  0  0  0
  127.3990  126.0300   59.5440 C   0  0  0  0  0  0  0  0  0  0  0  0
  126.7760  126.8810   58.5190 C   0  0  0  0  0  0  0  0  0  0  0  0
  126.4820  128.0750   58.5530 O   0  0  0  0  0  0  0  0  0  0  0  0
  126.5340  126.1090   57.4540 N   0  0  0  0  0  0  0  0  0  0  0  0
  126.9540  124.8250   57.6220 C   0  0  0  0  0  0  0  0  0  0  0  0
  126.8690  123.7710   56.7120 C   0  0  0  0  0  0  0  0  0  0  0  0
  127.3910  122.5310   57.0690 C   0  0  0  0  0  0  0  0  0  0  0  0
  127.9920  122.3690   58.3150 C   0  0  0  0  0  0  0  0  0  0  0  0
  128.0650  123.4390   59.2100 C   0  0  0  0  0  0  0  0  0  0  0  0
  127.5220  124.6950   58.8780 C   0  0  0  0  0  0  0  0  0  0  0  0
  128.2490  125.7750   61.9010 C   0  0  0  0  0  0  0  0  0  0  0  0
  128.4490  124.5640   61.9220 O   0  0  0  0  0  0  0  0  0  0  0  0
  128.4960  126.5530   62.9900 N   0  0  0  0  0  0  0  0  0  0  0  0
  130.9810  125.5090   62.6680 O   0  0  0  0  0  0  0  0  0  0  0  0
  134.0105  124.8105   61.4208 H   0  0  0  0  0  0  0  0  0  0  0  0
  132.4647  124.1986   60.7405 H   0  0  0  0  0  0  0  0  0  0  0  0
  132.8107  125.9613   60.7405 H   0  0  0  0  0  0  0  0  0  0  0  0
  133.7468  124.6842   64.2688 H   0  0  0  0  0  0  0  0  0  0  0  0
  131.6414  125.2036   65.8872 H   0  0  0  0  0  0  0  0  0  0  0  0
  128.5980  125.0508   64.5075 H   0  0  0  0  0  0  0  0  0  0  0  0
  129.0080  128.5130   67.2880 H   0  0  0  0  0  0  0  0  0  0  0  0
  131.6000  128.2090   68.9652 H   0  0  0  0  0  0  0  0  0  0  0  0
  131.9093  128.1705   71.4327 H   0  0  0  0  0  0  0  0  0  0  0  0
  130.0133  127.5475   72.9230 H   0  0  0  0  0  0  0  0  0  0  0  0
  127.8051  126.9494   71.9434 H   0  0  0  0  0  0  0  0  0  0  0  0
  126.3829  126.6816   70.1793 H   0  0  0  0  0  0  0  0  0  0  0  0
  126.6867  127.6969   68.7290 H   0  0  0  0  0  0  0  0  0  0  0  0
  127.1638  125.9651   68.7290 H   0  0  0  0  0  0  0  0  0  0  0  0
  128.6970  129.0136   65.9096 H   0  0  0  0  0  0  0  0  0  0  0  0
  126.1030  126.4550   56.6090 H   0  0  0  0  0  0  0  0  0  0  0  0
  126.3975  123.9174   55.7290 H   0  0  0  0  0  0  0  0  0  0  0  0
  127.3292  121.6834   56.3707 H   0  0  0  0  0  0  0  0  0  0  0  0
  128.4120  121.3920   58.5961 H   0  0  0  0  0  0  0  0  0  0  0  0
  128.5526  123.2987   60.1860 H   0  0  0  0  0  0  0  0  0  0  0  0
  1  2  1  0
  2  3  2  0
  3  4  1  0
  4  5  2  0
  5  6  1  0
  6  7  1  0
  7  8  1  0
  8  9  2  0
  8 10  1  0
 10 11  1  0
 11 12  2  0
 12 13  1  0
 13 14  2  0
 14 15  1  0
 15 16  2  0
 16 17  1  0
  7 18  2  0
 18 19  1  0
 19 20  2  0
 20 21  1  0
 21 22  1  0
 22 23  2  0
 23 24  1  0
 24 25  2  0
 24 26  1  0
 26 27  1  0
 27 28  2  0
 28 29  1  0
 29 30  2  0
 30 31  1  0
 31 32  2  0
 22 33  1  0
 33 34  2  0
 33 35  1  0
  5 36  1  0
 36  2  1  0
 35  6  1  0
 16 11  1  0
 35 20  1  0
 32 23  1  0
 32 27  1  0
  1 37  1  0
  1 38  1  0
  1 39  1  0
  3 40  1  0
  4 41  1  0
  6 42  1  1
 10 43  1  0
 12 44  1  0
 13 45  1  0
 14 46  1  0
 15 47  1  0
 17 48  1  0
 17 49  1  0
 17 50  1  0
 18 51  1  0
 26 52  1  0
 28 53  1  0
 29 54  1  0
 30 55  1  0
 31 56  1  0
M  END
>  <Binding energies>  (1) 
[-8.58]

>  <Ligand effiencies>  (1) 
[-0.22578947368421054]

>  <Interactions>  (1) 
["V-A:ASP:366:CG:3213, V-B:TYR:539:CZ:9849, V-B:PRO:540:N:9856, V-B:TYR:539:CE1:9847, V-B:TYR:539:CD1:9845, V-B:PRO:540:CA:9855, V-B:TYR:539:CE2:9848, H-B:TYR:531:OH:9767, V-B:TYR:539:C:9839, V-B:TYR:539:CG:9844, V-B:TYR:531:CZ:9766, V-B:TYR:539:CD2:9846, V-B:GLU:543:CG:9879, V-B:GLU:543:CB:9878, V-A:GLU:543:CD:4908, V-A:ARG:545:CZ:4926, V-B:GLU:543:CD:9880, V-B:HIS:456:CE1:9041, V-A:GLY:544:C:4912, V-B:GLY:544:C:9884, V-B:GLU:543:C:9874, V-A:HIS:456:CE1:4070, V-A:GLU:543:CG:4907, V-A:GLU:543:C:4902, V-A:GLU:543:CB:4906, H-A:GLU:543:OE2:4910, V-B:GLU:543:CA:9876, H-B:MET:535:SD:9806"]

$$$$
RR19_Rahimova_2017
     RDKit          3D

 72 77  0  0  0  0  0  0  0  0999 V2000
  133.5250  124.2280   64.3040 O   0  0  0  0  0  0  0  0  0  0  0  0
  132.3670  124.3120   63.8840 C   0  0  0  0  0  0  0  0  0  0  0  0
  132.0010  124.6300   62.6160 N   0  0  0  0  0  0  0  0  0  0  0  0
  132.6980  124.7300   61.4380 C   0  0  0  0  0  0  0  0  0  0  0  0
  134.2920  124.2150   61.1890 S   0  0  0  0  0  0  0  0  0  0  0  0
  131.8880  125.3140   60.4960 N   0  0  0  0  0  0  0  0  0  0  0  0
  132.0190  125.5160   59.1600 C   0  0  0  0  0  0  0  0  0  0  0  0
  132.8830  125.0270   58.4280 O   0  0  0  0  0  0  0  0  0  0  0  0
  130.9640  126.4800   58.5630 C   0  0  2  0  0  0  0  0  0  0  0  0
  130.8010  127.8250   59.3290 C   0  0  0  0  0  0  0  0  0  0  0  0
  130.9310  129.0760   58.4750 C   0  0  0  0  0  0  0  0  0  0  0  0
  129.8310  129.5670   57.7380 C   0  0  0  0  0  0  0  0  0  0  0  0
  129.9450  130.7540   57.0270 C   0  0  0  0  0  0  0  0  0  0  0  0
  131.1340  131.4730   57.0510 C   0  0  0  0  0  0  0  0  0  0  0  0
  132.2150  131.0180   57.7950 C   0  0  0  0  0  0  0  0  0  0  0  0
  132.1200  129.8350   58.5150 C   0  0  0  0  0  0  0  0  0  0  0  0
  129.6540  125.7980   58.3730 N   0  0  0  0  0  0  0  0  0  0  0  0
  128.7870  125.6260   59.4110 C   0  0  0  0  0  0  0  0  0  0  0  0
  128.9540  125.9590   60.5860 O   0  0  0  0  0  0  0  0  0  0  0  0
  127.5970  124.9600   58.8280 C   0  0  0  0  0  0  0  0  0  0  0  0
  126.4040  124.5380   59.4160 C   0  0  0  0  0  0  0  0  0  0  0  0
  125.4350  123.9340   58.6080 C   0  0  0  0  0  0  0  0  0  0  0  0
  125.6670  123.7620   57.2360 C   0  0  0  0  0  0  0  0  0  0  0  0
  126.8690  124.1930   56.6650 C   0  0  0  0  0  0  0  0  0  0  0  0
  127.8230  124.7910   57.4890 C   0  0  0  0  0  0  0  0  0  0  0  0
  129.1640  125.3480   57.1800 C   0  0  0  0  0  0  0  0  0  0  0  0
  129.7100  125.3990   56.0770 O   0  0  0  0  0  0  0  0  0  0  0  0
  131.1810  124.0540   64.8510 C   0  0  2  0  0  0  0  0  0  0  0  0
  130.3430  122.7900   64.4990 C   0  0  0  0  0  0  0  0  0  0  0  0
  129.9310  122.7110   63.0400 C   0  0  0  0  0  0  0  0  0  0  0  0
  130.7670  122.0680   62.1020 C   0  0  0  0  0  0  0  0  0  0  0  0
  130.3420  121.9070   60.7890 C   0  0  0  0  0  0  0  0  0  0  0  0
  129.0850  122.3520   60.4000 C   0  0  0  0  0  0  0  0  0  0  0  0
  128.2360  122.9520   61.3220 C   0  0  0  0  0  0  0  0  0  0  0  0
  128.6420  123.1230   62.6390 C   0  0  0  0  0  0  0  0  0  0  0  0
  130.3100  125.2480   65.0500 N   0  0  0  0  0  0  0  0  0  0  0  0
  129.9570  125.6780   66.2940 C   0  0  0  0  0  0  0  0  0  0  0  0
  130.2640  125.1710   67.3740 O   0  0  0  0  0  0  0  0  0  0  0  0
  129.1240  126.8850   66.0700 C   0  0  0  0  0  0  0  0  0  0  0  0
  128.4840  127.7350   66.9740 C   0  0  0  0  0  0  0  0  0  0  0  0
  127.7550  128.8190   66.4740 C   0  0  0  0  0  0  0  0  0  0  0  0
  127.6760  129.0400   65.0920 C   0  0  0  0  0  0  0  0  0  0  0  0
  128.3270  128.1780   64.2020 C   0  0  0  0  0  0  0  0  0  0  0  0
  129.0470  127.1010   64.7220 C   0  0  0  0  0  0  0  0  0  0  0  0
  129.8290  126.0380   64.0450 C   0  0  0  0  0  0  0  0  0  0  0  0
  130.0070  125.8990   62.8340 O   0  0  0  0  0  0  0  0  0  0  0  0
  131.0020  124.7200   62.5010 H   0  0  0  0  0  0  0  0  0  0  0  0
  131.0740  125.7650   60.8880 H   0  0  0  0  0  0  0  0  0  0  0  0
  131.3624  126.7641   57.5778 H   0  0  0  0  0  0  0  0  0  0  0  0
  129.8044  127.8329   59.7946 H   0  0  0  0  0  0  0  0  0  0  0  0
  131.6258  127.8644   60.0557 H   0  0  0  0  0  0  0  0  0  0  0  0
  128.8833  129.0087   57.7273 H   0  0  0  0  0  0  0  0  0  0  0  0
  129.0910  131.1268   56.4425 H   0  0  0  0  0  0  0  0  0  0  0  0
  131.2195  132.4078   56.4775 H   0  0  0  0  0  0  0  0  0  0  0  0
  133.1499  131.5973   57.8138 H   0  0  0  0  0  0  0  0  0  0  0  0
  132.9727  129.4887   59.1175 H   0  0  0  0  0  0  0  0  0  0  0  0
  126.2291  124.6775   60.4930 H   0  0  0  0  0  0  0  0  0  0  0  0
  124.4876  123.5927   59.0506 H   0  0  0  0  0  0  0  0  0  0  0  0
  124.9008  123.2863   56.6062 H   0  0  0  0  0  0  0  0  0  0  0  0
  127.0581  124.0632   55.5892 H   0  0  0  0  0  0  0  0  0  0  0  0
  131.6642  123.8448   65.8168 H   0  0  0  0  0  0  0  0  0  0  0  0
  130.9427  121.8994   64.7381 H   0  0  0  0  0  0  0  0  0  0  0  0
  129.4166  122.8468   65.0894 H   0  0  0  0  0  0  0  0  0  0  0  0
  131.7546  121.6945   62.4104 H   0  0  0  0  0  0  0  0  0  0  0  0
  131.0038  121.4250   60.0544 H   0  0  0  0  0  0  0  0  0  0  0  0
  128.7599  122.2288   59.3564 H   0  0  0  0  0  0  0  0  0  0  0  0
  127.2385  123.2928   61.0075 H   0  0  0  0  0  0  0  0  0  0  0  0
  127.9586  123.5798   63.3700 H   0  0  0  0  0  0  0  0  0  0  0  0
  128.5517  127.5559   68.0572 H   0  0  0  0  0  0  0  0  0  0  0  0
  127.2417  129.5008   67.1680 H   0  0  0  0  0  0  0  0  0  0  0  0
  127.1003  129.8940   64.7056 H   0  0  0  0  0  0  0  0  0  0  0  0
  128.2725  128.3456   63.1162 H   0  0  0  0  0  0  0  0  0  0  0  0
  1  2  2  0
  2  3  1  0
  3  4  1  0
  4  5  2  0
  4  6  1  0
  6  7  1  0
  7  8  2  0
  7  9  1  0
  9 10  1  0
 10 11  1  0
 11 12  2  0
 12 13  1  0
 13 14  2  0
 14 15  1  0
 15 16  2  0
  9 17  1  0
 17 18  1  0
 18 19  2  0
 18 20  1  0
 20 21  2  0
 21 22  1  0
 22 23  2  0
 23 24  1  0
 24 25  2  0
 25 26  1  0
 26 27  2  0
  2 28  1  0
 28 29  1  0
 29 30  1  0
 30 31  2  0
 31 32  1  0
 32 33  2  0
 33 34  1  0
 34 35  2  0
 28 36  1  0
 36 37  1  0
 37 38  2  0
 37 39  1  0
 39 40  2  0
 40 41  1  0
 41 42  2  0
 42 43  1  0
 43 44  2  0
 44 45  1  0
 45 46  2  0
 16 11  1  0
 26 17  1  0
 35 30  1  0
 45 36  1  0
 25 20  1  0
 44 39  1  0
  3 47  1  0
  6 48  1  0
  9 49  1  6
 10 50  1  0
 10 51  1  0
 12 52  1  0
 13 53  1  0
 14 54  1  0
 15 55  1  0
 16 56  1  0
 21 57  1  0
 22 58  1  0
 23 59  1  0
 24 60  1  0
 28 61  1  1
 29 62  1  0
 29 63  1  0
 31 64  1  0
 32 65  1  0
 33 66  1  0
 34 67  1  0
 35 68  1  0
 40 69  1  0
 41 70  1  0
 42 71  1  0
 43 72  1  0
M  END
>  <Binding energies>  (1) 
[-10.87]

>  <Ligand effiencies>  (1) 
[-0.22645833333333332]

>  <Interactions>  (1) 
["V-A:LEU:363:CD1:3189, V-A:ASP:366:CG:3213, H-A:TYR:531:OH:4795, H-B:TYR:539:OH:9850, V-A:ASP:366:CB:3212, V-B:TYR:539:CZ:9849, V-B:PRO:540:CB:9857, V-B:PRO:540:CA:9855, V-B:TYR:539:CE2:9848, V-B:MET:535:CE:9807, V-B:TYR:539:CD2:9846, V-A:MET:535:CE:4835, V-B:ALA:541:CB:9864, V-A:ILE:369:CD1:3239, V-B:GLU:543:CG:9879, V-A:LEU:475:CD2:4259, V-A:TYR:484:CZ:4347, V-B:GLU:543:CB:9878, H-A:TYR:484:OH:4348, V-A:GLU:543:CD:4908, V-A:TYR:484:CE2:4346, V-B:GLU:543:CD:9880, V-B:HIS:456:CE1:9041, H-A:GLY:454:N:4050"]

$$$$
RR19_Rahimova_2017-again1
     RDKit          3D

 71 76  0  0  0  0  0  0  0  0999 V2000
  133.1340  125.3980   58.2620 O   0  0  0  0  0  0  0  0  0  0  0  0
  132.1450  125.6210   58.9650 C   0  0  0  0  0  0  0  0  0  0  0  0
  131.9370  125.1410   60.2140 N   0  0  0  0  0  0  0  0  0  0  0  0
  132.7300  124.4500   61.0870 C   0  0  0  0  0  0  0  0  0  0  0  0
  134.2740  123.8190   60.8840 S   0  0  0  0  0  0  0  0  0  0  0  0
  132.0490  124.4070   62.2910 N   0  0  0  0  0  0  0  0  0  0  0  0
  132.5170  124.4360   63.4960 C   0  0  0  0  0  0  0  0  0  0  0  0
  133.6850  124.5920   63.9060 O   0  0  0  0  0  0  0  0  0  0  0  0
  131.4610  124.2260   64.6320 C   0  0  2  0  0  0  0  0  0  0  0  0
  130.7740  122.8240   64.5210 C   0  0  0  0  0  0  0  0  0  0  0  0
  129.9220  122.6330   63.2690 C   0  0  0  0  0  0  0  0  0  0  0  0
  128.6420  123.1890   63.2050 C   0  0  0  0  0  0  0  0  0  0  0  0
  127.8700  123.0280   62.0570 C   0  0  0  0  0  0  0  0  0  0  0  0
  128.3800  122.3080   60.9780 C   0  0  0  0  0  0  0  0  0  0  0  0
  129.6540  121.7470   61.0370 C   0  0  0  0  0  0  0  0  0  0  0  0
  130.4250  121.9070   62.1850 C   0  0  0  0  0  0  0  0  0  0  0  0
  130.5100  125.3760   64.7880 N   0  0  0  0  0  0  0  0  0  0  0  0
  130.0540  125.7650   66.0120 C   0  0  0  0  0  0  0  0  0  0  0  0
  130.3200  125.2610   67.1040 O   0  0  0  0  0  0  0  0  0  0  0  0
  129.1640  126.9250   65.7510 C   0  0  0  0  0  0  0  0  0  0  0  0
  128.4210  127.7220   66.6230 C   0  0  0  0  0  0  0  0  0  0  0  0
  127.6570  128.7660   66.0900 C   0  0  0  0  0  0  0  0  0  0  0  0
  127.6470  129.0000   64.7080 C   0  0  0  0  0  0  0  0  0  0  0  0
  128.4000  128.1910   63.8510 C   0  0  0  0  0  0  0  0  0  0  0  0
  129.1530  127.1530   64.4030 C   0  0  0  0  0  0  0  0  0  0  0  0
  130.0350  126.1480   63.7630 C   0  0  0  0  0  0  0  0  0  0  0  0
  130.2840  126.0370   62.5630 O   0  0  0  0  0  0  0  0  0  0  0  0
  131.0000  126.5250   58.4190 C   0  0  2  0  0  0  0  0  0  0  0  0
  130.8010  127.8400   59.2280 C   0  0  0  0  0  0  0  0  0  0  0  0
  130.9700  129.1030   58.4030 C   0  0  0  0  0  0  0  0  0  0  0  0
  129.8800  129.6220   57.6730 C   0  0  0  0  0  0  0  0  0  0  0  0
  130.0060  130.8300   56.9990 C   0  0  0  0  0  0  0  0  0  0  0  0
  131.1960  131.5460   57.0620 C   0  0  0  0  0  0  0  0  0  0  0  0
  132.2650  131.0650   57.8070 C   0  0  0  0  0  0  0  0  0  0  0  0
  132.1580  129.8600   58.4890 C   0  0  0  0  0  0  0  0  0  0  0  0
  129.7100  125.8050   58.1940 N   0  0  0  0  0  0  0  0  0  0  0  0
  129.3320  125.3890   56.9520 C   0  0  0  0  0  0  0  0  0  0  0  0
  129.9100  125.5980   55.8860 O   0  0  0  0  0  0  0  0  0  0  0  0
  128.0800  124.6200   57.1580 C   0  0  0  0  0  0  0  0  0  0  0  0
  127.2560  123.9530   56.2490 C   0  0  0  0  0  0  0  0  0  0  0  0
  126.1290  123.2810   56.7350 C   0  0  0  0  0  0  0  0  0  0  0  0
  125.8400  123.2860   58.1060 C   0  0  0  0  0  0  0  0  0  0  0  0
  126.6760  123.9630   59.0010 C   0  0  0  0  0  0  0  0  0  0  0  0
  127.7960  124.6250   58.4970 C   0  0  0  0  0  0  0  0  0  0  0  0
  128.8650  125.3900   59.1850 C   0  0  0  0  0  0  0  0  0  0  0  0
  128.9730  125.5960   60.3940 O   0  0  0  0  0  0  0  0  0  0  0  0
  131.0540  125.4190   60.6150 H   0  0  0  0  0  0  0  0  0  0  0  0
  132.0090  124.2192   65.5857 H   0  0  0  0  0  0  0  0  0  0  0  0
  131.5606  122.0551   64.5217 H   0  0  0  0  0  0  0  0  0  0  0  0
  130.0909  122.7419   65.3793 H   0  0  0  0  0  0  0  0  0  0  0  0
  128.2440  123.7537   64.0610 H   0  0  0  0  0  0  0  0  0  0  0  0
  126.8628  123.4669   62.0021 H   0  0  0  0  0  0  0  0  0  0  0  0
  127.7707  122.1814   60.0710 H   0  0  0  0  0  0  0  0  0  0  0  0
  130.0486  121.1805   60.1807 H   0  0  0  0  0  0  0  0  0  0  0  0
  131.4297  121.4624   62.2393 H   0  0  0  0  0  0  0  0  0  0  0  0
  128.4357  127.5334   67.7066 H   0  0  0  0  0  0  0  0  0  0  0  0
  127.0618  129.4057   66.7582 H   0  0  0  0  0  0  0  0  0  0  0  0
  127.0446  129.8230   64.2960 H   0  0  0  0  0  0  0  0  0  0  0  0
  128.3990  128.3687   62.7654 H   0  0  0  0  0  0  0  0  0  0  0  0
  131.3546  126.8262   57.4222 H   0  0  0  0  0  0  0  0  0  0  0  0
  129.7854  127.8360   59.6506 H   0  0  0  0  0  0  0  0  0  0  0  0
  131.5816  127.8587   60.0028 H   0  0  0  0  0  0  0  0  0  0  0  0
  128.9295  129.0695   57.6375 H   0  0  0  0  0  0  0  0  0  0  0  0
  129.1612  131.2215   56.4133 H   0  0  0  0  0  0  0  0  0  0  0  0
  131.2914  132.4980   56.5192 H   0  0  0  0  0  0  0  0  0  0  0  0
  133.2007  131.6412   57.8570 H   0  0  0  0  0  0  0  0  0  0  0  0
  132.9995  129.4954   59.0964 H   0  0  0  0  0  0  0  0  0  0  0  0
  127.4880  123.9558   55.1737 H   0  0  0  0  0  0  0  0  0  0  0  0
  125.4671  122.7465   56.0377 H   0  0  0  0  0  0  0  0  0  0  0  0
  124.9521  122.7555   58.4804 H   0  0  0  0  0  0  0  0  0  0  0  0
  126.4549  123.9730   60.0785 H   0  0  0  0  0  0  0  0  0  0  0  0
  1  2  2  0
  2  3  1  0
  3  4  1  0
  4  5  2  0
  4  6  1  0
  6  7  2  0
  7  8  1  0
  7  9  1  0
  9 10  1  0
 10 11  1  0
 11 12  2  0
 12 13  1  0
 13 14  2  0
 14 15  1  0
 15 16  2  0
  9 17  1  0
 17 18  1  0
 18 19  2  0
 18 20  1  0
 20 21  2  0
 21 22  1  0
 22 23  2  0
 23 24  1  0
 24 25  2  0
 25 26  1  0
 26 27  2  0
  2 28  1  0
 28 29  1  0
 29 30  1  0
 30 31  2  0
 31 32  1  0
 32 33  2  0
 33 34  1  0
 34 35  2  0
 28 36  1  0
 36 37  1  0
 37 38  2  0
 37 39  1  0
 39 40  2  0
 40 41  1  0
 41 42  2  0
 42 43  1  0
 43 44  2  0
 44 45  1  0
 45 46  2  0
 16 11  1  0
 26 17  1  0
 35 30  1  0
 45 36  1  0
 25 20  1  0
 44 39  1  0
  3 47  1  0
  9 48  1  1
 10 49  1  0
 10 50  1  0
 12 51  1  0
 13 52  1  0
 14 53  1  0
 15 54  1  0
 16 55  1  0
 21 56  1  0
 22 57  1  0
 23 58  1  0
 24 59  1  0
 28 60  1  6
 29 61  1  0
 29 62  1  0
 31 63  1  0
 32 64  1  0
 33 65  1  0
 34 66  1  0
 35 67  1  0
 40 68  1  0
 41 69  1  0
 42 70  1  0
 43 71  1  0
M  CHG  1   8  -1
M  END
>  <Binding energies>  (1) 
[-9.95]

>  <Ligand effiencies>  (1) 
[-0.21170212765957444]

>  <Interactions>  (1) 
["V-A:LEU:363:CD1:3189, V-A:ASP:366:CG:3213, H-A:TYR:531:OH:4795, H-B:TYR:539:OH:9850, V-A:ASP:366:CB:3212, V-B:TYR:539:CZ:9849, V-B:PRO:540:N:9856, V-B:PRO:540:CB:9857, V-B:PRO:540:CA:9855, V-B:TYR:539:CE2:9848, V-B:MET:535:CE:9807, V-B:PRO:540:C:9853, V-B:TYR:539:CD2:9846, V-A:MET:535:CE:4835, V-B:ALA:541:CB:9864, V-A:ILE:369:CD1:3239, V-B:GLU:543:CG:9879, V-A:ILE:369:CB:3236, V-A:ILE:369:CG2:3237, V-A:LEU:475:CD2:4259, V-A:TYR:484:CZ:4347, V-B:GLU:543:CB:9878, H-A:TYR:484:OH:4348, V-A:GLU:543:CD:4908, V-A:TYR:484:CE2:4346, V-B:GLU:543:CD:9880, H-A:ARG:545:NH2:4928, H-A:GLY:454:N:4050"]

$$$$
RR1_Rahimova_2017
     RDKit          3D

 68 71  0  0  0  0  0  0  0  0999 V2000
  131.4910  132.6920   56.6380 C   0  0  0  0  0  0  0  0  0  0  0  0
  130.1930  133.2350   56.4210 O   0  0  0  0  0  0  0  0  0  0  0  0
  129.1540  132.8460   57.2440 C   0  0  0  0  0  0  0  0  0  0  0  0
  128.0360  132.1140   56.8150 C   0  0  0  0  0  0  0  0  0  0  0  0
  127.0320  131.7740   57.7170 C   0  0  0  0  0  0  0  0  0  0  0  0
  127.1290  132.1500   59.0580 C   0  0  0  0  0  0  0  0  0  0  0  0
  126.0430  131.7980   59.8810 N   0  0  0  0  0  0  0  0  0  0  0  0
  125.2010  130.7470   59.7840 C   0  0  0  0  0  0  0  0  0  0  0  0
  125.2110  129.9220   58.8700 O   0  0  0  0  0  0  0  0  0  0  0  0
  124.1800  130.6370   60.9280 C   0  0  0  0  0  0  0  0  0  0  0  0
  124.5580  131.6300   62.4140 S   0  0  0  0  0  0  0  0  0  0  0  0
  126.2010  131.0530   62.6770 C   0  0  0  0  0  0  0  0  0  0  0  0
  127.2610  131.5580   62.0970 N   0  0  0  0  0  0  0  0  0  0  0  0
  128.2650  130.8390   62.5880 C   0  0  0  0  0  0  0  0  0  0  0  0
  129.6950  131.0870   62.2000 C   0  0  0  0  0  0  0  0  0  0  0  0
  130.2450  130.5370   61.0310 C   0  0  0  0  0  0  0  0  0  0  0  0
  131.5780  130.7830   60.6980 C   0  0  0  0  0  0  0  0  0  0  0  0
  132.3400  131.5800   61.5500 C   0  0  0  0  0  0  0  0  0  0  0  0
  131.8420  132.1260   62.6880 N   0  0  0  0  0  0  0  0  0  0  0  0
  130.5430  131.8770   62.9930 C   0  0  0  0  0  0  0  0  0  0  0  0
  127.9200  129.8950   63.4440 N   0  0  0  0  0  0  0  0  0  0  0  0
  126.5920  130.0300   63.5020 N   0  0  0  0  0  0  0  0  0  0  0  0
  125.7950  129.1700   64.3770 C   0  0  0  0  0  0  0  0  0  0  0  0
  126.2130  129.1840   65.8580 C   0  0  0  0  0  0  0  0  0  0  0  0
  125.3660  129.2630   66.7540 O   0  0  0  0  0  0  0  0  0  0  0  0
  127.5410  129.1100   66.0740 N   0  0  0  0  0  0  0  0  0  0  0  0
  127.9830  128.9700   67.3830 N   0  0  0  0  0  0  0  0  0  0  0  0
  128.8190  127.9450   67.6590 C   0  0  0  0  0  0  0  0  0  0  0  0
  129.2940  127.1890   66.8050 O   0  0  0  0  0  0  0  0  0  0  0  0
  129.1840  127.7730   69.1190 C   0  0  0  0  0  0  0  0  0  0  0  0
  130.4860  128.0510   69.5510 C   0  0  0  0  0  0  0  0  0  0  0  0
  130.8460  127.8880   70.8850 C   0  0  0  0  0  0  0  0  0  0  0  0
  129.9140  127.4330   71.8300 C   0  0  0  0  0  0  0  0  0  0  0  0
  130.2110  127.2370   73.1670 O   0  0  0  0  0  0  0  0  0  0  0  0
  131.5380  126.8930   73.5480 C   0  0  0  0  0  0  0  0  0  0  0  0
  128.6070  127.1420   71.4170 C   0  0  0  0  0  0  0  0  0  0  0  0
  127.7310  126.6770   72.3840 O   0  0  0  0  0  0  0  0  0  0  0  0
  126.9670  127.6050   73.1460 C   0  0  0  0  0  0  0  0  0  0  0  0
  128.2530  127.3170   70.0670 C   0  0  0  0  0  0  0  0  0  0  0  0
  128.2460  132.8810   59.4910 C   0  0  0  0  0  0  0  0  0  0  0  0
  129.2480  133.2190   58.5860 C   0  0  0  0  0  0  0  0  0  0  0  0
  131.6795  132.6132   57.7189 H   0  0  0  0  0  0  0  0  0  0  0  0
  131.5516  131.6931   56.1814 H   0  0  0  0  0  0  0  0  0  0  0  0
  132.2448  133.3502   56.1814 H   0  0  0  0  0  0  0  0  0  0  0  0
  127.9529  131.8078   55.7618 H   0  0  0  0  0  0  0  0  0  0  0  0
  126.1563  131.2053   57.3710 H   0  0  0  0  0  0  0  0  0  0  0  0
  125.8570  132.4530   60.6280 H   0  0  0  0  0  0  0  0  0  0  0  0
  123.2022  130.9617   60.5426 H   0  0  0  0  0  0  0  0  0  0  0  0
  124.2005  129.5861   61.2525 H   0  0  0  0  0  0  0  0  0  0  0  0
  129.6231  129.9100   60.3752 H   0  0  0  0  0  0  0  0  0  0  0  0
  132.0171  130.3573   59.7837 H   0  0  0  0  0  0  0  0  0  0  0  0
  133.3906  131.7749   61.2887 H   0  0  0  0  0  0  0  0  0  0  0  0
  130.1316  132.3187   63.9126 H   0  0  0  0  0  0  0  0  0  0  0  0
  124.7468  129.4977   64.3151 H   0  0  0  0  0  0  0  0  0  0  0  0
  125.9521  128.1405   64.0227 H   0  0  0  0  0  0  0  0  0  0  0  0
  128.2250  128.8380   65.3820 H   0  0  0  0  0  0  0  0  0  0  0  0
  127.2800  129.2660   68.0440 H   0  0  0  0  0  0  0  0  0  0  0  0
  131.2347  128.4031   68.8261 H   0  0  0  0  0  0  0  0  0  0  0  0
  131.8736  128.1186   71.2026 H   0  0  0  0  0  0  0  0  0  0  0  0
  131.6111  126.8740   74.6454 H   0  0  0  0  0  0  0  0  0  0  0  0
  131.7890  125.9001   73.1466 H   0  0  0  0  0  0  0  0  0  0  0  0
  132.2398  127.6389   73.1466 H   0  0  0  0  0  0  0  0  0  0  0  0
  127.1231  127.4154   74.2182 H   0  0  0  0  0  0  0  0  0  0  0  0
  127.2871  128.6293   72.9044 H   0  0  0  0  0  0  0  0  0  0  0  0
  125.9003  127.4876   72.9044 H   0  0  0  0  0  0  0  0  0  0  0  0
  127.2250  127.0919   69.7467 H   0  0  0  0  0  0  0  0  0  0  0  0
  128.3295  133.1865   60.5444 H   0  0  0  0  0  0  0  0  0  0  0  0
  130.1243  133.7867   58.9323 H   0  0  0  0  0  0  0  0  0  0  0  0
  1  2  1  0
  2  3  1  0
  3  4  2  0
  4  5  1  0
  5  6  2  0
  6  7  1  0
  7  8  1  0
  8  9  2  0
  8 10  1  0
 10 11  1  0
 11 12  1  0
 12 13  2  0
 13 14  1  0
 14 15  1  0
 15 16  2  0
 16 17  1  0
 17 18  2  0
 18 19  1  0
 19 20  2  0
 14 21  2  0
 21 22  1  0
 22 23  1  0
 23 24  1  0
 24 25  2  0
 24 26  1  0
 26 27  1  0
 27 28  1  0
 28 29  2  0
 28 30  1  0
 30 31  2  0
 31 32  1  0
 32 33  2  0
 33 34  1  0
 34 35  1  0
 33 36  1  0
 36 37  1  0
 37 38  1  0
 36 39  2  0
  6 40  1  0
 40 41  2  0
 41  3  1  0
 22 12  1  0
 39 30  1  0
 20 15  1  0
  1 42  1  0
  1 43  1  0
  1 44  1  0
  4 45  1  0
  5 46  1  0
  7 47  1  0
 10 48  1  0
 10 49  1  0
 16 50  1  0
 17 51  1  0
 18 52  1  0
 20 53  1  0
 23 54  1  0
 23 55  1  0
 26 56  1  0
 27 57  1  0
 31 58  1  0
 32 59  1  0
 35 60  1  0
 35 61  1  0
 35 62  1  0
 38 63  1  0
 38 64  1  0
 38 65  1  0
 39 66  1  0
 40 67  1  0
 41 68  1  0
M  END
>  <Binding energies>  (1) 
[-8.27]

>  <Ligand effiencies>  (1) 
[-0.18795454545454546]

>  <Interactions>  (1) 
["V-A:LEU:363:CD1:3189, V-A:PRO:540:CA:4883, V-A:PRO:540:CB:4885, V-A:PRO:540:CD:4887, V-A:PRO:540:N:4884, V-A:TYR:539:C:4867, H-A:TYR:539:N:4870, H-B:TYR:531:OH:9767, V-B:ASP:366:CG:8184, V-A:MET:535:CE:4835, V-A:GLU:543:CD:4908, V-B:GLU:543:CD:9880, V-B:HIS:456:CE1:9041, V-A:GLY:544:C:4912, H-A:LYS:547:NZ:4951, V-B:GLY:544:C:9884, V-B:HIS:456:CD2:9039, V-B:LYS:547:CE:9922, V-A:HIS:456:CE1:4070, V-A:GLU:543:CG:4907, V-A:GLU:543:C:4902, V-A:GLU:543:CB:4906, V-B:HIS:456:CG:9037, H-B:LYS:547:NZ:9923, H-A:GLU:543:OE1:4909, H-A:GLU:543:OE2:4910, V-B:TYR:484:CZ:9318, H-B:GLU:543:OE2:9882, H-B:TYR:484:OH:9319, V-A:ALA:541:CB:4892, V-A:HIS:456:CD2:4068, H-B:HIS:456:NE2:9042, V-A:HIS:456:CG:4066, V-A:TYR:539:CE1:4875, V-A:ALA:541:CA:4890, V-A:TYR:539:CZ:4877, H-A:ALA:541:N:4891, V-A:TYR:539:CD1:4873, V-A:TYR:539:CA:4869, V-A:ILE:538:CG2:4863, V-A:ILE:538:CB:4862, V-B:ARG:545:CZ:9898, H-B:ARG:545:NE:9896"]

$$$$
RR20_Rahimova_2017
     RDKit          3D

 68 73  0  0  0  0  0  0  0  0999 V2000
  133.1150  124.1160   76.3840 C   0  0  0  0  0  0  0  0  0  0  0  0
  132.3560  125.0720   75.4810 C   0  0  0  0  0  0  0  0  0  0  0  0
  130.9600  125.0700   75.4850 C   0  0  0  0  0  0  0  0  0  0  0  0
  130.2620  125.9520   74.6640 C   0  0  0  0  0  0  0  0  0  0  0  0
  130.9530  126.8330   73.8240 C   0  0  0  0  0  0  0  0  0  0  0  0
  130.1750  127.7970   72.9560 C   0  0  0  0  0  0  0  0  0  0  0  0
  130.3810  129.0030   73.1150 O   0  0  0  0  0  0  0  0  0  0  0  0
  129.2970  127.3070   72.0320 N   0  0  0  0  0  0  0  0  0  0  0  0
  127.9220  126.9320   72.3980 C   0  0  0  0  0  0  0  0  0  0  0  0
  127.2130  126.5840   71.1000 C   0  0  0  0  0  0  0  0  0  0  0  0
  128.1290  127.1510   70.0570 C   0  0  0  0  0  0  0  0  0  0  0  0
  127.9560  127.2100   68.6740 C   0  0  0  0  0  0  0  0  0  0  0  0
  129.0020  127.6310   67.8420 C   0  0  0  0  0  0  0  0  0  0  0  0
  128.8140  127.7030   66.3530 C   0  0  0  0  0  0  0  0  0  0  0  0
  128.2750  128.7980   65.8400 N   0  0  0  0  0  0  0  0  0  0  0  0
  128.1770  128.7610   64.5350 C   0  0  0  0  0  0  0  0  0  0  0  0
  127.6700  129.7340   63.6880 N   0  0  0  0  0  0  0  0  0  0  0  0
  127.7520  131.0770   63.8480 C   0  0  0  0  0  0  0  0  0  0  0  0
  128.3290  131.6250   64.7900 O   0  0  0  0  0  0  0  0  0  0  0  0
  127.1070  131.9790   62.7690 C   0  0  0  0  0  0  0  0  0  0  0  0
  127.8810  132.0190   61.5140 N   0  0  0  0  0  0  0  0  0  0  0  0
  127.6780  133.2710   60.7700 C   0  0  0  0  0  0  0  0  0  0  0  0
  128.2880  133.1540   59.3550 C   0  0  0  0  0  0  0  0  0  0  0  0
  129.6910  132.5450   59.3580 C   0  0  0  0  0  0  0  0  0  0  0  0
  130.5050  132.6050   58.2210 C   0  0  0  0  0  0  0  0  0  0  0  0
  131.7670  132.0170   58.2110 C   0  0  0  0  0  0  0  0  0  0  0  0
  132.2340  131.3610   59.3460 C   0  0  0  0  0  0  0  0  0  0  0  0
  131.4370  131.3020   60.4880 C   0  0  0  0  0  0  0  0  0  0  0  0
  130.1670  131.8880   60.5110 C   0  0  0  0  0  0  0  0  0  0  0  0
  129.3170  131.8740   61.7820 C   0  0  0  0  0  0  0  0  0  0  0  0
  128.7560  127.3070   63.8200 S   0  0  0  0  0  0  0  0  0  0  0  0
  129.1510  126.7060   65.4130 C   0  0  0  0  0  0  0  0  0  0  0  0
  129.7250  125.3170   65.5870 C   0  0  0  0  0  0  0  0  0  0  0  0
  130.2400  127.9370   68.4270 C   0  0  0  0  0  0  0  0  0  0  0  0
  130.4210  127.8600   69.8070 C   0  0  0  0  0  0  0  0  0  0  0  0
  129.3430  127.5200   70.6350 C   0  0  0  0  0  0  0  0  0  0  0  0
  132.3530  126.8490   73.8480 C   0  0  0  0  0  0  0  0  0  0  0  0
  133.0520  125.9680   74.6690 C   0  0  0  0  0  0  0  0  0  0  0  0
  132.9148  124.3682   77.4358 H   0  0  0  0  0  0  0  0  0  0  0  0
  132.7866  123.0852   76.1852 H   0  0  0  0  0  0  0  0  0  0  0  0
  134.1935  124.2021   76.1852 H   0  0  0  0  0  0  0  0  0  0  0  0
  130.4121  124.3727   76.1358 H   0  0  0  0  0  0  0  0  0  0  0  0
  129.1621  125.9564   74.6757 H   0  0  0  0  0  0  0  0  0  0  0  0
  127.9312  126.0624   73.0716 H   0  0  0  0  0  0  0  0  0  0  0  0
  127.4114  127.7520   72.9242 H   0  0  0  0  0  0  0  0  0  0  0  0
  127.1086  125.4950   70.9855 H   0  0  0  0  0  0  0  0  0  0  0  0
  126.1894  126.9828   71.0431 H   0  0  0  0  0  0  0  0  0  0  0  0
  126.9900  126.9235   68.2327 H   0  0  0  0  0  0  0  0  0  0  0  0
  127.1800  129.3980   62.8700 H   0  0  0  0  0  0  0  0  0  0  0  0
  126.1000  131.5957   62.5478 H   0  0  0  0  0  0  0  0  0  0  0  0
  127.0774  133.0027   63.1704 H   0  0  0  0  0  0  0  0  0  0  0  0
  126.6000  133.4732   60.6857 H   0  0  0  0  0  0  0  0  0  0  0  0
  128.1726  134.0932   61.3079 H   0  0  0  0  0  0  0  0  0  0  0  0
  127.6316  132.5193   58.7416 H   0  0  0  0  0  0  0  0  0  0  0  0
  128.3720  134.1723   58.9475 H   0  0  0  0  0  0  0  0  0  0  0  0
  130.1422  133.1245   57.3218 H   0  0  0  0  0  0  0  0  0  0  0  0
  132.3933  132.0708   57.3083 H   0  0  0  0  0  0  0  0  0  0  0  0
  133.2284  130.8908   59.3419 H   0  0  0  0  0  0  0  0  0  0  0  0
  131.8123  130.7869   61.3846 H   0  0  0  0  0  0  0  0  0  0  0  0
  129.4816  130.9193   62.3031 H   0  0  0  0  0  0  0  0  0  0  0  0
  129.6259  132.7346   62.3936 H   0  0  0  0  0  0  0  0  0  0  0  0
  129.8186  125.0906   66.6594 H   0  0  0  0  0  0  0  0  0  0  0  0
  129.0568  124.5822   65.1141 H   0  0  0  0  0  0  0  0  0  0  0  0
  130.7169  125.2683   65.1141 H   0  0  0  0  0  0  0  0  0  0  0  0
  131.0807  128.2424   67.7868 H   0  0  0  0  0  0  0  0  0  0  0  0
  131.4087  128.0659   70.2453 H   0  0  0  0  0  0  0  0  0  0  0  0
  132.9032  127.5610   73.2152 H   0  0  0  0  0  0  0  0  0  0  0  0
  134.1519  125.9784   74.6774 H   0  0  0  0  0  0  0  0  0  0  0  0
  1  2  1  0
  2  3  2  0
  3  4  1  0
  4  5  2  0
  5  6  1  0
  6  7  2  0
  6  8  1  0
  8  9  1  0
  9 10  1  0
 10 11  1  0
 11 12  2  0
 12 13  1  0
 13 14  1  0
 14 15  1  0
 15 16  2  0
 16 17  1  0
 17 18  1  0
 18 19  2  0
 18 20  1  0
 20 21  1  0
 21 22  1  0
 22 23  1  0
 23 24  1  0
 24 25  2  0
 25 26  1  0
 26 27  2  0
 27 28  1  0
 28 29  2  0
 29 30  1  0
 16 31  1  0
 31 32  1  0
 32 33  1  0
 13 34  2  0
 34 35  1  0
 35 36  2  0
  5 37  1  0
 37 38  2  0
 38  2  1  0
 36  8  1  0
 36 11  1  0
 32 14  2  0
 30 21  1  0
 29 24  1  0
  1 39  1  0
  1 40  1  0
  1 41  1  0
  3 42  1  0
  4 43  1  0
  9 44  1  0
  9 45  1  0
 10 46  1  0
 10 47  1  0
 12 48  1  0
 17 49  1  0
 20 50  1  0
 20 51  1  0
 22 52  1  0
 22 53  1  0
 23 54  1  0
 23 55  1  0
 25 56  1  0
 26 57  1  0
 27 58  1  0
 28 59  1  0
 30 60  1  0
 30 61  1  0
 33 62  1  0
 33 63  1  0
 33 64  1  0
 34 65  1  0
 35 66  1  0
 37 67  1  0
 38 68  1  0
M  END
>  <Binding energies>  (1) 
[-10.1]

>  <Ligand effiencies>  (1) 
[-0.25897435897435894]

>  <Interactions>  (1) 
["V-A:LEU:363:CD1:3189, V-A:PRO:540:CA:4883, V-A:PRO:540:CB:4885, V-A:PRO:540:N:4884, V-A:TYR:539:C:4867, V-B:GLU:543:CG:9879, V-B:GLU:543:CB:9878, V-A:GLU:543:CD:4908, V-B:GLU:543:CD:9880, V-B:HIS:456:CE1:9041, V-A:GLY:544:C:4912, H-A:LYS:547:NZ:4951, V-B:GLY:544:C:9884, V-B:GLU:543:C:9874, V-B:LYS:547:CE:9922, V-A:HIS:456:CE1:4070, V-A:GLU:543:CG:4907, V-A:GLU:543:C:4902, V-A:GLU:543:CB:4906, V-B:GLY:544:CA:9886, H-B:TYR:484:OH:9319, V-A:HIS:456:CD2:4068, V-A:HIS:456:CB:4065, V-A:HIS:456:CG:4066, V-A:TYR:539:CE1:4875, V-A:TYR:539:CD1:4873"]

$$$$
RR20_Rahimova_2017-again1
     RDKit          3D

 68 73  0  0  0  0  0  0  0  0999 V2000
  124.9140  122.7480   57.2540 C   0  0  0  0  0  0  0  0  0  0  0  0
  126.0980  123.6620   56.9930 C   0  0  0  0  0  0  0  0  0  0  0  0
  126.0060  125.0230   57.2890 C   0  0  0  0  0  0  0  0  0  0  0  0
  127.0940  125.8600   57.0570 C   0  0  0  0  0  0  0  0  0  0  0  0
  128.2790  125.3460   56.5170 C   0  0  0  0  0  0  0  0  0  0  0  0
  129.4560  126.2680   56.2880 C   0  0  0  0  0  0  0  0  0  0  0  0
  129.8500  126.4180   55.1300 O   0  0  0  0  0  0  0  0  0  0  0  0
  130.0140  126.9130   57.3540 N   0  0  0  0  0  0  0  0  0  0  0  0
  129.8450  128.3620   57.5500 C   0  0  0  0  0  0  0  0  0  0  0  0
  130.4660  128.6880   58.8980 C   0  0  0  0  0  0  0  0  0  0  0  0
  130.6070  127.3380   59.5340 C   0  0  0  0  0  0  0  0  0  0  0  0
  131.0470  127.0140   60.8180 C   0  0  0  0  0  0  0  0  0  0  0  0
  131.2720  125.6770   61.1800 C   0  0  0  0  0  0  0  0  0  0  0  0
  131.7520  125.3270   62.5600 C   0  0  0  0  0  0  0  0  0  0  0  0
  130.9490  125.5770   63.5830 N   0  0  0  0  0  0  0  0  0  0  0  0
  131.4510  125.2490   64.7490 C   0  0  0  0  0  0  0  0  0  0  0  0
  130.9090  125.4100   65.9970 N   0  0  0  0  0  0  0  0  0  0  0  0
  130.0230  124.6350   66.5250 C   0  0  0  0  0  0  0  0  0  0  0  0
  129.5120  123.5720   66.1250 O   0  0  0  0  0  0  0  0  0  0  0  0
  129.5210  125.1090   67.9050 C   0  0  0  0  0  0  0  0  0  0  0  0
  128.9340  126.5460   67.7900 N   0  0  2  0  0  0  0  0  0  0  0  0
  130.0180  127.6380   67.9080 C   0  0  0  0  0  0  0  0  0  0  0  0
  130.6290  127.6210   69.3210 C   0  0  0  0  0  0  0  0  0  0  0  0
  129.5820  127.6080   70.4300 C   0  0  0  0  0  0  0  0  0  0  0  0
  129.9360  128.0060   71.7250 C   0  0  0  0  0  0  0  0  0  0  0  0
  129.0190  127.9620   72.7710 C   0  0  0  0  0  0  0  0  0  0  0  0
  127.7240  127.5180   72.5330 C   0  0  0  0  0  0  0  0  0  0  0  0
  127.3520  127.1310   71.2480 C   0  0  0  0  0  0  0  0  0  0  0  0
  128.2570  127.1760   70.1810 C   0  0  0  0  0  0  0  0  0  0  0  0
  127.7690  126.7880   68.7800 C   0  0  0  0  0  0  0  0  0  0  0  0
  133.0450  124.6000   64.6450 S   0  0  0  0  0  0  0  0  0  0  0  0
  132.9900  124.7500   62.9050 C   0  0  0  0  0  0  0  0  0  0  0  0
  134.1480  124.2710   62.0560 C   0  0  0  0  0  0  0  0  0  0  0  0
  131.0910  124.6830   60.2090 C   0  0  0  0  0  0  0  0  0  0  0  0
  130.6690  125.0060   58.9190 C   0  0  0  0  0  0  0  0  0  0  0  0
  130.3720  126.3350   58.5930 C   0  0  0  0  0  0  0  0  0  0  0  0
  128.3740  123.9740   56.2510 C   0  0  0  0  0  0  0  0  0  0  0  0
  127.2860  123.1370   56.4830 C   0  0  0  0  0  0  0  0  0  0  0  0
  124.7692  122.6362   58.3387 H   0  0  0  0  0  0  0  0  0  0  0  0
  124.0087  123.1838   56.8062 H   0  0  0  0  0  0  0  0  0  0  0  0
  125.1063  121.7619   56.8062 H   0  0  0  0  0  0  0  0  0  0  0  0
  125.0744  125.4339   57.7053 H   0  0  0  0  0  0  0  0  0  0  0  0
  127.0222  126.9306   57.2992 H   0  0  0  0  0  0  0  0  0  0  0  0
  130.3584  128.9164   56.7506 H   0  0  0  0  0  0  0  0  0  0  0  0
  128.7830  128.6471   57.5208 H   0  0  0  0  0  0  0  0  0  0  0  0
  131.4459  129.1728   58.7760 H   0  0  0  0  0  0  0  0  0  0  0  0
  129.8661  129.3903   59.4954 H   0  0  0  0  0  0  0  0  0  0  0  0
  131.2191  127.8140   61.5531 H   0  0  0  0  0  0  0  0  0  0  0  0
  128.7394  124.4233   68.2641 H   0  0  0  0  0  0  0  0  0  0  0  0
  130.3625  125.1171   68.6134 H   0  0  0  0  0  0  0  0  0  0  0  0
  128.5560  126.6180   66.8540 H   0  0  0  0  0  0  0  0  0  0  0  0
  130.8084  127.4486   67.1668 H   0  0  0  0  0  0  0  0  0  0  0  0
  129.5619  128.6218   67.7230 H   0  0  0  0  0  0  0  0  0  0  0  0
  131.2543  126.7215   69.4204 H   0  0  0  0  0  0  0  0  0  0  0  0
  131.2133  128.5460   69.4349 H   0  0  0  0  0  0  0  0  0  0  0  0
  130.9590  128.3604   71.9194 H   0  0  0  0  0  0  0  0  0  0  0  0
  129.3180  128.2773   73.7815 H   0  0  0  0  0  0  0  0  0  0  0  0
  126.9957  127.4724   73.3561 H   0  0  0  0  0  0  0  0  0  0  0  0
  126.3245  126.7823   71.0675 H   0  0  0  0  0  0  0  0  0  0  0  0
  127.1746  125.8656   68.8568 H   0  0  0  0  0  0  0  0  0  0  0  0
  127.1703  127.6252   68.3919 H   0  0  0  0  0  0  0  0  0  0  0  0
  134.9660  123.9326   62.7089 H   0  0  0  0  0  0  0  0  0  0  0  0
  133.8164  123.4362   61.4210 H   0  0  0  0  0  0  0  0  0  0  0  0
  134.5031  125.0961   61.4210 H   0  0  0  0  0  0  0  0  0  0  0  0
  131.2847  123.6316   60.4679 H   0  0  0  0  0  0  0  0  0  0  0  0
  130.5697  124.2173   58.1587 H   0  0  0  0  0  0  0  0  0  0  0  0
  129.3122  123.5562   55.8571 H   0  0  0  0  0  0  0  0  0  0  0  0
  127.3629  122.0617   56.2643 H   0  0  0  0  0  0  0  0  0  0  0  0
  1  2  1  0
  2  3  2  0
  3  4  1  0
  4  5  2  0
  5  6  1  0
  6  7  2  0
  6  8  1  0
  8  9  1  0
  9 10  1  0
 10 11  1  0
 11 12  2  0
 12 13  1  0
 13 14  1  0
 14 15  1  0
 15 16  2  0
 16 17  1  0
 17 18  2  0
 18 19  1  0
 18 20  1  0
 20 21  1  0
 21 22  1  0
 22 23  1  0
 23 24  1  0
 24 25  2  0
 25 26  1  0
 26 27  2  0
 27 28  1  0
 28 29  2  0
 29 30  1  0
 16 31  1  0
 31 32  1  0
 32 33  1  0
 13 34  2  0
 34 35  1  0
 35 36  2  0
  5 37  1  0
 37 38  2  0
 38  2  1  0
 36  8  1  0
 36 11  1  0
 32 14  2  0
 30 21  1  0
 29 24  1  0
  1 39  1  0
  1 40  1  0
  1 41  1  0
  3 42  1  0
  4 43  1  0
  9 44  1  0
  9 45  1  0
 10 46  1  0
 10 47  1  0
 12 48  1  0
 20 49  1  0
 20 50  1  0
 21 51  1  6
 22 52  1  0
 22 53  1  0
 23 54  1  0
 23 55  1  0
 25 56  1  0
 26 57  1  0
 27 58  1  0
 28 59  1  0
 30 60  1  0
 30 61  1  0
 33 62  1  0
 33 63  1  0
 33 64  1  0
 34 65  1  0
 35 66  1  0
 37 67  1  0
 38 68  1  0
M  CHG  2  19  -1  21   1
M  END
>  <Binding energies>  (1) 
[-9.54]

>  <Ligand effiencies>  (1) 
[-0.2446153846153846]

>  <Interactions>  (1) 
["V-A:ASP:366:CG:3213, H-A:TYR:531:OH:4795, H-B:TYR:539:OH:9850, V-B:TYR:539:CZ:9849, V-B:PRO:540:N:9856, V-B:TYR:539:CE1:9847, V-B:PRO:540:CB:9857, V-B:TYR:539:CD1:9845, V-B:PRO:540:CA:9855, V-B:TYR:539:CE2:9848, V-B:PRO:540:CD:9859, V-B:MET:535:CE:9807, V-B:LEU:363:CD1:8160, V-B:PRO:540:CG:9858, V-B:TYR:531:CE2:9765, V-A:ILE:369:CD1:3239, V-B:GLU:543:CG:9879, V-A:TYR:484:CZ:4347, V-B:GLU:543:CB:9878, H-A:TYR:484:OH:4348, V-A:GLU:543:CD:4908, V-A:TYR:484:CE2:4346, V-A:ARG:545:CZ:4926, V-B:HIS:456:CE1:9041, V-B:GLY:544:C:9884, V-B:GLU:543:C:9874, V-B:HIS:456:CD2:9039, V-A:HIS:456:CE1:4070, V-A:GLU:543:CG:4907, V-A:GLU:543:CB:4906, V-B:HIS:456:CG:9037, V-B:GLY:544:CA:9886, H-A:GLU:543:OE2:4910, H-B:GLU:543:OE2:9882, V-B:GLU:543:CA:9876"]

$$$$
RR21_Rahimova_2017
     RDKit          3D

 62 67  0  0  0  0  0  0  0  0999 V2000
  133.8030  123.0040   62.0720 C   0  0  0  0  0  0  0  0  0  0  0  0
  133.4180  122.5650   63.3710 O   0  0  0  0  0  0  0  0  0  0  0  0
  132.5690  123.3530   64.1260 C   0  0  0  0  0  0  0  0  0  0  0  0
  131.2740  122.9720   64.5140 C   0  0  0  0  0  0  0  0  0  0  0  0
  130.4810  123.8260   65.2800 C   0  0  0  0  0  0  0  0  0  0  0  0
  130.9610  125.0790   65.6790 C   0  0  0  0  0  0  0  0  0  0  0  0
  130.1090  125.9930   66.5050 C   0  0  0  0  0  0  0  0  0  0  0  0
  130.2330  125.9950   67.8180 N   0  0  0  0  0  0  0  0  0  0  0  0
  129.3590  126.8990   68.2860 N   0  0  0  0  0  0  0  0  0  0  0  0
  129.2450  127.1710   69.6740 C   0  0  0  0  0  0  0  0  0  0  0  0
  130.3230  127.7150   70.3900 C   0  0  0  0  0  0  0  0  0  0  0  0
  130.1970  127.9820   71.7510 C   0  0  0  0  0  0  0  0  0  0  0  0
  128.9970  127.7060   72.4000 C   0  0  0  0  0  0  0  0  0  0  0  0
  127.9210  127.1630   71.7020 C   0  0  0  0  0  0  0  0  0  0  0  0
  128.0430  126.8950   70.3420 C   0  0  0  0  0  0  0  0  0  0  0  0
  128.6850  127.4880   67.2460 C   0  0  0  0  0  0  0  0  0  0  0  0
  129.1330  126.9160   66.0650 C   0  0  0  0  0  0  0  0  0  0  0  0
  128.7460  127.2470   64.7020 C   0  0  0  0  0  0  0  0  0  0  0  0
  128.2230  128.4050   64.2380 C   0  0  0  0  0  0  0  0  0  0  0  0
  127.8400  129.8760   65.1580 S   0  0  0  0  0  0  0  0  0  0  0  0
  127.3060  130.6500   63.6730 C   0  0  0  0  0  0  0  0  0  0  0  0
  126.8590  131.8580   63.5210 N   0  0  0  0  0  0  0  0  0  0  0  0
  126.4690  132.3680   62.2520 C   0  0  0  0  0  0  0  0  0  0  0  0
  126.0560  133.5040   62.0220 O   0  0  0  0  0  0  0  0  0  0  0  0
  126.6080  131.3760   61.1300 C   0  0  0  0  0  0  0  0  0  0  0  0
  126.1980  131.8080   59.7160 C   0  0  0  0  0  0  0  0  0  0  0  0
  127.3710  132.1030   58.7830 C   0  0  0  0  0  0  0  0  0  0  0  0
  128.5490  132.6550   59.2940 C   0  0  0  0  0  0  0  0  0  0  0  0
  129.6240  132.9090   58.4450 C   0  0  0  0  0  0  0  0  0  0  0  0
  129.5250  132.6090   57.0850 C   0  0  0  0  0  0  0  0  0  0  0  0
  130.7040  132.8760   56.1680 C   0  0  0  0  0  0  0  0  0  0  0  0
  128.3520  132.0470   56.5750 C   0  0  0  0  0  0  0  0  0  0  0  0
  127.2770  131.7940   57.4230 C   0  0  0  0  0  0  0  0  0  0  0  0
  127.0500  130.1730   61.2970 N   0  0  0  0  0  0  0  0  0  0  0  0
  127.4100  129.8050   62.6000 N   0  0  0  0  0  0  0  0  0  0  0  0
  127.8970  128.5600   62.8270 C   0  0  0  0  0  0  0  0  0  0  0  0
  128.0450  127.6920   61.9590 O   0  0  0  0  0  0  0  0  0  0  0  0
  132.2480  125.4620   65.2870 C   0  0  0  0  0  0  0  0  0  0  0  0
  133.0430  124.6090   64.5210 C   0  0  0  0  0  0  0  0  0  0  0  0
  134.2840  125.0090   64.1590 F   0  0  0  0  0  0  0  0  0  0  0  0
  134.5258  123.8282   62.1628 H   0  0  0  0  0  0  0  0  0  0  0  0
  134.2655  122.1692   61.5250 H   0  0  0  0  0  0  0  0  0  0  0  0
  132.9150  123.3536   61.5250 H   0  0  0  0  0  0  0  0  0  0  0  0
  130.8814  121.9903   64.2107 H   0  0  0  0  0  0  0  0  0  0  0  0
  129.4685  123.5119   65.5735 H   0  0  0  0  0  0  0  0  0  0  0  0
  131.2703  127.9311   69.8744 H   0  0  0  0  0  0  0  0  0  0  0  0
  131.0422  128.4092   72.3107 H   0  0  0  0  0  0  0  0  0  0  0  0
  128.8975  127.9188   73.4746 H   0  0  0  0  0  0  0  0  0  0  0  0
  126.9774  126.9466   72.2243 H   0  0  0  0  0  0  0  0  0  0  0  0
  127.1944  126.4655   69.7893 H   0  0  0  0  0  0  0  0  0  0  0  0
  127.9226  128.2761   67.3338 H   0  0  0  0  0  0  0  0  0  0  0  0
  128.8980  126.4550   63.9539 H   0  0  0  0  0  0  0  0  0  0  0  0
  125.5977  131.0013   59.2700 H   0  0  0  0  0  0  0  0  0  0  0  0
  125.6379  132.7485   59.8243 H   0  0  0  0  0  0  0  0  0  0  0  0
  128.6273  132.8888   60.3660 H   0  0  0  0  0  0  0  0  0  0  0  0
  130.5505  133.3458   58.8460 H   0  0  0  0  0  0  0  0  0  0  0  0
  131.6002  133.0790   56.7727 H   0  0  0  0  0  0  0  0  0  0  0  0
  130.8816  131.9953   55.5333 H   0  0  0  0  0  0  0  0  0  0  0  0
  130.4849  133.7473   55.5333 H   0  0  0  0  0  0  0  0  0  0  0  0
  128.2778  131.8046   55.5046 H   0  0  0  0  0  0  0  0  0  0  0  0
  126.3533  131.3508   57.0225 H   0  0  0  0  0  0  0  0  0  0  0  0
  132.6374  126.4464   65.5859 H   0  0  0  0  0  0  0  0  0  0  0  0
  1  2  1  0
  2  3  1  0
  3  4  2  0
  4  5  1  0
  5  6  2  0
  6  7  1  0
  7  8  2  0
  8  9  1  0
  9 10  1  0
 10 11  2  0
 11 12  1  0
 12 13  2  0
 13 14  1  0
 14 15  2  0
  9 16  1  0
 16 17  2  0
 17 18  1  0
 18 19  2  0
 19 20  1  0
 20 21  1  0
 21 22  2  0
 22 23  1  0
 23 24  2  0
 23 25  1  0
 25 26  1  0
 26 27  1  0
 27 28  2  0
 28 29  1  0
 29 30  2  0
 30 31  1  0
 30 32  1  0
 32 33  2  0
 25 34  2  0
 34 35  1  0
 35 36  1  0
 36 37  2  0
  6 38  1  0
 38 39  2  0
 39 40  1  0
 39  3  1  0
 17  7  1  0
 36 19  1  0
 15 10  1  0
 35 21  1  0
 33 27  1  0
  1 41  1  0
  1 42  1  0
  1 43  1  0
  4 44  1  0
  5 45  1  0
 11 46  1  0
 12 47  1  0
 13 48  1  0
 14 49  1  0
 15 50  1  0
 16 51  1  0
 18 52  1  0
 26 53  1  0
 26 54  1  0
 28 55  1  0
 29 56  1  0
 31 57  1  0
 31 58  1  0
 31 59  1  0
 32 60  1  0
 33 61  1  0
 38 62  1  0
M  END
>  <Binding energies>  (1) 
[-9.66]

>  <Ligand effiencies>  (1) 
[-0.2415]

>  <Interactions>  (1) 
["V-A:PRO:540:CA:4883, V-A:PRO:540:N:4884, V-A:TYR:539:C:4867, V-A:MET:535:CE:4835, V-A:ILE:369:CD1:3239, V-B:GLU:543:CG:9879, V-A:LEU:475:CD2:4259, V-A:TYR:484:CZ:4347, V-A:GLY:453:CA:4044, V-B:GLU:543:CB:9878, H-A:TYR:484:OH:4348, V-A:GLU:543:CD:4908, V-A:TYR:484:CE2:4346, V-A:GLY:454:CA:4049, V-A:ARG:545:CZ:4926, V-B:GLU:543:CD:9880, V-B:HIS:456:CE1:9041, V-A:GLY:544:C:4912, V-B:GLY:544:C:9884, V-B:GLU:543:C:9874, V-B:HIS:456:CD2:9039, V-A:HIS:456:CE1:4070, V-A:GLU:543:CG:4907, H-B:TYR:484:OH:9319, V-A:TYR:539:CE1:4875, V-A:TYR:539:CZ:4877, H-A:GLY:454:N:4050, V-A:GLY:453:C:4042, V-A:TYR:539:CD1:4873, V-A:ILE:538:CA:4860, V-A:ILE:538:CG2:4863, V-A:ILE:538:CB:4862"]

$$$$
RR22_Rahimova_2017
     RDKit          3D

 49 54  0  0  0  0  0  0  0  0999 V2000
  134.0020  124.2500   57.5450 O   0  0  0  0  0  0  0  0  0  0  0  0
  133.1830  124.9580   58.1270 C   0  0  0  0  0  0  0  0  0  0  0  0
  132.5900  126.1190   57.6630 N   0  0  0  0  0  0  0  0  0  0  0  0
  131.6020  126.7960   58.4470 C   0  0  1  0  0  0  0  0  0  0  0  0
  132.0910  128.1330   58.5930 O   0  0  0  0  0  0  0  0  0  0  0  0
  131.3080  129.1820   58.1100 C   0  0  0  0  0  0  0  0  0  0  0  0
  131.9510  130.4060   57.9290 C   0  0  0  0  0  0  0  0  0  0  0  0
  131.2250  131.5120   57.4880 C   0  0  0  0  0  0  0  0  0  0  0  0
  129.8570  131.3940   57.2360 C   0  0  0  0  0  0  0  0  0  0  0  0
  129.2130  130.1690   57.4180 C   0  0  0  0  0  0  0  0  0  0  0  0
  129.9340  129.0460   57.8360 C   0  0  0  0  0  0  0  0  0  0  0  0
  129.3230  127.6890   58.1040 C   0  0  1  0  0  0  0  0  0  0  0  0
  128.1280  127.1670   57.3320 C   0  0  0  0  0  0  0  0  0  0  0  0
  128.4170  125.6640   57.3880 C   0  0  0  0  0  0  0  0  0  0  0  0
  127.3830  124.6420   57.1270 C   0  0  0  0  0  0  0  0  0  0  0  0
  127.7370  123.3800   56.6290 C   0  0  0  0  0  0  0  0  0  0  0  0
  126.7590  122.4200   56.3860 C   0  0  0  0  0  0  0  0  0  0  0  0
  125.4220  122.7150   56.6390 C   0  0  0  0  0  0  0  0  0  0  0  0
  125.0540  123.9640   57.1340 C   0  0  0  0  0  0  0  0  0  0  0  0
  126.0310  124.9240   57.3790 C   0  0  0  0  0  0  0  0  0  0  0  0
  129.6470  125.4400   57.6590 N   0  0  0  0  0  0  0  0  0  0  0  0
  130.2920  126.6810   57.7910 N   0  0  0  0  0  0  0  0  0  0  0  0
  131.6300  126.1570   59.8280 C   0  0  0  0  0  0  0  0  0  0  0  0
  131.0910  126.7440   60.9220 C   0  0  0  0  0  0  0  0  0  0  0  0
  131.0310  126.2310   62.3050 C   0  0  0  0  0  0  0  0  0  0  0  0
  129.9120  126.3920   63.1350 C   0  0  0  0  0  0  0  0  0  0  0  0
  129.9280  125.8800   64.4330 C   0  0  0  0  0  0  0  0  0  0  0  0
  131.0740  125.2190   64.8740 C   0  0  0  0  0  0  0  0  0  0  0  0
  132.1730  125.0550   64.0970 N   0  0  0  0  0  0  0  0  0  0  0  0
  132.1380  125.5600   62.8360 C   0  0  0  0  0  0  0  0  0  0  0  0
  132.5350  124.6360   59.7950 S   0  0  0  0  0  0  0  0  0  0  0  0
  132.8740  126.5310   56.7870 H   0  0  0  0  0  0  0  0  0  0  0  0
  133.0278  130.4989   58.1335 H   0  0  0  0  0  0  0  0  0  0  0  0
  131.7304  132.4776   57.3387 H   0  0  0  0  0  0  0  0  0  0  0  0
  129.2850  132.2688   56.8931 H   0  0  0  0  0  0  0  0  0  0  0  0
  128.1321  130.0865   57.2315 H   0  0  0  0  0  0  0  0  0  0  0  0
  128.9896  127.8610   59.1381 H   0  0  0  0  0  0  0  0  0  0  0  0
  127.1789  127.4197   57.8274 H   0  0  0  0  0  0  0  0  0  0  0  0
  128.0117  127.5808   56.3194 H   0  0  0  0  0  0  0  0  0  0  0  0
  128.7934  123.1474   56.4293 H   0  0  0  0  0  0  0  0  0  0  0  0
  127.0415  121.4313   55.9953 H   0  0  0  0  0  0  0  0  0  0  0  0
  124.6499  121.9555   56.4464 H   0  0  0  0  0  0  0  0  0  0  0  0
  123.9956  124.1904   57.3304 H   0  0  0  0  0  0  0  0  0  0  0  0
  125.7423  125.9098   57.7725 H   0  0  0  0  0  0  0  0  0  0  0  0
  130.6382  127.7332   60.7593 H   0  0  0  0  0  0  0  0  0  0  0  0
  129.0224  126.9215   62.7631 H   0  0  0  0  0  0  0  0  0  0  0  0
  129.0561  125.9952   65.0936 H   0  0  0  0  0  0  0  0  0  0  0  0
  131.0869  124.8132   65.8963 H   0  0  0  0  0  0  0  0  0  0  0  0
  133.0263  125.4347   62.1994 H   0  0  0  0  0  0  0  0  0  0  0  0
  1  2  2  0
  2  3  1  0
  3  4  1  0
  4  5  1  1
  5  6  1  0
  6  7  2  0
  7  8  1  0
  8  9  2  0
  9 10  1  0
 10 11  2  0
 11 12  1  0
 12 13  1  0
 13 14  1  0
 14 15  1  0
 15 16  2  0
 16 17  1  0
 17 18  2  0
 18 19  1  0
 19 20  2  0
 14 21  2  0
 21 22  1  0
  4 23  1  0
 23 24  2  0
 24 25  1  0
 25 26  2  0
 26 27  1  0
 27 28  2  0
 28 29  1  0
 29 30  2  0
 23 31  1  0
 31  2  1  0
 22  4  1  0
 30 25  1  0
 11  6  1  0
 22 12  1  0
 20 15  1  0
  3 32  1  0
  7 33  1  0
  8 34  1  0
  9 35  1  0
 10 36  1  0
 12 37  1  1
 13 38  1  0
 13 39  1  0
 16 40  1  0
 17 41  1  0
 18 42  1  0
 19 43  1  0
 20 44  1  0
 24 45  1  0
 26 46  1  0
 27 47  1  0
 28 48  1  0
 30 49  1  0
M  END
>  <Binding energies>  (1) 
[-9.39]

>  <Ligand effiencies>  (1) 
[-0.2934375]

>  <Interactions>  (1) 
["V-A:ASP:366:CG:3213, H-A:TYR:531:OH:4795, H-B:TYR:539:OH:9850, V-A:ASP:366:CB:3212, V-B:TYR:539:CZ:9849, V-B:PRO:540:N:9856, V-B:TYR:539:CE1:9847, V-B:PRO:540:CB:9857, V-B:TYR:539:CD1:9845, V-B:TYR:539:CE2:9848, V-B:PRO:540:CD:9859, V-B:MET:535:CE:9807, V-B:LEU:363:CD1:8160, V-B:TYR:539:C:9839, V-A:MET:535:CE:4835, V-B:TYR:531:CE2:9765, V-A:ASP:366:C:3208, V-A:ASP:366:CA:3210, V-B:GLU:543:CG:9879, H-A:ASN:370:N:3244, H-A:ASP:366:O:3209, V-A:GLU:543:CD:4908, V-A:ARG:545:CZ:4926, V-B:GLU:543:CD:9880, V-A:TYR:531:CZ:4794, H-A:ARG:545:NH2:4928"]

$$$$
RR23_Rahimova_2017
     RDKit          3D

 65 70  0  0  0  0  0  0  0  0999 V2000
  127.1570  128.3780   74.7330 C   0  0  0  0  0  0  0  0  0  0  0  0
  127.9420  128.2010   73.4450 C   0  0  0  0  0  0  0  0  0  0  0  0
  127.4400  127.3880   72.4280 C   0  0  0  0  0  0  0  0  0  0  0  0
  128.1560  127.2340   71.2440 C   0  0  0  0  0  0  0  0  0  0  0  0
  129.3840  127.8820   71.0720 C   0  0  0  0  0  0  0  0  0  0  0  0
  130.1360  127.7190   69.7700 C   0  0  0  0  0  0  0  0  0  0  0  0
  131.3680  127.7070   69.8200 O   0  0  0  0  0  0  0  0  0  0  0  0
  129.4370  127.5760   68.6050 N   0  0  0  0  0  0  0  0  0  0  0  0
  128.5380  128.6320   68.1120 C   0  0  0  0  0  0  0  0  0  0  0  0
  128.0620  128.1820   66.7410 C   0  0  0  0  0  0  0  0  0  0  0  0
  129.0220  127.0840   66.3980 C   0  0  0  0  0  0  0  0  0  0  0  0
  129.1330  126.3510   65.2160 C   0  0  0  0  0  0  0  0  0  0  0  0
  129.9960  125.2470   65.1440 C   0  0  0  0  0  0  0  0  0  0  0  0
  130.1480  124.4130   63.8630 C   0  0  2  0  0  0  0  0  0  0  0  0
  129.1860  124.7880   62.8500 N   0  0  0  0  0  0  0  0  0  0  0  0
  128.8460  123.7970   62.1280 C   0  0  0  0  0  0  0  0  0  0  0  0
  127.9500  123.7710   61.1050 N   0  0  0  0  0  0  0  0  0  0  0  0
  127.1070  124.7520   60.7000 C   0  0  0  0  0  0  0  0  0  0  0  0
  127.0390  125.8830   61.1850 O   0  0  0  0  0  0  0  0  0  0  0  0
  126.1690  124.3810   59.5400 C   0  0  0  0  0  0  0  0  0  0  0  0
  126.9050  124.5090   58.2620 N   0  0  0  0  0  0  0  0  0  0  0  0
  127.3460  123.3150   57.7050 N   0  0  0  0  0  0  0  0  0  0  0  0
  128.0030  123.2900   56.5900 N   0  0  0  0  0  0  0  0  0  0  0  0
  128.2790  124.4850   55.9210 C   0  0  0  0  0  0  0  0  0  0  0  0
  128.9920  124.4240   54.7210 C   0  0  0  0  0  0  0  0  0  0  0  0
  129.2840  125.6010   54.0290 C   0  0  0  0  0  0  0  0  0  0  0  0
  128.8670  126.8340   54.5340 C   0  0  0  0  0  0  0  0  0  0  0  0
  128.1550  126.8970   55.7330 C   0  0  0  0  0  0  0  0  0  0  0  0
  127.8610  125.7170   56.4260 C   0  0  0  0  0  0  0  0  0  0  0  0
  127.0950  125.7640   57.7280 C   0  0  0  0  0  0  0  0  0  0  0  0
  126.6980  126.8080   58.2530 O   0  0  0  0  0  0  0  0  0  0  0  0
  129.6170  122.2260   62.4960 S   0  0  0  0  0  0  0  0  0  0  0  0
  130.1300  122.8840   64.0920 C   0  0  2  0  0  0  0  0  0  0  0  0
  129.1730  122.3590   65.1830 C   0  0  0  0  0  0  0  0  0  0  0  0
  130.7030  124.8670   66.2910 C   0  0  0  0  0  0  0  0  0  0  0  0
  130.5760  125.5870   67.4800 C   0  0  0  0  0  0  0  0  0  0  0  0
  129.7750  126.7360   67.5200 C   0  0  0  0  0  0  0  0  0  0  0  0
  129.8680  128.7200   72.0860 C   0  0  0  0  0  0  0  0  0  0  0  0
  129.1520  128.8740   73.2700 C   0  0  0  0  0  0  0  0  0  0  0  0
  127.8255  128.2273   75.5935 H   0  0  0  0  0  0  0  0  0  0  0  0
  126.7360  129.3936   74.7692 H   0  0  0  0  0  0  0  0  0  0  0  0
  126.3409  127.6413   74.7692 H   0  0  0  0  0  0  0  0  0  0  0  0
  126.4793  126.8692   72.5617 H   0  0  0  0  0  0  0  0  0  0  0  0
  127.7543  126.5999   70.4399 H   0  0  0  0  0  0  0  0  0  0  0  0
  127.6817  128.7513   68.7921 H   0  0  0  0  0  0  0  0  0  0  0  0
  129.0535  129.6022   68.0574 H   0  0  0  0  0  0  0  0  0  0  0  0
  127.0293  127.8057   66.7843 H   0  0  0  0  0  0  0  0  0  0  0  0
  128.0462  128.9934   65.9984 H   0  0  0  0  0  0  0  0  0  0  0  0
  128.5405  126.6403   64.3355 H   0  0  0  0  0  0  0  0  0  0  0  0
  131.1564  124.6557   63.4968 H   0  0  0  0  0  0  0  0  0  0  0  0
  127.8680  122.8950   60.6110 H   0  0  0  0  0  0  0  0  0  0  0  0
  125.8228  123.3442   59.6634 H   0  0  0  0  0  0  0  0  0  0  0  0
  125.2998  125.0551   59.5362 H   0  0  0  0  0  0  0  0  0  0  0  0
  129.3219  123.4530   54.3232 H   0  0  0  0  0  0  0  0  0  0  0  0
  129.8441  125.5567   53.0833 H   0  0  0  0  0  0  0  0  0  0  0  0
  129.1002  127.7585   53.9854 H   0  0  0  0  0  0  0  0  0  0  0  0
  127.8268  127.8685   56.1310 H   0  0  0  0  0  0  0  0  0  0  0  0
  131.1199  122.5700   64.4548 H   0  0  0  0  0  0  0  0  0  0  0  0
  129.5884  122.5869   66.1757 H   0  0  0  0  0  0  0  0  0  0  0  0
  128.1923  122.8454   65.0754 H   0  0  0  0  0  0  0  0  0  0  0  0
  129.0562  121.2705   65.0754 H   0  0  0  0  0  0  0  0  0  0  0  0
  131.3666  123.9905   66.2548 H   0  0  0  0  0  0  0  0  0  0  0  0
  131.1044  125.2526   68.3850 H   0  0  0  0  0  0  0  0  0  0  0  0
  130.8171  129.2580   71.9457 H   0  0  0  0  0  0  0  0  0  0  0  0
  129.5397  129.5256   74.0669 H   0  0  0  0  0  0  0  0  0  0  0  0
  1  2  1  0
  2  3  2  0
  3  4  1  0
  4  5  2  0
  5  6  1  0
  6  7  2  0
  6  8  1  0
  8  9  1  0
  9 10  1  0
 10 11  1  0
 11 12  2  0
 12 13  1  0
 13 14  1  0
 14 15  1  0
 15 16  2  0
 16 17  1  0
 17 18  1  0
 18 19  2  0
 18 20  1  0
 20 21  1  0
 21 22  1  0
 22 23  2  0
 23 24  1  0
 24 25  2  0
 25 26  1  0
 26 27  2  0
 27 28  1  0
 28 29  2  0
 29 30  1  0
 30 31  2  0
 16 32  1  0
 32 33  1  0
 33 34  1  0
 13 35  2  0
 35 36  1  0
 36 37  2  0
  5 38  1  0
 38 39  2  0
 39  2  1  0
 37  8  1  0
 37 11  1  0
 33 14  1  0
 30 21  1  0
 29 24  1  0
  1 40  1  0
  1 41  1  0
  1 42  1  0
  3 43  1  0
  4 44  1  0
  9 45  1  0
  9 46  1  0
 10 47  1  0
 10 48  1  0
 12 49  1  0
 14 50  1  6
 17 51  1  0
 20 52  1  0
 20 53  1  0
 25 54  1  0
 26 55  1  0
 27 56  1  0
 28 57  1  0
 33 58  1  1
 34 59  1  0
 34 60  1  0
 34 61  1  0
 35 62  1  0
 36 63  1  0
 38 64  1  0
 39 65  1  0
M  END
>  <Binding energies>  (1) 
[-9.68]

>  <Ligand effiencies>  (1) 
[-0.242]

>  <Interactions>  (1) 
["H-B:TYR:539:OH:9850, V-B:TYR:539:CZ:9849, V-B:TYR:539:CE1:9847, V-B:PRO:540:CB:9857, H-B:TYR:531:OH:9767, V-A:MET:535:CE:4835, V-B:MET:535:CG:9805, V-B:ALA:541:CB:9864, V-B:GLU:543:CG:9879, V-A:LEU:475:CD2:4259, V-A:TYR:484:CZ:4347, V-B:GLU:543:CB:9878, V-A:GLU:543:CD:4908, V-A:TYR:484:CE2:4346, V-B:GLU:543:CD:9880, V-B:HIS:456:CE1:9041, V-A:GLY:544:C:4912, V-B:GLY:544:C:9884, V-B:HIS:456:CD2:9039, V-B:LYS:547:CE:9922, V-A:HIS:456:CE1:4070, V-A:GLU:543:CG:4907, V-A:GLU:543:C:4902, V-A:GLU:543:CB:4906, V-B:HIS:456:CG:9037, H-A:HIS:456:ND1:4067, H-A:ARG:545:N:4920, V-B:GLU:543:CA:9876"]

$$$$
RR24_Rahimova_2017
     RDKit          3D

 65 71  0  0  0  0  0  0  0  0999 V2000
  124.6430  123.8760   57.9770 C   0  0  0  0  0  0  0  0  0  0  0  0
  125.7950  123.8610   56.9630 C   0  0  2  0  0  0  0  0  0  0  0  0
  126.6930  122.5940   57.0720 C   0  0  0  0  0  0  0  0  0  0  0  0
  126.9740  121.9020   56.0880 O   0  0  0  0  0  0  0  0  0  0  0  0
  127.0900  122.3430   58.3550 O   0  0  0  0  0  0  0  0  0  0  0  0
  127.7540  123.3190   59.0630 C   0  0  0  0  0  0  0  0  0  0  0  0
  127.1970  123.8030   60.2490 C   0  0  0  0  0  0  0  0  0  0  0  0
  127.8650  124.7820   60.9790 C   0  0  0  0  0  0  0  0  0  0  0  0
  129.0940  125.2750   60.5320 C   0  0  0  0  0  0  0  0  0  0  0  0
  129.8150  126.3670   61.3310 C   0  0  1  0  0  0  0  0  0  0  0  0
  128.8340  127.1960   62.1930 C   0  0  0  0  0  0  0  0  0  0  0  0
  129.0280  127.4170   63.5070 C   0  0  0  0  0  0  0  0  0  0  0  0
  130.1150  126.9190   64.1810 N   0  0  0  0  0  0  0  0  0  0  0  0
  131.0680  126.1620   63.5400 C   0  0  0  0  0  0  0  0  0  0  0  0
  132.0830  125.7550   64.3450 N   0  0  0  0  0  0  0  0  0  0  0  0
  133.0750  124.9330   63.9060 C   0  0  0  0  0  0  0  0  0  0  0  0
  133.7770  124.3440   64.7300 O   0  0  0  0  0  0  0  0  0  0  0  0
  133.0710  124.7240   62.5360 N   0  0  0  0  0  0  0  0  0  0  0  0
  134.1810  123.9120   61.9950 C   0  0  0  0  0  0  0  0  0  0  0  0
  132.0920  125.0900   61.6280 C   0  0  0  0  0  0  0  0  0  0  0  0
  132.1300  124.8240   60.4230 O   0  0  0  0  0  0  0  0  0  0  0  0
  130.9910  125.8590   62.2180 C   0  0  0  0  0  0  0  0  0  0  0  0
  127.9520  128.2230   64.0590 C   0  0  0  0  0  0  0  0  0  0  0  0
  127.6900  128.7100   65.3400 C   0  0  0  0  0  0  0  0  0  0  0  0
  126.5400  129.4750   65.5570 C   0  0  0  0  0  0  0  0  0  0  0  0
  125.6670  129.7480   64.5000 C   0  0  0  0  0  0  0  0  0  0  0  0
  125.9350  129.2570   63.2190 C   0  0  0  0  0  0  0  0  0  0  0  0
  127.0840  128.4920   63.0090 C   0  0  0  0  0  0  0  0  0  0  0  0
  127.6040  127.8610   61.7780 C   0  0  0  0  0  0  0  0  0  0  0  0
  127.1440  127.8640   60.6370 O   0  0  0  0  0  0  0  0  0  0  0  0
  129.6590  124.7740   59.3540 C   0  0  0  0  0  0  0  0  0  0  0  0
  128.9930  123.7940   58.6250 C   0  0  0  0  0  0  0  0  0  0  0  0
  126.5890  125.1250   56.9970 N   0  0  0  0  0  0  0  0  0  0  0  0
  126.2070  126.1870   57.7610 C   0  0  0  0  0  0  0  0  0  0  0  0
  125.2120  126.2690   58.4840 O   0  0  0  0  0  0  0  0  0  0  0  0
  127.2420  127.2270   57.5370 C   0  0  0  0  0  0  0  0  0  0  0  0
  127.3670  128.5170   58.0550 C   0  0  0  0  0  0  0  0  0  0  0  0
  128.4670  129.2900   57.6660 C   0  0  0  0  0  0  0  0  0  0  0  0
  129.4170  128.7700   56.7780 C   0  0  0  0  0  0  0  0  0  0  0  0
  129.2730  127.4750   56.2700 C   0  0  0  0  0  0  0  0  0  0  0  0
  128.1690  126.7200   56.6680 C   0  0  0  0  0  0  0  0  0  0  0  0
  127.7530  125.3410   56.3110 C   0  0  0  0  0  0  0  0  0  0  0  0
  128.3360  124.5570   55.5610 O   0  0  0  0  0  0  0  0  0  0  0  0
  125.0529  123.8707   58.9978 H   0  0  0  0  0  0  0  0  0  0  0  0
  124.0369  124.7821   57.8300 H   0  0  0  0  0  0  0  0  0  0  0  0
  124.0135  122.9860   57.8300 H   0  0  0  0  0  0  0  0  0  0  0  0
  125.3235  123.8050   55.9707 H   0  0  0  0  0  0  0  0  0  0  0  0
  126.2328  123.4114   60.6053 H   0  0  0  0  0  0  0  0  0  0  0  0
  127.4245  125.1685   61.9099 H   0  0  0  0  0  0  0  0  0  0  0  0
  130.2618  127.0088   60.5575 H   0  0  0  0  0  0  0  0  0  0  0  0
  130.2230  127.1130   65.1670 H   0  0  0  0  0  0  0  0  0  0  0  0
  132.1170  126.0330   65.3150 H   0  0  0  0  0  0  0  0  0  0  0  0
  134.7628  123.4864   62.8259 H   0  0  0  0  0  0  0  0  0  0  0  0
  133.7729  123.0977   61.3782 H   0  0  0  0  0  0  0  0  0  0  0  0
  134.8335  124.5475   61.3782 H   0  0  0  0  0  0  0  0  0  0  0  0
  128.3799  128.4947   66.1692 H   0  0  0  0  0  0  0  0  0  0  0  0
  126.3215  129.8633   66.5627 H   0  0  0  0  0  0  0  0  0  0  0  0
  124.7649  130.3520   64.6771 H   0  0  0  0  0  0  0  0  0  0  0  0
  125.2488  129.4708   62.3862 H   0  0  0  0  0  0  0  0  0  0  0  0
  130.6298  125.1551   59.0043 H   0  0  0  0  0  0  0  0  0  0  0  0
  129.4416  123.3932   57.7041 H   0  0  0  0  0  0  0  0  0  0  0  0
  126.6175  128.9173   58.7536 H   0  0  0  0  0  0  0  0  0  0  0  0
  128.5859  130.3103   58.0594 H   0  0  0  0  0  0  0  0  0  0  0  0
  130.2801  129.3828   56.4788 H   0  0  0  0  0  0  0  0  0  0  0  0
  130.0145  127.0602   55.5713 H   0  0  0  0  0  0  0  0  0  0  0  0
  1  2  1  0
  2  3  1  0
  3  4  2  0
  3  5  1  0
  5  6  1  0
  6  7  2  0
  7  8  1  0
  8  9  2  0
  9 10  1  0
 10 11  1  0
 11 12  2  0
 12 13  1  0
 13 14  1  0
 14 15  1  0
 15 16  1  0
 16 17  2  0
 16 18  1  0
 18 19  1  0
 18 20  1  0
 20 21  2  0
 20 22  1  0
 12 23  1  0
 23 24  2  0
 24 25  1  0
 25 26  2  0
 26 27  1  0
 27 28  2  0
 28 29  1  0
 29 30  2  0
  9 31  1  0
 31 32  2  0
  2 33  1  0
 33 34  1  0
 34 35  2  0
 34 36  1  0
 36 37  2  0
 37 38  1  0
 38 39  2  0
 39 40  1  0
 40 41  2  0
 41 42  1  0
 42 43  2  0
 32  6  1  0
 42 33  1  0
 22 10  1  0
 28 23  1  0
 41 36  1  0
 29 11  1  0
 22 14  2  0
  1 44  1  0
  1 45  1  0
  1 46  1  0
  2 47  1  6
  7 48  1  0
  8 49  1  0
 10 50  1  6
 13 51  1  0
 15 52  1  0
 19 53  1  0
 19 54  1  0
 19 55  1  0
 24 56  1  0
 25 57  1  0
 26 58  1  0
 27 59  1  0
 31 60  1  0
 32 61  1  0
 37 62  1  0
 38 63  1  0
 39 64  1  0
 40 65  1  0
M  END
>  <Binding energies>  (1) 
[-9.5]

>  <Ligand effiencies>  (1) 
[-0.2111111111111111]

>  <Interactions>  (1) 
["H-B:TYR:539:OH:9850, V-B:TYR:539:CZ:9849, V-B:PRO:540:N:9856, V-B:PRO:540:CB:9857, V-B:PRO:540:CA:9855, V-B:TYR:539:CE2:9848, H-B:TYR:539:N:9842, H-B:TYR:531:OH:9767, V-B:PRO:540:CD:9859, V-B:MET:535:CE:9807, V-B:LEU:363:CD1:8160, V-B:TYR:539:C:9839, V-B:TYR:531:CZ:9766, V-B:TYR:539:CD2:9846, V-A:MET:535:CE:4835, V-A:ILE:369:CD1:3239, H-A:TYR:484:OH:4348, V-A:GLU:543:CD:4908, V-A:ARG:545:CZ:4926, V-B:GLU:543:CD:9880, H-A:GLU:543:OE1:4909, H-A:GLU:543:OE2:4910, V-B:TYR:484:CZ:9318, H-A:GLY:454:N:4050, V-B:ARG:545:CZ:9898"]

$$$$
RR24_Rahimova_2017-again1
     RDKit          3D

 63 69  0  0  0  0  0  0  0  0999 V2000
  125.0110  133.2810   64.4230 C   0  0  0  0  0  0  0  0  0  0  0  0
  125.0310  132.4960   63.1050 C   0  0  2  0  0  0  0  0  0  0  0  0
  124.2840  131.1320   63.1870 C   0  0  0  0  0  0  0  0  0  0  0  0
  124.2780  130.4500   64.2180 O   0  0  0  0  0  0  0  0  0  0  0  0
  123.6830  130.7900   62.0090 O   0  0  0  0  0  0  0  0  0  0  0  0
  124.4450  130.3000   60.9740 C   0  0  0  0  0  0  0  0  0  0  0  0
  124.1760  130.7110   59.6670 C   0  0  0  0  0  0  0  0  0  0  0  0
  124.9550  130.2350   58.6160 C   0  0  0  0  0  0  0  0  0  0  0  0
  126.0100  129.3520   58.8670 C   0  0  0  0  0  0  0  0  0  0  0  0
  126.8720  128.8240   57.7110 C   0  0  1  0  0  0  0  0  0  0  0  0
  128.0440  129.7830   57.3990 C   0  0  0  0  0  0  0  0  0  0  0  0
  128.0800  131.0570   56.9480 C   0  0  0  0  0  0  0  0  0  0  0  0
  127.0450  131.7590   56.6320 O   0  0  0  0  0  0  0  0  0  0  0  0
  129.4610  131.5380   56.8960 C   0  0  0  0  0  0  0  0  0  0  0  0
  130.0200  132.7650   56.5190 C   0  0  0  0  0  0  0  0  0  0  0  0
  131.4040  132.9390   56.5800 C   0  0  0  0  0  0  0  0  0  0  0  0
  132.2230  131.8950   57.0120 C   0  0  0  0  0  0  0  0  0  0  0  0
  131.6600  130.6720   57.3850 C   0  0  0  0  0  0  0  0  0  0  0  0
  130.2750  130.5010   57.3270 C   0  0  0  0  0  0  0  0  0  0  0  0
  129.4180  129.3680   57.6260 C   0  0  0  0  0  0  0  0  0  0  0  0
  129.7220  128.1850   58.0110 N   0  0  0  0  0  0  0  0  0  0  0  0
  128.7810  127.2060   58.1260 C   0  0  0  0  0  0  0  0  0  0  0  0
  129.3160  125.9780   58.3890 N   0  0  0  0  0  0  0  0  0  0  0  0
  128.5330  124.9680   58.5380 C   0  0  0  0  0  0  0  0  0  0  0  0
  129.1280  123.9050   58.7780 O   0  0  0  0  0  0  0  0  0  0  0  0
  127.1470  125.0770   58.4330 N   0  0  0  0  0  0  0  0  0  0  0  0
  126.2200  123.9330   58.6010 C   0  0  0  0  0  0  0  0  0  0  0  0
  126.5200  126.2750   58.1520 C   0  0  0  0  0  0  0  0  0  0  0  0
  125.2980  126.4100   58.0270 O   0  0  0  0  0  0  0  0  0  0  0  0
  127.4330  127.4120   58.0000 C   0  0  0  0  0  0  0  0  0  0  0  0
  126.2840  128.9520   60.1780 C   0  0  0  0  0  0  0  0  0  0  0  0
  125.5070  129.4290   61.2300 C   0  0  0  0  0  0  0  0  0  0  0  0
  126.4130  132.3530   62.5590 N   0  0  0  0  0  0  0  0  0  0  0  0
  126.6990  132.6380   61.2580 C   0  0  0  0  0  0  0  0  0  0  0  0
  125.9180  133.0270   60.3870 O   0  0  0  0  0  0  0  0  0  0  0  0
  128.1530  132.3800   61.1080 C   0  0  0  0  0  0  0  0  0  0  0  0
  128.9920  132.4960   59.9980 C   0  0  0  0  0  0  0  0  0  0  0  0
  130.3470  132.1800   60.1480 C   0  0  0  0  0  0  0  0  0  0  0  0
  130.8420  131.7590   61.3890 C   0  0  0  0  0  0  0  0  0  0  0  0
  129.9840  131.6500   62.4900 C   0  0  0  0  0  0  0  0  0  0  0  0
  128.6360  131.9680   62.3190 C   0  0  0  0  0  0  0  0  0  0  0  0
  127.5050  131.9530   63.2800 C   0  0  0  0  0  0  0  0  0  0  0  0
  127.5430  131.6470   64.4730 O   0  0  0  0  0  0  0  0  0  0  0  0
  125.0289  132.5780   65.2688 H   0  0  0  0  0  0  0  0  0  0  0  0
  125.8927  133.9368   64.4726 H   0  0  0  0  0  0  0  0  0  0  0  0
  124.0970  133.8911   64.4726 H   0  0  0  0  0  0  0  0  0  0  0  0
  124.4605  133.1020   62.3857 H   0  0  0  0  0  0  0  0  0  0  0  0
  123.3500  131.4097   59.4681 H   0  0  0  0  0  0  0  0  0  0  0  0
  124.7402  130.5542   57.5855 H   0  0  0  0  0  0  0  0  0  0  0  0
  126.2084  128.7634   56.8358 H   0  0  0  0  0  0  0  0  0  0  0  0
  129.3732  133.5864   56.1770 H   0  0  0  0  0  0  0  0  0  0  0  0
  131.8497  133.9010   56.2869 H   0  0  0  0  0  0  0  0  0  0  0  0
  133.3130  132.0351   57.0589 H   0  0  0  0  0  0  0  0  0  0  0  0
  132.3047  129.8473   57.7229 H   0  0  0  0  0  0  0  0  0  0  0  0
  126.0647  123.7413   59.6730 H   0  0  0  0  0  0  0  0  0  0  0  0
  125.2558  124.1697   58.1274 H   0  0  0  0  0  0  0  0  0  0  0  0
  126.6514  123.0388   58.1274 H   0  0  0  0  0  0  0  0  0  0  0  0
  127.1147  128.2594   60.3787 H   0  0  0  0  0  0  0  0  0  0  0  0
  125.7290  129.1203   62.2622 H   0  0  0  0  0  0  0  0  0  0  0  0
  128.5966  132.8285   59.0269 H   0  0  0  0  0  0  0  0  0  0  0  0
  131.0268  132.2626   59.2871 H   0  0  0  0  0  0  0  0  0  0  0  0
  131.9085  131.5132   61.4989 H   0  0  0  0  0  0  0  0  0  0  0  0
  130.3641  131.3209   63.4684 H   0  0  0  0  0  0  0  0  0  0  0  0
  1  2  1  0
  2  3  1  0
  3  4  2  0
  3  5  1  0
  5  6  1  0
  6  7  2  0
  7  8  1  0
  8  9  2  0
  9 10  1  0
 10 11  1  0
 11 12  2  0
 12 13  1  0
 12 14  1  0
 14 15  2  0
 15 16  1  0
 16 17  2  0
 17 18  1  0
 18 19  2  0
 19 20  1  0
 20 21  2  0
 21 22  1  0
 22 23  1  0
 23 24  2  0
 24 25  1  0
 24 26  1  0
 26 27  1  0
 26 28  1  0
 28 29  2  0
 28 30  1  0
  9 31  1  0
 31 32  2  0
  2 33  1  0
 33 34  1  0
 34 35  2  0
 34 36  1  0
 36 37  2  0
 37 38  1  0
 38 39  2  0
 39 40  1  0
 40 41  2  0
 41 42  1  0
 42 43  2  0
 32  6  1  0
 42 33  1  0
 30 10  1  0
 41 36  1  0
 20 11  1  0
 30 22  2  0
 19 14  1  0
  1 44  1  0
  1 45  1  0
  1 46  1  0
  2 47  1  6
  7 48  1  0
  8 49  1  0
 10 50  1  6
 15 51  1  0
 16 52  1  0
 17 53  1  0
 18 54  1  0
 27 55  1  0
 27 56  1  0
 27 57  1  0
 31 58  1  0
 32 59  1  0
 37 60  1  0
 38 61  1  0
 39 62  1  0
 40 63  1  0
M  CHG  2  13  -1  25  -1
M  END
>  <Binding energies>  (1) 
[-7.96]

>  <Ligand effiencies>  (1) 
[-0.18511627906976744]

>  <Interactions>  (1) 
["V-A:LEU:363:CD1:3189, H-A:TYR:531:OH:4795, V-A:PRO:540:CA:4883, V-A:PRO:540:CB:4885, V-A:PRO:540:CD:4887, V-A:PRO:540:N:4884, V-B:PRO:540:CB:9857, V-B:PRO:540:CA:9855, V-B:ASP:366:CB:8183, H-B:TYR:531:OH:9767, V-B:ASP:366:CG:8184, V-A:MET:535:CE:4835, V-A:GLU:543:CD:4908, V-A:GLU:543:CG:4907, V-A:TYR:531:CZ:4794, V-B:TYR:484:CZ:9318, H-B:TYR:484:OH:9319, H-A:TYR:539:OH:4878, V-B:ASP:366:CA:8181, V-A:ILE:538:CA:4860, V-A:TYR:531:CE2:4793, V-A:ILE:538:CG2:4863, V-A:ILE:538:CB:4862, V-B:LEU:475:CD2:9230, V-B:GLY:454:CA:9020, H-B:GLY:454:N:9021, V-B:LEU:475:CB:9227"]

$$$$
RR25_Rahimova_2017
     RDKit          3D

 63 68  0  0  0  0  0  0  0  0999 V2000
  130.5720  124.6500   65.6100 O   0  0  0  0  0  0  0  0  0  0  0  0
  130.7720  125.0800   64.4740 C   0  0  0  0  0  0  0  0  0  0  0  0
  131.8810  124.5930   63.8280 O   0  0  0  0  0  0  0  0  0  0  0  0
  132.0780  124.8010   62.4750 C   0  0  0  0  0  0  0  0  0  0  0  0
  132.8640  123.8660   61.8040 C   0  0  0  0  0  0  0  0  0  0  0  0
  133.1100  124.0180   60.4410 C   0  0  0  0  0  0  0  0  0  0  0  0
  132.5800  125.1060   59.7320 C   0  0  0  0  0  0  0  0  0  0  0  0
  132.8360  125.2620   58.2790 N   0  0  0  0  0  0  0  0  0  0  0  0
  133.6490  124.5130   57.7420 O   0  0  0  0  0  0  0  0  0  0  0  0
  132.2280  126.1340   57.6660 O   0  0  0  0  0  0  0  0  0  0  0  0
  131.8000  126.0440   60.4290 C   0  0  0  0  0  0  0  0  0  0  0  0
  131.5500  125.9100   61.7980 C   0  0  0  0  0  0  0  0  0  0  0  0
  130.7060  126.8890   62.5920 C   0  0  0  0  0  0  0  0  0  0  0  0
  129.9210  126.1270   63.6980 C   0  0  2  0  0  0  0  0  0  0  0  0
  129.1200  127.1130   64.5970 C   0  0  0  0  0  0  0  0  0  0  0  0
  129.1860  126.9130   65.8130 O   0  0  0  0  0  0  0  0  0  0  0  0
  128.4840  128.2100   64.0870 N   0  0  0  0  0  0  0  0  0  0  0  0
  128.1110  128.3290   62.6610 C   0  0  0  0  0  0  0  0  0  0  0  0
  128.2930  129.7950   62.2150 C   0  0  0  0  0  0  0  0  0  0  0  0
  127.5440  130.7130   63.0770 N   0  0  0  0  0  0  0  0  0  0  0  0
  127.6070  132.0930   62.5770 C   0  0  0  0  0  0  0  0  0  0  0  0
  129.0620  132.6020   62.3940 C   0  0  0  0  0  0  0  0  0  0  0  0
  129.6410  132.4570   61.0270 N   0  0  0  0  0  0  0  0  0  0  0  0
  130.8840  131.8650   60.9720 C   0  0  0  0  0  0  0  0  0  0  0  0
  131.5070  131.5060   61.9780 O   0  0  0  0  0  0  0  0  0  0  0  0
  131.4290  131.6660   59.5710 C   0  0  0  0  0  0  0  0  0  0  0  0
  132.6750  131.0490   59.3980 C   0  0  0  0  0  0  0  0  0  0  0  0
  133.2010  130.8430   58.1240 C   0  0  0  0  0  0  0  0  0  0  0  0
  132.5020  131.2420   56.9870 C   0  0  0  0  0  0  0  0  0  0  0  0
  131.2400  131.8700   57.1120 C   0  0  0  0  0  0  0  0  0  0  0  0
  130.4770  132.2990   56.0000 C   0  0  0  0  0  0  0  0  0  0  0  0
  129.2380  132.9080   56.1950 C   0  0  0  0  0  0  0  0  0  0  0  0
  128.7320  133.1070   57.4780 C   0  0  0  0  0  0  0  0  0  0  0  0
  129.4520  132.6990   58.6080 C   0  0  0  0  0  0  0  0  0  0  0  0
  130.7130  132.0770   58.4180 C   0  0  0  0  0  0  0  0  0  0  0  0
  128.8630  132.9240   59.9870 C   0  0  0  0  0  0  0  0  0  0  0  0
  127.7660  133.4690   60.1500 O   0  0  0  0  0  0  0  0  0  0  0  0
  128.0330  130.6140   64.4540 C   0  0  0  0  0  0  0  0  0  0  0  0
  127.8670  129.1830   65.0180 C   0  0  0  0  0  0  0  0  0  0  0  0
  133.2891  123.0103   62.3490 H   0  0  0  0  0  0  0  0  0  0  0  0
  133.7276  123.2755   59.9144 H   0  0  0  0  0  0  0  0  0  0  0  0
  131.3770  126.9021   59.8860 H   0  0  0  0  0  0  0  0  0  0  0  0
  131.3597  127.6403   63.0592 H   0  0  0  0  0  0  0  0  0  0  0  0
  129.9942  127.3872   61.9174 H   0  0  0  0  0  0  0  0  0  0  0  0
  129.1740  125.4997   63.1896 H   0  0  0  0  0  0  0  0  0  0  0  0
  128.7567  127.6763   62.0552 H   0  0  0  0  0  0  0  0  0  0  0  0
  127.0623  128.0264   62.5246 H   0  0  0  0  0  0  0  0  0  0  0  0
  129.3614  130.0529   62.2604 H   0  0  0  0  0  0  0  0  0  0  0  0
  127.9107  129.8945   61.1884 H   0  0  0  0  0  0  0  0  0  0  0  0
  127.0943  132.1381   61.6049 H   0  0  0  0  0  0  0  0  0  0  0  0
  127.1226  132.7381   63.3249 H   0  0  0  0  0  0  0  0  0  0  0  0
  129.0795  133.6705   62.6548 H   0  0  0  0  0  0  0  0  0  0  0  0
  129.6810  131.9679   63.0458 H   0  0  0  0  0  0  0  0  0  0  0  0
  133.2459  130.7227   60.2798 H   0  0  0  0  0  0  0  0  0  0  0  0
  134.1824  130.3583   58.0147 H   0  0  0  0  0  0  0  0  0  0  0  0
  132.9321  131.0685   55.9895 H   0  0  0  0  0  0  0  0  0  0  0  0
  130.8620  132.1518   54.9802 H   0  0  0  0  0  0  0  0  0  0  0  0
  128.6518  133.2359   55.3239 H   0  0  0  0  0  0  0  0  0  0  0  0
  127.7527  133.5916   57.6052 H   0  0  0  0  0  0  0  0  0  0  0  0
  129.0992  130.8837   64.4740 H   0  0  0  0  0  0  0  0  0  0  0  0
  127.4414  131.2997   65.0784 H   0  0  0  0  0  0  0  0  0  0  0  0
  128.3609  129.1159   65.9986 H   0  0  0  0  0  0  0  0  0  0  0  0
  126.7967  128.9551   65.1298 H   0  0  0  0  0  0  0  0  0  0  0  0
  1  2  2  0
  2  3  1  0
  3  4  1  0
  4  5  2  0
  5  6  1  0
  6  7  2  0
  7  8  1  0
  8  9  2  0
  8 10  1  0
  7 11  1  0
 11 12  2  0
 12 13  1  0
 13 14  1  0
 14 15  1  0
 15 16  2  0
 15 17  1  0
 17 18  1  0
 18 19  1  0
 19 20  1  0
 20 21  1  0
 21 22  1  0
 22 23  1  0
 23 24  1  0
 24 25  2  0
 24 26  1  0
 26 27  2  0
 27 28  1  0
 28 29  2  0
 29 30  1  0
 30 31  2  0
 31 32  1  0
 32 33  2  0
 33 34  1  0
 34 35  2  0
 34 36  1  0
 36 37  2  0
 20 38  1  0
 38 39  1  0
 14  2  1  0
 39 17  1  0
 12  4  1  0
 36 23  1  0
 35 26  1  0
 35 30  1  0
  5 40  1  0
  6 41  1  0
 11 42  1  0
 13 43  1  0
 13 44  1  0
 14 45  1  6
 18 46  1  0
 18 47  1  0
 19 48  1  0
 19 49  1  0
 21 50  1  0
 21 51  1  0
 22 52  1  0
 22 53  1  0
 27 54  1  0
 28 55  1  0
 29 56  1  0
 31 57  1  0
 32 58  1  0
 33 59  1  0
 38 60  1  0
 38 61  1  0
 39 62  1  0
 39 63  1  0
M  CHG  2   8   1  10  -1
M  END
>  <Binding energies>  (1) 
[-10.36]

>  <Ligand effiencies>  (1) 
[-0.26564102564102565]

>  <Interactions>  (1) 
["V-A:LEU:363:CD1:3189, V-A:ASP:366:CG:3213, H-A:TYR:531:OH:4795, V-A:PRO:540:CA:4883, H-B:TYR:539:OH:9850, V-A:PRO:540:CB:4885, V-A:PRO:540:N:4884, V-A:TYR:539:C:4867, V-A:ASP:366:CB:3212, V-B:TYR:539:CZ:9849, V-B:TYR:539:CE2:9848, V-A:MET:535:CE:4835, V-A:ASP:366:C:3208, V-A:ASP:366:CA:3210, V-B:GLU:543:CG:9879, H-A:TYR:484:OH:4348, V-A:GLU:543:CD:4908, V-B:GLU:543:CD:9880, V-A:GLU:543:CG:4907, V-A:TYR:531:CZ:4794, V-A:ALA:541:CB:4892, V-A:TYR:539:CE1:4875, V-A:PRO:540:C:4881, H-A:ALA:541:N:4891, V-A:TYR:539:CD1:4873, V-A:ILE:538:CA:4860, V-A:TYR:539:CG:4872, V-A:TYR:531:CE2:4793, V-A:ILE:538:CG2:4863, V-A:ILE:538:CB:4862, V-A:LEU:363:CA:3185"]

$$$$
RR26_Rahimova_2017
     RDKit          3D

 59 65  0  0  0  0  0  0  0  0999 V2000
  124.2960  123.8930   58.5960 C   0  0  0  0  0  0  0  0  0  0  0  0
  125.4340  123.3490   57.7410 C   0  0  0  0  0  0  0  0  0  0  0  0
  125.1130  122.7130   56.5370 C   0  0  0  0  0  0  0  0  0  0  0  0
  126.1150  122.2320   55.6970 C   0  0  0  0  0  0  0  0  0  0  0  0
  127.4520  122.3900   56.0510 C   0  0  0  0  0  0  0  0  0  0  0  0
  127.7840  123.0230   57.2470 C   0  0  0  0  0  0  0  0  0  0  0  0
  126.7890  123.5060   58.1100 C   0  0  0  0  0  0  0  0  0  0  0  0
  127.2330  124.1610   59.3860 C   0  0  0  0  0  0  0  0  0  0  0  0
  127.5160  123.4630   60.4830 N   0  0  0  0  0  0  0  0  0  0  0  0
  127.8610  124.4040   61.3200 C   0  0  0  0  0  0  0  0  0  0  0  0
  128.3750  124.4680   62.9650 S   0  0  0  0  0  0  0  0  0  0  0  0
  128.5030  126.2620   62.8310 C   0  0  0  0  0  0  0  0  0  0  0  0
  128.8750  127.1400   63.7900 C   0  0  0  0  0  0  0  0  0  0  0  0
  129.2690  126.8560   65.1600 C   0  0  0  0  0  0  0  0  0  0  0  0
  128.8250  127.4660   66.3230 C   0  0  0  0  0  0  0  0  0  0  0  0
  129.4360  126.8480   67.3840 N   0  0  0  0  0  0  0  0  0  0  0  0
  129.2870  127.1260   68.7670 C   0  0  0  0  0  0  0  0  0  0  0  0
  128.0720  126.8770   69.4230 C   0  0  0  0  0  0  0  0  0  0  0  0
  127.9380  127.1580   70.7800 C   0  0  0  0  0  0  0  0  0  0  0  0
  129.0160  127.6850   71.4860 C   0  0  0  0  0  0  0  0  0  0  0  0
  130.2290  127.9350   70.8470 C   0  0  0  0  0  0  0  0  0  0  0  0
  130.3660  127.6570   69.4900 C   0  0  0  0  0  0  0  0  0  0  0  0
  130.2270  125.8540   66.9510 N   0  0  0  0  0  0  0  0  0  0  0  0
  130.1420  125.8500   65.6350 C   0  0  0  0  0  0  0  0  0  0  0  0
  130.9240  124.8520   64.8400 C   0  0  0  0  0  0  0  0  0  0  0  0
  130.5160  123.5100   64.7850 C   0  0  0  0  0  0  0  0  0  0  0  0
  131.2410  122.5710   64.0500 C   0  0  0  0  0  0  0  0  0  0  0  0
  132.3850  122.9680   63.3610 C   0  0  0  0  0  0  0  0  0  0  0  0
  132.7930  124.3100   63.3920 C   0  0  0  0  0  0  0  0  0  0  0  0
  132.0710  125.2450   64.1330 C   0  0  0  0  0  0  0  0  0  0  0  0
  133.9440  124.7400   62.7620 O   0  0  0  0  0  0  0  0  0  0  0  0
  134.4220  123.8520   61.7460 C   0  0  0  0  0  0  0  0  0  0  0  0
  134.3790  122.3860   62.2410 C   0  0  0  0  0  0  0  0  0  0  0  0
  133.0450  122.0180   62.6070 O   0  0  0  0  0  0  0  0  0  0  0  0
  128.1330  126.7470   61.5050 C   0  0  0  0  0  0  0  0  0  0  0  0
  128.1040  127.9040   61.0800 O   0  0  0  0  0  0  0  0  0  0  0  0
  127.7930  125.6180   60.7440 N   0  0  0  0  0  0  0  0  0  0  0  0
  127.3890  125.4730   59.4790 N   0  0  0  0  0  0  0  0  0  0  0  0
  124.5472  123.7729   59.6602 H   0  0  0  0  0  0  0  0  0  0  0  0
  124.1470  124.9597   58.3725 H   0  0  0  0  0  0  0  0  0  0  0  0
  123.3723  123.3391   58.3725 H   0  0  0  0  0  0  0  0  0  0  0  0
  124.0580  122.5914   56.2504 H   0  0  0  0  0  0  0  0  0  0  0  0
  125.8501  121.7283   54.7557 H   0  0  0  0  0  0  0  0  0  0  0  0
  128.2454  122.0156   55.3874 H   0  0  0  0  0  0  0  0  0  0  0  0
  128.8428  123.1459   57.5188 H   0  0  0  0  0  0  0  0  0  0  0  0
  128.8800  128.2002   63.4970 H   0  0  0  0  0  0  0  0  0  0  0  0
  128.1089  128.2988   66.3841 H   0  0  0  0  0  0  0  0  0  0  0  0
  127.2225  126.4584   68.8633 H   0  0  0  0  0  0  0  0  0  0  0  0
  126.9841  126.9644   71.2924 H   0  0  0  0  0  0  0  0  0  0  0  0
  128.9093  127.9061   72.5582 H   0  0  0  0  0  0  0  0  0  0  0  0
  131.0755  128.3507   71.4132 H   0  0  0  0  0  0  0  0  0  0  0  0
  131.3222  127.8540   68.9833 H   0  0  0  0  0  0  0  0  0  0  0  0
  129.6131  123.1944   65.3283 H   0  0  0  0  0  0  0  0  0  0  0  0
  130.9108  121.5223   64.0148 H   0  0  0  0  0  0  0  0  0  0  0  0
  132.4014  126.2938   64.1635 H   0  0  0  0  0  0  0  0  0  0  0  0
  133.7886  123.9507   60.8521 H   0  0  0  0  0  0  0  0  0  0  0  0
  135.4626  124.1151   61.5053 H   0  0  0  0  0  0  0  0  0  0  0  0
  134.7296  121.7223   61.4369 H   0  0  0  0  0  0  0  0  0  0  0  0
  135.0287  122.2899   63.1234 H   0  0  0  0  0  0  0  0  0  0  0  0
  1  2  1  0
  2  3  2  0
  3  4  1  0
  4  5  2  0
  5  6  1  0
  6  7  2  0
  7  8  1  0
  8  9  1  0
  9 10  2  0
 10 11  1  0
 11 12  1  0
 12 13  2  0
 13 14  1  0
 14 15  2  0
 15 16  1  0
 16 17  1  0
 17 18  2  0
 18 19  1  0
 19 20  2  0
 20 21  1  0
 21 22  2  0
 16 23  1  0
 23 24  2  0
 24 25  1  0
 25 26  2  0
 26 27  1  0
 27 28  2  0
 28 29  1  0
 29 30  2  0
 29 31  1  0
 31 32  1  0
 32 33  1  0
 33 34  1  0
 12 35  1  0
 35 36  2  0
 35 37  1  0
 37 38  1  0
  7  2  1  0
 38  8  2  0
 37 10  1  0
 24 14  1  0
 30 25  1  0
 22 17  1  0
 34 28  1  0
  1 39  1  0
  1 40  1  0
  1 41  1  0
  3 42  1  0
  4 43  1  0
  5 44  1  0
  6 45  1  0
 13 46  1  0
 15 47  1  0
 18 48  1  0
 19 49  1  0
 20 50  1  0
 21 51  1  0
 22 52  1  0
 26 53  1  0
 27 54  1  0
 30 55  1  0
 32 56  1  0
 32 57  1  0
 33 58  1  0
 33 59  1  0
M  END
>  <Binding energies>  (1) 
[-9.66]

>  <Ligand effiencies>  (1) 
[-0.2542105263157895]

>  <Interactions>  (1) 
["V-B:TYR:539:CZ:9849, V-B:PRO:540:N:9856, V-B:TYR:539:CE1:9847, V-B:PRO:540:CB:9857, V-B:TYR:539:CD1:9845, V-B:PRO:540:CA:9855, V-B:TYR:539:CE2:9848, V-B:PRO:540:CD:9859, V-B:MET:535:CE:9807, V-B:LEU:363:CD1:8160, V-B:TYR:539:CG:9844, V-B:TYR:539:CD2:9846, V-B:LEU:363:CA:8156, V-A:ILE:369:CD1:3239, V-B:GLU:543:CG:9879, V-A:LEU:475:CD2:4259, V-A:TYR:484:CZ:4347, V-B:GLU:543:CB:9878, V-A:GLU:543:CD:4908, V-A:TYR:484:CE2:4346, V-A:GLY:454:CA:4049, V-A:ARG:545:CZ:4926, V-B:GLU:543:CD:9880, V-B:HIS:456:CE1:9041, V-A:GLY:544:C:4912, V-B:GLU:543:C:9874, V-B:HIS:456:CD2:9039, V-A:HIS:456:CE1:4070, V-A:GLU:543:C:4902, V-A:GLU:543:CB:4906, H-A:ARG:545:NH2:4928, H-A:GLY:454:N:4050, V-B:ILE:538:CG2:9835, V-B:ILE:538:CA:9832, V-B:ILE:538:C:9830, V-B:LEU:363:CB:8158, V-B:ILE:538:CB:9834"]

$$$$
RR27_Rahimova_2017
     RDKit          3D

 66 71  0  0  0  0  0  0  0  0999 V2000
  131.9360  128.6330   58.5260 O   0  0  0  0  0  0  0  0  0  0  0  0
  130.8800  128.9670   59.0720 C   0  0  0  0  0  0  0  0  0  0  0  0
  130.6570  130.4750   59.3860 C   0  0  0  0  0  0  0  0  0  0  0  0
  130.4910  131.3380   58.1210 C   0  0  0  0  0  0  0  0  0  0  0  0
  131.4320  131.3150   57.0810 C   0  0  0  0  0  0  0  0  0  0  0  0
  131.2500  132.1060   55.9500 C   0  0  0  0  0  0  0  0  0  0  0  0
  130.1280  132.9240   55.8540 C   0  0  0  0  0  0  0  0  0  0  0  0
  129.1870  132.9590   56.8800 C   0  0  0  0  0  0  0  0  0  0  0  0
  129.3690  132.1680   58.0100 C   0  0  0  0  0  0  0  0  0  0  0  0
  131.6840  131.0060   60.4040 C   0  0  0  0  0  0  0  0  0  0  0  0
  131.3520  131.2090   61.7500 C   0  0  0  0  0  0  0  0  0  0  0  0
  132.3020  131.7010   62.6410 C   0  0  0  0  0  0  0  0  0  0  0  0
  133.5860  131.9960   62.1890 C   0  0  0  0  0  0  0  0  0  0  0  0
  133.9270  131.8090   60.8520 C   0  0  0  0  0  0  0  0  0  0  0  0
  132.9760  131.3190   59.9620 C   0  0  0  0  0  0  0  0  0  0  0  0
  129.8630  128.0800   59.2640 N   0  0  0  0  0  0  0  0  0  0  0  0
  128.7010  128.3520   60.1240 C   0  0  0  0  0  0  0  0  0  0  0  0
  129.0940  127.9210   61.5550 C   0  0  0  0  0  0  0  0  0  0  0  0
  129.5800  126.4380   61.6270 C   0  0  0  0  0  0  0  0  0  0  0  0
  130.0890  125.9920   63.0100 C   0  0  0  0  0  0  0  0  0  0  0  0
  131.1420  125.1220   63.0170 N   0  0  0  0  0  0  0  0  0  0  0  0
  131.6480  124.7170   64.2150 C   0  0  0  0  0  0  0  0  0  0  0  0
  132.7030  123.8530   64.3510 O   0  0  0  0  0  0  0  0  0  0  0  0
  131.0630  125.2100   65.3970 C   0  0  0  0  0  0  0  0  0  0  0  0
  131.3180  125.0200   66.7230 N   0  0  0  0  0  0  0  0  0  0  0  0
  130.3980  125.7700   67.4310 N   0  0  0  0  0  0  0  0  0  0  0  0
  129.5980  126.4160   66.5560 N   0  0  0  0  0  0  0  0  0  0  0  0
  128.5120  127.2680   67.0350 C   0  0  0  0  0  0  0  0  0  0  0  0
  128.3640  127.2780   68.5500 C   0  0  0  0  0  0  0  0  0  0  0  0
  127.1660  126.8670   69.1430 C   0  0  0  0  0  0  0  0  0  0  0  0
  127.0350  126.8660   70.5330 C   0  0  0  0  0  0  0  0  0  0  0  0
  128.1010  127.2700   71.3360 C   0  0  0  0  0  0  0  0  0  0  0  0
  129.3020  127.6720   70.7510 C   0  0  0  0  0  0  0  0  0  0  0  0
  130.6320  128.1470   71.7440 Cl  0  0  0  0  0  0  0  0  0  0  0  0
  129.4320  127.6810   69.3620 C   0  0  0  0  0  0  0  0  0  0  0  0
  129.9720  126.0950   65.2620 C   0  0  0  0  0  0  0  0  0  0  0  0
  129.4510  126.5020   64.1010 N   0  0  0  0  0  0  0  0  0  0  0  0
  130.5600  126.0900   60.4640 C   0  0  0  0  0  0  0  0  0  0  0  0
  130.0970  126.6380   59.0910 C   0  0  0  0  0  0  0  0  0  0  0  0
  129.6826  130.5637   59.8886 H   0  0  0  0  0  0  0  0  0  0  0  0
  132.3185  130.6685   57.1595 H   0  0  0  0  0  0  0  0  0  0  0  0
  131.9895  132.0846   55.1360 H   0  0  0  0  0  0  0  0  0  0  0  0
  129.9833  133.5483   54.9599 H   0  0  0  0  0  0  0  0  0  0  0  0
  128.3036  133.6092   56.7974 H   0  0  0  0  0  0  0  0  0  0  0  0
  128.6267  132.1949   58.8213 H   0  0  0  0  0  0  0  0  0  0  0  0
  130.3364  130.9787   62.1043 H   0  0  0  0  0  0  0  0  0  0  0  0
  132.0395  131.8561   63.6979 H   0  0  0  0  0  0  0  0  0  0  0  0
  134.3374  132.3801   62.8946 H   0  0  0  0  0  0  0  0  0  0  0  0
  134.9421  132.0472   60.5014 H   0  0  0  0  0  0  0  0  0  0  0  0
  133.2407  131.1764   58.9039 H   0  0  0  0  0  0  0  0  0  0  0  0
  128.4585  129.4248   60.1048 H   0  0  0  0  0  0  0  0  0  0  0  0
  127.8146  127.8017   59.7755 H   0  0  0  0  0  0  0  0  0  0  0  0
  129.9050  128.5745   61.9089 H   0  0  0  0  0  0  0  0  0  0  0  0
  128.1969  128.0072   62.1857 H   0  0  0  0  0  0  0  0  0  0  0  0
  128.6763  125.8288   61.4781 H   0  0  0  0  0  0  0  0  0  0  0  0
  132.7680  123.4840   65.2340 H   0  0  0  0  0  0  0  0  0  0  0  0
  128.7040  128.2974   66.6981 H   0  0  0  0  0  0  0  0  0  0  0  0
  127.5774  126.8588   66.6237 H   0  0  0  0  0  0  0  0  0  0  0  0
  126.3246  126.5436   68.5126 H   0  0  0  0  0  0  0  0  0  0  0  0
  126.0895  126.5461   70.9953 H   0  0  0  0  0  0  0  0  0  0  0  0
  127.9949  127.2717   72.4309 H   0  0  0  0  0  0  0  0  0  0  0  0
  130.3771  128.0059   68.9025 H   0  0  0  0  0  0  0  0  0  0  0  0
  131.5457  126.5190   60.6973 H   0  0  0  0  0  0  0  0  0  0  0  0
  130.5951  124.9935   60.3833 H   0  0  0  0  0  0  0  0  0  0  0  0
  130.8769  126.4694   58.3338 H   0  0  0  0  0  0  0  0  0  0  0  0
  129.1832  126.1285   58.7513 H   0  0  0  0  0  0  0  0  0  0  0  0
  1  2  2  0
  2  3  1  0
  3  4  1  0
  4  5  2  0
  5  6  1  0
  6  7  2  0
  7  8  1  0
  8  9  2  0
  3 10  1  0
 10 11  2  0
 11 12  1  0
 12 13  2  0
 13 14  1  0
 14 15  2  0
  2 16  1  0
 16 17  1  0
 17 18  1  0
 18 19  1  0
 19 20  1  0
 20 21  2  0
 21 22  1  0
 22 23  1  0
 22 24  2  0
 24 25  1  0
 25 26  2  0
 26 27  1  0
 27 28  1  0
 28 29  1  0
 29 30  2  0
 30 31  1  0
 31 32  2  0
 32 33  1  0
 33 34  1  0
 33 35  2  0
 27 36  1  0
 36 37  2  0
 19 38  1  0
 38 39  1  0
  9  4  1  0
 15 10  1  0
 39 16  1  0
 37 20  1  0
 36 24  1  0
 35 29  1  0
  3 40  1  0
  5 41  1  0
  6 42  1  0
  7 43  1  0
  8 44  1  0
  9 45  1  0
 11 46  1  0
 12 47  1  0
 13 48  1  0
 14 49  1  0
 15 50  1  0
 17 51  1  0
 17 52  1  0
 18 53  1  0
 18 54  1  0
 19 55  1  0
 23 56  1  0
 28 57  1  0
 28 58  1  0
 30 59  1  0
 31 60  1  0
 32 61  1  0
 35 62  1  0
 38 63  1  0
 38 64  1  0
 39 65  1  0
 39 66  1  0
M  END
>  <Binding energies>  (1) 
[-10.08]

>  <Ligand effiencies>  (1) 
[-0.252]

>  <Interactions>  (1) 
["V-A:LEU:363:CD1:3189, V-A:ASP:366:CG:3213, H-A:TYR:531:OH:4795, V-A:PRO:540:CA:4883, V-A:PRO:540:CB:4885, V-A:MET:535:CE:4835, V-B:GLU:543:CG:9879, V-B:GLU:543:CB:9878, H-A:TYR:484:OH:4348, V-A:GLU:543:CD:4908, V-B:GLU:543:CD:9880, V-B:HIS:456:CE1:9041, V-A:GLY:544:C:4912, V-B:GLY:544:C:9884, V-B:GLU:543:C:9874, V-B:HIS:456:CD2:9039, V-A:HIS:456:CE1:4070, V-A:GLU:543:CG:4907, V-A:GLU:543:C:4902, V-A:GLU:543:CB:4906, V-B:GLY:544:CA:9886, V-A:ALA:541:C:4888, V-B:GLU:543:CA:9876, H-A:GLY:454:N:4050, V-A:TYR:539:CD1:4873, V-A:ILE:538:CA:4860, V-A:ILE:538:C:4858, V-A:ILE:538:CG2:4863, V-A:ILE:538:CB:4862, V-A:LEU:363:CA:3185, V-A:ASN:362:CB:3176, V-A:LEU:363:CB:3187, V-A:ASN:362:C:3172, V-A:ASN:362:CG:3177"]

$$$$
RR27_Rahimova_2017-again1
     RDKit          3D

 66 71  0  0  0  0  0  0  0  0999 V2000
  129.5320  125.1880   57.1020 O   0  0  0  0  0  0  0  0  0  0  0  0
  129.3380  125.5550   58.2650 C   0  0  0  0  0  0  0  0  0  0  0  0
  127.8780  125.5270   58.8110 C   0  0  0  0  0  0  0  0  0  0  0  0
  126.9800  124.5380   58.0430 C   0  0  0  0  0  0  0  0  0  0  0  0
  125.6580  124.8520   57.6900 C   0  0  0  0  0  0  0  0  0  0  0  0
  124.8780  123.9330   56.9950 C   0  0  0  0  0  0  0  0  0  0  0  0
  125.4120  122.6960   56.6490 C   0  0  0  0  0  0  0  0  0  0  0  0
  126.7210  122.3700   56.9910 C   0  0  0  0  0  0  0  0  0  0  0  0
  127.5020  123.2890   57.6860 C   0  0  0  0  0  0  0  0  0  0  0  0
  127.2790  126.9410   58.9340 C   0  0  0  0  0  0  0  0  0  0  0  0
  127.3550  127.8620   57.8790 C   0  0  0  0  0  0  0  0  0  0  0  0
  126.8250  129.1410   58.0210 C   0  0  0  0  0  0  0  0  0  0  0  0
  126.2130  129.5060   59.2170 C   0  0  0  0  0  0  0  0  0  0  0  0
  126.1310  128.6030   60.2740 C   0  0  0  0  0  0  0  0  0  0  0  0
  126.6690  127.3260   60.1350 C   0  0  0  0  0  0  0  0  0  0  0  0
  130.3790  125.8210   59.1060 N   0  0  0  0  0  0  0  0  0  0  0  0
  130.2320  126.5190   60.3910 C   0  0  0  0  0  0  0  0  0  0  0  0
  130.2760  128.0390   60.1090 C   0  0  0  0  0  0  0  0  0  0  0  0
  131.3840  128.5110   59.1100 C   0  0  0  0  0  0  0  0  0  0  0  0
  131.0410  129.8210   58.3930 C   0  0  0  0  0  0  0  0  0  0  0  0
  130.0560  130.5580   58.8020 N   0  0  0  0  0  0  0  0  0  0  0  0
  129.8390  131.6960   58.0860 C   0  0  0  0  0  0  0  0  0  0  0  0
  130.5610  132.1220   56.9820 C   0  0  0  0  0  0  0  0  0  0  0  0
  130.0730  133.2630   56.5260 N   0  0  0  0  0  0  0  0  0  0  0  0
  129.0020  133.6140   57.3410 N   0  0  0  0  0  0  0  0  0  0  0  0
  128.8890  132.6640   58.2850 N   0  0  0  0  0  0  0  0  0  0  0  0
  127.8370  132.7290   59.2910 C   0  0  0  0  0  0  0  0  0  0  0  0
  128.2910  132.2710   60.6690 C   0  0  0  0  0  0  0  0  0  0  0  0
  129.5380  132.6680   61.1650 C   0  0  0  0  0  0  0  0  0  0  0  0
  129.9600  132.2420   62.4250 C   0  0  0  0  0  0  0  0  0  0  0  0
  129.1390  131.4210   63.1960 C   0  0  0  0  0  0  0  0  0  0  0  0
  127.8920  131.0260   62.7090 C   0  0  0  0  0  0  0  0  0  0  0  0
  126.8780  130.0060   63.6620 Cl  0  0  0  0  0  0  0  0  0  0  0  0
  127.4680  131.4520   61.4500 C   0  0  0  0  0  0  0  0  0  0  0  0
  131.6810  131.3120   56.5040 C   0  0  0  0  0  0  0  0  0  0  0  0
  132.4320  131.5260   55.5550 O   0  0  0  0  0  0  0  0  0  0  0  0
  131.8150  130.1930   57.2980 N   0  0  0  0  0  0  0  0  0  0  0  0
  131.9300  127.4260   58.1290 C   0  0  0  0  0  0  0  0  0  0  0  0
  131.7410  125.9530   58.5690 C   0  0  0  0  0  0  0  0  0  0  0  0
  127.9249  125.1345   59.8375 H   0  0  0  0  0  0  0  0  0  0  0  0
  125.2364  125.8302   57.9644 H   0  0  0  0  0  0  0  0  0  0  0  0
  123.8428  124.1837   56.7201 H   0  0  0  0  0  0  0  0  0  0  0  0
  124.7945  121.9695   56.1005 H   0  0  0  0  0  0  0  0  0  0  0  0
  127.1367  121.3902   56.7133 H   0  0  0  0  0  0  0  0  0  0  0  0
  128.5368  123.0320   57.9567 H   0  0  0  0  0  0  0  0  0  0  0  0
  127.8365  127.5717   56.9335 H   0  0  0  0  0  0  0  0  0  0  0  0
  126.8894  129.8606   57.1916 H   0  0  0  0  0  0  0  0  0  0  0  0
  125.7909  130.5157   59.3280 H   0  0  0  0  0  0  0  0  0  0  0  0
  125.6432  128.8972   61.2150 H   0  0  0  0  0  0  0  0  0  0  0  0
  126.6147  126.6155   60.9730 H   0  0  0  0  0  0  0  0  0  0  0  0
  129.2709  126.2518   60.8546 H   0  0  0  0  0  0  0  0  0  0  0  0
  131.0401  126.2317   61.0798 H   0  0  0  0  0  0  0  0  0  0  0  0
  129.3002  128.3347   59.6961 H   0  0  0  0  0  0  0  0  0  0  0  0
  130.5159  128.5160   61.0707 H   0  0  0  0  0  0  0  0  0  0  0  0
  132.2333  128.7176   59.7778 H   0  0  0  0  0  0  0  0  0  0  0  0
  127.4900  133.7701   59.3662 H   0  0  0  0  0  0  0  0  0  0  0  0
  127.0365  132.0467   58.9689 H   0  0  0  0  0  0  0  0  0  0  0  0
  130.1873  133.3177   60.5598 H   0  0  0  0  0  0  0  0  0  0  0  0
  130.9418  132.5545   62.8102 H   0  0  0  0  0  0  0  0  0  0  0  0
  129.4738  131.0843   64.1883 H   0  0  0  0  0  0  0  0  0  0  0  0
  126.4831  131.1429   61.0699 H   0  0  0  0  0  0  0  0  0  0  0  0
  132.5690  129.5750   57.0340 H   0  0  0  0  0  0  0  0  0  0  0  0
  131.4181  127.5570   57.1642 H   0  0  0  0  0  0  0  0  0  0  0  0
  133.0177  127.5850   58.0880 H   0  0  0  0  0  0  0  0  0  0  0  0
  131.8702  125.2840   57.7054 H   0  0  0  0  0  0  0  0  0  0  0  0
  132.4851  125.6789   59.3313 H   0  0  0  0  0  0  0  0  0  0  0  0
  1  2  2  0
  2  3  1  0
  3  4  1  0
  4  5  2  0
  5  6  1  0
  6  7  2  0
  7  8  1  0
  8  9  2  0
  3 10  1  0
 10 11  2  0
 11 12  1  0
 12 13  2  0
 13 14  1  0
 14 15  2  0
  2 16  1  0
 16 17  1  0
 17 18  1  0
 18 19  1  0
 19 20  1  0
 20 21  2  0
 21 22  1  0
 22 23  2  0
 23 24  1  0
 24 25  2  0
 25 26  1  0
 26 27  1  0
 27 28  1  0
 28 29  2  0
 29 30  1  0
 30 31  2  0
 31 32  1  0
 32 33  1  0
 32 34  2  0
 23 35  1  0
 35 36  2  0
 35 37  1  0
 19 38  1  0
 38 39  1  0
  9  4  1  0
 15 10  1  0
 39 16  1  0
 37 20  1  0
 26 22  1  0
 34 28  1  0
  3 40  1  0
  5 41  1  0
  6 42  1  0
  7 43  1  0
  8 44  1  0
  9 45  1  0
 11 46  1  0
 12 47  1  0
 13 48  1  0
 14 49  1  0
 15 50  1  0
 17 51  1  0
 17 52  1  0
 18 53  1  0
 18 54  1  0
 19 55  1  0
 27 56  1  0
 27 57  1  0
 29 58  1  0
 30 59  1  0
 31 60  1  0
 34 61  1  0
 37 62  1  0
 38 63  1  0
 38 64  1  0
 39 65  1  0
 39 66  1  0
M  END
>  <Binding energies>  (1) 
[-10.11]

>  <Ligand effiencies>  (1) 
[-0.25275]

>  <Interactions>  (1) 
["V-A:LEU:363:CD1:3189, V-A:ASP:366:CG:3213, H-A:TYR:531:OH:4795, V-A:PRO:540:CA:4883, H-B:TYR:539:OH:9850, V-A:TYR:539:C:4867, V-A:ASP:366:CB:3212, H-A:TYR:539:N:4870, V-B:PRO:540:N:9856, V-B:PRO:540:CB:9857, V-B:PRO:540:CA:9855, V-B:TYR:539:CE2:9848, V-B:PRO:540:CD:9859, V-B:ASP:366:CG:8184, V-B:MET:535:CE:9807, V-B:LEU:363:CD1:8160, V-B:TYR:539:C:9839, V-B:TYR:531:CE2:9765, V-A:GLU:543:CD:4908, V-A:GLU:543:CG:4907, V-A:TYR:531:CZ:4794, V-A:ALA:541:CB:4892, V-A:TYR:539:CE1:4875, V-A:ALA:541:CA:4890, V-A:PRO:540:C:4881, V-A:TYR:539:CD1:4873, V-A:TYR:531:CE2:4793, V-B:TYR:539:CA:9841"]

$$$$
RR28_Rahimova_2017
     RDKit          3D

 82 85  0  0  0  0  0  0  0  0999 V2000
  133.6870  124.5230   63.1420 C   0  0  0  0  0  0  0  0  0  0  0  0
  132.2560  125.0460   63.1280 C   0  0  0  0  0  0  0  0  0  0  0  0
  131.9570  125.9780   62.3830 O   0  0  0  0  0  0  0  0  0  0  0  0
  131.3870  124.4330   63.9570 N   0  0  0  0  0  0  0  0  0  0  0  0
  129.9510  124.7290   64.1600 C   0  0  0  0  0  0  0  0  0  0  0  0
  129.8030  125.5410   65.4790 C   0  0  0  0  0  0  0  0  0  0  0  0
  130.3400  125.0250   66.6680 C   0  0  0  0  0  0  0  0  0  0  0  0
  130.2220  125.7220   67.8670 C   0  0  0  0  0  0  0  0  0  0  0  0
  129.5640  126.9520   67.9040 C   0  0  0  0  0  0  0  0  0  0  0  0
  129.4410  127.7010   69.2310 C   0  0  0  0  0  0  0  0  0  0  0  0
  128.5610  127.1290   70.0560 F   0  0  0  0  0  0  0  0  0  0  0  0
  130.6210  127.7410   69.8500 F   0  0  0  0  0  0  0  0  0  0  0  0
  129.0380  128.9500   68.9930 F   0  0  0  0  0  0  0  0  0  0  0  0
  129.0230  127.4760   66.7270 C   0  0  0  0  0  0  0  0  0  0  0  0
  129.1410  126.7780   65.5280 C   0  0  0  0  0  0  0  0  0  0  0  0
  129.1070  123.4040   64.1360 C   0  0  0  0  0  0  0  0  0  0  0  0
  129.1100  122.7000   62.7550 C   0  0  0  0  0  0  0  0  0  0  0  0
  128.5650  123.6700   61.7920 N   0  0  0  0  0  0  0  0  0  0  0  0
  127.2370  123.6690   61.4920 C   0  0  0  0  0  0  0  0  0  0  0  0
  126.4820  122.7710   61.8710 O   0  0  0  0  0  0  0  0  0  0  0  0
  126.6910  124.7340   60.5110 C   0  0  0  0  0  0  0  0  0  0  0  0
  126.1650  124.1990   59.1510 C   0  0  0  0  0  0  0  0  0  0  0  0
  127.1420  124.3550   57.9620 C   0  0  0  0  0  0  0  0  0  0  0  0
  127.3720  123.3600   57.2690 O   0  0  0  0  0  0  0  0  0  0  0  0
  127.6080  125.5910   57.6280 N   0  0  0  0  0  0  0  0  0  0  0  0
  127.6340  126.7240   58.5620 C   0  0  0  0  0  0  0  0  0  0  0  0
  128.9450  126.6010   59.3680 C   0  0  0  0  0  0  0  0  0  0  0  0
  130.2490  126.5570   58.4970 C   0  0  0  0  0  0  0  0  0  0  0  0
  131.3650  126.0450   59.3200 N   0  0  0  0  0  0  0  0  0  0  0  0
  132.4840  125.4170   58.9060 C   0  0  0  0  0  0  0  0  0  0  0  0
  133.4580  124.9830   59.9970 C   0  0  0  0  0  0  0  0  0  0  0  0
  132.7470  125.1830   57.7270 O   0  0  0  0  0  0  0  0  0  0  0  0
  130.5950  128.0280   58.0970 C   0  0  0  0  0  0  0  0  0  0  0  0
  131.7830  128.6660   58.4920 C   0  0  0  0  0  0  0  0  0  0  0  0
  132.0540  129.9780   58.1130 C   0  0  0  0  0  0  0  0  0  0  0  0
  131.1400  130.6890   57.3310 C   0  0  0  0  0  0  0  0  0  0  0  0
  131.4250  132.1280   56.9040 C   0  0  0  0  0  0  0  0  0  0  0  0
  132.4930  132.6070   57.5450 F   0  0  0  0  0  0  0  0  0  0  0  0
  131.6660  132.1560   55.5940 F   0  0  0  0  0  0  0  0  0  0  0  0
  130.3960  132.9400   57.1570 F   0  0  0  0  0  0  0  0  0  0  0  0
  129.9520  130.0730   56.9380 C   0  0  0  0  0  0  0  0  0  0  0  0
  129.6850  128.7610   57.3180 C   0  0  0  0  0  0  0  0  0  0  0  0
  130.0050  125.6170   57.2540 C   0  0  0  0  0  0  0  0  0  0  0  0
  128.6160  125.7370   56.5700 C   0  0  0  0  0  0  0  0  0  0  0  0
  129.4170  124.8540   61.6120 C   0  0  0  0  0  0  0  0  0  0  0  0
  129.4440  125.6050   62.9680 C   0  0  0  0  0  0  0  0  0  0  0  0
  134.0224  124.4004   64.1824 H   0  0  0  0  0  0  0  0  0  0  0  0
  133.7275  123.5519   62.6268 H   0  0  0  0  0  0  0  0  0  0  0  0
  134.3442  125.2391   62.6268 H   0  0  0  0  0  0  0  0  0  0  0  0
  131.7520  123.6920   64.5370 H   0  0  0  0  0  0  0  0  0  0  0  0
  130.8613  124.0565   66.6525 H   0  0  0  0  0  0  0  0  0  0  0  0
  130.6492  125.3015   68.7893 H   0  0  0  0  0  0  0  0  0  0  0  0
  128.5015  128.4443   66.7478 H   0  0  0  0  0  0  0  0  0  0  0  0
  128.7104  127.2008   64.6083 H   0  0  0  0  0  0  0  0  0  0  0  0
  129.5235  122.7112   64.8820 H   0  0  0  0  0  0  0  0  0  0  0  0
  128.0653  123.6772   64.3601 H   0  0  0  0  0  0  0  0  0  0  0  0
  130.1357  122.4197   62.4733 H   0  0  0  0  0  0  0  0  0  0  0  0
  128.5091  121.7789   62.7761 H   0  0  0  0  0  0  0  0  0  0  0  0
  125.8625  125.2582   61.0099 H   0  0  0  0  0  0  0  0  0  0  0  0
  127.5477  125.3787   60.2654 H   0  0  0  0  0  0  0  0  0  0  0  0
  125.9409  123.1286   59.2696 H   0  0  0  0  0  0  0  0  0  0  0  0
  125.2822  124.8068   58.9037 H   0  0  0  0  0  0  0  0  0  0  0  0
  127.6172  127.6737   58.0072 H   0  0  0  0  0  0  0  0  0  0  0  0
  126.7572  126.7109   59.2262 H   0  0  0  0  0  0  0  0  0  0  0  0
  129.0138  127.4659   60.0442 H   0  0  0  0  0  0  0  0  0  0  0  0
  128.8938  125.6390   59.8991 H   0  0  0  0  0  0  0  0  0  0  0  0
  131.2420  126.1540   60.3160 H   0  0  0  0  0  0  0  0  0  0  0  0
  133.0146  125.1806   60.9841 H   0  0  0  0  0  0  0  0  0  0  0  0
  133.6653  123.9074   59.8968 H   0  0  0  0  0  0  0  0  0  0  0  0
  134.3964  125.5481   59.8968 H   0  0  0  0  0  0  0  0  0  0  0  0
  132.5106  128.1201   59.1106 H   0  0  0  0  0  0  0  0  0  0  0  0
  132.9919  130.4570   58.4306 H   0  0  0  0  0  0  0  0  0  0  0  0
  129.2240  130.6257   56.3260 H   0  0  0  0  0  0  0  0  0  0  0  0
  128.7430  128.2891   57.0020 H   0  0  0  0  0  0  0  0  0  0  0  0
  130.7720  125.8498   56.5007 H   0  0  0  0  0  0  0  0  0  0  0  0
  130.0543  124.5902   57.6454 H   0  0  0  0  0  0  0  0  0  0  0  0
  128.5163  126.7192   56.0850 H   0  0  0  0  0  0  0  0  0  0  0  0
  128.4896  124.9663   55.7954 H   0  0  0  0  0  0  0  0  0  0  0  0
  130.4350  124.5472   61.3300 H   0  0  0  0  0  0  0  0  0  0  0  0
  129.0254  125.5010   60.8133 H   0  0  0  0  0  0  0  0  0  0  0  0
  130.1084  126.4761   62.8697 H   0  0  0  0  0  0  0  0  0  0  0  0
  128.4074  125.8926   63.1977 H   0  0  0  0  0  0  0  0  0  0  0  0
  1  2  1  0
  2  3  2  0
  2  4  1  0
  4  5  1  0
  5  6  1  0
  6  7  2  0
  7  8  1  0
  8  9  2  0
  9 10  1  0
 10 11  1  0
 10 12  1  0
 10 13  1  0
  9 14  1  0
 14 15  2  0
  5 16  1  0
 16 17  1  0
 17 18  1  0
 18 19  1  0
 19 20  2  0
 19 21  1  0
 21 22  1  0
 22 23  1  0
 23 24  2  0
 23 25  1  0
 25 26  1  0
 26 27  1  0
 27 28  1  0
 28 29  1  0
 29 30  1  0
 30 31  1  0
 30 32  2  0
 28 33  1  0
 33 34  2  0
 34 35  1  0
 35 36  2  0
 36 37  1  0
 37 38  1  0
 37 39  1  0
 37 40  1  0
 36 41  1  0
 41 42  2  0
 28 43  1  0
 43 44  1  0
 18 45  1  0
 45 46  1  0
 46  5  1  0
 15  6  1  0
 44 25  1  0
 42 33  1  0
  1 47  1  0
  1 48  1  0
  1 49  1  0
  4 50  1  0
  7 51  1  0
  8 52  1  0
 14 53  1  0
 15 54  1  0
 16 55  1  0
 16 56  1  0
 17 57  1  0
 17 58  1  0
 21 59  1  0
 21 60  1  0
 22 61  1  0
 22 62  1  0
 26 63  1  0
 26 64  1  0
 27 65  1  0
 27 66  1  0
 29 67  1  0
 31 68  1  0
 31 69  1  0
 31 70  1  0
 34 71  1  0
 35 72  1  0
 41 73  1  0
 42 74  1  0
 43 75  1  0
 43 76  1  0
 44 77  1  0
 44 78  1  0
 45 79  1  0
 45 80  1  0
 46 81  1  0
 46 82  1  0
M  END
>  <Binding energies>  (1) 
[-9.03]

>  <Ligand effiencies>  (1) 
[-0.188125]

>  <Interactions>  (1) 
["V-A:LEU:363:CD1:3189, V-A:ASP:366:CG:3213, V-A:PRO:540:CA:4883, H-B:TYR:539:OH:9850, V-A:PRO:540:CB:4885, V-A:PRO:540:CD:4887, V-A:PRO:540:CG:4886, V-A:PRO:540:N:4884, V-A:TYR:539:C:4867, V-A:ASP:366:CB:3212, V-B:TYR:539:CZ:9849, V-B:PRO:540:CB:9857, V-B:PRO:540:CA:9855, V-B:TYR:539:CE2:9848, H-B:ALA:541:N:9863, V-A:MET:535:CE:4835, V-B:ALA:541:CB:9864, V-A:ASP:366:CA:3210, V-B:GLU:543:CG:9879, V-A:TYR:484:CZ:4347, V-B:GLU:543:CB:9878, H-A:TYR:484:OH:4348, V-A:GLU:543:CD:4908, V-A:TYR:484:CE2:4346, V-A:ARG:545:CZ:4926, V-B:GLU:543:CD:9880, V-B:HIS:456:CE1:9041, V-A:HIS:456:CE1:4070, V-A:GLU:543:CG:4907, V-A:GLU:543:C:4902, V-A:GLU:543:CB:4906, V-A:GLU:543:CA:4904, H-A:ARG:545:NH2:4928, V-A:ILE:538:CG2:4863, V-A:ILE:538:CB:4862"]

$$$$
RR29_Rahimova_2017
     RDKit          3D

 35 36  0  0  0  0  0  0  0  0999 V2000
  127.9450  133.5000   63.0850 C   0  0  0  0  0  0  0  0  0  0  0  0
  128.5680  132.1690   63.4790 C   0  0  0  0  0  0  0  0  0  0  0  0
  129.9920  131.9770   62.9110 C   0  0  0  0  0  0  0  0  0  0  0  0
  130.0090  130.9710   61.7420 C   0  0  0  0  0  0  0  0  0  0  0  0
  130.0180  131.6620   60.3870 C   0  0  0  0  0  0  0  0  0  0  0  0
  128.8990  132.4120   59.9720 C   0  0  0  0  0  0  0  0  0  0  0  0
  128.8870  133.0570   58.7270 C   0  0  0  0  0  0  0  0  0  0  0  0
  130.0100  132.9180   57.9200 C   0  0  0  0  0  0  0  0  0  0  0  0
  131.0970  132.1900   58.3160 C   0  0  0  0  0  0  0  0  0  0  0  0
  131.1410  131.5480   59.5490 C   0  0  0  0  0  0  0  0  0  0  0  0
  132.0540  132.2520   57.3540 O   0  0  0  0  0  0  0  0  0  0  0  0
  131.4440  132.8670   56.2510 C   0  0  0  0  0  0  0  0  0  0  0  0
  130.2530  133.4600   56.6970 O   0  0  0  0  0  0  0  0  0  0  0  0
  127.8840  131.3620   64.2040 N   0  0  0  0  0  0  0  0  0  0  0  0
  128.4120  130.1220   64.4910 N   0  0  0  0  0  0  0  0  0  0  0  0
  127.7740  129.1820   65.2070 C   0  0  0  0  0  0  0  0  0  0  0  0
  126.5490  129.3120   65.7170 N   0  0  0  0  0  0  0  0  0  0  0  0
  128.4070  128.0380   65.4250 N   0  0  0  0  0  0  0  0  0  0  0  0
  127.6810  134.0640   63.9918 H   0  0  0  0  0  0  0  0  0  0  0  0
  128.6652  134.0799   62.4892 H   0  0  0  0  0  0  0  0  0  0  0  0
  127.0383  133.3184   62.4892 H   0  0  0  0  0  0  0  0  0  0  0  0
  130.3664  132.9470   62.5520 H   0  0  0  0  0  0  0  0  0  0  0  0
  130.6309  131.5805   63.7139 H   0  0  0  0  0  0  0  0  0  0  0  0
  130.9100  130.3456   61.8263 H   0  0  0  0  0  0  0  0  0  0  0  0
  129.0929  130.3655   61.8053 H   0  0  0  0  0  0  0  0  0  0  0  0
  128.0238  132.4923   60.6334 H   0  0  0  0  0  0  0  0  0  0  0  0
  128.0206  133.6512   58.4010 H   0  0  0  0  0  0  0  0  0  0  0  0
  132.0247  130.9705   59.8581 H   0  0  0  0  0  0  0  0  0  0  0  0
  132.1116  133.6353   55.8340 H   0  0  0  0  0  0  0  0  0  0  0  0
  131.2346  132.1269   55.4647 H   0  0  0  0  0  0  0  0  0  0  0  0
  129.3470  129.9390   64.1560 H   0  0  0  0  0  0  0  0  0  0  0  0
  126.0110  128.4940   65.9620 H   0  0  0  0  0  0  0  0  0  0  0  0
  126.1590  130.2350   65.8450 H   0  0  0  0  0  0  0  0  0  0  0  0
  129.4130  127.9960   65.3540 H   0  0  0  0  0  0  0  0  0  0  0  0
  127.8810  127.2110   65.6680 H   0  0  0  0  0  0  0  0  0  0  0  0
  1  2  1  0
  2  3  1  0
  3  4  1  0
  4  5  1  0
  5  6  2  0
  6  7  1  0
  7  8  2  0
  8  9  1  0
  9 10  2  0
  9 11  1  0
 11 12  1  0
 12 13  1  0
  2 14  2  0
 14 15  1  0
 15 16  1  0
 16 17  1  0
 16 18  2  0
 10  5  1  0
 13  8  1  0
  1 19  1  0
  1 20  1  0
  1 21  1  0
  3 22  1  0
  3 23  1  0
  4 24  1  0
  4 25  1  0
  6 26  1  0
  7 27  1  0
 10 28  1  0
 12 29  1  0
 12 30  1  0
 15 31  1  0
 17 32  1  0
 17 33  1  0
 18 34  1  0
 18 35  1  0
M  CHG  1  18   1
M  END
>  <Binding energies>  (1) 
[-7.32]

>  <Ligand effiencies>  (1) 
[-0.31826086956521743]

>  <Interactions>  (1) 
["V-A:LEU:363:CD1:3189, V-A:PRO:540:CA:4883, V-A:PRO:540:CB:4885, V-A:PRO:540:N:4884, V-A:TYR:539:C:4867, H-A:TYR:539:N:4870, H-B:GLU:543:OE1:9881, V-A:GLU:543:CD:4908, V-B:GLU:543:CD:9880, V-A:GLU:543:CG:4907, H-A:GLU:543:OE1:4909, H-A:GLU:543:OE2:4910, V-B:TYR:484:CZ:9318, H-B:GLU:543:OE2:9882, H-B:TYR:484:OH:9319, V-A:ALA:541:CB:4892, V-A:TYR:539:CE1:4875, V-A:TYR:539:CD1:4873, V-A:ILE:538:CA:4860, V-A:ILE:538:CG2:4863, V-A:ILE:538:CB:4862, V-B:LEU:475:CD2:9230"]

$$$$
RR29_Rahimova_2017-again1
     RDKit          3D

 34 35  0  0  0  0  0  0  0  0999 V2000
  128.9360  132.1530   64.5050 C   0  0  0  0  0  0  0  0  0  0  0  0
  129.4110  132.0500   63.0640 C   0  0  0  0  0  0  0  0  0  0  0  0
  128.3040  131.6170   62.0830 C   0  0  0  0  0  0  0  0  0  0  0  0
  127.7730  132.8130   61.2650 C   0  0  0  0  0  0  0  0  0  0  0  0
  128.0760  132.6760   59.7800 C   0  0  0  0  0  0  0  0  0  0  0  0
  127.1350  132.0720   58.9240 C   0  0  0  0  0  0  0  0  0  0  0  0
  127.3930  131.9370   57.5520 C   0  0  0  0  0  0  0  0  0  0  0  0
  128.6110  132.4110   57.0770 C   0  0  0  0  0  0  0  0  0  0  0  0
  129.5280  132.9960   57.9040 C   0  0  0  0  0  0  0  0  0  0  0  0
  129.2940  133.1520   59.2660 C   0  0  0  0  0  0  0  0  0  0  0  0
  130.6030  133.3930   57.1730 O   0  0  0  0  0  0  0  0  0  0  0  0
  130.4170  132.8410   55.8980 C   0  0  0  0  0  0  0  0  0  0  0  0
  129.0820  132.4240   55.8030 O   0  0  0  0  0  0  0  0  0  0  0  0
  130.6420  132.3010   62.7880 N   0  0  0  0  0  0  0  0  0  0  0  0
  131.0110  132.1740   61.5540 N   0  0  0  0  0  0  0  0  0  0  0  0
  131.9990  131.3920   61.3120 C   0  0  0  0  0  0  0  0  0  0  0  0
  132.7630  130.6310   62.2400 N   0  0  0  0  0  0  0  0  0  0  0  0
  132.4660  131.1880   59.9960 N   0  0  0  0  0  0  0  0  0  0  0  0
  129.7819  131.9696   65.1839 H   0  0  0  0  0  0  0  0  0  0  0  0
  128.5316  133.1597   64.6867 H   0  0  0  0  0  0  0  0  0  0  0  0
  128.1510  131.4042   64.6867 H   0  0  0  0  0  0  0  0  0  0  0  0
  128.7129  130.8649   61.3922 H   0  0  0  0  0  0  0  0  0  0  0  0
  127.4696  131.2006   62.6665 H   0  0  0  0  0  0  0  0  0  0  0  0
  126.6831  132.8776   61.3993 H   0  0  0  0  0  0  0  0  0  0  0  0
  128.2768  133.7205   61.6293 H   0  0  0  0  0  0  0  0  0  0  0  0
  126.1852  131.7012   59.3368 H   0  0  0  0  0  0  0  0  0  0  0  0
  126.6590  131.4733   56.8766 H   0  0  0  0  0  0  0  0  0  0  0  0
  130.0377  133.6320   59.9191 H   0  0  0  0  0  0  0  0  0  0  0  0
  130.6285  133.5976   55.1280 H   0  0  0  0  0  0  0  0  0  0  0  0
  131.0974  131.9905   55.7442 H   0  0  0  0  0  0  0  0  0  0  0  0
  132.5770  130.6540   63.2330 H   0  0  0  0  0  0  0  0  0  0  0  0
  133.5310  130.0420   61.9570 H   0  0  0  0  0  0  0  0  0  0  0  0
  132.0490  131.6500   59.2010 H   0  0  0  0  0  0  0  0  0  0  0  0
  133.2440  130.5810   59.7840 H   0  0  0  0  0  0  0  0  0  0  0  0
  1  2  1  0
  2  3  1  0
  3  4  1  0
  4  5  1  0
  5  6  2  0
  6  7  1  0
  7  8  2  0
  8  9  1  0
  9 10  2  0
  9 11  1  0
 11 12  1  0
 12 13  1  0
  2 14  2  0
 14 15  1  0
 15 16  2  0
 16 17  1  0
 16 18  1  0
 10  5  1  0
 13  8  1  0
  1 19  1  0
  1 20  1  0
  1 21  1  0
  3 22  1  0
  3 23  1  0
  4 24  1  0
  4 25  1  0
  6 26  1  0
  7 27  1  0
 10 28  1  0
 12 29  1  0
 12 30  1  0
 17 31  1  0
 17 32  1  0
 18 33  1  0
 18 34  1  0
M  END
>  <Binding energies>  (1) 
[-6.8]

>  <Ligand effiencies>  (1) 
[-0.3090909090909091]

>  <Interactions>  (1) 
["V-A:ASP:366:CG:3213, V-A:PRO:540:CA:4883, V-A:PRO:540:CB:4885, H-A:ASP:366:OD2:3215, V-A:PRO:540:N:4884, V-A:TYR:539:C:4867, H-A:TYR:539:N:4870, V-A:MET:535:CE:4835, V-A:GLU:543:CD:4908, V-A:ARG:545:CZ:4926, V-A:GLU:543:CG:4907, H-A:GLU:543:OE1:4909, H-A:GLU:543:OE2:4910, V-A:ALA:541:CB:4892, V-A:TYR:539:CE1:4875, V-A:TYR:539:CZ:4877, H-A:ALA:541:N:4891, V-A:TYR:539:CD1:4873, V-A:ILE:538:CA:4860, V-A:ILE:538:C:4858, V-B:TYR:484:CE2:9317, V-A:ILE:538:CG2:4863, V-A:ILE:538:CB:4862, H-A:ASP:366:OD1:3214, V-A:ASN:362:CB:3176, H-A:ALA:541:O:4889"]

$$$$
RR2_Rahimova_2017
     RDKit          3D

 76 80  0  0  0  0  0  0  0  0999 V2000
  128.8060  133.4940   55.6270 C   0  0  0  0  0  0  0  0  0  0  0  0
  129.9800  133.1290   56.3440 O   0  0  0  0  0  0  0  0  0  0  0  0
  130.0600  131.8710   56.9120 C   0  0  0  0  0  0  0  0  0  0  0  0
  131.2470  131.2840   57.3720 C   0  0  0  0  0  0  0  0  0  0  0  0
  131.2300  130.0080   57.9290 C   0  0  0  0  0  0  0  0  0  0  0  0
  130.0320  129.2890   58.0360 C   0  0  0  0  0  0  0  0  0  0  0  0
  130.0420  127.8980   58.6410 C   0  0  0  0  0  0  0  0  0  0  0  0
  129.3320  127.6390   59.6180 O   0  0  0  0  0  0  0  0  0  0  0  0
  130.8720  127.0060   58.0520 N   0  0  0  0  0  0  0  0  0  0  0  0
  130.9890  125.7430   58.6230 N   0  0  0  0  0  0  0  0  0  0  0  0
  132.1930  125.1370   58.5890 C   0  0  0  0  0  0  0  0  0  0  0  0
  133.1630  125.5310   57.9350 O   0  0  0  0  0  0  0  0  0  0  0  0
  132.3260  123.8810   59.4610 C   0  0  0  0  0  0  0  0  0  0  0  0
  133.9950  123.5920   60.1530 S   0  0  0  0  0  0  0  0  0  0  0  0
  133.7650  124.1650   61.8090 C   0  0  0  0  0  0  0  0  0  0  0  0
  134.7430  124.6240   62.5480 N   0  0  0  0  0  0  0  0  0  0  0  0
  134.2210  124.9120   63.8010 N   0  0  0  0  0  0  0  0  0  0  0  0
  132.9370  124.6440   63.7630 C   0  0  0  0  0  0  0  0  0  0  0  0
  132.0210  124.8440   64.9270 C   0  0  0  0  0  0  0  0  0  0  0  0
  130.7350  124.2990   64.9010 C   0  0  0  0  0  0  0  0  0  0  0  0
  129.8730  124.4860   65.9760 C   0  0  0  0  0  0  0  0  0  0  0  0
  130.2950  125.2080   67.0990 C   0  0  0  0  0  0  0  0  0  0  0  0
  129.4660  125.4370   68.2070 N   0  0  0  0  0  0  0  0  0  0  0  0
  128.7880  127.0180   68.6550 S   0  0  0  0  0  0  0  0  0  0  0  0
  127.3340  126.8900   68.5100 O   0  0  0  0  0  0  0  0  0  0  0  0
  129.5290  128.0540   67.9240 O   0  0  0  0  0  0  0  0  0  0  0  0
  129.1190  127.1910   70.4060 C   0  0  0  0  0  0  0  0  0  0  0  0
  130.3640  127.6400   70.8540 C   0  0  0  0  0  0  0  0  0  0  0  0
  130.6060  127.7520   72.2210 C   0  0  0  0  0  0  0  0  0  0  0  0
  129.6050  127.4210   73.1370 C   0  0  0  0  0  0  0  0  0  0  0  0
  129.8760  127.5300   74.6260 C   0  0  0  0  0  0  0  0  0  0  0  0
  128.3630  126.9690   72.6860 C   0  0  0  0  0  0  0  0  0  0  0  0
  128.1200  126.8550   71.3200 C   0  0  0  0  0  0  0  0  0  0  0  0
  131.5800  125.7490   67.1250 C   0  0  0  0  0  0  0  0  0  0  0  0
  132.4420  125.5680   66.0470 C   0  0  0  0  0  0  0  0  0  0  0  0
  132.5770  124.1580   62.5170 N   0  0  0  0  0  0  0  0  0  0  0  0
  131.3120  123.7140   62.0810 C   0  0  0  0  0  0  0  0  0  0  0  0
  130.3210  124.6430   61.7580 C   0  0  0  0  0  0  0  0  0  0  0  0
  129.0760  124.1980   61.3230 C   0  0  0  0  0  0  0  0  0  0  0  0
  128.8080  122.8330   61.2090 C   0  0  0  0  0  0  0  0  0  0  0  0
  127.5440  122.4890   60.7720 O   0  0  0  0  0  0  0  0  0  0  0  0
  126.5160  123.4750   60.7730 C   0  0  0  0  0  0  0  0  0  0  0  0
  129.8110  121.9060   61.5370 C   0  0  0  0  0  0  0  0  0  0  0  0
  131.0590  122.3450   61.9700 C   0  0  0  0  0  0  0  0  0  0  0  0
  128.8460  129.8860   57.5800 C   0  0  0  0  0  0  0  0  0  0  0  0
  128.8650  131.1630   57.0250 C   0  0  0  0  0  0  0  0  0  0  0  0
  128.0046  133.7431   56.3382 H   0  0  0  0  0  0  0  0  0  0  0  0
  129.0196  134.3681   54.9943 H   0  0  0  0  0  0  0  0  0  0  0  0
  128.4864  132.6528   54.9943 H   0  0  0  0  0  0  0  0  0  0  0  0
  132.1963  131.8340   57.2925 H   0  0  0  0  0  0  0  0  0  0  0  0
  132.1675  129.5593   58.2891 H   0  0  0  0  0  0  0  0  0  0  0  0
  131.7310  127.2960   57.6080 H   0  0  0  0  0  0  0  0  0  0  0  0
  130.2930  125.5590   59.3320 H   0  0  0  0  0  0  0  0  0  0  0  0
  131.6201  123.9717   60.2997 H   0  0  0  0  0  0  0  0  0  0  0  0
  132.1145  123.0260   58.8021 H   0  0  0  0  0  0  0  0  0  0  0  0
  130.4030  123.7197   64.0268 H   0  0  0  0  0  0  0  0  0  0  0  0
  128.8570  124.0656   65.9441 H   0  0  0  0  0  0  0  0  0  0  0  0
  129.2140  124.6420   68.7770 H   0  0  0  0  0  0  0  0  0  0  0  0
  131.1494  127.9038   70.1304 H   0  0  0  0  0  0  0  0  0  0  0  0
  131.5856  128.1012   72.5793 H   0  0  0  0  0  0  0  0  0  0  0  0
  128.9973  127.1766   75.1854 H   0  0  0  0  0  0  0  0  0  0  0  0
  130.7487  126.9130   74.8860 H   0  0  0  0  0  0  0  0  0  0  0  0
  130.0784  128.5795   74.8860 H   0  0  0  0  0  0  0  0  0  0  0  0
  127.5778  126.7034   73.4091 H   0  0  0  0  0  0  0  0  0  0  0  0
  127.1421  126.5007   70.9620 H   0  0  0  0  0  0  0  0  0  0  0  0
  131.9144  126.3221   68.0024 H   0  0  0  0  0  0  0  0  0  0  0  0
  133.4554  125.9949   66.0762 H   0  0  0  0  0  0  0  0  0  0  0  0
  130.5231  125.7206   61.8468 H   0  0  0  0  0  0  0  0  0  0  0  0
  128.2955  124.9294   61.0665 H   0  0  0  0  0  0  0  0  0  0  0  0
  126.2519  123.7283   61.8103 H   0  0  0  0  0  0  0  0  0  0  0  0
  126.8728  124.3773   60.2547 H   0  0  0  0  0  0  0  0  0  0  0  0
  125.6294  123.0809   60.2547 H   0  0  0  0  0  0  0  0  0  0  0  0
  129.6093  120.8280   61.4513 H   0  0  0  0  0  0  0  0  0  0  0  0
  131.8430  121.6164   62.2238 H   0  0  0  0  0  0  0  0  0  0  0  0
  127.8942  129.3407   57.6618 H   0  0  0  0  0  0  0  0  0  0  0  0
  127.9274  131.6174   56.6723 H   0  0  0  0  0  0  0  0  0  0  0  0
  1  2  1  0
  2  3  1  0
  3  4  2  0
  4  5  1  0
  5  6  2  0
  6  7  1  0
  7  8  2  0
  7  9  1  0
  9 10  1  0
 10 11  1  0
 11 12  2  0
 11 13  1  0
 13 14  1  0
 14 15  1  0
 15 16  2  0
 16 17  1  0
 17 18  2  0
 18 19  1  0
 19 20  2  0
 20 21  1  0
 21 22  2  0
 22 23  1  0
 23 24  1  0
 24 25  2  0
 24 26  2  0
 24 27  1  0
 27 28  2  0
 28 29  1  0
 29 30  2  0
 30 31  1  0
 30 32  1  0
 32 33  2  0
 22 34  1  0
 34 35  2  0
 18 36  1  0
 36 37  1  0
 37 38  2  0
 38 39  1  0
 39 40  2  0
 40 41  1  0
 41 42  1  0
 40 43  1  0
 43 44  2  0
  6 45  1  0
 45 46  2  0
 46  3  1  0
 36 15  1  0
 44 37  1  0
 35 19  1  0
 33 27  1  0
  1 47  1  0
  1 48  1  0
  1 49  1  0
  4 50  1  0
  5 51  1  0
  9 52  1  0
 10 53  1  0
 13 54  1  0
 13 55  1  0
 20 56  1  0
 21 57  1  0
 23 58  1  0
 28 59  1  0
 29 60  1  0
 31 61  1  0
 31 62  1  0
 31 63  1  0
 32 64  1  0
 33 65  1  0
 34 66  1  0
 35 67  1  0
 38 68  1  0
 39 69  1  0
 42 70  1  0
 42 71  1  0
 42 72  1  0
 43 73  1  0
 44 74  1  0
 45 75  1  0
 46 76  1  0
M  END
>  <Binding energies>  (1) 
[-11.26]

>  <Ligand effiencies>  (1) 
[-0.22979591836734695]

>  <Interactions>  (1) 
["H-A:TYR:531:OH:4795, H-B:TYR:539:OH:9850, V-A:ASP:366:CB:3212, H-A:TYR:539:N:4870, V-B:TYR:539:CZ:9849, V-B:PRO:540:CB:9857, V-B:PRO:540:CA:9855, V-B:TYR:539:CE2:9848, H-B:ALA:541:N:9863, V-A:MET:535:CE:4835, V-A:ILE:369:CD1:3239, V-B:GLU:543:CG:9879, V-A:LEU:475:CD2:4259, V-A:TYR:484:CZ:4347, V-B:GLU:543:CB:9878, V-A:GLU:543:CD:4908, V-A:TYR:484:CE2:4346, H-A:ARG:545:NE:4924, V-A:ARG:545:CZ:4926, V-B:GLU:543:CD:9880, V-B:HIS:456:CE1:9041, V-A:GLY:544:C:4912, V-B:GLU:543:C:9874, V-B:LYS:547:CE:9922, V-A:HIS:456:CE1:4070, V-A:ARG:545:CG:4922, V-A:HIS:456:CD2:4068, H-A:HIS:456:NE2:4071, H-B:GLU:543:O:9875, V-A:TYR:539:CZ:4877, H-A:ARG:545:NH2:4928, V-B:GLU:543:CA:9876, H-A:GLY:454:N:4050, V-A:TYR:539:CD1:4873, V-A:TYR:539:CD2:4874, V-A:ILE:538:CA:4860, V-A:TYR:539:CG:4872, V-A:TYR:539:CE2:4876, V-A:ILE:538:C:4858, V-A:ILE:538:CB:4862, V-A:ARG:545:CD:4923, H-A:ARG:545:NH1:4927"]

$$$$
RR30_Rahimova_2017
     RDKit          3D

 29 30  0  0  0  0  0  0  0  0999 V2000
  123.8040  129.5760   76.4720 C   0  0  0  0  0  0  0  0  0  0  0  0
  124.2520  128.4150   75.5720 C   0  0  0  0  0  0  0  0  0  0  0  0
  125.7580  128.3370   75.4450 C   0  0  0  0  0  0  0  0  0  0  0  0
  126.6170  127.8300   76.2940 N   0  0  0  0  0  0  0  0  0  0  0  0
  127.8730  128.0110   75.7190 N   0  0  0  0  0  0  0  0  0  0  0  0
  127.6650  128.6190   74.5790 C   0  0  0  0  0  0  0  0  0  0  0  0
  128.8690  129.1070   73.3860 S   0  0  0  0  0  0  0  0  0  0  0  0
  129.1830  127.5030   72.5840 C   0  0  0  0  0  0  0  0  0  0  0  0
  130.1790  126.6480   73.3710 C   0  0  0  0  0  0  0  0  0  0  0  0
  129.8540  125.5110   73.7190 O   0  0  0  0  0  0  0  0  0  0  0  0
  131.3610  127.2350   73.6630 N   0  0  0  0  0  0  0  0  0  0  0  0
  132.4140  126.6660   74.3640 C   0  0  0  0  0  0  0  0  0  0  0  0
  133.5940  127.1830   74.6220 N   0  0  0  0  0  0  0  0  0  0  0  0
  134.4000  126.3190   75.3530 N   0  0  0  0  0  0  0  0  0  0  0  0
  133.8200  125.1750   75.6310 C   0  0  0  0  0  0  0  0  0  0  0  0
  134.4960  124.0720   76.4130 C   0  0  0  0  0  0  0  0  0  0  0  0
  132.1970  125.0670   75.0050 S   0  0  0  0  0  0  0  0  0  0  0  0
  126.3500  128.8520   74.3390 O   0  0  0  0  0  0  0  0  0  0  0  0
  123.9158  129.2862   77.5272 H   0  0  0  0  0  0  0  0  0  0  0  0
  124.4256  130.4600   76.2667 H   0  0  0  0  0  0  0  0  0  0  0  0
  122.7497  129.8134   76.2667 H   0  0  0  0  0  0  0  0  0  0  0  0
  123.8836  127.4717   76.0014 H   0  0  0  0  0  0  0  0  0  0  0  0
  123.8374  128.5873   74.5678 H   0  0  0  0  0  0  0  0  0  0  0  0
  128.2325  126.9553   72.5031 H   0  0  0  0  0  0  0  0  0  0  0  0
  129.6170  127.7004   71.5927 H   0  0  0  0  0  0  0  0  0  0  0  0
  131.5020  128.1850   73.3490 H   0  0  0  0  0  0  0  0  0  0  0  0
  134.3796  124.2619   77.4902 H   0  0  0  0  0  0  0  0  0  0  0  0
  134.0344  123.1064   76.1589 H   0  0  0  0  0  0  0  0  0  0  0  0
  135.5659  124.0451   76.1589 H   0  0  0  0  0  0  0  0  0  0  0  0
  1  2  1  0
  2  3  1  0
  3  4  2  0
  4  5  1  0
  5  6  2  0
  6  7  1  0
  7  8  1  0
  8  9  1  0
  9 10  2  0
  9 11  1  0
 11 12  1  0
 12 13  2  0
 13 14  1  0
 14 15  2  0
 15 16  1  0
 15 17  1  0
  6 18  1  0
 18  3  1  0
 17 12  1  0
  1 19  1  0
  1 20  1  0
  1 21  1  0
  2 22  1  0
  2 23  1  0
  8 24  1  0
  8 25  1  0
 11 26  1  0
 16 27  1  0
 16 28  1  0
 16 29  1  0
M  END
>  <Binding energies>  (1) 
[-6.54]

>  <Ligand effiencies>  (1) 
[-0.34421052631578947]

>  <Interactions>  (1) 
["V-A:GLY:544:C:4912, H-A:LYS:547:NZ:4951, V-B:HIS:456:CD2:9039, V-B:LYS:547:CE:9922, H-B:LYS:547:NZ:9923, V-A:HIS:456:CD2:4068, V-B:LYS:547:CD:9921, V-B:HIS:456:CB:9036, V-A:HIS:456:CB:4065, H-A:GLY:544:O:4913, V-A:HIS:456:CG:4066, V-B:LYS:471:CD:9190, V-B:VAL:457:CA:9046, V-B:HIS:456:C:9032, V-B:VAL:458:CG2:9058, V-B:VAL:457:C:9044, V-A:HIS:456:C:4061, V-A:VAL:458:CG2:4087, V-A:LYS:471:CD:4219, H-A:VAL:457:N:4076"]

$$$$
RR31_Rahimova_2017
     RDKit          3D

 44 45  0  0  0  0  0  0  0  0999 V2000
  133.1430  126.2920   77.4930 C   0  0  0  0  0  0  0  0  0  0  0  0
  132.3990  126.5130   76.1830 C   0  0  0  0  0  0  0  0  0  0  0  0
  131.0070  126.6150   76.2000 C   0  0  0  0  0  0  0  0  0  0  0  0
  130.2980  126.8210   75.0180 C   0  0  0  0  0  0  0  0  0  0  0  0
  130.9590  126.9380   73.7850 C   0  0  0  0  0  0  0  0  0  0  0  0
  130.2610  127.1340   72.5910 N   0  0  0  0  0  0  0  0  0  0  0  0
  130.9290  127.6070   71.3630 C   0  0  0  0  0  0  0  0  0  0  0  0
  129.9600  128.1520   70.2880 C   0  0  0  0  0  0  0  0  0  0  0  0
  128.9480  127.1510   69.9400 N   0  0  0  0  0  0  0  0  0  0  0  0
  128.0350  127.6260   68.8960 C   0  0  0  0  0  0  0  0  0  0  0  0
  128.6980  127.7040   67.5060 C   0  0  0  0  0  0  0  0  0  0  0  0
  128.1690  128.8820   66.6730 C   0  0  0  0  0  0  0  0  0  0  0  0
  126.6530  128.7520   66.4850 N   0  0  0  0  0  0  0  0  0  0  0  0
  128.1930  126.8520   71.1560 C   0  0  0  0  0  0  0  0  0  0  0  0
  129.1170  126.2660   72.2470 C   0  0  0  0  0  0  0  0  0  0  0  0
  132.3570  126.8240   73.7820 C   0  0  0  0  0  0  0  0  0  0  0  0
  133.0820  126.6160   74.9610 C   0  0  0  0  0  0  0  0  0  0  0  0
  134.5990  126.4980   74.8900 C   0  0  0  0  0  0  0  0  0  0  0  0
  132.4668  126.4928   78.3371 H   0  0  0  0  0  0  0  0  0  0  0  0
  133.4941  125.2508   77.5441 H   0  0  0  0  0  0  0  0  0  0  0  0
  134.0056  126.9727   77.5441 H   0  0  0  0  0  0  0  0  0  0  0  0
  130.4654  126.5321   77.1538 H   0  0  0  0  0  0  0  0  0  0  0  0
  129.2009  126.8932   75.0518 H   0  0  0  0  0  0  0  0  0  0  0  0
  131.6281  128.4107   71.6375 H   0  0  0  0  0  0  0  0  0  0  0  0
  131.4357  126.7362   70.9216 H   0  0  0  0  0  0  0  0  0  0  0  0
  129.4588  129.0505   70.6773 H   0  0  0  0  0  0  0  0  0  0  0  0
  130.5385  128.3955   69.3846 H   0  0  0  0  0  0  0  0  0  0  0  0
  127.1796  126.9368   68.8382 H   0  0  0  0  0  0  0  0  0  0  0  0
  127.7235  128.6448   69.1697 H   0  0  0  0  0  0  0  0  0  0  0  0
  129.7835  127.8233   67.6380 H   0  0  0  0  0  0  0  0  0  0  0  0
  128.4586  126.7758   66.9664 H   0  0  0  0  0  0  0  0  0  0  0  0
  128.3920  129.8252   67.1932 H   0  0  0  0  0  0  0  0  0  0  0  0
  128.6571  128.8753   65.6872 H   0  0  0  0  0  0  0  0  0  0  0  0
  126.2950  127.9990   67.0560 H   0  0  0  0  0  0  0  0  0  0  0  0
  126.4380  128.5560   65.5180 H   0  0  0  0  0  0  0  0  0  0  0  0
  126.1930  129.6100   66.7530 H   0  0  0  0  0  0  0  0  0  0  0  0
  127.7338  127.7782   71.5320 H   0  0  0  0  0  0  0  0  0  0  0  0
  127.4177  126.1097   70.9154 H   0  0  0  0  0  0  0  0  0  0  0  0
  128.5197  126.1035   73.1563 H   0  0  0  0  0  0  0  0  0  0  0  0
  129.5347  125.3316   71.8439 H   0  0  0  0  0  0  0  0  0  0  0  0
  132.8981  126.9001   72.8273 H   0  0  0  0  0  0  0  0  0  0  0  0
  135.0124  126.4658   75.9089 H   0  0  0  0  0  0  0  0  0  0  0  0
  134.8704  125.5760   74.3549 H   0  0  0  0  0  0  0  0  0  0  0  0
  135.0097  127.3669   74.3549 H   0  0  0  0  0  0  0  0  0  0  0  0
  1  2  1  0
  2  3  2  0
  3  4  1  0
  4  5  2  0
  5  6  1  0
  6  7  1  0
  7  8  1  0
  8  9  1  0
  9 10  1  0
 10 11  1  0
 11 12  1  0
 12 13  1  0
  9 14  1  0
 14 15  1  0
  5 16  1  0
 16 17  2  0
 17 18  1  0
 17  2  1  0
 15  6  1  0
  1 19  1  0
  1 20  1  0
  1 21  1  0
  3 22  1  0
  4 23  1  0
  7 24  1  0
  7 25  1  0
  8 26  1  0
  8 27  1  0
 10 28  1  0
 10 29  1  0
 11 30  1  0
 11 31  1  0
 12 32  1  0
 12 33  1  0
 13 34  1  0
 13 35  1  0
 13 36  1  0
 14 37  1  0
 14 38  1  0
 15 39  1  0
 15 40  1  0
 16 41  1  0
 18 42  1  0
 18 43  1  0
 18 44  1  0
M  CHG  1  13   1
M  END
>  <Binding energies>  (1) 
[-6.26]

>  <Ligand effiencies>  (1) 
[-0.2980952380952381]

>  <Interactions>  (1) 
["H-B:GLU:543:OE1:9881, V-B:GLU:543:CB:9878, V-A:GLU:543:CD:4908, V-B:GLU:543:CD:9880, V-B:HIS:456:CE1:9041, V-A:GLY:544:C:4912, V-B:GLU:543:C:9874, V-A:HIS:456:CE1:4070, V-A:GLU:543:CG:4907, V-A:GLU:543:C:4902, V-A:GLU:543:CB:4906, H-B:GLU:543:OE2:9882, H-B:TYR:484:OH:9319, V-A:HIS:456:CD2:4068, V-A:HIS:456:CB:4065, V-A:ARG:545:C:4917, V-A:HIS:456:CG:4066, V-A:HIS:456:CA:4063, V-A:LYS:547:CG:4948, V-A:HIS:456:C:4061, V-A:VAL:458:CG2:4087, V-A:VAL:457:C:4073"]

$$$$
RR32_Rahimova_2017
     RDKit          3D

 37 39  0  0  0  0  0  0  0  0999 V2000
  124.6210  123.4810   62.1480 C   0  0  0  0  0  0  0  0  0  0  0  0
  125.6910  123.5000   61.0620 C   0  0  0  0  0  0  0  0  0  0  0  0
  126.9960  123.1530   61.4140 C   0  0  0  0  0  0  0  0  0  0  0  0
  127.9980  123.1560   60.4480 C   0  0  0  0  0  0  0  0  0  0  0  0
  129.2910  122.8110   60.8020 N   0  0  0  0  0  0  0  0  0  0  0  0
  129.6450  121.3810   60.7580 C   0  0  0  0  0  0  0  0  0  0  0  0
  131.0460  121.0800   61.3410 C   0  0  0  0  0  0  0  0  0  0  0  0
  132.0670  121.8360   60.6180 N   0  0  0  0  0  0  0  0  0  0  0  0
  133.3910  121.5280   61.1470 C   0  0  0  0  0  0  0  0  0  0  0  0
  131.7750  123.2590   60.7800 C   0  0  0  0  0  0  0  0  0  0  0  0
  130.3840  123.5920   60.1920 C   0  0  0  0  0  0  0  0  0  0  0  0
  127.7650  123.4890   59.1520 N   0  0  0  0  0  0  0  0  0  0  0  0
  126.5030  123.8350   58.7780 C   0  0  0  0  0  0  0  0  0  0  0  0
  126.2890  124.1800   57.4210 C   0  0  0  0  0  0  0  0  0  0  0  0
  125.0210  124.5420   56.9820 C   0  0  0  0  0  0  0  0  0  0  0  0
  123.9490  124.5680   57.8670 C   0  0  0  0  0  0  0  0  0  0  0  0
  124.1250  124.2350   59.2070 C   0  0  0  0  0  0  0  0  0  0  0  0
  125.4080  123.8590   59.7020 C   0  0  0  0  0  0  0  0  0  0  0  0
  125.1023  123.4895   63.1371 H   0  0  0  0  0  0  0  0  0  0  0  0
  123.9784  124.3679   62.0452 H   0  0  0  0  0  0  0  0  0  0  0  0
  124.0103  122.5719   62.0452 H   0  0  0  0  0  0  0  0  0  0  0  0
  127.2322  122.8778   62.4525 H   0  0  0  0  0  0  0  0  0  0  0  0
  128.8976  120.8182   61.3365 H   0  0  0  0  0  0  0  0  0  0  0  0
  129.6609  121.0814   59.6997 H   0  0  0  0  0  0  0  0  0  0  0  0
  131.0665  121.3655   62.4031 H   0  0  0  0  0  0  0  0  0  0  0  0
  131.2546  120.0050   61.2369 H   0  0  0  0  0  0  0  0  0  0  0  0
  133.3575  121.5358   62.2465 H   0  0  0  0  0  0  0  0  0  0  0  0
  133.7035  120.5332   60.7967 H   0  0  0  0  0  0  0  0  0  0  0  0
  134.1105  122.2828   60.7967 H   0  0  0  0  0  0  0  0  0  0  0  0
  131.7865  123.5122   61.8504 H   0  0  0  0  0  0  0  0  0  0  0  0
  132.5384  123.8439   60.2461 H   0  0  0  0  0  0  0  0  0  0  0  0
  130.1826  124.6610   60.3552 H   0  0  0  0  0  0  0  0  0  0  0  0
  130.4117  123.3342   59.1230 H   0  0  0  0  0  0  0  0  0  0  0  0
  127.1297  124.1613   56.7118 H   0  0  0  0  0  0  0  0  0  0  0  0
  124.8644  124.8099   55.9267 H   0  0  0  0  0  0  0  0  0  0  0  0
  122.9509  124.8549   57.5043 H   0  0  0  0  0  0  0  0  0  0  0  0
  123.2645  124.2623   59.8917 H   0  0  0  0  0  0  0  0  0  0  0  0
  1  2  1  0
  2  3  2  0
  3  4  1  0
  4  5  1  0
  5  6  1  0
  6  7  1  0
  7  8  1  0
  8  9  1  0
  8 10  1  0
 10 11  1  0
  4 12  2  0
 12 13  1  0
 13 14  2  0
 14 15  1  0
 15 16  2  0
 16 17  1  0
 17 18  2  0
 18  2  1  0
 11  5  1  0
 18 13  1  0
  1 19  1  0
  1 20  1  0
  1 21  1  0
  3 22  1  0
  6 23  1  0
  6 24  1  0
  7 25  1  0
  7 26  1  0
  9 27  1  0
  9 28  1  0
  9 29  1  0
 10 30  1  0
 10 31  1  0
 11 32  1  0
 11 33  1  0
 14 34  1  0
 15 35  1  0
 16 36  1  0
 17 37  1  0
M  END
>  <Binding energies>  (1) 
[-5.83]

>  <Ligand effiencies>  (1) 
[-0.3238888888888889]

>  <Interactions>  (1) 
["V-B:PRO:540:CB:9857, V-B:PRO:540:CA:9855, V-B:TYR:539:CE2:9848, V-B:ASP:366:CB:8183, V-B:ASP:366:CG:8184, V-B:MET:535:CE:9807, V-B:LEU:363:CD1:8160, V-B:TYR:539:C:9839, V-B:TYR:531:CZ:9766, V-B:PRO:540:C:9853, V-B:TYR:539:CD2:9846, V-B:LEU:363:CA:8156, V-B:TYR:531:CE2:9765, V-A:ILE:369:CG2:3237, V-A:LEU:475:CD2:4259, V-B:GLU:543:CD:9880, V-B:ASN:362:CB:8147, V-B:LEU:363:CB:8158"]

$$$$
RR32_Rahimova_2017-again1
     RDKit          3D

 38 40  0  0  0  0  0  0  0  0999 V2000
  128.4740  123.7140   58.4550 C   0  0  0  0  0  0  0  0  0  0  0  0
  128.0360  123.3830   59.8740 C   0  0  0  0  0  0  0  0  0  0  0  0
  128.9750  122.9790   60.8240 C   0  0  0  0  0  0  0  0  0  0  0  0
  128.5700  122.6810   62.1300 C   0  0  0  0  0  0  0  0  0  0  0  0
  129.4920  122.2640   63.0960 N   0  0  0  0  0  0  0  0  0  0  0  0
  130.9420  122.3820   62.8440 C   0  0  0  0  0  0  0  0  0  0  0  0
  131.5000  123.7730   63.2300 C   0  0  0  0  0  0  0  0  0  0  0  0
  131.2690  123.9940   64.7370 N   0  0  0  0  0  0  0  0  0  0  0  0
  131.7930  125.3750   65.1750 C   0  0  0  0  0  0  0  0  0  0  0  0
  129.7600  123.8640   65.0310 C   0  0  0  0  0  0  0  0  0  0  0  0
  129.2810  122.4760   64.5440 C   0  0  0  0  0  0  0  0  0  0  0  0
  127.2610  122.7480   62.4980 N   0  0  0  0  0  0  0  0  0  0  0  0
  126.3230  123.1420   61.5950 C   0  0  0  0  0  0  0  0  0  0  0  0
  124.9740  123.2160   62.0170 C   0  0  0  0  0  0  0  0  0  0  0  0
  123.9820  123.6170   61.1260 C   0  0  0  0  0  0  0  0  0  0  0  0
  124.3030  123.9480   59.8140 C   0  0  0  0  0  0  0  0  0  0  0  0
  125.6210  123.8830   59.3680 C   0  0  0  0  0  0  0  0  0  0  0  0
  126.6620  123.4790   60.2490 C   0  0  0  0  0  0  0  0  0  0  0  0
  129.3512  124.3769   58.4873 H   0  0  0  0  0  0  0  0  0  0  0  0
  128.7352  122.7856   57.9259 H   0  0  0  0  0  0  0  0  0  0  0  0
  127.6522  124.2187   57.9259 H   0  0  0  0  0  0  0  0  0  0  0  0
  130.0359  122.8946   60.5457 H   0  0  0  0  0  0  0  0  0  0  0  0
  131.4660  121.6157   63.4341 H   0  0  0  0  0  0  0  0  0  0  0  0
  131.1058  122.2441   61.7650 H   0  0  0  0  0  0  0  0  0  0  0  0
  132.5770  123.8143   63.0102 H   0  0  0  0  0  0  0  0  0  0  0  0
  130.9882  124.5568   62.6523 H   0  0  0  0  0  0  0  0  0  0  0  0
  131.7580  123.2700   65.2460 H   0  0  0  0  0  0  0  0  0  0  0  0
  131.8131  125.4280   66.2735 H   0  0  0  0  0  0  0  0  0  0  0  0
  132.8097  125.5229   64.7821 H   0  0  0  0  0  0  0  0  0  0  0  0
  131.1303  126.1601   64.7821 H   0  0  0  0  0  0  0  0  0  0  0  0
  129.5835  123.9586   66.1126 H   0  0  0  0  0  0  0  0  0  0  0  0
  129.2053  124.6578   64.5092 H   0  0  0  0  0  0  0  0  0  0  0  0
  129.8344  121.7015   65.0954 H   0  0  0  0  0  0  0  0  0  0  0  0
  128.1981  122.4196   64.7291 H   0  0  0  0  0  0  0  0  0  0  0  0
  124.7084  122.9559   63.0523 H   0  0  0  0  0  0  0  0  0  0  0  0
  122.9362  123.6724   61.4625 H   0  0  0  0  0  0  0  0  0  0  0  0
  123.5086  124.2641   59.1219 H   0  0  0  0  0  0  0  0  0  0  0  0
  125.8585  124.1461   58.3267 H   0  0  0  0  0  0  0  0  0  0  0  0
  1  2  1  0
  2  3  2  0
  3  4  1  0
  4  5  1  0
  5  6  1  0
  6  7  1  0
  7  8  1  0
  8  9  1  0
  8 10  1  0
 10 11  1  0
  4 12  2  0
 12 13  1  0
 13 14  2  0
 14 15  1  0
 15 16  2  0
 16 17  1  0
 17 18  2  0
 18  2  1  0
 11  5  1  0
 18 13  1  0
  1 19  1  0
  1 20  1  0
  1 21  1  0
  3 22  1  0
  6 23  1  0
  6 24  1  0
  7 25  1  0
  7 26  1  0
  8 27  1  0
  9 28  1  0
  9 29  1  0
  9 30  1  0
 10 31  1  0
 10 32  1  0
 11 33  1  0
 11 34  1  0
 14 35  1  0
 15 36  1  0
 16 37  1  0
 17 38  1  0
M  CHG  1   8   1
M  END
>  <Binding energies>  (1) 
[-6.46]

>  <Ligand effiencies>  (1) 
[-0.34]

>  <Interactions>  (1) 
["V-B:TYR:539:CZ:9849, V-B:PRO:540:CB:9857, V-B:PRO:540:CA:9855, V-B:TYR:539:CE2:9848, V-B:ASP:366:CG:8184, V-B:PRO:540:C:9853, H-B:ALA:541:N:9863, V-B:TYR:539:CD2:9846, V-B:LEU:363:CA:8156, V-B:ALA:541:CB:9864, V-B:GLU:543:CG:9879, V-A:LEU:475:CD2:4259, V-A:TYR:484:CZ:4347, H-A:TYR:484:OH:4348, V-A:GLU:543:CD:4908, V-A:TYR:484:CE2:4346, V-A:ARG:545:CZ:4926, V-B:GLU:543:CD:9880, V-B:ASN:362:CB:8147, V-B:ASN:362:C:8143"]

$$$$
RR32_Rahimova_2017-again2
     RDKit          3D

 39 41  0  0  0  0  0  0  0  0999 V2000
  127.5950  125.2540   56.9370 C   0  0  0  0  0  0  0  0  0  0  0  0
  127.3990  125.1890   58.4460 C   0  0  0  0  0  0  0  0  0  0  0  0
  128.4300  125.5820   59.3040 C   0  0  0  0  0  0  0  0  0  0  0  0
  128.2720  125.5240   60.6950 C   0  0  0  0  0  0  0  0  0  0  0  0
  129.2970  125.9310   61.6230 N   0  0  0  0  0  0  0  0  0  0  0  0
  130.7240  125.9790   61.2090 C   0  0  0  0  0  0  0  0  0  0  0  0
  131.0530  127.3350   60.5290 C   0  0  0  0  0  0  0  0  0  0  0  0
  130.7660  128.4910   61.5170 N   0  0  0  0  0  0  0  0  0  0  0  0
  131.0270  129.8590   60.8570 C   0  0  0  0  0  0  0  0  0  0  0  0
  129.3130  128.3970   62.0410 C   0  0  0  0  0  0  0  0  0  0  0  0
  129.0780  126.9870   62.6440 C   0  0  0  0  0  0  0  0  0  0  0  0
  127.0910  125.0860   61.1780 N   0  0  0  0  0  0  0  0  0  0  0  0
  126.0220  124.6810   60.4120 C   0  0  0  0  0  0  0  0  0  0  0  0
  124.8270  124.2370   61.0220 C   0  0  0  0  0  0  0  0  0  0  0  0
  123.7640  123.8380   60.2150 C   0  0  0  0  0  0  0  0  0  0  0  0
  123.8740  123.8740   58.8270 C   0  0  0  0  0  0  0  0  0  0  0  0
  125.0480  124.3100   58.2130 C   0  0  0  0  0  0  0  0  0  0  0  0
  126.1620  124.7280   58.9940 C   0  0  0  0  0  0  0  0  0  0  0  0
  128.6175  125.5931   56.7143 H   0  0  0  0  0  0  0  0  0  0  0  0
  127.4373  124.2554   56.5034 H   0  0  0  0  0  0  0  0  0  0  0  0
  126.8718  125.9604   56.5034 H   0  0  0  0  0  0  0  0  0  0  0  0
  129.3794  125.9421   58.8810 H   0  0  0  0  0  0  0  0  0  0  0  0
  131.3618  125.8562   62.0968 H   0  0  0  0  0  0  0  0  0  0  0  0
  130.9108  125.1682   60.4895 H   0  0  0  0  0  0  0  0  0  0  0  0
  132.1147  127.3531   60.2420 H   0  0  0  0  0  0  0  0  0  0  0  0
  130.4283  127.4561   59.6317 H   0  0  0  0  0  0  0  0  0  0  0  0
  131.3860  128.3820   62.3080 H   0  0  0  0  0  0  0  0  0  0  0  0
  131.1723  130.6207   61.6372 H   0  0  0  0  0  0  0  0  0  0  0  0
  131.9297  129.7980   60.2314 H   0  0  0  0  0  0  0  0  0  0  0  0
  130.1652  130.1347   60.2314 H   0  0  0  0  0  0  0  0  0  0  0  0
  129.1515  129.1603   62.8164 H   0  0  0  0  0  0  0  0  0  0  0  0
  128.6098  128.5663   61.2123 H   0  0  0  0  0  0  0  0  0  0  0  0
  129.7770  126.8313   63.4789 H   0  0  0  0  0  0  0  0  0  0  0  0
  128.0380  126.9245   62.9970 H   0  0  0  0  0  0  0  0  0  0  0  0
  126.9820  125.0600   62.1810 H   0  0  0  0  0  0  0  0  0  0  0  0
  124.7376  124.2069   62.1179 H   0  0  0  0  0  0  0  0  0  0  0  0
  122.8286  123.4911   60.6784 H   0  0  0  0  0  0  0  0  0  0  0  0
  123.0236  123.5543   58.2068 H   0  0  0  0  0  0  0  0  0  0  0  0
  125.1135  124.3310   57.1152 H   0  0  0  0  0  0  0  0  0  0  0  0
  1  2  1  0
  2  3  2  0
  3  4  1  0
  4  5  1  0
  5  6  1  0
  6  7  1  0
  7  8  1  0
  8  9  1  0
  8 10  1  0
 10 11  1  0
  4 12  2  0
 12 13  1  0
 13 14  2  0
 14 15  1  0
 15 16  2  0
 16 17  1  0
 17 18  2  0
 18  2  1  0
 11  5  1  0
 18 13  1  0
  1 19  1  0
  1 20  1  0
  1 21  1  0
  3 22  1  0
  6 23  1  0
  6 24  1  0
  7 25  1  0
  7 26  1  0
  8 27  1  0
  9 28  1  0
  9 29  1  0
  9 30  1  0
 10 31  1  0
 10 32  1  0
 11 33  1  0
 11 34  1  0
 12 35  1  0
 14 36  1  0
 15 37  1  0
 16 38  1  0
 17 39  1  0
M  CHG  2   8   1  12   1
M  END
>  <Binding energies>  (1) 
[-6.72]

>  <Ligand effiencies>  (1) 
[-0.33599999999999997]

>  <Interactions>  (1) 
["V-A:ASP:366:CG:3213, H-A:ASP:366:OD2:3215, V-B:PRO:540:CB:9857, V-B:ASP:366:CG:8184, V-B:LEU:363:CD1:8160, H-B:GLU:543:OE1:9881, V-B:LEU:363:CA:8156, V-A:GLU:543:CD:4908, V-B:GLU:543:CD:9880, H-A:GLU:543:OE1:4909, H-A:GLU:543:OE2:4910, V-B:ASN:362:CB:8147, V-B:ASN:362:C:8143, V-B:LEU:363:CB:8158"]

$$$$
RR33_Rahimova_2017
     RDKit          3D

 36 37  0  0  0  0  0  0  0  0999 V2000
  136.5040  123.4470   76.5470 C   0  0  0  0  0  0  0  0  0  0  0  0
  135.1350  122.7610   76.5080 C   0  0  0  0  0  0  0  0  0  0  0  0
  134.1830  123.6020   77.1550 O   0  0  0  0  0  0  0  0  0  0  0  0
  133.2410  124.2690   76.3950 C   0  0  0  0  0  0  0  0  0  0  0  0
  133.6950  125.3680   75.6680 C   0  0  0  0  0  0  0  0  0  0  0  0
  132.8180  126.1050   74.8760 C   0  0  0  0  0  0  0  0  0  0  0  0
  131.4680  125.7500   74.8000 C   0  0  0  0  0  0  0  0  0  0  0  0
  130.5260  126.5410   73.9510 C   0  0  0  0  0  0  0  0  0  0  0  0
  130.5710  127.8290   73.6890 N   0  0  0  0  0  0  0  0  0  0  0  0
  129.5350  128.0610   72.8980 C   0  0  0  0  0  0  0  0  0  0  0  0
  129.2570  129.4510   72.3680 C   0  0  0  0  0  0  0  0  0  0  0  0
  129.9580  130.4520   73.1590 N   0  0  0  0  0  0  0  0  0  0  0  0
  129.0140  131.2890   73.8800 C   0  0  0  0  0  0  0  0  0  0  0  0
  128.8430  126.8770   72.6760 C   0  0  0  0  0  0  0  0  0  0  0  0
  127.6180  126.4810   71.8880 C   0  0  0  0  0  0  0  0  0  0  0  0
  129.4850  125.9010   73.3580 O   0  0  0  0  0  0  0  0  0  0  0  0
  131.0090  124.6450   75.5250 C   0  0  0  0  0  0  0  0  0  0  0  0
  131.8870  123.9090   76.3180 C   0  0  0  0  0  0  0  0  0  0  0  0
  136.8081  123.5994   77.5931 H   0  0  0  0  0  0  0  0  0  0  0  0
  137.2459  122.8142   76.0380 H   0  0  0  0  0  0  0  0  0  0  0  0
  136.4411  124.4201   76.0380 H   0  0  0  0  0  0  0  0  0  0  0  0
  134.8333  122.5962   75.4631 H   0  0  0  0  0  0  0  0  0  0  0  0
  135.1878  121.7902   77.0225 H   0  0  0  0  0  0  0  0  0  0  0  0
  134.7554  125.6558   75.7202 H   0  0  0  0  0  0  0  0  0  0  0  0
  133.1893  126.9705   74.3076 H   0  0  0  0  0  0  0  0  0  0  0  0
  129.5959  129.5138   71.3234 H   0  0  0  0  0  0  0  0  0  0  0  0
  128.1759  129.6440   72.4303 H   0  0  0  0  0  0  0  0  0  0  0  0
  130.5100  131.0350   72.5440 H   0  0  0  0  0  0  0  0  0  0  0  0
  129.1608  131.1588   74.9624 H   0  0  0  0  0  0  0  0  0  0  0  0
  129.1791  132.3429   73.6117 H   0  0  0  0  0  0  0  0  0  0  0  0
  127.9874  130.9989   73.6117 H   0  0  0  0  0  0  0  0  0  0  0  0
  126.8053  126.2183   72.5811 H   0  0  0  0  0  0  0  0  0  0  0  0
  127.3017  127.3227   71.2543 H   0  0  0  0  0  0  0  0  0  0  0  0
  127.8543  125.6135   71.2543 H   0  0  0  0  0  0  0  0  0  0  0  0
  129.9492  124.3557   75.4687 H   0  0  0  0  0  0  0  0  0  0  0  0
  131.5173  123.0425   76.8858 H   0  0  0  0  0  0  0  0  0  0  0  0
  1  2  1  0
  2  3  1  0
  3  4  1  0
  4  5  2  0
  5  6  1  0
  6  7  2  0
  7  8  1  0
  8  9  2  0
  9 10  1  0
 10 11  1  0
 11 12  1  0
 12 13  1  0
 10 14  2  0
 14 15  1  0
 14 16  1  0
  7 17  1  0
 17 18  2  0
 18  4  1  0
 16  8  1  0
  1 19  1  0
  1 20  1  0
  1 21  1  0
  2 22  1  0
  2 23  1  0
  5 24  1  0
  6 25  1  0
 11 26  1  0
 11 27  1  0
 12 28  1  0
 13 29  1  0
 13 30  1  0
 13 31  1  0
 15 32  1  0
 15 33  1  0
 15 34  1  0
 17 35  1  0
 18 36  1  0
M  END
>  <Binding energies>  (1) 
[-5.25]

>  <Ligand effiencies>  (1) 
[-0.27631578947368424]

>  <Interactions>  (1) 
["H-A:LYS:547:NZ:4951, V-B:GLY:544:C:9884, V-B:GLU:543:C:9874, V-B:HIS:456:CD2:9039, V-B:LYS:547:CE:9922, V-A:GLU:543:C:4902, V-B:GLY:544:CA:9886, H-B:LYS:547:NZ:9923, V-A:HIS:456:CD2:4068, V-A:HIS:456:CB:4065, H-A:GLU:543:O:4903, H-A:GLY:544:O:4913, V-A:HIS:456:CG:4066, V-A:HIS:456:C:4061, V-A:VAL:458:CG2:4087, V-A:VAL:457:C:4073, V-A:VAL:457:CA:4075, H-A:LYS:471:NZ:4221, V-A:LYS:547:CE:4950, V-A:ASP:473:CG:4240, V-A:LYS:471:CG:4218, V-A:LYS:471:CD:4219, V-A:LYS:471:C:4213, V-A:LYS:471:CB:4217, V-A:LYS:471:CA:4215, V-A:LEU:472:CA:4228, V-A:VAL:458:CB:4085"]

$$$$
RR33_Rahimova_2017-again1
     RDKit          3D

 37 38  0  0  0  0  0  0  0  0999 V2000
  131.1390  126.5590   74.1890 C   0  0  0  0  0  0  0  0  0  0  0  0
  129.9040  127.4390   73.9740 C   0  0  0  0  0  0  0  0  0  0  0  0
  128.9830  126.7400   73.1420 O   0  0  0  0  0  0  0  0  0  0  0  0
  128.9610  127.0020   71.7850 C   0  0  0  0  0  0  0  0  0  0  0  0
  127.7910  126.6640   71.1050 C   0  0  0  0  0  0  0  0  0  0  0  0
  127.6760  126.8900   69.7360 C   0  0  0  0  0  0  0  0  0  0  0  0
  128.7360  127.4600   69.0240 C   0  0  0  0  0  0  0  0  0  0  0  0
  128.6160  127.7060   67.5540 C   0  0  0  0  0  0  0  0  0  0  0  0
  129.1020  126.9740   66.5760 N   0  0  0  0  0  0  0  0  0  0  0  0
  128.7370  127.5890   65.4610 C   0  0  0  0  0  0  0  0  0  0  0  0
  129.1270  127.0440   64.1010 C   0  0  0  0  0  0  0  0  0  0  0  0
  130.6030  126.6140   64.1350 N   0  0  0  0  0  0  0  0  0  0  0  0
  130.8470  125.2080   63.5680 C   0  0  0  0  0  0  0  0  0  0  0  0
  128.0150  128.7330   65.7780 C   0  0  0  0  0  0  0  0  0  0  0  0
  127.3470  129.8340   64.9920 C   0  0  0  0  0  0  0  0  0  0  0  0
  127.9380  128.8010   67.1280 O   0  0  0  0  0  0  0  0  0  0  0  0
  129.9110  127.8000   69.7030 C   0  0  0  0  0  0  0  0  0  0  0  0
  130.0250  127.5740   71.0720 C   0  0  0  0  0  0  0  0  0  0  0  0
  131.3161  126.4328   75.2673 H   0  0  0  0  0  0  0  0  0  0  0  0
  130.9727  125.5746   73.7271 H   0  0  0  0  0  0  0  0  0  0  0  0
  132.0151  127.0375   73.7271 H   0  0  0  0  0  0  0  0  0  0  0  0
  129.4333  127.6591   74.9435 H   0  0  0  0  0  0  0  0  0  0  0  0
  130.1972  128.3850   73.4954 H   0  0  0  0  0  0  0  0  0  0  0  0
  126.9513  126.2147   71.6555 H   0  0  0  0  0  0  0  0  0  0  0  0
  126.7474  126.6190   69.2123 H   0  0  0  0  0  0  0  0  0  0  0  0
  128.4962  126.1764   63.8573 H   0  0  0  0  0  0  0  0  0  0  0  0
  128.9853  127.8215   63.3359 H   0  0  0  0  0  0  0  0  0  0  0  0
  131.1500  127.2800   63.6090 H   0  0  0  0  0  0  0  0  0  0  0  0
  130.9230  126.6380   65.0940 H   0  0  0  0  0  0  0  0  0  0  0  0
  130.9707  124.4950   64.3964 H   0  0  0  0  0  0  0  0  0  0  0  0
  129.9876  124.9073   62.9507 H   0  0  0  0  0  0  0  0  0  0  0  0
  131.7574  125.2145   62.9507 H   0  0  0  0  0  0  0  0  0  0  0  0
  126.9044  130.5635   65.6862 H   0  0  0  0  0  0  0  0  0  0  0  0
  128.0927  130.3365   64.3584 H   0  0  0  0  0  0  0  0  0  0  0  0
  126.5569  129.4047   64.3584 H   0  0  0  0  0  0  0  0  0  0  0  0
  130.7503  128.2489   69.1516 H   0  0  0  0  0  0  0  0  0  0  0  0
  130.9531  127.8450   71.5966 H   0  0  0  0  0  0  0  0  0  0  0  0
  1  2  1  0
  2  3  1  0
  3  4  1  0
  4  5  2  0
  5  6  1  0
  6  7  2  0
  7  8  1  0
  8  9  2  0
  9 10  1  0
 10 11  1  0
 11 12  1  0
 12 13  1  0
 10 14  2  0
 14 15  1  0
 14 16  1  0
  7 17  1  0
 17 18  2  0
 18  4  1  0
 16  8  1  0
  1 19  1  0
  1 20  1  0
  1 21  1  0
  2 22  1  0
  2 23  1  0
  5 24  1  0
  6 25  1  0
 11 26  1  0
 11 27  1  0
 12 28  1  0
 12 29  1  0
 13 30  1  0
 13 31  1  0
 13 32  1  0
 15 33  1  0
 15 34  1  0
 15 35  1  0
 17 36  1  0
 18 37  1  0
M  CHG  1  12   1
M  END
>  <Binding energies>  (1) 
[-6.04]

>  <Ligand effiencies>  (1) 
[-0.302]

>  <Interactions>  (1) 
["V-B:GLU:543:CG:9879, V-B:GLU:543:CB:9878, V-A:GLU:543:CD:4908, V-B:GLU:543:CD:9880, V-B:HIS:456:CE1:9041, V-B:GLY:544:C:9884, V-B:GLU:543:C:9874, V-A:HIS:456:CE1:4070, V-A:GLU:543:CG:4907, V-A:GLU:543:CB:4906, V-B:GLY:544:CA:9886, H-B:LYS:547:NZ:9923, H-A:GLU:543:OE1:4909, H-A:GLU:543:OE2:4910, V-A:HIS:456:CD2:4068"]

$$$$
RR3_Rahimova_2017
     RDKit          3D

 63 69  0  0  0  0  0  0  0  0999 V2000
  131.0840  121.3580   61.0160 C   0  0  0  0  0  0  0  0  0  0  0  0
  132.0810  122.1800   61.5310 C   0  0  0  0  0  0  0  0  0  0  0  0
  131.7860  123.0490   62.5780 C   0  0  0  0  0  0  0  0  0  0  0  0
  130.4940  123.1070   63.1230 C   0  0  0  0  0  0  0  0  0  0  0  0
  130.1790  124.0410   64.2490 C   0  0  0  0  0  0  0  0  0  0  0  0
  129.8850  125.3900   64.0060 C   0  0  0  0  0  0  0  0  0  0  0  0
  129.5950  126.2590   65.0540 C   0  0  0  0  0  0  0  0  0  0  0  0
  129.6000  125.7990   66.3740 C   0  0  0  0  0  0  0  0  0  0  0  0
  129.2940  126.7300   67.5060 C   0  0  0  0  0  0  0  0  0  0  0  0
  129.8190  126.5100   68.7070 N   0  0  0  0  0  0  0  0  0  0  0  0
  129.4200  127.4950   69.4750 C   0  0  0  0  0  0  0  0  0  0  0  0
  129.7640  127.6530   70.8860 C   0  0  0  0  0  0  0  0  0  0  0  0
  131.0450  127.7470   71.4020 C   0  0  0  0  0  0  0  0  0  0  0  0
  130.9970  127.8970   72.7630 N   0  0  0  0  0  0  0  0  0  0  0  0
  129.6870  127.9060   73.1880 C   0  0  0  0  0  0  0  0  0  0  0  0
  129.1430  128.0320   74.4710 C   0  0  0  0  0  0  0  0  0  0  0  0
  127.7530  128.0020   74.5750 C   0  0  0  0  0  0  0  0  0  0  0  0
  126.9370  127.8510   73.4590 C   0  0  0  0  0  0  0  0  0  0  0  0
  127.4780  127.7260   72.1810 C   0  0  0  0  0  0  0  0  0  0  0  0
  128.8750  127.7500   72.0200 C   0  0  0  0  0  0  0  0  0  0  0  0
  128.6240  128.3650   68.7820 N   0  0  0  0  0  0  0  0  0  0  0  0
  128.5000  127.8890   67.5030 C   0  0  0  0  0  0  0  0  0  0  0  0
  127.6490  128.5520   66.4700 C   0  0  0  0  0  0  0  0  0  0  0  0
  128.1800  128.8590   65.2160 C   0  0  0  0  0  0  0  0  0  0  0  0
  127.3940  129.4880   64.2560 C   0  0  0  0  0  0  0  0  0  0  0  0
  126.0580  129.8220   64.5240 C   0  0  0  0  0  0  0  0  0  0  0  0
  125.2220  130.5170   63.4960 C   0  0  0  0  0  0  0  0  0  0  0  0
  124.9350  129.9030   62.2670 C   0  0  0  0  0  0  0  0  0  0  0  0
  124.1530  130.5480   61.3120 C   0  0  0  0  0  0  0  0  0  0  0  0
  123.6480  131.8170   61.5770 C   0  0  0  0  0  0  0  0  0  0  0  0
  123.9180  132.4430   62.7890 C   0  0  0  0  0  0  0  0  0  0  0  0
  124.7020  131.7970   63.7410 C   0  0  0  0  0  0  0  0  0  0  0  0
  125.5320  129.4930   65.7810 C   0  0  0  0  0  0  0  0  0  0  0  0
  126.3150  128.8630   66.7440 C   0  0  0  0  0  0  0  0  0  0  0  0
  129.8780  124.4540   66.6250 C   0  0  0  0  0  0  0  0  0  0  0  0
  130.1680  123.5880   65.5750 C   0  0  0  0  0  0  0  0  0  0  0  0
  129.5050  122.2700   62.5870 C   0  0  0  0  0  0  0  0  0  0  0  0
  129.7960  121.3990   61.5400 C   0  0  0  0  0  0  0  0  0  0  0  0
  131.3156  120.6709   60.1888 H   0  0  0  0  0  0  0  0  0  0  0  0
  133.0978  122.1436   61.1130 H   0  0  0  0  0  0  0  0  0  0  0  0
  132.5758  123.6985   62.9833 H   0  0  0  0  0  0  0  0  0  0  0  0
  129.8835  125.7671   62.9726 H   0  0  0  0  0  0  0  0  0  0  0  0
  129.3608  127.3127   64.8424 H   0  0  0  0  0  0  0  0  0  0  0  0
  131.9683  127.7070   70.8054 H   0  0  0  0  0  0  0  0  0  0  0  0
  131.8290  127.9860   73.3290 H   0  0  0  0  0  0  0  0  0  0  0  0
  129.7833  128.1494   75.3577 H   0  0  0  0  0  0  0  0  0  0  0  0
  127.2888  128.1005   75.5674 H   0  0  0  0  0  0  0  0  0  0  0  0
  125.8447  127.8299   73.5875 H   0  0  0  0  0  0  0  0  0  0  0  0
  126.8196  127.6098   71.3075 H   0  0  0  0  0  0  0  0  0  0  0  0
  128.1830  129.1940   69.1540 H   0  0  0  0  0  0  0  0  0  0  0  0
  129.2246  128.6024   64.9860 H   0  0  0  0  0  0  0  0  0  0  0  0
  127.8260  129.7269   63.2730 H   0  0  0  0  0  0  0  0  0  0  0  0
  125.3328  128.8995   62.0554 H   0  0  0  0  0  0  0  0  0  0  0  0
  123.9356  130.0563   60.3524 H   0  0  0  0  0  0  0  0  0  0  0  0
  123.0313  132.3283   60.8231 H   0  0  0  0  0  0  0  0  0  0  0  0
  123.5136  133.4450   62.9948 H   0  0  0  0  0  0  0  0  0  0  0  0
  124.9165  132.2964   64.6974 H   0  0  0  0  0  0  0  0  0  0  0  0
  124.4840  129.7365   66.0099 H   0  0  0  0  0  0  0  0  0  0  0  0
  125.8824  128.6094   67.7230 H   0  0  0  0  0  0  0  0  0  0  0  0
  129.8677  124.0768   67.6583 H   0  0  0  0  0  0  0  0  0  0  0  0
  130.3919  122.5325   65.7890 H   0  0  0  0  0  0  0  0  0  0  0  0
  128.4856  122.3017   62.9990 H   0  0  0  0  0  0  0  0  0  0  0  0
  129.0112  120.7467   61.1294 H   0  0  0  0  0  0  0  0  0  0  0  0
  1  2  2  0
  2  3  1  0
  3  4  2  0
  4  5  1  0
  5  6  2  0
  6  7  1  0
  7  8  2  0
  8  9  1  0
  9 10  1  0
 10 11  2  0
 11 12  1  0
 12 13  2  0
 13 14  1  0
 14 15  1  0
 15 16  2  0
 16 17  1  0
 17 18  2  0
 18 19  1  0
 19 20  2  0
 11 21  1  0
 21 22  1  0
 22 23  1  0
 23 24  2  0
 24 25  1  0
 25 26  2  0
 26 27  1  0
 27 28  2  0
 28 29  1  0
 29 30  2  0
 30 31  1  0
 31 32  2  0
 26 33  1  0
 33 34  2  0
  8 35  1  0
 35 36  2  0
  4 37  1  0
 37 38  2  0
 38  1  1  0
 36  5  1  0
 22  9  2  0
 34 23  1  0
 20 12  1  0
 32 27  1  0
 20 15  1  0
  1 39  1  0
  2 40  1  0
  3 41  1  0
  6 42  1  0
  7 43  1  0
 13 44  1  0
 14 45  1  0
 16 46  1  0
 17 47  1  0
 18 48  1  0
 19 49  1  0
 21 50  1  0
 24 51  1  0
 25 52  1  0
 28 53  1  0
 29 54  1  0
 30 55  1  0
 31 56  1  0
 32 57  1  0
 33 58  1  0
 34 59  1  0
 35 60  1  0
 36 61  1  0
 37 62  1  0
 38 63  1  0
M  END
>  <Binding energies>  (1) 
[-9.71]

>  <Ligand effiencies>  (1) 
[-0.24275000000000002]

>  <Interactions>  (1) 
["V-B:TYR:539:CE2:9848, V-B:ASP:366:CG:8184, V-B:TYR:539:CD2:9846, V-B:ALA:541:CB:9864, V-B:GLU:543:CG:9879, V-A:LEU:475:CD2:4259, V-A:TYR:484:CZ:4347, V-B:GLU:543:CB:9878, V-A:GLU:543:CD:4908, V-A:TYR:484:CE2:4346, V-B:GLU:543:CD:9880, V-B:HIS:456:CE1:9041, V-A:GLY:544:C:4912, V-B:HIS:456:CD2:9039, V-B:LYS:547:CE:9922, V-A:HIS:456:CE1:4070, V-A:GLU:543:CG:4907, V-A:GLU:543:CB:4906, V-B:HIS:456:CG:9037, V-B:TYR:484:CZ:9318, V-A:HIS:456:CD2:4068, V-B:HIS:456:CB:9036, H-B:HIS:456:NE2:9042, H-A:GLU:543:O:4903, H-A:GLY:544:O:4913, V-B:ILE:369:CG2:8208, V-B:GLU:543:CA:9876, V-B:GLY:454:CA:9020"]

$$$$
RR4_Rahimova_2017
     RDKit          3D

 66 70  0  0  0  0  0  0  0  0999 V2000
  127.7990  128.3710   74.1630 C   0  0  0  0  0  0  0  0  0  0  0  0
  128.5470  127.3100   73.5800 O   0  0  0  0  0  0  0  0  0  0  0  0
  128.7310  127.2870   72.2110 C   0  0  0  0  0  0  0  0  0  0  0  0
  127.6330  126.9140   71.4390 C   0  0  0  0  0  0  0  0  0  0  0  0
  127.7250  126.8650   70.0510 C   0  0  0  0  0  0  0  0  0  0  0  0
  128.9220  127.1850   69.3930 C   0  0  0  0  0  0  0  0  0  0  0  0
  129.0180  127.1290   67.8960 C   0  0  0  0  0  0  0  0  0  0  0  0
  129.8260  126.2070   67.2220 C   0  0  0  0  0  0  0  0  0  0  0  0
  129.8780  126.1930   65.8220 C   0  0  0  0  0  0  0  0  0  0  0  0
  130.7420  125.1610   65.1720 C   0  0  0  0  0  0  0  0  0  0  0  0
  132.1020  125.4110   64.9690 C   0  0  0  0  0  0  0  0  0  0  0  0
  132.9170  124.4510   64.3740 C   0  0  0  0  0  0  0  0  0  0  0  0
  132.3890  123.2220   63.9780 C   0  0  0  0  0  0  0  0  0  0  0  0
  133.2720  122.3310   63.3980 O   0  0  0  0  0  0  0  0  0  0  0  0
  133.9910  122.7250   62.2330 C   0  0  0  0  0  0  0  0  0  0  0  0
  131.0260  122.9650   64.1840 C   0  0  0  0  0  0  0  0  0  0  0  0
  130.2140  123.9270   64.7800 C   0  0  0  0  0  0  0  0  0  0  0  0
  129.1180  127.1510   65.1080 C   0  0  0  0  0  0  0  0  0  0  0  0
  129.1350  127.1790   63.6430 C   0  0  0  0  0  0  0  0  0  0  0  0
  129.1500  127.2020   62.4860 N   0  0  0  0  0  0  0  0  0  0  0  0
  128.3460  128.0720   65.8530 C   0  0  0  0  0  0  0  0  0  0  0  0
  127.3420  129.3490   65.1260 S   0  0  0  0  0  0  0  0  0  0  0  0
  128.4270  130.7680   64.7560 C   0  0  0  0  0  0  0  0  0  0  0  0
  128.3630  131.2570   63.3030 C   0  0  0  0  0  0  0  0  0  0  0  0
  127.3330  131.7730   62.8610 O   0  0  0  0  0  0  0  0  0  0  0  0
  129.4950  131.0600   62.5890 N   0  0  0  0  0  0  0  0  0  0  0  0
  129.7500  131.3940   61.2560 C   0  0  0  0  0  0  0  0  0  0  0  0
  128.4860  131.7080   60.0980 S   0  0  0  0  0  0  0  0  0  0  0  0
  129.6400  132.0020   58.8340 C   0  0  0  0  0  0  0  0  0  0  0  0
  130.9580  131.8580   59.2940 C   0  0  0  0  0  0  0  0  0  0  0  0
  131.0180  131.5290   60.6700 C   0  0  0  0  0  0  0  0  0  0  0  0
  132.2700  131.3420   61.3980 C   0  0  0  0  0  0  0  0  0  0  0  0
  133.2630  131.1930   61.9740 N   0  0  0  0  0  0  0  0  0  0  0  0
  132.1600  132.1040   58.3760 C   0  0  0  0  0  0  0  0  0  0  0  0
  131.7300  132.8790   57.1100 C   0  0  0  0  0  0  0  0  0  0  0  0
  130.4470  132.3030   56.4850 C   0  0  0  0  0  0  0  0  0  0  0  0
  129.2340  132.4320   57.4300 C   0  0  0  0  0  0  0  0  0  0  0  0
  128.2890  128.0430   67.2060 N   0  0  0  0  0  0  0  0  0  0  0  0
  130.0210  127.5630   70.1800 C   0  0  0  0  0  0  0  0  0  0  0  0
  129.9330  127.6140   71.5680 C   0  0  0  0  0  0  0  0  0  0  0  0
  127.8511  128.2971   75.2593 H   0  0  0  0  0  0  0  0  0  0  0  0
  128.2179  129.3355   73.8402 H   0  0  0  0  0  0  0  0  0  0  0  0
  126.7498  128.3005   73.8402 H   0  0  0  0  0  0  0  0  0  0  0  0
  126.6838  126.6556   71.9312 H   0  0  0  0  0  0  0  0  0  0  0  0
  126.8449  126.5706   69.4604 H   0  0  0  0  0  0  0  0  0  0  0  0
  130.4262  125.4862   67.7967 H   0  0  0  0  0  0  0  0  0  0  0  0
  132.5323  126.3739   65.2817 H   0  0  0  0  0  0  0  0  0  0  0  0
  133.9846  124.6634   64.2152 H   0  0  0  0  0  0  0  0  0  0  0  0
  134.9198  123.2340   62.5300 H   0  0  0  0  0  0  0  0  0  0  0  0
  134.2358  121.8350   61.6347 H   0  0  0  0  0  0  0  0  0  0  0  0
  133.3726  123.4103   61.6347 H   0  0  0  0  0  0  0  0  0  0  0  0
  130.5968  122.0008   63.8740 H   0  0  0  0  0  0  0  0  0  0  0  0
  129.1473  123.7140   64.9439 H   0  0  0  0  0  0  0  0  0  0  0  0
  128.1374  131.6020   65.4121 H   0  0  0  0  0  0  0  0  0  0  0  0
  129.4584  130.4252   64.9252 H   0  0  0  0  0  0  0  0  0  0  0  0
  130.2660  130.6260   63.0740 H   0  0  0  0  0  0  0  0  0  0  0  0
  132.9154  132.6905   58.9194 H   0  0  0  0  0  0  0  0  0  0  0  0
  132.5776  131.1329   58.0717 H   0  0  0  0  0  0  0  0  0  0  0  0
  131.5512  133.9299   57.3814 H   0  0  0  0  0  0  0  0  0  0  0  0
  132.5373  132.7895   56.3682 H   0  0  0  0  0  0  0  0  0  0  0  0
  130.2308  132.8469   55.5537 H   0  0  0  0  0  0  0  0  0  0  0  0
  130.6144  131.2331   56.2919 H   0  0  0  0  0  0  0  0  0  0  0  0
  128.8938  133.4779   57.4502 H   0  0  0  0  0  0  0  0  0  0  0  0
  128.4171  131.7892   57.0701 H   0  0  0  0  0  0  0  0  0  0  0  0
  130.9706  127.8241   69.6900 H   0  0  0  0  0  0  0  0  0  0  0  0
  130.8094  127.9118   72.1624 H   0  0  0  0  0  0  0  0  0  0  0  0
  1  2  1  0
  2  3  1  0
  3  4  2  0
  4  5  1  0
  5  6  2  0
  6  7  1  0
  7  8  2  0
  8  9  1  0
  9 10  1  0
 10 11  2  0
 11 12  1  0
 12 13  2  0
 13 14  1  0
 14 15  1  0
 13 16  1  0
 16 17  2  0
  9 18  2  0
 18 19  1  0
 19 20  3  0
 18 21  1  0
 21 22  1  0
 22 23  1  0
 23 24  1  0
 24 25  2  0
 24 26  1  0
 26 27  1  0
 27 28  1  0
 28 29  1  0
 29 30  2  0
 30 31  1  0
 31 32  1  0
 32 33  3  0
 30 34  1  0
 34 35  1  0
 35 36  1  0
 36 37  1  0
 21 38  2  0
  6 39  1  0
 39 40  2  0
 40  3  1  0
 38  7  1  0
 17 10  1  0
 31 27  2  0
 37 29  1  0
  1 41  1  0
  1 42  1  0
  1 43  1  0
  4 44  1  0
  5 45  1  0
  8 46  1  0
 11 47  1  0
 12 48  1  0
 15 49  1  0
 15 50  1  0
 15 51  1  0
 16 52  1  0
 17 53  1  0
 23 54  1  0
 23 55  1  0
 26 56  1  0
 34 57  1  0
 34 58  1  0
 35 59  1  0
 35 60  1  0
 36 61  1  0
 36 62  1  0
 37 63  1  0
 37 64  1  0
 39 65  1  0
 40 66  1  0
M  END
>  <Binding energies>  (1) 
[-10.99]

>  <Ligand effiencies>  (1) 
[-0.2680487804878049]

>  <Interactions>  (1) 
["V-A:LEU:363:CD1:3189, V-A:PRO:540:CA:4883, V-A:PRO:540:CB:4885, V-A:PRO:540:CD:4887, V-A:PRO:540:CG:4886, V-A:PRO:540:N:4884, V-A:MET:535:CE:4835, V-A:ILE:369:CD1:3239, V-B:GLU:543:CG:9879, V-A:LEU:475:CD2:4259, V-B:GLU:543:CB:9878, H-A:TYR:484:OH:4348, V-A:GLU:543:CD:4908, V-A:TYR:484:CE2:4346, V-A:GLY:454:CA:4049, V-A:ARG:545:CZ:4926, V-B:GLU:543:CD:9880, V-B:HIS:456:CE1:9041, V-B:GLY:544:C:9884, V-B:GLU:543:C:9874, V-B:HIS:456:CD2:9039, V-A:HIS:456:CE1:4070, V-A:GLU:543:CG:4907, V-B:GLY:544:CA:9886, H-B:LYS:547:NZ:9923, H-A:GLU:543:OE1:4909, H-B:TYR:484:OH:9319, H-A:ARG:545:NH2:4928, H-A:GLY:454:N:4050, V-A:ILE:538:CB:4862"]

$$$$
RR5_Rahimova_2017
     RDKit          3D

 77 82  0  0  0  0  0  0  0  0999 V2000
  126.9470  127.2140   59.0520 O   0  0  0  0  0  0  0  0  0  0  0  0
  126.9570  126.7550   60.1930 C   0  0  0  0  0  0  0  0  0  0  0  0
  126.3520  127.5730   61.3500 C   0  0  0  0  0  0  0  0  0  0  0  0
  127.3900  128.4800   62.1020 C   0  0  2  0  0  0  0  0  0  0  0  0
  127.6070  129.8110   61.5000 N   0  0  0  0  0  0  0  0  0  0  0  0
  126.5610  130.5380   60.9470 C   0  0  0  0  0  0  0  0  0  0  0  0
  125.3710  130.2160   60.9260 O   0  0  0  0  0  0  0  0  0  0  0  0
  127.0640  131.6660   60.4150 O   0  0  0  0  0  0  0  0  0  0  0  0
  127.6670  131.6730   59.1240 C   0  0  0  0  0  0  0  0  0  0  0  0
  128.9320  132.5600   59.1140 C   0  0  0  0  0  0  0  0  0  0  0  0
  129.9470  132.1850   60.1790 C   0  0  0  0  0  0  0  0  0  0  0  0
  129.7980  132.1240   61.5680 C   0  0  0  0  0  0  0  0  0  0  0  0
  130.8730  131.7270   62.3650 C   0  0  0  0  0  0  0  0  0  0  0  0
  132.0950  131.3940   61.7800 C   0  0  0  0  0  0  0  0  0  0  0  0
  132.2480  131.4580   60.3930 C   0  0  0  0  0  0  0  0  0  0  0  0
  131.1710  131.8550   59.5980 C   0  0  0  0  0  0  0  0  0  0  0  0
  131.0530  132.0170   58.1400 C   0  0  0  0  0  0  0  0  0  0  0  0
  131.9840  131.8300   57.1160 C   0  0  0  0  0  0  0  0  0  0  0  0
  131.6150  132.0790   55.7930 C   0  0  0  0  0  0  0  0  0  0  0  0
  130.3200  132.5110   55.4960 C   0  0  0  0  0  0  0  0  0  0  0  0
  129.3930  132.6930   56.5220 C   0  0  0  0  0  0  0  0  0  0  0  0
  129.7570  132.4420   57.8470 C   0  0  0  0  0  0  0  0  0  0  0  0
  128.7480  127.7500   62.2560 C   0  0  0  0  0  0  0  0  0  0  0  0
  128.8780  126.6060   62.6420 O   0  0  0  0  0  0  0  0  0  0  0  0
  129.7610  128.5810   61.8730 O   0  0  0  0  0  0  0  0  0  0  0  0
  127.4410  125.5390   60.5320 N   0  0  0  0  0  0  0  0  0  0  0  0
  128.0930  124.4410   59.7570 C   0  0  0  0  0  0  0  0  0  0  0  0
  129.2560  125.1980   59.0330 C   0  0  0  0  0  0  0  0  0  0  0  0
  129.1650  125.5580   57.6780 C   0  0  0  0  0  0  0  0  0  0  0  0
  130.2050  126.2330   57.0440 C   0  0  0  0  0  0  0  0  0  0  0  0
  131.3590  126.5500   57.7520 C   0  0  0  0  0  0  0  0  0  0  0  0
  131.4760  126.2080   59.0940 C   0  0  0  0  0  0  0  0  0  0  0  0
  130.4320  125.5430   59.7290 C   0  0  0  0  0  0  0  0  0  0  0  0
  128.6140  123.3860   60.7910 C   0  0  0  0  0  0  0  0  0  0  0  0
  129.2280  122.1920   60.3810 C   0  0  0  0  0  0  0  0  0  0  0  0
  129.6670  121.2590   61.3180 C   0  0  0  0  0  0  0  0  0  0  0  0
  129.4940  121.5070   62.6750 C   0  0  0  0  0  0  0  0  0  0  0  0
  128.8910  122.6840   63.1060 C   0  0  0  0  0  0  0  0  0  0  0  0
  128.4620  123.6190   62.1690 C   0  0  0  0  0  0  0  0  0  0  0  0
  127.0070  123.9020   58.7660 C   0  0  0  0  0  0  0  0  0  0  0  0
  127.3370  122.9670   57.7690 C   0  0  0  0  0  0  0  0  0  0  0  0
  126.3780  122.4910   56.8790 C   0  0  0  0  0  0  0  0  0  0  0  0
  125.0650  122.9380   56.9760 C   0  0  0  0  0  0  0  0  0  0  0  0
  124.7050  123.8510   57.9600 C   0  0  0  0  0  0  0  0  0  0  0  0
  125.6680  124.3250   58.8470 C   0  0  0  0  0  0  0  0  0  0  0  0
  125.5612  128.2187   60.9406 H   0  0  0  0  0  0  0  0  0  0  0  0
  125.9699  126.8497   62.0854 H   0  0  0  0  0  0  0  0  0  0  0  0
  126.9366  128.6646   63.0871 H   0  0  0  0  0  0  0  0  0  0  0  0
  128.5560  130.1140   61.3390 H   0  0  0  0  0  0  0  0  0  0  0  0
  127.9455  130.6446   58.8505 H   0  0  0  0  0  0  0  0  0  0  0  0
  126.9455  132.0797   58.4001 H   0  0  0  0  0  0  0  0  0  0  0  0
  128.4943  133.5592   59.2557 H   0  0  0  0  0  0  0  0  0  0  0  0
  128.8360  132.3882   62.0315 H   0  0  0  0  0  0  0  0  0  0  0  0
  130.7563  131.6766   63.4576 H   0  0  0  0  0  0  0  0  0  0  0  0
  132.9391  131.0806   62.4118 H   0  0  0  0  0  0  0  0  0  0  0  0
  133.2111  131.1972   59.9299 H   0  0  0  0  0  0  0  0  0  0  0  0
  133.0029  131.4882   57.3508 H   0  0  0  0  0  0  0  0  0  0  0  0
  132.3451  131.9348   54.9829 H   0  0  0  0  0  0  0  0  0  0  0  0
  130.0315  132.7076   54.4529 H   0  0  0  0  0  0  0  0  0  0  0  0
  128.3740  133.0346   56.2875 H   0  0  0  0  0  0  0  0  0  0  0  0
  130.4290  128.6780   62.5550 H   0  0  0  0  0  0  0  0  0  0  0  0
  127.4580  125.3650   61.5260 H   0  0  0  0  0  0  0  0  0  0  0  0
  128.2586  125.3028   57.1094 H   0  0  0  0  0  0  0  0  0  0  0  0
  130.1137  126.5150   55.9847 H   0  0  0  0  0  0  0  0  0  0  0  0
  132.1838  127.0743   57.2472 H   0  0  0  0  0  0  0  0  0  0  0  0
  132.3897  126.4619   59.6514 H   0  0  0  0  0  0  0  0  0  0  0  0
  130.5260  125.2818   60.7934 H   0  0  0  0  0  0  0  0  0  0  0  0
  129.3640  121.9908   59.3081 H   0  0  0  0  0  0  0  0  0  0  0  0
  130.1494  120.3282   60.9849 H   0  0  0  0  0  0  0  0  0  0  0  0
  129.8365  120.7670   63.4133 H   0  0  0  0  0  0  0  0  0  0  0  0
  128.7541  122.8745   64.1807 H   0  0  0  0  0  0  0  0  0  0  0  0
  127.9967  124.5549   62.5118 H   0  0  0  0  0  0  0  0  0  0  0  0
  128.3727  122.6047   57.6907 H   0  0  0  0  0  0  0  0  0  0  0  0
  126.6579  121.7642   56.1022 H   0  0  0  0  0  0  0  0  0  0  0  0
  124.3072  122.5671   56.2702 H   0  0  0  0  0  0  0  0  0  0  0  0
  123.6639  124.1976   58.0378 H   0  0  0  0  0  0  0  0  0  0  0  0
  125.3759  125.0443   59.6263 H   0  0  0  0  0  0  0  0  0  0  0  0
  1  2  2  0
  2  3  1  0
  3  4  1  0
  4  5  1  0
  5  6  1  0
  6  7  2  0
  6  8  1  0
  8  9  1  0
  9 10  1  0
 10 11  1  0
 11 12  2  0
 12 13  1  0
 13 14  2  0
 14 15  1  0
 15 16  2  0
 16 17  1  0
 17 18  2  0
 18 19  1  0
 19 20  2  0
 20 21  1  0
 21 22  2  0
  4 23  1  0
 23 24  2  0
 23 25  1  0
  2 26  1  0
 26 27  1  0
 27 28  1  0
 28 29  2  0
 29 30  1  0
 30 31  2  0
 31 32  1  0
 32 33  2  0
 27 34  1  0
 34 35  2  0
 35 36  1  0
 36 37  2  0
 37 38  1  0
 38 39  2  0
 27 40  1  0
 40 41  2  0
 41 42  1  0
 42 43  2  0
 43 44  1  0
 44 45  2  0
 22 10  1  0
 33 28  1  0
 39 34  1  0
 45 40  1  0
 16 11  1  0
 22 17  1  0
  3 46  1  0
  3 47  1  0
  4 48  1  1
  5 49  1  0
  9 50  1  0
  9 51  1  0
 10 52  1  0
 12 53  1  0
 13 54  1  0
 14 55  1  0
 15 56  1  0
 18 57  1  0
 19 58  1  0
 20 59  1  0
 21 60  1  0
 25 61  1  0
 26 62  1  0
 29 63  1  0
 30 64  1  0
 31 65  1  0
 32 66  1  0
 33 67  1  0
 35 68  1  0
 36 69  1  0
 37 70  1  0
 38 71  1  0
 39 72  1  0
 41 73  1  0
 42 74  1  0
 43 75  1  0
 44 76  1  0
 45 77  1  0
M  END
>  <Binding energies>  (1) 
[-10.06]

>  <Ligand effiencies>  (1) 
[-0.20958333333333334]

>  <Interactions>  (1) 
["V-A:LEU:363:CD1:3189, V-A:ASP:366:CG:3213, V-A:PRO:540:CA:4883, V-A:PRO:540:CB:4885, V-A:PRO:540:N:4884, V-A:TYR:539:C:4867, V-A:ASP:366:CB:3212, V-B:PRO:540:N:9856, V-B:PRO:540:CB:9857, V-B:PRO:540:CA:9855, V-B:TYR:539:CE2:9848, V-B:PRO:540:CD:9859, V-B:ASP:366:CG:8184, V-B:MET:535:CE:9807, V-B:LEU:363:CD1:8160, V-B:PRO:540:CG:9858, V-B:TYR:539:C:9839, H-B:GLU:543:OE1:9881, V-B:TYR:539:CD2:9846, V-A:MET:535:CE:4835, V-B:ALA:541:CB:9864, V-B:GLU:543:CG:9879, V-A:LEU:475:CD2:4259, V-A:GLU:543:CD:4908, V-A:GLU:543:CG:4907, V-A:TYR:531:CZ:4794, H-A:GLU:543:OE1:4909, H-A:GLU:543:OE2:4910, V-A:TYR:539:CE1:4875, V-B:ALA:541:CA:9862, V-A:TYR:539:CD1:4873, V-A:ILE:538:CA:4860, V-A:ILE:538:CG2:4863, V-A:ILE:538:CB:4862"]

$$$$
RR5_Rahimova_2017-again1
     RDKit          3D

 76 81  0  0  0  0  0  0  0  0999 V2000
  130.1470  126.1340   56.0320 O   0  0  0  0  0  0  0  0  0  0  0  0
  129.2900  125.5540   56.6980 C   0  0  0  0  0  0  0  0  0  0  0  0
  128.3960  124.5040   56.0050 C   0  0  0  0  0  0  0  0  0  0  0  0
  127.4650  123.6540   56.9320 C   0  0  2  0  0  0  0  0  0  0  0  0
  128.2290  123.2240   58.1210 N   0  0  0  0  0  0  0  0  0  0  0  0
  127.6530  123.1900   59.3860 C   0  0  0  0  0  0  0  0  0  0  0  0
  126.4990  123.5170   59.6770 O   0  0  0  0  0  0  0  0  0  0  0  0
  128.5670  122.7350   60.2650 O   0  0  0  0  0  0  0  0  0  0  0  0
  129.2070  123.6190   61.1780 C   0  0  0  0  0  0  0  0  0  0  0  0
  129.9310  122.8150   62.2750 C   0  0  0  0  0  0  0  0  0  0  0  0
  131.1500  122.0630   61.7710 C   0  0  0  0  0  0  0  0  0  0  0  0
  131.2440  121.0760   60.7860 C   0  0  0  0  0  0  0  0  0  0  0  0
  132.4870  120.5250   60.4690 C   0  0  0  0  0  0  0  0  0  0  0  0
  133.6350  120.9540   61.1370 C   0  0  0  0  0  0  0  0  0  0  0  0
  133.5440  121.9340   62.1260 C   0  0  0  0  0  0  0  0  0  0  0  0
  132.3000  122.4850   62.4400 C   0  0  0  0  0  0  0  0  0  0  0  0
  131.9150  123.5060   63.4270 C   0  0  0  0  0  0  0  0  0  0  0  0
  132.6790  124.2290   64.3460 C   0  0  0  0  0  0  0  0  0  0  0  0
  132.0540  125.1450   65.1940 C   0  0  0  0  0  0  0  0  0  0  0  0
  130.6730  125.3370   65.1220 C   0  0  0  0  0  0  0  0  0  0  0  0
  129.9120  124.6150   64.2000 C   0  0  0  0  0  0  0  0  0  0  0  0
  130.5350  123.6980   63.3480 C   0  0  0  0  0  0  0  0  0  0  0  0
  126.8270  122.4260   56.1660 C   0  0  0  0  0  0  0  0  0  0  0  0
  127.5110  122.0060   55.2030 O   0  0  0  0  0  0  0  0  0  0  0  0
  125.7430  121.9810   56.6130 O   0  0  0  0  0  0  0  0  0  0  0  0
  129.1760  125.7010   58.0350 N   0  0  0  0  0  0  0  0  0  0  0  0
  129.9100  126.6100   58.9520 C   0  0  0  0  0  0  0  0  0  0  0  0
  130.1510  127.9900   58.2600 C   0  0  0  0  0  0  0  0  0  0  0  0
  131.3900  128.6460   58.3690 C   0  0  0  0  0  0  0  0  0  0  0  0
  131.6120  129.8690   57.7430 C   0  0  0  0  0  0  0  0  0  0  0  0
  130.5960  130.4540   56.9940 C   0  0  0  0  0  0  0  0  0  0  0  0
  129.3620  129.8240   56.8670 C   0  0  0  0  0  0  0  0  0  0  0  0
  129.1420  128.6010   57.4940 C   0  0  0  0  0  0  0  0  0  0  0  0
  129.1510  126.9860   60.2650 C   0  0  0  0  0  0  0  0  0  0  0  0
  129.7740  127.7550   61.2640 C   0  0  0  0  0  0  0  0  0  0  0  0
  129.1020  128.0900   62.4360 C   0  0  0  0  0  0  0  0  0  0  0  0
  127.7910  127.6640   62.6240 C   0  0  0  0  0  0  0  0  0  0  0  0
  127.1480  126.9100   61.6460 C   0  0  0  0  0  0  0  0  0  0  0  0
  127.8240  126.5770   60.4760 C   0  0  0  0  0  0  0  0  0  0  0  0
  131.2710  125.8780   59.2110 C   0  0  0  0  0  0  0  0  0  0  0  0
  131.7470  125.6400   60.5130 C   0  0  0  0  0  0  0  0  0  0  0  0
  132.9480  124.9720   60.7270 C   0  0  0  0  0  0  0  0  0  0  0  0
  133.6880  124.5180   59.6400 C   0  0  0  0  0  0  0  0  0  0  0  0
  133.2300  124.7190   58.3430 C   0  0  0  0  0  0  0  0  0  0  0  0
  132.0280  125.3880   58.1320 C   0  0  0  0  0  0  0  0  0  0  0  0
  127.7555  125.0343   55.2849 H   0  0  0  0  0  0  0  0  0  0  0  0
  129.0930  123.7822   55.5542 H   0  0  0  0  0  0  0  0  0  0  0  0
  126.6199  124.2791   57.2561 H   0  0  0  0  0  0  0  0  0  0  0  0
  129.1730  122.8850   57.9940 H   0  0  0  0  0  0  0  0  0  0  0  0
  129.9392  124.2349   60.6353 H   0  0  0  0  0  0  0  0  0  0  0  0
  128.4486  124.2640   61.6459 H   0  0  0  0  0  0  0  0  0  0  0  0
  129.1339  122.1511   62.6408 H   0  0  0  0  0  0  0  0  0  0  0  0
  130.3399  120.7338   60.2612 H   0  0  0  0  0  0  0  0  0  0  0  0
  132.5618  119.7510   59.6910 H   0  0  0  0  0  0  0  0  0  0  0  0
  134.6129  120.5188   60.8834 H   0  0  0  0  0  0  0  0  0  0  0  0
  134.4474  122.2707   62.6555 H   0  0  0  0  0  0  0  0  0  0  0  0
  133.7671  124.0774   64.4012 H   0  0  0  0  0  0  0  0  0  0  0  0
  132.6506  125.7165   65.9202 H   0  0  0  0  0  0  0  0  0  0  0  0
  130.1834  126.0583   65.7928 H   0  0  0  0  0  0  0  0  0  0  0  0
  128.8241  124.7675   64.1442 H   0  0  0  0  0  0  0  0  0  0  0  0
  128.3980  125.2250   58.4670 H   0  0  0  0  0  0  0  0  0  0  0  0
  132.1965  128.1853   58.9583 H   0  0  0  0  0  0  0  0  0  0  0  0
  132.5861  130.3707   57.8400 H   0  0  0  0  0  0  0  0  0  0  0  0
  130.7694  131.4209   56.4990 H   0  0  0  0  0  0  0  0  0  0  0  0
  128.5627  130.2910   56.2729 H   0  0  0  0  0  0  0  0  0  0  0  0
  128.1656  128.1055   57.3890 H   0  0  0  0  0  0  0  0  0  0  0  0
  130.8090  128.0973   61.1169 H   0  0  0  0  0  0  0  0  0  0  0  0
  129.6050  128.6886   63.2097 H   0  0  0  0  0  0  0  0  0  0  0  0
  127.2592  127.9245   63.5510 H   0  0  0  0  0  0  0  0  0  0  0  0
  126.1100  126.5789   61.7975 H   0  0  0  0  0  0  0  0  0  0  0  0
  127.3110  125.9842   59.7044 H   0  0  0  0  0  0  0  0  0  0  0  0
  131.1600  125.9878   61.3758 H   0  0  0  0  0  0  0  0  0  0  0  0
  133.3112  124.8034   61.7515 H   0  0  0  0  0  0  0  0  0  0  0  0
  134.6419  123.9965   59.8079 H   0  0  0  0  0  0  0  0  0  0  0  0
  133.8150  124.3509   57.4873 H   0  0  0  0  0  0  0  0  0  0  0  0
  131.6642  125.5359   57.1045 H   0  0  0  0  0  0  0  0  0  0  0  0
  1  2  2  0
  2  3  1  0
  3  4  1  0
  4  5  1  0
  5  6  1  0
  6  7  2  0
  6  8  1  0
  8  9  1  0
  9 10  1  0
 10 11  1  0
 11 12  2  0
 12 13  1  0
 13 14  2  0
 14 15  1  0
 15 16  2  0
 16 17  1  0
 17 18  2  0
 18 19  1  0
 19 20  2  0
 20 21  1  0
 21 22  2  0
  4 23  1  0
 23 24  2  0
 23 25  1  0
  2 26  1  0
 26 27  1  0
 27 28  1  0
 28 29  2  0
 29 30  1  0
 30 31  2  0
 31 32  1  0
 32 33  2  0
 27 34  1  0
 34 35  2  0
 35 36  1  0
 36 37  2  0
 37 38  1  0
 38 39  2  0
 27 40  1  0
 40 41  2  0
 41 42  1  0
 42 43  2  0
 43 44  1  0
 44 45  2  0
 22 10  1  0
 33 28  1  0
 39 34  1  0
 45 40  1  0
 16 11  1  0
 22 17  1  0
  3 46  1  0
  3 47  1  0
  4 48  1  1
  5 49  1  0
  9 50  1  0
  9 51  1  0
 10 52  1  0
 12 53  1  0
 13 54  1  0
 14 55  1  0
 15 56  1  0
 18 57  1  0
 19 58  1  0
 20 59  1  0
 21 60  1  0
 26 61  1  0
 29 62  1  0
 30 63  1  0
 31 64  1  0
 32 65  1  0
 33 66  1  0
 35 67  1  0
 36 68  1  0
 37 69  1  0
 38 70  1  0
 39 71  1  0
 41 72  1  0
 42 73  1  0
 43 74  1  0
 44 75  1  0
 45 76  1  0
M  CHG  1  25  -1
M  END
>  <Binding energies>  (1) 
[-9.28]

>  <Ligand effiencies>  (1) 
[-0.19744680851063828]

>  <Interactions>  (1) 
["V-A:ASP:366:CG:3213, H-A:TYR:531:OH:4795, H-B:TYR:539:OH:9850, V-A:ASP:366:CB:3212, V-B:TYR:539:CZ:9849, V-B:PRO:540:N:9856, V-B:TYR:539:CE1:9847, V-B:TYR:539:CD1:9845, V-B:PRO:540:CA:9855, V-B:TYR:539:CE2:9848, H-B:TYR:539:N:9842, V-B:PRO:540:CD:9859, V-B:TYR:539:CD2:9846, V-A:MET:535:CE:4835, V-A:ASP:366:C:3208, V-A:ASP:366:CA:3210, V-B:GLU:543:CG:9879, V-A:ILE:369:CG2:3237, V-A:LEU:475:CD2:4259, V-A:GLU:543:CD:4908, V-A:GLY:454:CA:4049, V-A:ARG:545:CZ:4926, V-B:GLU:543:CD:9880, V-A:TYR:531:CZ:4794, V-A:TYR:531:CE2:4793, V-A:SER:385:CA:3407, V-A:SER:385:CB:3409, V-A:SER:385:C:3405"]

$$$$
RR6_Rahimova_2017
     RDKit          3D

 63 66  0  0  0  0  0  0  0  0999 V2000
  131.5250  132.1800   56.1560 C   0  0  0  0  0  0  0  0  0  0  0  0
  130.9570  133.2490   56.9000 O   0  0  0  0  0  0  0  0  0  0  0  0
  129.6880  133.1710   57.3770 C   0  0  0  0  0  0  0  0  0  0  0  0
  128.6940  133.4920   56.7190 O   0  0  0  0  0  0  0  0  0  0  0  0
  129.6140  132.6550   58.7860 C   0  0  0  0  0  0  0  0  0  0  0  0
  130.7340  132.1300   59.4450 C   0  0  0  0  0  0  0  0  0  0  0  0
  130.6310  131.6520   60.7500 C   0  0  0  0  0  0  0  0  0  0  0  0
  129.3970  131.6890   61.4170 C   0  0  0  0  0  0  0  0  0  0  0  0
  129.1760  131.2080   62.7210 N   0  0  0  0  0  0  0  0  0  0  0  0
  128.2840  131.6250   63.6470 C   0  0  0  0  0  0  0  0  0  0  0  0
  127.4680  132.5340   63.4940 O   0  0  0  0  0  0  0  0  0  0  0  0
  128.3680  130.9260   65.0080 C   0  0  0  0  0  0  0  0  0  0  0  0
  127.3430  129.4210   65.1220 S   0  0  0  0  0  0  0  0  0  0  0  0
  128.3700  128.1550   65.8400 C   0  0  0  0  0  0  0  0  0  0  0  0
  128.4110  128.1720   67.1940 N   0  0  0  0  0  0  0  0  0  0  0  0
  129.1370  127.2360   67.8570 C   0  0  0  0  0  0  0  0  0  0  0  0
  129.0810  127.2870   69.3550 C   0  0  0  0  0  0  0  0  0  0  0  0
  130.1940  127.6980   70.1060 C   0  0  0  0  0  0  0  0  0  0  0  0
  130.1460  127.7320   71.4970 C   0  0  0  0  0  0  0  0  0  0  0  0
  128.9790  127.3610   72.1650 C   0  0  0  0  0  0  0  0  0  0  0  0
  128.9350  127.3910   73.6820 C   0  0  0  0  0  0  0  0  0  0  0  0
  127.8640  126.9530   71.4380 C   0  0  0  0  0  0  0  0  0  0  0  0
  127.9170  126.9210   70.0480 C   0  0  0  0  0  0  0  0  0  0  0  0
  129.8550  126.2610   67.1580 C   0  0  0  0  0  0  0  0  0  0  0  0
  129.8320  126.2250   65.7560 C   0  0  0  0  0  0  0  0  0  0  0  0
  130.6060  125.1450   65.0740 C   0  0  0  0  0  0  0  0  0  0  0  0
  129.9760  123.9510   64.7120 C   0  0  0  0  0  0  0  0  0  0  0  0
  130.6870  122.9450   64.0620 C   0  0  0  0  0  0  0  0  0  0  0  0
  132.0360  123.1160   63.7560 C   0  0  0  0  0  0  0  0  0  0  0  0
  132.6600  122.0660   63.1090 O   0  0  0  0  0  0  0  0  0  0  0  0
  133.8680  122.3110   62.3960 C   0  0  0  0  0  0  0  0  0  0  0  0
  132.6720  124.3150   64.1130 C   0  0  0  0  0  0  0  0  0  0  0  0
  131.9580  125.3180   64.7630 C   0  0  0  0  0  0  0  0  0  0  0  0
  129.0710  127.2040   65.0710 C   0  0  0  0  0  0  0  0  0  0  0  0
  129.0260  127.2420   63.6050 C   0  0  0  0  0  0  0  0  0  0  0  0
  128.9900  127.2700   62.4490 N   0  0  0  0  0  0  0  0  0  0  0  0
  128.2840  132.2260   60.7700 C   0  0  0  0  0  0  0  0  0  0  0  0
  128.3890  132.7010   59.4650 C   0  0  0  0  0  0  0  0  0  0  0  0
  131.9264  131.4246   56.8476 H   0  0  0  0  0  0  0  0  0  0  0  0
  130.7510  131.7225   55.5222 H   0  0  0  0  0  0  0  0  0  0  0  0
  132.3373  132.5653   55.5222 H   0  0  0  0  0  0  0  0  0  0  0  0
  131.7038  132.0949   58.9271 H   0  0  0  0  0  0  0  0  0  0  0  0
  131.5180  131.2453   61.2577 H   0  0  0  0  0  0  0  0  0  0  0  0
  129.8370  130.5090   63.0240 H   0  0  0  0  0  0  0  0  0  0  0  0
  129.4162  130.6474   65.1915 H   0  0  0  0  0  0  0  0  0  0  0  0
  127.9853  131.6340   65.7579 H   0  0  0  0  0  0  0  0  0  0  0  0
  131.1170  127.9974   69.5879 H   0  0  0  0  0  0  0  0  0  0  0  0
  131.0291  128.0517   72.0697 H   0  0  0  0  0  0  0  0  0  0  0  0
  129.7807  126.8144   74.0848 H   0  0  0  0  0  0  0  0  0  0  0  0
  129.0022  128.4323   74.0303 H   0  0  0  0  0  0  0  0  0  0  0  0
  127.9902  126.9481   74.0303 H   0  0  0  0  0  0  0  0  0  0  0  0
  126.9430  126.6565   71.9614 H   0  0  0  0  0  0  0  0  0  0  0  0
  127.0295  126.6027   69.4815 H   0  0  0  0  0  0  0  0  0  0  0  0
  130.4434  125.5152   67.7127 H   0  0  0  0  0  0  0  0  0  0  0  0
  128.9104  123.8047   64.9422 H   0  0  0  0  0  0  0  0  0  0  0  0
  130.1798  122.0081   63.7880 H   0  0  0  0  0  0  0  0  0  0  0  0
  134.6880  122.4773   63.1101 H   0  0  0  0  0  0  0  0  0  0  0  0
  134.1031  121.4423   61.7635 H   0  0  0  0  0  0  0  0  0  0  0  0
  133.7461  123.2027   61.7635 H   0  0  0  0  0  0  0  0  0  0  0  0
  133.7366  124.4626   63.8788 H   0  0  0  0  0  0  0  0  0  0  0  0
  132.4630  126.2566   65.0348 H   0  0  0  0  0  0  0  0  0  0  0  0
  127.3178  132.2746   61.2935 H   0  0  0  0  0  0  0  0  0  0  0  0
  127.5026  133.1159   58.9629 H   0  0  0  0  0  0  0  0  0  0  0  0
  1  2  1  0
  2  3  1  0
  3  4  2  0
  3  5  1  0
  5  6  2  0
  6  7  1  0
  7  8  2  0
  8  9  1  0
  9 10  1  0
 10 11  2  0
 10 12  1  0
 12 13  1  0
 13 14  1  0
 14 15  2  0
 15 16  1  0
 16 17  1  0
 17 18  2  0
 18 19  1  0
 19 20  2  0
 20 21  1  0
 20 22  1  0
 22 23  2  0
 16 24  2  0
 24 25  1  0
 25 26  1  0
 26 27  2  0
 27 28  1  0
 28 29  2  0
 29 30  1  0
 30 31  1  0
 29 32  1  0
 32 33  2  0
 25 34  2  0
 34 35  1  0
 35 36  3  0
  8 37  1  0
 37 38  2  0
 38  5  1  0
 34 14  1  0
 23 17  1  0
 33 26  1  0
  1 39  1  0
  1 40  1  0
  1 41  1  0
  6 42  1  0
  7 43  1  0
  9 44  1  0
 12 45  1  0
 12 46  1  0
 18 47  1  0
 19 48  1  0
 21 49  1  0
 21 50  1  0
 21 51  1  0
 22 52  1  0
 23 53  1  0
 24 54  1  0
 27 55  1  0
 28 56  1  0
 31 57  1  0
 31 58  1  0
 31 59  1  0
 32 60  1  0
 33 61  1  0
 37 62  1  0
 38 63  1  0
M  END
>  <Binding energies>  (1) 
[-10.08]

>  <Ligand effiencies>  (1) 
[-0.25846153846153846]

>  <Interactions>  (1) 
["V-A:LEU:363:CD1:3189, V-A:PRO:540:CA:4883, V-A:PRO:540:CB:4885, V-A:PRO:540:N:4884, V-A:TYR:539:C:4867, H-A:TYR:539:N:4870, V-A:ILE:369:CD1:3239, V-B:GLU:543:CG:9879, V-A:LEU:475:CD2:4259, V-B:GLU:543:CB:9878, V-A:GLU:543:CD:4908, V-A:GLY:454:CA:4049, V-A:ARG:545:CZ:4926, V-B:GLU:543:CD:9880, V-B:HIS:456:CE1:9041, V-B:GLY:544:C:9884, V-B:GLU:543:C:9874, V-A:HIS:456:CE1:4070, V-A:GLU:543:CG:4907, V-A:GLU:543:CB:4906, H-A:GLU:543:OE1:4909, V-B:TYR:484:CZ:9318, H-B:TYR:484:OH:9319, V-A:TYR:539:CE1:4875, V-A:TYR:539:CD1:4873, V-A:TYR:539:CA:4869, V-B:TYR:484:CE2:9317, V-A:ILE:538:CG2:4863, V-A:ILE:538:CB:4862"]

$$$$
RR7_Rahimova_2017
     RDKit          3D

 80 86  0  0  0  0  0  0  0  0999 V2000
  133.1260  131.5300   61.6650 C   0  0  0  0  0  0  0  0  0  0  0  0
  133.0260  131.6470   60.2490 O   0  0  0  0  0  0  0  0  0  0  0  0
  131.8160  131.3830   59.6360 C   0  0  0  0  0  0  0  0  0  0  0  0
  130.6840  131.4230   60.4480 C   0  0  0  0  0  0  0  0  0  0  0  0
  129.4220  131.1760   59.9190 C   0  0  0  0  0  0  0  0  0  0  0  0
  129.2620  130.8690   58.5590 C   0  0  0  0  0  0  0  0  0  0  0  0
  127.8550  130.6200   57.9320 C   0  0  0  0  0  0  0  0  0  0  0  0
  127.7700  129.2000   57.6740 O   0  0  0  0  0  0  0  0  0  0  0  0
  127.8750  128.7070   56.3340 C   0  0  0  0  0  0  0  0  0  0  0  0
  129.1870  127.9180   56.1930 C   0  0  1  0  0  0  0  0  0  0  0  0
  129.8220  127.9410   57.4680 O   0  0  0  0  0  0  0  0  0  0  0  0
  130.0320  126.6530   57.9710 C   0  0  1  0  0  0  0  0  0  0  0  0
  129.9230  126.6570   59.4180 N   0  0  0  0  0  0  0  0  0  0  0  0
  128.9710  127.2880   60.1990 C   0  0  0  0  0  0  0  0  0  0  0  0
  129.1350  127.1660   61.4930 N   0  0  0  0  0  0  0  0  0  0  0  0
  130.2950  126.4480   61.6080 C   0  0  0  0  0  0  0  0  0  0  0  0
  131.0180  125.9990   62.7300 C   0  0  0  0  0  0  0  0  0  0  0  0
  130.5210  126.2890   64.0140 N   0  0  0  0  0  0  0  0  0  0  0  0
  130.0070  125.4440   64.9400 C   0  0  0  0  0  0  0  0  0  0  0  0
  129.8770  124.2290   64.7750 O   0  0  0  0  0  0  0  0  0  0  0  0
  129.5500  126.0870   66.2320 C   0  0  0  0  0  0  0  0  0  0  0  0
  128.8010  127.2740   66.1890 C   0  0  0  0  0  0  0  0  0  0  0  0
  128.3660  127.8790   67.3640 C   0  0  0  0  0  0  0  0  0  0  0  0
  128.6710  127.3010   68.5920 C   0  0  0  0  0  0  0  0  0  0  0  0
  129.4080  126.1220   68.6560 C   0  0  0  0  0  0  0  0  0  0  0  0
  129.8460  125.5160   67.4810 C   0  0  0  0  0  0  0  0  0  0  0  0
  132.1790  125.3020   62.5410 N   0  0  0  0  0  0  0  0  0  0  0  0
  132.5810  125.0750   61.2630 C   0  0  0  0  0  0  0  0  0  0  0  0
  131.9620  125.4570   60.1140 N   0  0  0  0  0  0  0  0  0  0  0  0
  130.8250  126.1320   60.3300 C   0  0  0  0  0  0  0  0  0  0  0  0
  129.0180  125.7710   57.2520 C   0  0  0  0  0  0  0  0  0  0  0  0
  129.0160  126.4240   55.8810 C   0  0  2  0  0  0  0  0  0  0  0  0
  130.0500  125.9220   55.0510 O   0  0  0  0  0  0  0  0  0  0  0  0
  126.7020  130.9720   58.9080 C   0  0  0  0  0  0  0  0  0  0  0  0
  126.6240  132.2530   59.4800 C   0  0  0  0  0  0  0  0  0  0  0  0
  125.6030  132.5750   60.3680 C   0  0  0  0  0  0  0  0  0  0  0  0
  124.6470  131.6190   60.6950 C   0  0  0  0  0  0  0  0  0  0  0  0
  124.7040  130.3440   60.1400 C   0  0  0  0  0  0  0  0  0  0  0  0
  125.7270  130.0210   59.2530 C   0  0  0  0  0  0  0  0  0  0  0  0
  127.5490  131.4040   56.6240 C   0  0  0  0  0  0  0  0  0  0  0  0
  128.3980  132.4390   56.2010 C   0  0  0  0  0  0  0  0  0  0  0  0
  128.1270  133.1520   55.0370 C   0  0  0  0  0  0  0  0  0  0  0  0
  126.9960  132.8430   54.2870 C   0  0  0  0  0  0  0  0  0  0  0  0
  126.1340  131.8300   54.6940 C   0  0  0  0  0  0  0  0  0  0  0  0
  126.4060  131.1180   55.8580 C   0  0  0  0  0  0  0  0  0  0  0  0
  130.4020  130.8440   57.7430 C   0  0  0  0  0  0  0  0  0  0  0  0
  131.6660  131.0920   58.2730 C   0  0  0  0  0  0  0  0  0  0  0  0
  132.4819  132.2836   62.1416 H   0  0  0  0  0  0  0  0  0  0  0  0
  132.8039  130.5245   61.9735 H   0  0  0  0  0  0  0  0  0  0  0  0
  134.1694  131.6915   61.9735 H   0  0  0  0  0  0  0  0  0  0  0  0
  130.7900  131.6524   61.5186 H   0  0  0  0  0  0  0  0  0  0  0  0
  128.5393  131.2217   60.5738 H   0  0  0  0  0  0  0  0  0  0  0  0
  127.0224  128.0471   56.1158 H   0  0  0  0  0  0  0  0  0  0  0  0
  127.8696  129.5492   55.6264 H   0  0  0  0  0  0  0  0  0  0  0  0
  129.7363  128.3874   55.3636 H   0  0  0  0  0  0  0  0  0  0  0  0
  131.0426  126.2615   57.7829 H   0  0  0  0  0  0  0  0  0  0  0  0
  128.1339  127.8533   59.7633 H   0  0  0  0  0  0  0  0  0  0  0  0
  130.5540  127.2660   64.2650 H   0  0  0  0  0  0  0  0  0  0  0  0
  128.5561  127.7294   65.2181 H   0  0  0  0  0  0  0  0  0  0  0  0
  127.7831  128.8109   67.3221 H   0  0  0  0  0  0  0  0  0  0  0  0
  128.3267  127.7799   69.5205 H   0  0  0  0  0  0  0  0  0  0  0  0
  129.6436  125.6705   69.6310 H   0  0  0  0  0  0  0  0  0  0  0  0
  130.4278  124.5838   67.5313 H   0  0  0  0  0  0  0  0  0  0  0  0
  133.5201  124.5148   61.1435 H   0  0  0  0  0  0  0  0  0  0  0  0
  129.3511  124.7238   57.2037 H   0  0  0  0  0  0  0  0  0  0  0  0
  128.0321  125.7132   57.7364 H   0  0  0  0  0  0  0  0  0  0  0  0
  128.0969  126.2180   55.3128 H   0  0  0  0  0  0  0  0  0  0  0  0
  130.4050  125.1260   55.4530 H   0  0  0  0  0  0  0  0  0  0  0  0
  127.3793  133.0101   59.2225 H   0  0  0  0  0  0  0  0  0  0  0  0
  125.5518  133.5811   60.8097 H   0  0  0  0  0  0  0  0  0  0  0  0
  123.8397  131.8727   61.3977 H   0  0  0  0  0  0  0  0  0  0  0  0
  123.9431  129.5939   60.4014 H   0  0  0  0  0  0  0  0  0  0  0  0
  125.7725  129.0117   58.8181 H   0  0  0  0  0  0  0  0  0  0  0  0
  129.2881  132.6894   56.7968 H   0  0  0  0  0  0  0  0  0  0  0  0
  128.8034  133.9559   54.7113 H   0  0  0  0  0  0  0  0  0  0  0  0
  126.7822  133.4041   53.3654 H   0  0  0  0  0  0  0  0  0  0  0  0
  125.2406  131.5927   54.0978 H   0  0  0  0  0  0  0  0  0  0  0  0
  125.7189  130.3225   56.1822 H   0  0  0  0  0  0  0  0  0  0  0  0
  130.2967  130.6256   56.6700 H   0  0  0  0  0  0  0  0  0  0  0  0
  132.5501  131.0594   57.6193 H   0  0  0  0  0  0  0  0  0  0  0  0
  1  2  1  0
  2  3  1  0
  3  4  2  0
  4  5  1  0
  5  6  2  0
  6  7  1  0
  7  8  1  0
  8  9  1  0
  9 10  1  0
 10 11  1  0
 11 12  1  0
 12 13  1  0
 13 14  1  0
 14 15  2  0
 15 16  1  0
 16 17  2  0
 17 18  1  0
 18 19  1  0
 19 20  2  0
 19 21  1  0
 21 22  2  0
 22 23  1  0
 23 24  2  0
 24 25  1  0
 25 26  2  0
 17 27  1  0
 27 28  2  0
 28 29  1  0
 29 30  2  0
 12 31  1  0
 31 32  1  0
 32 33  1  0
  7 34  1  0
 34 35  2  0
 35 36  1  0
 36 37  2  0
 37 38  1  0
 38 39  2  0
  7 40  1  0
 40 41  2  0
 41 42  1  0
 42 43  2  0
 43 44  1  0
 44 45  2  0
  6 46  1  0
 46 47  2  0
 47  3  1  0
 32 10  1  0
 39 34  1  0
 45 40  1  0
 30 13  1  0
 30 16  1  0
 26 21  1  0
  1 48  1  0
  1 49  1  0
  1 50  1  0
  4 51  1  0
  5 52  1  0
  9 53  1  0
  9 54  1  0
 10 55  1  6
 12 56  1  1
 14 57  1  0
 18 58  1  0
 22 59  1  0
 23 60  1  0
 24 61  1  0
 25 62  1  0
 26 63  1  0
 28 64  1  0
 31 65  1  0
 31 66  1  0
 32 67  1  6
 33 68  1  0
 35 69  1  0
 36 70  1  0
 37 71  1  0
 38 72  1  0
 39 73  1  0
 41 74  1  0
 42 75  1  0
 43 76  1  0
 44 77  1  0
 45 78  1  0
 46 79  1  0
 47 80  1  0
M  END
>  <Binding energies>  (1) 
[-9.27]

>  <Ligand effiencies>  (1) 
[-0.18918367346938775]

>  <Interactions>  (1) 
["V-A:ASP:366:CG:3213, H-A:TYR:531:OH:4795, V-A:PRO:540:CA:4883, H-B:TYR:539:OH:9850, V-A:PRO:540:CB:4885, V-B:ASP:366:CB:8183, H-B:TYR:531:OH:9767, V-B:ASP:366:CG:8184, H-A:ASN:370:ND2:3248, V-A:MET:535:CE:4835, V-B:GLU:543:CG:9879, V-B:GLU:543:CB:9878, V-A:GLU:543:CD:4908, V-B:GLU:543:CD:9880, V-B:HIS:456:CE1:9041, V-B:GLU:543:C:9874, V-A:HIS:456:CE1:4070, V-A:GLU:543:CB:4906, H-A:GLU:543:OE1:4909, H-A:GLU:543:OE2:4910, V-A:TYR:539:CE1:4875, V-A:TYR:539:CZ:4877, H-A:ARG:545:NH2:4928, V-B:GLU:543:CA:9876, V-A:TYR:539:CD1:4873, V-A:TYR:539:CD2:4874, V-A:ILE:538:CA:4860, V-A:TYR:539:CG:4872, V-A:TYR:539:CE2:4876, V-A:ASN:362:CB:3176"]

$$$$
RR8_A_Rahimova_2017
     RDKit          3D

 73 77  0  0  0  0  0  0  0  0999 V2000
  134.1170  123.5310   57.4150 O   0  0  0  0  0  0  0  0  0  0  0  0
  133.4720  124.2730   58.1640 C   0  0  0  0  0  0  0  0  0  0  0  0
  132.7590  125.3640   57.7440 O   0  0  0  0  0  0  0  0  0  0  0  0
  131.6910  125.7870   58.5460 C   0  0  1  0  0  0  0  0  0  0  0  0
  132.1050  126.7070   59.5140 O   0  0  0  0  0  0  0  0  0  0  0  0
  131.1390  127.7350   59.7150 C   0  0  2  0  0  0  0  0  0  0  0  0
  130.7650  127.7710   61.2070 C   0  0  0  0  0  0  0  0  0  0  0  0
  130.7720  126.4430   61.7140 O   0  0  0  0  0  0  0  0  0  0  0  0
  129.5050  125.9970   62.1800 C   0  0  0  0  0  0  0  0  0  0  0  0
  129.2120  124.6100   61.6290 C   0  0  0  0  0  0  0  0  0  0  0  0
  129.0890  124.4200   60.2500 C   0  0  0  0  0  0  0  0  0  0  0  0
  128.8270  123.1490   59.7420 C   0  0  0  0  0  0  0  0  0  0  0  0
  128.6920  122.0710   60.6140 C   0  0  0  0  0  0  0  0  0  0  0  0
  128.8180  122.2510   61.9900 C   0  0  0  0  0  0  0  0  0  0  0  0
  129.0820  123.5210   62.4980 C   0  0  0  0  0  0  0  0  0  0  0  0
  129.9990  127.3580   58.7590 C   0  0  1  0  0  0  0  0  0  0  0  0
  129.4020  128.4870   58.1250 O   0  0  0  0  0  0  0  0  0  0  0  0
  129.5410  129.7250   58.8130 C   0  0  0  0  0  0  0  0  0  0  0  0
  130.2400  130.7400   57.9190 C   0  0  0  0  0  0  0  0  0  0  0  0
  129.5860  131.9280   57.5750 C   0  0  0  0  0  0  0  0  0  0  0  0
  130.2160  132.8560   56.7510 C   0  0  0  0  0  0  0  0  0  0  0  0
  131.4970  132.5950   56.2690 C   0  0  0  0  0  0  0  0  0  0  0  0
  132.1530  131.4120   56.6010 C   0  0  0  0  0  0  0  0  0  0  0  0
  131.5230  130.4820   57.4240 C   0  0  0  0  0  0  0  0  0  0  0  0
  130.7010  126.5540   57.6800 C   0  0  2  0  0  0  0  0  0  0  0  0
  129.7720  125.7180   56.9940 O   0  0  0  0  0  0  0  0  0  0  0  0
  128.3990  126.0520   57.1630 C   0  0  0  0  0  0  0  0  0  0  0  0
  127.5450  124.7960   57.0700 C   0  0  0  0  0  0  0  0  0  0  0  0
  126.2740  124.7650   57.6530 C   0  0  0  0  0  0  0  0  0  0  0  0
  125.4920  123.6170   57.5570 C   0  0  0  0  0  0  0  0  0  0  0  0
  125.9800  122.5040   56.8740 C   0  0  0  0  0  0  0  0  0  0  0  0
  127.2430  122.5300   56.2860 C   0  0  0  0  0  0  0  0  0  0  0  0
  128.0260  123.6780   56.3820 C   0  0  0  0  0  0  0  0  0  0  0  0
  133.3820  124.0580   59.6470 C   0  0  0  0  0  0  0  0  0  0  0  0
  132.3450  123.3100   60.2260 C   0  0  0  0  0  0  0  0  0  0  0  0
  132.2890  123.1300   61.6060 C   0  0  0  0  0  0  0  0  0  0  0  0
  133.2630  123.6920   62.4400 C   0  0  0  0  0  0  0  0  0  0  0  0
  133.2030  123.4970   63.9090 N   0  0  0  0  0  0  0  0  0  0  0  0
  133.6400  124.3820   64.6390 O   0  0  0  0  0  0  0  0  0  0  0  0
  132.7160  122.4580   64.3450 O   0  0  0  0  0  0  0  0  0  0  0  0
  134.2960  124.4400   61.8610 C   0  0  0  0  0  0  0  0  0  0  0  0
  134.3540  124.6220   60.4830 C   0  0  0  0  0  0  0  0  0  0  0  0
  131.2643  124.8882   59.0152 H   0  0  0  0  0  0  0  0  0  0  0  0
  131.4731  128.7590   59.4917 H   0  0  0  0  0  0  0  0  0  0  0  0
  131.4973  128.3804   61.7569 H   0  0  0  0  0  0  0  0  0  0  0  0
  129.7652  128.2127   61.3308 H   0  0  0  0  0  0  0  0  0  0  0  0
  129.5130  125.9589   63.2793 H   0  0  0  0  0  0  0  0  0  0  0  0
  128.7264  126.6951   61.8388 H   0  0  0  0  0  0  0  0  0  0  0  0
  129.1990  125.2739   59.5653 H   0  0  0  0  0  0  0  0  0  0  0  0
  128.7272  122.9976   58.6570 H   0  0  0  0  0  0  0  0  0  0  0  0
  128.4840  121.0682   60.2125 H   0  0  0  0  0  0  0  0  0  0  0  0
  128.7095  121.3945   62.6717 H   0  0  0  0  0  0  0  0  0  0  0  0
  129.1883  123.6678   63.5830 H   0  0  0  0  0  0  0  0  0  0  0  0
  129.1957  126.8395   59.3030 H   0  0  0  0  0  0  0  0  0  0  0  0
  128.5452  130.1043   59.0859 H   0  0  0  0  0  0  0  0  0  0  0  0
  130.1415  129.5687   59.7213 H   0  0  0  0  0  0  0  0  0  0  0  0
  128.5737  132.1286   57.9558 H   0  0  0  0  0  0  0  0  0  0  0  0
  129.7046  133.7918   56.4813 H   0  0  0  0  0  0  0  0  0  0  0  0
  131.9951  133.3303   55.6200 H   0  0  0  0  0  0  0  0  0  0  0  0
  133.1637  131.2134   56.2150 H   0  0  0  0  0  0  0  0  0  0  0  0
  132.0344  129.5438   57.6852 H   0  0  0  0  0  0  0  0  0  0  0  0
  131.1734  127.1246   56.8669 H   0  0  0  0  0  0  0  0  0  0  0  0
  128.2558  126.5182   58.1490 H   0  0  0  0  0  0  0  0  0  0  0  0
  128.0972  126.7544   56.3721 H   0  0  0  0  0  0  0  0  0  0  0  0
  125.8923  125.6475   58.1873 H   0  0  0  0  0  0  0  0  0  0  0  0
  124.4937  123.5884   58.0180 H   0  0  0  0  0  0  0  0  0  0  0  0
  125.3623  121.5969   56.7986 H   0  0  0  0  0  0  0  0  0  0  0  0
  127.6201  121.6476   55.7482 H   0  0  0  0  0  0  0  0  0  0  0  0
  129.0224  123.7049   55.9167 H   0  0  0  0  0  0  0  0  0  0  0  0
  131.5709  122.8627   59.5852 H   0  0  0  0  0  0  0  0  0  0  0  0
  131.4710  122.5401   62.0452 H   0  0  0  0  0  0  0  0  0  0  0  0
  135.0692  124.8881   62.5024 H   0  0  0  0  0  0  0  0  0  0  0  0
  135.1711  125.2146   60.0458 H   0  0  0  0  0  0  0  0  0  0  0  0
  1  2  2  0
  2  3  1  0
  3  4  1  0
  4  5  1  0
  5  6  1  0
  6  7  1  0
  7  8  1  0
  8  9  1  0
  9 10  1  0
 10 11  2  0
 11 12  1  0
 12 13  2  0
 13 14  1  0
 14 15  2  0
  6 16  1  0
 16 17  1  0
 17 18  1  0
 18 19  1  0
 19 20  2  0
 20 21  1  0
 21 22  2  0
 22 23  1  0
 23 24  2  0
 16 25  1  0
 25 26  1  0
 26 27  1  0
 27 28  1  0
 28 29  2  0
 29 30  1  0
 30 31  2  0
 31 32  1  0
 32 33  2  0
  2 34  1  0
 34 35  2  0
 35 36  1  0
 36 37  2  0
 37 38  1  0
 38 39  2  0
 38 40  1  0
 37 41  1  0
 41 42  2  0
 25  4  1  0
 33 28  1  0
 42 34  1  0
 15 10  1  0
 24 19  1  0
  4 43  1  1
  6 44  1  6
  7 45  1  0
  7 46  1  0
  9 47  1  0
  9 48  1  0
 11 49  1  0
 12 50  1  0
 13 51  1  0
 14 52  1  0
 15 53  1  0
 16 54  1  1
 18 55  1  0
 18 56  1  0
 20 57  1  0
 21 58  1  0
 22 59  1  0
 23 60  1  0
 24 61  1  0
 25 62  1  6
 27 63  1  0
 27 64  1  0
 29 65  1  0
 30 66  1  0
 31 67  1  0
 32 68  1  0
 33 69  1  0
 35 70  1  0
 36 71  1  0
 41 72  1  0
 42 73  1  0
M  CHG  2  38   1  40  -1
M  END
>  <Binding energies>  (1) 
[-9.25]

>  <Ligand effiencies>  (1) 
[-0.22023809523809523]

>  <Interactions>  (1) 
["V-A:LEU:363:CD1:3189, V-A:ASP:366:CG:3213, H-A:TYR:531:OH:4795, H-B:TYR:539:OH:9850, V-A:ASP:366:CB:3212, V-B:TYR:539:CZ:9849, V-B:PRO:540:N:9856, V-B:TYR:539:CE1:9847, V-B:PRO:540:CB:9857, V-B:TYR:539:CD1:9845, V-B:PRO:540:CA:9855, V-B:TYR:539:CE2:9848, V-B:PRO:540:CD:9859, V-B:LEU:363:CD1:8160, V-B:TYR:539:C:9839, V-B:TYR:539:CG:9844, V-B:PRO:540:C:9853, V-B:TYR:539:CD2:9846, V-B:ALA:541:CB:9864, V-A:ASP:366:C:3208, V-A:ASP:366:CA:3210, V-A:ILE:369:CD1:3239, H-A:ASN:370:N:3244, V-A:ILE:369:CB:3236, V-A:ILE:369:CG2:3237, H-A:TYR:484:OH:4348, V-A:GLY:454:CA:4049, V-A:TYR:531:CZ:4794, H-A:GLY:454:N:4050, V-A:ILE:538:CA:4860, V-A:TYR:531:CE2:4793, V-A:ILE:538:CG2:4863, V-A:ILE:538:CB:4862"]

$$$$
RR8_B_Rahimova_2017
     RDKit          3D

 73 77  0  0  0  0  0  0  0  0999 V2000
  125.3540  128.3420   58.5580 O   0  0  0  0  0  0  0  0  0  0  0  0
  126.3050  127.5660   58.6970 C   0  0  0  0  0  0  0  0  0  0  0  0
  127.4330  127.8470   59.4180 O   0  0  0  0  0  0  0  0  0  0  0  0
  127.3500  127.8100   60.8210 C   0  0  2  0  0  0  0  0  0  0  0  0
  128.2710  128.6770   61.4210 O   0  0  0  0  0  0  0  0  0  0  0  0
  129.5030  128.0160   61.7040 C   0  0  2  0  0  0  0  0  0  0  0  0
  130.6540  128.7440   60.9870 C   0  0  0  0  0  0  0  0  0  0  0  0
  130.1120  129.7080   60.0930 O   0  0  0  0  0  0  0  0  0  0  0  0
  130.6960  131.0000   60.1800 C   0  0  0  0  0  0  0  0  0  0  0  0
  130.6420  131.6660   58.8140 C   0  0  0  0  0  0  0  0  0  0  0  0
  129.4600  132.2800   58.3870 C   0  0  0  0  0  0  0  0  0  0  0  0
  129.3970  132.8710   57.1280 C   0  0  0  0  0  0  0  0  0  0  0  0
  130.5170  132.8480   56.2990 C   0  0  0  0  0  0  0  0  0  0  0  0
  131.7000  132.2450   56.7200 C   0  0  0  0  0  0  0  0  0  0  0  0
  131.7630  131.6500   57.9780 C   0  0  0  0  0  0  0  0  0  0  0  0
  129.2650  126.5660   61.2650 C   0  0  1  0  0  0  0  0  0  0  0  0
  129.9520  125.6730   62.1470 O   0  0  0  0  0  0  0  0  0  0  0  0
  131.3730  125.8030   62.2260 C   0  0  0  0  0  0  0  0  0  0  0  0
  132.0800  125.1610   61.0360 C   0  0  0  0  0  0  0  0  0  0  0  0
  131.8880  125.6720   59.7490 C   0  0  0  0  0  0  0  0  0  0  0  0
  132.5590  125.1050   58.6690 C   0  0  0  0  0  0  0  0  0  0  0  0
  133.4160  124.0260   58.8780 C   0  0  0  0  0  0  0  0  0  0  0  0
  133.6080  123.5090   60.1580 C   0  0  0  0  0  0  0  0  0  0  0  0
  132.9390  124.0780   61.2390 C   0  0  0  0  0  0  0  0  0  0  0  0
  127.7490  126.4210   61.3180 C   0  0  2  0  0  0  0  0  0  0  0  0
  127.3210  125.3610   60.4660 O   0  0  0  0  0  0  0  0  0  0  0  0
  126.8160  124.2100   61.1250 C   0  0  0  0  0  0  0  0  0  0  0  0
  127.9600  123.2270   61.3090 C   0  0  0  0  0  0  0  0  0  0  0  0
  128.5090  122.5690   60.2050 C   0  0  0  0  0  0  0  0  0  0  0  0
  129.5440  121.6560   60.3880 C   0  0  0  0  0  0  0  0  0  0  0  0
  130.0250  121.4040   61.6710 C   0  0  0  0  0  0  0  0  0  0  0  0
  129.4830  122.0580   62.7750 C   0  0  0  0  0  0  0  0  0  0  0  0
  128.4490  122.9710   62.5940 C   0  0  0  0  0  0  0  0  0  0  0  0
  126.3600  126.2110   58.0520 C   0  0  0  0  0  0  0  0  0  0  0  0
  127.5280  125.7290   57.4440 C   0  0  0  0  0  0  0  0  0  0  0  0
  127.5470  124.4730   56.8480 C   0  0  0  0  0  0  0  0  0  0  0  0
  126.3990  123.6720   56.8330 C   0  0  0  0  0  0  0  0  0  0  0  0
  126.4140  122.3440   56.1720 N   0  0  0  0  0  0  0  0  0  0  0  0
  127.4330  121.9900   55.5840 O   0  0  0  0  0  0  0  0  0  0  0  0
  125.4090  121.6410   56.2410 O   0  0  0  0  0  0  0  0  0  0  0  0
  125.2340  124.1520   57.4460 C   0  0  0  0  0  0  0  0  0  0  0  0
  125.2160  125.4050   58.0500 C   0  0  0  0  0  0  0  0  0  0  0  0
  126.3174  128.0880   61.0788 H   0  0  0  0  0  0  0  0  0  0  0  0
  129.8046  128.0262   62.7618 H   0  0  0  0  0  0  0  0  0  0  0  0
  131.2902  129.2476   61.7297 H   0  0  0  0  0  0  0  0  0  0  0  0
  131.2582  128.0168   60.4248 H   0  0  0  0  0  0  0  0  0  0  0  0
  130.1383  131.6076   60.9079 H   0  0  0  0  0  0  0  0  0  0  0  0
  131.7426  130.9113   60.5069 H   0  0  0  0  0  0  0  0  0  0  0  0
  128.5797  132.2959   59.0463 H   0  0  0  0  0  0  0  0  0  0  0  0
  128.4682  133.3535   56.7895 H   0  0  0  0  0  0  0  0  0  0  0  0
  130.4663  133.3106   55.3023 H   0  0  0  0  0  0  0  0  0  0  0  0
  132.5811  132.2387   56.0616 H   0  0  0  0  0  0  0  0  0  0  0  0
  132.6933  131.1682   58.3134 H   0  0  0  0  0  0  0  0  0  0  0  0
  129.6493  126.3242   60.2631 H   0  0  0  0  0  0  0  0  0  0  0  0
  131.6294  126.8723   62.2551 H   0  0  0  0  0  0  0  0  0  0  0  0
  131.7084  125.2847   63.1365 H   0  0  0  0  0  0  0  0  0  0  0  0
  131.2073  126.5213   59.5898 H   0  0  0  0  0  0  0  0  0  0  0  0
  132.4134  125.5068   57.6554 H   0  0  0  0  0  0  0  0  0  0  0  0
  133.9460  123.5781   58.0245 H   0  0  0  0  0  0  0  0  0  0  0  0
  134.2846  122.6558   60.3137 H   0  0  0  0  0  0  0  0  0  0  0  0
  133.0868  123.6750   62.2518 H   0  0  0  0  0  0  0  0  0  0  0  0
  127.3086  126.1563   62.2906 H   0  0  0  0  0  0  0  0  0  0  0  0
  126.4065  124.4924   62.1061 H   0  0  0  0  0  0  0  0  0  0  0  0
  126.0141  123.7517   60.5276 H   0  0  0  0  0  0  0  0  0  0  0  0
  128.1245  122.7718   59.1945 H   0  0  0  0  0  0  0  0  0  0  0  0
  129.9804  121.1355   59.5227 H   0  0  0  0  0  0  0  0  0  0  0  0
  130.8415  120.6809   61.8137 H   0  0  0  0  0  0  0  0  0  0  0  0
  129.8703  121.8538   63.7841 H   0  0  0  0  0  0  0  0  0  0  0  0
  128.0163  123.4913   63.4612 H   0  0  0  0  0  0  0  0  0  0  0  0
  128.4363  126.3494   57.4385 H   0  0  0  0  0  0  0  0  0  0  0  0
  128.4737  124.1049   56.3835 H   0  0  0  0  0  0  0  0  0  0  0  0
  124.3252  123.5322   57.4497 H   0  0  0  0  0  0  0  0  0  0  0  0
  124.2944  125.7654   58.5303 H   0  0  0  0  0  0  0  0  0  0  0  0
  1  2  2  0
  2  3  1  0
  3  4  1  0
  4  5  1  0
  5  6  1  0
  6  7  1  0
  7  8  1  0
  8  9  1  0
  9 10  1  0
 10 11  2  0
 11 12  1  0
 12 13  2  0
 13 14  1  0
 14 15  2  0
  6 16  1  0
 16 17  1  0
 17 18  1  0
 18 19  1  0
 19 20  2  0
 20 21  1  0
 21 22  2  0
 22 23  1  0
 23 24  2  0
 16 25  1  0
 25 26  1  0
 26 27  1  0
 27 28  1  0
 28 29  2  0
 29 30  1  0
 30 31  2  0
 31 32  1  0
 32 33  2  0
  2 34  1  0
 34 35  2  0
 35 36  1  0
 36 37  2  0
 37 38  1  0
 38 39  2  0
 38 40  1  0
 37 41  1  0
 41 42  2  0
 25  4  1  0
 33 28  1  0
 42 34  1  0
 15 10  1  0
 24 19  1  0
  4 43  1  6
  6 44  1  1
  7 45  1  0
  7 46  1  0
  9 47  1  0
  9 48  1  0
 11 49  1  0
 12 50  1  0
 13 51  1  0
 14 52  1  0
 15 53  1  0
 16 54  1  6
 18 55  1  0
 18 56  1  0
 20 57  1  0
 21 58  1  0
 22 59  1  0
 23 60  1  0
 24 61  1  0
 25 62  1  1
 27 63  1  0
 27 64  1  0
 29 65  1  0
 30 66  1  0
 31 67  1  0
 32 68  1  0
 33 69  1  0
 35 70  1  0
 36 71  1  0
 41 72  1  0
 42 73  1  0
M  CHG  2  38   1  40  -1
M  END
>  <Binding energies>  (1) 
[-9.23]

>  <Ligand effiencies>  (1) 
[-0.21976190476190477]

>  <Interactions>  (1) 
["V-A:LEU:363:CD1:3189, V-A:ASP:366:CG:3213, V-A:PRO:540:CA:4883, V-A:PRO:540:CB:4885, V-A:ASP:366:CB:3212, V-B:TYR:539:CZ:9849, V-B:PRO:540:N:9856, V-B:PRO:540:CA:9855, V-B:TYR:539:CE2:9848, H-B:TYR:539:N:9842, V-B:ASP:366:CB:8183, H-B:TYR:531:OH:9767, V-B:PRO:540:CD:9859, V-B:ASP:366:CG:8184, V-B:MET:535:CE:9807, V-B:LEU:363:CD1:8160, V-B:TYR:539:C:9839, V-B:TYR:539:CD2:9846, V-B:TYR:531:CE2:9765, V-B:ALA:541:CB:9864, V-A:ASP:366:CA:3210, V-A:ILE:369:CD1:3239, V-B:GLU:543:CG:9879, V-A:ILE:369:CB:3236, V-A:ILE:369:CG2:3237, V-A:LEU:475:CD2:4259, V-B:ILE:538:CG2:9835, V-A:ILE:538:CA:4860, V-A:ILE:538:CG2:4863, V-A:ILE:538:CB:4862, V-B:ILE:538:CA:9832"]

$$$$
RR9_Rahimova_2017
     RDKit          3D

 64 68  0  0  0  0  0  0  0  0999 V2000
  129.8820  127.5800   73.1230 C   0  0  0  0  0  0  0  0  0  0  0  0
  129.5770  128.8310   72.2930 C   0  0  0  0  0  0  0  0  0  0  0  0
  128.6570  128.4820   71.2620 O   0  0  0  0  0  0  0  0  0  0  0  0
  129.0990  127.7470   70.1790 C   0  0  0  0  0  0  0  0  0  0  0  0
  130.4130  127.9660   69.7710 C   0  0  0  0  0  0  0  0  0  0  0  0
  130.9450  127.2720   68.6890 C   0  0  0  0  0  0  0  0  0  0  0  0
  130.1740  126.3370   67.9810 C   0  0  0  0  0  0  0  0  0  0  0  0
  130.7400  125.5900   66.8110 C   0  0  0  0  0  0  0  0  0  0  0  0
  129.9570  124.7020   66.0560 C   0  0  0  0  0  0  0  0  0  0  0  0
  130.4880  124.0140   64.9510 C   0  0  0  0  0  0  0  0  0  0  0  0
  129.5720  123.1560   64.1210 C   0  0  0  0  0  0  0  0  0  0  0  0
  129.6020  121.9300   64.2270 O   0  0  0  0  0  0  0  0  0  0  0  0
  128.7650  123.8160   63.2670 N   0  0  0  0  0  0  0  0  0  0  0  0
  127.8840  123.2020   62.2690 C   0  0  0  0  0  0  0  0  0  0  0  0
  128.5050  123.1670   60.8530 C   0  0  0  0  0  0  0  0  0  0  0  0
  127.4980  123.2670   59.7130 C   0  0  0  0  0  0  0  0  0  0  0  0
  127.8050  122.7350   58.4560 C   0  0  0  0  0  0  0  0  0  0  0  0
  126.8690  122.7970   57.4270 C   0  0  0  0  0  0  0  0  0  0  0  0
  125.6320  123.3940   57.6560 C   0  0  0  0  0  0  0  0  0  0  0  0
  125.3200  123.9310   58.9040 C   0  0  0  0  0  0  0  0  0  0  0  0
  126.2560  123.8680   59.9340 C   0  0  0  0  0  0  0  0  0  0  0  0
  131.8580  124.2420   64.6700 C   0  0  0  0  0  0  0  0  0  0  0  0
  132.8640  123.7960   63.7350 C   0  0  0  0  0  0  0  0  0  0  0  0
  132.7740  122.7550   62.6680 C   0  0  0  0  0  0  0  0  0  0  0  0
  131.5950  122.6040   61.9320 C   0  0  0  0  0  0  0  0  0  0  0  0
  131.5070  121.6220   60.9480 C   0  0  0  0  0  0  0  0  0  0  0  0
  132.5990  120.7910   60.6940 C   0  0  0  0  0  0  0  0  0  0  0  0
  132.4970  119.7080   59.6350 C   0  0  0  0  0  0  0  0  0  0  0  0
  133.7770  120.9380   61.4280 C   0  0  0  0  0  0  0  0  0  0  0  0
  133.8640  121.9210   62.4090 C   0  0  0  0  0  0  0  0  0  0  0  0
  133.9960  124.4320   63.9370 N   0  0  0  0  0  0  0  0  0  0  0  0
  133.8310  125.2440   64.9940 N   0  0  0  0  0  0  0  0  0  0  0  0
  132.5510  125.1620   65.4910 C   0  0  0  0  0  0  0  0  0  0  0  0
  132.0520  125.8260   66.5330 N   0  0  0  0  0  0  0  0  0  0  0  0
  128.8520  126.1240   68.3970 C   0  0  0  0  0  0  0  0  0  0  0  0
  128.3180  126.8160   69.4810 C   0  0  0  0  0  0  0  0  0  0  0  0
  129.8219  127.8265   74.1933 H   0  0  0  0  0  0  0  0  0  0  0  0
  129.1490  126.7949   72.8858 H   0  0  0  0  0  0  0  0  0  0  0  0
  130.8941  127.2204   72.8858 H   0  0  0  0  0  0  0  0  0  0  0  0
  129.1343  129.6043   72.9380 H   0  0  0  0  0  0  0  0  0  0  0  0
  130.5048  129.2228   71.8507 H   0  0  0  0  0  0  0  0  0  0  0  0
  131.0361  128.6950   70.3098 H   0  0  0  0  0  0  0  0  0  0  0  0
  131.9852  127.4588   68.3839 H   0  0  0  0  0  0  0  0  0  0  0  0
  128.9053  124.5412   66.3352 H   0  0  0  0  0  0  0  0  0  0  0  0
  128.7480  124.8240   63.3120 H   0  0  0  0  0  0  0  0  0  0  0  0
  127.6661  122.1701   62.5816 H   0  0  0  0  0  0  0  0  0  0  0  0
  126.9729  123.8158   62.2131 H   0  0  0  0  0  0  0  0  0  0  0  0
  129.2063  124.0099   60.7655 H   0  0  0  0  0  0  0  0  0  0  0  0
  128.9924  122.1861   60.7518 H   0  0  0  0  0  0  0  0  0  0  0  0
  128.7854  122.2679   58.2807 H   0  0  0  0  0  0  0  0  0  0  0  0
  127.1055  122.3766   56.4384 H   0  0  0  0  0  0  0  0  0  0  0  0
  124.8927  123.4424   56.8429 H   0  0  0  0  0  0  0  0  0  0  0  0
  124.3405  124.4017   59.0745 H   0  0  0  0  0  0  0  0  0  0  0  0
  126.0174  124.2912   60.9209 H   0  0  0  0  0  0  0  0  0  0  0  0
  130.7357  123.2615   62.1302 H   0  0  0  0  0  0  0  0  0  0  0  0
  130.5778  121.5017   60.3718 H   0  0  0  0  0  0  0  0  0  0  0  0
  132.4045  118.7262   60.1223 H   0  0  0  0  0  0  0  0  0  0  0  0
  131.6121  119.8908   59.0077 H   0  0  0  0  0  0  0  0  0  0  0  0
  133.4005  119.7223   59.0077 H   0  0  0  0  0  0  0  0  0  0  0  0
  134.6349  120.2781   61.2314 H   0  0  0  0  0  0  0  0  0  0  0  0
  134.7948  122.0417   62.9827 H   0  0  0  0  0  0  0  0  0  0  0  0
  134.5930  125.8170   65.3270 H   0  0  0  0  0  0  0  0  0  0  0  0
  128.2260  125.3978   67.8578 H   0  0  0  0  0  0  0  0  0  0  0  0
  127.2788  126.6311   69.7907 H   0  0  0  0  0  0  0  0  0  0  0  0
  1  2  1  0
  2  3  1  0
  3  4  1  0
  4  5  2  0
  5  6  1  0
  6  7  2  0
  7  8  1  0
  8  9  2  0
  9 10  1  0
 10 11  1  0
 11 12  2  0
 11 13  1  0
 13 14  1  0
 14 15  1  0
 15 16  1  0
 16 17  2  0
 17 18  1  0
 18 19  2  0
 19 20  1  0
 20 21  2  0
 10 22  2  0
 22 23  1  0
 23 24  1  0
 24 25  2  0
 25 26  1  0
 26 27  2  0
 27 28  1  0
 27 29  1  0
 29 30  2  0
 23 31  2  0
 31 32  1  0
 32 33  1  0
 33 34  2  0
  7 35  1  0
 35 36  2  0
 36  4  1  0
 34  8  1  0
 21 16  1  0
 33 22  1  0
 30 24  1  0
  1 37  1  0
  1 38  1  0
  1 39  1  0
  2 40  1  0
  2 41  1  0
  5 42  1  0
  6 43  1  0
  9 44  1  0
 13 45  1  0
 14 46  1  0
 14 47  1  0
 15 48  1  0
 15 49  1  0
 17 50  1  0
 18 51  1  0
 19 52  1  0
 20 53  1  0
 21 54  1  0
 25 55  1  0
 26 56  1  0
 28 57  1  0
 28 58  1  0
 28 59  1  0
 29 60  1  0
 30 61  1  0
 32 62  1  0
 35 63  1  0
 36 64  1  0
M  END
>  <Binding energies>  (1) 
[-9.07]

>  <Ligand effiencies>  (1) 
[-0.2386842105263158]

>  <Interactions>  (1) 
["V-B:PRO:540:N:9856, V-B:PRO:540:CB:9857, V-B:PRO:540:CA:9855, V-B:TYR:539:CE2:9848, V-B:PRO:540:CD:9859, V-B:TYR:539:C:9839, V-B:TYR:539:CG:9844, H-B:GLU:543:OE1:9881, V-B:TYR:539:CD2:9846, V-B:ALA:541:CB:9864, V-A:ILE:369:CD1:3239, V-B:GLU:543:CG:9879, V-A:ILE:369:CG2:3237, V-A:LEU:475:CD2:4259, V-A:GLY:453:CA:4044, V-B:GLU:543:CB:9878, H-A:TYR:484:OH:4348, V-A:TYR:484:CE2:4346, H-A:ARG:545:NE:4924, V-A:GLY:454:CA:4049, V-A:ARG:545:CZ:4926, V-B:GLU:543:CD:9880, V-B:HIS:456:CE1:9041, V-B:GLU:543:C:9874, V-B:HIS:456:CD2:9039, V-A:HIS:456:CE1:4070, V-A:GLU:543:C:4902, V-A:GLU:543:CB:4906, V-A:ARG:545:CG:4922, H-A:ARG:545:NH2:4928, V-B:GLU:543:CA:9876, H-A:GLY:454:N:4050, V-A:ARG:545:CD:4923, V-A:SER:385:CA:3407, V-A:SER:385:CB:3409, V-A:SER:385:C:3405"]

$$$$
1a_Ghoteimi_2023
     RDKit          3D

 67 70  0  0  0  0  0  0  0  0999 V2000
  131.3070  131.4470   56.2000 C   0  0  0  0  0  0  0  0  0  0  0  0
  131.7570  132.9050   56.3390 C   0  0  0  0  0  0  0  0  0  0  0  0
  130.9960  133.5370   57.3620 O   0  0  0  0  0  0  0  0  0  0  0  0
  129.6940  133.2120   57.5700 C   0  0  0  0  0  0  0  0  0  0  0  0
  128.8180  133.3270   56.7080 O   0  0  0  0  0  0  0  0  0  0  0  0
  129.4270  132.6940   58.9540 C   0  0  0  0  0  0  0  0  0  0  0  0
  128.1700  132.8200   59.5640 C   0  0  0  0  0  0  0  0  0  0  0  0
  127.9530  132.3330   60.8500 C   0  0  0  0  0  0  0  0  0  0  0  0
  128.9930  131.7030   61.5500 C   0  0  0  0  0  0  0  0  0  0  0  0
  128.8860  131.1790   62.8520 N   0  0  0  0  0  0  0  0  0  0  0  0
  128.2730  131.6880   63.9430 C   0  0  0  0  0  0  0  0  0  0  0  0
  127.6530  132.7510   63.9850 O   0  0  0  0  0  0  0  0  0  0  0  0
  128.3740  130.8390   65.2100 C   0  0  0  0  0  0  0  0  0  0  0  0
  127.3900  129.3180   65.0810 S   0  0  0  0  0  0  0  0  0  0  0  0
  128.3600  128.0340   65.8390 C   0  0  0  0  0  0  0  0  0  0  0  0
  128.3080  128.0340   67.1920 N   0  0  0  0  0  0  0  0  0  0  0  0
  129.0020  127.0990   67.8940 C   0  0  0  0  0  0  0  0  0  0  0  0
  128.8780  127.1510   69.3890 C   0  0  0  0  0  0  0  0  0  0  0  0
  127.6600  126.8710   70.0300 C   0  0  0  0  0  0  0  0  0  0  0  0
  127.5480  126.9200   71.4160 C   0  0  0  0  0  0  0  0  0  0  0  0
  128.6460  127.2510   72.2060 C   0  0  0  0  0  0  0  0  0  0  0  0
  128.4440  127.2720   73.5720 O   0  0  0  0  0  0  0  0  0  0  0  0
  127.8050  128.3990   74.1620 C   0  0  0  0  0  0  0  0  0  0  0  0
  129.8680  127.5370   71.5810 C   0  0  0  0  0  0  0  0  0  0  0  0
  129.9770  127.4880   70.1940 C   0  0  0  0  0  0  0  0  0  0  0  0
  129.7730  126.1370   67.2290 C   0  0  0  0  0  0  0  0  0  0  0  0
  129.8610  126.1330   65.8310 C   0  0  0  0  0  0  0  0  0  0  0  0
  130.7270  125.0970   65.1920 C   0  0  0  0  0  0  0  0  0  0  0  0
  130.2010  123.8580   64.8090 C   0  0  0  0  0  0  0  0  0  0  0  0
  131.0110  122.9040   64.2010 C   0  0  0  0  0  0  0  0  0  0  0  0
  132.3580  123.1690   63.9560 C   0  0  0  0  0  0  0  0  0  0  0  0
  133.0830  122.1630   63.3480 O   0  0  0  0  0  0  0  0  0  0  0  0
  133.8390  122.4610   62.1790 C   0  0  0  0  0  0  0  0  0  0  0  0
  132.8880  124.4130   64.3310 C   0  0  0  0  0  0  0  0  0  0  0  0
  132.0760  125.3660   64.9410 C   0  0  0  0  0  0  0  0  0  0  0  0
  129.1320  127.1070   65.1070 C   0  0  0  0  0  0  0  0  0  0  0  0
  129.1730  127.1440   63.6410 C   0  0  0  0  0  0  0  0  0  0  0  0
  129.2050  127.1720   62.4850 N   0  0  0  0  0  0  0  0  0  0  0  0
  130.2450  131.5790   60.9480 C   0  0  0  0  0  0  0  0  0  0  0  0
  130.4610  132.0670   59.6610 C   0  0  0  0  0  0  0  0  0  0  0  0
  131.1716  131.0082   57.1996 H   0  0  0  0  0  0  0  0  0  0  0  0
  130.3550  131.4079   55.6503 H   0  0  0  0  0  0  0  0  0  0  0  0
  132.0714  130.8782   55.6503 H   0  0  0  0  0  0  0  0  0  0  0  0
  132.8245  132.9365   56.6026 H   0  0  0  0  0  0  0  0  0  0  0  0
  131.6010  133.4311   55.3856 H   0  0  0  0  0  0  0  0  0  0  0  0
  127.3476  133.3085   59.0208 H   0  0  0  0  0  0  0  0  0  0  0  0
  126.9638  132.4424   61.3185 H   0  0  0  0  0  0  0  0  0  0  0  0
  129.3100  130.2700   62.9660 H   0  0  0  0  0  0  0  0  0  0  0  0
  129.4275  130.5689   65.3749 H   0  0  0  0  0  0  0  0  0  0  0  0
  127.9819  131.4303   66.0506 H   0  0  0  0  0  0  0  0  0  0  0  0
  126.7792  126.6084   69.4257 H   0  0  0  0  0  0  0  0  0  0  0  0
  126.5824  126.6950   71.8925 H   0  0  0  0  0  0  0  0  0  0  0  0
  127.8524  128.3154   75.2578 H   0  0  0  0  0  0  0  0  0  0  0  0
  128.3157  129.3192   73.8421 H   0  0  0  0  0  0  0  0  0  0  0  0
  126.7531  128.4332   73.8421 H   0  0  0  0  0  0  0  0  0  0  0  0
  130.7452  127.8015   72.1898 H   0  0  0  0  0  0  0  0  0  0  0  0
  130.9427  127.7178   69.7201 H   0  0  0  0  0  0  0  0  0  0  0  0
  130.3150  125.3768   67.8107 H   0  0  0  0  0  0  0  0  0  0  0  0
  129.1388  123.6366   64.9901 H   0  0  0  0  0  0  0  0  0  0  0  0
  130.5851  121.9321   63.9110 H   0  0  0  0  0  0  0  0  0  0  0  0
  134.8259  122.8500   62.4699 H   0  0  0  0  0  0  0  0  0  0  0  0
  133.9670  121.5460   61.5820 H   0  0  0  0  0  0  0  0  0  0  0  0
  133.3082  123.2172   61.5820 H   0  0  0  0  0  0  0  0  0  0  0  0
  133.9485  124.6362   64.1425 H   0  0  0  0  0  0  0  0  0  0  0  0
  132.4999  126.3396   65.2281 H   0  0  0  0  0  0  0  0  0  0  0  0
  131.0674  131.0926   61.4930 H   0  0  0  0  0  0  0  0  0  0  0  0
  131.4521  131.9590   59.1961 H   0  0  0  0  0  0  0  0  0  0  0  0
  1  2  1  0
  2  3  1  0
  3  4  1  0
  4  5  2  0
  4  6  1  0
  6  7  2  0
  7  8  1  0
  8  9  2  0
  9 10  1  0
 10 11  1  0
 11 12  2  0
 11 13  1  0
 13 14  1  0
 14 15  1  0
 15 16  2  0
 16 17  1  0
 17 18  1  0
 18 19  2  0
 19 20  1  0
 20 21  2  0
 21 22  1  0
 22 23  1  0
 21 24  1  0
 24 25  2  0
 17 26  2  0
 26 27  1  0
 27 28  1  0
 28 29  2  0
 29 30  1  0
 30 31  2  0
 31 32  1  0
 32 33  1  0
 31 34  1  0
 34 35  2  0
 27 36  2  0
 36 37  1  0
 37 38  3  0
  9 39  1  0
 39 40  2  0
 40  6  1  0
 36 15  1  0
 25 18  1  0
 35 28  1  0
  1 41  1  0
  1 42  1  0
  1 43  1  0
  2 44  1  0
  2 45  1  0
  7 46  1  0
  8 47  1  0
 10 48  1  0
 13 49  1  0
 13 50  1  0
 19 51  1  0
 20 52  1  0
 23 53  1  0
 23 54  1  0
 23 55  1  0
 24 56  1  0
 25 57  1  0
 26 58  1  0
 29 59  1  0
 30 60  1  0
 33 61  1  0
 33 62  1  0
 33 63  1  0
 34 64  1  0
 35 65  1  0
 39 66  1  0
 40 67  1  0
M  END
>  <Binding energies>  (1) 
[-10.39]

>  <Ligand effiencies>  (1) 
[-0.25341463414634147]

>  <Interactions>  (1) 
["V-A:LEU:363:CD1:3189, V-A:PRO:540:CA:4883, V-A:PRO:540:CB:4885, V-A:PRO:540:CD:4887, V-A:PRO:540:N:4884, V-A:TYR:539:C:4867, H-A:TYR:539:N:4870, V-A:MET:535:CE:4835, V-A:ILE:369:CD1:3239, V-B:GLU:543:CG:9879, V-A:LEU:475:CD2:4259, V-B:GLU:543:CB:9878, V-A:GLU:543:CD:4908, V-A:TYR:484:CE2:4346, V-A:GLY:454:CA:4049, V-A:ARG:545:CZ:4926, V-B:GLU:543:CD:9880, V-B:HIS:456:CE1:9041, V-B:GLY:544:C:9884, V-B:GLU:543:C:9874, V-B:HIS:456:CD2:9039, V-A:HIS:456:CE1:4070, V-A:GLU:543:CG:4907, V-A:GLU:543:CB:4906, V-A:TYR:531:CZ:4794, V-B:GLY:544:CA:9886, H-B:LYS:547:NZ:9923, H-A:GLU:543:OE1:4909, V-B:TYR:484:CZ:9318, H-B:TYR:484:OH:9319, V-A:TYR:539:CE1:4875, H-A:GLY:454:N:4050, V-A:TYR:539:CD1:4873, V-A:ILE:538:CA:4860, V-A:TYR:539:CA:4869, V-A:TYR:531:CE2:4793, V-B:TYR:484:CE2:9317, V-A:ILE:538:CG2:4863, V-A:ILE:538:CB:4862"]

$$$$
1a_Grossjean_2025
     RDKit          3D

 45 46  0  0  0  0  0  0  0  0999 V2000
  133.8040  124.1390   62.7290 C   0  0  0  0  0  0  0  0  0  0  0  0
  134.3650  122.9980   61.8760 C   0  0  0  0  0  0  0  0  0  0  0  0
  133.5670  121.8350   62.0570 O   0  0  0  0  0  0  0  0  0  0  0  0
  132.8720  121.2940   61.0220 C   0  0  0  0  0  0  0  0  0  0  0  0
  133.3510  120.4670   60.2400 O   0  0  0  0  0  0  0  0  0  0  0  0
  131.4680  121.8150   60.9140 C   0  0  0  0  0  0  0  0  0  0  0  0
  131.2610  123.1510   60.5460 C   0  0  0  0  0  0  0  0  0  0  0  0
  129.9720  123.6650   60.4410 C   0  0  0  0  0  0  0  0  0  0  0  0
  128.8650  122.8580   60.7030 C   0  0  0  0  0  0  0  0  0  0  0  0
  127.6090  123.4820   60.5700 N   0  0  0  0  0  0  0  0  0  0  0  0
  126.5180  123.4150   61.3620 C   0  0  0  0  0  0  0  0  0  0  0  0
  126.4260  122.7590   62.4000 O   0  0  0  0  0  0  0  0  0  0  0  0
  125.3160  124.2380   60.8920 C   0  0  0  0  0  0  0  0  0  0  0  0
  124.9860  124.0190   59.1180 S   0  0  0  0  0  0  0  0  0  0  0  0
  126.3560  124.7250   58.2290 C   0  0  0  0  0  0  0  0  0  0  0  0
  126.8070  125.8910   58.7560 N   0  0  0  0  0  0  0  0  0  0  0  0
  127.8460  126.5180   58.1540 C   0  0  0  0  0  0  0  0  0  0  0  0
  128.2870  127.8230   58.7900 C   0  0  0  0  0  0  0  0  0  0  0  0
  128.4770  126.0090   57.0210 C   0  0  0  0  0  0  0  0  0  0  0  0
  128.0330  124.7970   56.4830 C   0  0  0  0  0  0  0  0  0  0  0  0
  128.7500  124.2500   55.2500 C   0  0  0  0  0  0  0  0  0  0  0  0
  126.9520  124.1220   57.0960 C   0  0  0  0  0  0  0  0  0  0  0  0
  126.5020  122.8270   56.5790 C   0  0  0  0  0  0  0  0  0  0  0  0
  126.1480  121.8050   56.1690 N   0  0  0  0  0  0  0  0  0  0  0  0
  129.0620  121.5160   61.0650 C   0  0  0  0  0  0  0  0  0  0  0  0
  130.3520  121.0040   61.1690 C   0  0  0  0  0  0  0  0  0  0  0  0
  133.9246  123.8937   63.7945 H   0  0  0  0  0  0  0  0  0  0  0  0
  134.3482  125.0678   62.5027 H   0  0  0  0  0  0  0  0  0  0  0  0
  132.7362  124.2752   62.5027 H   0  0  0  0  0  0  0  0  0  0  0  0
  134.3507  123.2913   60.8159 H   0  0  0  0  0  0  0  0  0  0  0  0
  135.3995  122.7846   62.1832 H   0  0  0  0  0  0  0  0  0  0  0  0
  132.1250  123.7993   60.3382 H   0  0  0  0  0  0  0  0  0  0  0  0
  129.8251  124.7154   60.1492 H   0  0  0  0  0  0  0  0  0  0  0  0
  127.5390  124.0930   59.7700 H   0  0  0  0  0  0  0  0  0  0  0  0
  124.4276  123.9233   61.4592 H   0  0  0  0  0  0  0  0  0  0  0  0
  125.5454  125.2999   61.0644 H   0  0  0  0  0  0  0  0  0  0  0  0
  128.2544  127.7265   59.8853 H   0  0  0  0  0  0  0  0  0  0  0  0
  129.3140  128.0568   58.4729 H   0  0  0  0  0  0  0  0  0  0  0  0
  127.6123  128.6318   58.4729 H   0  0  0  0  0  0  0  0  0  0  0  0
  129.3126  126.5528   56.5562 H   0  0  0  0  0  0  0  0  0  0  0  0
  129.5876  123.6110   55.5663 H   0  0  0  0  0  0  0  0  0  0  0  0
  128.0446  123.6585   54.6479 H   0  0  0  0  0  0  0  0  0  0  0  0
  129.1341  125.0866   54.6479 H   0  0  0  0  0  0  0  0  0  0  0  0
  128.1959  120.8685   61.2667 H   0  0  0  0  0  0  0  0  0  0  0  0
  130.4982  119.9517   61.4543 H   0  0  0  0  0  0  0  0  0  0  0  0
  1  2  1  0
  2  3  1  0
  3  4  1  0
  4  5  2  0
  4  6  1  0
  6  7  2  0
  7  8  1  0
  8  9  2  0
  9 10  1  0
 10 11  1  0
 11 12  2  0
 11 13  1  0
 13 14  1  0
 14 15  1  0
 15 16  2  0
 16 17  1  0
 17 18  1  0
 17 19  2  0
 19 20  1  0
 20 21  1  0
 20 22  2  0
 22 23  1  0
 23 24  3  0
  9 25  1  0
 25 26  2  0
 26  6  1  0
 22 15  1  0
  1 27  1  0
  1 28  1  0
  1 29  1  0
  2 30  1  0
  2 31  1  0
  7 32  1  0
  8 33  1  0
 10 34  1  0
 13 35  1  0
 13 36  1  0
 18 37  1  0
 18 38  1  0
 18 39  1  0
 19 40  1  0
 21 41  1  0
 21 42  1  0
 21 43  1  0
 25 44  1  0
 26 45  1  0
M  END
>  <Binding energies>  (1) 
[-7.22]

>  <Ligand effiencies>  (1) 
[-0.26740740740740737]

>  <Interactions>  (1) 
["V-B:TYR:539:CZ:9849, V-B:PRO:540:N:9856, V-B:TYR:539:CE1:9847, V-B:PRO:540:CB:9857, V-B:TYR:539:CD1:9845, V-B:PRO:540:CA:9855, V-B:TYR:539:CE2:9848, H-B:TYR:539:N:9842, V-B:MET:535:CE:9807, V-B:TYR:539:C:9839, V-B:PRO:540:C:9853, H-B:ALA:541:N:9863, V-B:TYR:539:CD2:9846, V-B:ALA:541:CB:9864, V-A:ILE:369:CD1:3239, V-A:ILE:369:CG2:3237, V-A:LEU:475:CD2:4259, V-A:GLY:454:CA:4049, H-A:SER:385:OG:3410"]

$$$$
1aa_Ghoteimi_2023
     RDKit          3D

 67 70  0  0  0  0  0  0  0  0999 V2000
  127.8740  132.3440   56.4330 C   0  0  0  0  0  0  0  0  0  0  0  0
  129.1590  133.0140   55.9380 C   0  0  0  0  0  0  0  0  0  0  0  0
  129.8690  133.5520   57.0470 O   0  0  0  0  0  0  0  0  0  0  0  0
  130.8960  132.8730   57.6180 C   0  0  0  0  0  0  0  0  0  0  0  0
  131.9870  132.6990   57.0660 O   0  0  0  0  0  0  0  0  0  0  0  0
  130.5750  132.3540   58.9900 C   0  0  0  0  0  0  0  0  0  0  0  0
  131.3360  131.3440   59.5980 C   0  0  0  0  0  0  0  0  0  0  0  0
  131.0140  130.8810   60.8720 C   0  0  0  0  0  0  0  0  0  0  0  0
  129.9220  131.4260   61.5640 C   0  0  0  0  0  0  0  0  0  0  0  0
  129.5040  131.0390   62.8500 N   0  0  0  0  0  0  0  0  0  0  0  0
  128.2630  130.8070   63.3360 C   0  0  0  0  0  0  0  0  0  0  0  0
  127.2240  130.8970   62.6820 O   0  0  0  0  0  0  0  0  0  0  0  0
  128.1500  130.3980   64.8130 C   0  0  0  0  0  0  0  0  0  0  0  0
  127.6390  129.0630   64.9260 O   0  0  0  0  0  0  0  0  0  0  0  0
  128.3640  128.0900   65.6000 C   0  0  0  0  0  0  0  0  0  0  0  0
  128.2960  128.0670   66.9600 N   0  0  0  0  0  0  0  0  0  0  0  0
  129.0020  127.1380   67.6570 C   0  0  0  0  0  0  0  0  0  0  0  0
  128.8720  127.1790   69.1520 C   0  0  0  0  0  0  0  0  0  0  0  0
  127.6620  126.8520   69.7810 C   0  0  0  0  0  0  0  0  0  0  0  0
  127.5390  126.8910   71.1670 C   0  0  0  0  0  0  0  0  0  0  0  0
  128.6190  127.2560   71.9670 C   0  0  0  0  0  0  0  0  0  0  0  0
  128.4040  127.2670   73.3320 O   0  0  0  0  0  0  0  0  0  0  0  0
  127.5450  128.2560   73.8910 C   0  0  0  0  0  0  0  0  0  0  0  0
  129.8370  127.5810   71.3540 C   0  0  0  0  0  0  0  0  0  0  0  0
  129.9580  127.5400   69.9680 C   0  0  0  0  0  0  0  0  0  0  0  0
  129.7850  126.1890   66.9890 C   0  0  0  0  0  0  0  0  0  0  0  0
  129.8630  126.1830   65.5890 C   0  0  0  0  0  0  0  0  0  0  0  0
  130.7070  125.1380   64.9360 C   0  0  0  0  0  0  0  0  0  0  0  0
  132.0570  125.3890   64.6700 C   0  0  0  0  0  0  0  0  0  0  0  0
  132.8520  124.4170   64.0710 C   0  0  0  0  0  0  0  0  0  0  0  0
  132.3190  123.1740   63.7310 C   0  0  0  0  0  0  0  0  0  0  0  0
  133.1820  122.2720   63.1400 O   0  0  0  0  0  0  0  0  0  0  0  0
  133.9820  122.6930   62.0410 C   0  0  0  0  0  0  0  0  0  0  0  0
  130.9670  122.9150   64.0040 C   0  0  0  0  0  0  0  0  0  0  0  0
  130.1730  123.8890   64.6030 C   0  0  0  0  0  0  0  0  0  0  0  0
  129.1390  127.1670   64.8770 C   0  0  0  0  0  0  0  0  0  0  0  0
  129.1940  127.2670   63.4180 C   0  0  0  0  0  0  0  0  0  0  0  0
  129.2360  127.3470   62.2640 N   0  0  0  0  0  0  0  0  0  0  0  0
  129.1620  132.4300   60.9600 C   0  0  0  0  0  0  0  0  0  0  0  0
  129.4840  132.8900   59.6870 C   0  0  0  0  0  0  0  0  0  0  0  0
  127.8636  132.3386   57.5329 H   0  0  0  0  0  0  0  0  0  0  0  0
  127.0025  132.9025   56.0608 H   0  0  0  0  0  0  0  0  0  0  0  0
  127.8329  131.3097   56.0608 H   0  0  0  0  0  0  0  0  0  0  0  0
  129.7871  132.2700   55.4262 H   0  0  0  0  0  0  0  0  0  0  0  0
  128.9050  133.8228   55.2371 H   0  0  0  0  0  0  0  0  0  0  0  0
  132.1955  130.9134   59.0634 H   0  0  0  0  0  0  0  0  0  0  0  0
  131.6170  130.0867   61.3361 H   0  0  0  0  0  0  0  0  0  0  0  0
  130.2610  130.9120   63.5070 H   0  0  0  0  0  0  0  0  0  0  0  0
  129.1453  130.4455   65.2791 H   0  0  0  0  0  0  0  0  0  0  0  0
  127.4602  131.0875   65.3217 H   0  0  0  0  0  0  0  0  0  0  0  0
  126.7959  126.5599   69.1691 H   0  0  0  0  0  0  0  0  0  0  0  0
  126.5784  126.6307   71.6355 H   0  0  0  0  0  0  0  0  0  0  0  0
  127.5908  128.2033   74.9888 H   0  0  0  0  0  0  0  0  0  0  0  0
  127.8685  129.2532   73.5580 H   0  0  0  0  0  0  0  0  0  0  0  0
  126.5123  128.0753   73.5580 H   0  0  0  0  0  0  0  0  0  0  0  0
  130.7008  127.8696   71.9709 H   0  0  0  0  0  0  0  0  0  0  0  0
  130.9215  127.7949   69.5026 H   0  0  0  0  0  0  0  0  0  0  0  0
  130.3449  125.4402   67.5685 H   0  0  0  0  0  0  0  0  0  0  0  0
  132.4937  126.3628   64.9366 H   0  0  0  0  0  0  0  0  0  0  0  0
  133.9109  124.6310   63.8637 H   0  0  0  0  0  0  0  0  0  0  0  0
  134.8969  123.1745   62.4167 H   0  0  0  0  0  0  0  0  0  0  0  0
  134.2520  121.8202   61.4284 H   0  0  0  0  0  0  0  0  0  0  0  0
  133.4155  123.4098   61.4284 H   0  0  0  0  0  0  0  0  0  0  0  0
  130.5329  121.9384   63.7436 H   0  0  0  0  0  0  0  0  0  0  0  0
  129.1155  123.6742   64.8165 H   0  0  0  0  0  0  0  0  0  0  0  0
  128.3024  132.8603   61.4947 H   0  0  0  0  0  0  0  0  0  0  0  0
  128.8767  133.6815   59.2236 H   0  0  0  0  0  0  0  0  0  0  0  0
  1  2  1  0
  2  3  1  0
  3  4  1  0
  4  5  2  0
  4  6  1  0
  6  7  2  0
  7  8  1  0
  8  9  2  0
  9 10  1  0
 10 11  1  0
 11 12  2  0
 11 13  1  0
 13 14  1  0
 14 15  1  0
 15 16  2  0
 16 17  1  0
 17 18  1  0
 18 19  2  0
 19 20  1  0
 20 21  2  0
 21 22  1  0
 22 23  1  0
 21 24  1  0
 24 25  2  0
 17 26  2  0
 26 27  1  0
 27 28  1  0
 28 29  2  0
 29 30  1  0
 30 31  2  0
 31 32  1  0
 32 33  1  0
 31 34  1  0
 34 35  2  0
 27 36  2  0
 36 37  1  0
 37 38  3  0
  9 39  1  0
 39 40  2  0
 40  6  1  0
 36 15  1  0
 25 18  1  0
 35 28  1  0
  1 41  1  0
  1 42  1  0
  1 43  1  0
  2 44  1  0
  2 45  1  0
  7 46  1  0
  8 47  1  0
 10 48  1  0
 13 49  1  0
 13 50  1  0
 19 51  1  0
 20 52  1  0
 23 53  1  0
 23 54  1  0
 23 55  1  0
 24 56  1  0
 25 57  1  0
 26 58  1  0
 29 59  1  0
 30 60  1  0
 33 61  1  0
 33 62  1  0
 33 63  1  0
 34 64  1  0
 35 65  1  0
 39 66  1  0
 40 67  1  0
M  END
>  <Binding energies>  (1) 
[-9.48]

>  <Ligand effiencies>  (1) 
[-0.23121951219512196]

>  <Interactions>  (1) 
["V-A:PRO:540:CA:4883, V-A:PRO:540:CB:4885, V-A:PRO:540:CD:4887, V-A:PRO:540:N:4884, V-A:TYR:539:C:4867, H-A:TYR:539:N:4870, V-A:MET:535:CE:4835, V-A:ILE:369:CD1:3239, V-B:GLU:543:CG:9879, V-A:LEU:475:CD2:4259, V-B:GLU:543:CB:9878, V-A:GLU:543:CD:4908, V-A:GLY:454:CA:4049, V-A:ARG:545:CZ:4926, V-B:GLU:543:CD:9880, V-B:HIS:456:CE1:9041, V-B:GLY:544:C:9884, V-B:GLU:543:C:9874, V-B:HIS:456:CD2:9039, V-A:HIS:456:CE1:4070, V-A:GLU:543:CG:4907, V-B:HIS:456:CG:9037, V-B:GLY:544:CA:9886, H-B:LYS:547:NZ:9923, H-A:GLU:543:OE1:4909, H-B:TYR:484:OH:9319, V-A:TYR:539:CE1:4875, V-A:TYR:539:CZ:4877, H-A:GLY:454:N:4050, V-A:TYR:539:CD1:4873, V-A:ILE:538:CA:4860, V-A:TYR:539:CE2:4876, V-A:ILE:538:C:4858, V-A:ILE:538:CB:4862"]

$$$$
1b_Ghoteimi_2023
     RDKit          3D

 54 57  0  0  0  0  0  0  0  0999 V2000
  130.6030  126.5520   75.0460 C   0  0  0  0  0  0  0  0  0  0  0  0
  129.5550  127.2300   74.3630 O   0  0  0  0  0  0  0  0  0  0  0  0
  129.5520  127.2480   72.9820 C   0  0  0  0  0  0  0  0  0  0  0  0
  128.3770  126.8400   72.3540 C   0  0  0  0  0  0  0  0  0  0  0  0
  128.2820  126.8240   70.9660 C   0  0  0  0  0  0  0  0  0  0  0  0
  129.3610  127.2200   70.1610 C   0  0  0  0  0  0  0  0  0  0  0  0
  129.2550  127.1990   68.6620 C   0  0  0  0  0  0  0  0  0  0  0  0
  129.9340  126.2720   67.8640 C   0  0  0  0  0  0  0  0  0  0  0  0
  129.7980  126.2930   66.4700 C   0  0  0  0  0  0  0  0  0  0  0  0
  130.5560  125.2760   65.6810 C   0  0  0  0  0  0  0  0  0  0  0  0
  131.8910  125.5030   65.3360 C   0  0  0  0  0  0  0  0  0  0  0  0
  132.6000  124.5620   64.5940 C   0  0  0  0  0  0  0  0  0  0  0  0
  131.9870  123.3800   64.1780 C   0  0  0  0  0  0  0  0  0  0  0  0
  132.7660  122.5050   63.4450 O   0  0  0  0  0  0  0  0  0  0  0  0
  133.2400  122.9050   62.1640 C   0  0  0  0  0  0  0  0  0  0  0  0
  130.6440  123.1520   64.5140 C   0  0  0  0  0  0  0  0  0  0  0  0
  129.9390  124.0950   65.2560 C   0  0  0  0  0  0  0  0  0  0  0  0
  128.9490  127.2670   65.8890 C   0  0  0  0  0  0  0  0  0  0  0  0
  128.6980  127.2710   64.4450 C   0  0  0  0  0  0  0  0  0  0  0  0
  128.5010  127.2720   63.3050 N   0  0  0  0  0  0  0  0  0  0  0  0
  128.3090  128.1870   66.7510 C   0  0  0  0  0  0  0  0  0  0  0  0
  127.2170  129.4800   66.1990 S   0  0  0  0  0  0  0  0  0  0  0  0
  127.2960  129.5450   64.3780 C   0  0  0  0  0  0  0  0  0  0  0  0
  128.1790  130.6620   63.8050 C   0  0  0  0  0  0  0  0  0  0  0  0
  128.0030  131.8370   64.1370 O   0  0  0  0  0  0  0  0  0  0  0  0
  129.1260  130.2430   62.9360 N   0  0  0  0  0  0  0  0  0  0  0  0
  130.0610  131.0250   62.2680 C   0  0  0  0  0  0  0  0  0  0  0  0
  130.3080  130.9160   60.9000 C   0  0  0  0  0  0  0  0  0  0  0  0
  131.2850  131.8490   60.6370 C   0  0  0  0  0  0  0  0  0  0  0  0
  131.6070  132.4890   61.7870 O   0  0  0  0  0  0  0  0  0  0  0  0
  130.8250  131.9580   62.8130 N   0  0  0  0  0  0  0  0  0  0  0  0
  128.4470  128.1340   68.0970 N   0  0  0  0  0  0  0  0  0  0  0  0
  130.5400  127.6270   70.8040 C   0  0  0  0  0  0  0  0  0  0  0  0
  130.6400  127.6430   72.1910 C   0  0  0  0  0  0  0  0  0  0  0  0
  130.4551  126.6477   76.1318 H   0  0  0  0  0  0  0  0  0  0  0  0
  130.5942  125.4880   74.7671 H   0  0  0  0  0  0  0  0  0  0  0  0
  131.5699  126.9962   74.7671 H   0  0  0  0  0  0  0  0  0  0  0  0
  127.5153  126.5272   72.9620 H   0  0  0  0  0  0  0  0  0  0  0  0
  127.3454  126.4954   70.4918 H   0  0  0  0  0  0  0  0  0  0  0  0
  130.5816  125.5186   68.3363 H   0  0  0  0  0  0  0  0  0  0  0  0
  132.3858  126.4328   65.6532 H   0  0  0  0  0  0  0  0  0  0  0  0
  133.6517  124.7521   64.3338 H   0  0  0  0  0  0  0  0  0  0  0  0
  134.0755  123.6101   62.2859 H   0  0  0  0  0  0  0  0  0  0  0  0
  133.5847  122.0207   61.6080 H   0  0  0  0  0  0  0  0  0  0  0  0
  132.4262  123.3935   61.6080 H   0  0  0  0  0  0  0  0  0  0  0  0
  130.1471  122.2256   64.1902 H   0  0  0  0  0  0  0  0  0  0  0  0
  128.8852  123.9095   65.5110 H   0  0  0  0  0  0  0  0  0  0  0  0
  127.6886  128.5821   64.0192 H   0  0  0  0  0  0  0  0  0  0  0  0
  126.2727  129.7559   64.0339 H   0  0  0  0  0  0  0  0  0  0  0  0
  129.1780  129.2520   62.7520 H   0  0  0  0  0  0  0  0  0  0  0  0
  129.8262  130.2323   60.1856 H   0  0  0  0  0  0  0  0  0  0  0  0
  131.7326  132.0439   59.6513 H   0  0  0  0  0  0  0  0  0  0  0  0
  131.4032  127.9400   70.1983 H   0  0  0  0  0  0  0  0  0  0  0  0
  131.5762  127.9668   72.6692 H   0  0  0  0  0  0  0  0  0  0  0  0
  1  2  1  0
  2  3  1  0
  3  4  2  0
  4  5  1  0
  5  6  2  0
  6  7  1  0
  7  8  2  0
  8  9  1  0
  9 10  1  0
 10 11  2  0
 11 12  1  0
 12 13  2  0
 13 14  1  0
 14 15  1  0
 13 16  1  0
 16 17  2  0
  9 18  2  0
 18 19  1  0
 19 20  3  0
 18 21  1  0
 21 22  1  0
 22 23  1  0
 23 24  1  0
 24 25  2  0
 24 26  1  0
 26 27  1  0
 27 28  1  0
 28 29  2  0
 29 30  1  0
 30 31  1  0
 21 32  2  0
  6 33  1  0
 33 34  2  0
 34  3  1  0
 32  7  1  0
 17 10  1  0
 31 27  2  0
  1 35  1  0
  1 36  1  0
  1 37  1  0
  4 38  1  0
  5 39  1  0
  8 40  1  0
 11 41  1  0
 12 42  1  0
 15 43  1  0
 15 44  1  0
 15 45  1  0
 16 46  1  0
 17 47  1  0
 23 48  1  0
 23 49  1  0
 26 50  1  0
 28 51  1  0
 29 52  1  0
 33 53  1  0
 34 54  1  0
M  END
>  <Binding energies>  (1) 
[-8.67]

>  <Ligand effiencies>  (1) 
[-0.24771428571428572]

>  <Interactions>  (1) 
["V-A:PRO:540:CA:4883, V-A:PRO:540:CB:4885, V-B:GLU:543:CG:9879, V-A:LEU:475:CD2:4259, V-A:TYR:484:CZ:4347, V-B:GLU:543:CB:9878, H-A:TYR:484:OH:4348, V-A:GLU:543:CD:4908, V-A:TYR:484:CE2:4346, V-A:ARG:545:CZ:4926, V-B:GLU:543:CD:9880, V-B:HIS:456:CE1:9041, V-A:GLY:544:C:4912, H-A:LYS:547:NZ:4951, V-B:GLU:543:C:9874, V-A:HIS:456:CE1:4070, V-A:GLU:543:CG:4907, V-A:GLU:543:CB:4906, H-B:LYS:547:NZ:9923, H-A:GLU:543:OE1:4909, H-B:TYR:484:OH:9319, V-A:HIS:456:CD2:4068, H-A:ALA:541:N:4891, H-A:GLY:454:N:4050"]

$$$$
1b_Grossjean_2025
     RDKit          3D

 42 43  0  0  0  0  0  0  0  0999 V2000
  131.0220  126.8710   73.5720 C   0  0  0  0  0  0  0  0  0  0  0  0
  130.0530  127.9100   73.6180 O   0  0  0  0  0  0  0  0  0  0  0  0
  129.9610  128.8230   72.6180 C   0  0  0  0  0  0  0  0  0  0  0  0
  129.8710  130.0390   72.8120 O   0  0  0  0  0  0  0  0  0  0  0  0
  129.9860  128.2070   71.2480 C   0  0  0  0  0  0  0  0  0  0  0  0
  131.1370  128.2270   70.4460 C   0  0  0  0  0  0  0  0  0  0  0  0
  131.1260  127.6480   69.1810 C   0  0  0  0  0  0  0  0  0  0  0  0
  129.9720  127.0380   68.6900 C   0  0  0  0  0  0  0  0  0  0  0  0
  130.0760  126.4870   67.3990 N   0  0  0  0  0  0  0  0  0  0  0  0
  129.8720  125.2210   66.9730 C   0  0  0  0  0  0  0  0  0  0  0  0
  129.5330  124.2740   67.6820 O   0  0  0  0  0  0  0  0  0  0  0  0
  130.0790  124.9920   65.4750 C   0  0  0  0  0  0  0  0  0  0  0  0
  130.2460  123.2280   65.0680 S   0  0  0  0  0  0  0  0  0  0  0  0
  130.7870  123.1240   63.3750 C   0  0  0  0  0  0  0  0  0  0  0  0
  129.8920  122.5230   62.5510 N   0  0  0  0  0  0  0  0  0  0  0  0
  130.2020  122.3920   61.2400 C   0  0  0  0  0  0  0  0  0  0  0  0
  129.1470  121.7240   60.3770 C   0  0  0  0  0  0  0  0  0  0  0  0
  131.4070  122.8390   60.7040 C   0  0  0  0  0  0  0  0  0  0  0  0
  132.3460  123.4400   61.5490 C   0  0  0  0  0  0  0  0  0  0  0  0
  133.6670  123.9070   60.9420 C   0  0  0  0  0  0  0  0  0  0  0  0
  132.0450  123.5870   62.9220 C   0  0  0  0  0  0  0  0  0  0  0  0
  133.0300  124.1730   63.8350 C   0  0  0  0  0  0  0  0  0  0  0  0
  133.8100  124.6370   64.5530 N   0  0  0  0  0  0  0  0  0  0  0  0
  128.8170  127.0130   69.4860 C   0  0  0  0  0  0  0  0  0  0  0  0
  128.8290  127.5920   70.7520 C   0  0  0  0  0  0  0  0  0  0  0  0
  131.2948  126.5785   74.5967 H   0  0  0  0  0  0  0  0  0  0  0  0
  130.6037  126.0027   73.0419 H   0  0  0  0  0  0  0  0  0  0  0  0
  131.9173  127.2278   73.0419 H   0  0  0  0  0  0  0  0  0  0  0  0
  132.0549  128.7040   70.8201 H   0  0  0  0  0  0  0  0  0  0  0  0
  132.0355  127.6716   68.5627 H   0  0  0  0  0  0  0  0  0  0  0  0
  130.3600  127.1500   66.6930 H   0  0  0  0  0  0  0  0  0  0  0  0
  129.2147  125.4010   64.9311 H   0  0  0  0  0  0  0  0  0  0  0  0
  131.0113  125.4966   65.1814 H   0  0  0  0  0  0  0  0  0  0  0  0
  128.3940  121.2472   61.0217 H   0  0  0  0  0  0  0  0  0  0  0  0
  128.6608  122.4792   59.7419 H   0  0  0  0  0  0  0  0  0  0  0  0
  129.6217  120.9615   59.7419 H   0  0  0  0  0  0  0  0  0  0  0  0
  131.6176  122.7211   59.6308 H   0  0  0  0  0  0  0  0  0  0  0  0
  134.3729  124.1566   61.7479 H   0  0  0  0  0  0  0  0  0  0  0  0
  134.0892  123.1036   60.3204 H   0  0  0  0  0  0  0  0  0  0  0  0
  133.4905  124.7972   60.3204 H   0  0  0  0  0  0  0  0  0  0  0  0
  127.9006  126.5352   69.1093 H   0  0  0  0  0  0  0  0  0  0  0  0
  127.9194  127.5663   71.3701 H   0  0  0  0  0  0  0  0  0  0  0  0
  1  2  1  0
  2  3  1  0
  3  4  2  0
  3  5  1  0
  5  6  2  0
  6  7  1  0
  7  8  2  0
  8  9  1  0
  9 10  1  0
 10 11  2  0
 10 12  1  0
 12 13  1  0
 13 14  1  0
 14 15  2  0
 15 16  1  0
 16 17  1  0
 16 18  2  0
 18 19  1  0
 19 20  1  0
 19 21  2  0
 21 22  1  0
 22 23  3  0
  8 24  1  0
 24 25  2  0
 25  5  1  0
 21 14  1  0
  1 26  1  0
  1 27  1  0
  1 28  1  0
  6 29  1  0
  7 30  1  0
  9 31  1  0
 12 32  1  0
 12 33  1  0
 17 34  1  0
 17 35  1  0
 17 36  1  0
 18 37  1  0
 20 38  1  0
 20 39  1  0
 20 40  1  0
 24 41  1  0
 25 42  1  0
M  END
>  <Binding energies>  (1) 
[-7.73]

>  <Ligand effiencies>  (1) 
[-0.29730769230769233]

>  <Interactions>  (1) 
["V-B:PRO:540:CA:9855, V-B:TYR:539:CE2:9848, V-B:TYR:539:C:9839, V-B:TYR:539:CD2:9846, V-A:ILE:369:CD1:3239, V-B:GLU:543:CG:9879, V-A:LEU:475:CD2:4259, V-B:GLU:543:CB:9878, H-A:TYR:484:OH:4348, V-A:GLU:543:CD:4908, V-A:TYR:484:CE2:4346, H-A:ARG:545:NE:4924, V-A:GLY:454:CA:4049, V-B:GLU:543:CD:9880, V-B:HIS:456:CE1:9041, V-A:GLY:544:CA:4914, V-A:GLY:544:C:4912, H-A:LYS:547:NZ:4951, V-A:HIS:456:CE1:4070, V-A:GLU:543:C:4902, V-A:GLU:543:CB:4906, H-A:GLU:543:OE1:4909, V-A:ARG:545:CG:4922, H-A:GLU:543:OE2:4910, V-A:HIS:456:CD2:4068, V-A:HIS:456:CG:4066, H-A:ARG:545:NH2:4928, V-B:GLU:543:CA:9876, H-A:GLY:454:N:4050"]

$$$$
1c_Ghoteimi_2023
     RDKit          3D

 54 57  0  0  0  0  0  0  0  0999 V2000
  126.1970  122.3820   56.5740 C   0  0  0  0  0  0  0  0  0  0  0  0
  125.7190  122.8300   57.8380 O   0  0  0  0  0  0  0  0  0  0  0  0
  126.6270  123.1380   58.8330 C   0  0  0  0  0  0  0  0  0  0  0  0
  127.9460  122.7490   58.6180 C   0  0  0  0  0  0  0  0  0  0  0  0
  128.9270  123.0160   59.5690 C   0  0  0  0  0  0  0  0  0  0  0  0
  128.6170  123.6790   60.7660 C   0  0  0  0  0  0  0  0  0  0  0  0
  129.6700  123.9650   61.7970 C   0  0  0  0  0  0  0  0  0  0  0  0
  129.3800  124.5520   63.0330 C   0  0  0  0  0  0  0  0  0  0  0  0
  130.3930  124.7740   63.9730 C   0  0  0  0  0  0  0  0  0  0  0  0
  130.0010  125.3420   65.2970 C   0  0  0  0  0  0  0  0  0  0  0  0
  130.2630  124.6410   66.4780 C   0  0  0  0  0  0  0  0  0  0  0  0
  129.8770  125.1620   67.7090 C   0  0  0  0  0  0  0  0  0  0  0  0
  129.2190  126.3900   67.7840 C   0  0  0  0  0  0  0  0  0  0  0  0
  128.8740  126.8290   69.0480 O   0  0  0  0  0  0  0  0  0  0  0  0
  129.4730  128.0160   69.5580 C   0  0  0  0  0  0  0  0  0  0  0  0
  128.9480  127.0930   66.6000 C   0  0  0  0  0  0  0  0  0  0  0  0
  129.3350  126.5700   65.3690 C   0  0  0  0  0  0  0  0  0  0  0  0
  131.7190  124.4190   63.6320 C   0  0  0  0  0  0  0  0  0  0  0  0
  132.8300  124.6570   64.5600 C   0  0  0  0  0  0  0  0  0  0  0  0
  133.7050  124.8450   65.2930 N   0  0  0  0  0  0  0  0  0  0  0  0
  131.9390  123.8150   62.3760 C   0  0  0  0  0  0  0  0  0  0  0  0
  133.5210  123.1650   61.8850 S   0  0  0  0  0  0  0  0  0  0  0  0
  133.2470  122.4840   60.2170 C   0  0  0  0  0  0  0  0  0  0  0  0
  132.8140  121.0140   60.2570 C   0  0  0  0  0  0  0  0  0  0  0  0
  133.6300  120.1320   59.9870 O   0  0  0  0  0  0  0  0  0  0  0  0
  131.5350  120.8010   60.6400 N   0  0  0  0  0  0  0  0  0  0  0  0
  130.9430  119.5770   60.9050 C   0  0  0  0  0  0  0  0  0  0  0  0
  130.0730  119.2870   61.8480 N   0  0  0  0  0  0  0  0  0  0  0  0
  129.6890  118.0270   61.7820 C   0  0  0  0  0  0  0  0  0  0  0  0
  130.2520  117.2650   60.7630 C   0  0  0  0  0  0  0  0  0  0  0  0
  131.3450  118.2610   59.8490 S   0  0  0  0  0  0  0  0  0  0  0  0
  130.9390  123.5880   61.4900 N   0  0  0  0  0  0  0  0  0  0  0  0
  127.2850  124.0720   60.9690 C   0  0  0  0  0  0  0  0  0  0  0  0
  126.3010  123.8060   60.0220 C   0  0  0  0  0  0  0  0  0  0  0  0
  126.9919  121.6370   56.7257 H   0  0  0  0  0  0  0  0  0  0  0  0
  125.3700  121.9261   56.0098 H   0  0  0  0  0  0  0  0  0  0  0  0
  126.5984  123.2368   56.0098 H   0  0  0  0  0  0  0  0  0  0  0  0
  128.2156  122.2261   57.6886 H   0  0  0  0  0  0  0  0  0  0  0  0
  129.9637  122.7015   59.3786 H   0  0  0  0  0  0  0  0  0  0  0  0
  128.3454  124.8421   63.2687 H   0  0  0  0  0  0  0  0  0  0  0  0
  130.7782  123.6702   66.4336 H   0  0  0  0  0  0  0  0  0  0  0  0
  130.0923  124.6012   68.6305 H   0  0  0  0  0  0  0  0  0  0  0  0
  129.4599  127.9900   70.6576 H   0  0  0  0  0  0  0  0  0  0  0  0
  130.5127  128.0828   69.2052 H   0  0  0  0  0  0  0  0  0  0  0  0
  128.9091  128.8921   69.2052 H   0  0  0  0  0  0  0  0  0  0  0  0
  128.4277  128.0612   66.6447 H   0  0  0  0  0  0  0  0  0  0  0  0
  129.1153  127.1267   64.4461 H   0  0  0  0  0  0  0  0  0  0  0  0
  132.4616  123.0714   59.7189 H   0  0  0  0  0  0  0  0  0  0  0  0
  134.1983  122.5416   59.6677 H   0  0  0  0  0  0  0  0  0  0  0  0
  130.9660  121.6130   60.8260 H   0  0  0  0  0  0  0  0  0  0  0  0
  128.9645  117.6024   62.4925 H   0  0  0  0  0  0  0  0  0  0  0  0
  130.0397  116.2036   60.5673 H   0  0  0  0  0  0  0  0  0  0  0  0
  127.0138  124.6006   61.8948 H   0  0  0  0  0  0  0  0  0  0  0  0
  125.2634  124.1209   60.2067 H   0  0  0  0  0  0  0  0  0  0  0  0
  1  2  1  0
  2  3  1  0
  3  4  2  0
  4  5  1  0
  5  6  2  0
  6  7  1  0
  7  8  2  0
  8  9  1  0
  9 10  1  0
 10 11  2  0
 11 12  1  0
 12 13  2  0
 13 14  1  0
 14 15  1  0
 13 16  1  0
 16 17  2  0
  9 18  2  0
 18 19  1  0
 19 20  3  0
 18 21  1  0
 21 22  1  0
 22 23  1  0
 23 24  1  0
 24 25  2  0
 24 26  1  0
 26 27  1  0
 27 28  2  0
 28 29  1  0
 29 30  2  0
 30 31  1  0
 21 32  2  0
  6 33  1  0
 33 34  2  0
 34  3  1  0
 32  7  1  0
 17 10  1  0
 31 27  1  0
  1 35  1  0
  1 36  1  0
  1 37  1  0
  4 38  1  0
  5 39  1  0
  8 40  1  0
 11 41  1  0
 12 42  1  0
 15 43  1  0
 15 44  1  0
 15 45  1  0
 16 46  1  0
 17 47  1  0
 23 48  1  0
 23 49  1  0
 26 50  1  0
 29 51  1  0
 30 52  1  0
 33 53  1  0
 34 54  1  0
M  END
>  <Binding energies>  (1) 
[-8.77]

>  <Ligand effiencies>  (1) 
[-0.25057142857142856]

>  <Interactions>  (1) 
["V-B:PRO:540:N:9856, V-B:PRO:540:CB:9857, V-B:PRO:540:CA:9855, V-B:TYR:539:CE2:9848, V-B:PRO:540:CD:9859, V-B:MET:535:CE:9807, V-B:TYR:539:C:9839, V-B:TYR:539:CG:9844, V-B:TYR:539:CD2:9846, V-B:ALA:541:CB:9864, V-B:GLU:543:CG:9879, V-A:ILE:369:CG2:3237, V-A:LEU:475:CD2:4259, V-A:TYR:484:CZ:4347, V-B:GLU:543:CB:9878, H-A:TYR:484:OH:4348, V-A:GLU:543:CD:4908, V-A:TYR:484:CE2:4346, H-A:ARG:545:NE:4924, V-A:ARG:545:CZ:4926, V-B:GLU:543:CD:9880, V-B:HIS:456:CE1:9041, V-A:HIS:456:CE1:4070, V-A:GLU:543:CB:4906, H-A:ARG:545:NH2:4928, V-B:GLU:543:CA:9876, H-A:GLY:454:N:4050, V-B:TYR:539:CB:9843, H-A:SER:385:OG:3410, V-A:HIS:383:NE2:3394, V-A:LEU:475:CG:4257, V-A:HIS:383:CD2:3392, V-A:HIS:383:CE1:3393, V-A:LEU:475:CD1:4258, V-A:PRO:482:CB:4326, V-A:PRO:482:CG:4327"]

$$$$
1c_Grossjean_2025
     RDKit          3D

 40 41  0  0  0  0  0  0  0  0999 V2000
  129.5720  127.4040   70.0060 C   0  0  0  0  0  0  0  0  0  0  0  0
  129.1670  126.7020   68.8350 O   0  0  0  0  0  0  0  0  0  0  0  0
  128.8790  127.4150   67.6880 C   0  0  0  0  0  0  0  0  0  0  0  0
  128.3520  128.6950   67.8670 C   0  0  0  0  0  0  0  0  0  0  0  0
  128.0310  129.4920   66.7720 C   0  0  0  0  0  0  0  0  0  0  0  0
  128.2410  129.0130   65.4710 C   0  0  0  0  0  0  0  0  0  0  0  0
  127.9420  129.7290   64.2950 N   0  0  0  0  0  0  0  0  0  0  0  0
  127.9960  131.0580   64.0650 C   0  0  0  0  0  0  0  0  0  0  0  0
  128.3500  131.9110   64.8790 O   0  0  0  0  0  0  0  0  0  0  0  0
  127.5800  131.4970   62.6590 C   0  0  0  0  0  0  0  0  0  0  0  0
  128.5330  132.9360   62.0900 S   0  0  0  0  0  0  0  0  0  0  0  0
  130.0480  132.3530   61.3570 C   0  0  0  0  0  0  0  0  0  0  0  0
  131.0200  132.0890   62.2660 N   0  0  0  0  0  0  0  0  0  0  0  0
  132.2190  131.6390   61.8260 C   0  0  0  0  0  0  0  0  0  0  0  0
  133.2520  131.3560   62.9010 C   0  0  0  0  0  0  0  0  0  0  0  0
  132.4990  131.4470   60.4750 C   0  0  0  0  0  0  0  0  0  0  0  0
  131.5130  131.7390   59.5280 C   0  0  0  0  0  0  0  0  0  0  0  0
  131.8510  131.5360   58.0520 C   0  0  0  0  0  0  0  0  0  0  0  0
  130.2540  132.2120   59.9640 C   0  0  0  0  0  0  0  0  0  0  0  0
  129.2280  132.5760   58.9840 C   0  0  0  0  0  0  0  0  0  0  0  0
  128.4170  132.8620   58.2090 N   0  0  0  0  0  0  0  0  0  0  0  0
  128.7570  127.7290   65.2870 C   0  0  0  0  0  0  0  0  0  0  0  0
  129.0770  126.9350   66.3850 C   0  0  0  0  0  0  0  0  0  0  0  0
  129.2501  126.8461   70.8977 H   0  0  0  0  0  0  0  0  0  0  0  0
  130.6673  127.5053   70.0124 H   0  0  0  0  0  0  0  0  0  0  0  0
  129.1114  128.4029   70.0124 H   0  0  0  0  0  0  0  0  0  0  0  0
  128.1885  129.0782   68.8850 H   0  0  0  0  0  0  0  0  0  0  0  0
  127.6127  130.4974   66.9272 H   0  0  0  0  0  0  0  0  0  0  0  0
  127.6990  129.1500   63.5060 H   0  0  0  0  0  0  0  0  0  0  0  0
  127.7457  130.6623   61.9620 H   0  0  0  0  0  0  0  0  0  0  0  0
  126.5180  131.7817   62.6905 H   0  0  0  0  0  0  0  0  0  0  0  0
  132.7930  131.4817   63.8927 H   0  0  0  0  0  0  0  0  0  0  0  0
  133.6186  130.3243   62.7948 H   0  0  0  0  0  0  0  0  0  0  0  0
  134.0932  132.0568   62.7948 H   0  0  0  0  0  0  0  0  0  0  0  0
  133.4827  131.0707   60.1576 H   0  0  0  0  0  0  0  0  0  0  0  0
  132.7911  130.9714   57.9654 H   0  0  0  0  0  0  0  0  0  0  0  0
  131.0402  130.9753   57.5639 H   0  0  0  0  0  0  0  0  0  0  0  0
  131.9651  132.5152   57.5639 H   0  0  0  0  0  0  0  0  0  0  0  0
  128.9116  127.3424   64.2688 H   0  0  0  0  0  0  0  0  0  0  0  0
  129.4872  125.9262   66.2299 H   0  0  0  0  0  0  0  0  0  0  0  0
  1  2  1  0
  2  3  1  0
  3  4  2  0
  4  5  1  0
  5  6  2  0
  6  7  1  0
  7  8  1  0
  8  9  2  0
  8 10  1  0
 10 11  1  0
 11 12  1  0
 12 13  2  0
 13 14  1  0
 14 15  1  0
 14 16  2  0
 16 17  1  0
 17 18  1  0
 17 19  2  0
 19 20  1  0
 20 21  3  0
  6 22  1  0
 22 23  2  0
 23  3  1  0
 19 12  1  0
  1 24  1  0
  1 25  1  0
  1 26  1  0
  4 27  1  0
  5 28  1  0
  7 29  1  0
 10 30  1  0
 10 31  1  0
 15 32  1  0
 15 33  1  0
 15 34  1  0
 16 35  1  0
 18 36  1  0
 18 37  1  0
 18 38  1  0
 22 39  1  0
 23 40  1  0
M  END
>  <Binding energies>  (1) 
[-6.92]

>  <Ligand effiencies>  (1) 
[-0.28833333333333333]

>  <Interactions>  (1) 
["V-A:LEU:363:CD1:3189, V-A:PRO:540:CA:4883, V-A:PRO:540:CB:4885, V-A:PRO:540:N:4884, V-A:TYR:539:C:4867, V-B:GLU:543:CG:9879, V-B:GLU:543:CB:9878, V-A:GLU:543:CD:4908, V-B:GLU:543:CD:9880, V-B:HIS:456:CE1:9041, V-A:HIS:456:CE1:4070, V-A:GLU:543:CG:4907, V-A:GLU:543:CB:4906, H-A:GLU:543:OE1:4909, V-B:TYR:484:CZ:9318, H-B:GLU:543:OE2:9882, H-B:TYR:484:OH:9319, V-A:PRO:540:C:4881, H-A:ALA:541:N:4891, V-B:TYR:484:CE2:9317, V-A:ASN:362:CB:3176, V-A:ASN:362:CG:3177"]

$$$$
1d_Ghoteimi_2023
     RDKit          3D

 50 52  0  0  0  0  0  0  0  0999 V2000
  131.7730  126.1730   59.1600 C   0  0  0  0  0  0  0  0  0  0  0  0
  132.0850  124.9410   58.5290 O   0  0  0  0  0  0  0  0  0  0  0  0
  133.3250  124.4180   58.6230 C   0  0  0  0  0  0  0  0  0  0  0  0
  133.9650  123.8910   57.7110 O   0  0  0  0  0  0  0  0  0  0  0  0
  133.8980  124.5340   60.0330 C   0  0  0  0  0  0  0  0  0  0  0  0
  133.2750  123.1230   60.9950 S   0  0  0  0  0  0  0  0  0  0  0  0
  131.7220  123.6220   61.7050 C   0  0  0  0  0  0  0  0  0  0  0  0
  130.6670  123.4750   60.8680 N   0  0  0  0  0  0  0  0  0  0  0  0
  129.4210  123.8210   61.2810 C   0  0  0  0  0  0  0  0  0  0  0  0
  128.3070  123.6210   60.2950 C   0  0  0  0  0  0  0  0  0  0  0  0
  128.5270  122.9760   59.0680 C   0  0  0  0  0  0  0  0  0  0  0  0
  127.4940  122.7970   58.1530 C   0  0  0  0  0  0  0  0  0  0  0  0
  126.2100  123.2580   58.4330 C   0  0  0  0  0  0  0  0  0  0  0  0
  125.2480  123.0400   57.4650 O   0  0  0  0  0  0  0  0  0  0  0  0
  125.6140  122.3710   56.2630 C   0  0  0  0  0  0  0  0  0  0  0  0
  125.9740  123.9040   59.6540 C   0  0  0  0  0  0  0  0  0  0  0  0
  127.0100  124.0800   60.5680 C   0  0  0  0  0  0  0  0  0  0  0  0
  129.2110  124.3220   62.5710 C   0  0  0  0  0  0  0  0  0  0  0  0
  130.2860  124.4990   63.4520 C   0  0  0  0  0  0  0  0  0  0  0  0
  129.9910  125.0450   64.8120 C   0  0  0  0  0  0  0  0  0  0  0  0
  129.4330  126.3200   64.9530 C   0  0  0  0  0  0  0  0  0  0  0  0
  129.1560  126.8350   66.2160 C   0  0  0  0  0  0  0  0  0  0  0  0
  129.4260  126.0870   67.3620 C   0  0  0  0  0  0  0  0  0  0  0  0
  129.1250  126.6800   68.5730 O   0  0  0  0  0  0  0  0  0  0  0  0
  128.7920  128.0640   68.6050 C   0  0  0  0  0  0  0  0  0  0  0  0
  129.9740  124.8020   67.2250 C   0  0  0  0  0  0  0  0  0  0  0  0
  130.2490  124.2890   65.9600 C   0  0  0  0  0  0  0  0  0  0  0  0
  131.5870  124.1600   63.0050 C   0  0  0  0  0  0  0  0  0  0  0  0
  132.7590  124.4220   63.8460 C   0  0  0  0  0  0  0  0  0  0  0  0
  133.6830  124.6300   64.5110 N   0  0  0  0  0  0  0  0  0  0  0  0
  131.8056  126.0443   60.2520 H   0  0  0  0  0  0  0  0  0  0  0  0
  132.5064  126.9354   58.8586 H   0  0  0  0  0  0  0  0  0  0  0  0
  130.7651  126.4944   58.8586 H   0  0  0  0  0  0  0  0  0  0  0  0
  134.9970  124.5065   59.9950 H   0  0  0  0  0  0  0  0  0  0  0  0
  133.5938  125.4836   60.4975 H   0  0  0  0  0  0  0  0  0  0  0  0
  129.5339  122.6054   58.8254 H   0  0  0  0  0  0  0  0  0  0  0  0
  127.6935  122.2864   57.1993 H   0  0  0  0  0  0  0  0  0  0  0  0
  126.1286  121.4304   56.5090 H   0  0  0  0  0  0  0  0  0  0  0  0
  124.7102  122.1517   55.6756 H   0  0  0  0  0  0  0  0  0  0  0  0
  126.2861  123.0139   55.6756 H   0  0  0  0  0  0  0  0  0  0  0  0
  124.9657  124.2738   59.8917 H   0  0  0  0  0  0  0  0  0  0  0  0
  126.8073  124.5886   61.5221 H   0  0  0  0  0  0  0  0  0  0  0  0
  128.1922  124.5792   62.8963 H   0  0  0  0  0  0  0  0  0  0  0  0
  129.2113  126.9205   64.0584 H   0  0  0  0  0  0  0  0  0  0  0  0
  128.7204  127.8406   66.3113 H   0  0  0  0  0  0  0  0  0  0  0  0
  128.7117  128.3977   69.6501 H   0  0  0  0  0  0  0  0  0  0  0  0
  129.5767  128.6418   68.0948 H   0  0  0  0  0  0  0  0  0  0  0  0
  127.8303  128.2216   68.0948 H   0  0  0  0  0  0  0  0  0  0  0  0
  130.1869  124.1984   68.1196 H   0  0  0  0  0  0  0  0  0  0  0  0
  130.6735  123.2789   65.8626 H   0  0  0  0  0  0  0  0  0  0  0  0
  1  2  1  0
  2  3  1  0
  3  4  2  0
  3  5  1  0
  5  6  1  0
  6  7  1  0
  7  8  2  0
  8  9  1  0
  9 10  1  0
 10 11  2  0
 11 12  1  0
 12 13  2  0
 13 14  1  0
 14 15  1  0
 13 16  1  0
 16 17  2  0
  9 18  2  0
 18 19  1  0
 19 20  1  0
 20 21  2  0
 21 22  1  0
 22 23  2  0
 23 24  1  0
 24 25  1  0
 23 26  1  0
 26 27  2  0
 19 28  2  0
 28 29  1  0
 29 30  3  0
 28  7  1  0
 17 10  1  0
 27 20  1  0
  1 31  1  0
  1 32  1  0
  1 33  1  0
  5 34  1  0
  5 35  1  0
 11 36  1  0
 12 37  1  0
 15 38  1  0
 15 39  1  0
 15 40  1  0
 16 41  1  0
 17 42  1  0
 18 43  1  0
 21 44  1  0
 22 45  1  0
 25 46  1  0
 25 47  1  0
 25 48  1  0
 26 49  1  0
 27 50  1  0
M  END
>  <Binding energies>  (1) 
[-7.82]

>  <Ligand effiencies>  (1) 
[-0.26066666666666666]

>  <Interactions>  (1) 
["V-A:ASP:366:CG:3213, H-B:TYR:539:OH:9850, V-A:ASP:366:CB:3212, V-B:TYR:539:CZ:9849, V-B:PRO:540:N:9856, V-B:PRO:540:CB:9857, V-B:PRO:540:CA:9855, V-B:TYR:539:CE2:9848, V-B:PRO:540:CD:9859, V-B:MET:535:CE:9807, V-B:LEU:363:CD1:8160, V-B:TYR:539:C:9839, V-B:TYR:539:CD2:9846, V-A:ASP:366:CA:3210, V-A:ILE:369:CD1:3239, V-B:GLU:543:CG:9879, H-A:ASN:370:N:3244, V-A:ILE:369:CG2:3237, V-A:TYR:484:CZ:4347, V-B:GLU:543:CB:9878, H-A:TYR:484:OH:4348, V-A:GLU:543:CD:4908, V-A:TYR:484:CE2:4346, H-A:ARG:545:NE:4924, V-B:GLU:543:CD:9880, V-B:HIS:456:CE1:9041, V-A:HIS:456:CE1:4070, V-A:GLU:543:CB:4906, H-A:ARG:545:NH2:4928, V-B:GLU:543:CA:9876, H-A:GLY:454:N:4050, V-B:ILE:538:CG2:9835"]

$$$$
1d_Grossjean_2025
     RDKit          3D

 36 37  0  0  0  0  0  0  0  0999 V2000
  127.1260  127.8630   59.1920 C   0  0  0  0  0  0  0  0  0  0  0  0
  126.8920  126.5380   58.4930 C   0  0  0  0  0  0  0  0  0  0  0  0
  127.7560  126.0700   57.5050 C   0  0  0  0  0  0  0  0  0  0  0  0
  127.4950  124.8360   56.9020 C   0  0  0  0  0  0  0  0  0  0  0  0
  128.4660  124.3370   55.8330 C   0  0  0  0  0  0  0  0  0  0  0  0
  126.3570  124.0970   57.3020 C   0  0  0  0  0  0  0  0  0  0  0  0
  126.0900  122.7810   56.7180 C   0  0  0  0  0  0  0  0  0  0  0  0
  125.8830  121.7410   56.2550 N   0  0  0  0  0  0  0  0  0  0  0  0
  125.5210  124.6610   58.2940 C   0  0  0  0  0  0  0  0  0  0  0  0
  124.0520  123.8720   58.9150 S   0  0  0  0  0  0  0  0  0  0  0  0
  123.9860  124.1790   60.7060 C   0  0  0  0  0  0  0  0  0  0  0  0
  125.0960  123.4420   61.4580 C   0  0  0  0  0  0  0  0  0  0  0  0
  124.8040  122.7500   62.4330 O   0  0  0  0  0  0  0  0  0  0  0  0
  126.3390  123.6000   60.9540 N   0  0  0  0  0  0  0  0  0  0  0  0
  127.5680  123.0840   61.4060 C   0  0  0  0  0  0  0  0  0  0  0  0
  128.3890  122.5250   60.4220 C   0  0  0  0  0  0  0  0  0  0  0  0
  129.6280  121.9910   60.7610 C   0  0  0  0  0  0  0  0  0  0  0  0
  130.0540  122.0210   62.0870 C   0  0  0  0  0  0  0  0  0  0  0  0
  129.2500  122.5830   63.0760 C   0  0  0  0  0  0  0  0  0  0  0  0
  128.0090  123.1170   62.7400 C   0  0  0  0  0  0  0  0  0  0  0  0
  125.7950  125.8500   58.8890 N   0  0  0  0  0  0  0  0  0  0  0  0
  127.0994  127.7126   60.2813 H   0  0  0  0  0  0  0  0  0  0  0  0
  128.1086  128.2626   58.9009 H   0  0  0  0  0  0  0  0  0  0  0  0
  126.3397  128.5750   58.9009 H   0  0  0  0  0  0  0  0  0  0  0  0
  128.6317  126.6635   57.2035 H   0  0  0  0  0  0  0  0  0  0  0  0
  129.3444  123.8856   56.3175 H   0  0  0  0  0  0  0  0  0  0  0  0
  127.9658  123.5842   55.2060 H   0  0  0  0  0  0  0  0  0  0  0  0
  128.7869  125.1819   55.2060 H   0  0  0  0  0  0  0  0  0  0  0  0
  124.0932  125.2591   60.8848 H   0  0  0  0  0  0  0  0  0  0  0  0
  123.0201  123.8066   61.0779 H   0  0  0  0  0  0  0  0  0  0  0  0
  126.4110  124.1610   60.1170 H   0  0  0  0  0  0  0  0  0  0  0  0
  128.0535  122.5074   59.3745 H   0  0  0  0  0  0  0  0  0  0  0  0
  130.2688  121.5468   59.9851 H   0  0  0  0  0  0  0  0  0  0  0  0
  131.0331  121.5975   62.3552 H   0  0  0  0  0  0  0  0  0  0  0  0
  129.5949  122.6048   64.1203 H   0  0  0  0  0  0  0  0  0  0  0  0
  127.3737  123.5647   63.5185 H   0  0  0  0  0  0  0  0  0  0  0  0
  1  2  1  0
  2  3  2  0
  3  4  1  0
  4  5  1  0
  4  6  2  0
  6  7  1  0
  7  8  3  0
  6  9  1  0
  9 10  1  0
 10 11  1  0
 11 12  1  0
 12 13  2  0
 12 14  1  0
 14 15  1  0
 15 16  2  0
 16 17  1  0
 17 18  2  0
 18 19  1  0
 19 20  2  0
  9 21  2  0
 21  2  1  0
 20 15  1  0
  1 22  1  0
  1 23  1  0
  1 24  1  0
  3 25  1  0
  5 26  1  0
  5 27  1  0
  5 28  1  0
 11 29  1  0
 11 30  1  0
 14 31  1  0
 16 32  1  0
 17 33  1  0
 18 34  1  0
 19 35  1  0
 20 36  1  0
M  END
>  <Binding energies>  (1) 
[-6.61]

>  <Ligand effiencies>  (1) 
[-0.3004545454545455]

>  <Interactions>  (1) 
["V-B:TYR:539:CZ:9849, V-B:PRO:540:N:9856, V-B:TYR:539:CE1:9847, V-B:PRO:540:CB:9857, V-B:PRO:540:CA:9855, V-B:TYR:539:CE2:9848, H-B:TYR:539:N:9842, V-B:PRO:540:CD:9859, H-B:ASP:366:OD1:8185, V-B:ASP:366:CG:8184, V-B:MET:535:CE:9807, V-B:PRO:540:C:9853, H-B:ALA:541:N:9863, V-B:TYR:539:CD2:9846, V-B:LEU:363:CA:8156, V-B:ALA:541:CB:9864, V-B:GLU:543:CG:9879, V-A:LEU:475:CD2:4259, V-B:GLU:543:CD:9880, V-B:ASN:362:CB:8147, V-B:ASN:362:C:8143"]

$$$$
1e_Grossjean_2025
     RDKit          3D

 38 39  0  0  0  0  0  0  0  0999 V2000
  126.8790  122.3750   55.5480 C   0  0  0  0  0  0  0  0  0  0  0  0
  126.3180  122.9360   56.8400 C   0  0  0  0  0  0  0  0  0  0  0  0
  125.0050  123.4080   56.9230 C   0  0  0  0  0  0  0  0  0  0  0  0
  124.5580  123.9130   58.1450 C   0  0  0  0  0  0  0  0  0  0  0  0
  125.4230  123.9360   59.2410 C   0  0  0  0  0  0  0  0  0  0  0  0
  126.7240  123.4430   59.0900 C   0  0  0  0  0  0  0  0  0  0  0  0
  127.5520  123.5030   60.2250 N   0  0  0  0  0  0  0  0  0  0  0  0
  127.2550  123.1740   61.5010 C   0  0  0  0  0  0  0  0  0  0  0  0
  126.1600  122.7610   61.8880 O   0  0  0  0  0  0  0  0  0  0  0  0
  128.3810  123.3690   62.5190 C   0  0  0  0  0  0  0  0  0  0  0  0
  129.8540  122.3880   62.1000 S   0  0  0  0  0  0  0  0  0  0  0  0
  130.8500  123.3170   60.9510 C   0  0  0  0  0  0  0  0  0  0  0  0
  130.1210  123.9610   60.0040 N   0  0  0  0  0  0  0  0  0  0  0  0
  130.7690  124.6990   59.0720 C   0  0  0  0  0  0  0  0  0  0  0  0
  129.8890  125.3940   58.0510 C   0  0  0  0  0  0  0  0  0  0  0  0
  132.1570  124.8150   59.0370 C   0  0  0  0  0  0  0  0  0  0  0  0
  132.9190  124.1370   59.9940 C   0  0  0  0  0  0  0  0  0  0  0  0
  134.4400  124.2660   59.9230 C   0  0  0  0  0  0  0  0  0  0  0  0
  132.2650  123.3570   60.9750 C   0  0  0  0  0  0  0  0  0  0  0  0
  133.0500  122.5940   61.9470 C   0  0  0  0  0  0  0  0  0  0  0  0
  133.6740  121.9910   62.7140 N   0  0  0  0  0  0  0  0  0  0  0  0
  127.1700  122.9510   57.8960 N   0  0  0  0  0  0  0  0  0  0  0  0
  127.6396  121.6144   55.7782 H   0  0  0  0  0  0  0  0  0  0  0  0
  126.0671  121.9167   54.9642 H   0  0  0  0  0  0  0  0  0  0  0  0
  127.3373  123.1869   54.9642 H   0  0  0  0  0  0  0  0  0  0  0  0
  124.3404  123.3821   56.0469 H   0  0  0  0  0  0  0  0  0  0  0  0
  123.5297  124.2909   58.2442 H   0  0  0  0  0  0  0  0  0  0  0  0
  125.0867  124.3358   60.2090 H   0  0  0  0  0  0  0  0  0  0  0  0
  128.4690  123.8930   60.0600 H   0  0  0  0  0  0  0  0  0  0  0  0
  128.6579  124.4333   62.5430 H   0  0  0  0  0  0  0  0  0  0  0  0
  128.0151  123.0314   63.4999 H   0  0  0  0  0  0  0  0  0  0  0  0
  129.1283  125.9948   58.5710 H   0  0  0  0  0  0  0  0  0  0  0  0
  130.5069  126.0505   57.4207 H   0  0  0  0  0  0  0  0  0  0  0  0
  129.3935  124.6408   57.4207 H   0  0  0  0  0  0  0  0  0  0  0  0
  132.6463  125.4308   58.2680 H   0  0  0  0  0  0  0  0  0  0  0  0
  134.8530  124.3010   60.9419 H   0  0  0  0  0  0  0  0  0  0  0  0
  134.8569  123.4000   59.3880 H   0  0  0  0  0  0  0  0  0  0  0  0
  134.7051  125.1898   59.3880 H   0  0  0  0  0  0  0  0  0  0  0  0
  1  2  1  0
  2  3  2  0
  3  4  1  0
  4  5  2  0
  5  6  1  0
  6  7  1  0
  7  8  1  0
  8  9  2  0
  8 10  1  0
 10 11  1  0
 11 12  1  0
 12 13  2  0
 13 14  1  0
 14 15  1  0
 14 16  2  0
 16 17  1  0
 17 18  1  0
 17 19  2  0
 19 20  1  0
 20 21  3  0
  6 22  2  0
 22  2  1  0
 19 12  1  0
  1 23  1  0
  1 24  1  0
  1 25  1  0
  3 26  1  0
  4 27  1  0
  5 28  1  0
  7 29  1  0
 10 30  1  0
 10 31  1  0
 15 32  1  0
 15 33  1  0
 15 34  1  0
 16 35  1  0
 18 36  1  0
 18 37  1  0
 18 38  1  0
M  END
>  <Binding energies>  (1) 
[-6.62]

>  <Ligand effiencies>  (1) 
[-0.28782608695652173]

>  <Interactions>  (1) 
["V-A:ASP:366:CG:3213, V-A:ASP:366:CB:3212, V-B:TYR:539:CZ:9849, V-B:PRO:540:N:9856, V-B:TYR:539:CE1:9847, V-B:PRO:540:CB:9857, V-B:TYR:539:CD1:9845, V-B:PRO:540:CA:9855, V-B:TYR:539:CE2:9848, V-B:PRO:540:CD:9859, V-B:MET:535:CE:9807, V-B:LEU:363:CD1:8160, V-B:PRO:540:C:9853, H-B:ALA:541:N:9863, V-B:LEU:363:CA:8156, V-A:ASP:366:CA:3210, V-A:ILE:369:CD1:3239, V-B:GLU:543:CG:9879, V-A:ILE:369:CB:3236, V-A:ILE:369:CG2:3237, V-A:LEU:475:CD2:4259, V-B:GLU:543:CD:9880, H-A:GLY:454:N:4050, V-B:ILE:538:CA:9832, V-B:ILE:538:C:9830, V-A:ILE:369:CG1:3238"]

$$$$
1f_Grossjean_2025
     RDKit          3D

 35 36  0  0  0  0  0  0  0  0999 V2000
  131.3610  125.4110   66.7070 C   0  0  0  0  0  0  0  0  0  0  0  0
  131.5940  124.8330   65.3230 C   0  0  0  0  0  0  0  0  0  0  0  0
  132.8230  124.9550   64.6800 C   0  0  0  0  0  0  0  0  0  0  0  0
  132.9750  124.4130   63.3990 C   0  0  0  0  0  0  0  0  0  0  0  0
  134.3270  124.5750   62.7060 C   0  0  0  0  0  0  0  0  0  0  0  0
  131.8830  123.7480   62.7950 C   0  0  0  0  0  0  0  0  0  0  0  0
  132.0070  123.2230   61.4320 C   0  0  0  0  0  0  0  0  0  0  0  0
  132.1060  122.8090   60.3570 N   0  0  0  0  0  0  0  0  0  0  0  0
  130.6810  123.6470   63.5330 C   0  0  0  0  0  0  0  0  0  0  0  0
  129.2040  122.8490   62.9370 S   0  0  0  0  0  0  0  0  0  0  0  0
  128.1700  124.1000   62.1010 C   0  0  0  0  0  0  0  0  0  0  0  0
  127.1500  123.5330   61.1020 C   0  0  0  0  0  0  0  0  0  0  0  0
  126.1150  122.9990   61.5020 O   0  0  0  0  0  0  0  0  0  0  0  0
  127.5070  123.6540   59.8060 N   0  0  0  0  0  0  0  0  0  0  0  0
  126.8190  123.2570   58.6440 C   0  0  0  0  0  0  0  0  0  0  0  0
  125.5070  123.6320   58.3000 C   0  0  0  0  0  0  0  0  0  0  0  0
  124.9450  123.1660   57.1080 C   0  0  0  0  0  0  0  0  0  0  0  0
  125.7110  122.3390   56.2860 C   0  0  0  0  0  0  0  0  0  0  0  0
  126.9790  121.9670   56.5920 N   0  0  0  0  0  0  0  0  0  0  0  0
  127.5110  122.4280   57.7540 C   0  0  0  0  0  0  0  0  0  0  0  0
  130.5370  124.1980   64.7650 N   0  0  0  0  0  0  0  0  0  0  0  0
  131.6583  124.6736   67.4671 H   0  0  0  0  0  0  0  0  0  0  0  0
  131.9609  126.3250   66.8284 H   0  0  0  0  0  0  0  0  0  0  0  0
  130.2949  125.6534   66.8284 H   0  0  0  0  0  0  0  0  0  0  0  0
  133.6617  125.4697   65.1716 H   0  0  0  0  0  0  0  0  0  0  0  0
  135.1185  124.6698   63.4640 H   0  0  0  0  0  0  0  0  0  0  0  0
  134.5248  123.6941   62.0776 H   0  0  0  0  0  0  0  0  0  0  0  0
  134.3111  125.4777   62.0776 H   0  0  0  0  0  0  0  0  0  0  0  0
  127.6190  124.6586   62.8720 H   0  0  0  0  0  0  0  0  0  0  0  0
  128.8580  124.7283   61.5164 H   0  0  0  0  0  0  0  0  0  0  0  0
  128.4070  124.0770   59.6310 H   0  0  0  0  0  0  0  0  0  0  0  0
  124.9269  124.2882   58.9655 H   0  0  0  0  0  0  0  0  0  0  0  0
  123.9198  123.4456   56.8239 H   0  0  0  0  0  0  0  0  0  0  0  0
  125.2672  121.9725   55.3486 H   0  0  0  0  0  0  0  0  0  0  0  0
  128.5400  122.1341   58.0086 H   0  0  0  0  0  0  0  0  0  0  0  0
  1  2  1  0
  2  3  2  0
  3  4  1  0
  4  5  1  0
  4  6  2  0
  6  7  1  0
  7  8  3  0
  6  9  1  0
  9 10  1  0
 10 11  1  0
 11 12  1  0
 12 13  2  0
 12 14  1  0
 14 15  1  0
 15 16  2  0
 16 17  1  0
 17 18  2  0
 18 19  1  0
 19 20  2  0
  9 21  2  0
 21  2  1  0
 20 15  1  0
  1 22  1  0
  1 23  1  0
  1 24  1  0
  3 25  1  0
  5 26  1  0
  5 27  1  0
  5 28  1  0
 11 29  1  0
 11 30  1  0
 14 31  1  0
 16 32  1  0
 17 33  1  0
 18 34  1  0
 20 35  1  0
M  END
>  <Binding energies>  (1) 
[-6.84]

>  <Ligand effiencies>  (1) 
[-0.3109090909090909]

>  <Interactions>  (1) 
["V-B:TYR:539:CZ:9849, V-B:PRO:540:N:9856, V-B:PRO:540:CB:9857, V-B:TYR:539:CD1:9845, V-B:PRO:540:CA:9855, V-B:TYR:539:CE2:9848, H-B:TYR:539:N:9842, V-B:PRO:540:CD:9859, V-B:MET:535:CE:9807, V-B:LEU:363:CD1:8160, V-B:TYR:539:C:9839, V-B:TYR:539:CG:9844, H-B:ALA:541:N:9863, V-B:TYR:539:CD2:9846, V-A:ILE:369:CD1:3239, V-B:GLU:543:CG:9879, V-A:TYR:484:CZ:4347, V-A:GLY:453:CA:4044, H-A:TYR:484:OH:4348, V-A:ARG:545:CZ:4926, V-B:GLU:543:CD:9880, V-A:HIS:456:CE1:4070, V-A:GLY:453:C:4042, V-B:ILE:538:CG2:9835, V-B:TYR:539:CA:9841"]

$$$$
1g_Grossjean_2025
     RDKit          3D

 39 40  0  0  0  0  0  0  0  0999 V2000
  126.4700  128.1520   58.6620 C   0  0  0  0  0  0  0  0  0  0  0  0
  126.4660  126.7340   58.1220 C   0  0  0  0  0  0  0  0  0  0  0  0
  127.4990  126.2560   57.3170 C   0  0  0  0  0  0  0  0  0  0  0  0
  127.4330  124.9450   56.8350 C   0  0  0  0  0  0  0  0  0  0  0  0
  128.5690  124.4480   55.9420 C   0  0  0  0  0  0  0  0  0  0  0  0
  126.3280  124.1350   57.1820 C   0  0  0  0  0  0  0  0  0  0  0  0
  126.2110  122.7760   56.6460 C   0  0  0  0  0  0  0  0  0  0  0  0
  126.1220  121.7040   56.2200 N   0  0  0  0  0  0  0  0  0  0  0  0
  125.3380  124.6950   58.0240 C   0  0  0  0  0  0  0  0  0  0  0  0
  123.8890  123.8160   58.5660 S   0  0  0  0  0  0  0  0  0  0  0  0
  123.8700  123.8750   60.3830 C   0  0  0  0  0  0  0  0  0  0  0  0
  125.2800  123.8160   60.9730 C   0  0  0  0  0  0  0  0  0  0  0  0
  125.6610  122.8010   61.5590 O   0  0  0  0  0  0  0  0  0  0  0  0
  126.0380  124.9140   60.8140 N   0  0  0  0  0  0  0  0  0  0  0  0
  127.4290  125.0550   61.2450 C   0  0  0  0  0  0  0  0  0  0  0  0
  128.1930  123.7380   61.3400 C   0  0  0  0  0  0  0  0  0  0  0  0
  128.6550  123.2860   62.5800 C   0  0  0  0  0  0  0  0  0  0  0  0
  129.3520  122.0840   62.6660 C   0  0  0  0  0  0  0  0  0  0  0  0
  129.5810  121.3350   61.5130 C   0  0  0  0  0  0  0  0  0  0  0  0
  129.1190  121.7770   60.2760 C   0  0  0  0  0  0  0  0  0  0  0  0
  128.4230  122.9800   60.1880 C   0  0  0  0  0  0  0  0  0  0  0  0
  125.3990  125.9760   58.4690 N   0  0  0  0  0  0  0  0  0  0  0  0
  126.4699  128.1256   59.7617 H   0  0  0  0  0  0  0  0  0  0  0  0
  127.3696  128.6767   58.3079 H   0  0  0  0  0  0  0  0  0  0  0  0
  125.5733  128.6817   58.3079 H   0  0  0  0  0  0  0  0  0  0  0  0
  128.3537  126.9008   57.0646 H   0  0  0  0  0  0  0  0  0  0  0  0
  129.3969  124.0858   56.5693 H   0  0  0  0  0  0  0  0  0  0  0  0
  128.2040  123.6274   55.3069 H   0  0  0  0  0  0  0  0  0  0  0  0
  128.9240  125.2730   55.3069 H   0  0  0  0  0  0  0  0  0  0  0  0
  123.3901  124.8117   60.7029 H   0  0  0  0  0  0  0  0  0  0  0  0
  123.3130  122.9985   60.7456 H   0  0  0  0  0  0  0  0  0  0  0  0
  125.6520  125.6950   60.3020 H   0  0  0  0  0  0  0  0  0  0  0  0
  127.9489  125.7037   60.5246 H   0  0  0  0  0  0  0  0  0  0  0  0
  127.4031  125.4782   62.2600 H   0  0  0  0  0  0  0  0  0  0  0  0
  128.4678  123.8798   63.4869 H   0  0  0  0  0  0  0  0  0  0  0  0
  129.7202  121.7271   63.6391 H   0  0  0  0  0  0  0  0  0  0  0  0
  130.1321  120.3854   61.5809 H   0  0  0  0  0  0  0  0  0  0  0  0
  129.3031  121.1782   59.3718 H   0  0  0  0  0  0  0  0  0  0  0  0
  128.0548  123.3333   59.2135 H   0  0  0  0  0  0  0  0  0  0  0  0
  1  2  1  0
  2  3  2  0
  3  4  1  0
  4  5  1  0
  4  6  2  0
  6  7  1  0
  7  8  3  0
  6  9  1  0
  9 10  1  0
 10 11  1  0
 11 12  1  0
 12 13  2  0
 12 14  1  0
 14 15  1  0
 15 16  1  0
 16 17  2  0
 17 18  1  0
 18 19  2  0
 19 20  1  0
 20 21  2  0
  9 22  2  0
 22  2  1  0
 21 16  1  0
  1 23  1  0
  1 24  1  0
  1 25  1  0
  3 26  1  0
  5 27  1  0
  5 28  1  0
  5 29  1  0
 11 30  1  0
 11 31  1  0
 14 32  1  0
 15 33  1  0
 15 34  1  0
 17 35  1  0
 18 36  1  0
 19 37  1  0
 20 38  1  0
 21 39  1  0
M  END
>  <Binding energies>  (1) 
[-7.27]

>  <Ligand effiencies>  (1) 
[-0.3160869565217391]

>  <Interactions>  (1) 
["V-B:TYR:539:CZ:9849, V-B:PRO:540:N:9856, V-B:TYR:539:CE1:9847, V-B:PRO:540:CB:9857, V-B:PRO:540:CA:9855, V-B:TYR:539:CE2:9848, H-B:TYR:539:N:9842, H-B:TYR:531:OH:9767, V-B:PRO:540:CD:9859, H-B:ASP:366:OD1:8185, V-B:ASP:366:CG:8184, V-B:MET:535:CE:9807, V-B:TYR:539:C:9839, H-B:GLU:543:OE1:9881, H-B:ALA:541:N:9863, V-B:TYR:539:CD2:9846, V-B:LEU:363:CA:8156, V-B:ALA:541:CB:9864, V-B:GLU:543:CG:9879, V-A:LEU:475:CD2:4259, V-B:GLU:543:CD:9880, V-B:ASN:362:CB:8147, V-B:ASN:362:C:8143"]

$$$$
1h_Grossjean_2025
     RDKit          3D

 51 52  0  0  0  0  0  0  0  0999 V2000
  133.5610  121.5930   61.2070 C   0  0  0  0  0  0  0  0  0  0  0  0
  134.0910  122.8460   60.7900 O   0  0  0  0  0  0  0  0  0  0  0  0
  133.2310  123.9060   60.5660 C   0  0  0  0  0  0  0  0  0  0  0  0
  132.7970  124.3070   59.2930 C   0  0  0  0  0  0  0  0  0  0  0  0
  131.9380  125.3960   59.1410 C   0  0  0  0  0  0  0  0  0  0  0  0
  131.4560  125.8080   57.7530 C   0  0  0  0  0  0  0  0  0  0  0  0
  130.0810  125.4050   57.4580 N   0  0  0  0  0  0  0  0  0  0  0  0
  129.3990  125.7250   56.3430 C   0  0  0  0  0  0  0  0  0  0  0  0
  129.8740  126.3830   55.4180 O   0  0  0  0  0  0  0  0  0  0  0  0
  127.9550  125.2300   56.2610 C   0  0  0  0  0  0  0  0  0  0  0  0
  127.8080  123.4790   56.7280 S   0  0  0  0  0  0  0  0  0  0  0  0
  127.6320  123.3930   58.5030 C   0  0  0  0  0  0  0  0  0  0  0  0
  128.7590  123.0770   59.1930 N   0  0  0  0  0  0  0  0  0  0  0  0
  128.6970  122.9980   60.5430 C   0  0  0  0  0  0  0  0  0  0  0  0
  129.9960  122.6460   61.2420 C   0  0  0  0  0  0  0  0  0  0  0  0
  127.5220  123.2260   61.2560 C   0  0  0  0  0  0  0  0  0  0  0  0
  126.3550  123.5500   60.5570 C   0  0  0  0  0  0  0  0  0  0  0  0
  125.0790  123.7980   61.3590 C   0  0  0  0  0  0  0  0  0  0  0  0
  126.3970  123.6380   59.1470 C   0  0  0  0  0  0  0  0  0  0  0  0
  125.1890  123.9730   58.3880 C   0  0  0  0  0  0  0  0  0  0  0  0
  124.2340  124.2370   57.7900 N   0  0  0  0  0  0  0  0  0  0  0  0
  131.4760  126.0730   60.2710 C   0  0  0  0  0  0  0  0  0  0  0  0
  131.8900  125.6900   61.5570 C   0  0  0  0  0  0  0  0  0  0  0  0
  131.4750  126.3140   62.7190 O   0  0  0  0  0  0  0  0  0  0  0  0
  130.0830  126.4950   62.9570 C   0  0  0  0  0  0  0  0  0  0  0  0
  132.7760  124.6110   61.6900 C   0  0  0  0  0  0  0  0  0  0  0  0
  133.1850  124.2220   62.9420 O   0  0  0  0  0  0  0  0  0  0  0  0
  132.1600  123.6270   63.7260 C   0  0  0  0  0  0  0  0  0  0  0  0
  133.5428  121.5500   62.3060 H   0  0  0  0  0  0  0  0  0  0  0  0
  132.5380  121.4801   60.8187 H   0  0  0  0  0  0  0  0  0  0  0  0
  134.1924  120.7803   60.8187 H   0  0  0  0  0  0  0  0  0  0  0  0
  133.1382  123.7560   58.4042 H   0  0  0  0  0  0  0  0  0  0  0  0
  131.5198  126.9034   57.6754 H   0  0  0  0  0  0  0  0  0  0  0  0
  132.1018  125.2942   57.0257 H   0  0  0  0  0  0  0  0  0  0  0  0
  129.6100  124.8720   58.1740 H   0  0  0  0  0  0  0  0  0  0  0  0
  127.3340  125.8322   56.9405 H   0  0  0  0  0  0  0  0  0  0  0  0
  127.6190  125.3331   55.2187 H   0  0  0  0  0  0  0  0  0  0  0  0
  129.8487  122.6859   62.3314 H   0  0  0  0  0  0  0  0  0  0  0  0
  130.3059  121.6315   60.9508 H   0  0  0  0  0  0  0  0  0  0  0  0
  130.7757  123.3653   60.9508 H   0  0  0  0  0  0  0  0  0  0  0  0
  127.5124  123.1522   62.3535 H   0  0  0  0  0  0  0  0  0  0  0  0
  125.3072  123.7536   62.4341 H   0  0  0  0  0  0  0  0  0  0  0  0
  124.6768  124.7911   61.1102 H   0  0  0  0  0  0  0  0  0  0  0  0
  124.3340  123.0278   61.1102 H   0  0  0  0  0  0  0  0  0  0  0  0
  130.7796  126.9162   60.1527 H   0  0  0  0  0  0  0  0  0  0  0  0
  129.8964  126.5193   64.0408 H   0  0  0  0  0  0  0  0  0  0  0  0
  129.7544  127.4434   62.5070 H   0  0  0  0  0  0  0  0  0  0  0  0
  129.5227  125.6621   62.5070 H   0  0  0  0  0  0  0  0  0  0  0  0
  132.3904  123.7607   64.7933 H   0  0  0  0  0  0  0  0  0  0  0  0
  131.1972  124.1066   63.4958 H   0  0  0  0  0  0  0  0  0  0  0  0
  132.0990  122.5531   63.4958 H   0  0  0  0  0  0  0  0  0  0  0  0
  1  2  1  0
  2  3  1  0
  3  4  2  0
  4  5  1  0
  5  6  1  0
  6  7  1  0
  7  8  1  0
  8  9  2  0
  8 10  1  0
 10 11  1  0
 11 12  1  0
 12 13  2  0
 13 14  1  0
 14 15  1  0
 14 16  2  0
 16 17  1  0
 17 18  1  0
 17 19  2  0
 19 20  1  0
 20 21  3  0
  5 22  2  0
 22 23  1  0
 23 24  1  0
 24 25  1  0
 23 26  2  0
 26 27  1  0
 27 28  1  0
 26  3  1  0
 19 12  1  0
  1 29  1  0
  1 30  1  0
  1 31  1  0
  4 32  1  0
  6 33  1  0
  6 34  1  0
  7 35  1  0
 10 36  1  0
 10 37  1  0
 15 38  1  0
 15 39  1  0
 15 40  1  0
 16 41  1  0
 18 42  1  0
 18 43  1  0
 18 44  1  0
 22 45  1  0
 25 46  1  0
 25 47  1  0
 25 48  1  0
 28 49  1  0
 28 50  1  0
 28 51  1  0
M  END
>  <Binding energies>  (1) 
[-5.97]

>  <Ligand effiencies>  (1) 
[-0.20586206896551723]

>  <Interactions>  (1) 
["V-A:ASP:366:CG:3213, H-A:TYR:531:OH:4795, H-B:TYR:539:OH:9850, V-A:ASP:366:CB:3212, V-B:TYR:539:CZ:9849, V-B:PRO:540:CB:9857, V-B:PRO:540:CA:9855, V-B:TYR:539:CE2:9848, V-A:ILE:369:CG2:3237, V-A:LEU:475:CD2:4259, V-A:GLU:543:CD:4908, H-A:ARG:545:NH2:4928"]

$$$$
1i_Grossjean_2025
     RDKit          3D

 32 33  0  0  0  0  0  0  0  0999 V2000
  127.3840  122.3640   55.0970 C   0  0  0  0  0  0  0  0  0  0  0  0
  126.9230  122.8220   56.4670 C   0  0  0  0  0  0  0  0  0  0  0  0
  125.6400  123.3230   56.6750 C   0  0  0  0  0  0  0  0  0  0  0  0
  125.2660  123.7210   57.9640 C   0  0  0  0  0  0  0  0  0  0  0  0
  123.8480  124.2510   58.1710 C   0  0  0  0  0  0  0  0  0  0  0  0
  126.2000  123.6120   59.0200 C   0  0  0  0  0  0  0  0  0  0  0  0
  125.8140  123.9750   60.3850 C   0  0  0  0  0  0  0  0  0  0  0  0
  125.5060  124.2620   61.4640 N   0  0  0  0  0  0  0  0  0  0  0  0
  127.4890  123.1150   58.7110 C   0  0  0  0  0  0  0  0  0  0  0  0
  128.7850  122.9120   59.9130 S   0  0  0  0  0  0  0  0  0  0  0  0
  129.9210  124.3200   59.7400 C   0  0  0  0  0  0  0  0  0  0  0  0
  129.4240  125.3380   58.7100 C   0  0  0  0  0  0  0  0  0  0  0  0
  128.7840  126.3180   59.0910 O   0  0  0  0  0  0  0  0  0  0  0  0
  129.7430  125.0680   57.4250 N   0  0  0  0  0  0  0  0  0  0  0  0
  129.4160  125.8160   56.3030 C   0  0  0  0  0  0  0  0  0  0  0  0
  128.1530  126.3690   56.0990 C   0  0  0  0  0  0  0  0  0  0  0  0
  128.2390  127.0220   54.8910 C   0  0  0  0  0  0  0  0  0  0  0  0
  129.4880  126.8690   54.3920 O   0  0  0  0  0  0  0  0  0  0  0  0
  130.2250  126.1010   55.2960 N   0  0  0  0  0  0  0  0  0  0  0  0
  127.8350  122.7130   57.4620 N   0  0  0  0  0  0  0  0  0  0  0  0
  128.1602  121.5928   55.2102 H   0  0  0  0  0  0  0  0  0  0  0  0
  126.5301  121.9463   54.5435 H   0  0  0  0  0  0  0  0  0  0  0  0
  127.7961  123.2206   54.5435 H   0  0  0  0  0  0  0  0  0  0  0  0
  124.9307  123.4047   55.8382 H   0  0  0  0  0  0  0  0  0  0  0  0
  123.6393  124.3290   59.2482 H   0  0  0  0  0  0  0  0  0  0  0  0
  123.7563  125.2441   57.7069 H   0  0  0  0  0  0  0  0  0  0  0  0
  123.1274  123.5615   57.7069 H   0  0  0  0  0  0  0  0  0  0  0  0
  130.0171  124.8200   60.7150 H   0  0  0  0  0  0  0  0  0  0  0  0
  130.8902  123.9325   59.3928 H   0  0  0  0  0  0  0  0  0  0  0  0
  130.2480  124.2120   57.2420 H   0  0  0  0  0  0  0  0  0  0  0  0
  127.2770  126.2986   56.7606 H   0  0  0  0  0  0  0  0  0  0  0  0
  127.4230  127.5794   54.4078 H   0  0  0  0  0  0  0  0  0  0  0  0
  1  2  1  0
  2  3  2  0
  3  4  1  0
  4  5  1  0
  4  6  2  0
  6  7  1  0
  7  8  3  0
  6  9  1  0
  9 10  1  0
 10 11  1  0
 11 12  1  0
 12 13  2  0
 12 14  1  0
 14 15  1  0
 15 16  1  0
 16 17  2  0
 17 18  1  0
 18 19  1  0
  9 20  2  0
 20  2  1  0
 19 15  2  0
  1 21  1  0
  1 22  1  0
  1 23  1  0
  3 24  1  0
  5 25  1  0
  5 26  1  0
  5 27  1  0
 11 28  1  0
 11 29  1  0
 14 30  1  0
 16 31  1  0
 17 32  1  0
M  END
>  <Binding energies>  (1) 
[-6.31]

>  <Ligand effiencies>  (1) 
[-0.30047619047619045]

>  <Interactions>  (1) 
["H-A:TYR:531:OH:4795, H-B:TYR:539:OH:9850, V-B:TYR:539:CZ:9849, V-B:PRO:540:N:9856, V-B:TYR:539:CE1:9847, V-B:PRO:540:CB:9857, V-B:TYR:539:CD1:9845, V-B:PRO:540:CA:9855, V-B:TYR:539:CE2:9848, V-B:ASP:366:CB:8183, V-B:ASP:366:CG:8184, V-B:MET:535:CE:9807, V-B:LEU:363:CD1:8160, V-B:TYR:539:C:9839, V-B:TYR:539:CG:9844, H-A:ASN:370:ND2:3248, V-B:LEU:363:CA:8156, V-A:MET:535:CE:4835, V-B:TYR:531:CE2:9765, V-B:MET:535:CG:9805, V-B:ILE:538:CA:9832, H-B:ARG:545:NH2:9900, V-B:ILE:538:C:9830, V-B:LEU:363:CB:8158"]

$$$$
1j_Grossjean_2025
     RDKit          3D

 32 33  0  0  0  0  0  0  0  0999 V2000
  126.6530  127.8140   59.0460 C   0  0  0  0  0  0  0  0  0  0  0  0
  126.5750  126.4800   58.3280 C   0  0  0  0  0  0  0  0  0  0  0  0
  127.5250  126.1050   57.3810 C   0  0  0  0  0  0  0  0  0  0  0  0
  127.4100  124.8570   56.7600 C   0  0  0  0  0  0  0  0  0  0  0  0
  128.4740  124.4610   55.7380 C   0  0  0  0  0  0  0  0  0  0  0  0
  126.3290  124.0130   57.1020 C   0  0  0  0  0  0  0  0  0  0  0  0
  126.2180  122.6800   56.5030 C   0  0  0  0  0  0  0  0  0  0  0  0
  126.1340  121.6280   56.0280 N   0  0  0  0  0  0  0  0  0  0  0  0
  125.3960  124.4860   58.0540 C   0  0  0  0  0  0  0  0  0  0  0  0
  123.9780  123.5590   58.5990 S   0  0  0  0  0  0  0  0  0  0  0  0
  123.7470  123.8920   60.3700 C   0  0  0  0  0  0  0  0  0  0  0  0
  124.8800  123.3090   61.2160 C   0  0  0  0  0  0  0  0  0  0  0  0
  124.6090  122.7040   62.2540 O   0  0  0  0  0  0  0  0  0  0  0  0
  126.1280  123.5110   60.7380 N   0  0  0  0  0  0  0  0  0  0  0  0
  127.3160  123.0900   61.3200 C   0  0  0  0  0  0  0  0  0  0  0  0
  127.5250  122.7540   62.5750 N   0  0  0  0  0  0  0  0  0  0  0  0
  128.7790  122.4030   62.7780 C   0  0  0  0  0  0  0  0  0  0  0  0
  129.6200  122.4490   61.6690 C   0  0  0  0  0  0  0  0  0  0  0  0
  128.7060  122.9820   60.2900 S   0  0  0  0  0  0  0  0  0  0  0  0
  125.5290  125.6890   58.6670 N   0  0  0  0  0  0  0  0  0  0  0  0
  126.6432  127.6464   60.1331 H   0  0  0  0  0  0  0  0  0  0  0  0
  127.5828  128.3290   58.7628 H   0  0  0  0  0  0  0  0  0  0  0  0
  125.7896  128.4339   58.7628 H   0  0  0  0  0  0  0  0  0  0  0  0
  128.3542  126.7809   57.1250 H   0  0  0  0  0  0  0  0  0  0  0  0
  129.3797  124.1239   56.2635 H   0  0  0  0  0  0  0  0  0  0  0  0
  128.0910  123.6452   55.1073 H   0  0  0  0  0  0  0  0  0  0  0  0
  128.7175  125.3287   55.1073 H   0  0  0  0  0  0  0  0  0  0  0  0
  123.7122  124.9805   60.5250 H   0  0  0  0  0  0  0  0  0  0  0  0
  122.8076  123.4145   60.6854 H   0  0  0  0  0  0  0  0  0  0  0  0
  126.2210  124.0460   59.8870 H   0  0  0  0  0  0  0  0  0  0  0  0
  129.1413  122.0910   63.7686 H   0  0  0  0  0  0  0  0  0  0  0  0
  130.6891  122.1901   61.6662 H   0  0  0  0  0  0  0  0  0  0  0  0
  1  2  1  0
  2  3  2  0
  3  4  1  0
  4  5  1  0
  4  6  2  0
  6  7  1  0
  7  8  3  0
  6  9  1  0
  9 10  1  0
 10 11  1  0
 11 12  1  0
 12 13  2  0
 12 14  1  0
 14 15  1  0
 15 16  2  0
 16 17  1  0
 17 18  2  0
 18 19  1  0
  9 20  2  0
 20  2  1  0
 19 15  1  0
  1 21  1  0
  1 22  1  0
  1 23  1  0
  3 24  1  0
  5 25  1  0
  5 26  1  0
  5 27  1  0
 11 28  1  0
 11 29  1  0
 14 30  1  0
 17 31  1  0
 18 32  1  0
M  END
>  <Binding energies>  (1) 
[-6.34]

>  <Ligand effiencies>  (1) 
[-0.3019047619047619]

>  <Interactions>  (1) 
["V-B:TYR:539:CZ:9849, V-B:PRO:540:N:9856, V-B:TYR:539:CE1:9847, V-B:PRO:540:CB:9857, V-B:PRO:540:CA:9855, V-B:TYR:539:CE2:9848, H-B:TYR:539:N:9842, H-B:TYR:531:OH:9767, V-B:PRO:540:CD:9859, H-B:ASP:366:OD1:8185, V-B:ASP:366:CG:8184, V-B:MET:535:CE:9807, V-B:PRO:540:C:9853, H-B:ALA:541:N:9863, V-B:LEU:363:CA:8156, V-B:ALA:541:CB:9864, V-B:ALA:541:CA:9862, V-B:ASN:362:CB:8147, V-B:ASN:362:C:8143"]

$$$$
1k_Grossjean_2025
     RDKit          3D

 50 50  0  0  0  0  0  0  0  0999 V2000
  132.8170  125.0160   64.9000 C   0  0  0  0  0  0  0  0  0  0  0  0
  133.9470  124.6080   64.1460 O   0  0  0  0  0  0  0  0  0  0  0  0
  133.6160  123.8080   63.0190 C   0  0  0  0  0  0  0  0  0  0  0  0
  133.4090  124.7080   61.7940 C   0  0  0  0  0  0  0  0  0  0  0  0
  134.2480  124.2660   60.7340 O   0  0  0  0  0  0  0  0  0  0  0  0
  133.5470  123.6050   59.6890 C   0  0  0  0  0  0  0  0  0  0  0  0
  132.0460  123.6020   60.0040 C   0  0  0  0  0  0  0  0  0  0  0  0
  131.4230  124.7070   59.3600 O   0  0  0  0  0  0  0  0  0  0  0  0
  132.3150  125.4840   58.5710 C   0  0  0  0  0  0  0  0  0  0  0  0
  131.5470  126.1160   57.3950 C   0  0  0  0  0  0  0  0  0  0  0  0
  130.1800  125.6180   57.2400 N   0  0  0  0  0  0  0  0  0  0  0  0
  129.4040  125.8080   56.1590 C   0  0  0  0  0  0  0  0  0  0  0  0
  129.7770  126.4330   55.1640 O   0  0  0  0  0  0  0  0  0  0  0  0
  127.9960  125.1960   56.2370 C   0  0  0  0  0  0  0  0  0  0  0  0
  127.9250  123.4400   56.7350 S   0  0  0  0  0  0  0  0  0  0  0  0
  127.5450  123.3390   58.4790 C   0  0  0  0  0  0  0  0  0  0  0  0
  128.5550  122.9130   59.2810 N   0  0  0  0  0  0  0  0  0  0  0  0
  128.3320  122.8040   60.6110 C   0  0  0  0  0  0  0  0  0  0  0  0
  129.5040  122.3140   61.4380 C   0  0  0  0  0  0  0  0  0  0  0  0
  127.1070  123.1200   61.1960 C   0  0  0  0  0  0  0  0  0  0  0  0
  126.0620  123.5670   60.3810 C   0  0  0  0  0  0  0  0  0  0  0  0
  124.7270  123.9080   61.0420 C   0  0  0  0  0  0  0  0  0  0  0  0
  126.2730  123.6830   58.9890 C   0  0  0  0  0  0  0  0  0  0  0  0
  125.1940  124.1460   58.1110 C   0  0  0  0  0  0  0  0  0  0  0  0
  124.3410  124.5110   57.4190 N   0  0  0  0  0  0  0  0  0  0  0  0
  133.0434  124.9342   65.9733 H   0  0  0  0  0  0  0  0  0  0  0  0
  132.5706  126.0598   64.6557 H   0  0  0  0  0  0  0  0  0  0  0  0
  131.9606  124.3703   64.6557 H   0  0  0  0  0  0  0  0  0  0  0  0
  134.4338  123.0999   62.8194 H   0  0  0  0  0  0  0  0  0  0  0  0
  132.6899  123.2512   63.2247 H   0  0  0  0  0  0  0  0  0  0  0  0
  132.3575  124.6570   61.4750 H   0  0  0  0  0  0  0  0  0  0  0  0
  133.6632  125.7461   62.0544 H   0  0  0  0  0  0  0  0  0  0  0  0
  133.7215  124.1322   58.7395 H   0  0  0  0  0  0  0  0  0  0  0  0
  133.9064  122.5688   59.6039 H   0  0  0  0  0  0  0  0  0  0  0  0
  131.5972  122.6656   59.6410 H   0  0  0  0  0  0  0  0  0  0  0  0
  131.8999  123.6819   61.0913 H   0  0  0  0  0  0  0  0  0  0  0  0
  132.7544  126.2793   59.1910 H   0  0  0  0  0  0  0  0  0  0  0  0
  133.1148  124.8379   58.1802 H   0  0  0  0  0  0  0  0  0  0  0  0
  131.5028  127.2034   57.5554 H   0  0  0  0  0  0  0  0  0  0  0  0
  132.0903  125.8445   56.4778 H   0  0  0  0  0  0  0  0  0  0  0  0
  129.8050  125.0960   58.0180 H   0  0  0  0  0  0  0  0  0  0  0  0
  127.4138  125.7784   56.9663 H   0  0  0  0  0  0  0  0  0  0  0  0
  127.5939  125.2351   55.2139 H   0  0  0  0  0  0  0  0  0  0  0  0
  129.2655  122.4137   62.5072 H   0  0  0  0  0  0  0  0  0  0  0  0
  129.7021  121.2577   61.2035 H   0  0  0  0  0  0  0  0  0  0  0  0
  130.3950  122.9150   61.2035 H   0  0  0  0  0  0  0  0  0  0  0  0
  126.9643  123.0194   62.2821 H   0  0  0  0  0  0  0  0  0  0  0  0
  124.8413  123.8788   62.1357 H   0  0  0  0  0  0  0  0  0  0  0  0
  124.4117  124.9155   60.7331 H   0  0  0  0  0  0  0  0  0  0  0  0
  123.9671  123.1751   60.7331 H   0  0  0  0  0  0  0  0  0  0  0  0
  1  2  1  0
  2  3  1  0
  3  4  1  0
  4  5  1  0
  5  6  1  0
  6  7  1  0
  7  8  1  0
  8  9  1  0
  9 10  1  0
 10 11  1  0
 11 12  1  0
 12 13  2  0
 12 14  1  0
 14 15  1  0
 15 16  1  0
 16 17  2  0
 17 18  1  0
 18 19  1  0
 18 20  2  0
 20 21  1  0
 21 22  1  0
 21 23  2  0
 23 24  1  0
 24 25  3  0
 23 16  1  0
  1 26  1  0
  1 27  1  0
  1 28  1  0
  3 29  1  0
  3 30  1  0
  4 31  1  0
  4 32  1  0
  6 33  1  0
  6 34  1  0
  7 35  1  0
  7 36  1  0
  9 37  1  0
  9 38  1  0
 10 39  1  0
 10 40  1  0
 11 41  1  0
 14 42  1  0
 14 43  1  0
 19 44  1  0
 19 45  1  0
 19 46  1  0
 20 47  1  0
 22 48  1  0
 22 49  1  0
 22 50  1  0
M  END
>  <Binding energies>  (1) 
[-5.62]

>  <Ligand effiencies>  (1) 
[-0.21615384615384617]

>  <Interactions>  (1) 
["V-A:ASP:366:CG:3213, H-A:TYR:531:OH:4795, H-B:TYR:539:OH:9850, V-A:ASP:366:CB:3212, V-B:TYR:539:CZ:9849, V-B:PRO:540:N:9856, V-B:PRO:540:CB:9857, V-B:PRO:540:CA:9855, V-B:TYR:539:CE2:9848, V-B:PRO:540:C:9853, V-A:ILE:369:CD1:3239, V-A:ILE:369:CB:3236, V-A:ILE:369:CG2:3237, H-A:TYR:484:OH:4348, H-A:ARG:545:NE:4924, V-A:GLY:454:CA:4049, V-A:ARG:545:CZ:4926, V-A:TYR:531:CZ:4794, H-A:ARG:545:NH2:4928, H-A:GLY:454:N:4050, V-B:ASN:362:CB:8147"]

$$$$
1l_Grossjean_2025
     RDKit          3D

 30 30  0  0  0  0  0  0  0  0999 V2000
  127.6810  126.4770   61.4680 C   0  0  0  0  0  0  0  0  0  0  0  0
  127.3050  125.1360   61.1880 O   0  0  0  0  0  0  0  0  0  0  0  0
  125.9480  125.0780   60.8740 N   0  0  0  0  0  0  0  0  0  0  0  0
  125.3100  123.8950   60.9510 C   0  0  0  0  0  0  0  0  0  0  0  0
  125.7850  122.8950   61.4970 O   0  0  0  0  0  0  0  0  0  0  0  0
  123.9130  123.8650   60.3150 C   0  0  0  0  0  0  0  0  0  0  0  0
  123.8870  124.0400   58.4990 S   0  0  0  0  0  0  0  0  0  0  0  0
  125.3450  124.9430   58.0070 C   0  0  0  0  0  0  0  0  0  0  0  0
  125.4350  126.2160   58.4720 N   0  0  0  0  0  0  0  0  0  0  0  0
  126.5160  126.9600   58.1360 C   0  0  0  0  0  0  0  0  0  0  0  0
  126.5450  128.3700   58.6940 C   0  0  0  0  0  0  0  0  0  0  0  0
  127.5430  126.4730   57.3310 C   0  0  0  0  0  0  0  0  0  0  0  0
  127.4620  125.1630   56.8470 C   0  0  0  0  0  0  0  0  0  0  0  0
  128.6000  124.6480   55.9670 C   0  0  0  0  0  0  0  0  0  0  0  0
  126.3430  124.3700   57.1850 C   0  0  0  0  0  0  0  0  0  0  0  0
  126.2320  122.9930   56.6910 C   0  0  0  0  0  0  0  0  0  0  0  0
  126.1460  121.9080   56.3010 N   0  0  0  0  0  0  0  0  0  0  0  0
  127.7229  126.6263   62.5570 H   0  0  0  0  0  0  0  0  0  0  0  0
  128.6704  126.6791   61.0319 H   0  0  0  0  0  0  0  0  0  0  0  0
  126.9408  127.1640   61.0319 H   0  0  0  0  0  0  0  0  0  0  0  0
  125.6660  125.8300   60.2620 H   0  0  0  0  0  0  0  0  0  0  0  0
  123.4420  122.9047   60.5718 H   0  0  0  0  0  0  0  0  0  0  0  0
  123.3749  124.7370   60.7151 H   0  0  0  0  0  0  0  0  0  0  0  0
  126.5442  128.3294   59.7933 H   0  0  0  0  0  0  0  0  0  0  0  0
  127.4539  128.8831   58.3467 H   0  0  0  0  0  0  0  0  0  0  0  0
  125.6580  128.9201   58.3467 H   0  0  0  0  0  0  0  0  0  0  0  0
  128.4047  127.1088   57.0796 H   0  0  0  0  0  0  0  0  0  0  0  0
  129.4172  124.2782   56.6036 H   0  0  0  0  0  0  0  0  0  0  0  0
  128.2307  123.8293   55.3319 H   0  0  0  0  0  0  0  0  0  0  0  0
  128.9713  125.4658   55.3319 H   0  0  0  0  0  0  0  0  0  0  0  0
  1  2  1  0
  2  3  1  0
  3  4  1  0
  4  5  2  0
  4  6  1  0
  6  7  1  0
  7  8  1  0
  8  9  2  0
  9 10  1  0
 10 11  1  0
 10 12  2  0
 12 13  1  0
 13 14  1  0
 13 15  2  0
 15 16  1  0
 16 17  3  0
 15  8  1  0
  1 18  1  0
  1 19  1  0
  1 20  1  0
  3 21  1  0
  6 22  1  0
  6 23  1  0
 11 24  1  0
 11 25  1  0
 11 26  1  0
 12 27  1  0
 14 28  1  0
 14 29  1  0
 14 30  1  0
M  END
>  <Binding energies>  (1) 
[-5.76]

>  <Ligand effiencies>  (1) 
[-0.32]

>  <Interactions>  (1) 
["V-B:TYR:539:CZ:9849, V-B:PRO:540:N:9856, V-B:TYR:539:CE1:9847, V-B:PRO:540:CB:9857, V-B:PRO:540:CA:9855, H-B:TYR:539:N:9842, H-B:TYR:531:OH:9767, H-B:ASP:366:OD1:8185, V-B:ASP:366:CG:8184, V-B:MET:535:CE:9807, H-B:GLU:543:OE1:9881, H-B:ALA:541:N:9863, V-B:LEU:363:CA:8156, V-B:GLU:543:CD:9880, V-B:ASN:362:CB:8147, V-B:ASN:362:C:8143"]

$$$$
1m_Grossjean_2025
     RDKit          3D

 35 35  0  0  0  0  0  0  0  0999 V2000
  128.3720  127.2420   57.3620 C   0  0  0  0  0  0  0  0  0  0  0  0
  128.0220  126.5770   56.1570 O   0  0  0  0  0  0  0  0  0  0  0  0
  128.8960  125.7460   55.5530 C   0  0  0  0  0  0  0  0  0  0  0  0
  129.8690  126.0950   54.8780 O   0  0  0  0  0  0  0  0  0  0  0  0
  128.5440  124.2660   55.8150 C   0  0  0  0  0  0  0  0  0  0  0  0
  127.2950  124.1040   56.5740 N   0  0  0  0  0  0  0  0  0  0  0  0
  126.5120  123.0080   56.5730 C   0  0  0  0  0  0  0  0  0  0  0  0
  126.7610  122.0050   55.9010 O   0  0  0  0  0  0  0  0  0  0  0  0
  125.2650  123.0860   57.4630 C   0  0  0  0  0  0  0  0  0  0  0  0
  125.3380  124.3600   58.7680 S   0  0  0  0  0  0  0  0  0  0  0  0
  126.8190  124.0910   59.7180 C   0  0  0  0  0  0  0  0  0  0  0  0
  127.9570  124.4140   59.0530 N   0  0  0  0  0  0  0  0  0  0  0  0
  129.1460  124.2560   59.6800 C   0  0  0  0  0  0  0  0  0  0  0  0
  130.3710  124.6570   58.8800 C   0  0  0  0  0  0  0  0  0  0  0  0
  129.2510  123.7640   60.9790 C   0  0  0  0  0  0  0  0  0  0  0  0
  128.0870  123.4030   61.6650 C   0  0  0  0  0  0  0  0  0  0  0  0
  128.2280  122.8500   63.0820 C   0  0  0  0  0  0  0  0  0  0  0  0
  126.8330  123.5580   61.0300 C   0  0  0  0  0  0  0  0  0  0  0  0
  125.6060  123.1390   61.7110 C   0  0  0  0  0  0  0  0  0  0  0  0
  124.6370  122.8100   62.2500 N   0  0  0  0  0  0  0  0  0  0  0  0
  128.0525  126.6350   58.2219 H   0  0  0  0  0  0  0  0  0  0  0  0
  129.4621  127.3848   57.3987 H   0  0  0  0  0  0  0  0  0  0  0  0
  127.8725  128.2214   57.3987 H   0  0  0  0  0  0  0  0  0  0  0  0
  128.4366  123.7535   54.8476 H   0  0  0  0  0  0  0  0  0  0  0  0
  129.3565  123.8335   56.4173 H   0  0  0  0  0  0  0  0  0  0  0  0
  127.0080  124.8960   57.1300 H   0  0  0  0  0  0  0  0  0  0  0  0
  124.3986  123.3026   56.8207 H   0  0  0  0  0  0  0  0  0  0  0  0
  125.1901  122.1171   57.9785 H   0  0  0  0  0  0  0  0  0  0  0  0
  131.1868  124.9241   59.5678 H   0  0  0  0  0  0  0  0  0  0  0  0
  130.6866  123.8153   58.2461 H   0  0  0  0  0  0  0  0  0  0  0  0
  130.1278  125.5224   58.2461 H   0  0  0  0  0  0  0  0  0  0  0  0
  130.2356  123.6609   61.4584 H   0  0  0  0  0  0  0  0  0  0  0  0
  128.0242  123.6494   63.8096 H   0  0  0  0  0  0  0  0  0  0  0  0
  127.5104  122.0293   63.2284 H   0  0  0  0  0  0  0  0  0  0  0  0
  129.2510  122.4731   63.2284 H   0  0  0  0  0  0  0  0  0  0  0  0
  1  2  1  0
  2  3  1  0
  3  4  2  0
  3  5  1  0
  5  6  1  0
  6  7  1  0
  7  8  2  0
  7  9  1  0
  9 10  1  0
 10 11  1  0
 11 12  2  0
 12 13  1  0
 13 14  1  0
 13 15  2  0
 15 16  1  0
 16 17  1  0
 16 18  2  0
 18 19  1  0
 19 20  3  0
 18 11  1  0
  1 21  1  0
  1 22  1  0
  1 23  1  0
  5 24  1  0
  5 25  1  0
  6 26  1  0
  9 27  1  0
  9 28  1  0
 14 29  1  0
 14 30  1  0
 14 31  1  0
 15 32  1  0
 17 33  1  0
 17 34  1  0
 17 35  1  0
M  END
>  <Binding energies>  (1) 
[-5.51]

>  <Ligand effiencies>  (1) 
[-0.2623809523809524]

>  <Interactions>  (1) 
["H-A:TYR:531:OH:4795, H-B:TYR:539:OH:9850, V-B:TYR:539:CZ:9849, V-B:PRO:540:N:9856, V-B:TYR:539:CE1:9847, V-B:PRO:540:CB:9857, V-B:PRO:540:CA:9855, V-B:TYR:539:CE2:9848, H-B:TYR:539:N:9842, H-B:TYR:531:OH:9767, V-B:PRO:540:CD:9859, V-B:MET:535:CE:9807, V-B:LEU:363:CD1:8160, V-B:PRO:540:CG:9858, H-A:ASN:370:ND2:3248, V-B:PRO:540:C:9853, H-B:ALA:541:N:9863, V-B:ALA:541:CB:9864, V-B:GLU:543:CG:9879, V-B:GLU:543:CD:9880, V-B:ALA:541:CA:9862, H-B:MET:535:SD:9806"]

$$$$
1n_Grossjean_2025
     RDKit          3D

 48 49  0  0  0  0  0  0  0  0999 V2000
  128.4050  126.8770   71.7190 C   0  0  0  0  0  0  0  0  0  0  0  0
  127.9930  126.9120   70.2440 C   0  0  0  0  0  0  0  0  0  0  0  0
  129.1560  127.0300   69.4320 O   0  0  0  0  0  0  0  0  0  0  0  0
  129.1810  126.5330   68.1680 C   0  0  0  0  0  0  0  0  0  0  0  0
  129.5160  125.3760   67.8990 O   0  0  0  0  0  0  0  0  0  0  0  0
  128.7490  127.5300   67.1310 C   0  0  0  0  0  0  0  0  0  0  0  0
  128.7650  127.2290   65.7600 C   0  0  0  0  0  0  0  0  0  0  0  0
  128.3600  128.1760   64.8250 C   0  0  0  0  0  0  0  0  0  0  0  0
  127.9400  129.4420   65.2350 C   0  0  0  0  0  0  0  0  0  0  0  0
  127.5570  130.3230   64.2050 N   0  0  0  0  0  0  0  0  0  0  0  0
  127.7870  131.6470   64.0720 C   0  0  0  0  0  0  0  0  0  0  0  0
  128.4100  132.3470   64.8710 O   0  0  0  0  0  0  0  0  0  0  0  0
  127.2100  132.2970   62.8080 C   0  0  0  0  0  0  0  0  0  0  0  0
  128.1090  133.4140   62.2360 C   0  0  0  0  0  0  0  0  0  0  0  0
  128.3070  133.3720   60.4300 S   0  0  0  0  0  0  0  0  0  0  0  0
  129.8880  132.6330   60.0770 C   0  0  0  0  0  0  0  0  0  0  0  0
  130.5810  132.2790   61.1880 N   0  0  0  0  0  0  0  0  0  0  0  0
  131.7920  131.6920   61.0400 C   0  0  0  0  0  0  0  0  0  0  0  0
  132.5040  131.3150   62.3250 C   0  0  0  0  0  0  0  0  0  0  0  0
  132.3580  131.4410   59.7920 C   0  0  0  0  0  0  0  0  0  0  0  0
  131.6600  131.8220   58.6400 C   0  0  0  0  0  0  0  0  0  0  0  0
  132.3060  131.5490   57.2840 C   0  0  0  0  0  0  0  0  0  0  0  0
  130.3960  132.4410   58.7710 C   0  0  0  0  0  0  0  0  0  0  0  0
  129.6720  132.8930   57.5820 C   0  0  0  0  0  0  0  0  0  0  0  0
  129.1010  133.2510   56.6410 N   0  0  0  0  0  0  0  0  0  0  0  0
  127.9110  129.7460   66.6040 C   0  0  0  0  0  0  0  0  0  0  0  0
  128.3130  128.7960   67.5390 C   0  0  0  0  0  0  0  0  0  0  0  0
  127.5086  126.9532   72.3520 H   0  0  0  0  0  0  0  0  0  0  0  0
  128.9251  125.9314   71.9321 H   0  0  0  0  0  0  0  0  0  0  0  0
  129.0771  127.7213   71.9321 H   0  0  0  0  0  0  0  0  0  0  0  0
  127.4601  125.9840   69.9895 H   0  0  0  0  0  0  0  0  0  0  0  0
  127.3319  127.7732   70.0671 H   0  0  0  0  0  0  0  0  0  0  0  0
  129.1002  126.2371   65.4226 H   0  0  0  0  0  0  0  0  0  0  0  0
  128.3709  127.9249   63.7541 H   0  0  0  0  0  0  0  0  0  0  0  0
  127.0730  129.8780   63.4400 H   0  0  0  0  0  0  0  0  0  0  0  0
  127.0866  131.5194   62.0398 H   0  0  0  0  0  0  0  0  0  0  0  0
  126.2508  132.7584   63.0856 H   0  0  0  0  0  0  0  0  0  0  0  0
  127.6687  134.3838   62.5108 H   0  0  0  0  0  0  0  0  0  0  0  0
  129.1104  133.2593   62.6640 H   0  0  0  0  0  0  0  0  0  0  0  0
  131.8996  131.6350   63.1866 H   0  0  0  0  0  0  0  0  0  0  0  0
  132.6441  130.2245   62.3602 H   0  0  0  0  0  0  0  0  0  0  0  0
  133.4847  131.8120   62.3602 H   0  0  0  0  0  0  0  0  0  0  0  0
  133.3394  130.9504   59.7130 H   0  0  0  0  0  0  0  0  0  0  0  0
  133.3097  131.1248   57.4347 H   0  0  0  0  0  0  0  0  0  0  0  0
  131.6873  130.8354   56.7201 H   0  0  0  0  0  0  0  0  0  0  0  0
  132.3865  132.4900   56.7201 H   0  0  0  0  0  0  0  0  0  0  0  0
  127.5701  130.7366   66.9394 H   0  0  0  0  0  0  0  0  0  0  0  0
  128.2877  129.0431   68.6106 H   0  0  0  0  0  0  0  0  0  0  0  0
  1  2  1  0
  2  3  1  0
  3  4  1  0
  4  5  2  0
  4  6  1  0
  6  7  2  0
  7  8  1  0
  8  9  2  0
  9 10  1  0
 10 11  1  0
 11 12  2  0
 11 13  1  0
 13 14  1  0
 14 15  1  0
 15 16  1  0
 16 17  2  0
 17 18  1  0
 18 19  1  0
 18 20  2  0
 20 21  1  0
 21 22  1  0
 21 23  2  0
 23 24  1  0
 24 25  3  0
  9 26  1  0
 26 27  2  0
 27  6  1  0
 23 16  1  0
  1 28  1  0
  1 29  1  0
  1 30  1  0
  2 31  1  0
  2 32  1  0
  7 33  1  0
  8 34  1  0
 10 35  1  0
 13 36  1  0
 13 37  1  0
 14 38  1  0
 14 39  1  0
 19 40  1  0
 19 41  1  0
 19 42  1  0
 20 43  1  0
 22 44  1  0
 22 45  1  0
 22 46  1  0
 26 47  1  0
 27 48  1  0
M  END
>  <Binding energies>  (1) 
[-7.79]

>  <Ligand effiencies>  (1) 
[-0.2782142857142857]

>  <Interactions>  (1) 
["V-A:LEU:363:CD1:3189, V-A:PRO:540:CA:4883, V-A:PRO:540:CB:4885, V-A:PRO:540:N:4884, V-A:TYR:539:C:4867, H-A:TYR:539:N:4870, V-B:GLU:543:CG:9879, V-B:GLU:543:CB:9878, V-A:GLU:543:CD:4908, V-B:GLU:543:CD:9880, V-B:HIS:456:CE1:9041, V-B:GLU:543:C:9874, V-A:HIS:456:CE1:4070, V-A:GLU:543:CG:4907, V-A:GLU:543:CB:4906, V-B:TYR:484:CZ:9318, H-B:TYR:484:OH:9319, V-A:ALA:541:CB:4892, V-A:PRO:540:C:4881, H-A:ALA:541:N:4891, V-B:TYR:484:CE2:9317, V-B:LEU:475:CD2:9230, V-A:ASN:362:CB:3176"]

$$$$
1o_Grossjean_2025
     RDKit          3D

 45 46  0  0  0  0  0  0  0  0999 V2000
  131.4160  132.5910   55.8660 C   0  0  0  0  0  0  0  0  0  0  0  0
  130.7100  133.3360   56.8490 O   0  0  0  0  0  0  0  0  0  0  0  0
  129.5390  132.8800   57.3640 C   0  0  0  0  0  0  0  0  0  0  0  0
  128.6520  133.6230   57.7960 O   0  0  0  0  0  0  0  0  0  0  0  0
  129.4290  131.3830   57.3550 C   0  0  0  0  0  0  0  0  0  0  0  0
  130.4840  130.5580   57.7720 C   0  0  0  0  0  0  0  0  0  0  0  0
  130.3480  129.1720   57.7540 C   0  0  0  0  0  0  0  0  0  0  0  0
  129.1610  128.5830   57.3150 C   0  0  0  0  0  0  0  0  0  0  0  0
  129.1290  127.1750   57.3460 N   0  0  0  0  0  0  0  0  0  0  0  0
  129.2630  126.2840   56.3390 C   0  0  0  0  0  0  0  0  0  0  0  0
  129.4930  126.5700   55.1640 O   0  0  0  0  0  0  0  0  0  0  0  0
  129.1410  124.8070   56.7430 C   0  0  0  0  0  0  0  0  0  0  0  0
  128.1400  124.0180   55.8760 C   0  0  0  0  0  0  0  0  0  0  0  0
  127.5480  122.4820   56.6470 S   0  0  0  0  0  0  0  0  0  0  0  0
  127.3710  122.7610   58.3980 C   0  0  0  0  0  0  0  0  0  0  0  0
  128.3970  122.2610   59.1310 N   0  0  0  0  0  0  0  0  0  0  0  0
  128.3760  122.4210   60.4750 C   0  0  0  0  0  0  0  0  0  0  0  0
  129.5640  121.8490   61.2260 C   0  0  0  0  0  0  0  0  0  0  0  0
  127.3360  123.0680   61.1380 C   0  0  0  0  0  0  0  0  0  0  0  0
  126.2610  123.5650   60.3950 C   0  0  0  0  0  0  0  0  0  0  0  0
  125.1260  124.2580   61.1480 C   0  0  0  0  0  0  0  0  0  0  0  0
  126.2580  123.4060   58.9910 C   0  0  0  0  0  0  0  0  0  0  0  0
  125.1130  123.8670   58.2020 C   0  0  0  0  0  0  0  0  0  0  0  0
  124.2070  124.2330   57.5820 N   0  0  0  0  0  0  0  0  0  0  0  0
  128.1000  129.4020   56.9010 C   0  0  0  0  0  0  0  0  0  0  0  0
  128.2380  130.7880   56.9210 C   0  0  0  0  0  0  0  0  0  0  0  0
  132.0916  131.8781   56.3614 H   0  0  0  0  0  0  0  0  0  0  0  0
  130.6995  132.0413   55.2379 H   0  0  0  0  0  0  0  0  0  0  0  0
  132.0034  133.2769   55.2379 H   0  0  0  0  0  0  0  0  0  0  0  0
  131.4263  131.0093   58.1160 H   0  0  0  0  0  0  0  0  0  0  0  0
  131.1818  128.5370   58.0881 H   0  0  0  0  0  0  0  0  0  0  0  0
  129.0090  126.7860   58.2700 H   0  0  0  0  0  0  0  0  0  0  0  0
  130.1308  124.3365   56.6490 H   0  0  0  0  0  0  0  0  0  0  0  0
  128.7665  124.7821   57.7770 H   0  0  0  0  0  0  0  0  0  0  0  0
  127.2712  124.6626   55.6768 H   0  0  0  0  0  0  0  0  0  0  0  0
  128.6717  123.7296   54.9572 H   0  0  0  0  0  0  0  0  0  0  0  0
  129.3886  121.9335   62.3086 H   0  0  0  0  0  0  0  0  0  0  0  0
  129.6927  120.7902   60.9569 H   0  0  0  0  0  0  0  0  0  0  0  0
  130.4719  122.4087   60.9569 H   0  0  0  0  0  0  0  0  0  0  0  0
  127.3601  123.1864   62.2313 H   0  0  0  0  0  0  0  0  0  0  0  0
  125.2898  124.1580   62.2311 H   0  0  0  0  0  0  0  0  0  0  0  0
  125.1036  125.3240   60.8774 H   0  0  0  0  0  0  0  0  0  0  0  0
  124.1676  123.7909   60.8774 H   0  0  0  0  0  0  0  0  0  0  0  0
  127.1574  128.9490   56.5600 H   0  0  0  0  0  0  0  0  0  0  0  0
  127.4017  131.4224   56.5921 H   0  0  0  0  0  0  0  0  0  0  0  0
  1  2  1  0
  2  3  1  0
  3  4  2  0
  3  5  1  0
  5  6  2  0
  6  7  1  0
  7  8  2  0
  8  9  1  0
  9 10  1  0
 10 11  2  0
 10 12  1  0
 12 13  1  0
 13 14  1  0
 14 15  1  0
 15 16  2  0
 16 17  1  0
 17 18  1  0
 17 19  2  0
 19 20  1  0
 20 21  1  0
 20 22  2  0
 22 23  1  0
 23 24  3  0
  8 25  1  0
 25 26  2  0
 26  5  1  0
 22 15  1  0
  1 27  1  0
  1 28  1  0
  1 29  1  0
  6 30  1  0
  7 31  1  0
  9 32  1  0
 12 33  1  0
 12 34  1  0
 13 35  1  0
 13 36  1  0
 18 37  1  0
 18 38  1  0
 18 39  1  0
 19 40  1  0
 21 41  1  0
 21 42  1  0
 21 43  1  0
 25 44  1  0
 26 45  1  0
M  END
>  <Binding energies>  (1) 
[-7.5]

>  <Ligand effiencies>  (1) 
[-0.2777777777777778]

>  <Interactions>  (1) 
["V-A:LEU:363:CD1:3189, H-A:TYR:531:OH:4795, V-A:PRO:540:N:4884, V-A:TYR:539:C:4867, H-A:TYR:539:N:4870, V-B:TYR:539:CZ:9849, V-B:PRO:540:N:9856, V-B:TYR:539:CE1:9847, V-B:PRO:540:CB:9857, V-B:PRO:540:CA:9855, V-B:TYR:539:CE2:9848, H-B:TYR:539:N:9842, V-B:LEU:363:CD1:8160, V-B:TYR:539:C:9839, V-B:PRO:540:C:9853, V-B:TYR:539:CD2:9846, V-A:MET:535:CE:4835, V-A:ILE:538:CA:4860, V-A:ILE:538:CG2:4863, V-A:ILE:538:CB:4862"]

$$$$
1p_Grossjean_2025
     RDKit          3D

 35 36  0  0  0  0  0  0  0  0999 V2000
  132.0740  125.3150   64.6940 C   0  0  0  0  0  0  0  0  0  0  0  0
  132.4250  124.9270   63.2690 C   0  0  0  0  0  0  0  0  0  0  0  0
  133.2040  123.8060   62.9900 C   0  0  0  0  0  0  0  0  0  0  0  0
  133.5080  123.5040   61.6590 C   0  0  0  0  0  0  0  0  0  0  0  0
  134.3770  122.2790   61.3770 C   0  0  0  0  0  0  0  0  0  0  0  0
  133.0110  124.3360   60.6300 C   0  0  0  0  0  0  0  0  0  0  0  0
  133.3540  124.0690   59.2330 C   0  0  0  0  0  0  0  0  0  0  0  0
  133.6260  123.8560   58.1280 N   0  0  0  0  0  0  0  0  0  0  0  0
  132.2080  125.4400   61.0050 C   0  0  0  0  0  0  0  0  0  0  0  0
  131.4950  126.5790   59.8400 S   0  0  0  0  0  0  0  0  0  0  0  0
  129.9760  125.8070   59.2110 C   0  0  0  0  0  0  0  0  0  0  0  0
  129.9590  124.2720   59.3420 C   0  0  0  0  0  0  0  0  0  0  0  0
  128.6000  123.6420   59.0020 C   0  0  0  0  0  0  0  0  0  0  0  0
  127.8360  123.3160   59.9130 O   0  0  0  0  0  0  0  0  0  0  0  0
  128.3340  123.5030   57.6840 N   0  0  0  0  0  0  0  0  0  0  0  0
  127.1870  122.9690   57.1090 C   0  0  0  0  0  0  0  0  0  0  0  0
  125.9010  123.3970   57.4380 C   0  0  0  0  0  0  0  0  0  0  0  0
  125.0600  122.6320   56.6620 C   0  0  0  0  0  0  0  0  0  0  0  0
  125.8010  121.7870   55.9070 O   0  0  0  0  0  0  0  0  0  0  0  0
  127.1480  122.0090   56.2010 N   0  0  0  0  0  0  0  0  0  0  0  0
  131.9360  125.7370   62.3010 N   0  0  0  0  0  0  0  0  0  0  0  0
  132.6423  124.6868   65.3956 H   0  0  0  0  0  0  0  0  0  0  0  0
  132.3287  126.3722   64.8595 H   0  0  0  0  0  0  0  0  0  0  0  0
  130.9966  125.1672   64.8595 H   0  0  0  0  0  0  0  0  0  0  0  0
  133.5747  123.1675   63.8054 H   0  0  0  0  0  0  0  0  0  0  0  0
  134.6962  121.8290   62.3286 H   0  0  0  0  0  0  0  0  0  0  0  0
  133.7976  121.5435   60.7997 H   0  0  0  0  0  0  0  0  0  0  0  0
  135.2627  122.5828   60.7997 H   0  0  0  0  0  0  0  0  0  0  0  0
  129.1221  126.2126   59.7735 H   0  0  0  0  0  0  0  0  0  0  0  0
  129.9201  126.0377   58.1369 H   0  0  0  0  0  0  0  0  0  0  0  0
  130.7156  123.8562   58.6603 H   0  0  0  0  0  0  0  0  0  0  0  0
  130.1704  124.0353   60.3952 H   0  0  0  0  0  0  0  0  0  0  0  0
  129.0430  123.8090   57.0340 H   0  0  0  0  0  0  0  0  0  0  0  0
  125.6198  124.1769   58.1610 H   0  0  0  0  0  0  0  0  0  0  0  0
  123.9619  122.6968   56.6562 H   0  0  0  0  0  0  0  0  0  0  0  0
  1  2  1  0
  2  3  2  0
  3  4  1  0
  4  5  1  0
  4  6  2  0
  6  7  1  0
  7  8  3  0
  6  9  1  0
  9 10  1  0
 10 11  1  0
 11 12  1  0
 12 13  1  0
 13 14  2  0
 13 15  1  0
 15 16  1  0
 16 17  1  0
 17 18  2  0
 18 19  1  0
 19 20  1  0
  9 21  2  0
 21  2  1  0
 20 16  2  0
  1 22  1  0
  1 23  1  0
  1 24  1  0
  3 25  1  0
  5 26  1  0
  5 27  1  0
  5 28  1  0
 11 29  1  0
 11 30  1  0
 12 31  1  0
 12 32  1  0
 15 33  1  0
 17 34  1  0
 18 35  1  0
M  END
>  <Binding energies>  (1) 
[-7.03]

>  <Ligand effiencies>  (1) 
[-0.3195454545454546]

>  <Interactions>  (1) 
["V-A:ASP:366:CG:3213, H-B:TYR:539:OH:9850, V-B:TYR:539:CZ:9849, V-B:PRO:540:N:9856, V-B:TYR:539:CE1:9847, V-B:PRO:540:CB:9857, V-B:PRO:540:CA:9855, V-B:TYR:539:CE2:9848, H-B:TYR:539:N:9842, V-B:PRO:540:CD:9859, V-B:MET:535:CE:9807, V-B:LEU:363:CD1:8160, V-B:PRO:540:CG:9858, V-B:TYR:539:CD2:9846, V-A:ASP:366:CA:3210, V-A:ILE:369:CD1:3239, V-A:ILE:369:CB:3236, V-A:ILE:369:CG2:3237, V-A:ARG:545:CZ:4926, H-A:ARG:545:NH2:4928, V-B:ILE:538:CG2:9835, V-A:ILE:369:CG1:3238"]

$$$$
1q_Grossjean_2025
     RDKit          3D

 38 38  0  0  0  0  0  0  0  0999 V2000
  133.2700  124.5970   61.2820 C   0  0  0  0  0  0  0  0  0  0  0  0
  133.8960  124.3070   60.0410 O   0  0  0  0  0  0  0  0  0  0  0  0
  133.2480  124.5370   58.8730 C   0  0  0  0  0  0  0  0  0  0  0  0
  133.6310  124.1780   57.7580 O   0  0  0  0  0  0  0  0  0  0  0  0
  131.9430  125.3470   59.0270 C   0  0  0  0  0  0  0  0  0  0  0  0
  131.1320  125.3700   57.8000 N   0  0  0  0  0  0  0  0  0  0  0  0
  129.8230  125.6770   57.7240 C   0  0  0  0  0  0  0  0  0  0  0  0
  129.1450  125.9830   58.7070 O   0  0  0  0  0  0  0  0  0  0  0  0
  129.2050  125.6430   56.3190 C   0  0  0  0  0  0  0  0  0  0  0  0
  127.7130  125.2560   56.2930 C   0  0  0  0  0  0  0  0  0  0  0  0
  127.4060  123.5130   56.7090 S   0  0  0  0  0  0  0  0  0  0  0  0
  127.1660  123.3840   58.4690 C   0  0  0  0  0  0  0  0  0  0  0  0
  128.2740  122.9710   59.1360 N   0  0  0  0  0  0  0  0  0  0  0  0
  128.2130  122.8330   60.4800 C   0  0  0  0  0  0  0  0  0  0  0  0
  129.4850  122.3510   61.1520 C   0  0  0  0  0  0  0  0  0  0  0  0
  127.0600  123.1080   61.2130 C   0  0  0  0  0  0  0  0  0  0  0  0
  125.9200  123.5590   60.5400 C   0  0  0  0  0  0  0  0  0  0  0  0
  124.6740  123.8720   61.3680 C   0  0  0  0  0  0  0  0  0  0  0  0
  125.9600  123.7140   59.1360 C   0  0  0  0  0  0  0  0  0  0  0  0
  124.7950  124.2390   58.4220 C   0  0  0  0  0  0  0  0  0  0  0  0
  123.8710  124.6550   57.8620 N   0  0  0  0  0  0  0  0  0  0  0  0
  133.9308  124.2909   62.1064 H   0  0  0  0  0  0  0  0  0  0  0  0
  133.0746  125.6773   61.3505 H   0  0  0  0  0  0  0  0  0  0  0  0
  132.3196  124.0475   61.3505 H   0  0  0  0  0  0  0  0  0  0  0  0
  131.3451  124.8981   59.8339 H   0  0  0  0  0  0  0  0  0  0  0  0
  132.2255  126.3856   59.2539 H   0  0  0  0  0  0  0  0  0  0  0  0
  131.6100  125.1060   56.9500 H   0  0  0  0  0  0  0  0  0  0  0  0
  129.3097  126.6426   55.8720 H   0  0  0  0  0  0  0  0  0  0  0  0
  129.7426  124.8655   55.7564 H   0  0  0  0  0  0  0  0  0  0  0  0
  127.1776  125.8862   57.0184 H   0  0  0  0  0  0  0  0  0  0  0  0
  127.3578  125.4093   55.2633 H   0  0  0  0  0  0  0  0  0  0  0  0
  129.3629  122.3973   62.2442 H   0  0  0  0  0  0  0  0  0  0  0  0
  129.6889  121.3133   60.8495 H   0  0  0  0  0  0  0  0  0  0  0  0
  130.3254  122.9930   60.8495 H   0  0  0  0  0  0  0  0  0  0  0  0
  127.0468  122.9724   62.3045 H   0  0  0  0  0  0  0  0  0  0  0  0
  124.9200  123.8102   62.4384 H   0  0  0  0  0  0  0  0  0  0  0  0
  124.3215  124.8866   61.1308 H   0  0  0  0  0  0  0  0  0  0  0  0
  123.8838  123.1444   61.1308 H   0  0  0  0  0  0  0  0  0  0  0  0
  1  2  1  0
  2  3  1  0
  3  4  2  0
  3  5  1  0
  5  6  1  0
  6  7  1  0
  7  8  2  0
  7  9  1  0
  9 10  1  0
 10 11  1  0
 11 12  1  0
 12 13  2  0
 13 14  1  0
 14 15  1  0
 14 16  2  0
 16 17  1  0
 17 18  1  0
 17 19  2  0
 19 20  1  0
 20 21  3  0
 19 12  1  0
  1 22  1  0
  1 23  1  0
  1 24  1  0
  5 25  1  0
  5 26  1  0
  6 27  1  0
  9 28  1  0
  9 29  1  0
 10 30  1  0
 10 31  1  0
 15 32  1  0
 15 33  1  0
 15 34  1  0
 16 35  1  0
 18 36  1  0
 18 37  1  0
 18 38  1  0
M  END
>  <Binding energies>  (1) 
[-5.76]

>  <Ligand effiencies>  (1) 
[-0.2618181818181818]

>  <Interactions>  (1) 
["V-A:ASP:366:CG:3213, H-A:TYR:531:OH:4795, H-B:TYR:539:OH:9850, V-A:ASP:366:CB:3212, V-B:TYR:539:CZ:9849, V-B:PRO:540:N:9856, V-B:PRO:540:CB:9857, V-B:PRO:540:CA:9855, V-B:TYR:539:CE2:9848, V-B:LEU:363:CD1:8160, V-B:PRO:540:C:9853, V-A:ASP:366:CA:3210, V-A:ILE:369:CG2:3237, V-B:ASN:362:CB:8147"]

$$$$
2a_Ghoteimi_2023
     RDKit          3D

 85 90  0  0  0  0  0  0  0  0999 V2000
  128.0110  132.5790   56.2030 C   0  0  0  0  0  0  0  0  0  0  0  0
  129.3500  132.9560   55.5610 C   0  0  0  0  0  0  0  0  0  0  0  0
  130.2100  133.5040   56.5510 O   0  0  0  0  0  0  0  0  0  0  0  0
  131.1080  132.7270   57.2090 C   0  0  0  0  0  0  0  0  0  0  0  0
  132.1650  132.3340   56.7060 O   0  0  0  0  0  0  0  0  0  0  0  0
  130.6890  132.3970   58.6140 C   0  0  0  0  0  0  0  0  0  0  0  0
  131.4680  131.5830   59.4490 C   0  0  0  0  0  0  0  0  0  0  0  0
  131.0510  131.2980   60.7460 C   0  0  0  0  0  0  0  0  0  0  0  0
  129.8540  131.8220   61.2370 C   0  0  0  0  0  0  0  0  0  0  0  0
  129.5290  131.4660   62.5600 N   0  0  0  0  0  0  0  0  0  0  0  0
  128.5980  131.9840   63.3910 C   0  0  0  0  0  0  0  0  0  0  0  0
  127.8680  132.9410   63.1300 O   0  0  0  0  0  0  0  0  0  0  0  0
  128.5120  131.3170   64.7700 C   0  0  0  0  0  0  0  0  0  0  0  0
  127.3000  129.9610   64.8770 S   0  0  0  0  0  0  0  0  0  0  0  0
  128.2140  128.5430   65.4380 C   0  0  0  0  0  0  0  0  0  0  0  0
  128.3560  128.4800   66.7830 N   0  0  0  0  0  0  0  0  0  0  0  0
  129.0430  127.4480   67.3330 C   0  0  0  0  0  0  0  0  0  0  0  0
  129.1670  127.4480   68.8230 C   0  0  0  0  0  0  0  0  0  0  0  0
  128.1320  126.9730   69.6370 C   0  0  0  0  0  0  0  0  0  0  0  0
  128.2480  126.9870   71.0240 C   0  0  0  0  0  0  0  0  0  0  0  0
  129.4070  127.4690   71.6500 C   0  0  0  0  0  0  0  0  0  0  0  0
  129.4970  127.5050   73.0450 N   0  0  0  0  0  0  0  0  0  0  0  0
  130.1720  126.4300   73.8010 C   0  0  0  0  0  0  0  0  0  0  0  0
  130.4940  126.8050   75.2630 C   0  0  0  0  0  0  0  0  0  0  0  0
  129.3140  127.2290   75.9270 O   0  0  0  0  0  0  0  0  0  0  0  0
  128.7510  128.3710   75.3030 C   0  0  0  0  0  0  0  0  0  0  0  0
  128.3760  128.0460   73.8410 C   0  0  0  0  0  0  0  0  0  0  0  0
  130.4370  127.9560   70.8290 C   0  0  0  0  0  0  0  0  0  0  0  0
  130.3210  127.9400   69.4420 C   0  0  0  0  0  0  0  0  0  0  0  0
  129.5960  126.4420   66.5370 C   0  0  0  0  0  0  0  0  0  0  0  0
  129.4620  126.4860   65.1420 C   0  0  0  0  0  0  0  0  0  0  0  0
  130.0840  125.3810   64.3510 C   0  0  0  0  0  0  0  0  0  0  0  0
  129.5070  124.1080   64.3480 C   0  0  0  0  0  0  0  0  0  0  0  0
  130.0890  123.0680   63.6300 C   0  0  0  0  0  0  0  0  0  0  0  0
  131.2640  123.2690   62.8900 C   0  0  0  0  0  0  0  0  0  0  0  0
  131.8740  122.2330   62.1770 N   0  0  0  0  0  0  0  0  0  0  0  0
  133.2940  122.3590   61.7930 C   0  0  0  0  0  0  0  0  0  0  0  0
  133.9330  121.0180   61.3730 C   0  0  0  0  0  0  0  0  0  0  0  0
  133.1780  120.4260   60.3270 O   0  0  0  0  0  0  0  0  0  0  0  0
  131.8410  120.1680   60.7260 C   0  0  0  0  0  0  0  0  0  0  0  0
  131.1480  121.4850   61.1330 C   0  0  0  0  0  0  0  0  0  0  0  0
  131.8430  124.5460   62.9080 C   0  0  0  0  0  0  0  0  0  0  0  0
  131.2620  125.5870   63.6270 C   0  0  0  0  0  0  0  0  0  0  0  0
  128.7460  127.5640   64.5690 C   0  0  0  0  0  0  0  0  0  0  0  0
  128.5240  127.6360   63.1210 C   0  0  0  0  0  0  0  0  0  0  0  0
  128.3520  127.6900   61.9780 N   0  0  0  0  0  0  0  0  0  0  0  0
  129.0660  132.6310   60.4050 C   0  0  0  0  0  0  0  0  0  0  0  0
  129.4850  132.9160   59.1080 C   0  0  0  0  0  0  0  0  0  0  0  0
  128.1089  132.6066   57.2983 H   0  0  0  0  0  0  0  0  0  0  0  0
  127.2380  133.2944   55.8858 H   0  0  0  0  0  0  0  0  0  0  0  0
  127.7248  131.5654   55.8858 H   0  0  0  0  0  0  0  0  0  0  0  0
  129.8147  132.0583   55.1272 H   0  0  0  0  0  0  0  0  0  0  0  0
  129.1812  133.6997   54.7682 H   0  0  0  0  0  0  0  0  0  0  0  0
  132.4155  131.1667   59.0762 H   0  0  0  0  0  0  0  0  0  0  0  0
  131.6696  130.6548   61.3891 H   0  0  0  0  0  0  0  0  0  0  0  0
  130.1010  130.7280   62.9400 H   0  0  0  0  0  0  0  0  0  0  0  0
  129.5040  130.9119   65.0185 H   0  0  0  0  0  0  0  0  0  0  0  0
  128.1768  132.0934   65.4735 H   0  0  0  0  0  0  0  0  0  0  0  0
  127.2137  126.5830   69.1738 H   0  0  0  0  0  0  0  0  0  0  0  0
  127.4165  126.6137   71.6398 H   0  0  0  0  0  0  0  0  0  0  0  0
  129.5177  125.5457   73.8057 H   0  0  0  0  0  0  0  0  0  0  0  0
  131.1326  126.2400   73.2998 H   0  0  0  0  0  0  0  0  0  0  0  0
  130.9082  125.9276   75.7812 H   0  0  0  0  0  0  0  0  0  0  0  0
  131.2275  127.6247   75.2721 H   0  0  0  0  0  0  0  0  0  0  0  0
  127.8475  128.6768   75.8510 H   0  0  0  0  0  0  0  0  0  0  0  0
  129.4887  129.1869   75.3126 H   0  0  0  0  0  0  0  0  0  0  0  0
  127.5649  127.3030   73.8478 H   0  0  0  0  0  0  0  0  0  0  0  0
  128.0750  128.9929   73.3690 H   0  0  0  0  0  0  0  0  0  0  0  0
  131.3516  128.3572   71.2901 H   0  0  0  0  0  0  0  0  0  0  0  0
  131.1482  128.3195   68.8241 H   0  0  0  0  0  0  0  0  0  0  0  0
  130.1401  125.6099   67.0077 H   0  0  0  0  0  0  0  0  0  0  0  0
  128.5842  123.9267   64.9186 H   0  0  0  0  0  0  0  0  0  0  0  0
  129.6207  122.0728   63.6427 H   0  0  0  0  0  0  0  0  0  0  0  0
  133.3667  123.0603   60.9486 H   0  0  0  0  0  0  0  0  0  0  0  0
  133.8406  122.7181   62.6775 H   0  0  0  0  0  0  0  0  0  0  0  0
  134.9604  121.1979   61.0237 H   0  0  0  0  0  0  0  0  0  0  0  0
  133.9461  120.3382   62.2377 H   0  0  0  0  0  0  0  0  0  0  0  0
  131.2927  119.7115   59.8887 H   0  0  0  0  0  0  0  0  0  0  0  0
  131.8469  119.4824   61.5862 H   0  0  0  0  0  0  0  0  0  0  0  0
  131.0635  122.1241   60.2417 H   0  0  0  0  0  0  0  0  0  0  0  0
  130.1654  121.2186   61.5495 H   0  0  0  0  0  0  0  0  0  0  0  0
  132.7705  124.7280   62.3454 H   0  0  0  0  0  0  0  0  0  0  0  0
  131.7341  126.5805   63.6254 H   0  0  0  0  0  0  0  0  0  0  0  0
  128.1157  133.0409   60.7777 H   0  0  0  0  0  0  0  0  0  0  0  0
  128.8637  133.5558   58.4640 H   0  0  0  0  0  0  0  0  0  0  0  0
  1  2  1  0
  2  3  1  0
  3  4  1  0
  4  5  2  0
  4  6  1  0
  6  7  2  0
  7  8  1  0
  8  9  2  0
  9 10  1  0
 10 11  1  0
 11 12  2  0
 11 13  1  0
 13 14  1  0
 14 15  1  0
 15 16  2  0
 16 17  1  0
 17 18  1  0
 18 19  2  0
 19 20  1  0
 20 21  2  0
 21 22  1  0
 22 23  1  0
 23 24  1  0
 24 25  1  0
 25 26  1  0
 26 27  1  0
 21 28  1  0
 28 29  2  0
 17 30  2  0
 30 31  1  0
 31 32  1  0
 32 33  2  0
 33 34  1  0
 34 35  2  0
 35 36  1  0
 36 37  1  0
 37 38  1  0
 38 39  1  0
 39 40  1  0
 40 41  1  0
 35 42  1  0
 42 43  2  0
 31 44  2  0
 44 45  1  0
 45 46  3  0
  9 47  1  0
 47 48  2  0
 48  6  1  0
 44 15  1  0
 29 18  1  0
 43 32  1  0
 27 22  1  0
 41 36  1  0
  1 49  1  0
  1 50  1  0
  1 51  1  0
  2 52  1  0
  2 53  1  0
  7 54  1  0
  8 55  1  0
 10 56  1  0
 13 57  1  0
 13 58  1  0
 19 59  1  0
 20 60  1  0
 23 61  1  0
 23 62  1  0
 24 63  1  0
 24 64  1  0
 26 65  1  0
 26 66  1  0
 27 67  1  0
 27 68  1  0
 28 69  1  0
 29 70  1  0
 30 71  1  0
 33 72  1  0
 34 73  1  0
 37 74  1  0
 37 75  1  0
 38 76  1  0
 38 77  1  0
 40 78  1  0
 40 79  1  0
 41 80  1  0
 41 81  1  0
 42 82  1  0
 43 83  1  0
 47 84  1  0
 48 85  1  0
M  END
>  <Binding energies>  (1) 
[-11.91]

>  <Ligand effiencies>  (1) 
[-0.24306122448979592]

>  <Interactions>  (1) 
["V-A:PRO:540:CA:4883, V-A:PRO:540:CB:4885, V-A:PRO:540:CD:4887, V-A:PRO:540:N:4884, V-A:TYR:539:C:4867, H-A:TYR:539:N:4870, V-B:TYR:539:CE2:9848, V-B:TYR:539:CD2:9846, V-A:MET:535:CE:4835, V-A:ILE:369:CD1:3239, V-B:GLU:543:CG:9879, V-A:ILE:369:CG2:3237, V-A:LEU:475:CD2:4259, V-B:GLU:543:CB:9878, V-A:GLU:543:CD:4908, V-B:GLU:543:CD:9880, V-B:HIS:456:CE1:9041, V-A:GLY:544:C:4912, H-A:LYS:547:NZ:4951, V-B:GLU:543:C:9874, V-B:HIS:456:CD2:9039, V-A:HIS:456:CE1:4070, V-A:GLU:543:CG:4907, V-A:GLU:543:C:4902, V-A:GLU:543:CB:4906, H-B:LYS:547:NZ:9923, H-A:GLU:543:OE1:4909, V-B:TYR:484:CZ:9318, H-B:TYR:484:OH:9319, V-A:ALA:541:CB:4892, V-A:HIS:456:CD2:4068, V-A:TYR:539:CE1:4875, V-A:TYR:539:CZ:4877, V-A:TYR:539:CD1:4873, V-A:TYR:539:CD2:4874, V-A:ILE:538:CA:4860, V-A:TYR:539:CE2:4876, V-A:ILE:538:C:4858, V-B:TYR:484:CE2:9317, V-A:ILE:538:CG2:4863, V-A:ILE:538:CB:4862, H-A:SER:385:OG:3410, V-A:SER:385:CA:3407, V-A:SER:385:CB:3409, V-A:SER:385:C:3405"]

$$$$
2a_Grossjean_2025
     RDKit          3D

 45 46  0  0  0  0  0  0  0  0999 V2000
  128.6100  131.4390   74.3070 C   0  0  0  0  0  0  0  0  0  0  0  0
  129.4950  131.0120   73.1310 C   0  0  0  0  0  0  0  0  0  0  0  0
  129.8650  129.6480   73.2920 O   0  0  0  0  0  0  0  0  0  0  0  0
  129.0340  128.6460   72.9050 C   0  0  0  0  0  0  0  0  0  0  0  0
  128.1060  128.2240   73.6000 O   0  0  0  0  0  0  0  0  0  0  0  0
  129.3450  128.1180   71.5330 C   0  0  0  0  0  0  0  0  0  0  0  0
  128.4110  127.3780   70.7940 C   0  0  0  0  0  0  0  0  0  0  0  0
  128.7310  126.9020   69.5260 C   0  0  0  0  0  0  0  0  0  0  0  0
  129.9890  127.1470   68.9740 C   0  0  0  0  0  0  0  0  0  0  0  0
  130.2080  126.6060   67.6940 N   0  0  0  0  0  0  0  0  0  0  0  0
  129.9720  125.3620   67.2250 C   0  0  0  0  0  0  0  0  0  0  0  0
  129.5220  124.4230   67.8830 O   0  0  0  0  0  0  0  0  0  0  0  0
  130.3100  125.1380   65.7470 C   0  0  0  0  0  0  0  0  0  0  0  0
  130.2290  123.3860   65.2460 S   0  0  0  0  0  0  0  0  0  0  0  0
  130.6000  123.2390   63.5020 C   0  0  0  0  0  0  0  0  0  0  0  0
  129.6100  122.7220   62.7300 N   0  0  0  0  0  0  0  0  0  0  0  0
  129.8260  122.5710   61.4040 C   0  0  0  0  0  0  0  0  0  0  0  0
  128.6830  121.9610   60.6140 C   0  0  0  0  0  0  0  0  0  0  0  0
  131.0230  122.9320   60.7930 C   0  0  0  0  0  0  0  0  0  0  0  0
  132.0570  123.4770   61.5690 C   0  0  0  0  0  0  0  0  0  0  0  0
  133.3750  123.8730   60.8760 C   0  0  0  0  0  0  0  0  0  0  0  0
  134.4000  123.2420   61.4480 F   0  0  0  0  0  0  0  0  0  0  0  0
  133.3280  123.5430   59.5850 F   0  0  0  0  0  0  0  0  0  0  0  0
  133.6210  125.1840   60.9470 F   0  0  0  0  0  0  0  0  0  0  0  0
  131.8450  123.6380   62.9620 C   0  0  0  0  0  0  0  0  0  0  0  0
  132.8930  124.1990   63.8210 C   0  0  0  0  0  0  0  0  0  0  0  0
  133.7200  124.6420   64.4990 N   0  0  0  0  0  0  0  0  0  0  0  0
  130.9260  127.8930   69.7040 C   0  0  0  0  0  0  0  0  0  0  0  0
  130.6020  128.3720   70.9710 C   0  0  0  0  0  0  0  0  0  0  0  0
  129.1150  131.1953   75.2533 H   0  0  0  0  0  0  0  0  0  0  0  0
  128.4302  132.5230   74.2559 H   0  0  0  0  0  0  0  0  0  0  0  0
  127.6496  130.9052   74.2559 H   0  0  0  0  0  0  0  0  0  0  0  0
  128.9389  131.1332   72.1897 H   0  0  0  0  0  0  0  0  0  0  0  0
  130.3989  131.6382   73.1037 H   0  0  0  0  0  0  0  0  0  0  0  0
  127.4178  127.1721   71.2197 H   0  0  0  0  0  0  0  0  0  0  0  0
  127.9866  126.3282   68.9545 H   0  0  0  0  0  0  0  0  0  0  0  0
  130.5540  127.2720   67.0200 H   0  0  0  0  0  0  0  0  0  0  0  0
  129.5965  125.7095   65.1352 H   0  0  0  0  0  0  0  0  0  0  0  0
  131.3469  125.4726   65.5955 H   0  0  0  0  0  0  0  0  0  0  0  0
  127.9305  121.5594   61.3086 H   0  0  0  0  0  0  0  0  0  0  0  0
  128.2221  122.7331   59.9804 H   0  0  0  0  0  0  0  0  0  0  0  0
  129.0678  121.1483   59.9804 H   0  0  0  0  0  0  0  0  0  0  0  0
  131.1574  122.7912   59.7104 H   0  0  0  0  0  0  0  0  0  0  0  0
  131.9177  128.0999   69.2754 H   0  0  0  0  0  0  0  0  0  0  0  0
  131.3423  128.9567   71.5368 H   0  0  0  0  0  0  0  0  0  0  0  0
  1  2  1  0
  2  3  1  0
  3  4  1  0
  4  5  2  0
  4  6  1  0
  6  7  2  0
  7  8  1  0
  8  9  2  0
  9 10  1  0
 10 11  1  0
 11 12  2  0
 11 13  1  0
 13 14  1  0
 14 15  1  0
 15 16  2  0
 16 17  1  0
 17 18  1  0
 17 19  2  0
 19 20  1  0
 20 21  1  0
 21 22  1  0
 21 23  1  0
 21 24  1  0
 20 25  2  0
 25 26  1  0
 26 27  3  0
  9 28  1  0
 28 29  2  0
 29  6  1  0
 25 15  1  0
  1 30  1  0
  1 31  1  0
  1 32  1  0
  2 33  1  0
  2 34  1  0
  7 35  1  0
  8 36  1  0
 10 37  1  0
 13 38  1  0
 13 39  1  0
 18 40  1  0
 18 41  1  0
 18 42  1  0
 19 43  1  0
 28 44  1  0
 29 45  1  0
M  END
>  <Binding energies>  (1) 
[-7.51]

>  <Ligand effiencies>  (1) 
[-0.25033333333333335]

>  <Interactions>  (1) 
["V-A:ASP:366:CG:3213, V-A:ASP:366:CB:3212, V-B:PRO:540:N:9856, V-B:PRO:540:CA:9855, V-B:TYR:539:CE2:9848, V-B:TYR:539:C:9839, V-B:PRO:540:C:9853, V-B:TYR:539:CD2:9846, V-A:ASP:366:CA:3210, V-A:ILE:369:CD1:3239, V-B:GLU:543:CG:9879, V-A:ILE:369:CB:3236, V-A:ILE:369:CG2:3237, V-A:LEU:475:CD2:4259, V-B:GLU:543:CB:9878, H-A:TYR:484:OH:4348, V-A:GLU:543:CD:4908, V-A:TYR:484:CE2:4346, H-A:ARG:545:NE:4924, V-B:HIS:456:CE1:9041, V-A:GLY:544:CA:4914, V-A:GLY:544:C:4912, H-A:LYS:547:NZ:4951, V-B:GLU:543:C:9874, V-B:HIS:456:CD2:9039, V-A:HIS:456:CE1:4070, V-A:GLU:543:C:4902, V-A:GLU:543:CB:4906, H-B:LYS:547:NZ:9923, H-A:GLU:543:OE2:4910, H-A:ARG:545:NH2:4928, H-A:GLY:454:N:4050, V-A:LYS:547:CE:4950"]

$$$$
2aa_Ghoteimi_2023
     RDKit          3D

 85 90  0  0  0  0  0  0  0  0999 V2000
  131.0980  131.3660   55.8110 C   0  0  0  0  0  0  0  0  0  0  0  0
  131.8320  132.5460   56.4580 C   0  0  0  0  0  0  0  0  0  0  0  0
  130.8840  133.5260   56.8610 O   0  0  0  0  0  0  0  0  0  0  0  0
  129.5810  133.2020   57.0620 C   0  0  0  0  0  0  0  0  0  0  0  0
  128.7210  133.2570   56.1760 O   0  0  0  0  0  0  0  0  0  0  0  0
  129.2900  132.7550   58.4660 C   0  0  0  0  0  0  0  0  0  0  0  0
  128.0120  132.8740   59.0320 C   0  0  0  0  0  0  0  0  0  0  0  0
  127.7740  132.4470   60.3340 C   0  0  0  0  0  0  0  0  0  0  0  0
  128.8050  131.9010   61.1000 C   0  0  0  0  0  0  0  0  0  0  0  0
  128.4530  131.4990   62.4030 N   0  0  0  0  0  0  0  0  0  0  0  0
  129.0560  131.7610   63.5830 C   0  0  0  0  0  0  0  0  0  0  0  0
  130.0600  132.4620   63.7240 O   0  0  0  0  0  0  0  0  0  0  0  0
  128.3750  131.1280   64.8030 C   0  0  0  0  0  0  0  0  0  0  0  0
  127.8560  129.8410   64.4510 O   0  0  0  0  0  0  0  0  0  0  0  0
  128.3950  128.6940   65.0170 C   0  0  0  0  0  0  0  0  0  0  0  0
  128.4890  128.6330   66.3750 N   0  0  0  0  0  0  0  0  0  0  0  0
  129.0070  127.5240   66.9600 C   0  0  0  0  0  0  0  0  0  0  0  0
  129.0830  127.5300   68.4540 C   0  0  0  0  0  0  0  0  0  0  0  0
  130.2800  127.8420   69.1080 C   0  0  0  0  0  0  0  0  0  0  0  0
  130.3550  127.8560   70.4980 C   0  0  0  0  0  0  0  0  0  0  0  0
  129.2300  127.5710   71.2880 C   0  0  0  0  0  0  0  0  0  0  0  0
  129.2910  127.5680   72.6860 N   0  0  0  0  0  0  0  0  0  0  0  0
  130.4800  127.0670   73.4040 C   0  0  0  0  0  0  0  0  0  0  0  0
  130.2380  126.8080   74.9060 C   0  0  0  0  0  0  0  0  0  0  0  0
  129.7280  127.9780   75.5250 O   0  0  0  0  0  0  0  0  0  0  0  0
  128.4940  128.3740   74.9480 C   0  0  0  0  0  0  0  0  0  0  0  0
  128.6840  128.6800   73.4470 C   0  0  0  0  0  0  0  0  0  0  0  0
  128.0380  127.2380   70.6280 C   0  0  0  0  0  0  0  0  0  0  0  0
  127.9650  127.2220   69.2380 C   0  0  0  0  0  0  0  0  0  0  0  0
  129.4630  126.4480   66.1930 C   0  0  0  0  0  0  0  0  0  0  0  0
  129.3890  126.4900   64.7950 C   0  0  0  0  0  0  0  0  0  0  0  0
  129.9160  125.3200   64.0290 C   0  0  0  0  0  0  0  0  0  0  0  0
  129.0520  124.5300   63.2650 C   0  0  0  0  0  0  0  0  0  0  0  0
  129.5330  123.4270   62.5650 C   0  0  0  0  0  0  0  0  0  0  0  0
  130.8900  123.0740   62.6190 C   0  0  0  0  0  0  0  0  0  0  0  0
  131.3960  121.9730   61.9210 N   0  0  0  0  0  0  0  0  0  0  0  0
  132.6620  122.0560   61.1680 C   0  0  0  0  0  0  0  0  0  0  0  0
  133.2310  120.6770   60.7700 C   0  0  0  0  0  0  0  0  0  0  0  0
  132.2580  119.9420   60.0440 O   0  0  0  0  0  0  0  0  0  0  0  0
  131.0840  119.7280   60.8120 C   0  0  0  0  0  0  0  0  0  0  0  0
  130.4580  121.0800   61.2110 C   0  0  0  0  0  0  0  0  0  0  0  0
  131.7500  123.8760   63.3810 C   0  0  0  0  0  0  0  0  0  0  0  0
  131.2700  124.9790   64.0810 C   0  0  0  0  0  0  0  0  0  0  0  0
  128.8260  127.6390   64.1920 C   0  0  0  0  0  0  0  0  0  0  0  0
  128.6620  127.7490   62.7410 C   0  0  0  0  0  0  0  0  0  0  0  0
  128.5330  127.8350   61.5940 N   0  0  0  0  0  0  0  0  0  0  0  0
  130.0840  131.7720   60.5390 C   0  0  0  0  0  0  0  0  0  0  0  0
  130.3190  132.1970   59.2340 C   0  0  0  0  0  0  0  0  0  0  0  0
  130.6912  130.7121   56.5964 H   0  0  0  0  0  0  0  0  0  0  0  0
  130.2754  131.7440   55.1861 H   0  0  0  0  0  0  0  0  0  0  0  0
  131.8007  130.7952   55.1861 H   0  0  0  0  0  0  0  0  0  0  0  0
  132.3917  132.1932   57.3368 H   0  0  0  0  0  0  0  0  0  0  0  0
  132.5316  132.9869   55.7326 H   0  0  0  0  0  0  0  0  0  0  0  0
  127.1918  133.3084   58.4415 H   0  0  0  0  0  0  0  0  0  0  0  0
  126.7655  132.5403   60.7633 H   0  0  0  0  0  0  0  0  0  0  0  0
  127.5960  130.9660   62.4520 H   0  0  0  0  0  0  0  0  0  0  0  0
  129.1088  131.0170   65.6149 H   0  0  0  0  0  0  0  0  0  0  0  0
  127.5504  131.7749   65.1369 H   0  0  0  0  0  0  0  0  0  0  0  0
  131.1753  128.0798   68.5148 H   0  0  0  0  0  0  0  0  0  0  0  0
  131.3118  128.0944   70.9855 H   0  0  0  0  0  0  0  0  0  0  0  0
  130.7955  126.1229   72.9358 H   0  0  0  0  0  0  0  0  0  0  0  0
  131.2496  127.8498   73.3340 H   0  0  0  0  0  0  0  0  0  0  0  0
  129.5128  125.9891   75.0220 H   0  0  0  0  0  0  0  0  0  0  0  0
  131.1906  126.5337   75.3828 H   0  0  0  0  0  0  0  0  0  0  0  0
  127.7611  127.5620   75.0638 H   0  0  0  0  0  0  0  0  0  0  0  0
  128.1328  129.2797   75.4571 H   0  0  0  0  0  0  0  0  0  0  0  0
  127.6991  128.9025   73.0106 H   0  0  0  0  0  0  0  0  0  0  0  0
  129.3761  129.5322   73.3778 H   0  0  0  0  0  0  0  0  0  0  0  0
  127.1454  126.9851   71.2190 H   0  0  0  0  0  0  0  0  0  0  0  0
  127.0145  126.9635   68.7483 H   0  0  0  0  0  0  0  0  0  0  0  0
  129.8831  125.5617   66.6911 H   0  0  0  0  0  0  0  0  0  0  0  0
  127.9824  124.7822   63.2165 H   0  0  0  0  0  0  0  0  0  0  0  0
  128.8394  122.8236   61.9610 H   0  0  0  0  0  0  0  0  0  0  0  0
  132.4849  122.6377   60.2514 H   0  0  0  0  0  0  0  0  0  0  0  0
  133.4012  122.5338   61.8278 H   0  0  0  0  0  0  0  0  0  0  0  0
  134.1236  120.8184   60.1428 H   0  0  0  0  0  0  0  0  0  0  0  0
  133.4991  120.1205   61.6802 H   0  0  0  0  0  0  0  0  0  0  0  0
  130.3594  119.1532   60.2165 H   0  0  0  0  0  0  0  0  0  0  0  0
  131.3464  119.1699   61.7229 H   0  0  0  0  0  0  0  0  0  0  0  0
  130.1155  121.5888   60.2979 H   0  0  0  0  0  0  0  0  0  0  0  0
  129.6295  120.8635   61.9015 H   0  0  0  0  0  0  0  0  0  0  0  0
  132.8212  123.6300   63.4266 H   0  0  0  0  0  0  0  0  0  0  0  0
  131.9628  125.5878   64.6806 H   0  0  0  0  0  0  0  0  0  0  0  0
  130.9020  131.3348   61.1304 H   0  0  0  0  0  0  0  0  0  0  0  0
  131.3250  132.0931   58.8014 H   0  0  0  0  0  0  0  0  0  0  0  0
  1  2  1  0
  2  3  1  0
  3  4  1  0
  4  5  2  0
  4  6  1  0
  6  7  2  0
  7  8  1  0
  8  9  2  0
  9 10  1  0
 10 11  1  0
 11 12  2  0
 11 13  1  0
 13 14  1  0
 14 15  1  0
 15 16  2  0
 16 17  1  0
 17 18  1  0
 18 19  2  0
 19 20  1  0
 20 21  2  0
 21 22  1  0
 22 23  1  0
 23 24  1  0
 24 25  1  0
 25 26  1  0
 26 27  1  0
 21 28  1  0
 28 29  2  0
 17 30  2  0
 30 31  1  0
 31 32  1  0
 32 33  2  0
 33 34  1  0
 34 35  2  0
 35 36  1  0
 36 37  1  0
 37 38  1  0
 38 39  1  0
 39 40  1  0
 40 41  1  0
 35 42  1  0
 42 43  2  0
 31 44  2  0
 44 45  1  0
 45 46  3  0
  9 47  1  0
 47 48  2  0
 48  6  1  0
 44 15  1  0
 29 18  1  0
 43 32  1  0
 27 22  1  0
 41 36  1  0
  1 49  1  0
  1 50  1  0
  1 51  1  0
  2 52  1  0
  2 53  1  0
  7 54  1  0
  8 55  1  0
 10 56  1  0
 13 57  1  0
 13 58  1  0
 19 59  1  0
 20 60  1  0
 23 61  1  0
 23 62  1  0
 24 63  1  0
 24 64  1  0
 26 65  1  0
 26 66  1  0
 27 67  1  0
 27 68  1  0
 28 69  1  0
 29 70  1  0
 30 71  1  0
 33 72  1  0
 34 73  1  0
 37 74  1  0
 37 75  1  0
 38 76  1  0
 38 77  1  0
 40 78  1  0
 40 79  1  0
 41 80  1  0
 41 81  1  0
 42 82  1  0
 43 83  1  0
 47 84  1  0
 48 85  1  0
M  END
>  <Binding energies>  (1) 
[-10.65]

>  <Ligand effiencies>  (1) 
[-0.2173469387755102]

>  <Interactions>  (1) 
["V-A:LEU:363:CD1:3189, V-A:PRO:540:CA:4883, V-A:PRO:540:CB:4885, V-A:PRO:540:N:4884, V-A:TYR:539:C:4867, H-A:TYR:539:N:4870, V-B:TYR:539:CE2:9848, V-B:TYR:539:CD2:9846, V-A:MET:535:CE:4835, V-B:GLU:543:CG:9879, V-A:ILE:369:CG2:3237, V-A:LEU:475:CD2:4259, V-B:GLU:543:CB:9878, V-A:GLU:543:CD:4908, V-B:GLU:543:CD:9880, V-B:HIS:456:CE1:9041, H-A:LYS:547:NZ:4951, V-B:GLU:543:C:9874, V-B:HIS:456:CD2:9039, V-A:HIS:456:CE1:4070, V-A:GLU:543:CG:4907, V-A:GLU:543:C:4902, V-A:GLU:543:CB:4906, V-A:TYR:531:CZ:4794, H-B:LYS:547:NZ:9923, V-B:TYR:484:CZ:9318, H-B:TYR:484:OH:9319, V-A:ALA:541:CB:4892, V-A:HIS:456:CD2:4068, V-A:TYR:539:CE1:4875, H-A:ALA:541:N:4891, V-A:TYR:539:CD1:4873, V-A:ILE:538:CA:4860, V-A:TYR:539:CA:4869, V-A:TYR:531:CE2:4793, V-B:TYR:484:CE2:9317, V-A:ILE:538:CG2:4863, V-A:ILE:538:CB:4862, H-A:SER:385:OG:3410, V-A:SER:385:CA:3407, V-A:SER:385:CB:3409"]

$$$$
2b_Ghoteimi_2023
     RDKit          3D

 72 77  0  0  0  0  0  0  0  0999 V2000
  128.0260  132.3180   64.8980 N   0  0  0  0  0  0  0  0  0  0  0  0
  127.8780  131.4320   64.1690 C   0  0  0  0  0  0  0  0  0  0  0  0
  127.6890  130.3060   63.2500 C   0  0  0  0  0  0  0  0  0  0  0  0
  127.8060  128.9710   63.7130 C   0  0  0  0  0  0  0  0  0  0  0  0
  128.1170  128.6070   65.1280 C   0  0  0  0  0  0  0  0  0  0  0  0
  128.7900  127.4190   65.4170 C   0  0  0  0  0  0  0  0  0  0  0  0
  129.0820  127.0740   66.7340 C   0  0  0  0  0  0  0  0  0  0  0  0
  128.6920  127.9020   67.7990 C   0  0  0  0  0  0  0  0  0  0  0  0
  128.9850  127.5840   69.1270 N   0  0  0  0  0  0  0  0  0  0  0  0
  130.0270  128.3530   69.8370 C   0  0  0  0  0  0  0  0  0  0  0  0
  130.5120  127.6710   71.1340 C   0  0  0  0  0  0  0  0  0  0  0  0
  129.4080  127.3990   71.9850 O   0  0  0  0  0  0  0  0  0  0  0  0
  128.4660  126.5400   71.3630 C   0  0  0  0  0  0  0  0  0  0  0  0
  127.9240  127.1980   70.0770 C   0  0  0  0  0  0  0  0  0  0  0  0
  128.0150  129.0910   67.4980 C   0  0  0  0  0  0  0  0  0  0  0  0
  127.7260  129.4380   66.1820 C   0  0  0  0  0  0  0  0  0  0  0  0
  127.6130  127.9280   62.7990 C   0  0  0  0  0  0  0  0  0  0  0  0
  127.2820  128.2050   61.4700 C   0  0  0  0  0  0  0  0  0  0  0  0
  127.0360  127.1280   60.4610 C   0  0  0  0  0  0  0  0  0  0  0  0
  127.0790  127.4090   59.0910 C   0  0  0  0  0  0  0  0  0  0  0  0
  126.8670  126.4080   58.1470 C   0  0  0  0  0  0  0  0  0  0  0  0
  126.5900  125.0890   58.5380 C   0  0  0  0  0  0  0  0  0  0  0  0
  126.4050  124.0660   57.6010 N   0  0  0  0  0  0  0  0  0  0  0  0
  127.5610  123.2650   57.1470 C   0  0  0  0  0  0  0  0  0  0  0  0
  127.2880  122.4620   55.8570 C   0  0  0  0  0  0  0  0  0  0  0  0
  126.1390  121.6470   56.0260 O   0  0  0  0  0  0  0  0  0  0  0  0
  124.9850  122.4250   56.3010 C   0  0  0  0  0  0  0  0  0  0  0  0
  125.1890  123.2300   57.6020 C   0  0  0  0  0  0  0  0  0  0  0  0
  126.5550  124.8100   59.9120 C   0  0  0  0  0  0  0  0  0  0  0  0
  126.7700  125.8110   60.8550 C   0  0  0  0  0  0  0  0  0  0  0  0
  127.1690  129.4840   61.0280 N   0  0  0  0  0  0  0  0  0  0  0  0
  127.3840  130.5090   61.8850 C   0  0  0  0  0  0  0  0  0  0  0  0
  127.2000  132.1140   61.1380 S   0  0  0  0  0  0  0  0  0  0  0  0
  128.8650  132.7280   60.7400 C   0  0  0  0  0  0  0  0  0  0  0  0
  129.1410  132.7080   59.2350 C   0  0  0  0  0  0  0  0  0  0  0  0
  128.2110  132.8970   58.4490 O   0  0  0  0  0  0  0  0  0  0  0  0
  130.4230  132.4710   58.8820 N   0  0  0  0  0  0  0  0  0  0  0  0
  130.9450  132.4110   57.5980 C   0  0  0  0  0  0  0  0  0  0  0  0
  131.8440  131.4270   57.1880 C   0  0  0  0  0  0  0  0  0  0  0  0
  132.1130  131.7150   55.8710 C   0  0  0  0  0  0  0  0  0  0  0  0
  131.4130  132.8150   55.5060 O   0  0  0  0  0  0  0  0  0  0  0  0
  130.6730  133.2460   56.6100 N   0  0  0  0  0  0  0  0  0  0  0  0
  129.0922  126.7499   64.5979 H   0  0  0  0  0  0  0  0  0  0  0  0
  129.6253  126.1406   66.9429 H   0  0  0  0  0  0  0  0  0  0  0  0
  130.8886  128.4770   69.1645 H   0  0  0  0  0  0  0  0  0  0  0  0
  129.5821  129.3176   70.1228 H   0  0  0  0  0  0  0  0  0  0  0  0
  131.0179  126.7274   70.8816 H   0  0  0  0  0  0  0  0  0  0  0  0
  131.2105  128.3428   71.6543 H   0  0  0  0  0  0  0  0  0  0  0  0
  128.9538  125.5877   71.1077 H   0  0  0  0  0  0  0  0  0  0  0  0
  127.6311  126.3564   72.0553 H   0  0  0  0  0  0  0  0  0  0  0  0
  127.2504  126.4860   69.5777 H   0  0  0  0  0  0  0  0  0  0  0  0
  127.4041  128.1198   70.3769 H   0  0  0  0  0  0  0  0  0  0  0  0
  127.7072  129.7605   68.3147 H   0  0  0  0  0  0  0  0  0  0  0  0
  127.1862  130.3726   65.9694 H   0  0  0  0  0  0  0  0  0  0  0  0
  127.7226  126.8844   63.1291 H   0  0  0  0  0  0  0  0  0  0  0  0
  127.2834  128.4362   58.7548 H   0  0  0  0  0  0  0  0  0  0  0  0
  126.9175  126.6552   57.0763 H   0  0  0  0  0  0  0  0  0  0  0  0
  128.4044  123.9461   56.9607 H   0  0  0  0  0  0  0  0  0  0  0  0
  127.7798  122.5356   57.9408 H   0  0  0  0  0  0  0  0  0  0  0  0
  127.1205  123.1591   55.0227 H   0  0  0  0  0  0  0  0  0  0  0  0
  128.1558  121.8217   55.6401 H   0  0  0  0  0  0  0  0  0  0  0  0
  124.8067  123.1197   55.4669 H   0  0  0  0  0  0  0  0  0  0  0  0
  124.1194  121.7570   56.4216 H   0  0  0  0  0  0  0  0  0  0  0  0
  124.3174  123.8859   57.7442 H   0  0  0  0  0  0  0  0  0  0  0  0
  125.3035  122.4992   58.4161 H   0  0  0  0  0  0  0  0  0  0  0  0
  126.3542  123.7827   60.2502 H   0  0  0  0  0  0  0  0  0  0  0  0
  126.7303  125.5636   61.9261 H   0  0  0  0  0  0  0  0  0  0  0  0
  128.9583  133.7618   61.1041 H   0  0  0  0  0  0  0  0  0  0  0  0
  129.5958  132.0659   61.2274 H   0  0  0  0  0  0  0  0  0  0  0  0
  131.0920  132.3470   59.6270 H   0  0  0  0  0  0  0  0  0  0  0  0
  132.2500  130.5995   57.7884 H   0  0  0  0  0  0  0  0  0  0  0  0
  132.7889  131.1432   55.2181 H   0  0  0  0  0  0  0  0  0  0  0  0
  1  2  3  0
  2  3  1  0
  3  4  2  0
  4  5  1  0
  5  6  2  0
  6  7  1  0
  7  8  2  0
  8  9  1  0
  9 10  1  0
 10 11  1  0
 11 12  1  0
 12 13  1  0
 13 14  1  0
  8 15  1  0
 15 16  2  0
  4 17  1  0
 17 18  2  0
 18 19  1  0
 19 20  2  0
 20 21  1  0
 21 22  2  0
 22 23  1  0
 23 24  1  0
 24 25  1  0
 25 26  1  0
 26 27  1  0
 27 28  1  0
 22 29  1  0
 29 30  2  0
 18 31  1  0
 31 32  2  0
 32 33  1  0
 33 34  1  0
 34 35  1  0
 35 36  2  0
 35 37  1  0
 37 38  1  0
 38 39  1  0
 39 40  2  0
 40 41  1  0
 41 42  1  0
 32  3  1  0
 42 38  2  0
 16  5  1  0
 30 19  1  0
 14  9  1  0
 28 23  1  0
  6 43  1  0
  7 44  1  0
 10 45  1  0
 10 46  1  0
 11 47  1  0
 11 48  1  0
 13 49  1  0
 13 50  1  0
 14 51  1  0
 14 52  1  0
 15 53  1  0
 16 54  1  0
 17 55  1  0
 20 56  1  0
 21 57  1  0
 24 58  1  0
 24 59  1  0
 25 60  1  0
 25 61  1  0
 27 62  1  0
 27 63  1  0
 28 64  1  0
 28 65  1  0
 29 66  1  0
 30 67  1  0
 34 68  1  0
 34 69  1  0
 37 70  1  0
 39 71  1  0
 40 72  1  0
M  END
>  <Binding energies>  (1) 
[-11.64]

>  <Ligand effiencies>  (1) 
[-0.27069767441860465]

>  <Interactions>  (1) 
["V-A:LEU:363:CD1:3189, V-A:PRO:540:CA:4883, V-A:PRO:540:CB:4885, V-A:PRO:540:N:4884, V-A:TYR:539:C:4867, H-A:TYR:539:N:4870, V-B:TYR:539:CZ:9849, V-B:PRO:540:N:9856, V-B:TYR:539:CE1:9847, V-B:PRO:540:CB:9857, V-B:TYR:539:CD1:9845, V-B:PRO:540:CA:9855, V-B:TYR:539:CE2:9848, H-B:TYR:539:N:9842, V-B:PRO:540:CD:9859, V-B:MET:535:CE:9807, V-B:LEU:363:CD1:8160, V-B:PRO:540:CG:9858, V-B:TYR:539:CG:9844, V-B:GLU:543:CG:9879, V-B:GLU:543:CB:9878, V-A:GLU:543:CD:4908, V-B:GLU:543:CD:9880, V-B:HIS:456:CE1:9041, V-A:GLY:544:C:4912, V-B:GLU:543:C:9874, V-A:HIS:456:CE1:4070, V-A:GLU:543:CG:4907, V-A:GLU:543:C:4902, V-A:GLU:543:CB:4906, V-A:TYR:531:CZ:4794, V-B:TYR:484:CZ:9318, V-A:GLU:543:CA:4904, H-B:TYR:484:OH:9319, V-B:ILE:538:CG2:9835, V-A:TYR:531:CE2:4793, V-A:ILE:538:CG2:4863, V-A:ILE:538:CB:4862, V-B:ILE:538:CA:9832"]

$$$$
2b_Grossjean_2025
     RDKit          3D

 42 43  0  0  0  0  0  0  0  0999 V2000
  129.4440  131.1680   73.2710 C   0  0  0  0  0  0  0  0  0  0  0  0
  130.0180  129.8770   73.1200 O   0  0  0  0  0  0  0  0  0  0  0  0
  129.2440  128.7970   72.8410 C   0  0  0  0  0  0  0  0  0  0  0  0
  128.4240  128.3240   73.6350 O   0  0  0  0  0  0  0  0  0  0  0  0
  129.4870  128.2300   71.4720 C   0  0  0  0  0  0  0  0  0  0  0  0
  128.4790  127.5730   70.7510 C   0  0  0  0  0  0  0  0  0  0  0  0
  128.7380  127.0580   69.4840 C   0  0  0  0  0  0  0  0  0  0  0  0
  130.0020  127.1920   68.9100 C   0  0  0  0  0  0  0  0  0  0  0  0
  130.1570  126.6290   67.6290 N   0  0  0  0  0  0  0  0  0  0  0  0
  129.9070  125.3730   67.2040 C   0  0  0  0  0  0  0  0  0  0  0  0
  129.5030  124.4480   67.9100 O   0  0  0  0  0  0  0  0  0  0  0  0
  130.1800  125.1200   65.7170 C   0  0  0  0  0  0  0  0  0  0  0  0
  130.0920  123.3570   65.2620 S   0  0  0  0  0  0  0  0  0  0  0  0
  130.6220  123.1370   63.5690 C   0  0  0  0  0  0  0  0  0  0  0  0
  129.7130  122.5710   62.7350 N   0  0  0  0  0  0  0  0  0  0  0  0
  130.0490  122.3700   61.4420 C   0  0  0  0  0  0  0  0  0  0  0  0
  128.9820  121.7200   60.5800 C   0  0  0  0  0  0  0  0  0  0  0  0
  131.2890  122.7280   60.9230 C   0  0  0  0  0  0  0  0  0  0  0  0
  132.2430  123.3220   61.7640 C   0  0  0  0  0  0  0  0  0  0  0  0
  133.6090  123.7170   61.1730 C   0  0  0  0  0  0  0  0  0  0  0  0
  134.5720  122.9650   61.7080 F   0  0  0  0  0  0  0  0  0  0  0  0
  133.6060  123.5390   59.8510 F   0  0  0  0  0  0  0  0  0  0  0  0
  133.9230  124.9940   61.4050 F   0  0  0  0  0  0  0  0  0  0  0  0
  131.9060  123.5330   63.1260 C   0  0  0  0  0  0  0  0  0  0  0  0
  132.8660  124.1440   64.0510 C   0  0  0  0  0  0  0  0  0  0  0  0
  133.6230  124.6270   64.7810 N   0  0  0  0  0  0  0  0  0  0  0  0
  131.0180  127.8410   69.6280 C   0  0  0  0  0  0  0  0  0  0  0  0
  130.7580  128.3550   70.8950 C   0  0  0  0  0  0  0  0  0  0  0  0
  129.3407  131.4004   74.3412 H   0  0  0  0  0  0  0  0  0  0  0  0
  130.0942  131.9164   72.7944 H   0  0  0  0  0  0  0  0  0  0  0  0
  128.4528  131.1866   72.7944 H   0  0  0  0  0  0  0  0  0  0  0  0
  127.4764  127.4639   71.1901 H   0  0  0  0  0  0  0  0  0  0  0  0
  127.9396  126.5413   68.9312 H   0  0  0  0  0  0  0  0  0  0  0  0
  130.5580  127.2560   66.9480 H   0  0  0  0  0  0  0  0  0  0  0  0
  129.4343  125.6716   65.1256 H   0  0  0  0  0  0  0  0  0  0  0  0
  131.2051  125.4609   65.5097 H   0  0  0  0  0  0  0  0  0  0  0  0
  128.2213  121.2566   61.2254 H   0  0  0  0  0  0  0  0  0  0  0  0
  128.5085  122.4832   59.9450 H   0  0  0  0  0  0  0  0  0  0  0  0
  129.4430  120.9492   59.9450 H   0  0  0  0  0  0  0  0  0  0  0  0
  131.5199  122.5472   59.8628 H   0  0  0  0  0  0  0  0  0  0  0  0
  132.0213  127.9437   69.1889 H   0  0  0  0  0  0  0  0  0  0  0  0
  131.5592  128.8651   71.4498 H   0  0  0  0  0  0  0  0  0  0  0  0
  1  2  1  0
  2  3  1  0
  3  4  2  0
  3  5  1  0
  5  6  2  0
  6  7  1  0
  7  8  2  0
  8  9  1  0
  9 10  1  0
 10 11  2  0
 10 12  1  0
 12 13  1  0
 13 14  1  0
 14 15  2  0
 15 16  1  0
 16 17  1  0
 16 18  2  0
 18 19  1  0
 19 20  1  0
 20 21  1  0
 20 22  1  0
 20 23  1  0
 19 24  2  0
 24 25  1  0
 25 26  3  0
  8 27  1  0
 27 28  2  0
 28  5  1  0
 24 14  1  0
  1 29  1  0
  1 30  1  0
  1 31  1  0
  6 32  1  0
  7 33  1  0
  9 34  1  0
 12 35  1  0
 12 36  1  0
 17 37  1  0
 17 38  1  0
 17 39  1  0
 18 40  1  0
 27 41  1  0
 28 42  1  0
M  END
>  <Binding energies>  (1) 
[-7.56]

>  <Ligand effiencies>  (1) 
[-0.26068965517241377]

>  <Interactions>  (1) 
["V-A:ASP:366:CG:3213, V-A:ASP:366:CB:3212, V-B:PRO:540:N:9856, V-B:PRO:540:CA:9855, V-B:TYR:539:CE2:9848, V-B:TYR:539:C:9839, V-B:PRO:540:C:9853, V-B:TYR:539:CD2:9846, V-A:ILE:369:CD1:3239, V-B:GLU:543:CG:9879, V-A:ILE:369:CB:3236, V-A:ILE:369:CG2:3237, V-A:LEU:475:CD2:4259, V-B:GLU:543:CB:9878, H-A:TYR:484:OH:4348, V-A:GLU:543:CD:4908, H-A:ARG:545:NE:4924, V-A:GLY:454:CA:4049, V-B:HIS:456:CE1:9041, V-A:GLY:544:CA:4914, V-A:GLY:544:C:4912, H-A:LYS:547:NZ:4951, V-B:HIS:456:CD2:9039, V-A:HIS:456:CE1:4070, V-A:GLU:543:C:4902, V-A:GLU:543:CB:4906, H-B:LYS:547:NZ:9923, H-A:GLU:543:OE1:4909, H-A:GLU:543:OE2:4910, H-A:ARG:545:NH2:4928, V-B:GLU:543:CA:9876, H-A:GLY:454:N:4050, V-A:LYS:547:CE:4950"]

$$$$
2c_Ghoteimi_2023
     RDKit          3D

 72 77  0  0  0  0  0  0  0  0999 V2000
  126.4330  130.3970   58.6740 N   0  0  0  0  0  0  0  0  0  0  0  0
  126.6970  130.0610   59.7490 C   0  0  0  0  0  0  0  0  0  0  0  0
  127.0330  129.6280   61.1090 C   0  0  0  0  0  0  0  0  0  0  0  0
  127.1620  128.2510   61.4170 C   0  0  0  0  0  0  0  0  0  0  0  0
  126.9710  127.1540   60.4210 C   0  0  0  0  0  0  0  0  0  0  0  0
  126.4260  125.9320   60.8180 C   0  0  0  0  0  0  0  0  0  0  0  0
  126.2400  124.9060   59.8940 C   0  0  0  0  0  0  0  0  0  0  0  0
  126.6090  125.0700   58.5500 C   0  0  0  0  0  0  0  0  0  0  0  0
  126.4140  124.0620   57.6020 N   0  0  0  0  0  0  0  0  0  0  0  0
  127.5620  123.2350   57.1800 C   0  0  0  0  0  0  0  0  0  0  0  0
  127.2990  122.4470   55.8790 C   0  0  0  0  0  0  0  0  0  0  0  0
  126.1290  121.6550   56.0180 O   0  0  0  0  0  0  0  0  0  0  0  0
  124.9850  122.4520   56.2850 C   0  0  0  0  0  0  0  0  0  0  0  0
  125.1870  123.2420   57.5950 C   0  0  0  0  0  0  0  0  0  0  0  0
  127.1600  126.3000   58.1620 C   0  0  0  0  0  0  0  0  0  0  0  0
  127.3430  127.3250   59.0850 C   0  0  0  0  0  0  0  0  0  0  0  0
  127.4870  127.8890   62.7310 C   0  0  0  0  0  0  0  0  0  0  0  0
  127.7040  128.8700   63.7030 C   0  0  0  0  0  0  0  0  0  0  0  0
  128.0700  128.5370   65.1130 C   0  0  0  0  0  0  0  0  0  0  0  0
  128.7510  127.3520   65.4130 C   0  0  0  0  0  0  0  0  0  0  0  0
  129.1000  127.0380   66.7250 C   0  0  0  0  0  0  0  0  0  0  0  0
  128.7690  127.8940   67.7880 C   0  0  0  0  0  0  0  0  0  0  0  0
  129.1340  127.6060   69.1070 N   0  0  0  0  0  0  0  0  0  0  0  0
  130.2320  128.3580   69.7480 C   0  0  0  0  0  0  0  0  0  0  0  0
  130.7740  127.6910   71.0300 C   0  0  0  0  0  0  0  0  0  0  0  0
  129.7160  127.4670   71.9450 O   0  0  0  0  0  0  0  0  0  0  0  0
  128.7280  126.6090   71.3970 C   0  0  0  0  0  0  0  0  0  0  0  0
  128.1260  127.2390   70.1230 C   0  0  0  0  0  0  0  0  0  0  0  0
  128.0980  129.0860   67.4800 C   0  0  0  0  0  0  0  0  0  0  0  0
  127.7520  129.4000   66.1690 C   0  0  0  0  0  0  0  0  0  0  0  0
  127.5830  130.1890   63.4040 N   0  0  0  0  0  0  0  0  0  0  0  0
  127.2380  130.5630   62.1490 C   0  0  0  0  0  0  0  0  0  0  0  0
  127.1130  132.3250   61.9400 S   0  0  0  0  0  0  0  0  0  0  0  0
  128.7470  133.0350   62.3030 C   0  0  0  0  0  0  0  0  0  0  0  0
  129.7570  132.7500   61.1890 C   0  0  0  0  0  0  0  0  0  0  0  0
  130.9190  132.4700   61.4850 O   0  0  0  0  0  0  0  0  0  0  0  0
  129.2750  132.8360   59.9310 N   0  0  0  0  0  0  0  0  0  0  0  0
  129.9780  132.6090   58.7560 C   0  0  0  0  0  0  0  0  0  0  0  0
  129.9090  133.2850   57.6310 N   0  0  0  0  0  0  0  0  0  0  0  0
  130.7250  132.7940   56.7190 C   0  0  0  0  0  0  0  0  0  0  0  0
  131.4810  131.6890   57.1010 C   0  0  0  0  0  0  0  0  0  0  0  0
  131.0940  131.2810   58.7460 S   0  0  0  0  0  0  0  0  0  0  0  0
  126.1409  125.7777   61.8692 H   0  0  0  0  0  0  0  0  0  0  0  0
  125.7977  123.9540   60.2226 H   0  0  0  0  0  0  0  0  0  0  0  0
  128.4278  123.8944   57.0202 H   0  0  0  0  0  0  0  0  0  0  0  0
  127.7444  122.4987   57.9766 H   0  0  0  0  0  0  0  0  0  0  0  0
  127.1638  123.1533   55.0466 H   0  0  0  0  0  0  0  0  0  0  0  0
  128.1573  121.7898   55.6757 H   0  0  0  0  0  0  0  0  0  0  0  0
  124.8300  123.1567   55.4547 H   0  0  0  0  0  0  0  0  0  0  0  0
  124.1059  121.7990   56.3887 H   0  0  0  0  0  0  0  0  0  0  0  0
  124.3225  123.9070   57.7379 H   0  0  0  0  0  0  0  0  0  0  0  0
  125.2840  122.5057   58.4064 H   0  0  0  0  0  0  0  0  0  0  0  0
  127.4517  126.4566   57.1130 H   0  0  0  0  0  0  0  0  0  0  0  0
  127.7845  128.2786   58.7600 H   0  0  0  0  0  0  0  0  0  0  0  0
  127.5720  126.8257   62.9996 H   0  0  0  0  0  0  0  0  0  0  0  0
  129.0147  126.6581   64.6012 H   0  0  0  0  0  0  0  0  0  0  0  0
  129.6437  126.1043   66.9315 H   0  0  0  0  0  0  0  0  0  0  0  0
  131.0582  128.4483   69.0274 H   0  0  0  0  0  0  0  0  0  0  0  0
  129.8234  129.3360   70.0422 H   0  0  0  0  0  0  0  0  0  0  0  0
  131.2409  126.7293   70.7707 H   0  0  0  0  0  0  0  0  0  0  0  0
  131.5184  128.3543   71.4947 H   0  0  0  0  0  0  0  0  0  0  0  0
  129.1864  125.6419   71.1429 H   0  0  0  0  0  0  0  0  0  0  0  0
  127.9285  126.4611   72.1379 H   0  0  0  0  0  0  0  0  0  0  0  0
  127.4286  126.5161   69.6746 H   0  0  0  0  0  0  0  0  0  0  0  0
  127.6267  128.1697   70.4304 H   0  0  0  0  0  0  0  0  0  0  0  0
  127.8405  129.7855   68.2890 H   0  0  0  0  0  0  0  0  0  0  0  0
  127.2208  130.3401   65.9592 H   0  0  0  0  0  0  0  0  0  0  0  0
  128.6433  134.1240   62.4181 H   0  0  0  0  0  0  0  0  0  0  0  0
  129.1211  132.5707   63.2274 H   0  0  0  0  0  0  0  0  0  0  0  0
  128.2970  133.0640   59.8190 H   0  0  0  0  0  0  0  0  0  0  0  0
  130.8040  133.2326   55.7133 H   0  0  0  0  0  0  0  0  0  0  0  0
  132.2058  131.1598   56.4649 H   0  0  0  0  0  0  0  0  0  0  0  0
  1  2  3  0
  2  3  1  0
  3  4  2  0
  4  5  1  0
  5  6  2  0
  6  7  1  0
  7  8  2  0
  8  9  1  0
  9 10  1  0
 10 11  1  0
 11 12  1  0
 12 13  1  0
 13 14  1  0
  8 15  1  0
 15 16  2  0
  4 17  1  0
 17 18  2  0
 18 19  1  0
 19 20  2  0
 20 21  1  0
 21 22  2  0
 22 23  1  0
 23 24  1  0
 24 25  1  0
 25 26  1  0
 26 27  1  0
 27 28  1  0
 22 29  1  0
 29 30  2  0
 18 31  1  0
 31 32  2  0
 32 33  1  0
 33 34  1  0
 34 35  1  0
 35 36  2  0
 35 37  1  0
 37 38  1  0
 38 39  2  0
 39 40  1  0
 40 41  2  0
 41 42  1  0
 32  3  1  0
 42 38  1  0
 16  5  1  0
 30 19  1  0
 14  9  1  0
 28 23  1  0
  6 43  1  0
  7 44  1  0
 10 45  1  0
 10 46  1  0
 11 47  1  0
 11 48  1  0
 13 49  1  0
 13 50  1  0
 14 51  1  0
 14 52  1  0
 15 53  1  0
 16 54  1  0
 17 55  1  0
 20 56  1  0
 21 57  1  0
 24 58  1  0
 24 59  1  0
 25 60  1  0
 25 61  1  0
 27 62  1  0
 27 63  1  0
 28 64  1  0
 28 65  1  0
 29 66  1  0
 30 67  1  0
 34 68  1  0
 34 69  1  0
 37 70  1  0
 40 71  1  0
 41 72  1  0
M  END
>  <Binding energies>  (1) 
[-10.99]

>  <Ligand effiencies>  (1) 
[-0.2555813953488372]

>  <Interactions>  (1) 
["V-A:LEU:363:CD1:3189, V-A:PRO:540:CA:4883, V-A:PRO:540:CB:4885, V-A:PRO:540:N:4884, V-A:TYR:539:C:4867, H-A:TYR:539:N:4870, V-B:TYR:539:CZ:9849, V-B:PRO:540:N:9856, V-B:TYR:539:CE1:9847, V-B:PRO:540:CB:9857, V-B:TYR:539:CD1:9845, V-B:PRO:540:CA:9855, V-B:TYR:539:CE2:9848, H-B:TYR:539:N:9842, V-B:PRO:540:CD:9859, V-B:ASP:366:CG:8184, V-B:MET:535:CE:9807, V-B:LEU:363:CD1:8160, V-B:PRO:540:CG:9858, V-B:TYR:539:CG:9844, V-B:GLU:543:CG:9879, V-B:GLU:543:CB:9878, V-A:GLU:543:CD:4908, V-B:GLU:543:CD:9880, V-B:HIS:456:CE1:9041, V-A:GLY:544:C:4912, V-A:HIS:456:CE1:4070, V-A:GLU:543:CG:4907, V-A:GLU:543:C:4902, V-A:GLU:543:CB:4906, V-B:TYR:484:CZ:9318, V-A:GLU:543:CA:4904, V-A:ALA:541:CB:4892, V-A:HIS:456:CD2:4068, V-A:PRO:540:C:4881, H-A:ALA:541:N:4891, V-B:ILE:538:CG2:9835, V-A:ILE:538:CA:4860, V-A:ILE:538:CB:4862, V-B:ILE:538:CA:9832, H-A:TYR:539:O:4868"]

$$$$
2c_Grossjean_2025
     RDKit          3D

 40 41  0  0  0  0  0  0  0  0999 V2000
  125.1010  122.0310   55.9730 C   0  0  0  0  0  0  0  0  0  0  0  0
  126.4390  122.0160   56.4610 O   0  0  0  0  0  0  0  0  0  0  0  0
  126.7530  122.7430   57.5930 C   0  0  0  0  0  0  0  0  0  0  0  0
  125.7220  123.4960   58.1530 C   0  0  0  0  0  0  0  0  0  0  0  0
  125.9410  124.2630   59.2950 C   0  0  0  0  0  0  0  0  0  0  0  0
  127.2130  124.2910   59.8850 C   0  0  0  0  0  0  0  0  0  0  0  0
  127.5260  125.0200   61.0470 N   0  0  0  0  0  0  0  0  0  0  0  0
  128.4770  125.9620   61.2210 C   0  0  0  0  0  0  0  0  0  0  0  0
  129.2900  126.3040   60.3600 O   0  0  0  0  0  0  0  0  0  0  0  0
  128.5220  126.5860   62.6240 C   0  0  0  0  0  0  0  0  0  0  0  0
  129.4590  125.6400   63.8750 S   0  0  0  0  0  0  0  0  0  0  0  0
  130.4490  124.3940   63.0590 C   0  0  0  0  0  0  0  0  0  0  0  0
  131.7770  124.6630   62.9730 N   0  0  0  0  0  0  0  0  0  0  0  0
  132.5860  123.7700   62.3610 C   0  0  0  0  0  0  0  0  0  0  0  0
  134.0520  124.1510   62.2900 C   0  0  0  0  0  0  0  0  0  0  0  0
  132.1130  122.5760   61.8200 C   0  0  0  0  0  0  0  0  0  0  0  0
  130.7470  122.2740   61.9050 C   0  0  0  0  0  0  0  0  0  0  0  0
  130.2400  120.9480   61.3040 C   0  0  0  0  0  0  0  0  0  0  0  0
  129.2620  121.1880   60.4300 F   0  0  0  0  0  0  0  0  0  0  0  0
  131.2360  120.3180   60.6790 F   0  0  0  0  0  0  0  0  0  0  0  0
  129.7560  120.1150   62.2290 F   0  0  0  0  0  0  0  0  0  0  0  0
  129.8860  123.2040   62.5400 C   0  0  0  0  0  0  0  0  0  0  0  0
  128.4470  122.9410   62.6550 C   0  0  0  0  0  0  0  0  0  0  0  0
  127.3130  122.7330   62.7460 N   0  0  0  0  0  0  0  0  0  0  0  0
  128.2440  123.5260   59.3370 C   0  0  0  0  0  0  0  0  0  0  0  0
  128.0200  122.7600   58.1970 C   0  0  0  0  0  0  0  0  0  0  0  0
  124.4012  122.0388   56.8217 H   0  0  0  0  0  0  0  0  0  0  0  0
  124.9443  122.9310   55.3602 H   0  0  0  0  0  0  0  0  0  0  0  0
  124.9241  121.1348   55.3602 H   0  0  0  0  0  0  0  0  0  0  0  0
  124.7251  123.4843   57.6882 H   0  0  0  0  0  0  0  0  0  0  0  0
  125.1175  124.8458   59.7334 H   0  0  0  0  0  0  0  0  0  0  0  0
  127.0040  124.7500   61.8680 H   0  0  0  0  0  0  0  0  0  0  0  0
  128.9815  127.5817   62.5376 H   0  0  0  0  0  0  0  0  0  0  0  0
  127.4810  126.6078   62.9787 H   0  0  0  0  0  0  0  0  0  0  0  0
  134.4535  124.2553   63.3088 H   0  0  0  0  0  0  0  0  0  0  0  0
  134.6089  123.3678   61.7549 H   0  0  0  0  0  0  0  0  0  0  0  0
  134.1571  125.1063   61.7549 H   0  0  0  0  0  0  0  0  0  0  0  0
  132.8061  121.8762   61.3302 H   0  0  0  0  0  0  0  0  0  0  0  0
  129.2379  123.5287   59.8084 H   0  0  0  0  0  0  0  0  0  0  0  0
  128.8395  122.1652   57.7673 H   0  0  0  0  0  0  0  0  0  0  0  0
  1  2  1  0
  2  3  1  0
  3  4  2  0
  4  5  1  0
  5  6  2  0
  6  7  1  0
  7  8  1  0
  8  9  2  0
  8 10  1  0
 10 11  1  0
 11 12  1  0
 12 13  2  0
 13 14  1  0
 14 15  1  0
 14 16  2  0
 16 17  1  0
 17 18  1  0
 18 19  1  0
 18 20  1  0
 18 21  1  0
 17 22  2  0
 22 23  1  0
 23 24  3  0
  6 25  1  0
 25 26  2  0
 26  3  1  0
 22 12  1  0
  1 27  1  0
  1 28  1  0
  1 29  1  0
  4 30  1  0
  5 31  1  0
  7 32  1  0
 10 33  1  0
 10 34  1  0
 15 35  1  0
 15 36  1  0
 15 37  1  0
 16 38  1  0
 25 39  1  0
 26 40  1  0
M  END
>  <Binding energies>  (1) 
[-6.01]

>  <Ligand effiencies>  (1) 
[-0.2225925925925926]

>  <Interactions>  (1) 
["V-B:TYR:539:CZ:9849, V-B:PRO:540:N:9856, V-B:PRO:540:CB:9857, V-B:PRO:540:CA:9855, V-B:TYR:539:CE2:9848, H-B:TYR:539:N:9842, V-B:PRO:540:CD:9859, V-B:MET:535:CE:9807, V-B:LEU:363:CD1:8160, V-B:PRO:540:CG:9858, V-B:TYR:539:C:9839, V-B:TYR:539:CG:9844, H-B:GLU:543:OE1:9881, V-B:PRO:540:C:9853, H-B:ALA:541:N:9863, V-B:TYR:539:CD2:9846, V-B:ALA:541:CB:9864, V-A:ILE:369:CD1:3239, V-B:GLU:543:CG:9879, V-A:LEU:475:CD2:4259, V-B:GLU:543:CD:9880, V-B:ALA:541:CA:9862, V-B:ILE:538:CG2:9835, V-B:ILE:538:CA:9832, V-A:LEU:475:CG:4257, V-A:LEU:475:CD1:4258, V-B:ILE:538:CB:9834"]

$$$$
2d_Ghoteimi_2023
     RDKit          3D

 68 72  0  0  0  0  0  0  0  0999 V2000
  132.4180  131.4110   62.2490 C   0  0  0  0  0  0  0  0  0  0  0  0
  131.1960  132.1320   62.2520 O   0  0  0  0  0  0  0  0  0  0  0  0
  130.3240  132.0080   61.2300 C   0  0  0  0  0  0  0  0  0  0  0  0
  130.4470  131.2380   60.2730 O   0  0  0  0  0  0  0  0  0  0  0  0
  129.1260  132.9540   61.4010 C   0  0  0  0  0  0  0  0  0  0  0  0
  127.5500  132.0890   61.0830 S   0  0  0  0  0  0  0  0  0  0  0  0
  127.6190  130.4940   61.8720 C   0  0  0  0  0  0  0  0  0  0  0  0
  127.4220  129.4630   61.0130 N   0  0  0  0  0  0  0  0  0  0  0  0
  127.4400  128.1890   61.4790 C   0  0  0  0  0  0  0  0  0  0  0  0
  127.1980  127.1070   60.4770 C   0  0  0  0  0  0  0  0  0  0  0  0
  126.8930  125.8060   60.8930 C   0  0  0  0  0  0  0  0  0  0  0  0
  126.6660  124.7930   59.9650 C   0  0  0  0  0  0  0  0  0  0  0  0
  126.7250  125.0470   58.5860 C   0  0  0  0  0  0  0  0  0  0  0  0
  126.5180  124.0370   57.6400 N   0  0  0  0  0  0  0  0  0  0  0  0
  127.6250  123.1850   57.1650 C   0  0  0  0  0  0  0  0  0  0  0  0
  127.2930  122.4000   55.8790 C   0  0  0  0  0  0  0  0  0  0  0  0
  126.1140  121.6340   56.0700 O   0  0  0  0  0  0  0  0  0  0  0  0
  125.0010  122.4580   56.3750 C   0  0  0  0  0  0  0  0  0  0  0  0
  125.2670  123.2510   57.6720 C   0  0  0  0  0  0  0  0  0  0  0  0
  127.0440  126.3490   58.1740 C   0  0  0  0  0  0  0  0  0  0  0  0
  127.2740  127.3610   59.1020 C   0  0  0  0  0  0  0  0  0  0  0  0
  127.6640  127.9190   62.8320 C   0  0  0  0  0  0  0  0  0  0  0  0
  127.9040  128.9630   63.7340 C   0  0  0  0  0  0  0  0  0  0  0  0
  128.1630  128.5980   65.1590 C   0  0  0  0  0  0  0  0  0  0  0  0
  128.8100  127.4010   65.4700 C   0  0  0  0  0  0  0  0  0  0  0  0
  129.0670  127.0570   66.7940 C   0  0  0  0  0  0  0  0  0  0  0  0
  128.6810  127.9030   67.8470 C   0  0  0  0  0  0  0  0  0  0  0  0
  128.9400  127.5840   69.1830 N   0  0  0  0  0  0  0  0  0  0  0  0
  127.8610  127.1600   70.0960 C   0  0  0  0  0  0  0  0  0  0  0  0
  128.3770  126.5140   71.4000 C   0  0  0  0  0  0  0  0  0  0  0  0
  129.2790  127.3930   72.0540 O   0  0  0  0  0  0  0  0  0  0  0  0
  130.4000  127.6960   71.2380 C   0  0  0  0  0  0  0  0  0  0  0  0
  129.9360  128.3750   69.9320 C   0  0  0  0  0  0  0  0  0  0  0  0
  128.0480  129.1110   67.5240 C   0  0  0  0  0  0  0  0  0  0  0  0
  127.7910  129.4540   66.1990 C   0  0  0  0  0  0  0  0  0  0  0  0
  127.8880  130.2940   63.2460 C   0  0  0  0  0  0  0  0  0  0  0  0
  128.1520  131.4190   64.1470 C   0  0  0  0  0  0  0  0  0  0  0  0
  128.3610  132.3050   64.8620 N   0  0  0  0  0  0  0  0  0  0  0  0
  132.7357  131.2236   63.2853 H   0  0  0  0  0  0  0  0  0  0  0  0
  132.2765  130.4517   61.7297 H   0  0  0  0  0  0  0  0  0  0  0  0
  133.1893  131.9988   61.7297 H   0  0  0  0  0  0  0  0  0  0  0  0
  129.1203  133.3432   62.4298 H   0  0  0  0  0  0  0  0  0  0  0  0
  129.2247  133.7752   60.6758 H   0  0  0  0  0  0  0  0  0  0  0  0
  126.8318  125.5806   61.9679 H   0  0  0  0  0  0  0  0  0  0  0  0
  126.4367  123.7769   60.3186 H   0  0  0  0  0  0  0  0  0  0  0  0
  128.4963  123.8262   56.9657 H   0  0  0  0  0  0  0  0  0  0  0  0
  127.8223  122.4436   57.9533 H   0  0  0  0  0  0  0  0  0  0  0  0
  127.1383  123.1067   55.0503 H   0  0  0  0  0  0  0  0  0  0  0  0
  128.1284  121.7248   55.6418 H   0  0  0  0  0  0  0  0  0  0  0  0
  124.8316  123.1617   55.5467 H   0  0  0  0  0  0  0  0  0  0  0  0
  124.1126  121.8249   56.5162 H   0  0  0  0  0  0  0  0  0  0  0  0
  124.4267  123.9417   57.8356 H   0  0  0  0  0  0  0  0  0  0  0  0
  125.3692  122.5158   58.4838 H   0  0  0  0  0  0  0  0  0  0  0  0
  127.1137  126.5744   57.0996 H   0  0  0  0  0  0  0  0  0  0  0  0
  127.5188  128.3741   58.7503 H   0  0  0  0  0  0  0  0  0  0  0  0
  127.6517  126.8792   63.1908 H   0  0  0  0  0  0  0  0  0  0  0  0
  129.1198  126.7230   64.6610 H   0  0  0  0  0  0  0  0  0  0  0  0
  129.5793  126.1099   67.0189 H   0  0  0  0  0  0  0  0  0  0  0  0
  127.2600  128.0430   70.3588 H   0  0  0  0  0  0  0  0  0  0  0  0
  127.2710  126.3965   69.5677 H   0  0  0  0  0  0  0  0  0  0  0  0
  127.5257  126.3052   72.0646 H   0  0  0  0  0  0  0  0  0  0  0  0
  128.8991  125.5770   71.1564 H   0  0  0  0  0  0  0  0  0  0  0  0
  131.0733  128.3749   71.7819 H   0  0  0  0  0  0  0  0  0  0  0  0
  130.9288  126.7635   70.9913 H   0  0  0  0  0  0  0  0  0  0  0  0
  129.4902  129.3485   70.1842 H   0  0  0  0  0  0  0  0  0  0  0  0
  130.8210  128.4782   69.2869 H   0  0  0  0  0  0  0  0  0  0  0  0
  127.7497  129.7985   68.3292 H   0  0  0  0  0  0  0  0  0  0  0  0
  127.2911  130.4065   65.9692 H   0  0  0  0  0  0  0  0  0  0  0  0
  1  2  1  0
  2  3  1  0
  3  4  2  0
  3  5  1  0
  5  6  1  0
  6  7  1  0
  7  8  2  0
  8  9  1  0
  9 10  1  0
 10 11  2  0
 11 12  1  0
 12 13  2  0
 13 14  1  0
 14 15  1  0
 15 16  1  0
 16 17  1  0
 17 18  1  0
 18 19  1  0
 13 20  1  0
 20 21  2  0
  9 22  2  0
 22 23  1  0
 23 24  1  0
 24 25  2  0
 25 26  1  0
 26 27  2  0
 27 28  1  0
 28 29  1  0
 29 30  1  0
 30 31  1  0
 31 32  1  0
 32 33  1  0
 27 34  1  0
 34 35  2  0
 23 36  2  0
 36 37  1  0
 37 38  3  0
 36  7  1  0
 21 10  1  0
 35 24  1  0
 19 14  1  0
 33 28  1  0
  1 39  1  0
  1 40  1  0
  1 41  1  0
  5 42  1  0
  5 43  1  0
 11 44  1  0
 12 45  1  0
 15 46  1  0
 15 47  1  0
 16 48  1  0
 16 49  1  0
 18 50  1  0
 18 51  1  0
 19 52  1  0
 19 53  1  0
 20 54  1  0
 21 55  1  0
 22 56  1  0
 25 57  1  0
 26 58  1  0
 29 59  1  0
 29 60  1  0
 30 61  1  0
 30 62  1  0
 32 63  1  0
 32 64  1  0
 33 65  1  0
 33 66  1  0
 34 67  1  0
 35 68  1  0
M  END
>  <Binding energies>  (1) 
[-10.07]

>  <Ligand effiencies>  (1) 
[-0.265]

>  <Interactions>  (1) 
["V-A:PRO:540:CA:4883, V-B:TYR:539:CZ:9849, V-B:PRO:540:N:9856, V-B:TYR:539:CE1:9847, V-B:PRO:540:CB:9857, V-B:TYR:539:CD1:9845, V-B:PRO:540:CA:9855, V-B:TYR:539:CE2:9848, H-B:TYR:539:N:9842, V-B:PRO:540:CD:9859, V-B:MET:535:CE:9807, V-B:LEU:363:CD1:8160, V-B:PRO:540:CG:9858, V-B:TYR:539:CG:9844, V-B:TYR:539:CD2:9846, V-B:GLU:543:CG:9879, V-B:GLU:543:CB:9878, V-A:GLU:543:CD:4908, V-B:GLU:543:CD:9880, V-B:HIS:456:CE1:9041, V-A:GLY:544:C:4912, V-B:GLU:543:C:9874, V-A:HIS:456:CE1:4070, V-A:GLU:543:CG:4907, V-A:GLU:543:C:4902, V-A:GLU:543:CB:4906, V-B:TYR:484:CZ:9318, H-B:TYR:484:OH:9319, V-A:PRO:540:C:4881, H-A:ALA:541:N:4891, V-B:ILE:538:CG2:9835, V-B:ILE:538:CA:9832"]

$$$$
2d_Grossjean_2025
     RDKit          3D

 36 37  0  0  0  0  0  0  0  0999 V2000
  129.1940  122.4980   61.2490 C   0  0  0  0  0  0  0  0  0  0  0  0
  129.0150  123.2170   59.9250 C   0  0  0  0  0  0  0  0  0  0  0  0
  128.1640  122.7270   58.9380 C   0  0  0  0  0  0  0  0  0  0  0  0
  128.0290  123.4300   57.7320 C   0  0  0  0  0  0  0  0  0  0  0  0
  127.0740  122.8780   56.6560 C   0  0  0  0  0  0  0  0  0  0  0  0
  126.6300  121.6730   57.0150 F   0  0  0  0  0  0  0  0  0  0  0  0
  126.0310  123.6960   56.5060 F   0  0  0  0  0  0  0  0  0  0  0  0
  127.6580  122.7510   55.4630 F   0  0  0  0  0  0  0  0  0  0  0  0
  128.7760  124.6230   57.5550 C   0  0  0  0  0  0  0  0  0  0  0  0
  128.6350  125.4180   56.3330 C   0  0  0  0  0  0  0  0  0  0  0  0
  128.5220  126.0470   55.3680 N   0  0  0  0  0  0  0  0  0  0  0  0
  129.6350  125.0310   58.6030 C   0  0  0  0  0  0  0  0  0  0  0  0
  130.6670  126.4830   58.5350 S   0  0  0  0  0  0  0  0  0  0  0  0
  132.2370  126.0480   57.7180 C   0  0  0  0  0  0  0  0  0  0  0  0
  132.9500  124.8650   58.3800 C   0  0  0  0  0  0  0  0  0  0  0  0
  133.8090  124.2530   57.7450 O   0  0  0  0  0  0  0  0  0  0  0  0
  132.5430  124.5650   59.6310 N   0  0  0  0  0  0  0  0  0  0  0  0
  132.9990  123.5510   60.4950 C   0  0  0  0  0  0  0  0  0  0  0  0
  133.6510  123.9810   61.6530 C   0  0  0  0  0  0  0  0  0  0  0  0
  134.1440  123.0530   62.5660 C   0  0  0  0  0  0  0  0  0  0  0  0
  133.9920  121.6910   62.3160 C   0  0  0  0  0  0  0  0  0  0  0  0
  133.3560  121.2510   61.1580 C   0  0  0  0  0  0  0  0  0  0  0  0
  132.8610  122.1760   60.2440 C   0  0  0  0  0  0  0  0  0  0  0  0
  129.7370  124.3500   59.7700 N   0  0  0  0  0  0  0  0  0  0  0  0
  129.0186  123.2024   62.0754 H   0  0  0  0  0  0  0  0  0  0  0  0
  128.4750  121.6682   61.3157 H   0  0  0  0  0  0  0  0  0  0  0  0
  130.2181  122.1021   61.3157 H   0  0  0  0  0  0  0  0  0  0  0  0
  127.6020  121.7959   59.1028 H   0  0  0  0  0  0  0  0  0  0  0  0
  132.0263  125.7881   56.6701 H   0  0  0  0  0  0  0  0  0  0  0  0
  132.9024  126.9201   57.7997 H   0  0  0  0  0  0  0  0  0  0  0  0
  131.7640  125.0990   59.9890 H   0  0  0  0  0  0  0  0  0  0  0  0
  133.7754  125.0571   61.8442 H   0  0  0  0  0  0  0  0  0  0  0  0
  134.6513  123.3936   63.4807 H   0  0  0  0  0  0  0  0  0  0  0  0
  134.3775  120.9572   63.0392 H   0  0  0  0  0  0  0  0  0  0  0  0
  133.2451  120.1736   60.9661 H   0  0  0  0  0  0  0  0  0  0  0  0
  132.3624  121.8309   59.3262 H   0  0  0  0  0  0  0  0  0  0  0  0
  1  2  1  0
  2  3  2  0
  3  4  1  0
  4  5  1  0
  5  6  1  0
  5  7  1  0
  5  8  1  0
  4  9  2  0
  9 10  1  0
 10 11  3  0
  9 12  1  0
 12 13  1  0
 13 14  1  0
 14 15  1  0
 15 16  2  0
 15 17  1  0
 17 18  1  0
 18 19  2  0
 19 20  1  0
 20 21  2  0
 21 22  1  0
 22 23  2  0
 12 24  2  0
 24  2  1  0
 23 18  1  0
  1 25  1  0
  1 26  1  0
  1 27  1  0
  3 28  1  0
 14 29  1  0
 14 30  1  0
 17 31  1  0
 19 32  1  0
 20 33  1  0
 21 34  1  0
 22 35  1  0
 23 36  1  0
M  END
>  <Binding energies>  (1) 
[-6.28]

>  <Ligand effiencies>  (1) 
[-0.25120000000000003]

>  <Interactions>  (1) 
["H-A:TYR:531:OH:4795, H-B:TYR:539:OH:9850, V-A:ASP:366:CB:3212, V-B:TYR:539:CZ:9849, V-B:PRO:540:N:9856, V-B:TYR:539:CE1:9847, V-B:PRO:540:CB:9857, V-B:TYR:539:CD1:9845, V-B:PRO:540:CA:9855, V-B:TYR:539:CE2:9848, V-B:PRO:540:CD:9859, V-B:MET:535:CE:9807, V-B:PRO:540:CG:9858, V-B:TYR:539:C:9839, V-B:TYR:539:CG:9844, V-B:TYR:539:CD2:9846, V-A:ASP:366:CA:3210, V-A:ILE:369:CD1:3239, H-A:ASN:370:N:3244, V-A:ILE:369:CG2:3237, V-A:LEU:475:CD2:4259, V-A:GLY:454:CA:4049, V-A:TYR:531:CZ:4794, V-A:GLY:453:C:4042, V-B:TYR:539:CA:9841, V-B:ILE:538:C:9830, V-A:SER:385:CB:3409, V-A:SER:385:C:3405"]

$$$$
2e_Grossjean_2025
     RDKit          3D

 38 39  0  0  0  0  0  0  0  0999 V2000
  132.1050  120.1010   60.8120 C   0  0  0  0  0  0  0  0  0  0  0  0
  132.7680  121.4450   61.0500 C   0  0  0  0  0  0  0  0  0  0  0  0
  133.7580  121.6110   62.0220 C   0  0  0  0  0  0  0  0  0  0  0  0
  134.3310  122.8740   62.1760 C   0  0  0  0  0  0  0  0  0  0  0  0
  133.9060  123.9290   61.3660 C   0  0  0  0  0  0  0  0  0  0  0  0
  132.9030  123.6960   60.4180 C   0  0  0  0  0  0  0  0  0  0  0  0
  132.5440  124.7810   59.6000 N   0  0  0  0  0  0  0  0  0  0  0  0
  132.9330  125.0320   58.3310 C   0  0  0  0  0  0  0  0  0  0  0  0
  133.6330  124.2850   57.6450 O   0  0  0  0  0  0  0  0  0  0  0  0
  132.4880  126.3790   57.7520 C   0  0  0  0  0  0  0  0  0  0  0  0
  130.9620  126.9900   58.5360 S   0  0  0  0  0  0  0  0  0  0  0  0
  129.8680  125.5890   58.6010 C   0  0  0  0  0  0  0  0  0  0  0  0
  129.7770  124.9980   59.8180 N   0  0  0  0  0  0  0  0  0  0  0  0
  129.0010  123.8980   59.9460 C   0  0  0  0  0  0  0  0  0  0  0  0
  128.9440  123.2890   61.3330 C   0  0  0  0  0  0  0  0  0  0  0  0
  128.2980  123.3450   58.8770 C   0  0  0  0  0  0  0  0  0  0  0  0
  128.3880  123.9390   57.6090 C   0  0  0  0  0  0  0  0  0  0  0  0
  127.6220  123.3040   56.4340 C   0  0  0  0  0  0  0  0  0  0  0  0
  127.4910  121.9910   56.6280 F   0  0  0  0  0  0  0  0  0  0  0  0
  126.4100  123.8490   56.3320 F   0  0  0  0  0  0  0  0  0  0  0  0
  128.2400  123.4760   55.2630 F   0  0  0  0  0  0  0  0  0  0  0  0
  129.1930  125.0960   57.4600 C   0  0  0  0  0  0  0  0  0  0  0  0
  129.3530  125.7450   56.1560 C   0  0  0  0  0  0  0  0  0  0  0  0
  129.4790  126.2570   55.1250 N   0  0  0  0  0  0  0  0  0  0  0  0
  132.3430  122.4610   60.2550 N   0  0  0  0  0  0  0  0  0  0  0  0
  131.8728  119.6304   61.7787 H   0  0  0  0  0  0  0  0  0  0  0  0
  131.1753  120.2465   60.2424 H   0  0  0  0  0  0  0  0  0  0  0  0
  132.7862  119.4518   60.2424 H   0  0  0  0  0  0  0  0  0  0  0  0
  134.0778  120.7667   62.6504 H   0  0  0  0  0  0  0  0  0  0  0  0
  135.1135  123.0377   62.9316 H   0  0  0  0  0  0  0  0  0  0  0  0
  134.3529  124.9286   61.4714 H   0  0  0  0  0  0  0  0  0  0  0  0
  131.8830  125.4240   60.0110 H   0  0  0  0  0  0  0  0  0  0  0  0
  133.2888  127.1160   57.9120 H   0  0  0  0  0  0  0  0  0  0  0  0
  132.2852  126.2370   56.6802 H   0  0  0  0  0  0  0  0  0  0  0  0
  129.0186  124.0865   62.0870 H   0  0  0  0  0  0  0  0  0  0  0  0
  127.9918  122.7530   61.4593 H   0  0  0  0  0  0  0  0  0  0  0  0
  129.7802  122.5856   61.4593 H   0  0  0  0  0  0  0  0  0  0  0  0
  127.6771  122.4493   59.0263 H   0  0  0  0  0  0  0  0  0  0  0  0
  1  2  1  0
  2  3  2  0
  3  4  1  0
  4  5  2  0
  5  6  1  0
  6  7  1  0
  7  8  1  0
  8  9  2  0
  8 10  1  0
 10 11  1  0
 11 12  1  0
 12 13  2  0
 13 14  1  0
 14 15  1  0
 14 16  2  0
 16 17  1  0
 17 18  1  0
 18 19  1  0
 18 20  1  0
 18 21  1  0
 17 22  2  0
 22 23  1  0
 23 24  3  0
  6 25  2  0
 25  2  1  0
 22 12  1  0
  1 26  1  0
  1 27  1  0
  1 28  1  0
  3 29  1  0
  4 30  1  0
  5 31  1  0
  7 32  1  0
 10 33  1  0
 10 34  1  0
 15 35  1  0
 15 36  1  0
 15 37  1  0
 16 38  1  0
M  END
>  <Binding energies>  (1) 
[-6.35]

>  <Ligand effiencies>  (1) 
[-0.24423076923076922]

>  <Interactions>  (1) 
["V-A:ASP:366:CG:3213, H-A:TYR:531:OH:4795, H-B:TYR:539:OH:9850, V-A:ASP:366:CB:3212, V-B:TYR:539:CZ:9849, V-B:PRO:540:N:9856, V-B:TYR:539:CE1:9847, V-B:TYR:539:CD1:9845, V-B:TYR:539:CE2:9848, V-B:PRO:540:CD:9859, V-B:MET:535:CE:9807, V-B:TYR:539:C:9839, V-B:TYR:539:CG:9844, V-B:TYR:539:CD2:9846, V-A:ASP:366:C:3208, V-A:ASP:366:CA:3210, V-A:ILE:369:CD1:3239, V-A:ILE:369:CG2:3237, V-A:LEU:475:CD2:4259, V-A:GLY:454:CA:4049, V-A:TYR:531:CZ:4794, V-B:TYR:539:CA:9841, V-B:TYR:539:CB:9843, V-B:ILE:538:C:9830, V-A:SER:385:CB:3409"]

$$$$
2f_Grossjean_2025
     RDKit          3D

 35 36  0  0  0  0  0  0  0  0999 V2000
  129.3090  122.4840   61.1580 C   0  0  0  0  0  0  0  0  0  0  0  0
  129.0790  123.2100   59.8460 C   0  0  0  0  0  0  0  0  0  0  0  0
  128.1720  122.7390   58.8990 C   0  0  0  0  0  0  0  0  0  0  0  0
  128.0010  123.4420   57.6970 C   0  0  0  0  0  0  0  0  0  0  0  0
  127.0020  122.8980   56.6580 C   0  0  0  0  0  0  0  0  0  0  0  0
  125.9780  123.7430   56.5210 F   0  0  0  0  0  0  0  0  0  0  0  0
  127.6050  122.7560   55.4780 F   0  0  0  0  0  0  0  0  0  0  0  0
  126.4970  121.7100   56.9980 F   0  0  0  0  0  0  0  0  0  0  0  0
  128.7600  124.6230   57.4880 C   0  0  0  0  0  0  0  0  0  0  0  0
  128.6590  125.3600   56.2260 C   0  0  0  0  0  0  0  0  0  0  0  0
  128.5780  125.9420   55.2290 N   0  0  0  0  0  0  0  0  0  0  0  0
  129.6380  125.0400   58.5160 C   0  0  0  0  0  0  0  0  0  0  0  0
  130.6560  126.5000   58.4290 S   0  0  0  0  0  0  0  0  0  0  0  0
  132.2550  126.0310   57.6840 C   0  0  0  0  0  0  0  0  0  0  0  0
  132.9950  124.8890   58.3960 C   0  0  0  0  0  0  0  0  0  0  0  0
  133.8840  124.2610   57.8190 O   0  0  0  0  0  0  0  0  0  0  0  0
  132.5730  124.6480   59.6560 N   0  0  0  0  0  0  0  0  0  0  0  0
  133.0310  123.6960   60.5860 C   0  0  0  0  0  0  0  0  0  0  0  0
  133.0370  122.3020   60.3920 C   0  0  0  0  0  0  0  0  0  0  0  0
  133.5250  121.4660   61.3980 C   0  0  0  0  0  0  0  0  0  0  0  0
  134.0010  122.0450   62.5750 C   0  0  0  0  0  0  0  0  0  0  0  0
  134.0130  123.3860   62.7840 N   0  0  0  0  0  0  0  0  0  0  0  0
  133.5360  124.1850   61.7960 C   0  0  0  0  0  0  0  0  0  0  0  0
  129.8070  124.3350   59.6620 N   0  0  0  0  0  0  0  0  0  0  0  0
  129.0937  123.1636   61.9957 H   0  0  0  0  0  0  0  0  0  0  0  0
  128.6438  121.6097   61.2148 H   0  0  0  0  0  0  0  0  0  0  0  0
  130.3562  122.1522   61.2148 H   0  0  0  0  0  0  0  0  0  0  0  0
  127.5944  121.8230   59.0923 H   0  0  0  0  0  0  0  0  0  0  0  0
  132.0691  125.7212   56.6450 H   0  0  0  0  0  0  0  0  0  0  0  0
  132.9034  126.9156   57.7678 H   0  0  0  0  0  0  0  0  0  0  0  0
  131.7940  125.2030   59.9800 H   0  0  0  0  0  0  0  0  0  0  0  0
  132.6590  121.8732   59.4522 H   0  0  0  0  0  0  0  0  0  0  0  0
  133.5341  120.3740   61.2656 H   0  0  0  0  0  0  0  0  0  0  0  0
  134.3833  121.3857   63.3682 H   0  0  0  0  0  0  0  0  0  0  0  0
  133.5469  125.2734   61.9546 H   0  0  0  0  0  0  0  0  0  0  0  0
  1  2  1  0
  2  3  2  0
  3  4  1  0
  4  5  1  0
  5  6  1  0
  5  7  1  0
  5  8  1  0
  4  9  2  0
  9 10  1  0
 10 11  3  0
  9 12  1  0
 12 13  1  0
 13 14  1  0
 14 15  1  0
 15 16  2  0
 15 17  1  0
 17 18  1  0
 18 19  2  0
 19 20  1  0
 20 21  2  0
 21 22  1  0
 22 23  2  0
 12 24  2  0
 24  2  1  0
 23 18  1  0
  1 25  1  0
  1 26  1  0
  1 27  1  0
  3 28  1  0
 14 29  1  0
 14 30  1  0
 17 31  1  0
 19 32  1  0
 20 33  1  0
 21 34  1  0
 23 35  1  0
M  END
>  <Binding energies>  (1) 
[-6.14]

>  <Ligand effiencies>  (1) 
[-0.24559999999999998]

>  <Interactions>  (1) 
["V-A:ASP:366:CG:3213, H-A:TYR:531:OH:4795, H-B:TYR:539:OH:9850, V-A:ASP:366:CB:3212, V-B:TYR:539:CZ:9849, V-B:PRO:540:N:9856, V-B:TYR:539:CE1:9847, V-B:PRO:540:CB:9857, V-B:TYR:539:CD1:9845, V-B:PRO:540:CA:9855, V-B:TYR:539:CE2:9848, V-B:PRO:540:CD:9859, V-B:MET:535:CE:9807, V-B:PRO:540:CG:9858, V-B:TYR:539:C:9839, V-B:TYR:539:CG:9844, V-B:TYR:539:CD2:9846, V-A:ASP:366:CA:3210, V-A:ILE:369:CD1:3239, H-A:ASN:370:N:3244, V-A:ILE:369:CG2:3237, V-A:LEU:475:CD2:4259, V-A:GLY:454:CA:4049, V-A:TYR:531:CZ:4794, H-A:GLY:454:N:4050, V-B:TYR:539:CA:9841, V-B:ILE:538:C:9830, V-A:SER:385:CB:3409"]

$$$$
2g_Grossjean_2025
     RDKit          3D

 39 40  0  0  0  0  0  0  0  0999 V2000
  126.3760  128.6680   58.6880 C   0  0  0  0  0  0  0  0  0  0  0  0
  126.4980  127.2170   58.2640 C   0  0  0  0  0  0  0  0  0  0  0  0
  127.6710  126.7180   57.7020 C   0  0  0  0  0  0  0  0  0  0  0  0
  127.7330  125.3700   57.3190 C   0  0  0  0  0  0  0  0  0  0  0  0
  129.0360  124.8380   56.6910 C   0  0  0  0  0  0  0  0  0  0  0  0
  129.8100  124.2890   57.6280 F   0  0  0  0  0  0  0  0  0  0  0  0
  128.7500  123.9150   55.7710 F   0  0  0  0  0  0  0  0  0  0  0  0
  129.7500  125.7950   56.0940 F   0  0  0  0  0  0  0  0  0  0  0  0
  126.5920  124.5530   57.5260 C   0  0  0  0  0  0  0  0  0  0  0  0
  126.5840  123.1530   57.0910 C   0  0  0  0  0  0  0  0  0  0  0  0
  126.5780  122.0480   56.7480 N   0  0  0  0  0  0  0  0  0  0  0  0
  125.4540  125.1400   58.1310 C   0  0  0  0  0  0  0  0  0  0  0  0
  123.9510  124.2550   58.4860 S   0  0  0  0  0  0  0  0  0  0  0  0
  123.9390  123.8890   60.2740 C   0  0  0  0  0  0  0  0  0  0  0  0
  125.3270  123.8400   60.9280 C   0  0  0  0  0  0  0  0  0  0  0  0
  125.7150  122.8400   61.5350 O   0  0  0  0  0  0  0  0  0  0  0  0
  126.0680  124.9550   60.7940 N   0  0  0  0  0  0  0  0  0  0  0  0
  127.4210  125.1430   61.3210 C   0  0  0  0  0  0  0  0  0  0  0  0
  128.2300  123.8570   61.4520 C   0  0  0  0  0  0  0  0  0  0  0  0
  128.5510  123.1180   60.3100 C   0  0  0  0  0  0  0  0  0  0  0  0
  129.3220  121.9640   60.4220 C   0  0  0  0  0  0  0  0  0  0  0  0
  129.7770  121.5580   61.6740 C   0  0  0  0  0  0  0  0  0  0  0  0
  129.4710  122.2970   62.8150 C   0  0  0  0  0  0  0  0  0  0  0  0
  128.7010  123.4510   62.7030 C   0  0  0  0  0  0  0  0  0  0  0  0
  125.4050  126.4500   58.4740 N   0  0  0  0  0  0  0  0  0  0  0  0
  126.3708  128.7299   59.7862 H   0  0  0  0  0  0  0  0  0  0  0  0
  127.2293  129.2385   58.2926 H   0  0  0  0  0  0  0  0  0  0  0  0
  125.4394  129.0880   58.2926 H   0  0  0  0  0  0  0  0  0  0  0  0
  128.5413  127.3756   57.5598 H   0  0  0  0  0  0  0  0  0  0  0  0
  123.3494  124.6682   60.7793 H   0  0  0  0  0  0  0  0  0  0  0  0
  123.5088  122.8824   60.3822 H   0  0  0  0  0  0  0  0  0  0  0  0
  125.6890  125.7230   60.2610 H   0  0  0  0  0  0  0  0  0  0  0  0
  127.9619  125.8225   60.6459 H   0  0  0  0  0  0  0  0  0  0  0  0
  127.3087  125.5483   62.3374 H   0  0  0  0  0  0  0  0  0  0  0  0
  128.1947  123.4479   59.3230 H   0  0  0  0  0  0  0  0  0  0  0  0
  129.5704  121.3760   59.5261 H   0  0  0  0  0  0  0  0  0  0  0  0
  130.3839  120.6449   61.7631 H   0  0  0  0  0  0  0  0  0  0  0  0
  129.8363  121.9699   63.7997 H   0  0  0  0  0  0  0  0  0  0  0  0
  128.4634  124.0431   63.5991 H   0  0  0  0  0  0  0  0  0  0  0  0
  1  2  1  0
  2  3  2  0
  3  4  1  0
  4  5  1  0
  5  6  1  0
  5  7  1  0
  5  8  1  0
  4  9  2  0
  9 10  1  0
 10 11  3  0
  9 12  1  0
 12 13  1  0
 13 14  1  0
 14 15  1  0
 15 16  2  0
 15 17  1  0
 17 18  1  0
 18 19  1  0
 19 20  2  0
 20 21  1  0
 21 22  2  0
 22 23  1  0
 23 24  2  0
 12 25  2  0
 25  2  1  0
 24 19  1  0
  1 26  1  0
  1 27  1  0
  1 28  1  0
  3 29  1  0
 14 30  1  0
 14 31  1  0
 17 32  1  0
 18 33  1  0
 18 34  1  0
 20 35  1  0
 21 36  1  0
 22 37  1  0
 23 38  1  0
 24 39  1  0
M  END
>  <Binding energies>  (1) 
[-6.59]

>  <Ligand effiencies>  (1) 
[-0.25346153846153846]

>  <Interactions>  (1) 
["V-B:TYR:539:CZ:9849, V-B:PRO:540:N:9856, V-B:TYR:539:CE1:9847, V-B:PRO:540:CB:9857, V-B:TYR:539:CD1:9845, V-B:PRO:540:CA:9855, V-B:TYR:539:CE2:9848, H-B:TYR:539:N:9842, H-B:TYR:531:OH:9767, H-B:ASP:366:OD1:8185, V-B:ASP:366:CG:8184, V-B:TYR:539:C:9839, H-B:GLU:543:OE1:9881, H-B:ALA:541:N:9863, V-B:TYR:539:CD2:9846, V-B:LEU:363:CA:8156, V-B:ALA:541:CB:9864, V-B:GLU:543:CG:9879, V-A:LEU:475:CD2:4259, V-B:GLU:543:CD:9880, V-B:ASN:362:CB:8147, V-B:ASN:362:C:8143"]

$$$$
2h_Grossjean_2025
     RDKit          3D

 51 52  0  0  0  0  0  0  0  0999 V2000
  128.3320  133.2510   55.1750 C   0  0  0  0  0  0  0  0  0  0  0  0
  129.5340  133.5580   55.8720 O   0  0  0  0  0  0  0  0  0  0  0  0
  129.7950  132.9390   57.0810 C   0  0  0  0  0  0  0  0  0  0  0  0
  128.8310  132.7360   58.0810 C   0  0  0  0  0  0  0  0  0  0  0  0
  129.1660  132.0970   59.2720 C   0  0  0  0  0  0  0  0  0  0  0  0
  130.4690  131.6470   59.4920 C   0  0  0  0  0  0  0  0  0  0  0  0
  130.8090  130.9300   60.7970 C   0  0  0  0  0  0  0  0  0  0  0  0
  131.2090  129.5350   60.6140 N   0  0  0  0  0  0  0  0  0  0  0  0
  130.5130  128.6190   59.9160 C   0  0  0  0  0  0  0  0  0  0  0  0
  129.4090  128.8450   59.4190 O   0  0  0  0  0  0  0  0  0  0  0  0
  131.1900  127.2500   59.7610 C   0  0  0  0  0  0  0  0  0  0  0  0
  130.1310  125.8180   60.1540 S   0  0  0  0  0  0  0  0  0  0  0  0
  129.2750  125.3860   58.6540 C   0  0  0  0  0  0  0  0  0  0  0  0
  129.4130  126.3020   57.6640 N   0  0  0  0  0  0  0  0  0  0  0  0
  128.7870  126.0820   56.4870 C   0  0  0  0  0  0  0  0  0  0  0  0
  128.9790  127.1510   55.4280 C   0  0  0  0  0  0  0  0  0  0  0  0
  128.0110  124.9500   56.2470 C   0  0  0  0  0  0  0  0  0  0  0  0
  127.8730  123.9810   57.2520 C   0  0  0  0  0  0  0  0  0  0  0  0
  127.0180  122.7320   56.9660 C   0  0  0  0  0  0  0  0  0  0  0  0
  125.8520  122.8210   57.6060 F   0  0  0  0  0  0  0  0  0  0  0  0
  126.7500  122.5760   55.6670 F   0  0  0  0  0  0  0  0  0  0  0  0
  127.6550  121.6350   57.3780 F   0  0  0  0  0  0  0  0  0  0  0  0
  128.5300  124.1940   58.4920 C   0  0  0  0  0  0  0  0  0  0  0  0
  128.4660  123.1850   59.5530 C   0  0  0  0  0  0  0  0  0  0  0  0
  128.4170  122.3860   60.3880 N   0  0  0  0  0  0  0  0  0  0  0  0
  131.4490  131.8640   58.5110 C   0  0  0  0  0  0  0  0  0  0  0  0
  132.7350  131.4270   58.7210 O   0  0  0  0  0  0  0  0  0  0  0  0
  133.0830  130.2560   57.9940 C   0  0  0  0  0  0  0  0  0  0  0  0
  131.1040  132.4920   57.3020 C   0  0  0  0  0  0  0  0  0  0  0  0
  132.0570  132.6900   56.3320 O   0  0  0  0  0  0  0  0  0  0  0  0
  132.0040  131.7520   55.2660 C   0  0  0  0  0  0  0  0  0  0  0  0
  127.5301  133.0462   55.8996 H   0  0  0  0  0  0  0  0  0  0  0  0
  128.0461  134.1050   54.5433 H   0  0  0  0  0  0  0  0  0  0  0  0
  128.4906  132.3645   54.5433 H   0  0  0  0  0  0  0  0  0  0  0  0
  127.8001  133.0854   57.9221 H   0  0  0  0  0  0  0  0  0  0  0  0
  128.3983  131.9457   60.0451 H   0  0  0  0  0  0  0  0  0  0  0  0
  131.6363  131.4676   61.2834 H   0  0  0  0  0  0  0  0  0  0  0  0
  129.8949  130.9249   61.4088 H   0  0  0  0  0  0  0  0  0  0  0  0
  132.1220  129.2840   60.9640 H   0  0  0  0  0  0  0  0  0  0  0  0
  131.5247  127.1509   58.7179 H   0  0  0  0  0  0  0  0  0  0  0  0
  132.0153  127.2309   60.4880 H   0  0  0  0  0  0  0  0  0  0  0  0
  129.1534  128.1220   55.9146 H   0  0  0  0  0  0  0  0  0  0  0  0
  129.8454  126.8943   54.8008 H   0  0  0  0  0  0  0  0  0  0  0  0
  128.0774  127.2119   54.8008 H   0  0  0  0  0  0  0  0  0  0  0  0
  127.5102  124.8171   55.2767 H   0  0  0  0  0  0  0  0  0  0  0  0
  133.3238  129.4456   58.6977 H   0  0  0  0  0  0  0  0  0  0  0  0
  132.2363  129.9523   57.3609 H   0  0  0  0  0  0  0  0  0  0  0  0
  133.9581  130.4640   57.3609 H   0  0  0  0  0  0  0  0  0  0  0  0
  131.9464  130.7331   55.6766 H   0  0  0  0  0  0  0  0  0  0  0  0
  131.1156  131.9490   54.6481 H   0  0  0  0  0  0  0  0  0  0  0  0
  132.9090  131.8477   54.6481 H   0  0  0  0  0  0  0  0  0  0  0  0
  1  2  1  0
  2  3  1  0
  3  4  2  0
  4  5  1  0
  5  6  2  0
  6  7  1  0
  7  8  1  0
  8  9  1  0
  9 10  2  0
  9 11  1  0
 11 12  1  0
 12 13  1  0
 13 14  2  0
 14 15  1  0
 15 16  1  0
 15 17  2  0
 17 18  1  0
 18 19  1  0
 19 20  1  0
 19 21  1  0
 19 22  1  0
 18 23  2  0
 23 24  1  0
 24 25  3  0
  6 26  1  0
 26 27  1  0
 27 28  1  0
 26 29  2  0
 29 30  1  0
 30 31  1  0
 29  3  1  0
 23 13  1  0
  1 32  1  0
  1 33  1  0
  1 34  1  0
  4 35  1  0
  5 36  1  0
  7 37  1  0
  7 38  1  0
  8 39  1  0
 11 40  1  0
 11 41  1  0
 16 42  1  0
 16 43  1  0
 16 44  1  0
 17 45  1  0
 28 46  1  0
 28 47  1  0
 28 48  1  0
 31 49  1  0
 31 50  1  0
 31 51  1  0
M  END
>  <Binding energies>  (1) 
[-6.2]

>  <Ligand effiencies>  (1) 
[-0.19375]

>  <Interactions>  (1) 
["V-A:LEU:363:CD1:3189, V-A:ASP:366:CG:3213, V-A:PRO:540:CA:4883, V-A:PRO:540:CB:4885, H-A:ASP:366:OD2:3215, V-A:PRO:540:N:4884, V-A:TYR:539:C:4867, V-A:ASP:366:CB:3212, H-A:TYR:539:N:4870, V-B:TYR:539:CZ:9849, V-B:PRO:540:N:9856, V-B:TYR:539:CE1:9847, V-B:PRO:540:CB:9857, V-B:TYR:539:CD1:9845, V-B:PRO:540:CA:9855, V-B:TYR:539:CE2:9848, V-B:PRO:540:CD:9859, V-B:MET:535:CE:9807, V-B:PRO:540:CG:9858, V-B:TYR:539:C:9839, V-B:TYR:539:CG:9844, V-B:TYR:539:CD2:9846, V-A:MET:535:CE:4835, V-A:TYR:531:CZ:4794, H-A:GLU:543:OE1:4909, V-A:TYR:539:CE1:4875, V-A:TYR:539:CZ:4877, V-A:TYR:539:CD1:4873, V-A:TYR:539:CD2:4874, V-A:ILE:538:CA:4860, V-A:TYR:539:CG:4872, V-A:TYR:539:CE2:4876, V-A:TYR:531:CE2:4793, V-A:ILE:538:C:4858, V-A:ILE:538:CG2:4863, V-A:ILE:538:CB:4862, V-B:ILE:538:CA:9832, V-B:TYR:539:CA:9841, V-B:TYR:539:CB:9843, H-A:ASP:366:OD1:3214, V-A:MET:535:CG:4833"]

$$$$
2i_Grossjean_2025
     RDKit          3D

 32 33  0  0  0  0  0  0  0  0999 V2000
  129.9870  127.1420   62.2500 C   0  0  0  0  0  0  0  0  0  0  0  0
  130.9210  126.3940   61.3160 C   0  0  0  0  0  0  0  0  0  0  0  0
  131.9610  125.6060   61.8020 C   0  0  0  0  0  0  0  0  0  0  0  0
  132.7950  124.9330   60.8980 C   0  0  0  0  0  0  0  0  0  0  0  0
  133.9410  124.0650   61.4530 C   0  0  0  0  0  0  0  0  0  0  0  0
  133.8530  122.8260   60.9650 F   0  0  0  0  0  0  0  0  0  0  0  0
  135.1190  124.5840   61.1040 F   0  0  0  0  0  0  0  0  0  0  0  0
  133.9230  123.9740   62.7850 F   0  0  0  0  0  0  0  0  0  0  0  0
  132.5490  125.0800   59.5100 C   0  0  0  0  0  0  0  0  0  0  0  0
  133.3900  124.3980   58.5210 C   0  0  0  0  0  0  0  0  0  0  0  0
  134.0530  123.8600   57.7400 N   0  0  0  0  0  0  0  0  0  0  0  0
  131.4730  125.9030   59.1040 C   0  0  0  0  0  0  0  0  0  0  0  0
  131.0730  126.1690   57.3840 S   0  0  0  0  0  0  0  0  0  0  0  0
  129.2660  126.3110   57.2390 C   0  0  0  0  0  0  0  0  0  0  0  0
  128.5680  124.9530   57.3320 C   0  0  0  0  0  0  0  0  0  0  0  0
  129.1100  124.0430   57.9610 O   0  0  0  0  0  0  0  0  0  0  0  0
  127.3920  124.8500   56.6750 N   0  0  0  0  0  0  0  0  0  0  0  0
  126.5850  123.7270   56.5950 C   0  0  0  0  0  0  0  0  0  0  0  0
  125.2250  123.5690   56.8970 C   0  0  0  0  0  0  0  0  0  0  0  0
  124.9580  122.2470   56.6270 C   0  0  0  0  0  0  0  0  0  0  0  0
  126.0880  121.6490   56.1810 O   0  0  0  0  0  0  0  0  0  0  0  0
  127.1090  122.6020   56.1610 N   0  0  0  0  0  0  0  0  0  0  0  0
  130.6750  126.5450   59.9960 N   0  0  0  0  0  0  0  0  0  0  0  0
  130.2595  126.9238   63.2931 H   0  0  0  0  0  0  0  0  0  0  0  0
  130.0738  128.2232   62.0668 H   0  0  0  0  0  0  0  0  0  0  0  0
  128.9509  126.8211   62.0668 H   0  0  0  0  0  0  0  0  0  0  0  0
  132.1268  125.5123   62.8854 H   0  0  0  0  0  0  0  0  0  0  0  0
  128.8955  126.9555   58.0498 H   0  0  0  0  0  0  0  0  0  0  0  0
  129.0401  126.7387   56.2511 H   0  0  0  0  0  0  0  0  0  0  0  0
  127.0710  125.6570   56.1600 H   0  0  0  0  0  0  0  0  0  0  0  0
  124.5261  124.3332   57.2678 H   0  0  0  0  0  0  0  0  0  0  0  0
  123.9826  121.7544   56.7532 H   0  0  0  0  0  0  0  0  0  0  0  0
  1  2  1  0
  2  3  2  0
  3  4  1  0
  4  5  1  0
  5  6  1  0
  5  7  1  0
  5  8  1  0
  4  9  2  0
  9 10  1  0
 10 11  3  0
  9 12  1  0
 12 13  1  0
 13 14  1  0
 14 15  1  0
 15 16  2  0
 15 17  1  0
 17 18  1  0
 18 19  1  0
 19 20  2  0
 20 21  1  0
 21 22  1  0
 12 23  2  0
 23  2  1  0
 22 18  2  0
  1 24  1  0
  1 25  1  0
  1 26  1  0
  3 27  1  0
 14 28  1  0
 14 29  1  0
 17 30  1  0
 19 31  1  0
 20 32  1  0
M  END
>  <Binding energies>  (1) 
[-6.02]

>  <Ligand effiencies>  (1) 
[-0.2508333333333333]

>  <Interactions>  (1) 
["V-A:ASP:366:CG:3213, H-A:TYR:531:OH:4795, H-B:TYR:539:OH:9850, V-A:ASP:366:CB:3212, V-B:TYR:539:CZ:9849, V-B:PRO:540:N:9856, V-B:PRO:540:CB:9857, V-B:PRO:540:CA:9855, V-B:TYR:539:CE2:9848, H-B:TYR:539:N:9842, H-B:TYR:531:OH:9767, V-B:PRO:540:CD:9859, V-B:MET:535:CE:9807, V-B:LEU:363:CD1:8160, V-B:PRO:540:CG:9858, V-A:ASP:366:C:3208, V-A:ASP:366:CA:3210, V-A:ILE:369:CD1:3239, H-A:ASN:370:N:3244, V-A:ILE:369:CG2:3237, V-A:GLU:543:CD:4908, V-A:GLY:454:CA:4049, V-B:ILE:538:CG2:9835, H-B:MET:535:SD:9806, V-A:ILE:369:CG1:3238"]

$$$$
2j_Grossjean_2025
     RDKit          3D

 32 33  0  0  0  0  0  0  0  0999 V2000
  129.2340  122.8720   61.4020 C   0  0  0  0  0  0  0  0  0  0  0  0
  129.1780  123.5240   60.0330 C   0  0  0  0  0  0  0  0  0  0  0  0
  128.3080  123.0710   59.0450 C   0  0  0  0  0  0  0  0  0  0  0  0
  128.2900  123.7090   57.7950 C   0  0  0  0  0  0  0  0  0  0  0  0
  127.3210  123.1950   56.7130 C   0  0  0  0  0  0  0  0  0  0  0  0
  126.8650  121.9870   57.0470 F   0  0  0  0  0  0  0  0  0  0  0  0
  126.2890  124.0300   56.5910 F   0  0  0  0  0  0  0  0  0  0  0  0
  127.8970  123.0900   55.5130 F   0  0  0  0  0  0  0  0  0  0  0  0
  129.1680  124.8020   57.5810 C   0  0  0  0  0  0  0  0  0  0  0  0
  129.1920  125.5050   56.2950 C   0  0  0  0  0  0  0  0  0  0  0  0
  129.2100  126.0610   55.2800 N   0  0  0  0  0  0  0  0  0  0  0  0
  130.0180  125.1950   58.6420 C   0  0  0  0  0  0  0  0  0  0  0  0
  131.1620  126.5590   58.4850 S   0  0  0  0  0  0  0  0  0  0  0  0
  132.7070  125.9310   57.7420 C   0  0  0  0  0  0  0  0  0  0  0  0
  133.2490  124.6400   58.3740 C   0  0  0  0  0  0  0  0  0  0  0  0
  134.0230  123.9110   57.7500 O   0  0  0  0  0  0  0  0  0  0  0  0
  132.8000  124.3890   59.6240 N   0  0  0  0  0  0  0  0  0  0  0  0
  133.1280  123.3000   60.4210 C   0  0  0  0  0  0  0  0  0  0  0  0
  132.8580  122.0310   60.2040 N   0  0  0  0  0  0  0  0  0  0  0  0
  133.3240  121.2640   61.1710 C   0  0  0  0  0  0  0  0  0  0  0  0
  133.9900  121.9140   62.2050 C   0  0  0  0  0  0  0  0  0  0  0  0
  134.0020  123.6220   61.8840 S   0  0  0  0  0  0  0  0  0  0  0  0
  130.0190  124.5660   59.8440 N   0  0  0  0  0  0  0  0  0  0  0  0
  129.1675  123.6467   62.1801 H   0  0  0  0  0  0  0  0  0  0  0  0
  128.3927  122.1715   61.5092 H   0  0  0  0  0  0  0  0  0  0  0  0
  130.1824  122.3252   61.5092 H   0  0  0  0  0  0  0  0  0  0  0  0
  127.6399  122.2197   59.2425 H   0  0  0  0  0  0  0  0  0  0  0  0
  132.5194  125.7371   56.6756 H   0  0  0  0  0  0  0  0  0  0  0  0
  133.4700  126.7041   57.9156 H   0  0  0  0  0  0  0  0  0  0  0  0
  132.1580  125.0530   60.0310 H   0  0  0  0  0  0  0  0  0  0  0  0
  133.1933  120.1719   61.1603 H   0  0  0  0  0  0  0  0  0  0  0  0
  134.4368  121.4259   63.0837 H   0  0  0  0  0  0  0  0  0  0  0  0
  1  2  1  0
  2  3  2  0
  3  4  1  0
  4  5  1  0
  5  6  1  0
  5  7  1  0
  5  8  1  0
  4  9  2  0
  9 10  1  0
 10 11  3  0
  9 12  1  0
 12 13  1  0
 13 14  1  0
 14 15  1  0
 15 16  2  0
 15 17  1  0
 17 18  1  0
 18 19  2  0
 19 20  1  0
 20 21  2  0
 21 22  1  0
 12 23  2  0
 23  2  1  0
 22 18  1  0
  1 24  1  0
  1 25  1  0
  1 26  1  0
  3 27  1  0
 14 28  1  0
 14 29  1  0
 17 30  1  0
 20 31  1  0
 21 32  1  0
M  END
>  <Binding energies>  (1) 
[-5.84]

>  <Ligand effiencies>  (1) 
[-0.24333333333333332]

>  <Interactions>  (1) 
["V-A:ASP:366:CG:3213, H-A:TYR:531:OH:4795, H-B:TYR:539:OH:9850, V-A:ASP:366:CB:3212, V-B:TYR:539:CZ:9849, V-B:PRO:540:N:9856, V-B:TYR:539:CE1:9847, V-B:PRO:540:CB:9857, V-B:TYR:539:CD1:9845, V-B:PRO:540:CA:9855, V-B:TYR:539:CE2:9848, V-B:PRO:540:CD:9859, V-B:MET:535:CE:9807, V-B:TYR:539:C:9839, V-B:TYR:539:CG:9844, V-B:TYR:539:CD2:9846, V-A:ASP:366:C:3208, V-A:ASP:366:CA:3210, V-A:ILE:369:CD1:3239, H-A:ASN:370:N:3244, V-A:ILE:369:CG2:3237, V-A:LEU:475:CD2:4259, V-A:GLY:454:CA:4049, V-A:TYR:531:CZ:4794, V-B:TYR:539:CA:9841, V-A:SER:385:CB:3409"]

$$$$
2k_Grossjean_2025
     RDKit          3D

 50 50  0  0  0  0  0  0  0  0999 V2000
  125.0820  122.7690   56.8690 C   0  0  0  0  0  0  0  0  0  0  0  0
  125.9940  121.9130   56.2000 O   0  0  0  0  0  0  0  0  0  0  0  0
  127.2560  122.5170   55.9450 C   0  0  0  0  0  0  0  0  0  0  0  0
  127.5180  123.6230   56.9760 C   0  0  0  0  0  0  0  0  0  0  0  0
  128.6070  123.2380   57.8020 O   0  0  0  0  0  0  0  0  0  0  0  0
  128.2310  122.8180   59.1080 C   0  0  0  0  0  0  0  0  0  0  0  0
  128.4410  123.9910   60.0740 C   0  0  0  0  0  0  0  0  0  0  0  0
  129.1830  123.5120   61.1840 O   0  0  0  0  0  0  0  0  0  0  0  0
  128.5710  122.4560   61.9100 C   0  0  0  0  0  0  0  0  0  0  0  0
  129.5040  121.2310   61.8920 C   0  0  0  0  0  0  0  0  0  0  0  0
  130.8120  121.5170   61.2970 N   0  0  0  0  0  0  0  0  0  0  0  0
  131.6440  120.6050   60.7590 C   0  0  0  0  0  0  0  0  0  0  0  0
  131.3750  119.4040   60.6830 O   0  0  0  0  0  0  0  0  0  0  0  0
  132.9890  121.1460   60.2530 C   0  0  0  0  0  0  0  0  0  0  0  0
  133.6880  122.5310   61.2180 S   0  0  0  0  0  0  0  0  0  0  0  0
  132.6650  123.9810   61.0020 C   0  0  0  0  0  0  0  0  0  0  0  0
  131.9630  124.3740   62.0960 N   0  0  0  0  0  0  0  0  0  0  0  0
  131.1650  125.4610   62.0040 C   0  0  0  0  0  0  0  0  0  0  0  0
  130.4060  125.8280   63.2640 C   0  0  0  0  0  0  0  0  0  0  0  0
  131.0420  126.2050   60.8340 C   0  0  0  0  0  0  0  0  0  0  0  0
  131.7650  125.8230   59.6930 C   0  0  0  0  0  0  0  0  0  0  0  0
  131.6200  126.6610   58.4080 C   0  0  0  0  0  0  0  0  0  0  0  0
  130.6920  126.1800   57.5800 F   0  0  0  0  0  0  0  0  0  0  0  0
  131.2740  127.9120   58.7150 F   0  0  0  0  0  0  0  0  0  0  0  0
  132.7770  126.6830   57.7450 F   0  0  0  0  0  0  0  0  0  0  0  0
  132.6000  124.6790   59.7730 C   0  0  0  0  0  0  0  0  0  0  0  0
  133.3750  124.2320   58.6120 C   0  0  0  0  0  0  0  0  0  0  0  0
  133.9870  123.8800   57.6940 N   0  0  0  0  0  0  0  0  0  0  0  0
  125.2029  122.6555   57.9564 H   0  0  0  0  0  0  0  0  0  0  0  0
  125.2826  123.8125   56.5847 H   0  0  0  0  0  0  0  0  0  0  0  0
  124.0533  122.5028   56.5847 H   0  0  0  0  0  0  0  0  0  0  0  0
  128.0468  121.7557   56.0165 H   0  0  0  0  0  0  0  0  0  0  0  0
  127.2535  122.9535   54.9353 H   0  0  0  0  0  0  0  0  0  0  0  0
  127.7632  124.5609   56.4562 H   0  0  0  0  0  0  0  0  0  0  0  0
  126.6201  123.7756   57.5929 H   0  0  0  0  0  0  0  0  0  0  0  0
  127.1724  122.5190   59.1115 H   0  0  0  0  0  0  0  0  0  0  0  0
  128.8430  121.9585   59.4190 H   0  0  0  0  0  0  0  0  0  0  0  0
  128.9979  124.7950   59.5706 H   0  0  0  0  0  0  0  0  0  0  0  0
  127.4724  124.3941   60.4048 H   0  0  0  0  0  0  0  0  0  0  0  0
  128.3989  122.7737   62.9490 H   0  0  0  0  0  0  0  0  0  0  0  0
  127.6069  122.1966   61.4483 H   0  0  0  0  0  0  0  0  0  0  0  0
  129.6564  120.8911   62.9270 H   0  0  0  0  0  0  0  0  0  0  0  0
  129.0225  120.4594   61.2734 H   0  0  0  0  0  0  0  0  0  0  0  0
  131.1030  122.4840   61.3060 H   0  0  0  0  0  0  0  0  0  0  0  0
  133.7152  120.3199   60.2696 H   0  0  0  0  0  0  0  0  0  0  0  0
  132.7965  121.5443   59.2459 H   0  0  0  0  0  0  0  0  0  0  0  0
  130.9984  125.5415   64.1455 H   0  0  0  0  0  0  0  0  0  0  0  0
  130.2254  126.9130   63.2804 H   0  0  0  0  0  0  0  0  0  0  0  0
  129.4435  125.2958   63.2804 H   0  0  0  0  0  0  0  0  0  0  0  0
  130.3833  127.0855   60.8037 H   0  0  0  0  0  0  0  0  0  0  0  0
  1  2  1  0
  2  3  1  0
  3  4  1  0
  4  5  1  0
  5  6  1  0
  6  7  1  0
  7  8  1  0
  8  9  1  0
  9 10  1  0
 10 11  1  0
 11 12  1  0
 12 13  2  0
 12 14  1  0
 14 15  1  0
 15 16  1  0
 16 17  2  0
 17 18  1  0
 18 19  1  0
 18 20  2  0
 20 21  1  0
 21 22  1  0
 22 23  1  0
 22 24  1  0
 22 25  1  0
 21 26  2  0
 26 27  1  0
 27 28  3  0
 26 16  1  0
  1 29  1  0
  1 30  1  0
  1 31  1  0
  3 32  1  0
  3 33  1  0
  4 34  1  0
  4 35  1  0
  6 36  1  0
  6 37  1  0
  7 38  1  0
  7 39  1  0
  9 40  1  0
  9 41  1  0
 10 42  1  0
 10 43  1  0
 11 44  1  0
 14 45  1  0
 14 46  1  0
 19 47  1  0
 19 48  1  0
 19 49  1  0
 20 50  1  0
M  END
>  <Binding energies>  (1) 
[-4.91]

>  <Ligand effiencies>  (1) 
[-0.16931034482758622]

>  <Interactions>  (1) 
["V-A:ASP:366:CG:3213, H-B:TYR:539:OH:9850, V-A:ASP:366:CB:3212, V-B:TYR:539:CZ:9849, V-B:PRO:540:N:9856, V-B:TYR:539:CE1:9847, V-B:PRO:540:CB:9857, V-B:TYR:539:CD1:9845, V-B:PRO:540:CA:9855, V-B:TYR:539:CE2:9848, H-B:TYR:539:N:9842, V-B:PRO:540:CD:9859, V-B:MET:535:CE:9807, V-B:LEU:363:CD1:8160, V-B:PRO:540:CG:9858, V-B:TYR:539:C:9839, V-B:TYR:539:CG:9844, V-B:TYR:539:CD2:9846, V-B:ALA:541:CB:9864, V-A:ASP:366:C:3208, V-A:ASP:366:CA:3210, H-A:ASN:370:N:3244, V-A:ILE:369:CB:3236, V-A:ILE:369:CG2:3237, V-A:LEU:475:CD2:4259, V-A:TYR:531:CZ:4794, H-A:SER:385:OG:3410, H-A:HIS:383:HE2:3395"]

$$$$
3aa_Grossjean_2025
     RDKit          3D

 52 54  0  0  0  0  0  0  0  0999 V2000
  128.9530  125.3400   55.4850 C   0  0  0  0  0  0  0  0  0  0  0  0
  128.3350  124.8490   56.7980 C   0  0  0  0  0  0  0  0  0  0  0  0
  127.1680  124.0870   56.5170 O   0  0  0  0  0  0  0  0  0  0  0  0
  126.8890  122.9540   57.2100 C   0  0  0  0  0  0  0  0  0  0  0  0
  126.3940  121.9460   56.6970 O   0  0  0  0  0  0  0  0  0  0  0  0
  127.2270  123.0530   58.6710 C   0  0  0  0  0  0  0  0  0  0  0  0
  128.3700  122.4450   59.2120 C   0  0  0  0  0  0  0  0  0  0  0  0
  128.6570  122.5610   60.5700 C   0  0  0  0  0  0  0  0  0  0  0  0
  127.8140  123.2900   61.4110 C   0  0  0  0  0  0  0  0  0  0  0  0
  128.1970  123.3480   62.7660 N   0  0  0  0  0  0  0  0  0  0  0  0
  129.2150  122.7250   63.4000 C   0  0  0  0  0  0  0  0  0  0  0  0
  130.0090  121.9410   62.8780 O   0  0  0  0  0  0  0  0  0  0  0  0
  129.3510  123.0350   64.8910 C   0  0  0  0  0  0  0  0  0  0  0  0
  130.6320  124.2870   65.2060 S   0  0  0  0  0  0  0  0  0  0  0  0
  129.7930  125.7860   65.6670 C   0  0  0  0  0  0  0  0  0  0  0  0
  129.7510  125.9950   67.0050 N   0  0  0  0  0  0  0  0  0  0  0  0
  129.1370  127.1040   67.4940 C   0  0  0  0  0  0  0  0  0  0  0  0
  129.1450  127.2710   68.9830 C   0  0  0  0  0  0  0  0  0  0  0  0
  128.0320  126.8930   69.7510 C   0  0  0  0  0  0  0  0  0  0  0  0
  128.0320  127.0440   71.1360 C   0  0  0  0  0  0  0  0  0  0  0  0
  129.1490  127.5780   71.7710 C   0  0  0  0  0  0  0  0  0  0  0  0
  130.2650  127.9580   71.0330 C   0  0  0  0  0  0  0  0  0  0  0  0
  130.2620  127.8030   69.6500 C   0  0  0  0  0  0  0  0  0  0  0  0
  128.5530  128.0400   66.6350 C   0  0  0  0  0  0  0  0  0  0  0  0
  128.5690  127.8360   65.2460 C   0  0  0  0  0  0  0  0  0  0  0  0
  127.9050  128.8840   64.3340 C   0  0  0  0  0  0  0  0  0  0  0  0
  128.7050  129.2940   63.3470 F   0  0  0  0  0  0  0  0  0  0  0  0
  126.8080  128.3760   63.7710 F   0  0  0  0  0  0  0  0  0  0  0  0
  127.5650  129.9580   65.0480 F   0  0  0  0  0  0  0  0  0  0  0  0
  129.1950  126.6700   64.7420 C   0  0  0  0  0  0  0  0  0  0  0  0
  129.1920  126.3770   63.3060 C   0  0  0  0  0  0  0  0  0  0  0  0
  129.1880  126.1450   62.1720 N   0  0  0  0  0  0  0  0  0  0  0  0
  126.6630  123.8900   60.8790 C   0  0  0  0  0  0  0  0  0  0  0  0
  126.3770  123.7710   59.5220 C   0  0  0  0  0  0  0  0  0  0  0  0
  129.7968  126.0104   55.7051 H   0  0  0  0  0  0  0  0  0  0  0  0
  129.3116  124.4778   54.9036 H   0  0  0  0  0  0  0  0  0  0  0  0
  128.1942  125.8843   54.9036 H   0  0  0  0  0  0  0  0  0  0  0  0
  129.0625  124.2214   57.3335 H   0  0  0  0  0  0  0  0  0  0  0  0
  128.0666  125.7137   57.4227 H   0  0  0  0  0  0  0  0  0  0  0  0
  129.0446  121.8723   58.5586 H   0  0  0  0  0  0  0  0  0  0  0  0
  129.5535  122.0752   60.9825 H   0  0  0  0  0  0  0  0  0  0  0  0
  127.5860  123.9040   63.3450 H   0  0  0  0  0  0  0  0  0  0  0  0
  128.3872  123.4094   65.2663 H   0  0  0  0  0  0  0  0  0  0  0  0
  129.6434  122.1089   65.4076 H   0  0  0  0  0  0  0  0  0  0  0  0
  127.1471  126.4715   69.2518 H   0  0  0  0  0  0  0  0  0  0  0  0
  127.1531  126.7425   71.7247 H   0  0  0  0  0  0  0  0  0  0  0  0
  129.1494  127.7005   72.8642 H   0  0  0  0  0  0  0  0  0  0  0  0
  131.1457  128.3790   71.5400 H   0  0  0  0  0  0  0  0  0  0  0  0
  131.1476  128.1015   69.0698 H   0  0  0  0  0  0  0  0  0  0  0  0
  128.0783  128.9414   67.0499 H   0  0  0  0  0  0  0  0  0  0  0  0
  125.9853  124.4555   61.5354 H   0  0  0  0  0  0  0  0  0  0  0  0
  125.4731  124.2462   59.1132 H   0  0  0  0  0  0  0  0  0  0  0  0
  1  2  1  0
  2  3  1  0
  3  4  1  0
  4  5  2  0
  4  6  1  0
  6  7  2  0
  7  8  1  0
  8  9  2  0
  9 10  1  0
 10 11  1  0
 11 12  2  0
 11 13  1  0
 13 14  1  0
 14 15  1  0
 15 16  2  0
 16 17  1  0
 17 18  1  0
 18 19  2  0
 19 20  1  0
 20 21  2  0
 21 22  1  0
 22 23  2  0
 17 24  2  0
 24 25  1  0
 25 26  1  0
 26 27  1  0
 26 28  1  0
 26 29  1  0
 25 30  2  0
 30 31  1  0
 31 32  3  0
  9 33  1  0
 33 34  2  0
 34  6  1  0
 30 15  1  0
 23 18  1  0
  1 35  1  0
  1 36  1  0
  1 37  1  0
  2 38  1  0
  2 39  1  0
  7 40  1  0
  8 41  1  0
 10 42  1  0
 13 43  1  0
 13 44  1  0
 19 45  1  0
 20 46  1  0
 21 47  1  0
 22 48  1  0
 23 49  1  0
 24 50  1  0
 33 51  1  0
 34 52  1  0
M  END
>  <Binding energies>  (1) 
[-8.62]

>  <Ligand effiencies>  (1) 
[-0.24628571428571427]

>  <Interactions>  (1) 
["V-B:TYR:539:CZ:9849, V-B:PRO:540:N:9856, V-B:TYR:539:CE1:9847, V-B:PRO:540:CB:9857, V-B:PRO:540:CA:9855, V-B:TYR:539:CE2:9848, H-B:TYR:539:N:9842, V-B:TYR:539:C:9839, V-B:TYR:539:CG:9844, H-B:GLU:543:OE1:9881, V-B:TYR:539:CD2:9846, V-B:ALA:541:CB:9864, V-B:GLU:543:CG:9879, V-B:GLU:543:CB:9878, H-A:TYR:484:OH:4348, V-A:GLU:543:CD:4908, V-A:TYR:484:CE2:4346, V-B:GLU:543:CD:9880, V-B:HIS:456:CE1:9041, V-A:GLY:544:C:4912, V-B:GLU:543:C:9874, V-A:HIS:456:CE1:4070, V-A:GLU:543:CG:4907, V-A:GLU:543:C:4902, V-A:GLU:543:CB:4906, V-B:TYR:484:CZ:9318"]

$$$$
3ab_Grossjean_2025
     RDKit          3D

 49 51  0  0  0  0  0  0  0  0999 V2000
  127.2510  122.3750   55.5120 C   0  0  0  0  0  0  0  0  0  0  0  0
  126.4240  122.1590   56.6470 O   0  0  0  0  0  0  0  0  0  0  0  0
  125.9920  123.1990   57.4050 C   0  0  0  0  0  0  0  0  0  0  0  0
  125.1600  124.0240   57.0170 O   0  0  0  0  0  0  0  0  0  0  0  0
  126.6240  123.2440   58.7660 C   0  0  0  0  0  0  0  0  0  0  0  0
  127.9400  122.8100   58.9890 C   0  0  0  0  0  0  0  0  0  0  0  0
  128.5010  122.8650   60.2610 C   0  0  0  0  0  0  0  0  0  0  0  0
  127.7500  123.3560   61.3410 C   0  0  0  0  0  0  0  0  0  0  0  0
  128.2160  123.4620   62.6650 N   0  0  0  0  0  0  0  0  0  0  0  0
  129.2040  122.7890   63.2920 C   0  0  0  0  0  0  0  0  0  0  0  0
  129.8990  121.9060   62.7900 O   0  0  0  0  0  0  0  0  0  0  0  0
  129.4450  123.1870   64.7500 C   0  0  0  0  0  0  0  0  0  0  0  0
  130.6480  124.5420   64.9010 S   0  0  0  0  0  0  0  0  0  0  0  0
  129.7570  125.9910   65.4250 C   0  0  0  0  0  0  0  0  0  0  0  0
  129.7340  126.1560   66.7690 N   0  0  0  0  0  0  0  0  0  0  0  0
  129.0930  127.2250   67.3080 C   0  0  0  0  0  0  0  0  0  0  0  0
  129.1170  127.3370   68.8040 C   0  0  0  0  0  0  0  0  0  0  0  0
  128.0210  126.9150   69.5730 C   0  0  0  0  0  0  0  0  0  0  0  0
  128.0380  127.0160   70.9620 C   0  0  0  0  0  0  0  0  0  0  0  0
  129.1550  127.5420   71.6030 C   0  0  0  0  0  0  0  0  0  0  0  0
  130.2530  127.9700   70.8640 C   0  0  0  0  0  0  0  0  0  0  0  0
  130.2320  127.8680   69.4760 C   0  0  0  0  0  0  0  0  0  0  0  0
  128.4340  128.1510   66.4920 C   0  0  0  0  0  0  0  0  0  0  0  0
  128.4270  127.9920   65.0990 C   0  0  0  0  0  0  0  0  0  0  0  0
  127.6850  129.0310   64.2370 C   0  0  0  0  0  0  0  0  0  0  0  0
  128.4580  129.5610   63.2860 F   0  0  0  0  0  0  0  0  0  0  0  0
  126.6400  128.4650   63.6310 F   0  0  0  0  0  0  0  0  0  0  0  0
  127.2490  130.0310   65.0040 F   0  0  0  0  0  0  0  0  0  0  0  0
  129.0990  126.8760   64.5410 C   0  0  0  0  0  0  0  0  0  0  0  0
  129.0740  126.6310   63.0970 C   0  0  0  0  0  0  0  0  0  0  0  0
  129.0530  126.4400   61.9560 N   0  0  0  0  0  0  0  0  0  0  0  0
  126.4430  123.7940   61.1210 C   0  0  0  0  0  0  0  0  0  0  0  0
  125.8840  123.7370   59.8480 C   0  0  0  0  0  0  0  0  0  0  0  0
  128.2660  122.6401   55.8430 H   0  0  0  0  0  0  0  0  0  0  0  0
  127.2906  121.4571   54.9072 H   0  0  0  0  0  0  0  0  0  0  0  0
  126.8367  123.1951   54.9072 H   0  0  0  0  0  0  0  0  0  0  0  0
  128.5345  122.4220   58.1487 H   0  0  0  0  0  0  0  0  0  0  0  0
  129.5343  122.5234   60.4208 H   0  0  0  0  0  0  0  0  0  0  0  0
  127.7020  124.1230   63.2290 H   0  0  0  0  0  0  0  0  0  0  0  0
  128.4906  123.5095   65.1918 H   0  0  0  0  0  0  0  0  0  0  0  0
  129.8537  122.3118   65.2763 H   0  0  0  0  0  0  0  0  0  0  0  0
  127.1354  126.4983   69.0710 H   0  0  0  0  0  0  0  0  0  0  0  0
  127.1710  126.6809   71.5503 H   0  0  0  0  0  0  0  0  0  0  0  0
  129.1700  127.6199   72.7001 H   0  0  0  0  0  0  0  0  0  0  0  0
  131.1338  128.3871   71.3741 H   0  0  0  0  0  0  0  0  0  0  0  0
  131.1020  128.2084   68.8953 H   0  0  0  0  0  0  0  0  0  0  0  0
  127.9179  129.0096   66.9464 H   0  0  0  0  0  0  0  0  0  0  0  0
  125.8505  124.1872   61.9603 H   0  0  0  0  0  0  0  0  0  0  0  0
  124.8516  124.0823   59.6901 H   0  0  0  0  0  0  0  0  0  0  0  0
  1  2  1  0
  2  3  1  0
  3  4  2  0
  3  5  1  0
  5  6  2  0
  6  7  1  0
  7  8  2  0
  8  9  1  0
  9 10  1  0
 10 11  2  0
 10 12  1  0
 12 13  1  0
 13 14  1  0
 14 15  2  0
 15 16  1  0
 16 17  1  0
 17 18  2  0
 18 19  1  0
 19 20  2  0
 20 21  1  0
 21 22  2  0
 16 23  2  0
 23 24  1  0
 24 25  1  0
 25 26  1  0
 25 27  1  0
 25 28  1  0
 24 29  2  0
 29 30  1  0
 30 31  3  0
  8 32  1  0
 32 33  2  0
 33  5  1  0
 29 14  1  0
 22 17  1  0
  1 34  1  0
  1 35  1  0
  1 36  1  0
  6 37  1  0
  7 38  1  0
  9 39  1  0
 12 40  1  0
 12 41  1  0
 18 42  1  0
 19 43  1  0
 20 44  1  0
 21 45  1  0
 22 46  1  0
 23 47  1  0
 32 48  1  0
 33 49  1  0
M  END
>  <Binding energies>  (1) 
[-8.48]

>  <Ligand effiencies>  (1) 
[-0.24941176470588236]

>  <Interactions>  (1) 
["V-B:TYR:539:CZ:9849, V-B:PRO:540:N:9856, V-B:TYR:539:CE1:9847, V-B:PRO:540:CB:9857, V-B:TYR:539:CD1:9845, V-B:PRO:540:CA:9855, V-B:TYR:539:CE2:9848, H-B:TYR:539:N:9842, V-B:PRO:540:CD:9859, V-B:MET:535:CE:9807, V-B:TYR:539:C:9839, V-B:TYR:539:CG:9844, H-B:GLU:543:OE1:9881, V-B:TYR:539:CD2:9846, V-B:ALA:541:CB:9864, V-B:GLU:543:CG:9879, V-B:GLU:543:CB:9878, H-A:TYR:484:OH:4348, V-A:GLU:543:CD:4908, V-A:TYR:484:CE2:4346, V-B:GLU:543:CD:9880, V-B:HIS:456:CE1:9041, V-A:GLY:544:C:4912, V-B:GLU:543:C:9874, V-A:HIS:456:CE1:4070, V-A:GLU:543:CG:4907, V-A:GLU:543:C:4902, V-A:GLU:543:CB:4906, V-B:TYR:484:CZ:9318, V-B:ILE:538:CA:9832, V-B:ILE:538:C:9830"]

$$$$
3ac_Grossjean_2025
     RDKit          3D

 47 49  0  0  0  0  0  0  0  0999 V2000
  127.5460  128.0010   73.3250 C   0  0  0  0  0  0  0  0  0  0  0  0
  128.8590  128.3740   72.9180 O   0  0  0  0  0  0  0  0  0  0  0  0
  129.2980  128.0270   71.6540 C   0  0  0  0  0  0  0  0  0  0  0  0
  128.4140  127.2870   70.8700 C   0  0  0  0  0  0  0  0  0  0  0  0
  128.7670  126.8950   69.5820 C   0  0  0  0  0  0  0  0  0  0  0  0
  130.0180  127.2310   69.0620 C   0  0  0  0  0  0  0  0  0  0  0  0
  130.2760  126.8090   67.7450 N   0  0  0  0  0  0  0  0  0  0  0  0
  130.0940  125.5910   67.1900 C   0  0  0  0  0  0  0  0  0  0  0  0
  129.6100  124.6140   67.7620 O   0  0  0  0  0  0  0  0  0  0  0  0
  130.5350  125.4580   65.7320 C   0  0  0  0  0  0  0  0  0  0  0  0
  129.7930  124.0110   64.9180 S   0  0  0  0  0  0  0  0  0  0  0  0
  130.2960  123.9960   63.2080 C   0  0  0  0  0  0  0  0  0  0  0  0
  129.2610  123.8310   62.3490 N   0  0  0  0  0  0  0  0  0  0  0  0
  129.4900  123.8060   61.0100 C   0  0  0  0  0  0  0  0  0  0  0  0
  128.2920  123.6130   60.1290 C   0  0  0  0  0  0  0  0  0  0  0  0
  127.0250  124.0680   60.5310 C   0  0  0  0  0  0  0  0  0  0  0  0
  125.9100  123.8970   59.7150 C   0  0  0  0  0  0  0  0  0  0  0  0
  126.0470  123.2650   58.4830 C   0  0  0  0  0  0  0  0  0  0  0  0
  127.2880  122.8010   58.0640 C   0  0  0  0  0  0  0  0  0  0  0  0
  128.4010  122.9740   58.8830 C   0  0  0  0  0  0  0  0  0  0  0  0
  130.7870  123.9300   60.5030 C   0  0  0  0  0  0  0  0  0  0  0  0
  131.8790  124.0780   61.3720 C   0  0  0  0  0  0  0  0  0  0  0  0
  133.2920  124.2060   60.7700 C   0  0  0  0  0  0  0  0  0  0  0  0
  134.0950  124.9890   61.4940 F   0  0  0  0  0  0  0  0  0  0  0  0
  133.8710  123.0060   60.6940 F   0  0  0  0  0  0  0  0  0  0  0  0
  133.2170  124.7270   59.5450 F   0  0  0  0  0  0  0  0  0  0  0  0
  131.6360  124.0980   62.7680 C   0  0  0  0  0  0  0  0  0  0  0  0
  132.7500  124.1740   63.7150 C   0  0  0  0  0  0  0  0  0  0  0  0
  133.6310  124.2320   64.4630 N   0  0  0  0  0  0  0  0  0  0  0  0
  130.9110  127.9830   69.8420 C   0  0  0  0  0  0  0  0  0  0  0  0
  130.5540  128.3730   71.1300 C   0  0  0  0  0  0  0  0  0  0  0  0
  127.4931  127.9860   74.4236 H   0  0  0  0  0  0  0  0  0  0  0  0
  126.8200  128.7284   72.9328 H   0  0  0  0  0  0  0  0  0  0  0  0
  127.3109  127.0005   72.9328 H   0  0  0  0  0  0  0  0  0  0  0  0
  127.4286  127.0104   71.2730 H   0  0  0  0  0  0  0  0  0  0  0  0
  128.0571  126.3179   68.9713 H   0  0  0  0  0  0  0  0  0  0  0  0
  130.5960  127.5400   67.1270 H   0  0  0  0  0  0  0  0  0  0  0  0
  130.2333  126.3644   65.1867 H   0  0  0  0  0  0  0  0  0  0  0  0
  131.6273  125.3283   65.7205 H   0  0  0  0  0  0  0  0  0  0  0  0
  126.9123  124.5668   61.5049 H   0  0  0  0  0  0  0  0  0  0  0  0
  124.9248  124.2600   60.0429 H   0  0  0  0  0  0  0  0  0  0  0  0
  125.1671  123.1318   57.8364 H   0  0  0  0  0  0  0  0  0  0  0  0
  127.3907  122.2996   57.0903 H   0  0  0  0  0  0  0  0  0  0  0  0
  129.3815  122.6042   58.5486 H   0  0  0  0  0  0  0  0  0  0  0  0
  130.9527  123.9114   59.4157 H   0  0  0  0  0  0  0  0  0  0  0  0
  131.8935  128.2643   69.4351 H   0  0  0  0  0  0  0  0  0  0  0  0
  131.2598  128.9554   71.7405 H   0  0  0  0  0  0  0  0  0  0  0  0
  1  2  1  0
  2  3  1  0
  3  4  2  0
  4  5  1  0
  5  6  2  0
  6  7  1  0
  7  8  1  0
  8  9  2  0
  8 10  1  0
 10 11  1  0
 11 12  1  0
 12 13  2  0
 13 14  1  0
 14 15  1  0
 15 16  2  0
 16 17  1  0
 17 18  2  0
 18 19  1  0
 19 20  2  0
 14 21  2  0
 21 22  1  0
 22 23  1  0
 23 24  1  0
 23 25  1  0
 23 26  1  0
 22 27  2  0
 27 28  1  0
 28 29  3  0
  6 30  1  0
 30 31  2  0
 31  3  1  0
 27 12  1  0
 20 15  1  0
  1 32  1  0
  1 33  1  0
  1 34  1  0
  4 35  1  0
  5 36  1  0
  7 37  1  0
 10 38  1  0
 10 39  1  0
 16 40  1  0
 17 41  1  0
 18 42  1  0
 19 43  1  0
 20 44  1  0
 21 45  1  0
 30 46  1  0
 31 47  1  0
M  END
>  <Binding energies>  (1) 
[-7.61]

>  <Ligand effiencies>  (1) 
[-0.2378125]

>  <Interactions>  (1) 
["V-A:ASP:366:CG:3213, V-A:ASP:366:CB:3212, V-B:TYR:539:CZ:9849, V-B:PRO:540:N:9856, V-B:PRO:540:CB:9857, V-B:PRO:540:CA:9855, V-B:TYR:539:CE2:9848, V-B:TYR:539:C:9839, V-B:TYR:539:CD2:9846, V-A:ASP:366:CA:3210, V-A:ILE:369:CD1:3239, V-B:GLU:543:CG:9879, V-A:ILE:369:CB:3236, V-A:ILE:369:CG2:3237, V-B:GLU:543:CB:9878, H-A:TYR:484:OH:4348, V-A:GLU:543:CD:4908, V-B:HIS:456:CE1:9041, V-A:GLY:544:CA:4914, V-A:GLY:544:C:4912, V-B:GLU:543:C:9874, V-B:HIS:456:CD2:9039, V-A:HIS:456:CE1:4070, V-A:GLU:543:C:4902, V-A:GLU:543:CB:4906, V-B:HIS:456:CG:9037, H-A:GLU:543:OE1:4909, H-A:GLU:543:OE2:4910, H-A:GLY:454:N:4050"]

$$$$
3ad_Grossjean_2025
     RDKit          3D

 43 45  0  0  0  0  0  0  0  0999 V2000
  129.4370  126.8100   62.9720 N   0  0  0  0  0  0  0  0  0  0  0  0
  129.2990  126.8970   64.1180 C   0  0  0  0  0  0  0  0  0  0  0  0
  129.1220  127.0090   65.5690 C   0  0  0  0  0  0  0  0  0  0  0  0
  128.3510  128.0580   66.1250 C   0  0  0  0  0  0  0  0  0  0  0  0
  127.6230  129.1050   65.2610 C   0  0  0  0  0  0  0  0  0  0  0  0
  126.4650  129.5020   65.7930 F   0  0  0  0  0  0  0  0  0  0  0  0
  128.3900  130.1860   65.1140 F   0  0  0  0  0  0  0  0  0  0  0  0
  127.3540  128.5980   64.0560 F   0  0  0  0  0  0  0  0  0  0  0  0
  128.2510  128.1480   67.5220 C   0  0  0  0  0  0  0  0  0  0  0  0
  128.9050  127.2200   68.3400 C   0  0  0  0  0  0  0  0  0  0  0  0
  128.8450  127.2790   69.8370 C   0  0  0  0  0  0  0  0  0  0  0  0
  129.9480  127.7230   70.5830 C   0  0  0  0  0  0  0  0  0  0  0  0
  129.8980  127.7810   71.9720 C   0  0  0  0  0  0  0  0  0  0  0  0
  128.7390  127.3940   72.6380 C   0  0  0  0  0  0  0  0  0  0  0  0
  127.6320  126.9520   71.9230 C   0  0  0  0  0  0  0  0  0  0  0  0
  127.6850  126.8970   70.5320 C   0  0  0  0  0  0  0  0  0  0  0  0
  129.6480  126.2200   67.8010 N   0  0  0  0  0  0  0  0  0  0  0  0
  129.7420  126.1000   66.4560 C   0  0  0  0  0  0  0  0  0  0  0  0
  130.7440  124.7280   65.9300 S   0  0  0  0  0  0  0  0  0  0  0  0
  132.4170  125.3680   65.6220 C   0  0  0  0  0  0  0  0  0  0  0  0
  132.9340  124.9890   64.2320 C   0  0  0  0  0  0  0  0  0  0  0  0
  133.9570  124.3100   64.1390 O   0  0  0  0  0  0  0  0  0  0  0  0
  132.2000  125.4480   63.1960 N   0  0  0  0  0  0  0  0  0  0  0  0
  132.3860  125.2720   61.8120 C   0  0  0  0  0  0  0  0  0  0  0  0
  131.6540  126.1330   60.9890 C   0  0  0  0  0  0  0  0  0  0  0  0
  131.7610  126.0410   59.6040 C   0  0  0  0  0  0  0  0  0  0  0  0
  132.5990  125.0840   59.0390 C   0  0  0  0  0  0  0  0  0  0  0  0
  133.3290  124.2170   59.8460 C   0  0  0  0  0  0  0  0  0  0  0  0
  133.2250  124.3040   61.2320 C   0  0  0  0  0  0  0  0  0  0  0  0
  127.6549  128.9529   67.9767 H   0  0  0  0  0  0  0  0  0  0  0  0
  130.8664  128.0299   70.0611 H   0  0  0  0  0  0  0  0  0  0  0  0
  130.7713  128.1314   72.5417 H   0  0  0  0  0  0  0  0  0  0  0  0
  128.6987  127.4381   73.7364 H   0  0  0  0  0  0  0  0  0  0  0  0
  126.7179  126.6469   72.4533 H   0  0  0  0  0  0  0  0  0  0  0  0
  126.8059  126.5495   69.9695 H   0  0  0  0  0  0  0  0  0  0  0  0
  132.3979  126.4646   65.7060 H   0  0  0  0  0  0  0  0  0  0  0  0
  133.0920  124.9213   66.3668 H   0  0  0  0  0  0  0  0  0  0  0  0
  131.4160  126.0380   63.4340 H   0  0  0  0  0  0  0  0  0  0  0  0
  130.9904  126.8867   61.4379 H   0  0  0  0  0  0  0  0  0  0  0  0
  131.1858  126.7216   58.9591 H   0  0  0  0  0  0  0  0  0  0  0  0
  132.6849  125.0125   57.9447 H   0  0  0  0  0  0  0  0  0  0  0  0
  133.9877  123.4635   59.3896 H   0  0  0  0  0  0  0  0  0  0  0  0
  133.7981  123.6168   61.8718 H   0  0  0  0  0  0  0  0  0  0  0  0
  1  2  3  0
  2  3  1  0
  3  4  2  0
  4  5  1  0
  5  6  1  0
  5  7  1  0
  5  8  1  0
  4  9  1  0
  9 10  2  0
 10 11  1  0
 11 12  2  0
 12 13  1  0
 13 14  2  0
 14 15  1  0
 15 16  2  0
 10 17  1  0
 17 18  2  0
 18 19  1  0
 19 20  1  0
 20 21  1  0
 21 22  2  0
 21 23  1  0
 23 24  1  0
 24 25  2  0
 25 26  1  0
 26 27  2  0
 27 28  1  0
 28 29  2  0
 18  3  1  0
 29 24  1  0
 16 11  1  0
  9 30  1  0
 12 31  1  0
 13 32  1  0
 14 33  1  0
 15 34  1  0
 16 35  1  0
 20 36  1  0
 20 37  1  0
 23 38  1  0
 25 39  1  0
 26 40  1  0
 27 41  1  0
 28 42  1  0
 29 43  1  0
M  END
>  <Binding energies>  (1) 
[-7.62]

>  <Ligand effiencies>  (1) 
[-0.254]

>  <Interactions>  (1) 
["V-A:ASP:366:CG:3213, V-A:ASP:366:CB:3212, V-B:TYR:539:CE2:9848, V-B:GLU:543:CG:9879, V-A:ILE:369:CG2:3237, V-B:GLU:543:CB:9878, H-A:TYR:484:OH:4348, V-A:GLU:543:CD:4908, V-A:ARG:545:CZ:4926, V-B:GLU:543:CD:9880, V-B:HIS:456:CE1:9041, V-B:GLY:544:C:9884, V-B:GLU:543:C:9874, V-B:HIS:456:CD2:9039, V-A:HIS:456:CE1:4070, V-A:GLU:543:CG:4907, V-A:GLU:543:CB:4906, V-B:GLY:544:CA:9886, H-A:GLU:543:OE1:4909, H-A:GLU:543:OE2:4910, V-B:TYR:484:CZ:9318, H-A:GLY:454:N:4050"]

$$$$
3af_Grossjean_2025
     RDKit          3D

 42 44  0  0  0  0  0  0  0  0999 V2000
  128.9800  126.0500   55.0280 N   0  0  0  0  0  0  0  0  0  0  0  0
  129.0770  125.5740   56.0790 C   0  0  0  0  0  0  0  0  0  0  0  0
  129.1970  124.9690   57.4080 C   0  0  0  0  0  0  0  0  0  0  0  0
  128.3670  123.8870   57.7880 C   0  0  0  0  0  0  0  0  0  0  0  0
  127.3380  123.2520   56.8320 C   0  0  0  0  0  0  0  0  0  0  0  0
  126.8380  122.1050   57.2960 F   0  0  0  0  0  0  0  0  0  0  0  0
  126.3170  124.0890   56.6420 F   0  0  0  0  0  0  0  0  0  0  0  0
  127.9070  122.9900   55.6540 F   0  0  0  0  0  0  0  0  0  0  0  0
  128.4820  123.3770   59.0900 C   0  0  0  0  0  0  0  0  0  0  0  0
  129.3980  123.9340   59.9890 C   0  0  0  0  0  0  0  0  0  0  0  0
  129.5490  123.4420   61.3970 C   0  0  0  0  0  0  0  0  0  0  0  0
  129.5060  124.3360   62.4790 C   0  0  0  0  0  0  0  0  0  0  0  0
  129.6430  123.8850   63.7890 C   0  0  0  0  0  0  0  0  0  0  0  0
  129.8240  122.5280   64.0350 C   0  0  0  0  0  0  0  0  0  0  0  0
  129.8670  121.6210   62.9820 C   0  0  0  0  0  0  0  0  0  0  0  0
  129.7300  122.0760   61.6730 C   0  0  0  0  0  0  0  0  0  0  0  0
  130.1890  124.9740   59.6220 N   0  0  0  0  0  0  0  0  0  0  0  0
  130.1130  125.4690   58.3630 C   0  0  0  0  0  0  0  0  0  0  0  0
  131.2370  126.8180   58.0650 S   0  0  0  0  0  0  0  0  0  0  0  0
  132.7860  126.1260   57.4100 C   0  0  0  0  0  0  0  0  0  0  0  0
  133.2790  124.9460   58.2460 C   0  0  0  0  0  0  0  0  0  0  0  0
  133.9940  124.0940   57.7180 O   0  0  0  0  0  0  0  0  0  0  0  0
  132.8690  124.9370   59.5330 N   0  0  0  0  0  0  0  0  0  0  0  0
  133.1330  124.0030   60.5540 C   0  0  0  0  0  0  0  0  0  0  0  0
  133.0280  122.6050   60.4350 C   0  0  0  0  0  0  0  0  0  0  0  0
  133.3210  121.7940   61.5340 C   0  0  0  0  0  0  0  0  0  0  0  0
  133.7110  122.4020   62.7280 C   0  0  0  0  0  0  0  0  0  0  0  0
  133.8210  123.7460   62.8680 N   0  0  0  0  0  0  0  0  0  0  0  0
  133.5330  124.5200   61.7910 C   0  0  0  0  0  0  0  0  0  0  0  0
  127.8487  122.5348   59.4056 H   0  0  0  0  0  0  0  0  0  0  0  0
  129.3618  125.4097   62.2885 H   0  0  0  0  0  0  0  0  0  0  0  0
  129.6083  124.5984   64.6255 H   0  0  0  0  0  0  0  0  0  0  0  0
  129.9338  122.1701   65.0693 H   0  0  0  0  0  0  0  0  0  0  0  0
  130.0086  120.5487   63.1821 H   0  0  0  0  0  0  0  0  0  0  0  0
  129.7640  121.3554   60.8426 H   0  0  0  0  0  0  0  0  0  0  0  0
  132.6152  125.7847   56.3783 H   0  0  0  0  0  0  0  0  0  0  0  0
  133.5534  126.9133   57.4442 H   0  0  0  0  0  0  0  0  0  0  0  0
  132.2910  125.7120   59.8210 H   0  0  0  0  0  0  0  0  0  0  0  0
  132.7168  122.1530   59.4816 H   0  0  0  0  0  0  0  0  0  0  0  0
  133.2459  120.6991   61.4598 H   0  0  0  0  0  0  0  0  0  0  0  0
  133.9392  121.7627   63.5936 H   0  0  0  0  0  0  0  0  0  0  0  0
  133.6186  125.6116   61.8962 H   0  0  0  0  0  0  0  0  0  0  0  0
  1  2  3  0
  2  3  1  0
  3  4  2  0
  4  5  1  0
  5  6  1  0
  5  7  1  0
  5  8  1  0
  4  9  1  0
  9 10  2  0
 10 11  1  0
 11 12  2  0
 12 13  1  0
 13 14  2  0
 14 15  1  0
 15 16  2  0
 10 17  1  0
 17 18  2  0
 18 19  1  0
 19 20  1  0
 20 21  1  0
 21 22  2  0
 21 23  1  0
 23 24  1  0
 24 25  2  0
 25 26  1  0
 26 27  2  0
 27 28  1  0
 28 29  2  0
 18  3  1  0
 29 24  1  0
 16 11  1  0
  9 30  1  0
 12 31  1  0
 13 32  1  0
 14 33  1  0
 15 34  1  0
 16 35  1  0
 20 36  1  0
 20 37  1  0
 23 38  1  0
 25 39  1  0
 26 40  1  0
 27 41  1  0
 29 42  1  0
M  END
>  <Binding energies>  (1) 
[-7.03]

>  <Ligand effiencies>  (1) 
[-0.23433333333333334]

>  <Interactions>  (1) 
["V-A:ASP:366:CG:3213, H-A:TYR:531:OH:4795, H-B:TYR:539:OH:9850, H-A:ASP:366:OD2:3215, V-A:ASP:366:CB:3212, V-B:TYR:539:CZ:9849, V-B:PRO:540:N:9856, V-B:TYR:539:CE1:9847, V-B:PRO:540:CB:9857, V-B:TYR:539:CD1:9845, V-B:PRO:540:CA:9855, V-B:TYR:539:CE2:9848, V-B:PRO:540:CD:9859, V-B:MET:535:CE:9807, V-B:TYR:539:C:9839, V-B:TYR:539:CG:9844, V-B:TYR:539:CD2:9846, V-B:ALA:541:CB:9864, V-A:ASP:366:C:3208, V-A:ASP:366:CA:3210, V-B:GLU:543:CG:9879, H-A:ASN:370:N:3244, V-A:ILE:369:CG2:3237, V-A:LEU:475:CD2:4259, V-A:GLY:454:CA:4049, V-B:GLU:543:CD:9880, V-A:TYR:531:CZ:4794, H-A:GLY:454:N:4050, V-B:TYR:539:CA:9841, H-A:ASP:366:OD1:3214"]

$$$$
3ag_Grossjean_2025
     RDKit          3D

 46 48  0  0  0  0  0  0  0  0999 V2000
  129.2820  126.8180   63.3600 N   0  0  0  0  0  0  0  0  0  0  0  0
  129.1750  126.9260   64.5070 C   0  0  0  0  0  0  0  0  0  0  0  0
  129.0370  127.0660   65.9600 C   0  0  0  0  0  0  0  0  0  0  0  0
  128.2780  128.1250   66.5160 C   0  0  0  0  0  0  0  0  0  0  0  0
  127.5130  129.1450   65.6500 C   0  0  0  0  0  0  0  0  0  0  0  0
  127.3080  128.7150   64.4040 F   0  0  0  0  0  0  0  0  0  0  0  0
  126.3200  129.3940   66.1910 F   0  0  0  0  0  0  0  0  0  0  0  0
  128.1990  130.2860   65.5700 F   0  0  0  0  0  0  0  0  0  0  0  0
  128.2200  128.2470   67.9130 C   0  0  0  0  0  0  0  0  0  0  0  0
  128.9110  127.3460   68.7300 C   0  0  0  0  0  0  0  0  0  0  0  0
  128.8870  127.4310   70.2260 C   0  0  0  0  0  0  0  0  0  0  0  0
  127.7770  126.9690   70.9530 C   0  0  0  0  0  0  0  0  0  0  0  0
  127.7480  127.0450   72.3430 C   0  0  0  0  0  0  0  0  0  0  0  0
  128.8320  127.5860   73.0270 C   0  0  0  0  0  0  0  0  0  0  0  0
  129.9420  128.0540   72.3310 C   0  0  0  0  0  0  0  0  0  0  0  0
  129.9670  127.9770   70.9420 C   0  0  0  0  0  0  0  0  0  0  0  0
  129.6270  126.3240   68.1930 N   0  0  0  0  0  0  0  0  0  0  0  0
  129.6810  126.1760   66.8480 C   0  0  0  0  0  0  0  0  0  0  0  0
  130.6600  124.7850   66.3250 S   0  0  0  0  0  0  0  0  0  0  0  0
  132.3590  125.3830   66.0750 C   0  0  0  0  0  0  0  0  0  0  0  0
  132.8650  125.1110   64.6580 C   0  0  0  0  0  0  0  0  0  0  0  0
  133.9890  124.6370   64.4870 O   0  0  0  0  0  0  0  0  0  0  0  0
  132.0210  125.4100   63.6550 N   0  0  0  0  0  0  0  0  0  0  0  0
  132.2850  125.1990   62.2320 C   0  0  0  0  0  0  0  0  0  0  0  0
  132.5190  123.7410   61.8520 C   0  0  0  0  0  0  0  0  0  0  0  0
  131.4360  122.9350   61.4920 C   0  0  0  0  0  0  0  0  0  0  0  0
  131.6480  121.6110   61.1160 C   0  0  0  0  0  0  0  0  0  0  0  0
  132.9450  121.1010   61.0930 C   0  0  0  0  0  0  0  0  0  0  0  0
  134.0310  121.9030   61.4360 C   0  0  0  0  0  0  0  0  0  0  0  0
  133.8180  123.2270   61.8120 C   0  0  0  0  0  0  0  0  0  0  0  0
  127.6282  129.0551   68.3677 H   0  0  0  0  0  0  0  0  0  0  0  0
  126.9178  126.5408   70.4159 H   0  0  0  0  0  0  0  0  0  0  0  0
  126.8717  126.6788   72.8980 H   0  0  0  0  0  0  0  0  0  0  0  0
  128.8113  127.6441   74.1253 H   0  0  0  0  0  0  0  0  0  0  0  0
  130.7957  128.4828   72.8762 H   0  0  0  0  0  0  0  0  0  0  0  0
  130.8458  128.3493   70.3952 H   0  0  0  0  0  0  0  0  0  0  0  0
  132.3832  126.4675   66.2576 H   0  0  0  0  0  0  0  0  0  0  0  0
  133.0131  124.8440   66.7762 H   0  0  0  0  0  0  0  0  0  0  0  0
  131.1130  125.7870   63.8860 H   0  0  0  0  0  0  0  0  0  0  0  0
  131.4209  125.5703   61.6615 H   0  0  0  0  0  0  0  0  0  0  0  0
  133.2132  125.7409   61.9977 H   0  0  0  0  0  0  0  0  0  0  0  0
  130.4159  123.3463   61.5056 H   0  0  0  0  0  0  0  0  0  0  0  0
  130.7970  120.9715   60.8388 H   0  0  0  0  0  0  0  0  0  0  0  0
  133.1128  120.0539   60.8008 H   0  0  0  0  0  0  0  0  0  0  0  0
  135.0513  121.4928   61.4100 H   0  0  0  0  0  0  0  0  0  0  0  0
  134.6718  123.8678   62.0774 H   0  0  0  0  0  0  0  0  0  0  0  0
  1  2  3  0
  2  3  1  0
  3  4  2  0
  4  5  1  0
  5  6  1  0
  5  7  1  0
  5  8  1  0
  4  9  1  0
  9 10  2  0
 10 11  1  0
 11 12  2  0
 12 13  1  0
 13 14  2  0
 14 15  1  0
 15 16  2  0
 10 17  1  0
 17 18  2  0
 18 19  1  0
 19 20  1  0
 20 21  1  0
 21 22  2  0
 21 23  1  0
 23 24  1  0
 24 25  1  0
 25 26  2  0
 26 27  1  0
 27 28  2  0
 28 29  1  0
 29 30  2  0
 18  3  1  0
 30 25  1  0
 16 11  1  0
  9 31  1  0
 12 32  1  0
 13 33  1  0
 14 34  1  0
 15 35  1  0
 16 36  1  0
 20 37  1  0
 20 38  1  0
 23 39  1  0
 24 40  1  0
 24 41  1  0
 26 42  1  0
 27 43  1  0
 28 44  1  0
 29 45  1  0
 30 46  1  0
M  END
>  <Binding energies>  (1) 
[-7.88]

>  <Ligand effiencies>  (1) 
[-0.2541935483870968]

>  <Interactions>  (1) 
["V-B:TYR:539:CE2:9848, V-B:TYR:539:CD2:9846, V-A:ILE:369:CD1:3239, V-B:GLU:543:CG:9879, V-A:ILE:369:CG2:3237, V-A:LEU:475:CD2:4259, V-A:TYR:484:CZ:4347, V-B:GLU:543:CB:9878, H-A:TYR:484:OH:4348, V-A:GLU:543:CD:4908, H-A:ARG:545:NE:4924, V-A:ARG:545:CZ:4926, V-B:GLU:543:CD:9880, V-B:HIS:456:CE1:9041, V-B:GLY:544:C:9884, V-B:GLU:543:C:9874, V-B:HIS:456:CD2:9039, V-B:LYS:547:CE:9922, V-A:HIS:456:CE1:4070, V-A:GLU:543:CG:4907, V-A:GLU:543:CB:4906, H-A:GLU:543:OE1:4909, H-A:GLU:543:OE2:4910, V-B:TYR:484:CZ:9318, H-A:ARG:545:NH2:4928, H-A:GLY:454:N:4050, V-B:TYR:484:CE2:9317, V-A:SER:385:CB:3409"]

$$$$
3ai_Grossjean_2025
     RDKit          3D

 39 41  0  0  0  0  0  0  0  0999 V2000
  133.4230  123.9560   59.3780 N   0  0  0  0  0  0  0  0  0  0  0  0
  132.2980  123.8720   59.6360 C   0  0  0  0  0  0  0  0  0  0  0  0
  130.8730  123.7650   59.9650 C   0  0  0  0  0  0  0  0  0  0  0  0
  130.3650  122.6160   60.6190 C   0  0  0  0  0  0  0  0  0  0  0  0
  131.2640  121.4460   61.0610 C   0  0  0  0  0  0  0  0  0  0  0  0
  132.0660  121.7650   62.0790 F   0  0  0  0  0  0  0  0  0  0  0  0
  130.5100  120.4160   61.4500 F   0  0  0  0  0  0  0  0  0  0  0  0
  132.0400  121.0560   60.0500 F   0  0  0  0  0  0  0  0  0  0  0  0
  128.9860  122.5420   60.8680 C   0  0  0  0  0  0  0  0  0  0  0  0
  128.1380  123.5820   60.4730 C   0  0  0  0  0  0  0  0  0  0  0  0
  126.6580  123.5500   60.7040 C   0  0  0  0  0  0  0  0  0  0  0  0
  126.1340  123.1340   61.9380 C   0  0  0  0  0  0  0  0  0  0  0  0
  124.7600  123.1070   62.1610 C   0  0  0  0  0  0  0  0  0  0  0  0
  123.8890  123.4970   61.1490 C   0  0  0  0  0  0  0  0  0  0  0  0
  124.3820  123.9150   59.9180 C   0  0  0  0  0  0  0  0  0  0  0  0
  125.7560  123.9410   59.6990 C   0  0  0  0  0  0  0  0  0  0  0  0
  128.6290  124.6770   59.8390 N   0  0  0  0  0  0  0  0  0  0  0  0
  129.9600  124.7840   59.6090 C   0  0  0  0  0  0  0  0  0  0  0  0
  130.4190  126.2960   58.7900 S   0  0  0  0  0  0  0  0  0  0  0  0
  129.1650  126.6430   57.5100 C   0  0  0  0  0  0  0  0  0  0  0  0
  128.6230  125.4050   56.7800 C   0  0  0  0  0  0  0  0  0  0  0  0
  129.1290  125.0250   55.7210 O   0  0  0  0  0  0  0  0  0  0  0  0
  127.5790  124.8020   57.3920 N   0  0  0  0  0  0  0  0  0  0  0  0
  126.8960  123.6690   56.9680 C   0  0  0  0  0  0  0  0  0  0  0  0
  125.5400  123.6740   56.6420 C   0  0  0  0  0  0  0  0  0  0  0  0
  125.2540  122.3780   56.2800 C   0  0  0  0  0  0  0  0  0  0  0  0
  126.3790  121.6310   56.3820 O   0  0  0  0  0  0  0  0  0  0  0  0
  127.4130  122.4610   56.8190 N   0  0  0  0  0  0  0  0  0  0  0  0
  128.5692  121.6605   61.3771 H   0  0  0  0  0  0  0  0  0  0  0  0
  126.8193  122.8247   62.7409 H   0  0  0  0  0  0  0  0  0  0  0  0
  124.3648  122.7786   63.1336 H   0  0  0  0  0  0  0  0  0  0  0  0
  122.8032  123.4746   61.3237 H   0  0  0  0  0  0  0  0  0  0  0  0
  123.6894  124.2236   59.1211 H   0  0  0  0  0  0  0  0  0  0  0  0
  126.1425  124.2728   58.7240 H   0  0  0  0  0  0  0  0  0  0  0  0
  128.3179  127.1533   57.9916 H   0  0  0  0  0  0  0  0  0  0  0  0
  129.6666  127.2553   56.7461 H   0  0  0  0  0  0  0  0  0  0  0  0
  127.2510  125.2080   58.2560 H   0  0  0  0  0  0  0  0  0  0  0  0
  124.8487  124.5292   56.6686 H   0  0  0  0  0  0  0  0  0  0  0  0
  124.2692  122.0077   55.9591 H   0  0  0  0  0  0  0  0  0  0  0  0
  1  2  3  0
  2  3  1  0
  3  4  2  0
  4  5  1  0
  5  6  1  0
  5  7  1  0
  5  8  1  0
  4  9  1  0
  9 10  2  0
 10 11  1  0
 11 12  2  0
 12 13  1  0
 13 14  2  0
 14 15  1  0
 15 16  2  0
 10 17  1  0
 17 18  2  0
 18 19  1  0
 19 20  1  0
 20 21  1  0
 21 22  2  0
 21 23  1  0
 23 24  1  0
 24 25  1  0
 25 26  2  0
 26 27  1  0
 27 28  1  0
 18  3  1  0
 28 24  2  0
 16 11  1  0
  9 29  1  0
 12 30  1  0
 13 31  1  0
 14 32  1  0
 15 33  1  0
 16 34  1  0
 20 35  1  0
 20 36  1  0
 23 37  1  0
 25 38  1  0
 26 39  1  0
M  END
>  <Binding energies>  (1) 
[-6.64]

>  <Ligand effiencies>  (1) 
[-0.2289655172413793]

>  <Interactions>  (1) 
["H-B:TYR:539:OH:9850, V-B:TYR:539:CZ:9849, V-B:PRO:540:N:9856, V-B:PRO:540:CB:9857, V-B:PRO:540:CA:9855, V-B:TYR:539:CE2:9848, H-B:TYR:539:N:9842, V-B:PRO:540:CD:9859, V-B:ASP:366:CG:8184, V-B:MET:535:CE:9807, V-B:LEU:363:CD1:8160, V-B:PRO:540:CG:9858, V-B:PRO:540:C:9853, V-B:TYR:539:CD2:9846, V-B:LEU:363:CA:8156, V-B:ALA:541:CB:9864, V-A:ILE:369:CG2:3237, V-A:LEU:475:CD2:4259, V-B:GLU:543:CD:9880, V-B:ILE:538:CG2:9835, V-B:ASN:362:CB:8147, V-B:ASN:362:C:8143, V-B:ASN:362:CA:8145, V-B:ALA:541:C:9860"]

$$$$
3aj_Grossjean_2025
     RDKit          3D

 39 41  0  0  0  0  0  0  0  0999 V2000
  129.3240  126.7770   63.1000 N   0  0  0  0  0  0  0  0  0  0  0  0
  129.2350  126.8840   64.2490 C   0  0  0  0  0  0  0  0  0  0  0  0
  129.1200  127.0220   65.7040 C   0  0  0  0  0  0  0  0  0  0  0  0
  128.3730  128.0820   66.2740 C   0  0  0  0  0  0  0  0  0  0  0  0
  127.6110  129.1150   65.4210 C   0  0  0  0  0  0  0  0  0  0  0  0
  127.3010  128.6560   64.2060 F   0  0  0  0  0  0  0  0  0  0  0  0
  126.4730  129.4550   66.0260 F   0  0  0  0  0  0  0  0  0  0  0  0
  128.3560  130.2090   65.2560 F   0  0  0  0  0  0  0  0  0  0  0  0
  128.3330  128.1970   67.6720 C   0  0  0  0  0  0  0  0  0  0  0  0
  129.0220  127.2830   68.4770 C   0  0  0  0  0  0  0  0  0  0  0  0
  129.0200  127.3660   69.9730 C   0  0  0  0  0  0  0  0  0  0  0  0
  130.1200  127.9020   70.6610 C   0  0  0  0  0  0  0  0  0  0  0  0
  130.1240  127.9850   72.0520 C   0  0  0  0  0  0  0  0  0  0  0  0
  129.0240  127.5310   72.7730 C   0  0  0  0  0  0  0  0  0  0  0  0
  127.9220  126.9970   72.1140 C   0  0  0  0  0  0  0  0  0  0  0  0
  127.9220  126.9170   70.7250 C   0  0  0  0  0  0  0  0  0  0  0  0
  129.7420  126.2730   67.9250 N   0  0  0  0  0  0  0  0  0  0  0  0
  129.7760  126.1270   66.5790 C   0  0  0  0  0  0  0  0  0  0  0  0
  130.7490  124.7370   66.0410 S   0  0  0  0  0  0  0  0  0  0  0  0
  132.4200  125.3480   65.6340 C   0  0  0  0  0  0  0  0  0  0  0  0
  132.9160  124.9920   64.2240 C   0  0  0  0  0  0  0  0  0  0  0  0
  133.9940  124.4160   64.0620 O   0  0  0  0  0  0  0  0  0  0  0  0
  132.0840  125.3580   63.2240 N   0  0  0  0  0  0  0  0  0  0  0  0
  132.2810  125.1530   61.8650 C   0  0  0  0  0  0  0  0  0  0  0  0
  131.8800  125.9110   60.8670 N   0  0  0  0  0  0  0  0  0  0  0  0
  132.2470  125.4150   59.7020 C   0  0  0  0  0  0  0  0  0  0  0  0
  132.9650  124.2230   59.7400 C   0  0  0  0  0  0  0  0  0  0  0  0
  133.1630  123.7350   61.3960 S   0  0  0  0  0  0  0  0  0  0  0  0
  127.7568  129.0101   68.1376 H   0  0  0  0  0  0  0  0  0  0  0  0
  130.9913  128.2616   70.0939 H   0  0  0  0  0  0  0  0  0  0  0  0
  130.9929  128.4076   72.5777 H   0  0  0  0  0  0  0  0  0  0  0  0
  129.0261  127.5949   73.8711 H   0  0  0  0  0  0  0  0  0  0  0  0
  127.0545  126.6396   72.6881 H   0  0  0  0  0  0  0  0  0  0  0  0
  127.0478  126.4952   70.2073 H   0  0  0  0  0  0  0  0  0  0  0  0
  132.4147  126.4440   65.7272 H   0  0  0  0  0  0  0  0  0  0  0  0
  133.1076  124.8533   66.3358 H   0  0  0  0  0  0  0  0  0  0  0  0
  131.2230  125.8190   63.4790 H   0  0  0  0  0  0  0  0  0  0  0  0
  131.9999  125.9147   58.7537 H   0  0  0  0  0  0  0  0  0  0  0  0
  133.3455  123.6781   58.8635 H   0  0  0  0  0  0  0  0  0  0  0  0
  1  2  3  0
  2  3  1  0
  3  4  2  0
  4  5  1  0
  5  6  1  0
  5  7  1  0
  5  8  1  0
  4  9  1  0
  9 10  2  0
 10 11  1  0
 11 12  2  0
 12 13  1  0
 13 14  2  0
 14 15  1  0
 15 16  2  0
 10 17  1  0
 17 18  2  0
 18 19  1  0
 19 20  1  0
 20 21  1  0
 21 22  2  0
 21 23  1  0
 23 24  1  0
 24 25  2  0
 25 26  1  0
 26 27  2  0
 27 28  1  0
 18  3  1  0
 28 24  1  0
 16 11  1  0
  9 29  1  0
 12 30  1  0
 13 31  1  0
 14 32  1  0
 15 33  1  0
 16 34  1  0
 20 35  1  0
 20 36  1  0
 23 37  1  0
 26 38  1  0
 27 39  1  0
M  END
>  <Binding energies>  (1) 
[-7.1]

>  <Ligand effiencies>  (1) 
[-0.24482758620689654]

>  <Interactions>  (1) 
["V-A:ASP:366:CG:3213, V-A:ASP:366:CB:3212, V-B:TYR:539:CE2:9848, V-B:GLU:543:CG:9879, V-B:GLU:543:CB:9878, H-A:TYR:484:OH:4348, V-A:GLU:543:CD:4908, V-A:ARG:545:CZ:4926, V-B:GLU:543:CD:9880, V-B:HIS:456:CE1:9041, V-A:GLY:544:C:4912, V-B:GLY:544:C:9884, V-B:GLU:543:C:9874, V-B:HIS:456:CD2:9039, V-A:HIS:456:CE1:4070, V-A:GLU:543:CG:4907, V-A:GLU:543:C:4902, V-A:GLU:543:CB:4906, H-A:GLU:543:OE1:4909, H-A:GLU:543:OE2:4910, V-B:TYR:484:CZ:9318, H-A:ARG:545:NH2:4928, H-A:GLY:454:N:4050"]

$$$$
3ak_Grossjean_2025
     RDKit          3D

 57 58  0  0  0  0  0  0  0  0999 V2000
  127.4190  122.5180   56.0180 C   0  0  0  0  0  0  0  0  0  0  0  0
  126.1380  121.9090   56.0610 O   0  0  0  0  0  0  0  0  0  0  0  0
  125.2000  122.6240   56.8520 C   0  0  0  0  0  0  0  0  0  0  0  0
  125.9360  123.7150   57.6390 C   0  0  0  0  0  0  0  0  0  0  0  0
  124.9880  124.4610   58.3940 O   0  0  0  0  0  0  0  0  0  0  0  0
  124.7150  123.9640   59.7020 C   0  0  0  0  0  0  0  0  0  0  0  0
  125.8020  124.3090   60.7360 C   0  0  0  0  0  0  0  0  0  0  0  0
  126.1630  123.1330   61.4460 O   0  0  0  0  0  0  0  0  0  0  0  0
  127.4840  122.6810   61.1790 C   0  0  0  0  0  0  0  0  0  0  0  0
  128.2180  122.3770   62.4980 C   0  0  0  0  0  0  0  0  0  0  0  0
  128.5850  123.5770   63.2540 N   0  0  0  0  0  0  0  0  0  0  0  0
  129.7370  123.7670   63.9240 C   0  0  0  0  0  0  0  0  0  0  0  0
  130.6370  122.9260   63.9540 O   0  0  0  0  0  0  0  0  0  0  0  0
  129.9430  125.0870   64.6850 C   0  0  0  0  0  0  0  0  0  0  0  0
  130.6210  126.4890   63.7220 S   0  0  0  0  0  0  0  0  0  0  0  0
  131.1580  125.8840   62.1300 C   0  0  0  0  0  0  0  0  0  0  0  0
  130.3060  126.1080   61.0990 N   0  0  0  0  0  0  0  0  0  0  0  0
  130.6230  125.6800   59.8510 C   0  0  0  0  0  0  0  0  0  0  0  0
  129.6240  125.9710   58.7710 C   0  0  0  0  0  0  0  0  0  0  0  0
  129.9610  125.8080   57.4190 C   0  0  0  0  0  0  0  0  0  0  0  0
  129.0360  126.0730   56.4120 C   0  0  0  0  0  0  0  0  0  0  0  0
  127.7570  126.5050   56.7460 C   0  0  0  0  0  0  0  0  0  0  0  0
  127.3970  126.6720   58.0780 C   0  0  0  0  0  0  0  0  0  0  0  0
  128.3230  126.4050   59.0830 C   0  0  0  0  0  0  0  0  0  0  0  0
  131.8320  125.0200   59.6050 C   0  0  0  0  0  0  0  0  0  0  0  0
  132.7320  124.7760   60.6530 C   0  0  0  0  0  0  0  0  0  0  0  0
  134.0530  124.0440   60.3440 C   0  0  0  0  0  0  0  0  0  0  0  0
  133.9810  122.7790   60.7560 F   0  0  0  0  0  0  0  0  0  0  0  0
  134.2870  124.0590   59.0300 F   0  0  0  0  0  0  0  0  0  0  0  0
  135.1070  124.6030   60.9430 F   0  0  0  0  0  0  0  0  0  0  0  0
  132.3900  125.2170   61.9540 C   0  0  0  0  0  0  0  0  0  0  0  0
  133.2930  124.9900   63.0880 C   0  0  0  0  0  0  0  0  0  0  0  0
  134.0040  124.8100   63.9840 N   0  0  0  0  0  0  0  0  0  0  0  0
  127.7784  122.6889   57.0435 H   0  0  0  0  0  0  0  0  0  0  0  0
  128.1214  121.8575   55.4886 H   0  0  0  0  0  0  0  0  0  0  0  0
  127.3502  123.4798   55.4886 H   0  0  0  0  0  0  0  0  0  0  0  0
  124.4446  123.0864   56.1996 H   0  0  0  0  0  0  0  0  0  0  0  0
  124.7024  121.9350   57.5503 H   0  0  0  0  0  0  0  0  0  0  0  0
  126.6657  123.2508   58.3187 H   0  0  0  0  0  0  0  0  0  0  0  0
  126.4650  124.3826   56.9430 H   0  0  0  0  0  0  0  0  0  0  0  0
  123.7618  124.3931   60.0443 H   0  0  0  0  0  0  0  0  0  0  0  0
  124.6796  122.8671   59.6275 H   0  0  0  0  0  0  0  0  0  0  0  0
  126.6855  124.7127   60.2199 H   0  0  0  0  0  0  0  0  0  0  0  0
  125.4163  125.0612   61.4398 H   0  0  0  0  0  0  0  0  0  0  0  0
  127.4390  121.7667   60.5690 H   0  0  0  0  0  0  0  0  0  0  0  0
  128.0300  123.4672   60.6370 H   0  0  0  0  0  0  0  0  0  0  0  0
  127.5618  121.7570   63.1265 H   0  0  0  0  0  0  0  0  0  0  0  0
  129.1538  121.8619   62.2355 H   0  0  0  0  0  0  0  0  0  0  0  0
  127.9030  124.3220   63.2600 H   0  0  0  0  0  0  0  0  0  0  0  0
  128.9666  125.3978   65.0852 H   0  0  0  0  0  0  0  0  0  0  0  0
  130.7016  124.8661   65.4503 H   0  0  0  0  0  0  0  0  0  0  0  0
  130.9712  125.4657   57.1501 H   0  0  0  0  0  0  0  0  0  0  0  0
  129.3161  125.9411   55.3565 H   0  0  0  0  0  0  0  0  0  0  0  0
  127.0261  126.7157   55.9514 H   0  0  0  0  0  0  0  0  0  0  0  0
  126.3842  127.0139   58.3373 H   0  0  0  0  0  0  0  0  0  0  0  0
  128.0329  126.5354   60.1360 H   0  0  0  0  0  0  0  0  0  0  0  0
  132.0780  124.6908   58.5846 H   0  0  0  0  0  0  0  0  0  0  0  0
  1  2  1  0
  2  3  1  0
  3  4  1  0
  4  5  1  0
  5  6  1  0
  6  7  1  0
  7  8  1  0
  8  9  1  0
  9 10  1  0
 10 11  1  0
 11 12  1  0
 12 13  2  0
 12 14  1  0
 14 15  1  0
 15 16  1  0
 16 17  2  0
 17 18  1  0
 18 19  1  0
 19 20  2  0
 20 21  1  0
 21 22  2  0
 22 23  1  0
 23 24  2  0
 18 25  2  0
 25 26  1  0
 26 27  1  0
 27 28  1  0
 27 29  1  0
 27 30  1  0
 26 31  2  0
 31 32  1  0
 32 33  3  0
 31 16  1  0
 24 19  1  0
  1 34  1  0
  1 35  1  0
  1 36  1  0
  3 37  1  0
  3 38  1  0
  4 39  1  0
  4 40  1  0
  6 41  1  0
  6 42  1  0
  7 43  1  0
  7 44  1  0
  9 45  1  0
  9 46  1  0
 10 47  1  0
 10 48  1  0
 11 49  1  0
 14 50  1  0
 14 51  1  0
 20 52  1  0
 21 53  1  0
 22 54  1  0
 23 55  1  0
 24 56  1  0
 25 57  1  0
M  END
>  <Binding energies>  (1) 
[-6.03]

>  <Ligand effiencies>  (1) 
[-0.1773529411764706]

>  <Interactions>  (1) 
["V-A:ASP:366:CG:3213, V-A:ASP:366:CB:3212, V-B:TYR:539:CZ:9849, V-B:PRO:540:N:9856, V-B:TYR:539:CE1:9847, V-B:PRO:540:CB:9857, V-B:TYR:539:CD1:9845, V-B:PRO:540:CA:9855, V-B:TYR:539:CE2:9848, H-B:TYR:539:N:9842, V-B:PRO:540:CD:9859, V-B:MET:535:CE:9807, V-B:LEU:363:CD1:8160, V-B:PRO:540:CG:9858, V-B:TYR:539:CG:9844, H-B:GLU:543:OE1:9881, V-B:PRO:540:C:9853, H-B:ALA:541:N:9863, V-B:ALA:541:CB:9864, V-A:ASP:366:C:3208, V-A:ASP:366:CA:3210, V-A:ILE:369:CD1:3239, V-B:GLU:543:CG:9879, V-A:ILE:369:CB:3236, V-A:ILE:369:CG2:3237, H-A:ARG:545:NE:4924, V-A:ARG:545:CZ:4926, V-B:GLU:543:CD:9880, H-A:ARG:545:NH2:4928, H-A:GLY:454:N:4050, V-B:ALA:541:CA:9862, V-A:ILE:369:CG1:3238, H-A:ARG:545:NH1:4927"]

$$$$
3bc_Grossjean_2025
     RDKit          3D

 47 49  0  0  0  0  0  0  0  0999 V2000
  128.7440  133.4770   55.8310 C   0  0  0  0  0  0  0  0  0  0  0  0
  129.9260  133.3290   56.6100 O   0  0  0  0  0  0  0  0  0  0  0  0
  130.2660  132.0770   57.0880 C   0  0  0  0  0  0  0  0  0  0  0  0
  131.6280  131.7910   57.1700 C   0  0  0  0  0  0  0  0  0  0  0  0
  132.0670  130.5560   57.6390 C   0  0  0  0  0  0  0  0  0  0  0  0
  131.1440  129.5830   58.0270 C   0  0  0  0  0  0  0  0  0  0  0  0
  131.6810  128.3710   58.4990 N   0  0  0  0  0  0  0  0  0  0  0  0
  131.2740  127.1070   58.2570 C   0  0  0  0  0  0  0  0  0  0  0  0
  130.3400  126.8010   57.5130 O   0  0  0  0  0  0  0  0  0  0  0  0
  132.1020  126.0210   58.9590 C   0  0  0  0  0  0  0  0  0  0  0  0
  131.5270  125.5660   60.6300 S   0  0  0  0  0  0  0  0  0  0  0  0
  130.5150  124.1100   60.4790 C   0  0  0  0  0  0  0  0  0  0  0  0
  129.4260  124.2820   59.6900 N   0  0  0  0  0  0  0  0  0  0  0  0
  128.5680  123.2480   59.4860 C   0  0  0  0  0  0  0  0  0  0  0  0
  127.3770  123.5270   58.6180 C   0  0  0  0  0  0  0  0  0  0  0  0
  126.4720  124.5470   58.9480 C   0  0  0  0  0  0  0  0  0  0  0  0
  125.3650  124.8120   58.1470 C   0  0  0  0  0  0  0  0  0  0  0  0
  125.1460  124.0540   57.0010 C   0  0  0  0  0  0  0  0  0  0  0  0
  126.0260  123.0350   56.6520 C   0  0  0  0  0  0  0  0  0  0  0  0
  127.1320  122.7730   57.4580 C   0  0  0  0  0  0  0  0  0  0  0  0
  128.7900  122.0020   60.0820 C   0  0  0  0  0  0  0  0  0  0  0  0
  129.9220  121.8020   60.8800 C   0  0  0  0  0  0  0  0  0  0  0  0
  130.1330  120.4190   61.4960 C   0  0  0  0  0  0  0  0  0  0  0  0
  130.8210  122.8700   61.0850 C   0  0  0  0  0  0  0  0  0  0  0  0
  132.0370  122.6690   61.8760 C   0  0  0  0  0  0  0  0  0  0  0  0
  132.9970  122.5080   62.5020 N   0  0  0  0  0  0  0  0  0  0  0  0
  129.7720  129.8670   57.9610 C   0  0  0  0  0  0  0  0  0  0  0  0
  129.3370  131.1040   57.4910 C   0  0  0  0  0  0  0  0  0  0  0  0
  127.8763  133.5856   56.4983 H   0  0  0  0  0  0  0  0  0  0  0  0
  128.8327  134.3711   55.1963 H   0  0  0  0  0  0  0  0  0  0  0  0
  128.6095  132.5887   55.1963 H   0  0  0  0  0  0  0  0  0  0  0  0
  132.3631  132.5488   56.8610 H   0  0  0  0  0  0  0  0  0  0  0  0
  133.1448  130.3460   57.7041 H   0  0  0  0  0  0  0  0  0  0  0  0
  132.5230  128.4730   59.0480 H   0  0  0  0  0  0  0  0  0  0  0  0
  132.0785  125.1169   58.3329 H   0  0  0  0  0  0  0  0  0  0  0  0
  133.1109  126.4404   59.0865 H   0  0  0  0  0  0  0  0  0  0  0  0
  126.6400  125.1470   59.8545 H   0  0  0  0  0  0  0  0  0  0  0  0
  124.6664  125.6171   58.4188 H   0  0  0  0  0  0  0  0  0  0  0  0
  124.2714  124.2619   56.3670 H   0  0  0  0  0  0  0  0  0  0  0  0
  125.8497  122.4390   55.7444 H   0  0  0  0  0  0  0  0  0  0  0  0
  127.8238  121.9636   57.1819 H   0  0  0  0  0  0  0  0  0  0  0  0
  128.0757  121.1806   59.9236 H   0  0  0  0  0  0  0  0  0  0  0  0
  130.1206  120.5004   62.5929 H   0  0  0  0  0  0  0  0  0  0  0  0
  129.3273  119.7452   61.1692 H   0  0  0  0  0  0  0  0  0  0  0  0
  131.1030  120.0161   61.1692 H   0  0  0  0  0  0  0  0  0  0  0  0
  129.0387  129.1120   58.2808 H   0  0  0  0  0  0  0  0  0  0  0  0
  128.2598  131.3199   57.4352 H   0  0  0  0  0  0  0  0  0  0  0  0
  1  2  1  0
  2  3  1  0
  3  4  2  0
  4  5  1  0
  5  6  2  0
  6  7  1  0
  7  8  1  0
  8  9  2  0
  8 10  1  0
 10 11  1  0
 11 12  1  0
 12 13  2  0
 13 14  1  0
 14 15  1  0
 15 16  2  0
 16 17  1  0
 17 18  2  0
 18 19  1  0
 19 20  2  0
 14 21  2  0
 21 22  1  0
 22 23  1  0
 22 24  2  0
 24 25  1  0
 25 26  3  0
  6 27  1  0
 27 28  2  0
 28  3  1  0
 24 12  1  0
 20 15  1  0
  1 29  1  0
  1 30  1  0
  1 31  1  0
  4 32  1  0
  5 33  1  0
  7 34  1  0
 10 35  1  0
 10 36  1  0
 16 37  1  0
 17 38  1  0
 18 39  1  0
 19 40  1  0
 20 41  1  0
 21 42  1  0
 23 43  1  0
 23 44  1  0
 23 45  1  0
 27 46  1  0
 28 47  1  0
M  END
>  <Binding energies>  (1) 
[-7.8]

>  <Ligand effiencies>  (1) 
[-0.2689655172413793]

>  <Interactions>  (1) 
["V-A:LEU:363:CD1:3189, V-A:ASP:366:CG:3213, H-A:TYR:531:OH:4795, H-A:ASP:366:OD2:3215, V-A:ASP:366:CB:3212, H-A:TYR:539:N:4870, V-B:PRO:540:N:9856, V-B:PRO:540:CA:9855, V-B:TYR:539:CE2:9848, V-B:MET:535:CE:9807, V-B:LEU:363:CD1:8160, V-B:TYR:539:C:9839, V-B:TYR:539:CD2:9846, V-A:MET:535:CE:4835, V-B:TYR:531:CE2:9765, V-B:ALA:541:CB:9864, V-A:LEU:475:CD2:4259, V-A:TYR:531:CZ:4794, V-A:TYR:539:CE1:4875, V-A:TYR:539:CZ:4877, V-A:TYR:539:CD1:4873, V-A:TYR:539:CD2:4874, V-A:ILE:538:CA:4860, V-A:TYR:539:CG:4872, V-A:TYR:539:CE2:4876, V-A:TYR:531:CE2:4793, V-A:ILE:538:C:4858, V-A:ILE:538:CB:4862, H-A:ASP:366:OD1:3214"]

$$$$
3bd_Grossjean_2025
     RDKit          3D

 43 45  0  0  0  0  0  0  0  0999 V2000
  127.3830  123.6290   56.6320 C   0  0  0  0  0  0  0  0  0  0  0  0
  128.3610  124.1780   57.6690 C   0  0  0  0  0  0  0  0  0  0  0  0
  128.3010  123.6670   58.9710 C   0  0  0  0  0  0  0  0  0  0  0  0
  129.1780  124.1470   59.9510 C   0  0  0  0  0  0  0  0  0  0  0  0
  129.1700  123.6410   61.3630 C   0  0  0  0  0  0  0  0  0  0  0  0
  130.3580  123.5730   62.1070 C   0  0  0  0  0  0  0  0  0  0  0  0
  130.3580  123.1020   63.4180 C   0  0  0  0  0  0  0  0  0  0  0  0
  129.1650  122.6920   64.0040 C   0  0  0  0  0  0  0  0  0  0  0  0
  127.9750  122.7460   63.2870 C   0  0  0  0  0  0  0  0  0  0  0  0
  127.9790  123.2170   61.9770 C   0  0  0  0  0  0  0  0  0  0  0  0
  130.1020  125.0980   59.6520 N   0  0  0  0  0  0  0  0  0  0  0  0
  130.1740  125.6040   58.3950 C   0  0  0  0  0  0  0  0  0  0  0  0
  131.4210  126.8550   58.1360 S   0  0  0  0  0  0  0  0  0  0  0  0
  132.8640  126.0590   57.3670 C   0  0  0  0  0  0  0  0  0  0  0  0
  133.3190  124.8230   58.1440 C   0  0  0  0  0  0  0  0  0  0  0  0
  134.0020  123.9740   57.5710 O   0  0  0  0  0  0  0  0  0  0  0  0
  132.9080  124.7550   59.4290 N   0  0  0  0  0  0  0  0  0  0  0  0
  133.1810  123.7680   60.3950 C   0  0  0  0  0  0  0  0  0  0  0  0
  132.8220  122.4610   60.0570 C   0  0  0  0  0  0  0  0  0  0  0  0
  133.0460  121.4190   60.9530 C   0  0  0  0  0  0  0  0  0  0  0  0
  133.6200  121.6850   62.1930 C   0  0  0  0  0  0  0  0  0  0  0  0
  133.9700  122.9870   62.5470 C   0  0  0  0  0  0  0  0  0  0  0  0
  133.7490  124.0300   61.6530 C   0  0  0  0  0  0  0  0  0  0  0  0
  129.3150  125.1720   57.3620 C   0  0  0  0  0  0  0  0  0  0  0  0
  129.4040  125.7260   56.0070 C   0  0  0  0  0  0  0  0  0  0  0  0
  129.4740  126.1610   54.9380 N   0  0  0  0  0  0  0  0  0  0  0  0
  126.5343  123.1526   57.1446 H   0  0  0  0  0  0  0  0  0  0  0  0
  127.0156  124.4527   56.0023 H   0  0  0  0  0  0  0  0  0  0  0  0
  127.8949  122.8863   56.0023 H   0  0  0  0  0  0  0  0  0  0  0  0
  127.5655  122.8891   59.2238 H   0  0  0  0  0  0  0  0  0  0  0  0
  131.3038  123.8966   61.6479 H   0  0  0  0  0  0  0  0  0  0  0  0
  131.2978  123.0545   63.9876 H   0  0  0  0  0  0  0  0  0  0  0  0
  129.1630  122.3230   65.0403 H   0  0  0  0  0  0  0  0  0  0  0  0
  127.0342  122.4179   63.7530 H   0  0  0  0  0  0  0  0  0  0  0  0
  127.0351  123.2580   61.4136 H   0  0  0  0  0  0  0  0  0  0  0  0
  132.5991  125.7570   56.3430 H   0  0  0  0  0  0  0  0  0  0  0  0
  133.6916  126.7837   57.3670 H   0  0  0  0  0  0  0  0  0  0  0  0
  132.2750  125.4790   59.7360 H   0  0  0  0  0  0  0  0  0  0  0  0
  132.3609  122.2543   59.0799 H   0  0  0  0  0  0  0  0  0  0  0  0
  132.7703  120.3892   60.6819 H   0  0  0  0  0  0  0  0  0  0  0  0
  133.7989  120.8609   62.8993 H   0  0  0  0  0  0  0  0  0  0  0  0
  134.4196  123.1893   63.5303 H   0  0  0  0  0  0  0  0  0  0  0  0
  134.0189  125.0595   61.9311 H   0  0  0  0  0  0  0  0  0  0  0  0
  1  2  1  0
  2  3  2  0
  3  4  1  0
  4  5  1  0
  5  6  2  0
  6  7  1  0
  7  8  2  0
  8  9  1  0
  9 10  2  0
  4 11  2  0
 11 12  1  0
 12 13  1  0
 13 14  1  0
 14 15  1  0
 15 16  2  0
 15 17  1  0
 17 18  1  0
 18 19  2  0
 19 20  1  0
 20 21  2  0
 21 22  1  0
 22 23  2  0
 12 24  2  0
 24 25  1  0
 25 26  3  0
 24  2  1  0
 10  5  1  0
 23 18  1  0
  1 27  1  0
  1 28  1  0
  1 29  1  0
  3 30  1  0
  6 31  1  0
  7 32  1  0
  8 33  1  0
  9 34  1  0
 10 35  1  0
 14 36  1  0
 14 37  1  0
 17 38  1  0
 19 39  1  0
 20 40  1  0
 21 41  1  0
 22 42  1  0
 23 43  1  0
M  END
>  <Binding energies>  (1) 
[-7.49]

>  <Ligand effiencies>  (1) 
[-0.27740740740740744]

>  <Interactions>  (1) 
["V-A:ASP:366:CG:3213, H-A:TYR:531:OH:4795, H-B:TYR:539:OH:9850, V-A:ASP:366:CB:3212, V-B:TYR:539:CZ:9849, V-B:TYR:539:CE1:9847, V-B:TYR:539:CE2:9848, V-B:TYR:539:CD2:9846, V-B:ALA:541:CB:9864, V-A:ASP:366:C:3208, V-A:ASP:366:CA:3210, V-A:ILE:369:CD1:3239, V-B:GLU:543:CG:9879, H-A:ASN:370:N:3244, V-A:ILE:369:CG2:3237, V-A:LEU:475:CD2:4259, V-A:GLY:454:CA:4049, V-B:GLU:543:CD:9880, V-A:TYR:531:CZ:4794, V-B:ALA:541:CA:9862, H-A:ASP:366:OD1:3214"]

$$$$
3be_Grossjean_2025
     RDKit          3D

 45 47  0  0  0  0  0  0  0  0999 V2000
  126.5580  123.5460   58.4930 C   0  0  0  0  0  0  0  0  0  0  0  0
  127.3910  123.2600   59.7270 C   0  0  0  0  0  0  0  0  0  0  0  0
  126.8850  123.4620   61.0140 C   0  0  0  0  0  0  0  0  0  0  0  0
  127.7090  123.1800   62.1040 C   0  0  0  0  0  0  0  0  0  0  0  0
  129.0050  122.7050   61.8840 C   0  0  0  0  0  0  0  0  0  0  0  0
  129.4480  122.5210   60.5690 C   0  0  0  0  0  0  0  0  0  0  0  0
  130.7660  122.0520   60.4140 N   0  0  0  0  0  0  0  0  0  0  0  0
  131.3090  120.8970   60.8550 C   0  0  0  0  0  0  0  0  0  0  0  0
  130.7020  120.0380   61.4980 O   0  0  0  0  0  0  0  0  0  0  0  0
  132.7900  120.7040   60.4920 C   0  0  0  0  0  0  0  0  0  0  0  0
  133.9320  121.9320   61.2120 S   0  0  0  0  0  0  0  0  0  0  0  0
  133.0550  123.4720   61.3750 C   0  0  0  0  0  0  0  0  0  0  0  0
  132.6800  123.7520   62.6480 N   0  0  0  0  0  0  0  0  0  0  0  0
  132.0050  124.9010   62.9180 C   0  0  0  0  0  0  0  0  0  0  0  0
  131.6150  125.1280   64.3490 C   0  0  0  0  0  0  0  0  0  0  0  0
  130.2650  125.1240   64.7330 C   0  0  0  0  0  0  0  0  0  0  0  0
  129.8960  125.3370   66.0580 C   0  0  0  0  0  0  0  0  0  0  0  0
  130.8750  125.5580   67.0210 C   0  0  0  0  0  0  0  0  0  0  0  0
  132.2190  125.5680   66.6660 C   0  0  0  0  0  0  0  0  0  0  0  0
  132.5840  125.3560   65.3400 C   0  0  0  0  0  0  0  0  0  0  0  0
  131.6870  125.8020   61.8970 C   0  0  0  0  0  0  0  0  0  0  0  0
  132.0870  125.5410   60.5830 C   0  0  0  0  0  0  0  0  0  0  0  0
  131.7320  126.5620   59.5040 C   0  0  0  0  0  0  0  0  0  0  0  0
  132.8010  124.3550   60.3020 C   0  0  0  0  0  0  0  0  0  0  0  0
  133.2770  124.0880   58.9430 C   0  0  0  0  0  0  0  0  0  0  0  0
  133.6530  123.8790   57.8680 N   0  0  0  0  0  0  0  0  0  0  0  0
  128.6470  122.7990   59.4980 N   0  0  0  0  0  0  0  0  0  0  0  0
  125.5581  123.8893   58.7970 H   0  0  0  0  0  0  0  0  0  0  0  0
  127.0474  124.3276   57.8933 H   0  0  0  0  0  0  0  0  0  0  0  0
  126.4641  122.6286   57.8933 H   0  0  0  0  0  0  0  0  0  0  0  0
  125.8610  123.8346   61.1641 H   0  0  0  0  0  0  0  0  0  0  0  0
  127.3412  123.3305   63.1297 H   0  0  0  0  0  0  0  0  0  0  0  0
  129.6676  122.4789   62.7324 H   0  0  0  0  0  0  0  0  0  0  0  0
  131.3830  122.6860   59.9280 H   0  0  0  0  0  0  0  0  0  0  0  0
  133.0986  119.7071   60.8398 H   0  0  0  0  0  0  0  0  0  0  0  0
  132.8559  120.8282   59.4010 H   0  0  0  0  0  0  0  0  0  0  0  0
  129.4868  124.9499   63.9753 H   0  0  0  0  0  0  0  0  0  0  0  0
  128.8335  125.3306   66.3427 H   0  0  0  0  0  0  0  0  0  0  0  0
  130.5843  125.7257   68.0686 H   0  0  0  0  0  0  0  0  0  0  0  0
  132.9908  125.7428   67.4301 H   0  0  0  0  0  0  0  0  0  0  0  0
  133.6486  125.3671   65.0634 H   0  0  0  0  0  0  0  0  0  0  0  0
  131.1216  126.7169   62.1279 H   0  0  0  0  0  0  0  0  0  0  0  0
  131.4062  127.4991   59.9790 H   0  0  0  0  0  0  0  0  0  0  0  0
  132.6154  126.7561   58.8780 H   0  0  0  0  0  0  0  0  0  0  0  0
  130.9188  126.1661   58.8780 H   0  0  0  0  0  0  0  0  0  0  0  0
  1  2  1  0
  2  3  2  0
  3  4  1  0
  4  5  2  0
  5  6  1  0
  6  7  1  0
  7  8  1  0
  8  9  2  0
  8 10  1  0
 10 11  1  0
 11 12  1  0
 12 13  2  0
 13 14  1  0
 14 15  1  0
 15 16  2  0
 16 17  1  0
 17 18  2  0
 18 19  1  0
 19 20  2  0
 14 21  2  0
 21 22  1  0
 22 23  1  0
 22 24  2  0
 24 25  1  0
 25 26  3  0
  6 27  2  0
 27  2  1  0
 24 12  1  0
 20 15  1  0
  1 28  1  0
  1 29  1  0
  1 30  1  0
  3 31  1  0
  4 32  1  0
  5 33  1  0
  7 34  1  0
 10 35  1  0
 10 36  1  0
 16 37  1  0
 17 38  1  0
 18 39  1  0
 19 40  1  0
 20 41  1  0
 21 42  1  0
 23 43  1  0
 23 44  1  0
 23 45  1  0
M  END
>  <Binding energies>  (1) 
[-7.54]

>  <Ligand effiencies>  (1) 
[-0.2692857142857143]

>  <Interactions>  (1) 
["V-A:ASP:366:CG:3213, H-B:TYR:539:OH:9850, V-A:ASP:366:CB:3212, V-B:TYR:539:CZ:9849, V-B:PRO:540:N:9856, V-B:PRO:540:CB:9857, V-B:PRO:540:CA:9855, V-B:TYR:539:CE2:9848, V-B:TYR:539:CD2:9846, V-B:ALA:541:CB:9864, V-A:ASP:366:CA:3210, V-B:GLU:543:CG:9879, V-A:ILE:369:CG2:3237, V-A:LEU:475:CD2:4259, V-A:TYR:484:CZ:4347, V-B:GLU:543:CB:9878, V-A:ARG:545:CZ:4926, V-B:GLU:543:CD:9880, V-A:HIS:456:CE1:4070, V-A:ARG:545:CG:4922, V-A:ARG:545:CD:4923, V-A:SER:385:CB:3409"]

$$$$
3bf_Grossjean_2025
     RDKit          3D

 42 44  0  0  0  0  0  0  0  0999 V2000
  134.4910  124.2630   59.5530 C   0  0  0  0  0  0  0  0  0  0  0  0
  132.9700  124.2360   59.6910 C   0  0  0  0  0  0  0  0  0  0  0  0
  132.2120  124.9770   58.7790 C   0  0  0  0  0  0  0  0  0  0  0  0
  130.8150  124.9680   58.8600 C   0  0  0  0  0  0  0  0  0  0  0  0
  129.9460  125.7220   57.9000 C   0  0  0  0  0  0  0  0  0  0  0  0
  129.9150  127.1250   57.9110 C   0  0  0  0  0  0  0  0  0  0  0  0
  129.1100  127.8330   57.0230 C   0  0  0  0  0  0  0  0  0  0  0  0
  128.3210  127.1430   56.1080 C   0  0  0  0  0  0  0  0  0  0  0  0
  128.3320  125.7530   56.0770 C   0  0  0  0  0  0  0  0  0  0  0  0
  129.1380  125.0490   56.9680 C   0  0  0  0  0  0  0  0  0  0  0  0
  130.1780  124.2450   59.8190 N   0  0  0  0  0  0  0  0  0  0  0  0
  130.8990  123.5420   60.7260 C   0  0  0  0  0  0  0  0  0  0  0  0
  129.8980  122.6640   61.9080 S   0  0  0  0  0  0  0  0  0  0  0  0
  128.3450  123.5950   62.1360 C   0  0  0  0  0  0  0  0  0  0  0  0
  127.2460  123.2930   61.1060 C   0  0  0  0  0  0  0  0  0  0  0  0
  126.0940  123.0520   61.4680 O   0  0  0  0  0  0  0  0  0  0  0  0
  127.6510  123.3490   59.8180 N   0  0  0  0  0  0  0  0  0  0  0  0
  126.9060  123.1160   58.6470 C   0  0  0  0  0  0  0  0  0  0  0  0
  125.6830  123.7850   58.5250 C   0  0  0  0  0  0  0  0  0  0  0  0
  124.9030  123.6070   57.3810 C   0  0  0  0  0  0  0  0  0  0  0  0
  125.3760  122.7590   56.3780 C   0  0  0  0  0  0  0  0  0  0  0  0
  126.5620  122.1060   56.4650 N   0  0  0  0  0  0  0  0  0  0  0  0
  127.3090  122.2890   57.5840 C   0  0  0  0  0  0  0  0  0  0  0  0
  132.3100  123.4900   60.6920 C   0  0  0  0  0  0  0  0  0  0  0  0
  133.0830  122.6680   61.6270 C   0  0  0  0  0  0  0  0  0  0  0  0
  133.6950  122.0200   62.3650 N   0  0  0  0  0  0  0  0  0  0  0  0
  134.9498  124.2711   60.5527 H   0  0  0  0  0  0  0  0  0  0  0  0
  134.8252  123.3706   59.0034 H   0  0  0  0  0  0  0  0  0  0  0  0
  134.7933  125.1667   59.0034 H   0  0  0  0  0  0  0  0  0  0  0  0
  132.7139  125.5670   57.9979 H   0  0  0  0  0  0  0  0  0  0  0  0
  130.5370  127.6742   58.6331 H   0  0  0  0  0  0  0  0  0  0  0  0
  129.0977  128.9327   57.0446 H   0  0  0  0  0  0  0  0  0  0  0  0
  127.6847  127.7005   55.4049 H   0  0  0  0  0  0  0  0  0  0  0  0
  127.7067  125.2117   55.3517 H   0  0  0  0  0  0  0  0  0  0  0  0
  129.1422  123.9493   56.9418 H   0  0  0  0  0  0  0  0  0  0  0  0
  127.9498  123.3587   63.1350 H   0  0  0  0  0  0  0  0  0  0  0  0
  128.6027  124.6565   62.0061 H   0  0  0  0  0  0  0  0  0  0  0  0
  128.6050  123.6390   59.6570 H   0  0  0  0  0  0  0  0  0  0  0  0
  125.3366  124.4504   59.3296 H   0  0  0  0  0  0  0  0  0  0  0  0
  123.9377  124.1232   57.2724 H   0  0  0  0  0  0  0  0  0  0  0  0
  124.7603  122.6140   55.4780 H   0  0  0  0  0  0  0  0  0  0  0  0
  128.2737  121.7662   57.6624 H   0  0  0  0  0  0  0  0  0  0  0  0
  1  2  1  0
  2  3  2  0
  3  4  1  0
  4  5  1  0
  5  6  2  0
  6  7  1  0
  7  8  2  0
  8  9  1  0
  9 10  2  0
  4 11  2  0
 11 12  1  0
 12 13  1  0
 13 14  1  0
 14 15  1  0
 15 16  2  0
 15 17  1  0
 17 18  1  0
 18 19  2  0
 19 20  1  0
 20 21  2  0
 21 22  1  0
 22 23  2  0
 12 24  2  0
 24 25  1  0
 25 26  3  0
 24  2  1  0
 10  5  1  0
 23 18  1  0
  1 27  1  0
  1 28  1  0
  1 29  1  0
  3 30  1  0
  6 31  1  0
  7 32  1  0
  8 33  1  0
  9 34  1  0
 10 35  1  0
 14 36  1  0
 14 37  1  0
 17 38  1  0
 19 39  1  0
 20 40  1  0
 21 41  1  0
 23 42  1  0
M  END
>  <Binding energies>  (1) 
[-7.5]

>  <Ligand effiencies>  (1) 
[-0.2777777777777778]

>  <Interactions>  (1) 
["V-A:ASP:366:CG:3213, V-A:ASP:366:CB:3212, V-B:TYR:539:CZ:9849, V-B:PRO:540:N:9856, V-B:PRO:540:CB:9857, V-B:TYR:539:CD1:9845, V-B:PRO:540:CA:9855, V-B:TYR:539:CE2:9848, H-B:TYR:539:N:9842, V-B:PRO:540:CD:9859, V-B:MET:535:CE:9807, V-B:LEU:363:CD1:8160, V-B:TYR:539:C:9839, V-B:TYR:539:CG:9844, H-B:ALA:541:N:9863, V-B:TYR:539:CD2:9846, V-A:MET:535:CE:4835, V-A:ASP:366:C:3208, V-A:ASP:366:CA:3210, V-A:ILE:369:CD1:3239, V-A:ILE:369:CB:3236, V-A:ILE:369:CG2:3237, H-A:GLY:454:N:4050, V-B:ILE:538:CG2:9835, V-B:TYR:539:CA:9841, V-A:ILE:369:CG1:3238"]

$$$$
3bg_Grossjean_2025
     RDKit          3D

 46 48  0  0  0  0  0  0  0  0999 V2000
  134.1640  124.3720   59.6860 C   0  0  0  0  0  0  0  0  0  0  0  0
  132.6490  124.1810   59.6750 C   0  0  0  0  0  0  0  0  0  0  0  0
  131.8850  125.0050   58.8440 C   0  0  0  0  0  0  0  0  0  0  0  0
  130.4920  124.8590   58.7980 C   0  0  0  0  0  0  0  0  0  0  0  0
  129.6130  125.7040   57.9180 C   0  0  0  0  0  0  0  0  0  0  0  0
  129.0000  126.8680   58.4100 C   0  0  0  0  0  0  0  0  0  0  0  0
  128.2010  127.6630   57.5930 C   0  0  0  0  0  0  0  0  0  0  0  0
  127.9970  127.3030   56.2660 C   0  0  0  0  0  0  0  0  0  0  0  0
  128.5810  126.1500   55.7540 C   0  0  0  0  0  0  0  0  0  0  0  0
  129.3780  125.3570   56.5750 C   0  0  0  0  0  0  0  0  0  0  0  0
  129.8730  123.9060   59.5450 N   0  0  0  0  0  0  0  0  0  0  0  0
  130.6010  123.0950   60.3550 C   0  0  0  0  0  0  0  0  0  0  0  0
  129.6710  121.8640   61.2550 S   0  0  0  0  0  0  0  0  0  0  0  0
  128.6420  122.7180   62.4940 C   0  0  0  0  0  0  0  0  0  0  0  0
  127.3100  123.1880   61.9020 C   0  0  0  0  0  0  0  0  0  0  0  0
  126.2500  122.7760   62.3740 O   0  0  0  0  0  0  0  0  0  0  0  0
  127.3830  124.0280   60.8560 N   0  0  0  0  0  0  0  0  0  0  0  0
  126.2540  124.4550   60.0280 C   0  0  0  0  0  0  0  0  0  0  0  0
  126.2250  123.7250   58.6910 C   0  0  0  0  0  0  0  0  0  0  0  0
  127.3560  123.0330   58.2460 C   0  0  0  0  0  0  0  0  0  0  0  0
  127.3330  122.3740   57.0200 C   0  0  0  0  0  0  0  0  0  0  0  0
  126.1740  122.3980   56.2460 C   0  0  0  0  0  0  0  0  0  0  0  0
  125.0360  123.0670   56.6920 C   0  0  0  0  0  0  0  0  0  0  0  0
  125.0600  123.7270   57.9190 C   0  0  0  0  0  0  0  0  0  0  0  0
  132.0030  123.2030   60.4600 C   0  0  0  0  0  0  0  0  0  0  0  0
  132.7780  122.3190   61.3350 C   0  0  0  0  0  0  0  0  0  0  0  0
  133.3910  121.6220   62.0250 N   0  0  0  0  0  0  0  0  0  0  0  0
  134.5204  124.4169   60.7257 H   0  0  0  0  0  0  0  0  0  0  0  0
  134.6438  123.5272   59.1701 H   0  0  0  0  0  0  0  0  0  0  0  0
  134.4191  125.3094   59.1701 H   0  0  0  0  0  0  0  0  0  0  0  0
  132.3778  125.7693   58.2251 H   0  0  0  0  0  0  0  0  0  0  0  0
  129.1541  127.1567   59.4602 H   0  0  0  0  0  0  0  0  0  0  0  0
  127.7327  128.5730   57.9962 H   0  0  0  0  0  0  0  0  0  0  0  0
  127.3705  127.9334   55.6179 H   0  0  0  0  0  0  0  0  0  0  0  0
  128.4141  125.8655   54.7046 H   0  0  0  0  0  0  0  0  0  0  0  0
  129.8323  124.4424   56.1662 H   0  0  0  0  0  0  0  0  0  0  0  0
  128.4380  122.0265   63.3248 H   0  0  0  0  0  0  0  0  0  0  0  0
  129.1924  123.6043   62.8427 H   0  0  0  0  0  0  0  0  0  0  0  0
  128.2970  124.3090   60.5330 H   0  0  0  0  0  0  0  0  0  0  0  0
  125.3181  124.2473   60.5675 H   0  0  0  0  0  0  0  0  0  0  0  0
  126.3644  125.5310   59.8278 H   0  0  0  0  0  0  0  0  0  0  0  0
  128.2647  123.0094   58.8654 H   0  0  0  0  0  0  0  0  0  0  0  0
  128.2247  121.8372   56.6640 H   0  0  0  0  0  0  0  0  0  0  0  0
  126.1576  121.8838   55.2737 H   0  0  0  0  0  0  0  0  0  0  0  0
  124.1230  123.0741   56.0784 H   0  0  0  0  0  0  0  0  0  0  0  0
  124.1619  124.2496   58.2800 H   0  0  0  0  0  0  0  0  0  0  0  0
  1  2  1  0
  2  3  2  0
  3  4  1  0
  4  5  1  0
  5  6  2  0
  6  7  1  0
  7  8  2  0
  8  9  1  0
  9 10  2  0
  4 11  2  0
 11 12  1  0
 12 13  1  0
 13 14  1  0
 14 15  1  0
 15 16  2  0
 15 17  1  0
 17 18  1  0
 18 19  1  0
 19 20  2  0
 20 21  1  0
 21 22  2  0
 22 23  1  0
 23 24  2  0
 12 25  2  0
 25 26  1  0
 26 27  3  0
 25  2  1  0
 10  5  1  0
 24 19  1  0
  1 28  1  0
  1 29  1  0
  1 30  1  0
  3 31  1  0
  6 32  1  0
  7 33  1  0
  8 34  1  0
  9 35  1  0
 10 36  1  0
 14 37  1  0
 14 38  1  0
 17 39  1  0
 18 40  1  0
 18 41  1  0
 20 42  1  0
 21 43  1  0
 22 44  1  0
 23 45  1  0
 24 46  1  0
M  END
>  <Binding energies>  (1) 
[-7.49]

>  <Ligand effiencies>  (1) 
[-0.2675]

>  <Interactions>  (1) 
["V-A:ASP:366:CG:3213, V-A:ASP:366:CB:3212, V-B:TYR:539:CZ:9849, V-B:PRO:540:N:9856, V-B:TYR:539:CE1:9847, V-B:PRO:540:CB:9857, V-B:TYR:539:CD1:9845, V-B:PRO:540:CA:9855, V-B:TYR:539:CE2:9848, V-B:PRO:540:CD:9859, V-B:MET:535:CE:9807, V-B:LEU:363:CD1:8160, V-B:TYR:539:C:9839, V-B:TYR:539:CG:9844, H-B:ALA:541:N:9863, V-B:TYR:539:CD2:9846, V-B:ALA:541:CB:9864, V-A:ASP:366:CA:3210, V-A:ILE:369:CD1:3239, V-A:ILE:369:CB:3236, V-A:ILE:369:CG2:3237, V-A:LEU:475:CD2:4259, V-B:GLU:543:CD:9880, V-B:ILE:538:CG2:9835, V-B:TYR:539:CA:9841"]

$$$$
3bk_Grossjean_2025
     RDKit          3D

 57 58  0  0  0  0  0  0  0  0999 V2000
  125.0710  122.8080   56.9920 C   0  0  0  0  0  0  0  0  0  0  0  0
  125.9260  121.9410   56.2630 O   0  0  0  0  0  0  0  0  0  0  0  0
  127.2510  122.4350   56.1260 C   0  0  0  0  0  0  0  0  0  0  0  0
  127.8210  122.7740   57.5110 C   0  0  0  0  0  0  0  0  0  0  0  0
  128.6720  123.9070   57.4060 O   0  0  0  0  0  0  0  0  0  0  0  0
  128.1010  124.9890   56.6830 C   0  0  0  0  0  0  0  0  0  0  0  0
  129.2130  125.7510   55.9510 C   0  0  0  0  0  0  0  0  0  0  0  0
  129.5670  126.9050   56.7010 O   0  0  0  0  0  0  0  0  0  0  0  0
  130.1130  126.6140   57.9810 C   0  0  0  0  0  0  0  0  0  0  0  0
  131.5450  126.0830   57.8160 C   0  0  0  0  0  0  0  0  0  0  0  0
  131.9490  125.2170   58.9250 N   0  0  0  0  0  0  0  0  0  0  0  0
  132.9420  124.3110   58.8860 C   0  0  0  0  0  0  0  0  0  0  0  0
  133.6510  124.1160   57.8970 O   0  0  0  0  0  0  0  0  0  0  0  0
  133.1910  123.5170   60.1700 C   0  0  0  0  0  0  0  0  0  0  0  0
  133.4460  124.6060   61.6060 S   0  0  0  0  0  0  0  0  0  0  0  0
  131.9080  124.7620   62.4980 C   0  0  0  0  0  0  0  0  0  0  0  0
  130.7790  124.7180   61.7460 N   0  0  0  0  0  0  0  0  0  0  0  0
  129.5620  124.8320   62.3390 C   0  0  0  0  0  0  0  0  0  0  0  0
  128.3660  124.7520   61.4380 C   0  0  0  0  0  0  0  0  0  0  0  0
  127.5800  123.5900   61.3910 C   0  0  0  0  0  0  0  0  0  0  0  0
  126.4710  123.5080   60.5510 C   0  0  0  0  0  0  0  0  0  0  0  0
  126.1330  124.5900   59.7460 C   0  0  0  0  0  0  0  0  0  0  0  0
  126.8940  125.7550   59.7770 C   0  0  0  0  0  0  0  0  0  0  0  0
  128.0000  125.8330   60.6180 C   0  0  0  0  0  0  0  0  0  0  0  0
  129.4510  124.9890   63.7260 C   0  0  0  0  0  0  0  0  0  0  0  0
  130.6050  125.0380   64.5160 C   0  0  0  0  0  0  0  0  0  0  0  0
  130.4390  125.2120   66.0250 C   0  0  0  0  0  0  0  0  0  0  0  0
  131.8680  124.9230   63.9000 C   0  0  0  0  0  0  0  0  0  0  0  0
  133.0940  124.9680   64.7030 C   0  0  0  0  0  0  0  0  0  0  0  0
  134.0610  125.0050   65.3370 N   0  0  0  0  0  0  0  0  0  0  0  0
  125.2242  122.6527   58.0702 H   0  0  0  0  0  0  0  0  0  0  0  0
  125.3026  123.8523   56.7354 H   0  0  0  0  0  0  0  0  0  0  0  0
  124.0236  122.5910   56.7354 H   0  0  0  0  0  0  0  0  0  0  0  0
  127.8798  121.6687   55.6491 H   0  0  0  0  0  0  0  0  0  0  0  0
  127.2398  123.3421   55.5039 H   0  0  0  0  0  0  0  0  0  0  0  0
  126.9957  122.9976   58.2030 H   0  0  0  0  0  0  0  0  0  0  0  0
  128.3954  121.9168   57.8921 H   0  0  0  0  0  0  0  0  0  0  0  0
  127.3777  124.6009   55.9507 H   0  0  0  0  0  0  0  0  0  0  0  0
  127.5858  125.6670   57.3793 H   0  0  0  0  0  0  0  0  0  0  0  0
  130.0931  125.1003   55.8415 H   0  0  0  0  0  0  0  0  0  0  0  0
  128.8565  126.0547   54.9557 H   0  0  0  0  0  0  0  0  0  0  0  0
  130.1291  127.5299   58.5900 H   0  0  0  0  0  0  0  0  0  0  0  0
  129.4944  125.8537   58.4802 H   0  0  0  0  0  0  0  0  0  0  0  0
  131.6034  125.5087   56.8796 H   0  0  0  0  0  0  0  0  0  0  0  0
  132.2244  126.9480   57.8005 H   0  0  0  0  0  0  0  0  0  0  0  0
  131.4560  125.3550   59.7950 H   0  0  0  0  0  0  0  0  0  0  0  0
  132.3210  122.8722   60.3633 H   0  0  0  0  0  0  0  0  0  0  0  0
  134.1045  122.9207   60.0291 H   0  0  0  0  0  0  0  0  0  0  0  0
  127.8432  122.7316   62.0265 H   0  0  0  0  0  0  0  0  0  0  0  0
  125.8651  122.5903   60.5250 H   0  0  0  0  0  0  0  0  0  0  0  0
  125.2593  124.5250   59.0809 H   0  0  0  0  0  0  0  0  0  0  0  0
  126.6226  126.6097   59.1400 H   0  0  0  0  0  0  0  0  0  0  0  0
  128.5977  126.7562   60.6413 H   0  0  0  0  0  0  0  0  0  0  0  0
  128.4589  125.0736   64.1935 H   0  0  0  0  0  0  0  0  0  0  0  0
  131.1061  124.5127   66.5503 H   0  0  0  0  0  0  0  0  0  0  0  0
  130.6955  126.2442   66.3055 H   0  0  0  0  0  0  0  0  0  0  0  0
  129.3958  125.0043   66.3055 H   0  0  0  0  0  0  0  0  0  0  0  0
  1  2  1  0
  2  3  1  0
  3  4  1  0
  4  5  1  0
  5  6  1  0
  6  7  1  0
  7  8  1  0
  8  9  1  0
  9 10  1  0
 10 11  1  0
 11 12  1  0
 12 13  2  0
 12 14  1  0
 14 15  1  0
 15 16  1  0
 16 17  2  0
 17 18  1  0
 18 19  1  0
 19 20  2  0
 20 21  1  0
 21 22  2  0
 22 23  1  0
 23 24  2  0
 18 25  2  0
 25 26  1  0
 26 27  1  0
 26 28  2  0
 28 29  1  0
 29 30  3  0
 28 16  1  0
 24 19  1  0
  1 31  1  0
  1 32  1  0
  1 33  1  0
  3 34  1  0
  3 35  1  0
  4 36  1  0
  4 37  1  0
  6 38  1  0
  6 39  1  0
  7 40  1  0
  7 41  1  0
  9 42  1  0
  9 43  1  0
 10 44  1  0
 10 45  1  0
 11 46  1  0
 14 47  1  0
 14 48  1  0
 20 49  1  0
 21 50  1  0
 22 51  1  0
 23 52  1  0
 24 53  1  0
 25 54  1  0
 27 55  1  0
 27 56  1  0
 27 57  1  0
M  END
>  <Binding energies>  (1) 
[-6.75]

>  <Ligand effiencies>  (1) 
[-0.21774193548387097]

>  <Interactions>  (1) 
["H-A:TYR:531:OH:4795, H-B:TYR:539:OH:9850, V-B:TYR:539:CZ:9849, V-B:PRO:540:N:9856, V-B:TYR:539:CE1:9847, V-B:PRO:540:CB:9857, V-B:TYR:539:CD1:9845, V-B:PRO:540:CA:9855, V-B:TYR:539:CE2:9848, H-B:TYR:539:N:9842, V-B:PRO:540:CD:9859, V-B:MET:535:CE:9807, V-B:LEU:363:CD1:8160, V-B:PRO:540:CG:9858, V-B:TYR:539:C:9839, V-B:TYR:539:CG:9844, V-B:TYR:539:CD2:9846, V-B:GLU:543:CG:9879, V-A:ILE:369:CG2:3237, H-A:TYR:484:OH:4348, H-A:ARG:545:NE:4924, V-A:ARG:545:CZ:4926, V-B:GLU:543:CD:9880, H-A:ARG:545:NH2:4928, H-A:GLY:454:N:4050, H-A:ARG:545:NH1:4927"]

$$$$
3ca_Grossjean_2025
     RDKit          3D

 52 54  0  0  0  0  0  0  0  0999 V2000
  127.4570  131.7820   56.6000 C   0  0  0  0  0  0  0  0  0  0  0  0
  128.3280  132.8850   55.9920 C   0  0  0  0  0  0  0  0  0  0  0  0
  129.1150  133.4840   57.0140 O   0  0  0  0  0  0  0  0  0  0  0  0
  130.4000  133.1010   57.2240 C   0  0  0  0  0  0  0  0  0  0  0  0
  131.3640  133.5970   56.6310 O   0  0  0  0  0  0  0  0  0  0  0  0
  130.5360  132.0180   58.2560 C   0  0  0  0  0  0  0  0  0  0  0  0
  130.9580  130.7430   57.8580 C   0  0  0  0  0  0  0  0  0  0  0  0
  131.0940  129.7190   58.7910 C   0  0  0  0  0  0  0  0  0  0  0  0
  130.8030  129.9450   60.1370 C   0  0  0  0  0  0  0  0  0  0  0  0
  130.9740  128.8410   60.9950 N   0  0  0  0  0  0  0  0  0  0  0  0
  130.9360  127.5200   60.7180 C   0  0  0  0  0  0  0  0  0  0  0  0
  130.7540  127.0310   59.6040 O   0  0  0  0  0  0  0  0  0  0  0  0
  131.1650  126.5930   61.9170 C   0  0  0  0  0  0  0  0  0  0  0  0
  129.6190  125.9150   62.6050 S   0  0  0  0  0  0  0  0  0  0  0  0
  129.1130  124.4810   61.6640 C   0  0  0  0  0  0  0  0  0  0  0  0
  129.6790  123.3050   62.0340 N   0  0  0  0  0  0  0  0  0  0  0  0
  129.3280  122.1770   61.3790 C   0  0  0  0  0  0  0  0  0  0  0  0
  129.9900  120.9020   61.8630 C   0  0  0  0  0  0  0  0  0  0  0  0
  128.4160  122.1750   60.3270 C   0  0  0  0  0  0  0  0  0  0  0  0
  127.8310  123.3790   59.9140 C   0  0  0  0  0  0  0  0  0  0  0  0
  126.8690  123.3290   58.7720 C   0  0  0  0  0  0  0  0  0  0  0  0
  127.2510  122.7510   57.5560 C   0  0  0  0  0  0  0  0  0  0  0  0
  126.3640  122.7090   56.4830 C   0  0  0  0  0  0  0  0  0  0  0  0
  125.0890  123.2510   56.6220 C   0  0  0  0  0  0  0  0  0  0  0  0
  124.6950  123.8360   57.8230 C   0  0  0  0  0  0  0  0  0  0  0  0
  125.5850  123.8770   58.8930 C   0  0  0  0  0  0  0  0  0  0  0  0
  128.1780  124.5680   60.6040 C   0  0  0  0  0  0  0  0  0  0  0  0
  127.5600  125.8500   60.2510 C   0  0  0  0  0  0  0  0  0  0  0  0
  127.0710  126.8610   59.9710 N   0  0  0  0  0  0  0  0  0  0  0  0
  130.3870  131.2210   60.5460 C   0  0  0  0  0  0  0  0  0  0  0  0
  130.2540  132.2450   59.6110 C   0  0  0  0  0  0  0  0  0  0  0  0
  127.5036  131.8411   57.6974 H   0  0  0  0  0  0  0  0  0  0  0  0
  126.4160  131.9129   56.2697 H   0  0  0  0  0  0  0  0  0  0  0  0
  127.8257  130.7997   56.2697 H   0  0  0  0  0  0  0  0  0  0  0  0
  128.9887  132.4509   55.2272 H   0  0  0  0  0  0  0  0  0  0  0  0
  127.6844  133.6479   55.5297 H   0  0  0  0  0  0  0  0  0  0  0  0
  131.1839  130.5493   56.7990 H   0  0  0  0  0  0  0  0  0  0  0  0
  131.4332  128.7247   58.4651 H   0  0  0  0  0  0  0  0  0  0  0  0
  131.2060  129.0890   61.9450 H   0  0  0  0  0  0  0  0  0  0  0  0
  131.8014  125.7555   61.5951 H   0  0  0  0  0  0  0  0  0  0  0  0
  131.6400  127.1922   62.7078 H   0  0  0  0  0  0  0  0  0  0  0  0
  129.9975  120.8875   62.9629 H   0  0  0  0  0  0  0  0  0  0  0  0
  129.4293  120.0328   61.4887 H   0  0  0  0  0  0  0  0  0  0  0  0
  131.0235  120.8606   61.4887 H   0  0  0  0  0  0  0  0  0  0  0  0
  128.1561  121.2326   59.8226 H   0  0  0  0  0  0  0  0  0  0  0  0
  128.2599  122.3265   57.4468 H   0  0  0  0  0  0  0  0  0  0  0  0
  126.6691  122.2501   55.5310 H   0  0  0  0  0  0  0  0  0  0  0  0
  124.3868  123.2169   55.7760 H   0  0  0  0  0  0  0  0  0  0  0  0
  123.6865  124.2632   57.9256 H   0  0  0  0  0  0  0  0  0  0  0  0
  125.2778  124.3432   59.8408 H   0  0  0  0  0  0  0  0  0  0  0  0
  130.1656  131.4130   61.6062 H   0  0  0  0  0  0  0  0  0  0  0  0
  129.9244  133.2420   59.9388 H   0  0  0  0  0  0  0  0  0  0  0  0
  1  2  1  0
  2  3  1  0
  3  4  1  0
  4  5  2  0
  4  6  1  0
  6  7  2  0
  7  8  1  0
  8  9  2  0
  9 10  1  0
 10 11  1  0
 11 12  2  0
 11 13  1  0
 13 14  1  0
 14 15  1  0
 15 16  2  0
 16 17  1  0
 17 18  1  0
 17 19  2  0
 19 20  1  0
 20 21  1  0
 21 22  2  0
 22 23  1  0
 23 24  2  0
 24 25  1  0
 25 26  2  0
 20 27  2  0
 27 28  1  0
 28 29  3  0
  9 30  1  0
 30 31  2  0
 31  6  1  0
 27 15  1  0
 26 21  1  0
  1 32  1  0
  1 33  1  0
  1 34  1  0
  2 35  1  0
  2 36  1  0
  7 37  1  0
  8 38  1  0
 10 39  1  0
 13 40  1  0
 13 41  1  0
 18 42  1  0
 18 43  1  0
 18 44  1  0
 19 45  1  0
 22 46  1  0
 23 47  1  0
 24 48  1  0
 25 49  1  0
 26 50  1  0
 30 51  1  0
 31 52  1  0
M  END
>  <Binding energies>  (1) 
[-8.46]

>  <Ligand effiencies>  (1) 
[-0.264375]

>  <Interactions>  (1) 
["V-A:ASP:366:CG:3213, V-A:PRO:540:CA:4883, V-A:PRO:540:CB:4885, V-A:PRO:540:CD:4887, H-A:ASP:366:OD2:3215, V-A:PRO:540:N:4884, V-A:TYR:539:C:4867, H-A:TYR:539:N:4870, V-B:PRO:540:N:9856, V-B:PRO:540:CB:9857, V-B:PRO:540:CA:9855, V-B:TYR:539:CE2:9848, V-B:PRO:540:CD:9859, V-B:MET:535:CE:9807, V-B:LEU:363:CD1:8160, V-B:TYR:539:C:9839, V-B:PRO:540:C:9853, V-B:TYR:539:CD2:9846, V-A:MET:535:CE:4835, V-B:ALA:541:CB:9864, V-A:LEU:475:CD2:4259, H-A:GLU:543:OE1:4909, V-A:TYR:539:CE1:4875, V-A:TYR:539:CZ:4877, V-A:TYR:539:CD1:4873, V-A:TYR:539:CD2:4874, V-A:ILE:538:CA:4860, V-A:TYR:539:CG:4872, V-A:TYR:539:CE2:4876"]

$$$$
3cb_Grossjean_2025
     RDKit          3D

 49 51  0  0  0  0  0  0  0  0999 V2000
  127.4390  127.7660   73.1310 C   0  0  0  0  0  0  0  0  0  0  0  0
  128.8180  127.4500   73.0200 O   0  0  0  0  0  0  0  0  0  0  0  0
  129.6480  128.1990   72.2500 C   0  0  0  0  0  0  0  0  0  0  0  0
  130.2690  129.1790   72.6720 O   0  0  0  0  0  0  0  0  0  0  0  0
  129.7350  127.7190   70.8290 C   0  0  0  0  0  0  0  0  0  0  0  0
  130.8430  127.9980   70.0150 C   0  0  0  0  0  0  0  0  0  0  0  0
  130.8920  127.5350   68.7040 C   0  0  0  0  0  0  0  0  0  0  0  0
  129.8380  126.7890   68.1750 C   0  0  0  0  0  0  0  0  0  0  0  0
  129.9950  126.3690   66.8390 N   0  0  0  0  0  0  0  0  0  0  0  0
  129.8500  125.1430   66.2920 C   0  0  0  0  0  0  0  0  0  0  0  0
  129.5170  124.1300   66.9100 O   0  0  0  0  0  0  0  0  0  0  0  0
  130.1170  125.0840   64.7810 C   0  0  0  0  0  0  0  0  0  0  0  0
  129.7100  123.4900   63.9890 S   0  0  0  0  0  0  0  0  0  0  0  0
  129.6760  123.7500   62.2270 C   0  0  0  0  0  0  0  0  0  0  0  0
  130.8460  124.2210   61.7290 N   0  0  0  0  0  0  0  0  0  0  0  0
  130.9380  124.4560   60.4020 C   0  0  0  0  0  0  0  0  0  0  0  0
  132.2790  124.9690   59.9140 C   0  0  0  0  0  0  0  0  0  0  0  0
  129.8770  124.2390   59.5270 C   0  0  0  0  0  0  0  0  0  0  0  0
  128.6530  123.7680   60.0210 C   0  0  0  0  0  0  0  0  0  0  0  0
  127.5430  123.5570   59.0430 C   0  0  0  0  0  0  0  0  0  0  0  0
  126.3460  124.2730   59.1710 C   0  0  0  0  0  0  0  0  0  0  0  0
  125.3100  124.0910   58.2580 C   0  0  0  0  0  0  0  0  0  0  0  0
  125.4700  123.1920   57.2060 C   0  0  0  0  0  0  0  0  0  0  0  0
  126.6550  122.4780   57.0590 C   0  0  0  0  0  0  0  0  0  0  0  0
  127.6900  122.6640   57.9730 C   0  0  0  0  0  0  0  0  0  0  0  0
  128.5370  123.5290   61.4150 C   0  0  0  0  0  0  0  0  0  0  0  0
  127.2540  123.1260   62.0000 C   0  0  0  0  0  0  0  0  0  0  0  0
  126.2420  122.8080   62.4610 N   0  0  0  0  0  0  0  0  0  0  0  0
  128.7280  126.5020   68.9840 C   0  0  0  0  0  0  0  0  0  0  0  0
  128.6800  126.9650   70.2960 C   0  0  0  0  0  0  0  0  0  0  0  0
  127.1618  127.8295   74.1936 H   0  0  0  0  0  0  0  0  0  0  0  0
  127.2438  128.7322   72.6427 H   0  0  0  0  0  0  0  0  0  0  0  0
  126.8425  126.9813   72.6427 H   0  0  0  0  0  0  0  0  0  0  0  0
  131.6801  128.5878   70.4167 H   0  0  0  0  0  0  0  0  0  0  0  0
  131.7691  127.7589   68.0791 H   0  0  0  0  0  0  0  0  0  0  0  0
  130.2270  127.1150   66.1990 H   0  0  0  0  0  0  0  0  0  0  0  0
  129.5169  125.8688   64.2972 H   0  0  0  0  0  0  0  0  0  0  0  0
  131.2007  125.2233   64.6540 H   0  0  0  0  0  0  0  0  0  0  0  0
  132.9150  125.2123   60.7779 H   0  0  0  0  0  0  0  0  0  0  0  0
  132.7683  124.1946   59.3050 H   0  0  0  0  0  0  0  0  0  0  0  0
  132.1265  125.8723   59.3050 H   0  0  0  0  0  0  0  0  0  0  0  0
  129.9990  124.4365   58.4518 H   0  0  0  0  0  0  0  0  0  0  0  0
  126.2230  124.9855   60.0000 H   0  0  0  0  0  0  0  0  0  0  0  0
  124.3712  124.6538   58.3670 H   0  0  0  0  0  0  0  0  0  0  0  0
  124.6522  123.0453   56.4851 H   0  0  0  0  0  0  0  0  0  0  0  0
  126.7742  121.7702   56.2254 H   0  0  0  0  0  0  0  0  0  0  0  0
  128.6301  122.1054   57.8538 H   0  0  0  0  0  0  0  0  0  0  0  0
  127.8936  125.9096   68.5805 H   0  0  0  0  0  0  0  0  0  0  0  0
  127.8045  126.7367   70.9216 H   0  0  0  0  0  0  0  0  0  0  0  0
  1  2  1  0
  2  3  1  0
  3  4  2  0
  3  5  1  0
  5  6  2  0
  6  7  1  0
  7  8  2  0
  8  9  1  0
  9 10  1  0
 10 11  2  0
 10 12  1  0
 12 13  1  0
 13 14  1  0
 14 15  2  0
 15 16  1  0
 16 17  1  0
 16 18  2  0
 18 19  1  0
 19 20  1  0
 20 21  2  0
 21 22  1  0
 22 23  2  0
 23 24  1  0
 24 25  2  0
 19 26  2  0
 26 27  1  0
 27 28  3  0
  8 29  1  0
 29 30  2  0
 30  5  1  0
 26 14  1  0
 25 20  1  0
  1 31  1  0
  1 32  1  0
  1 33  1  0
  6 34  1  0
  7 35  1  0
  9 36  1  0
 12 37  1  0
 12 38  1  0
 17 39  1  0
 17 40  1  0
 17 41  1  0
 18 42  1  0
 21 43  1  0
 22 44  1  0
 23 45  1  0
 24 46  1  0
 25 47  1  0
 29 48  1  0
 30 49  1  0
M  END
>  <Binding energies>  (1) 
[-9.25]

>  <Ligand effiencies>  (1) 
[-0.29838709677419356]

>  <Interactions>  (1) 
["V-A:ASP:366:CG:3213, V-B:TYR:539:CZ:9849, V-B:PRO:540:N:9856, V-B:PRO:540:CB:9857, V-B:PRO:540:CA:9855, V-B:TYR:539:CE2:9848, V-B:PRO:540:CD:9859, V-B:MET:535:CE:9807, V-B:LEU:363:CD1:8160, V-B:TYR:539:C:9839, V-B:TYR:539:CG:9844, V-B:PRO:540:C:9853, H-B:ALA:541:N:9863, V-B:TYR:539:CD2:9846, V-B:GLU:543:CG:9879, V-B:GLU:543:CB:9878, H-A:TYR:484:OH:4348, V-A:GLU:543:CD:4908, V-B:GLU:543:CD:9880, V-B:HIS:456:CE1:9041, V-A:GLY:544:C:4912, H-A:LYS:547:NZ:4951, V-B:GLU:543:C:9874, V-B:HIS:456:CD2:9039, V-B:LYS:547:CE:9922, V-A:HIS:456:CE1:4070, V-A:GLU:543:C:4902, V-A:GLU:543:CB:4906, V-B:HIS:456:CG:9037, H-B:LYS:547:NZ:9923, H-A:GLU:543:OE1:4909, V-A:ARG:545:CG:4922, H-A:GLU:543:OE2:4910, V-B:GLU:543:CA:9876"]

$$$$
3ce_Grossjean_2025
     RDKit          3D

 45 47  0  0  0  0  0  0  0  0999 V2000
  134.7270  124.9670   66.7220 C   0  0  0  0  0  0  0  0  0  0  0  0
  133.4670  125.0770   65.8840 C   0  0  0  0  0  0  0  0  0  0  0  0
  132.2300  125.3790   66.4600 C   0  0  0  0  0  0  0  0  0  0  0  0
  131.1160  125.4750   65.6260 C   0  0  0  0  0  0  0  0  0  0  0  0
  131.2620  125.2670   64.2520 C   0  0  0  0  0  0  0  0  0  0  0  0
  132.5270  124.9580   63.7430 C   0  0  0  0  0  0  0  0  0  0  0  0
  132.6180  124.7790   62.3520 N   0  0  0  0  0  0  0  0  0  0  0  0
  133.7250  124.5610   61.6070 C   0  0  0  0  0  0  0  0  0  0  0  0
  134.8700  124.4750   62.0530 O   0  0  0  0  0  0  0  0  0  0  0  0
  133.4930  124.4050   60.1050 C   0  0  0  0  0  0  0  0  0  0  0  0
  132.0390  125.3380   59.5420 S   0  0  0  0  0  0  0  0  0  0  0  0
  130.6590  124.2300   59.7100 C   0  0  0  0  0  0  0  0  0  0  0  0
  130.7640  123.3740   60.7550 N   0  0  0  0  0  0  0  0  0  0  0  0
  129.7550  122.5000   60.9790 C   0  0  0  0  0  0  0  0  0  0  0  0
  129.9310  121.5810   62.1730 C   0  0  0  0  0  0  0  0  0  0  0  0
  128.6240  122.4380   60.1700 C   0  0  0  0  0  0  0  0  0  0  0  0
  128.5090  123.2960   59.0690 C   0  0  0  0  0  0  0  0  0  0  0  0
  127.2890  123.1740   58.2160 C   0  0  0  0  0  0  0  0  0  0  0  0
  127.3390  122.4550   57.0160 C   0  0  0  0  0  0  0  0  0  0  0  0
  126.2070  122.3420   56.2130 C   0  0  0  0  0  0  0  0  0  0  0  0
  125.0200  122.9560   56.6030 C   0  0  0  0  0  0  0  0  0  0  0  0
  124.9570  123.6840   57.7890 C   0  0  0  0  0  0  0  0  0  0  0  0
  126.0890  123.7940   58.5900 C   0  0  0  0  0  0  0  0  0  0  0  0
  129.5520  124.2260   58.8280 C   0  0  0  0  0  0  0  0  0  0  0  0
  129.4810  125.1600   57.7000 C   0  0  0  0  0  0  0  0  0  0  0  0
  129.4230  125.8970   56.8090 N   0  0  0  0  0  0  0  0  0  0  0  0
  133.6240  124.8710   64.5520 N   0  0  0  0  0  0  0  0  0  0  0  0
  134.4609  124.9902   67.7891 H   0  0  0  0  0  0  0  0  0  0  0  0
  135.2387  124.0208   66.4922 H   0  0  0  0  0  0  0  0  0  0  0  0
  135.3949  125.8102   66.4922 H   0  0  0  0  0  0  0  0  0  0  0  0
  132.1371  125.5371   67.5446 H   0  0  0  0  0  0  0  0  0  0  0  0
  130.1283  125.7131   66.0476 H   0  0  0  0  0  0  0  0  0  0  0  0
  130.3942  125.3452   63.5805 H   0  0  0  0  0  0  0  0  0  0  0  0
  131.7310  124.7220   61.8720 H   0  0  0  0  0  0  0  0  0  0  0  0
  134.3803  124.7719   59.5683 H   0  0  0  0  0  0  0  0  0  0  0  0
  133.3153  123.3396   59.8969 H   0  0  0  0  0  0  0  0  0  0  0  0
  129.8200  122.1606   63.1013 H   0  0  0  0  0  0  0  0  0  0  0  0
  129.1682  120.7891   62.1418 H   0  0  0  0  0  0  0  0  0  0  0  0
  130.9324  121.1269   62.1418 H   0  0  0  0  0  0  0  0  0  0  0  0
  127.8235  121.7178   60.3946 H   0  0  0  0  0  0  0  0  0  0  0  0
  128.2791  121.9759   56.7052 H   0  0  0  0  0  0  0  0  0  0  0  0
  126.2505  121.7700   55.2744 H   0  0  0  0  0  0  0  0  0  0  0  0
  124.1251  122.8656   55.9698 H   0  0  0  0  0  0  0  0  0  0  0  0
  124.0170  124.1693   58.0905 H   0  0  0  0  0  0  0  0  0  0  0  0
  126.0419  124.3723   59.5245 H   0  0  0  0  0  0  0  0  0  0  0  0
  1  2  1  0
  2  3  2  0
  3  4  1  0
  4  5  2  0
  5  6  1  0
  6  7  1  0
  7  8  1  0
  8  9  2  0
  8 10  1  0
 10 11  1  0
 11 12  1  0
 12 13  2  0
 13 14  1  0
 14 15  1  0
 14 16  2  0
 16 17  1  0
 17 18  1  0
 18 19  2  0
 19 20  1  0
 20 21  2  0
 21 22  1  0
 22 23  2  0
 17 24  2  0
 24 25  1  0
 25 26  3  0
  6 27  2  0
 27  2  1  0
 24 12  1  0
 23 18  1  0
  1 28  1  0
  1 29  1  0
  1 30  1  0
  3 31  1  0
  4 32  1  0
  5 33  1  0
  7 34  1  0
 10 35  1  0
 10 36  1  0
 15 37  1  0
 15 38  1  0
 15 39  1  0
 16 40  1  0
 19 41  1  0
 20 42  1  0
 21 43  1  0
 22 44  1  0
 23 45  1  0
M  END
>  <Binding energies>  (1) 
[-7.94]

>  <Ligand effiencies>  (1) 
[-0.2835714285714286]

>  <Interactions>  (1) 
["V-A:ASP:366:CG:3213, H-A:TYR:531:OH:4795, H-B:TYR:539:OH:9850, V-A:ASP:366:CB:3212, V-B:TYR:539:CZ:9849, V-B:PRO:540:N:9856, V-B:TYR:539:CE1:9847, V-B:PRO:540:CB:9857, V-B:TYR:539:CD1:9845, V-B:PRO:540:CA:9855, V-B:TYR:539:CE2:9848, V-B:PRO:540:CD:9859, V-B:MET:535:CE:9807, V-B:LEU:363:CD1:8160, V-B:TYR:539:C:9839, V-B:TYR:539:CG:9844, V-B:TYR:539:CD2:9846, V-B:ALA:541:CB:9864, V-A:ASP:366:CA:3210, V-A:LEU:475:CD2:4259, V-A:TYR:484:CZ:4347, V-A:GLY:453:CA:4044, H-A:TYR:484:OH:4348, V-A:GLU:543:CD:4908, H-A:ARG:545:NE:4924, V-A:GLY:454:CA:4049, V-A:ARG:545:CZ:4926, V-A:HIS:456:CE1:4070, V-A:ARG:545:CG:4922, H-A:ARG:545:NH2:4928, H-A:GLY:454:N:4050, V-A:GLY:453:C:4042, V-B:ILE:538:CG2:9835, V-B:TYR:539:CA:9841, V-A:ARG:545:CD:4923, V-A:GLY:454:C:4047, V-A:ILE:455:C:4052"]

$$$$
3ch_Grossjean_2025
     RDKit          3D

 55 57  0  0  0  0  0  0  0  0999 V2000
  132.4930  131.7420   54.9410 C   0  0  0  0  0  0  0  0  0  0  0  0
  131.7350  132.5660   55.8200 O   0  0  0  0  0  0  0  0  0  0  0  0
  131.0660  131.9910   56.8860 C   0  0  0  0  0  0  0  0  0  0  0  0
  131.5570  130.9040   57.6270 C   0  0  0  0  0  0  0  0  0  0  0  0
  130.8260  130.3790   58.7030 C   0  0  0  0  0  0  0  0  0  0  0  0
  131.2370  129.2980   59.5060 N   0  0  0  0  0  0  0  0  0  0  0  0
  130.6490  128.0980   59.7040 C   0  0  0  0  0  0  0  0  0  0  0  0
  129.6020  127.7200   59.1780 O   0  0  0  0  0  0  0  0  0  0  0  0
  131.3960  127.1420   60.6330 C   0  0  0  0  0  0  0  0  0  0  0  0
  131.8140  125.5740   59.8130 S   0  0  0  0  0  0  0  0  0  0  0  0
  130.3740  124.5400   59.9640 C   0  0  0  0  0  0  0  0  0  0  0  0
  130.2620  123.9250   61.1670 N   0  0  0  0  0  0  0  0  0  0  0  0
  129.2050  123.1090   61.3800 C   0  0  0  0  0  0  0  0  0  0  0  0
  129.1440  122.4490   62.7440 C   0  0  0  0  0  0  0  0  0  0  0  0
  128.2300  122.8760   60.4130 C   0  0  0  0  0  0  0  0  0  0  0  0
  128.3230  123.5090   59.1660 C   0  0  0  0  0  0  0  0  0  0  0  0
  127.2590  123.2210   58.1560 C   0  0  0  0  0  0  0  0  0  0  0  0
  127.5950  122.6380   56.9280 C   0  0  0  0  0  0  0  0  0  0  0  0
  126.6100  122.3750   55.9790 C   0  0  0  0  0  0  0  0  0  0  0  0
  125.2840  122.6980   56.2540 C   0  0  0  0  0  0  0  0  0  0  0  0
  124.9350  123.2840   57.4680 C   0  0  0  0  0  0  0  0  0  0  0  0
  125.9230  123.5470   58.4140 C   0  0  0  0  0  0  0  0  0  0  0  0
  129.4160  124.3820   58.9340 C   0  0  0  0  0  0  0  0  0  0  0  0
  129.5140  125.1430   57.6840 C   0  0  0  0  0  0  0  0  0  0  0  0
  129.5930  125.7420   56.6980 N   0  0  0  0  0  0  0  0  0  0  0  0
  129.5880  130.9390   59.0220 C   0  0  0  0  0  0  0  0  0  0  0  0
  129.0750  132.0250   58.2950 C   0  0  0  0  0  0  0  0  0  0  0  0
  127.8600  132.6300   58.5640 O   0  0  0  0  0  0  0  0  0  0  0  0
  127.4900  132.8890   59.9140 C   0  0  0  0  0  0  0  0  0  0  0  0
  129.8230  132.5400   57.2280 C   0  0  0  0  0  0  0  0  0  0  0  0
  129.3400  133.6140   56.5200 O   0  0  0  0  0  0  0  0  0  0  0  0
  128.4150  133.2670   55.4990 C   0  0  0  0  0  0  0  0  0  0  0  0
  133.1218  131.0584   55.5303 H   0  0  0  0  0  0  0  0  0  0  0  0
  131.8105  131.1573   54.3067 H   0  0  0  0  0  0  0  0  0  0  0  0
  133.1325  132.3735   54.3067 H   0  0  0  0  0  0  0  0  0  0  0  0
  132.5268  130.4587   57.3604 H   0  0  0  0  0  0  0  0  0  0  0  0
  132.1260  129.4370   59.9650 H   0  0  0  0  0  0  0  0  0  0  0  0
  132.3257  127.6262   60.9664 H   0  0  0  0  0  0  0  0  0  0  0  0
  130.7366  126.9132   61.4832 H   0  0  0  0  0  0  0  0  0  0  0  0
  129.2151  123.2183   63.5271 H   0  0  0  0  0  0  0  0  0  0  0  0
  128.1920  121.9077   62.8472 H   0  0  0  0  0  0  0  0  0  0  0  0
  129.9807  121.7423   62.8472 H   0  0  0  0  0  0  0  0  0  0  0  0
  127.3906  122.1981   60.6271 H   0  0  0  0  0  0  0  0  0  0  0  0
  128.6436  122.3861   56.7114 H   0  0  0  0  0  0  0  0  0  0  0  0
  126.8785  121.9143   55.0169 H   0  0  0  0  0  0  0  0  0  0  0  0
  124.5053  122.4885   55.5058 H   0  0  0  0  0  0  0  0  0  0  0  0
  123.8856  123.5377   57.6786 H   0  0  0  0  0  0  0  0  0  0  0  0
  125.6507  124.0148   59.3716 H   0  0  0  0  0  0  0  0  0  0  0  0
  129.0048  130.5227   59.8566 H   0  0  0  0  0  0  0  0  0  0  0  0
  128.2004  132.3917   60.5908 H   0  0  0  0  0  0  0  0  0  0  0  0
  127.5069  133.9735   60.0972 H   0  0  0  0  0  0  0  0  0  0  0  0
  126.4768  132.5019   60.0972 H   0  0  0  0  0  0  0  0  0  0  0  0
  127.4785  132.9157   55.9567 H   0  0  0  0  0  0  0  0  0  0  0  0
  128.2097  134.1493   54.8749 H   0  0  0  0  0  0  0  0  0  0  0  0
  128.8406  132.4674   54.8749 H   0  0  0  0  0  0  0  0  0  0  0  0
  1  2  1  0
  2  3  1  0
  3  4  2  0
  4  5  1  0
  5  6  1  0
  6  7  1  0
  7  8  2  0
  7  9  1  0
  9 10  1  0
 10 11  1  0
 11 12  2  0
 12 13  1  0
 13 14  1  0
 13 15  2  0
 15 16  1  0
 16 17  1  0
 17 18  2  0
 18 19  1  0
 19 20  2  0
 20 21  1  0
 21 22  2  0
 16 23  2  0
 23 24  1  0
 24 25  3  0
  5 26  2  0
 26 27  1  0
 27 28  1  0
 28 29  1  0
 27 30  2  0
 30 31  1  0
 31 32  1  0
 30  3  1  0
 23 11  1  0
 22 17  1  0
  1 33  1  0
  1 34  1  0
  1 35  1  0
  4 36  1  0
  6 37  1  0
  9 38  1  0
  9 39  1  0
 14 40  1  0
 14 41  1  0
 14 42  1  0
 15 43  1  0
 18 44  1  0
 19 45  1  0
 20 46  1  0
 21 47  1  0
 22 48  1  0
 26 49  1  0
 29 50  1  0
 29 51  1  0
 29 52  1  0
 32 53  1  0
 32 54  1  0
 32 55  1  0
M  END
>  <Binding energies>  (1) 
[-7.85]

>  <Ligand effiencies>  (1) 
[-0.23787878787878786]

>  <Interactions>  (1) 
["V-A:LEU:363:CD1:3189, V-A:ASP:366:CG:3213, H-A:TYR:531:OH:4795, H-B:TYR:539:OH:9850, H-A:ASP:366:OD2:3215, H-A:TYR:539:N:4870, V-B:TYR:539:CZ:9849, V-B:PRO:540:N:9856, V-B:TYR:539:CE1:9847, V-B:PRO:540:CB:9857, V-B:TYR:539:CD1:9845, V-B:PRO:540:CA:9855, V-B:TYR:539:CE2:9848, V-B:PRO:540:CD:9859, V-B:MET:535:CE:9807, V-B:LEU:363:CD1:8160, V-B:TYR:539:C:9839, V-B:TYR:539:CG:9844, V-B:TYR:539:CD2:9846, V-A:MET:535:CE:4835, V-B:ALA:541:CB:9864, V-A:TYR:531:CZ:4794, V-A:TYR:539:CE1:4875, V-A:TYR:539:CZ:4877, V-B:ILE:538:CG2:9835, V-A:TYR:539:CD1:4873, V-A:TYR:539:CD2:4874, V-A:ILE:538:CA:4860, V-A:TYR:539:CG:4872, V-A:TYR:539:CE2:4876, V-A:TYR:531:CE2:4793, V-A:ILE:538:C:4858, V-A:ILE:538:CG2:4863, V-A:ILE:538:CB:4862, V-B:ILE:538:CA:9832, V-A:MET:535:CG:4833, V-A:TYR:531:CD2:4791"]

$$$$
3ci_Grossjean_2025
     RDKit          3D

 39 41  0  0  0  0  0  0  0  0999 V2000
  129.8980  121.7670   62.1650 C   0  0  0  0  0  0  0  0  0  0  0  0
  129.7360  122.6280   60.9270 C   0  0  0  0  0  0  0  0  0  0  0  0
  128.6040  122.5430   60.1210 C   0  0  0  0  0  0  0  0  0  0  0  0
  128.4930  123.3710   58.9950 C   0  0  0  0  0  0  0  0  0  0  0  0
  127.2540  123.2570   58.1680 C   0  0  0  0  0  0  0  0  0  0  0  0
  126.0660  123.8830   58.5660 C   0  0  0  0  0  0  0  0  0  0  0  0
  124.9120  123.7660   57.7960 C   0  0  0  0  0  0  0  0  0  0  0  0
  124.9400  123.0150   56.6240 C   0  0  0  0  0  0  0  0  0  0  0  0
  126.1100  122.3780   56.2190 C   0  0  0  0  0  0  0  0  0  0  0  0
  127.2620  122.4980   56.9910 C   0  0  0  0  0  0  0  0  0  0  0  0
  129.5550  124.2670   58.7090 C   0  0  0  0  0  0  0  0  0  0  0  0
  129.5130  125.1270   57.5210 C   0  0  0  0  0  0  0  0  0  0  0  0
  129.4780  125.8060   56.5840 N   0  0  0  0  0  0  0  0  0  0  0  0
  130.6670  124.2920   59.5850 C   0  0  0  0  0  0  0  0  0  0  0  0
  132.0500  125.3970   59.3320 S   0  0  0  0  0  0  0  0  0  0  0  0
  133.6000  124.5380   59.7580 C   0  0  0  0  0  0  0  0  0  0  0  0
  133.9450  124.6070   61.2500 C   0  0  0  0  0  0  0  0  0  0  0  0
  135.1150  124.4540   61.6060 O   0  0  0  0  0  0  0  0  0  0  0  0
  132.9030  124.8230   62.0830 N   0  0  0  0  0  0  0  0  0  0  0  0
  132.9440  124.9570   63.4640 C   0  0  0  0  0  0  0  0  0  0  0  0
  131.8440  125.3540   64.2230 C   0  0  0  0  0  0  0  0  0  0  0  0
  132.2910  125.3650   65.5250 C   0  0  0  0  0  0  0  0  0  0  0  0
  133.5940  124.9920   65.5470 O   0  0  0  0  0  0  0  0  0  0  0  0
  133.9960  124.7370   64.2350 N   0  0  0  0  0  0  0  0  0  0  0  0
  130.7520  123.4790   60.6680 N   0  0  0  0  0  0  0  0  0  0  0  0
  129.7806  122.3908   63.0634 H   0  0  0  0  0  0  0  0  0  0  0  0
  129.1328  120.9768   62.1648 H   0  0  0  0  0  0  0  0  0  0  0  0
  130.8981  121.3089   62.1648 H   0  0  0  0  0  0  0  0  0  0  0  0
  127.8021  121.8310   60.3659 H   0  0  0  0  0  0  0  0  0  0  0  0
  126.0446  124.4720   59.4948 H   0  0  0  0  0  0  0  0  0  0  0  0
  123.9834  124.2641   58.1118 H   0  0  0  0  0  0  0  0  0  0  0  0
  124.0300  122.9241   56.0127 H   0  0  0  0  0  0  0  0  0  0  0  0
  126.1239  121.7831   55.2939 H   0  0  0  0  0  0  0  0  0  0  0  0
  128.1862  121.9926   56.6741 H   0  0  0  0  0  0  0  0  0  0  0  0
  133.5025  123.4805   59.4714 H   0  0  0  0  0  0  0  0  0  0  0  0
  134.4112  125.0437   59.2138 H   0  0  0  0  0  0  0  0  0  0  0  0
  131.9910  124.9260   61.6640 H   0  0  0  0  0  0  0  0  0  0  0  0
  130.8363  125.6044   63.8598 H   0  0  0  0  0  0  0  0  0  0  0  0
  131.6882  125.6331   66.4052 H   0  0  0  0  0  0  0  0  0  0  0  0
  1  2  1  0
  2  3  2  0
  3  4  1  0
  4  5  1  0
  5  6  2  0
  6  7  1  0
  7  8  2  0
  8  9  1  0
  9 10  2  0
  4 11  2  0
 11 12  1  0
 12 13  3  0
 11 14  1  0
 14 15  1  0
 15 16  1  0
 16 17  1  0
 17 18  2  0
 17 19  1  0
 19 20  1  0
 20 21  1  0
 21 22  2  0
 22 23  1  0
 23 24  1  0
 14 25  2  0
 25  2  1  0
 10  5  1  0
 24 20  2  0
  1 26  1  0
  1 27  1  0
  1 28  1  0
  3 29  1  0
  6 30  1  0
  7 31  1  0
  8 32  1  0
  9 33  1  0
 10 34  1  0
 16 35  1  0
 16 36  1  0
 19 37  1  0
 21 38  1  0
 22 39  1  0
M  END
>  <Binding energies>  (1) 
[-7.73]

>  <Ligand effiencies>  (1) 
[-0.29730769230769233]

>  <Interactions>  (1) 
["V-A:ASP:366:CG:3213, H-A:TYR:531:OH:4795, H-B:TYR:539:OH:9850, V-A:ASP:366:CB:3212, V-B:TYR:539:CZ:9849, V-B:PRO:540:N:9856, V-B:TYR:539:CE1:9847, V-B:PRO:540:CB:9857, V-B:TYR:539:CD1:9845, V-B:PRO:540:CA:9855, V-B:TYR:539:CE2:9848, V-B:PRO:540:CD:9859, V-B:MET:535:CE:9807, V-B:LEU:363:CD1:8160, V-B:TYR:539:C:9839, V-B:TYR:539:CG:9844, V-B:TYR:539:CD2:9846, V-B:ALA:541:CB:9864, V-A:ASP:366:CA:3210, V-A:ILE:369:CD1:3239, V-A:ILE:369:CG2:3237, V-A:LEU:475:CD2:4259, H-A:TYR:484:OH:4348, H-A:ARG:545:NE:4924, V-A:ARG:545:CZ:4926, H-A:ARG:545:NH2:4928, H-A:GLY:454:N:4050, V-B:ILE:538:CG2:9835, H-A:ARG:545:NH1:4927"]

$$$$
3cj_Grossjean_2025
     RDKit          3D

 39 41  0  0  0  0  0  0  0  0999 V2000
  131.9410  126.4730   58.1530 C   0  0  0  0  0  0  0  0  0  0  0  0
  131.1600  125.3380   58.7860 C   0  0  0  0  0  0  0  0  0  0  0  0
  129.8970  124.9750   58.3220 C   0  0  0  0  0  0  0  0  0  0  0  0
  129.2200  123.9040   58.9210 C   0  0  0  0  0  0  0  0  0  0  0  0
  127.8990  123.5090   58.3500 C   0  0  0  0  0  0  0  0  0  0  0  0
  127.8310  122.7500   57.1760 C   0  0  0  0  0  0  0  0  0  0  0  0
  126.5970  122.3930   56.6370 C   0  0  0  0  0  0  0  0  0  0  0  0
  125.4260  122.8010   57.2680 C   0  0  0  0  0  0  0  0  0  0  0  0
  125.4780  123.5650   58.4310 C   0  0  0  0  0  0  0  0  0  0  0  0
  126.7130  123.9200   58.9690 C   0  0  0  0  0  0  0  0  0  0  0  0
  129.8370  123.2420   60.0120 C   0  0  0  0  0  0  0  0  0  0  0  0
  129.1670  122.1340   60.6990 C   0  0  0  0  0  0  0  0  0  0  0  0
  128.6380  121.2580   61.2410 N   0  0  0  0  0  0  0  0  0  0  0  0
  131.1210  123.6740   60.4130 C   0  0  0  0  0  0  0  0  0  0  0  0
  132.0630  122.8460   61.6770 S   0  0  0  0  0  0  0  0  0  0  0  0
  133.3240  121.8940   60.7720 C   0  0  0  0  0  0  0  0  0  0  0  0
  132.7880  120.5360   60.3070 C   0  0  0  0  0  0  0  0  0  0  0  0
  133.4960  119.8130   59.6020 O   0  0  0  0  0  0  0  0  0  0  0  0
  131.5550  120.2160   60.7560 N   0  0  0  0  0  0  0  0  0  0  0  0
  130.9050  119.0030   60.5930 C   0  0  0  0  0  0  0  0  0  0  0  0
  130.9970  118.1660   59.5830 N   0  0  0  0  0  0  0  0  0  0  0  0
  130.2590  117.0910   59.7780 C   0  0  0  0  0  0  0  0  0  0  0  0
  129.5430  117.0420   60.9700 C   0  0  0  0  0  0  0  0  0  0  0  0
  129.8600  118.4890   61.8800 S   0  0  0  0  0  0  0  0  0  0  0  0
  131.7740  124.6960   59.8040 N   0  0  0  0  0  0  0  0  0  0  0  0
  132.3753  127.1042   58.9423 H   0  0  0  0  0  0  0  0  0  0  0  0
  132.7471  126.0600   57.5287 H   0  0  0  0  0  0  0  0  0  0  0  0
  131.2673  127.0783   57.5287 H   0  0  0  0  0  0  0  0  0  0  0  0
  129.4340  125.5261   57.4902 H   0  0  0  0  0  0  0  0  0  0  0  0
  128.7580  122.4333   56.6756 H   0  0  0  0  0  0  0  0  0  0  0  0
  126.5487  121.7916   55.7172 H   0  0  0  0  0  0  0  0  0  0  0  0
  124.4511  122.5177   56.8446 H   0  0  0  0  0  0  0  0  0  0  0  0
  124.5481  123.8868   58.9227 H   0  0  0  0  0  0  0  0  0  0  0  0
  126.7562  124.5268   59.8855 H   0  0  0  0  0  0  0  0  0  0  0  0
  133.6420  122.4715   59.8915 H   0  0  0  0  0  0  0  0  0  0  0  0
  134.1689  121.7128   61.4527 H   0  0  0  0  0  0  0  0  0  0  0  0
  131.0860  120.8900   61.3420 H   0  0  0  0  0  0  0  0  0  0  0  0
  130.2119  116.2776   59.0390 H   0  0  0  0  0  0  0  0  0  0  0  0
  128.8830  116.2205   61.2856 H   0  0  0  0  0  0  0  0  0  0  0  0
  1  2  1  0
  2  3  2  0
  3  4  1  0
  4  5  1  0
  5  6  2  0
  6  7  1  0
  7  8  2  0
  8  9  1  0
  9 10  2  0
  4 11  2  0
 11 12  1  0
 12 13  3  0
 11 14  1  0
 14 15  1  0
 15 16  1  0
 16 17  1  0
 17 18  2  0
 17 19  1  0
 19 20  1  0
 20 21  2  0
 21 22  1  0
 22 23  2  0
 23 24  1  0
 14 25  2  0
 25  2  1  0
 10  5  1  0
 24 20  1  0
  1 26  1  0
  1 27  1  0
  1 28  1  0
  3 29  1  0
  6 30  1  0
  7 31  1  0
  8 32  1  0
  9 33  1  0
 10 34  1  0
 16 35  1  0
 16 36  1  0
 19 37  1  0
 22 38  1  0
 23 39  1  0
M  END
>  <Binding energies>  (1) 
[-7.61]

>  <Ligand effiencies>  (1) 
[-0.2926923076923077]

>  <Interactions>  (1) 
["V-A:ASP:366:CG:3213, V-A:ASP:366:CB:3212, V-B:TYR:539:CZ:9849, V-B:PRO:540:N:9856, V-B:TYR:539:CE1:9847, V-B:PRO:540:CB:9857, V-B:TYR:539:CD1:9845, V-B:PRO:540:CA:9855, V-B:TYR:539:CE2:9848, V-B:PRO:540:CD:9859, V-B:LEU:363:CD1:8160, V-B:PRO:540:CG:9858, V-B:TYR:539:C:9839, V-B:TYR:539:CG:9844, H-B:ALA:541:N:9863, V-B:TYR:539:CD2:9846, V-B:ALA:541:CB:9864, V-A:ILE:369:CG2:3237, V-A:LEU:475:CD2:4259, V-B:TYR:539:CA:9841, V-B:TYR:539:CB:9843, H-A:SER:385:OG:3410, V-A:HIS:383:NE2:3394, V-A:LEU:475:CG:4257, V-A:HIS:383:CE1:3393, V-A:LEU:475:CD1:4258, V-A:PRO:482:CB:4326, V-A:PRO:482:CG:4327, H-A:HIS:383:HE2:3395, V-A:SER:385:CB:3409, V-B:VAL:344:CG1:7972"]

$$$$
3ck_Grossjean_2025
     RDKit          3D

 57 58  0  0  0  0  0  0  0  0999 V2000
  125.0390  122.5190   56.6420 C   0  0  0  0  0  0  0  0  0  0  0  0
  126.1420  121.6990   56.2900 O   0  0  0  0  0  0  0  0  0  0  0  0
  127.2700  122.4320   55.8310 C   0  0  0  0  0  0  0  0  0  0  0  0
  127.7580  123.3710   56.9420 C   0  0  0  0  0  0  0  0  0  0  0  0
  127.6140  122.7250   58.2010 O   0  0  0  0  0  0  0  0  0  0  0  0
  127.2100  123.5940   59.2510 C   0  0  0  0  0  0  0  0  0  0  0  0
  127.9250  124.9410   59.0900 C   0  0  0  0  0  0  0  0  0  0  0  0
  129.2690  124.7890   59.5210 O   0  0  0  0  0  0  0  0  0  0  0  0
  130.2350  124.8280   58.4820 C   0  0  0  0  0  0  0  0  0  0  0  0
  131.2900  125.9050   58.8010 C   0  0  0  0  0  0  0  0  0  0  0  0
  132.3900  125.4220   59.6420 N   0  0  0  0  0  0  0  0  0  0  0  0
  133.3790  124.6010   59.2450 C   0  0  0  0  0  0  0  0  0  0  0  0
  133.4820  124.1750   58.0930 O   0  0  0  0  0  0  0  0  0  0  0  0
  134.3970  124.2190   60.3310 C   0  0  0  0  0  0  0  0  0  0  0  0
  133.9600  122.7590   61.3370 S   0  0  0  0  0  0  0  0  0  0  0  0
  132.3010  122.9600   61.9700 C   0  0  0  0  0  0  0  0  0  0  0  0
  131.3320  122.2890   61.2970 N   0  0  0  0  0  0  0  0  0  0  0  0
  130.0530  122.3990   61.7180 C   0  0  0  0  0  0  0  0  0  0  0  0
  129.0260  121.6230   60.9160 C   0  0  0  0  0  0  0  0  0  0  0  0
  129.6870  123.1750   62.8150 C   0  0  0  0  0  0  0  0  0  0  0  0
  130.6700  123.8820   63.5210 C   0  0  0  0  0  0  0  0  0  0  0  0
  130.2290  124.7190   64.6760 C   0  0  0  0  0  0  0  0  0  0  0  0
  129.5630  125.9300   64.4530 C   0  0  0  0  0  0  0  0  0  0  0  0
  129.1570  126.7220   65.5260 C   0  0  0  0  0  0  0  0  0  0  0  0
  129.4240  126.3070   66.8270 C   0  0  0  0  0  0  0  0  0  0  0  0
  130.0940  125.1090   67.0660 C   0  0  0  0  0  0  0  0  0  0  0  0
  130.4970  124.3200   65.9920 C   0  0  0  0  0  0  0  0  0  0  0  0
  132.0190  123.7650   63.0970 C   0  0  0  0  0  0  0  0  0  0  0  0
  133.0950  124.4490   63.8240 C   0  0  0  0  0  0  0  0  0  0  0  0
  133.9430  124.9890   64.3970 N   0  0  0  0  0  0  0  0  0  0  0  0
  124.9604  122.5774   57.7376 H   0  0  0  0  0  0  0  0  0  0  0  0
  125.1865  123.5285   56.2306 H   0  0  0  0  0  0  0  0  0  0  0  0
  124.1148  122.0869   56.2306 H   0  0  0  0  0  0  0  0  0  0  0  0
  128.0759  121.7335   55.5613 H   0  0  0  0  0  0  0  0  0  0  0  0
  126.9871  123.0248   54.9486 H   0  0  0  0  0  0  0  0  0  0  0  0
  128.8167  123.6186   56.7751 H   0  0  0  0  0  0  0  0  0  0  0  0
  127.1613  124.2950   56.9318 H   0  0  0  0  0  0  0  0  0  0  0  0
  126.1216  123.7467   59.2046 H   0  0  0  0  0  0  0  0  0  0  0  0
  127.4720  123.1489   60.2222 H   0  0  0  0  0  0  0  0  0  0  0  0
  127.9060  125.2478   58.0338 H   0  0  0  0  0  0  0  0  0  0  0  0
  127.4200  125.7113   59.6913 H   0  0  0  0  0  0  0  0  0  0  0  0
  130.7257  123.8469   58.4007 H   0  0  0  0  0  0  0  0  0  0  0  0
  129.7399  125.0706   57.5302 H   0  0  0  0  0  0  0  0  0  0  0  0
  131.7120  126.2693   57.8528 H   0  0  0  0  0  0  0  0  0  0  0  0
  130.7786  126.6987   59.3653 H   0  0  0  0  0  0  0  0  0  0  0  0
  132.3870  125.7390   60.6000 H   0  0  0  0  0  0  0  0  0  0  0  0
  135.3589  124.0154   59.8377 H   0  0  0  0  0  0  0  0  0  0  0  0
  134.4285  125.0689   61.0287 H   0  0  0  0  0  0  0  0  0  0  0  0
  128.3401  121.1048   61.6023 H   0  0  0  0  0  0  0  0  0  0  0  0
  128.4550  122.3173   60.2820 H   0  0  0  0  0  0  0  0  0  0  0  0
  129.5379  120.8841   60.2820 H   0  0  0  0  0  0  0  0  0  0  0  0
  128.6333  123.2327   63.1254 H   0  0  0  0  0  0  0  0  0  0  0  0
  129.3585  126.2591   63.4235 H   0  0  0  0  0  0  0  0  0  0  0  0
  128.6286  127.6697   65.3452 H   0  0  0  0  0  0  0  0  0  0  0  0
  129.1032  126.9305   67.6746 H   0  0  0  0  0  0  0  0  0  0  0  0
  130.3033  124.7884   68.0972 H   0  0  0  0  0  0  0  0  0  0  0  0
  131.0300  123.3759   66.1782 H   0  0  0  0  0  0  0  0  0  0  0  0
  1  2  1  0
  2  3  1  0
  3  4  1  0
  4  5  1  0
  5  6  1  0
  6  7  1  0
  7  8  1  0
  8  9  1  0
  9 10  1  0
 10 11  1  0
 11 12  1  0
 12 13  2  0
 12 14  1  0
 14 15  1  0
 15 16  1  0
 16 17  2  0
 17 18  1  0
 18 19  1  0
 18 20  2  0
 20 21  1  0
 21 22  1  0
 22 23  2  0
 23 24  1  0
 24 25  2  0
 25 26  1  0
 26 27  2  0
 21 28  2  0
 28 29  1  0
 29 30  3  0
 28 16  1  0
 27 22  1  0
  1 31  1  0
  1 32  1  0
  1 33  1  0
  3 34  1  0
  3 35  1  0
  4 36  1  0
  4 37  1  0
  6 38  1  0
  6 39  1  0
  7 40  1  0
  7 41  1  0
  9 42  1  0
  9 43  1  0
 10 44  1  0
 10 45  1  0
 11 46  1  0
 14 47  1  0
 14 48  1  0
 19 49  1  0
 19 50  1  0
 19 51  1  0
 20 52  1  0
 23 53  1  0
 24 54  1  0
 25 55  1  0
 26 56  1  0
 27 57  1  0
M  END
>  <Binding energies>  (1) 
[-7.21]

>  <Ligand effiencies>  (1) 
[-0.23258064516129032]

>  <Interactions>  (1) 
["V-A:ASP:366:CG:3213, H-B:TYR:539:OH:9850, H-A:ASP:366:OD2:3215, V-A:ASP:366:CB:3212, V-B:TYR:539:CZ:9849, V-B:PRO:540:N:9856, V-B:TYR:539:CE1:9847, V-B:PRO:540:CB:9857, V-B:TYR:539:CD1:9845, V-B:PRO:540:CA:9855, V-B:TYR:539:CE2:9848, H-B:TYR:539:N:9842, V-B:PRO:540:CD:9859, V-B:MET:535:CE:9807, V-B:LEU:363:CD1:8160, V-B:PRO:540:CG:9858, V-B:TYR:539:C:9839, V-B:TYR:539:CG:9844, V-B:PRO:540:C:9853, V-B:TYR:539:CD2:9846, V-B:ALA:541:CB:9864, V-A:ASP:366:CA:3210, V-A:ILE:369:CD1:3239, V-B:GLU:543:CG:9879, V-A:ILE:369:CB:3236, V-A:ILE:369:CG2:3237, V-A:LEU:475:CD2:4259, V-A:TYR:484:CZ:4347, V-B:GLU:543:CB:9878, H-A:TYR:484:OH:4348, V-A:GLU:543:CD:4908, V-A:TYR:484:CE2:4346, H-A:ARG:545:NE:4924, V-A:ARG:545:CZ:4926, V-B:GLU:543:CD:9880, V-A:HIS:456:CE1:4070, H-A:ARG:545:NH2:4928, H-A:GLY:454:N:4050, V-B:ILE:538:CG2:9835, V-B:ILE:538:CA:9832, H-A:ASP:366:OD1:3214, H-A:ARG:545:NH1:4927"]

$$$$
4aa_Grossjean_2025
     RDKit          3D

 45 47  0  0  0  0  0  0  0  0999 V2000
  130.4780  127.9470   69.4710 C   0  0  0  0  0  0  0  0  0  0  0  0
  131.6370  127.4540   68.5990 C   0  0  0  0  0  0  0  0  0  0  0  0
  131.2320  126.2920   67.8880 O   0  0  0  0  0  0  0  0  0  0  0  0
  132.0460  125.7130   66.9680 C   0  0  0  0  0  0  0  0  0  0  0  0
  133.2450  125.4880   67.1660 O   0  0  0  0  0  0  0  0  0  0  0  0
  131.3460  125.3770   65.6830 C   0  0  0  0  0  0  0  0  0  0  0  0
  130.2050  124.5640   65.7180 C   0  0  0  0  0  0  0  0  0  0  0  0
  129.5370  124.2310   64.5430 C   0  0  0  0  0  0  0  0  0  0  0  0
  129.9880  124.7100   63.3130 C   0  0  0  0  0  0  0  0  0  0  0  0
  129.2430  124.3040   62.1890 N   0  0  0  0  0  0  0  0  0  0  0  0
  128.1860  123.4610   62.0990 C   0  0  0  0  0  0  0  0  0  0  0  0
  127.7100  122.8440   63.0530 O   0  0  0  0  0  0  0  0  0  0  0  0
  127.6320  123.2940   60.7540 C   0  0  0  0  0  0  0  0  0  0  0  0
  128.5190  122.3780   59.5330 S   0  0  0  0  0  0  0  0  0  0  0  0
  127.2850  122.6910   58.3340 C   0  0  0  0  0  0  0  0  0  0  0  0
  127.3770  122.2230   57.0880 N   0  0  0  0  0  0  0  0  0  0  0  0
  126.3550  122.5420   56.2570 C   0  0  0  0  0  0  0  0  0  0  0  0
  126.4810  122.0050   54.8430 C   0  0  0  0  0  0  0  0  0  0  0  0
  125.2530  123.3050   56.6390 C   0  0  0  0  0  0  0  0  0  0  0  0
  125.1600  123.7930   57.9470 C   0  0  0  0  0  0  0  0  0  0  0  0
  123.9390  124.6210   58.3170 C   0  0  0  0  0  0  0  0  0  0  0  0
  126.2150  123.4830   58.8470 C   0  0  0  0  0  0  0  0  0  0  0  0
  126.4400  123.8170   60.2290 C   0  0  0  0  0  0  0  0  0  0  0  0
  125.5550  124.5770   60.9510 N   0  0  0  0  0  0  0  0  0  0  0  0
  131.1320  125.5190   63.2670 C   0  0  0  0  0  0  0  0  0  0  0  0
  131.8020  125.8490   64.4430 C   0  0  0  0  0  0  0  0  0  0  0  0
  130.7438  127.8339   70.5324 H   0  0  0  0  0  0  0  0  0  0  0  0
  130.2805  129.0070   69.2534 H   0  0  0  0  0  0  0  0  0  0  0  0
  129.5774  127.3541   69.2534 H   0  0  0  0  0  0  0  0  0  0  0  0
  131.9195  128.2414   67.8847 H   0  0  0  0  0  0  0  0  0  0  0  0
  132.4997  127.2121   69.2371 H   0  0  0  0  0  0  0  0  0  0  0  0
  129.8342  124.1858   66.6821 H   0  0  0  0  0  0  0  0  0  0  0  0
  128.6472  123.5856   64.5848 H   0  0  0  0  0  0  0  0  0  0  0  0
  129.5640  124.7000   61.3160 H   0  0  0  0  0  0  0  0  0  0  0  0
  126.7321  120.9346   54.8783 H   0  0  0  0  0  0  0  0  0  0  0  0
  125.5267  122.1404   54.3130 H   0  0  0  0  0  0  0  0  0  0  0  0
  127.2755  122.5508   54.3130 H   0  0  0  0  0  0  0  0  0  0  0  0
  124.4566  123.5235   55.9124 H   0  0  0  0  0  0  0  0  0  0  0  0
  123.8535  124.6790   59.4121 H   0  0  0  0  0  0  0  0  0  0  0  0
  124.0443  125.6348   57.9032 H   0  0  0  0  0  0  0  0  0  0  0  0
  123.0362  124.1481   57.9032 H   0  0  0  0  0  0  0  0  0  0  0  0
  125.5980  124.6320   61.9590 H   0  0  0  0  0  0  0  0  0  0  0  0
  124.8250  125.1080   60.4970 H   0  0  0  0  0  0  0  0  0  0  0  0
  131.5011  125.8938   62.3009 H   0  0  0  0  0  0  0  0  0  0  0  0
  132.6976  126.4861   64.3989 H   0  0  0  0  0  0  0  0  0  0  0  0
  1  2  1  0
  2  3  1  0
  3  4  1  0
  4  5  2  0
  4  6  1  0
  6  7  2  0
  7  8  1  0
  8  9  2  0
  9 10  1  0
 10 11  1  0
 11 12  2  0
 11 13  1  0
 13 14  1  0
 14 15  1  0
 15 16  2  0
 16 17  1  0
 17 18  1  0
 17 19  2  0
 19 20  1  0
 20 21  1  0
 20 22  2  0
 22 23  1  0
 23 24  1  0
  9 25  1  0
 25 26  2  0
 26  6  1  0
 23 13  2  0
 22 15  1  0
  1 27  1  0
  1 28  1  0
  1 29  1  0
  2 30  1  0
  2 31  1  0
  7 32  1  0
  8 33  1  0
 10 34  1  0
 18 35  1  0
 18 36  1  0
 18 37  1  0
 19 38  1  0
 21 39  1  0
 21 40  1  0
 21 41  1  0
 24 42  1  0
 24 43  1  0
 25 44  1  0
 26 45  1  0
M  END
>  <Binding energies>  (1) 
[-7.22]

>  <Ligand effiencies>  (1) 
[-0.2489655172413793]

>  <Interactions>  (1) 
["V-B:PRO:540:N:9856, V-B:PRO:540:CB:9857, V-B:TYR:539:CD1:9845, V-B:PRO:540:CA:9855, V-B:TYR:539:CE2:9848, H-B:TYR:539:N:9842, V-B:ASP:366:CB:8183, V-B:PRO:540:CD:9859, H-B:ASP:366:OD1:8185, V-B:ASP:366:CG:8184, V-B:MET:535:CE:9807, V-B:LEU:363:CD1:8160, V-B:TYR:539:C:9839, H-B:GLU:543:OE1:9881, H-B:ALA:541:N:9863, V-B:TYR:539:CD2:9846, V-B:LEU:363:CA:8156, V-B:TYR:531:CE2:9765, V-B:GLU:543:CG:9879, V-A:TYR:484:CZ:4347, H-A:TYR:484:OH:4348, V-A:GLU:543:CD:4908, V-A:TYR:484:CE2:4346, H-A:ARG:545:NE:4924, V-A:ARG:545:CZ:4926, V-B:GLU:543:CD:9880, V-A:HIS:456:CE1:4070, V-A:GLU:543:C:4902, V-A:GLU:543:CB:4906, V-A:ARG:545:CG:4922, H-A:HIS:456:ND1:4067, V-B:ILE:538:CG2:9835, V-B:ILE:538:CA:9832, V-B:ILE:538:C:9830, V-B:LEU:363:CB:8158, V-B:ILE:538:CB:9834, V-B:ILE:538:CG1:9836"]

$$$$
4ab_Grossjean_2025
     RDKit          3D

 42 44  0  0  0  0  0  0  0  0999 V2000
  130.1290  126.7460   67.8750 C   0  0  0  0  0  0  0  0  0  0  0  0
  131.5470  126.6630   67.8910 O   0  0  0  0  0  0  0  0  0  0  0  0
  132.2030  125.7660   67.1110 C   0  0  0  0  0  0  0  0  0  0  0  0
  133.3570  125.3840   67.3350 O   0  0  0  0  0  0  0  0  0  0  0  0
  131.3890  125.2890   65.9430 C   0  0  0  0  0  0  0  0  0  0  0  0
  131.7340  125.7110   64.6520 C   0  0  0  0  0  0  0  0  0  0  0  0
  130.9970  125.2870   63.5490 C   0  0  0  0  0  0  0  0  0  0  0  0
  129.9100  124.4290   63.7110 C   0  0  0  0  0  0  0  0  0  0  0  0
  129.2340  124.0710   62.5300 N   0  0  0  0  0  0  0  0  0  0  0  0
  128.1740  123.2460   62.3460 C   0  0  0  0  0  0  0  0  0  0  0  0
  127.6270  122.6090   63.2460 O   0  0  0  0  0  0  0  0  0  0  0  0
  127.7070  123.1290   60.9630 C   0  0  0  0  0  0  0  0  0  0  0  0
  128.6460  122.2120   59.7810 S   0  0  0  0  0  0  0  0  0  0  0  0
  127.5060  122.5910   58.5100 C   0  0  0  0  0  0  0  0  0  0  0  0
  127.6680  122.1520   57.2620 N   0  0  0  0  0  0  0  0  0  0  0  0
  126.7140  122.5190   56.3720 C   0  0  0  0  0  0  0  0  0  0  0  0
  126.9200  122.0120   54.9570 C   0  0  0  0  0  0  0  0  0  0  0  0
  125.6110  123.3050   56.6990 C   0  0  0  0  0  0  0  0  0  0  0  0
  125.4440  123.7660   58.0100 C   0  0  0  0  0  0  0  0  0  0  0  0
  124.2250  124.6220   58.3170 C   0  0  0  0  0  0  0  0  0  0  0  0
  126.4270  123.4040   58.9710 C   0  0  0  0  0  0  0  0  0  0  0  0
  126.5700  123.7010   60.3710 C   0  0  0  0  0  0  0  0  0  0  0  0
  125.6630  124.4730   61.0520 N   0  0  0  0  0  0  0  0  0  0  0  0
  129.5540  124.0050   65.0000 C   0  0  0  0  0  0  0  0  0  0  0  0
  130.2900  124.4310   66.1030 C   0  0  0  0  0  0  0  0  0  0  0  0
  129.7513  126.7681   68.9079 H   0  0  0  0  0  0  0  0  0  0  0  0
  129.8213  127.6637   67.3524 H   0  0  0  0  0  0  0  0  0  0  0  0
  129.7163  125.8705   67.3524 H   0  0  0  0  0  0  0  0  0  0  0  0
  132.5935  126.3823   64.5087 H   0  0  0  0  0  0  0  0  0  0  0  0
  131.2747  125.6318   62.5420 H   0  0  0  0  0  0  0  0  0  0  0  0
  129.6140  124.4890   61.6940 H   0  0  0  0  0  0  0  0  0  0  0  0
  127.3339  120.9933   54.9891 H   0  0  0  0  0  0  0  0  0  0  0  0
  125.9557  121.9994   54.4280 H   0  0  0  0  0  0  0  0  0  0  0  0
  127.6198  122.6756   54.4280 H   0  0  0  0  0  0  0  0  0  0  0  0
  124.8714  123.5633   55.9268 H   0  0  0  0  0  0  0  0  0  0  0  0
  124.1024  124.7081   59.4068 H   0  0  0  0  0  0  0  0  0  0  0  0
  124.3616  125.6236   57.8831 H   0  0  0  0  0  0  0  0  0  0  0  0
  123.3293  124.1535   57.8831 H   0  0  0  0  0  0  0  0  0  0  0  0
  124.9670  125.0250   60.5730 H   0  0  0  0  0  0  0  0  0  0  0  0
  125.6660  124.5180   62.0620 H   0  0  0  0  0  0  0  0  0  0  0  0
  128.6926  123.3353   65.1397 H   0  0  0  0  0  0  0  0  0  0  0  0
  130.0069  124.0914   67.1102 H   0  0  0  0  0  0  0  0  0  0  0  0
  1  2  1  0
  2  3  1  0
  3  4  2  0
  3  5  1  0
  5  6  2  0
  6  7  1  0
  7  8  2  0
  8  9  1  0
  9 10  1  0
 10 11  2  0
 10 12  1  0
 12 13  1  0
 13 14  1  0
 14 15  2  0
 15 16  1  0
 16 17  1  0
 16 18  2  0
 18 19  1  0
 19 20  1  0
 19 21  2  0
 21 22  1  0
 22 23  1  0
  8 24  1  0
 24 25  2  0
 25  5  1  0
 22 12  2  0
 21 14  1  0
  1 26  1  0
  1 27  1  0
  1 28  1  0
  6 29  1  0
  7 30  1  0
  9 31  1  0
 17 32  1  0
 17 33  1  0
 17 34  1  0
 18 35  1  0
 20 36  1  0
 20 37  1  0
 20 38  1  0
 23 39  1  0
 23 40  1  0
 24 41  1  0
 25 42  1  0
M  END
>  <Binding energies>  (1) 
[-7.58]

>  <Ligand effiencies>  (1) 
[-0.27071428571428574]

>  <Interactions>  (1) 
["V-B:PRO:540:N:9856, V-B:TYR:539:CE1:9847, V-B:PRO:540:CB:9857, V-B:TYR:539:CD1:9845, V-B:PRO:540:CA:9855, V-B:TYR:539:CE2:9848, H-B:TYR:539:N:9842, V-B:ASP:366:CB:8183, V-B:PRO:540:CD:9859, H-B:ASP:366:OD1:8185, V-B:ASP:366:CG:8184, V-B:MET:535:CE:9807, V-B:LEU:363:CD1:8160, V-B:TYR:539:C:9839, H-B:GLU:543:OE1:9881, H-B:ALA:541:N:9863, V-B:TYR:539:CD2:9846, V-B:LEU:363:CA:8156, V-B:TYR:531:CE2:9765, V-B:ALA:541:CB:9864, V-B:GLU:543:CG:9879, V-A:TYR:484:CZ:4347, V-B:GLU:543:CB:9878, H-A:TYR:484:OH:4348, V-A:GLU:543:CD:4908, V-A:TYR:484:CE2:4346, H-A:ARG:545:NE:4924, V-A:ARG:545:CZ:4926, V-B:GLU:543:CD:9880, V-A:HIS:456:CE1:4070, V-A:GLU:543:CB:4906, V-A:ARG:545:CG:4922, H-A:HIS:456:ND1:4067, V-B:ILE:538:CG2:9835, V-B:ILE:538:CA:9832, V-B:ILE:538:C:9830, V-A:ARG:545:CD:4923, V-B:ILE:538:CB:9834, V-B:ILE:538:CG1:9836"]

$$$$
4ac_Grossjean_2025
     RDKit          3D

 40 42  0  0  0  0  0  0  0  0999 V2000
  129.9000  127.1300   68.2000 C   0  0  0  0  0  0  0  0  0  0  0  0
  130.7120  126.1700   67.5320 O   0  0  0  0  0  0  0  0  0  0  0  0
  130.2690  125.6220   66.3440 C   0  0  0  0  0  0  0  0  0  0  0  0
  129.6070  126.4820   65.4700 C   0  0  0  0  0  0  0  0  0  0  0  0
  129.1250  126.0190   64.2480 C   0  0  0  0  0  0  0  0  0  0  0  0
  129.3080  124.6860   63.8810 C   0  0  0  0  0  0  0  0  0  0  0  0
  128.7760  124.3050   62.6350 N   0  0  0  0  0  0  0  0  0  0  0  0
  127.8070  123.4010   62.3570 C   0  0  0  0  0  0  0  0  0  0  0  0
  127.2390  122.7150   63.2100 O   0  0  0  0  0  0  0  0  0  0  0  0
  127.4590  123.2680   60.9400 C   0  0  0  0  0  0  0  0  0  0  0  0
  128.5060  122.3640   59.8460 S   0  0  0  0  0  0  0  0  0  0  0  0
  127.4480  122.6850   58.4910 C   0  0  0  0  0  0  0  0  0  0  0  0
  127.7110  122.2290   57.2660 N   0  0  0  0  0  0  0  0  0  0  0  0
  126.8100  122.5490   56.3050 C   0  0  0  0  0  0  0  0  0  0  0  0
  127.1270  122.0200   54.9190 C   0  0  0  0  0  0  0  0  0  0  0  0
  125.6660  123.3110   56.5380 C   0  0  0  0  0  0  0  0  0  0  0  0
  125.3940  123.7890   57.8250 C   0  0  0  0  0  0  0  0  0  0  0  0
  124.1330  124.6140   58.0290 C   0  0  0  0  0  0  0  0  0  0  0  0
  126.3150  123.4700   58.8590 C   0  0  0  0  0  0  0  0  0  0  0  0
  126.3440  123.7870   60.2620 C   0  0  0  0  0  0  0  0  0  0  0  0
  125.3630  124.5330   60.8640 N   0  0  0  0  0  0  0  0  0  0  0  0
  129.9620  123.8100   64.7600 C   0  0  0  0  0  0  0  0  0  0  0  0
  130.4420  124.2770   65.9810 C   0  0  0  0  0  0  0  0  0  0  0  0
  130.0051  127.0057   69.2879 H   0  0  0  0  0  0  0  0  0  0  0  0
  130.2195  128.1430   67.9141 H   0  0  0  0  0  0  0  0  0  0  0  0
  128.8480  126.9830   67.9141 H   0  0  0  0  0  0  0  0  0  0  0  0
  129.4637  127.5367   65.7478 H   0  0  0  0  0  0  0  0  0  0  0  0
  128.5983  126.7069   63.5702 H   0  0  0  0  0  0  0  0  0  0  0  0
  129.2090  124.7530   61.8400 H   0  0  0  0  0  0  0  0  0  0  0  0
  127.6907  121.0794   55.0056 H   0  0  0  0  0  0  0  0  0  0  0  0
  126.1897  121.8369   54.3732 H   0  0  0  0  0  0  0  0  0  0  0  0
  127.7305  122.7602   54.3732 H   0  0  0  0  0  0  0  0  0  0  0  0
  124.9773  123.5365   55.7105 H   0  0  0  0  0  0  0  0  0  0  0  0
  123.9454  124.7368   59.1059 H   0  0  0  0  0  0  0  0  0  0  0  0
  124.2624  125.6026   57.5643 H   0  0  0  0  0  0  0  0  0  0  0  0
  123.2790  124.0994   57.5643 H   0  0  0  0  0  0  0  0  0  0  0  0
  124.6450  125.0000   60.3310 H   0  0  0  0  0  0  0  0  0  0  0  0
  125.3260  124.6370   61.8690 H   0  0  0  0  0  0  0  0  0  0  0  0
  130.0958  122.7535   64.4846 H   0  0  0  0  0  0  0  0  0  0  0  0
  130.9596  123.5882   66.6648 H   0  0  0  0  0  0  0  0  0  0  0  0
  1  2  1  0
  2  3  1  0
  3  4  2  0
  4  5  1  0
  5  6  2  0
  6  7  1  0
  7  8  1  0
  8  9  2  0
  8 10  1  0
 10 11  1  0
 11 12  1  0
 12 13  2  0
 13 14  1  0
 14 15  1  0
 14 16  2  0
 16 17  1  0
 17 18  1  0
 17 19  2  0
 19 20  1  0
 20 21  1  0
  6 22  1  0
 22 23  2  0
 23  3  1  0
 20 10  2  0
 19 12  1  0
  1 24  1  0
  1 25  1  0
  1 26  1  0
  4 27  1  0
  5 28  1  0
  7 29  1  0
 15 30  1  0
 15 31  1  0
 15 32  1  0
 16 33  1  0
 18 34  1  0
 18 35  1  0
 18 36  1  0
 21 37  1  0
 21 38  1  0
 22 39  1  0
 23 40  1  0
M  END
>  <Binding energies>  (1) 
[-7.19]

>  <Ligand effiencies>  (1) 
[-0.27653846153846157]

>  <Interactions>  (1) 
["V-B:PRO:540:N:9856, V-B:TYR:539:CE1:9847, V-B:PRO:540:CB:9857, V-B:TYR:539:CD1:9845, V-B:PRO:540:CA:9855, V-B:TYR:539:CE2:9848, H-B:TYR:539:N:9842, V-B:ASP:366:CB:8183, H-B:ASP:366:OD1:8185, V-B:ASP:366:CG:8184, V-B:MET:535:CE:9807, V-B:LEU:363:CD1:8160, V-B:TYR:539:C:9839, V-B:TYR:539:CG:9844, H-B:GLU:543:OE1:9881, H-B:ALA:541:N:9863, V-B:TYR:539:CD2:9846, V-B:LEU:363:CA:8156, V-B:TYR:531:CE2:9765, V-B:GLU:543:CG:9879, V-A:TYR:484:CZ:4347, V-A:GLU:543:CD:4908, V-A:TYR:484:CE2:4346, V-B:GLU:543:CD:9880, V-A:HIS:456:CE1:4070, V-A:GLU:543:CB:4906, V-B:ILE:538:CG2:9835, V-B:ILE:538:CA:9832, V-B:ILE:538:C:9830, V-B:ILE:538:CB:9834"]

$$$$
4ad_Grossjean_2025
     RDKit          3D

 36 38  0  0  0  0  0  0  0  0999 V2000
  126.8940  122.0020   55.0410 C   0  0  0  0  0  0  0  0  0  0  0  0
  126.6990  122.5260   56.4520 C   0  0  0  0  0  0  0  0  0  0  0  0
  125.5560  123.2410   56.8010 C   0  0  0  0  0  0  0  0  0  0  0  0
  125.3990  123.7160   58.1090 C   0  0  0  0  0  0  0  0  0  0  0  0
  124.1350  124.4940   58.4410 C   0  0  0  0  0  0  0  0  0  0  0  0
  126.4350  123.4430   59.0420 C   0  0  0  0  0  0  0  0  0  0  0  0
  126.5990  123.7710   60.4330 C   0  0  0  0  0  0  0  0  0  0  0  0
  125.6540  124.4770   61.1340 N   0  0  0  0  0  0  0  0  0  0  0  0
  127.7990  123.3040   60.9920 C   0  0  0  0  0  0  0  0  0  0  0  0
  128.2930  123.4700   62.3600 C   0  0  0  0  0  0  0  0  0  0  0  0
  127.7080  122.9410   63.3080 O   0  0  0  0  0  0  0  0  0  0  0  0
  129.4150  124.2200   62.4860 N   0  0  0  0  0  0  0  0  0  0  0  0
  130.1120  124.6020   63.6490 C   0  0  0  0  0  0  0  0  0  0  0  0
  131.5060  124.6070   63.5520 C   0  0  0  0  0  0  0  0  0  0  0  0
  132.2840  124.9800   64.6450 C   0  0  0  0  0  0  0  0  0  0  0  0
  131.6670  125.3570   65.8340 C   0  0  0  0  0  0  0  0  0  0  0  0
  130.2780  125.3700   65.9390 C   0  0  0  0  0  0  0  0  0  0  0  0
  129.4980  124.9960   64.8490 C   0  0  0  0  0  0  0  0  0  0  0  0
  128.7620  122.4330   59.7960 S   0  0  0  0  0  0  0  0  0  0  0  0
  127.5550  122.7010   58.5590 C   0  0  0  0  0  0  0  0  0  0  0  0
  127.7070  122.2460   57.3140 N   0  0  0  0  0  0  0  0  0  0  0  0
  127.2774  120.9718   55.0822 H   0  0  0  0  0  0  0  0  0  0  0  0
  125.9312  122.0140   54.5091 H   0  0  0  0  0  0  0  0  0  0  0  0
  127.6147  122.6405   54.5091 H   0  0  0  0  0  0  0  0  0  0  0  0
  124.7763  123.4327   56.0491 H   0  0  0  0  0  0  0  0  0  0  0  0
  124.0231  124.5629   59.5331 H   0  0  0  0  0  0  0  0  0  0  0  0
  124.2047  125.5058   58.0150 H   0  0  0  0  0  0  0  0  0  0  0  0
  123.2631  123.9760   58.0150 H   0  0  0  0  0  0  0  0  0  0  0  0
  124.9220  124.9950   60.6710 H   0  0  0  0  0  0  0  0  0  0  0  0
  125.6580  124.4980   62.1450 H   0  0  0  0  0  0  0  0  0  0  0  0
  129.8310  124.5450   61.6250 H   0  0  0  0  0  0  0  0  0  0  0  0
  131.9906  124.3152   62.6086 H   0  0  0  0  0  0  0  0  0  0  0  0
  133.3814  124.9767   64.5689 H   0  0  0  0  0  0  0  0  0  0  0  0
  132.2817  125.6474   66.6988 H   0  0  0  0  0  0  0  0  0  0  0  0
  129.7990  125.6751   66.8811 H   0  0  0  0  0  0  0  0  0  0  0  0
  128.4009  125.0090   64.9273 H   0  0  0  0  0  0  0  0  0  0  0  0
  1  2  1  0
  2  3  2  0
  3  4  1  0
  4  5  1  0
  4  6  2  0
  6  7  1  0
  7  8  1  0
  7  9  2  0
  9 10  1  0
 10 11  2  0
 10 12  1  0
 12 13  1  0
 13 14  2  0
 14 15  1  0
 15 16  2  0
 16 17  1  0
 17 18  2  0
  9 19  1  0
 19 20  1  0
 20 21  2  0
 21  2  1  0
 20  6  1  0
 18 13  1  0
  1 22  1  0
  1 23  1  0
  1 24  1  0
  3 25  1  0
  5 26  1  0
  5 27  1  0
  5 28  1  0
  8 29  1  0
  8 30  1  0
 12 31  1  0
 14 32  1  0
 15 33  1  0
 16 34  1  0
 17 35  1  0
 18 36  1  0
M  END
>  <Binding energies>  (1) 
[-7.36]

>  <Ligand effiencies>  (1) 
[-0.3066666666666667]

>  <Interactions>  (1) 
["V-B:PRO:540:N:9856, V-B:TYR:539:CE1:9847, V-B:PRO:540:CB:9857, V-B:TYR:539:CD1:9845, V-B:PRO:540:CA:9855, V-B:TYR:539:CE2:9848, H-B:TYR:539:N:9842, V-B:ASP:366:CB:8183, V-B:PRO:540:CD:9859, H-B:ASP:366:OD1:8185, V-B:ASP:366:CG:8184, V-B:MET:535:CE:9807, V-B:LEU:363:CD1:8160, V-B:TYR:539:C:9839, H-B:GLU:543:OE1:9881, H-B:ALA:541:N:9863, V-B:TYR:539:CD2:9846, V-B:LEU:363:CA:8156, V-B:GLU:543:CG:9879, V-B:GLU:543:CB:9878, V-A:ARG:545:CZ:4926, V-B:GLU:543:CD:9880, V-B:ILE:538:CG2:9835, V-B:ILE:538:CA:9832, V-B:ILE:538:C:9830, V-B:ILE:538:CB:9834, V-B:ILE:538:CG1:9836"]

$$$$
4ae_Grossjean_2025
     RDKit          3D

 38 40  0  0  0  0  0  0  0  0999 V2000
  129.5230  125.7340   67.0490 C   0  0  0  0  0  0  0  0  0  0  0  0
  130.2860  125.3180   65.8060 C   0  0  0  0  0  0  0  0  0  0  0  0
  131.6820  125.3070   65.7750 C   0  0  0  0  0  0  0  0  0  0  0  0
  132.3160  124.9200   64.5940 C   0  0  0  0  0  0  0  0  0  0  0  0
  131.5480  124.5600   63.4850 C   0  0  0  0  0  0  0  0  0  0  0  0
  130.1530  124.5860   63.5860 C   0  0  0  0  0  0  0  0  0  0  0  0
  129.4350  124.2330   62.4310 N   0  0  0  0  0  0  0  0  0  0  0  0
  128.3300  123.4530   62.3240 C   0  0  0  0  0  0  0  0  0  0  0  0
  127.7780  122.9110   63.2830 O   0  0  0  0  0  0  0  0  0  0  0  0
  127.8130  123.2800   60.9650 C   0  0  0  0  0  0  0  0  0  0  0  0
  128.7540  122.3990   59.7600 S   0  0  0  0  0  0  0  0  0  0  0  0
  127.5390  122.6810   58.5350 C   0  0  0  0  0  0  0  0  0  0  0  0
  127.6760  122.2280   57.2880 N   0  0  0  0  0  0  0  0  0  0  0  0
  126.6650  122.5200   56.4350 C   0  0  0  0  0  0  0  0  0  0  0  0
  126.8440  122.0010   55.0190 C   0  0  0  0  0  0  0  0  0  0  0  0
  125.5300  123.2440   56.7960 C   0  0  0  0  0  0  0  0  0  0  0  0
  125.3890  123.7160   58.1060 C   0  0  0  0  0  0  0  0  0  0  0  0
  124.1350  124.5050   58.4510 C   0  0  0  0  0  0  0  0  0  0  0  0
  126.4310  123.4320   59.0300 C   0  0  0  0  0  0  0  0  0  0  0  0
  126.6110  123.7590   60.4190 C   0  0  0  0  0  0  0  0  0  0  0  0
  125.6830  124.4770   61.1300 N   0  0  0  0  0  0  0  0  0  0  0  0
  129.5260  124.9700   64.7370 N   0  0  0  0  0  0  0  0  0  0  0  0
  130.0848  125.4277   67.9437 H   0  0  0  0  0  0  0  0  0  0  0  0
  129.3953  126.8266   67.0524 H   0  0  0  0  0  0  0  0  0  0  0  0
  128.5355  125.2494   67.0524 H   0  0  0  0  0  0  0  0  0  0  0  0
  132.2675  125.5964   66.6601 H   0  0  0  0  0  0  0  0  0  0  0  0
  133.4143  124.8986   64.5369 H   0  0  0  0  0  0  0  0  0  0  0  0
  132.0333  124.2600   62.5445 H   0  0  0  0  0  0  0  0  0  0  0  0
  129.8320  124.5700   61.5670 H   0  0  0  0  0  0  0  0  0  0  0  0
  127.2025  120.9616   55.0520 H   0  0  0  0  0  0  0  0  0  0  0  0
  125.8805  122.0399   54.4897 H   0  0  0  0  0  0  0  0  0  0  0  0
  127.5786  122.6256   54.4897 H   0  0  0  0  0  0  0  0  0  0  0  0
  124.7454  123.4443   56.0516 H   0  0  0  0  0  0  0  0  0  0  0  0
  124.0318  124.5699   59.5442 H   0  0  0  0  0  0  0  0  0  0  0  0
  124.2115  125.5180   58.0291 H   0  0  0  0  0  0  0  0  0  0  0  0
  123.2549  123.9976   58.0291 H   0  0  0  0  0  0  0  0  0  0  0  0
  125.6910  124.5070   62.1400 H   0  0  0  0  0  0  0  0  0  0  0  0
  124.9570  125.0030   60.6630 H   0  0  0  0  0  0  0  0  0  0  0  0
  1  2  1  0
  2  3  2  0
  3  4  1  0
  4  5  2  0
  5  6  1  0
  6  7  1  0
  7  8  1  0
  8  9  2  0
  8 10  1  0
 10 11  1  0
 11 12  1  0
 12 13  2  0
 13 14  1  0
 14 15  1  0
 14 16  2  0
 16 17  1  0
 17 18  1  0
 17 19  2  0
 19 20  1  0
 20 21  1  0
  6 22  2  0
 22  2  1  0
 20 10  2  0
 19 12  1  0
  1 23  1  0
  1 24  1  0
  1 25  1  0
  3 26  1  0
  4 27  1  0
  5 28  1  0
  7 29  1  0
 15 30  1  0
 15 31  1  0
 15 32  1  0
 16 33  1  0
 18 34  1  0
 18 35  1  0
 18 36  1  0
 21 37  1  0
 21 38  1  0
M  END
>  <Binding energies>  (1) 
[-7.62]

>  <Ligand effiencies>  (1) 
[-0.3048]

>  <Interactions>  (1) 
["V-B:PRO:540:N:9856, V-B:TYR:539:CE1:9847, V-B:PRO:540:CB:9857, V-B:TYR:539:CD1:9845, V-B:PRO:540:CA:9855, V-B:TYR:539:CE2:9848, H-B:TYR:539:N:9842, V-B:ASP:366:CB:8183, V-B:PRO:540:CD:9859, H-B:ASP:366:OD1:8185, V-B:ASP:366:CG:8184, V-B:MET:535:CE:9807, V-B:LEU:363:CD1:8160, V-B:TYR:539:C:9839, H-B:GLU:543:OE1:9881, H-B:ALA:541:N:9863, V-B:TYR:539:CD2:9846, V-B:LEU:363:CA:8156, V-B:GLU:543:CG:9879, V-B:GLU:543:CB:9878, V-A:ARG:545:CZ:4926, V-B:GLU:543:CD:9880, V-A:HIS:456:CE1:4070, V-B:GLU:543:CA:9876, V-B:ILE:538:CG2:9835, V-B:ILE:538:CA:9832, V-B:ILE:538:C:9830, V-B:ILE:538:CB:9834, V-B:ILE:538:CG1:9836"]

$$$$
4af_Grossjean_2025
     RDKit          3D

 35 37  0  0  0  0  0  0  0  0999 V2000
  126.8700  122.0100   55.0160 C   0  0  0  0  0  0  0  0  0  0  0  0
  126.7000  122.5350   56.4300 C   0  0  0  0  0  0  0  0  0  0  0  0
  125.5730  123.2710   56.7910 C   0  0  0  0  0  0  0  0  0  0  0  0
  125.4380  123.7460   58.1010 C   0  0  0  0  0  0  0  0  0  0  0  0
  124.1930  124.5460   58.4470 C   0  0  0  0  0  0  0  0  0  0  0  0
  126.4790  123.4520   59.0240 C   0  0  0  0  0  0  0  0  0  0  0  0
  126.6630  123.7780   60.4130 C   0  0  0  0  0  0  0  0  0  0  0  0
  125.7420  124.5070   61.1220 N   0  0  0  0  0  0  0  0  0  0  0  0
  127.8580  123.2840   60.9600 C   0  0  0  0  0  0  0  0  0  0  0  0
  128.3750  123.4520   62.3200 C   0  0  0  0  0  0  0  0  0  0  0  0
  127.7660  122.9860   63.2840 O   0  0  0  0  0  0  0  0  0  0  0  0
  129.5460  124.1260   62.4160 N   0  0  0  0  0  0  0  0  0  0  0  0
  130.2770  124.4950   63.5610 C   0  0  0  0  0  0  0  0  0  0  0  0
  129.7820  124.4980   64.8780 C   0  0  0  0  0  0  0  0  0  0  0  0
  130.6100  124.9050   65.9260 C   0  0  0  0  0  0  0  0  0  0  0  0
  131.9140  125.3040   65.6320 C   0  0  0  0  0  0  0  0  0  0  0  0
  132.4130  125.3170   64.3700 N   0  0  0  0  0  0  0  0  0  0  0  0
  131.5960  124.9200   63.3620 C   0  0  0  0  0  0  0  0  0  0  0  0
  128.7930  122.3970   59.7540 S   0  0  0  0  0  0  0  0  0  0  0  0
  127.5790  122.6900   58.5290 C   0  0  0  0  0  0  0  0  0  0  0  0
  127.7100  122.2340   57.2830 N   0  0  0  0  0  0  0  0  0  0  0  0
  127.2087  120.9640   55.0515 H   0  0  0  0  0  0  0  0  0  0  0  0
  125.9078  122.0661   54.4859 H   0  0  0  0  0  0  0  0  0  0  0  0
  127.6167  122.6194   54.4859 H   0  0  0  0  0  0  0  0  0  0  0  0
  124.7899  123.4786   56.0470 H   0  0  0  0  0  0  0  0  0  0  0  0
  124.0913  124.6114   59.5403 H   0  0  0  0  0  0  0  0  0  0  0  0
  124.2788  125.5584   58.0255 H   0  0  0  0  0  0  0  0  0  0  0  0
  123.3078  124.0472   58.0255 H   0  0  0  0  0  0  0  0  0  0  0  0
  125.0110  125.0340   60.6650 H   0  0  0  0  0  0  0  0  0  0  0  0
  125.7630  124.5360   62.1330 H   0  0  0  0  0  0  0  0  0  0  0  0
  129.9710  124.4060   61.5430 H   0  0  0  0  0  0  0  0  0  0  0  0
  128.7483  124.1814   65.0809 H   0  0  0  0  0  0  0  0  0  0  0  0
  130.2416  124.9109   66.9624 H   0  0  0  0  0  0  0  0  0  0  0  0
  132.5661  125.6219   66.4589 H   0  0  0  0  0  0  0  0  0  0  0  0
  131.9905  124.9328   62.3353 H   0  0  0  0  0  0  0  0  0  0  0  0
  1  2  1  0
  2  3  2  0
  3  4  1  0
  4  5  1  0
  4  6  2  0
  6  7  1  0
  7  8  1  0
  7  9  2  0
  9 10  1  0
 10 11  2  0
 10 12  1  0
 12 13  1  0
 13 14  2  0
 14 15  1  0
 15 16  2  0
 16 17  1  0
 17 18  2  0
  9 19  1  0
 19 20  1  0
 20 21  2  0
 21  2  1  0
 20  6  1  0
 18 13  1  0
  1 22  1  0
  1 23  1  0
  1 24  1  0
  3 25  1  0
  5 26  1  0
  5 27  1  0
  5 28  1  0
  8 29  1  0
  8 30  1  0
 12 31  1  0
 14 32  1  0
 15 33  1  0
 16 34  1  0
 18 35  1  0
M  END
>  <Binding energies>  (1) 
[-7.09]

>  <Ligand effiencies>  (1) 
[-0.29541666666666666]

>  <Interactions>  (1) 
["V-B:PRO:540:N:9856, V-B:TYR:539:CE1:9847, V-B:PRO:540:CB:9857, V-B:TYR:539:CD1:9845, V-B:PRO:540:CA:9855, V-B:TYR:539:CE2:9848, H-B:TYR:539:N:9842, V-B:ASP:366:CB:8183, V-B:PRO:540:CD:9859, H-B:ASP:366:OD1:8185, V-B:ASP:366:CG:8184, V-B:MET:535:CE:9807, V-B:LEU:363:CD1:8160, V-B:TYR:539:C:9839, H-B:GLU:543:OE1:9881, H-B:ALA:541:N:9863, V-B:TYR:539:CD2:9846, V-B:LEU:363:CA:8156, V-B:GLU:543:CG:9879, V-A:TYR:484:CZ:4347, H-A:TYR:484:OH:4348, V-A:TYR:484:CE2:4346, H-A:ARG:545:NE:4924, V-B:GLU:543:CD:9880, H-A:ARG:545:NH2:4928, V-B:ILE:538:CG2:9835, V-B:ILE:538:CA:9832, V-B:ILE:538:C:9830, V-B:ILE:538:CB:9834, V-B:ILE:538:CG1:9836"]

$$$$
4ag_Grossjean_2025
     RDKit          3D

 39 41  0  0  0  0  0  0  0  0999 V2000
  127.3350  122.3660   54.9910 C   0  0  0  0  0  0  0  0  0  0  0  0
  126.9690  122.7510   56.4120 C   0  0  0  0  0  0  0  0  0  0  0  0
  125.8110  123.4780   56.6820 C   0  0  0  0  0  0  0  0  0  0  0  0
  125.4920  123.8220   58.0010 C   0  0  0  0  0  0  0  0  0  0  0  0
  124.2170  124.6160   58.2450 C   0  0  0  0  0  0  0  0  0  0  0  0
  126.3800  123.4060   59.0280 C   0  0  0  0  0  0  0  0  0  0  0  0
  126.3610  123.5810   60.4550 C   0  0  0  0  0  0  0  0  0  0  0  0
  125.3550  124.2580   61.0980 N   0  0  0  0  0  0  0  0  0  0  0  0
  127.4570  123.0040   61.1140 C   0  0  0  0  0  0  0  0  0  0  0  0
  127.7470  122.9830   62.5470 C   0  0  0  0  0  0  0  0  0  0  0  0
  126.8650  122.7530   63.3780 O   0  0  0  0  0  0  0  0  0  0  0  0
  129.0230  123.2460   62.8990 N   0  0  0  0  0  0  0  0  0  0  0  0
  129.5420  123.2520   64.2660 C   0  0  0  0  0  0  0  0  0  0  0  0
  130.9330  123.8620   64.3980 C   0  0  0  0  0  0  0  0  0  0  0  0
  131.1800  124.8220   65.3840 C   0  0  0  0  0  0  0  0  0  0  0  0
  132.4560  125.3630   65.5220 C   0  0  0  0  0  0  0  0  0  0  0  0
  133.4830  124.9340   64.6830 C   0  0  0  0  0  0  0  0  0  0  0  0
  133.2460  123.9660   63.7090 C   0  0  0  0  0  0  0  0  0  0  0  0
  131.9710  123.4250   63.5710 C   0  0  0  0  0  0  0  0  0  0  0  0
  128.5440  122.2110   59.9740 S   0  0  0  0  0  0  0  0  0  0  0  0
  127.5310  122.6660   58.6220 C   0  0  0  0  0  0  0  0  0  0  0  0
  127.8380  122.3360   57.3660 N   0  0  0  0  0  0  0  0  0  0  0  0
  128.0928  121.5689   55.0107 H   0  0  0  0  0  0  0  0  0  0  0  0
  126.4379  122.0062   54.4660 H   0  0  0  0  0  0  0  0  0  0  0  0
  127.7397  123.2438   54.4660 H   0  0  0  0  0  0  0  0  0  0  0  0
  125.1477  123.7815   55.8587 H   0  0  0  0  0  0  0  0  0  0  0  0
  124.0509  124.7194   59.3275 H   0  0  0  0  0  0  0  0  0  0  0  0
  124.3140  125.6137   57.7920 H   0  0  0  0  0  0  0  0  0  0  0  0
  123.3644  124.0889   57.7920 H   0  0  0  0  0  0  0  0  0  0  0  0
  125.3000  124.2980   62.1060 H   0  0  0  0  0  0  0  0  0  0  0  0
  124.6360  124.7450   60.5810 H   0  0  0  0  0  0  0  0  0  0  0  0
  129.7050  123.3680   62.1640 H   0  0  0  0  0  0  0  0  0  0  0  0
  128.8497  123.8294   64.8964 H   0  0  0  0  0  0  0  0  0  0  0  0
  129.6240  122.2010   64.5801 H   0  0  0  0  0  0  0  0  0  0  0  0
  130.3679  125.1495   66.0497 H   0  0  0  0  0  0  0  0  0  0  0  0
  132.6524  126.1257   66.2899 H   0  0  0  0  0  0  0  0  0  0  0  0
  134.4899  125.3635   64.7907 H   0  0  0  0  0  0  0  0  0  0  0  0
  134.0625  123.6311   63.0524 H   0  0  0  0  0  0  0  0  0  0  0  0
  131.7805  122.6532   62.8107 H   0  0  0  0  0  0  0  0  0  0  0  0
  1  2  1  0
  2  3  2  0
  3  4  1  0
  4  5  1  0
  4  6  2  0
  6  7  1  0
  7  8  1  0
  7  9  2  0
  9 10  1  0
 10 11  2  0
 10 12  1  0
 12 13  1  0
 13 14  1  0
 14 15  2  0
 15 16  1  0
 16 17  2  0
 17 18  1  0
 18 19  2  0
  9 20  1  0
 20 21  1  0
 21 22  2  0
 22  2  1  0
 21  6  1  0
 19 14  1  0
  1 23  1  0
  1 24  1  0
  1 25  1  0
  3 26  1  0
  5 27  1  0
  5 28  1  0
  5 29  1  0
  8 30  1  0
  8 31  1  0
 12 32  1  0
 13 33  1  0
 13 34  1  0
 15 35  1  0
 16 36  1  0
 17 37  1  0
 18 38  1  0
 19 39  1  0
M  END
>  <Binding energies>  (1) 
[-7.73]

>  <Ligand effiencies>  (1) 
[-0.30920000000000003]

>  <Interactions>  (1) 
["V-B:TYR:539:CZ:9849, V-B:PRO:540:N:9856, V-B:TYR:539:CE1:9847, V-B:PRO:540:CB:9857, V-B:TYR:539:CD1:9845, V-B:PRO:540:CA:9855, V-B:TYR:539:CE2:9848, H-B:TYR:539:N:9842, V-B:ASP:366:CB:8183, H-B:ASP:366:OD1:8185, V-B:ASP:366:CG:8184, V-B:MET:535:CE:9807, V-B:LEU:363:CD1:8160, V-B:TYR:539:C:9839, V-B:TYR:539:CG:9844, H-B:GLU:543:OE1:9881, V-B:PRO:540:C:9853, H-B:ALA:541:N:9863, V-B:TYR:539:CD2:9846, V-B:LEU:363:CA:8156, V-B:TYR:531:CE2:9765, V-B:ALA:541:CB:9864, V-B:GLU:543:CG:9879, V-A:LEU:475:CD2:4259, V-A:TYR:484:CZ:4347, V-A:GLY:454:CA:4049, V-A:ARG:545:CZ:4926, V-B:GLU:543:CD:9880, V-B:ALA:541:CA:9862, V-B:ILE:538:CA:9832, V-B:ILE:538:C:9830"]

$$$$
4ah_Grossjean_2025
     RDKit          3D

 51 53  0  0  0  0  0  0  0  0999 V2000
  127.1980  128.6670   62.9350 C   0  0  0  0  0  0  0  0  0  0  0  0
  128.2730  128.7910   63.8600 O   0  0  0  0  0  0  0  0  0  0  0  0
  128.7200  127.6690   64.5360 C   0  0  0  0  0  0  0  0  0  0  0  0
  129.1390  126.4890   63.9040 C   0  0  0  0  0  0  0  0  0  0  0  0
  129.5770  125.3940   64.6510 C   0  0  0  0  0  0  0  0  0  0  0  0
  130.0720  124.1370   63.9450 C   0  0  0  0  0  0  0  0  0  0  0  0
  129.4310  123.9010   62.6520 N   0  0  0  0  0  0  0  0  0  0  0  0
  128.2270  123.3190   62.4710 C   0  0  0  0  0  0  0  0  0  0  0  0
  127.5510  122.8860   63.4050 O   0  0  0  0  0  0  0  0  0  0  0  0
  127.7790  123.1910   61.0840 C   0  0  0  0  0  0  0  0  0  0  0  0
  128.7570  122.3010   59.9160 S   0  0  0  0  0  0  0  0  0  0  0  0
  127.6210  122.6510   58.6320 C   0  0  0  0  0  0  0  0  0  0  0  0
  127.8060  122.2110   57.3870 N   0  0  0  0  0  0  0  0  0  0  0  0
  126.8510  122.5510   56.4880 C   0  0  0  0  0  0  0  0  0  0  0  0
  127.0820  122.0430   55.0770 C   0  0  0  0  0  0  0  0  0  0  0  0
  125.7260  123.3100   56.8020 C   0  0  0  0  0  0  0  0  0  0  0  0
  125.5350  123.7730   58.1090 C   0  0  0  0  0  0  0  0  0  0  0  0
  124.2930  124.6000   58.4020 C   0  0  0  0  0  0  0  0  0  0  0  0
  126.5180  123.4390   59.0800 C   0  0  0  0  0  0  0  0  0  0  0  0
  126.6400  123.7430   60.4810 C   0  0  0  0  0  0  0  0  0  0  0  0
  125.7110  124.4970   61.1520 N   0  0  0  0  0  0  0  0  0  0  0  0
  129.6240  125.4860   66.0420 C   0  0  0  0  0  0  0  0  0  0  0  0
  129.2060  126.6520   66.7020 C   0  0  0  0  0  0  0  0  0  0  0  0
  129.2130  126.8060   68.0770 O   0  0  0  0  0  0  0  0  0  0  0  0
  130.2120  127.6180   68.6830 C   0  0  0  0  0  0  0  0  0  0  0  0
  128.7500  127.7350   65.9370 C   0  0  0  0  0  0  0  0  0  0  0  0
  128.3550  128.8900   66.5690 O   0  0  0  0  0  0  0  0  0  0  0  0
  126.9480  129.0890   66.5830 C   0  0  0  0  0  0  0  0  0  0  0  0
  126.2517  128.5578   63.4851 H   0  0  0  0  0  0  0  0  0  0  0  0
  127.1529  129.5659   62.3026 H   0  0  0  0  0  0  0  0  0  0  0  0
  127.3587  127.7814   62.3026 H   0  0  0  0  0  0  0  0  0  0  0  0
  129.1223  126.4256   62.8060 H   0  0  0  0  0  0  0  0  0  0  0  0
  131.1559  124.2328   63.7835 H   0  0  0  0  0  0  0  0  0  0  0  0
  129.8191  123.2834   64.5910 H   0  0  0  0  0  0  0  0  0  0  0  0
  129.8900  124.3050   61.8490 H   0  0  0  0  0  0  0  0  0  0  0  0
  127.5370  121.0423   55.1175 H   0  0  0  0  0  0  0  0  0  0  0  0
  126.1206  121.9874   54.5453 H   0  0  0  0  0  0  0  0  0  0  0  0
  127.7558  122.7310   54.5453 H   0  0  0  0  0  0  0  0  0  0  0  0
  124.9870  123.5457   56.0221 H   0  0  0  0  0  0  0  0  0  0  0  0
  124.1599  124.6887   59.4903 H   0  0  0  0  0  0  0  0  0  0  0  0
  124.4081  125.6024   57.9638 H   0  0  0  0  0  0  0  0  0  0  0  0
  123.4126  124.1072   57.9638 H   0  0  0  0  0  0  0  0  0  0  0  0
  125.0060  125.0310   60.6660 H   0  0  0  0  0  0  0  0  0  0  0  0
  125.7070  124.5470   62.1610 H   0  0  0  0  0  0  0  0  0  0  0  0
  129.9938  124.6329   66.6298 H   0  0  0  0  0  0  0  0  0  0  0  0
  130.1267  127.5487   69.7775 H   0  0  0  0  0  0  0  0  0  0  0  0
  131.2073  127.2696   68.3700 H   0  0  0  0  0  0  0  0  0  0  0  0
  130.0743  128.6635   68.3700 H   0  0  0  0  0  0  0  0  0  0  0  0
  126.5951  129.1389   67.6237 H   0  0  0  0  0  0  0  0  0  0  0  0
  126.7057  130.0304   66.0681 H   0  0  0  0  0  0  0  0  0  0  0  0
  126.4541  128.2518   66.0681 H   0  0  0  0  0  0  0  0  0  0  0  0
  1  2  1  0
  2  3  1  0
  3  4  2  0
  4  5  1  0
  5  6  1  0
  6  7  1  0
  7  8  1  0
  8  9  2  0
  8 10  1  0
 10 11  1  0
 11 12  1  0
 12 13  2  0
 13 14  1  0
 14 15  1  0
 14 16  2  0
 16 17  1  0
 17 18  1  0
 17 19  2  0
 19 20  1  0
 20 21  1  0
  5 22  2  0
 22 23  1  0
 23 24  1  0
 24 25  1  0
 23 26  2  0
 26 27  1  0
 27 28  1  0
 26  3  1  0
 20 10  2  0
 19 12  1  0
  1 29  1  0
  1 30  1  0
  1 31  1  0
  4 32  1  0
  6 33  1  0
  6 34  1  0
  7 35  1  0
 15 36  1  0
 15 37  1  0
 15 38  1  0
 16 39  1  0
 18 40  1  0
 18 41  1  0
 18 42  1  0
 21 43  1  0
 21 44  1  0
 22 45  1  0
 25 46  1  0
 25 47  1  0
 25 48  1  0
 28 49  1  0
 28 50  1  0
 28 51  1  0
M  END
>  <Binding energies>  (1) 
[-6.76]

>  <Ligand effiencies>  (1) 
[-0.21806451612903224]

>  <Interactions>  (1) 
["V-B:PRO:540:N:9856, V-B:TYR:539:CE1:9847, V-B:PRO:540:CB:9857, V-B:TYR:539:CD1:9845, V-B:PRO:540:CA:9855, V-B:TYR:539:CE2:9848, H-B:TYR:539:N:9842, V-B:ASP:366:CB:8183, V-B:PRO:540:CD:9859, H-B:ASP:366:OD1:8185, V-B:ASP:366:CG:8184, V-B:MET:535:CE:9807, V-B:LEU:363:CD1:8160, V-B:TYR:539:C:9839, V-B:TYR:539:CG:9844, H-B:GLU:543:OE1:9881, H-B:ALA:541:N:9863, V-B:TYR:539:CD2:9846, V-B:LEU:363:CA:8156, V-B:GLU:543:CG:9879, V-B:GLU:543:CB:9878, V-A:GLU:543:CD:4908, V-B:GLU:543:CD:9880, V-B:HIS:456:CE1:9041, V-A:HIS:456:CE1:4070, V-A:GLU:543:CG:4907, V-A:GLU:543:CB:4906, V-B:TYR:484:CZ:9318, V-B:ILE:538:CG2:9835, V-B:ILE:538:CA:9832, V-B:ILE:538:C:9830, V-B:ILE:538:CB:9834"]

$$$$
4ai_Grossjean_2025
     RDKit          3D

 32 34  0  0  0  0  0  0  0  0999 V2000
  127.2270  122.0540   54.9940 C   0  0  0  0  0  0  0  0  0  0  0  0
  126.9060  122.5690   56.3850 C   0  0  0  0  0  0  0  0  0  0  0  0
  125.7800  123.3570   56.6150 C   0  0  0  0  0  0  0  0  0  0  0  0
  125.5000  123.8170   57.9070 C   0  0  0  0  0  0  0  0  0  0  0  0
  124.2590  124.6720   58.1090 C   0  0  0  0  0  0  0  0  0  0  0  0
  126.3950  123.4520   58.9500 C   0  0  0  0  0  0  0  0  0  0  0  0
  126.4120  123.7410   60.3580 C   0  0  0  0  0  0  0  0  0  0  0  0
  125.4470  124.5100   60.9590 N   0  0  0  0  0  0  0  0  0  0  0  0
  127.4900  123.1630   61.0470 C   0  0  0  0  0  0  0  0  0  0  0  0
  127.8190  123.2590   62.4700 C   0  0  0  0  0  0  0  0  0  0  0  0
  127.0860  122.7500   63.3210 O   0  0  0  0  0  0  0  0  0  0  0  0
  128.9680  123.9200   62.7580 N   0  0  0  0  0  0  0  0  0  0  0  0
  129.5190  124.1480   64.0120 C   0  0  0  0  0  0  0  0  0  0  0  0
  130.0300  125.3850   64.4070 C   0  0  0  0  0  0  0  0  0  0  0  0
  130.4770  125.1940   65.6940 C   0  0  0  0  0  0  0  0  0  0  0  0
  130.2470  123.9100   66.0570 O   0  0  0  0  0  0  0  0  0  0  0  0
  129.6380  123.2570   64.9840 N   0  0  0  0  0  0  0  0  0  0  0  0
  128.5350  122.2590   59.9490 S   0  0  0  0  0  0  0  0  0  0  0  0
  127.5120  122.6420   58.5820 C   0  0  0  0  0  0  0  0  0  0  0  0
  127.7820  122.2030   57.3520 N   0  0  0  0  0  0  0  0  0  0  0  0
  127.8074  121.1229   55.0726 H   0  0  0  0  0  0  0  0  0  0  0  0
  126.2909  121.8578   54.4506 H   0  0  0  0  0  0  0  0  0  0  0  0
  127.8154  122.8080   54.4506 H   0  0  0  0  0  0  0  0  0  0  0  0
  125.1113  123.6175   55.7814 H   0  0  0  0  0  0  0  0  0  0  0  0
  124.0732  124.8000   59.1856 H   0  0  0  0  0  0  0  0  0  0  0  0
  124.4126  125.6569   57.6438 H   0  0  0  0  0  0  0  0  0  0  0  0
  123.3934  124.1777   57.6438 H   0  0  0  0  0  0  0  0  0  0  0  0
  125.3850  124.5990   61.9630 H   0  0  0  0  0  0  0  0  0  0  0  0
  124.7600  125.0110   60.4130 H   0  0  0  0  0  0  0  0  0  0  0  0
  129.4960  124.2850   61.9800 H   0  0  0  0  0  0  0  0  0  0  0  0
  130.0673  126.3125   63.8168 H   0  0  0  0  0  0  0  0  0  0  0  0
  130.9462  125.9616   66.3269 H   0  0  0  0  0  0  0  0  0  0  0  0
  1  2  1  0
  2  3  2  0
  3  4  1  0
  4  5  1  0
  4  6  2  0
  6  7  1  0
  7  8  1  0
  7  9  2  0
  9 10  1  0
 10 11  2  0
 10 12  1  0
 12 13  1  0
 13 14  1  0
 14 15  2  0
 15 16  1  0
 16 17  1  0
  9 18  1  0
 18 19  1  0
 19 20  2  0
 20  2  1  0
 19  6  1  0
 17 13  2  0
  1 21  1  0
  1 22  1  0
  1 23  1  0
  3 24  1  0
  5 25  1  0
  5 26  1  0
  5 27  1  0
  8 28  1  0
  8 29  1  0
 12 30  1  0
 14 31  1  0
 15 32  1  0
M  END
>  <Binding energies>  (1) 
[-7.12]

>  <Ligand effiencies>  (1) 
[-0.3095652173913043]

>  <Interactions>  (1) 
["V-B:PRO:540:N:9856, V-B:TYR:539:CE1:9847, V-B:PRO:540:CB:9857, V-B:TYR:539:CD1:9845, V-B:PRO:540:CA:9855, V-B:TYR:539:CE2:9848, H-B:TYR:539:N:9842, V-B:ASP:366:CB:8183, H-B:ASP:366:OD1:8185, V-B:ASP:366:CG:8184, V-B:MET:535:CE:9807, V-B:LEU:363:CD1:8160, V-B:TYR:539:C:9839, V-B:TYR:539:CG:9844, H-B:GLU:543:OE1:9881, H-B:ALA:541:N:9863, V-B:TYR:539:CD2:9846, V-B:LEU:363:CA:8156, V-B:TYR:531:CE2:9765, V-B:ALA:541:CB:9864, V-B:GLU:543:CG:9879, H-A:TYR:484:OH:4348, V-B:GLU:543:CD:9880, V-B:ILE:538:CG2:9835, V-B:ILE:538:CA:9832, V-B:ILE:538:C:9830, V-B:ILE:538:CB:9834"]

$$$$
4aj_Grossjean_2025
     RDKit          3D

 32 34  0  0  0  0  0  0  0  0999 V2000
  126.9880  122.0010   54.9150 C   0  0  0  0  0  0  0  0  0  0  0  0
  126.7000  122.5260   56.3100 C   0  0  0  0  0  0  0  0  0  0  0  0
  125.5620  123.2860   56.5680 C   0  0  0  0  0  0  0  0  0  0  0  0
  125.3180  123.7650   57.8610 C   0  0  0  0  0  0  0  0  0  0  0  0
  124.0620  124.5910   58.0920 C   0  0  0  0  0  0  0  0  0  0  0  0
  126.2610  123.4480   58.8740 C   0  0  0  0  0  0  0  0  0  0  0  0
  126.3240  123.7690   60.2750 C   0  0  0  0  0  0  0  0  0  0  0  0
  125.3610  124.5220   60.8970 N   0  0  0  0  0  0  0  0  0  0  0  0
  127.4450  123.2390   60.9310 C   0  0  0  0  0  0  0  0  0  0  0  0
  127.8270  123.3760   62.3390 C   0  0  0  0  0  0  0  0  0  0  0  0
  127.2290  122.7510   63.2170 O   0  0  0  0  0  0  0  0  0  0  0  0
  128.8670  124.2110   62.5810 N   0  0  0  0  0  0  0  0  0  0  0  0
  129.4300  124.5050   63.8150 C   0  0  0  0  0  0  0  0  0  0  0  0
  129.6950  125.6920   64.3190 N   0  0  0  0  0  0  0  0  0  0  0  0
  130.2250  125.5990   65.5230 C   0  0  0  0  0  0  0  0  0  0  0  0
  130.4020  124.3110   66.0210 C   0  0  0  0  0  0  0  0  0  0  0  0
  129.8380  123.1670   64.8390 S   0  0  0  0  0  0  0  0  0  0  0  0
  128.4690  122.3340   59.8140 S   0  0  0  0  0  0  0  0  0  0  0  0
  127.3840  122.6590   58.4810 C   0  0  0  0  0  0  0  0  0  0  0  0
  127.6200  122.2020   57.2510 N   0  0  0  0  0  0  0  0  0  0  0  0
  127.5159  121.0387   54.9871 H   0  0  0  0  0  0  0  0  0  0  0  0
  126.0409  121.8600   54.3735 H   0  0  0  0  0  0  0  0  0  0  0  0
  127.6158  122.7239   54.3735 H   0  0  0  0  0  0  0  0  0  0  0  0
  124.8546  123.5101   55.7560 H   0  0  0  0  0  0  0  0  0  0  0  0
  123.8908  124.7036   59.1727 H   0  0  0  0  0  0  0  0  0  0  0  0
  124.1869  125.5838   57.6352 H   0  0  0  0  0  0  0  0  0  0  0  0
  123.1999  124.0830   57.6352 H   0  0  0  0  0  0  0  0  0  0  0  0
  125.3350  124.6310   61.9010 H   0  0  0  0  0  0  0  0  0  0  0  0
  124.6420  124.9960   60.3690 H   0  0  0  0  0  0  0  0  0  0  0  0
  129.2890  124.6680   61.7860 H   0  0  0  0  0  0  0  0  0  0  0  0
  130.5113  126.4896   66.1016 H   0  0  0  0  0  0  0  0  0  0  0  0
  130.8292  124.0581   67.0026 H   0  0  0  0  0  0  0  0  0  0  0  0
  1  2  1  0
  2  3  2  0
  3  4  1  0
  4  5  1  0
  4  6  2  0
  6  7  1  0
  7  8  1  0
  7  9  2  0
  9 10  1  0
 10 11  2  0
 10 12  1  0
 12 13  1  0
 13 14  2  0
 14 15  1  0
 15 16  2  0
 16 17  1  0
  9 18  1  0
 18 19  1  0
 19 20  2  0
 20  2  1  0
 19  6  1  0
 17 13  1  0
  1 21  1  0
  1 22  1  0
  1 23  1  0
  3 24  1  0
  5 25  1  0
  5 26  1  0
  5 27  1  0
  8 28  1  0
  8 29  1  0
 12 30  1  0
 15 31  1  0
 16 32  1  0
M  END
>  <Binding energies>  (1) 
[-7.18]

>  <Ligand effiencies>  (1) 
[-0.31217391304347825]

>  <Interactions>  (1) 
["V-B:PRO:540:N:9856, V-B:TYR:539:CE1:9847, V-B:PRO:540:CB:9857, V-B:TYR:539:CD1:9845, V-B:PRO:540:CA:9855, V-B:TYR:539:CE2:9848, H-B:TYR:539:N:9842, V-B:ASP:366:CB:8183, V-B:PRO:540:CD:9859, H-B:ASP:366:OD1:8185, V-B:ASP:366:CG:8184, V-B:MET:535:CE:9807, V-B:LEU:363:CD1:8160, V-B:TYR:539:C:9839, H-B:GLU:543:OE1:9881, H-B:ALA:541:N:9863, V-B:TYR:539:CD2:9846, V-B:LEU:363:CA:8156, V-B:TYR:531:CE2:9765, V-B:GLU:543:CG:9879, V-A:TYR:484:CZ:4347, V-A:GLU:543:CD:4908, V-A:TYR:484:CE2:4346, V-B:GLU:543:CD:9880, V-B:ILE:538:CG2:9835, V-B:ILE:538:CA:9832, V-B:ILE:538:C:9830, V-B:ILE:538:CB:9834, V-B:ILE:538:CG1:9836"]

$$$$
4ak_Grossjean_2025
     RDKit          3D

 50 51  0  0  0  0  0  0  0  0999 V2000
  127.3180  122.7530   56.2290 C   0  0  0  0  0  0  0  0  0  0  0  0
  126.1010  122.0250   56.2640 O   0  0  0  0  0  0  0  0  0  0  0  0
  125.0600  122.6950   56.9640 C   0  0  0  0  0  0  0  0  0  0  0  0
  125.6710  123.7060   57.9430 C   0  0  0  0  0  0  0  0  0  0  0  0
  124.9510  123.6690   59.1680 O   0  0  0  0  0  0  0  0  0  0  0  0
  125.6260  124.2980   60.2500 C   0  0  0  0  0  0  0  0  0  0  0  0
  125.3790  123.4980   61.5350 C   0  0  0  0  0  0  0  0  0  0  0  0
  126.6280  123.1380   62.1100 O   0  0  0  0  0  0  0  0  0  0  0  0
  127.6300  122.8170   61.1550 C   0  0  0  0  0  0  0  0  0  0  0  0
  129.0120  123.1900   61.7210 C   0  0  0  0  0  0  0  0  0  0  0  0
  128.9470  124.0020   62.9370 N   0  0  0  0  0  0  0  0  0  0  0  0
  130.0110  124.4510   63.6330 C   0  0  0  0  0  0  0  0  0  0  0  0
  131.1710  124.2270   63.2840 O   0  0  0  0  0  0  0  0  0  0  0  0
  129.7120  125.2320   64.8320 C   0  0  0  0  0  0  0  0  0  0  0  0
  130.0610  124.5770   66.4310 S   0  0  0  0  0  0  0  0  0  0  0  0
  129.4660  126.0280   67.2060 C   0  0  0  0  0  0  0  0  0  0  0  0
  129.4550  126.1660   68.5320 N   0  0  0  0  0  0  0  0  0  0  0  0
  128.9660  127.3390   69.0040 C   0  0  0  0  0  0  0  0  0  0  0  0
  128.9620  127.4770   70.5160 C   0  0  0  0  0  0  0  0  0  0  0  0
  128.4950  128.3660   68.1890 C   0  0  0  0  0  0  0  0  0  0  0  0
  128.5090  128.2190   66.7970 C   0  0  0  0  0  0  0  0  0  0  0  0
  127.9800  129.3660   65.9500 C   0  0  0  0  0  0  0  0  0  0  0  0
  129.0130  127.0020   66.2650 C   0  0  0  0  0  0  0  0  0  0  0  0
  129.1700  126.5240   64.9180 C   0  0  0  0  0  0  0  0  0  0  0  0
  128.8140  127.2760   63.8270 N   0  0  0  0  0  0  0  0  0  0  0  0
  127.6545  122.9543   57.2567 H   0  0  0  0  0  0  0  0  0  0  0  0
  128.0827  122.1638   55.7016 H   0  0  0  0  0  0  0  0  0  0  0  0
  127.1605  123.7054   55.7016 H   0  0  0  0  0  0  0  0  0  0  0  0
  124.4159  123.2233   56.2456 H   0  0  0  0  0  0  0  0  0  0  0  0
  124.4609  121.9602   57.5218 H   0  0  0  0  0  0  0  0  0  0  0  0
  126.7241  123.4478   58.1280 H   0  0  0  0  0  0  0  0  0  0  0  0
  125.6132  124.7166   57.5124 H   0  0  0  0  0  0  0  0  0  0  0  0
  126.7052  124.3319   60.0400 H   0  0  0  0  0  0  0  0  0  0  0  0
  125.2467  125.3229   60.3752 H   0  0  0  0  0  0  0  0  0  0  0  0
  124.8099  124.1132   62.2475 H   0  0  0  0  0  0  0  0  0  0  0  0
  124.8054  122.5894   61.2996 H   0  0  0  0  0  0  0  0  0  0  0  0
  127.6002  121.7387   60.9397 H   0  0  0  0  0  0  0  0  0  0  0  0
  127.4481  123.3797   60.2275 H   0  0  0  0  0  0  0  0  0  0  0  0
  129.5557  122.2619   61.9512 H   0  0  0  0  0  0  0  0  0  0  0  0
  129.5216  123.7944   60.9562 H   0  0  0  0  0  0  0  0  0  0  0  0
  128.0220  124.2270   63.2740 H   0  0  0  0  0  0  0  0  0  0  0  0
  128.9910  126.4780   70.9754 H   0  0  0  0  0  0  0  0  0  0  0  0
  129.8438  128.0525   70.8340 H   0  0  0  0  0  0  0  0  0  0  0  0
  128.0483  128.0005   70.8340 H   0  0  0  0  0  0  0  0  0  0  0  0
  128.1117  129.2933   68.6398 H   0  0  0  0  0  0  0  0  0  0  0  0
  127.6106  130.1670   66.6071 H   0  0  0  0  0  0  0  0  0  0  0  0
  128.7890  129.7564   65.3151 H   0  0  0  0  0  0  0  0  0  0  0  0
  127.1578  129.0041   65.3151 H   0  0  0  0  0  0  0  0  0  0  0  0
  127.9220  127.1580   63.3660 H   0  0  0  0  0  0  0  0  0  0  0  0
  129.4330  127.9790   63.4490 H   0  0  0  0  0  0  0  0  0  0  0  0
  1  2  1  0
  2  3  1  0
  3  4  1  0
  4  5  1  0
  5  6  1  0
  6  7  1  0
  7  8  1  0
  8  9  1  0
  9 10  1  0
 10 11  1  0
 11 12  1  0
 12 13  2  0
 12 14  1  0
 14 15  1  0
 15 16  1  0
 16 17  2  0
 17 18  1  0
 18 19  1  0
 18 20  2  0
 20 21  1  0
 21 22  1  0
 21 23  2  0
 23 24  1  0
 24 25  1  0
 24 14  2  0
 23 16  1  0
  1 26  1  0
  1 27  1  0
  1 28  1  0
  3 29  1  0
  3 30  1  0
  4 31  1  0
  4 32  1  0
  6 33  1  0
  6 34  1  0
  7 35  1  0
  7 36  1  0
  9 37  1  0
  9 38  1  0
 10 39  1  0
 10 40  1  0
 11 41  1  0
 19 42  1  0
 19 43  1  0
 19 44  1  0
 20 45  1  0
 22 46  1  0
 22 47  1  0
 22 48  1  0
 25 49  1  0
 25 50  1  0
M  END
>  <Binding energies>  (1) 
[-6.27]

>  <Ligand effiencies>  (1) 
[-0.22392857142857142]

>  <Interactions>  (1) 
["V-B:TYR:539:CZ:9849, V-B:PRO:540:N:9856, V-B:TYR:539:CE1:9847, V-B:PRO:540:CB:9857, V-B:TYR:539:CD1:9845, V-B:PRO:540:CA:9855, H-B:TYR:539:N:9842, V-B:PRO:540:CD:9859, V-B:MET:535:CE:9807, V-B:LEU:363:CD1:8160, V-B:PRO:540:CG:9858, V-B:TYR:539:CG:9844, H-B:GLU:543:OE1:9881, V-B:PRO:540:C:9853, H-B:ALA:541:N:9863, V-B:GLU:543:CG:9879, V-A:TYR:484:CZ:4347, V-B:GLU:543:CB:9878, V-A:GLU:543:CD:4908, V-A:TYR:484:CE2:4346, V-B:GLU:543:CD:9880, V-B:HIS:456:CE1:9041, V-A:HIS:456:CE1:4070, V-A:GLU:543:CG:4907, V-A:GLU:543:CB:4906, H-A:GLU:543:OE1:4909, H-A:GLU:543:OE2:4910, H-B:GLU:543:OE2:9882, V-B:GLU:543:CA:9876"]

$$$$
4al_Grossjean_2025
     RDKit          3D

 28 29  0  0  0  0  0  0  0  0999 V2000
  129.1280  125.2100   63.0930 C   0  0  0  0  0  0  0  0  0  0  0  0
  129.0960  123.8540   62.6750 O   0  0  0  0  0  0  0  0  0  0  0  0
  127.9140  123.2180   62.4640 C   0  0  0  0  0  0  0  0  0  0  0  0
  127.2080  122.7580   63.3640 O   0  0  0  0  0  0  0  0  0  0  0  0
  127.5550  123.1300   61.0310 C   0  0  0  0  0  0  0  0  0  0  0  0
  128.5690  122.2020   59.9240 S   0  0  0  0  0  0  0  0  0  0  0  0
  127.5240  122.5910   58.5770 C   0  0  0  0  0  0  0  0  0  0  0  0
  127.7690  122.1460   57.3440 N   0  0  0  0  0  0  0  0  0  0  0  0
  126.8820  122.5200   56.3880 C   0  0  0  0  0  0  0  0  0  0  0  0
  127.1790  122.0030   54.9930 C   0  0  0  0  0  0  0  0  0  0  0  0
  125.7670  123.3180   56.6360 C   0  0  0  0  0  0  0  0  0  0  0  0
  125.5130  123.7830   57.9310 C   0  0  0  0  0  0  0  0  0  0  0  0
  124.2850  124.6520   58.1520 C   0  0  0  0  0  0  0  0  0  0  0  0
  126.4220  123.4120   58.9580 C   0  0  0  0  0  0  0  0  0  0  0  0
  126.4660  123.7040   60.3640 C   0  0  0  0  0  0  0  0  0  0  0  0
  125.5210  124.4760   60.9880 N   0  0  0  0  0  0  0  0  0  0  0  0
  129.1291  125.2550   64.1921 H   0  0  0  0  0  0  0  0  0  0  0  0
  130.0378  125.6918   62.7054 H   0  0  0  0  0  0  0  0  0  0  0  0
  128.2420  125.7342   62.7054 H   0  0  0  0  0  0  0  0  0  0  0  0
  127.7258  121.0511   55.0634 H   0  0  0  0  0  0  0  0  0  0  0  0
  126.2345  121.8441   54.4520 H   0  0  0  0  0  0  0  0  0  0  0  0
  127.7921  122.7389   54.4520 H   0  0  0  0  0  0  0  0  0  0  0  0
  125.0862  123.5825   55.8134 H   0  0  0  0  0  0  0  0  0  0  0  0
  124.1119  124.7745   59.2314 H   0  0  0  0  0  0  0  0  0  0  0  0
  124.4462  125.6382   57.6923 H   0  0  0  0  0  0  0  0  0  0  0  0
  123.4085  124.1719   57.6923 H   0  0  0  0  0  0  0  0  0  0  0  0
  125.4770  124.5600   61.9940 H   0  0  0  0  0  0  0  0  0  0  0  0
  124.8300  124.9910   60.4590 H   0  0  0  0  0  0  0  0  0  0  0  0
  1  2  1  0
  2  3  1  0
  3  4  2  0
  3  5  1  0
  5  6  1  0
  6  7  1  0
  7  8  2  0
  8  9  1  0
  9 10  1  0
  9 11  2  0
 11 12  1  0
 12 13  1  0
 12 14  2  0
 14 15  1  0
 15 16  1  0
 15  5  2  0
 14  7  1  0
  1 17  1  0
  1 18  1  0
  1 19  1  0
 10 20  1  0
 10 21  1  0
 10 22  1  0
 11 23  1  0
 13 24  1  0
 13 25  1  0
 13 26  1  0
 16 27  1  0
 16 28  1  0
M  END
>  <Binding energies>  (1) 
[-5.94]

>  <Ligand effiencies>  (1) 
[-0.33]

>  <Interactions>  (1) 
["V-B:PRO:540:N:9856, V-B:TYR:539:CE1:9847, V-B:PRO:540:CB:9857, V-B:TYR:539:CD1:9845, V-B:PRO:540:CA:9855, V-B:TYR:539:CE2:9848, H-B:TYR:539:N:9842, V-B:ASP:366:CB:8183, V-B:PRO:540:CD:9859, H-B:ASP:366:OD1:8185, V-B:ASP:366:CG:8184, V-B:MET:535:CE:9807, V-B:LEU:363:CD1:8160, V-B:TYR:539:C:9839, V-B:TYR:539:CG:9844, H-B:GLU:543:OE1:9881, H-B:ALA:541:N:9863, V-B:TYR:539:CD2:9846, V-B:LEU:363:CA:8156, V-B:TYR:531:CE2:9765, V-B:ALA:541:CB:9864, V-B:GLU:543:CG:9879, V-B:GLU:543:CD:9880, V-B:ILE:538:CG2:9835, V-B:ILE:538:CA:9832, V-B:ILE:538:C:9830, V-B:ILE:538:CB:9834"]

$$$$
4ba_Grossjean_2025
     RDKit          3D

 44 46  0  0  0  0  0  0  0  0999 V2000
  124.9940  124.4680   57.0040 C   0  0  0  0  0  0  0  0  0  0  0  0
  125.3740  122.9800   56.8890 C   0  0  0  0  0  0  0  0  0  0  0  0
  126.8070  122.6330   57.3450 C   0  0  0  0  0  0  0  0  0  0  0  0
  127.5120  121.9120   56.6360 O   0  0  0  0  0  0  0  0  0  0  0  0
  127.2810  123.2050   58.6490 C   0  0  0  0  0  0  0  0  0  0  0  0
  126.3450  123.5230   59.6410 C   0  0  0  0  0  0  0  0  0  0  0  0
  126.7570  124.0560   60.8590 C   0  0  0  0  0  0  0  0  0  0  0  0
  128.1110  124.2780   61.1130 C   0  0  0  0  0  0  0  0  0  0  0  0
  128.4160  124.8280   62.3730 N   0  0  0  0  0  0  0  0  0  0  0  0
  129.5900  124.8610   63.0490 C   0  0  0  0  0  0  0  0  0  0  0  0
  130.6330  124.3400   62.6500 O   0  0  0  0  0  0  0  0  0  0  0  0
  129.5490  125.5530   64.3390 C   0  0  0  0  0  0  0  0  0  0  0  0
  130.1960  124.7760   65.7820 S   0  0  0  0  0  0  0  0  0  0  0  0
  129.7370  126.1360   66.7780 C   0  0  0  0  0  0  0  0  0  0  0  0
  129.9770  126.1510   68.0880 N   0  0  0  0  0  0  0  0  0  0  0  0
  129.5750  127.2570   68.7540 C   0  0  0  0  0  0  0  0  0  0  0  0
  129.8500  127.2490   70.2470 C   0  0  0  0  0  0  0  0  0  0  0  0
  128.9480  128.3420   68.1460 C   0  0  0  0  0  0  0  0  0  0  0  0
  128.6920  128.3330   66.7650 C   0  0  0  0  0  0  0  0  0  0  0  0
  128.0030  129.5500   66.1410 C   0  0  0  0  0  0  0  0  0  0  0  0
  128.4580  129.8390   64.9200 F   0  0  0  0  0  0  0  0  0  0  0  0
  126.6930  129.3240   66.0350 F   0  0  0  0  0  0  0  0  0  0  0  0
  128.2030  130.6240   66.9060 F   0  0  0  0  0  0  0  0  0  0  0  0
  129.0990  127.1770   66.0350 C   0  0  0  0  0  0  0  0  0  0  0  0
  128.9980  126.8090   64.6430 C   0  0  0  0  0  0  0  0  0  0  0  0
  128.4160  127.6210   63.7040 N   0  0  0  0  0  0  0  0  0  0  0  0
  129.0550  123.9690   60.1220 C   0  0  0  0  0  0  0  0  0  0  0  0
  128.6410  123.4360   58.9030 C   0  0  0  0  0  0  0  0  0  0  0  0
  124.9227  124.7472   58.0656 H   0  0  0  0  0  0  0  0  0  0  0  0
  125.7642  125.0820   56.5143 H   0  0  0  0  0  0  0  0  0  0  0  0
  124.0237  124.6376   56.5143 H   0  0  0  0  0  0  0  0  0  0  0  0
  124.6707  122.4001   57.5047 H   0  0  0  0  0  0  0  0  0  0  0  0
  125.3252  122.7333   55.8181 H   0  0  0  0  0  0  0  0  0  0  0  0
  125.2746  123.3500   59.4559 H   0  0  0  0  0  0  0  0  0  0  0  0
  126.0097  124.3041   61.6271 H   0  0  0  0  0  0  0  0  0  0  0  0
  127.6260  125.2480   62.8400 H   0  0  0  0  0  0  0  0  0  0  0  0
  128.8969  127.2767   70.7955 H   0  0  0  0  0  0  0  0  0  0  0  0
  130.4000  126.3345   70.5136 H   0  0  0  0  0  0  0  0  0  0  0  0
  130.4523  128.1300   70.5136 H   0  0  0  0  0  0  0  0  0  0  0  0
  128.6515  129.2114   68.7512 H   0  0  0  0  0  0  0  0  0  0  0  0
  127.4790  127.4590   63.3640 H   0  0  0  0  0  0  0  0  0  0  0  0
  128.9100  128.4100   63.3120 H   0  0  0  0  0  0  0  0  0  0  0  0
  130.1243  124.1479   60.3078 H   0  0  0  0  0  0  0  0  0  0  0  0
  129.3878  123.1941   58.1325 H   0  0  0  0  0  0  0  0  0  0  0  0
  1  2  1  0
  2  3  1  0
  3  4  2  0
  3  5  1  0
  5  6  2  0
  6  7  1  0
  7  8  2  0
  8  9  1  0
  9 10  1  0
 10 11  2  0
 10 12  1  0
 12 13  1  0
 13 14  1  0
 14 15  2  0
 15 16  1  0
 16 17  1  0
 16 18  2  0
 18 19  1  0
 19 20  1  0
 20 21  1  0
 20 22  1  0
 20 23  1  0
 19 24  2  0
 24 25  1  0
 25 26  1  0
  8 27  1  0
 27 28  2  0
 28  5  1  0
 25 12  2  0
 24 14  1  0
  1 29  1  0
  1 30  1  0
  1 31  1  0
  2 32  1  0
  2 33  1  0
  6 34  1  0
  7 35  1  0
  9 36  1  0
 17 37  1  0
 17 38  1  0
 17 39  1  0
 18 40  1  0
 26 41  1  0
 26 42  1  0
 27 43  1  0
 28 44  1  0
M  END
>  <Binding energies>  (1) 
[-6.99]

>  <Ligand effiencies>  (1) 
[-0.22548387096774195]

>  <Interactions>  (1) 
["V-B:TYR:539:CZ:9849, V-B:PRO:540:N:9856, V-B:PRO:540:CB:9857, V-B:PRO:540:CA:9855, V-B:TYR:539:CE2:9848, H-B:TYR:539:N:9842, V-B:PRO:540:CD:9859, V-B:MET:535:CE:9807, V-B:LEU:363:CD1:8160, V-B:TYR:539:C:9839, H-B:GLU:543:OE1:9881, V-B:TYR:531:CZ:9766, V-B:TYR:539:CD2:9846, V-B:TYR:531:CE2:9765, V-B:GLU:543:CG:9879, V-B:GLU:543:CB:9878, V-A:GLU:543:CD:4908, V-A:TYR:484:CE2:4346, V-B:GLU:543:CD:9880, V-B:HIS:456:CE1:9041, V-A:HIS:456:CE1:4070, V-A:GLU:543:CG:4907, V-A:GLU:543:CB:4906, H-A:GLU:543:OE1:4909, V-B:TYR:484:CZ:9318, V-A:GLU:543:CA:4904, H-B:GLU:543:OE2:9882, V-B:TYR:484:CE2:9317"]

$$$$
4bb_Grossjean_2025
     RDKit          3D

 41 43  0  0  0  0  0  0  0  0999 V2000
  125.0150  122.7310   56.7170 C   0  0  0  0  0  0  0  0  0  0  0  0
  126.4930  122.5550   57.0750 C   0  0  0  0  0  0  0  0  0  0  0  0
  127.2190  121.9670   56.2710 O   0  0  0  0  0  0  0  0  0  0  0  0
  126.9760  123.0960   58.3870 C   0  0  0  0  0  0  0  0  0  0  0  0
  126.1950  124.0350   59.0730 C   0  0  0  0  0  0  0  0  0  0  0  0
  126.6200  124.5530   60.2920 C   0  0  0  0  0  0  0  0  0  0  0  0
  127.8290  124.1380   60.8540 C   0  0  0  0  0  0  0  0  0  0  0  0
  128.1650  124.7290   62.0880 N   0  0  0  0  0  0  0  0  0  0  0  0
  129.3730  124.8710   62.6860 C   0  0  0  0  0  0  0  0  0  0  0  0
  130.4300  124.4500   62.2180 O   0  0  0  0  0  0  0  0  0  0  0  0
  129.3500  125.5510   63.9840 C   0  0  0  0  0  0  0  0  0  0  0  0
  130.0210  124.7630   65.4110 S   0  0  0  0  0  0  0  0  0  0  0  0
  129.5820  126.1180   66.4240 C   0  0  0  0  0  0  0  0  0  0  0  0
  129.8520  126.1280   67.7280 N   0  0  0  0  0  0  0  0  0  0  0  0
  129.4640  127.2310   68.4070 C   0  0  0  0  0  0  0  0  0  0  0  0
  129.7820  127.2220   69.8910 C   0  0  0  0  0  0  0  0  0  0  0  0
  128.8180  128.3150   67.8190 C   0  0  0  0  0  0  0  0  0  0  0  0
  128.5310  128.3110   66.4460 C   0  0  0  0  0  0  0  0  0  0  0  0
  127.8190  129.5270   65.8430 C   0  0  0  0  0  0  0  0  0  0  0  0
  128.2670  129.8450   64.6260 F   0  0  0  0  0  0  0  0  0  0  0  0
  126.5130  129.2770   65.7360 F   0  0  0  0  0  0  0  0  0  0  0  0
  128.0000  130.5910   66.6250 F   0  0  0  0  0  0  0  0  0  0  0  0
  128.9270  127.1610   65.6980 C   0  0  0  0  0  0  0  0  0  0  0  0
  128.8050  126.8050   64.3070 C   0  0  0  0  0  0  0  0  0  0  0  0
  128.2140  127.6260   63.3820 N   0  0  0  0  0  0  0  0  0  0  0  0
  128.6210  123.2040   60.1690 C   0  0  0  0  0  0  0  0  0  0  0  0
  128.1940  122.6870   58.9480 C   0  0  0  0  0  0  0  0  0  0  0  0
  124.4202  122.8018   57.6396 H   0  0  0  0  0  0  0  0  0  0  0  0
  124.8876  123.6507   56.1271 H   0  0  0  0  0  0  0  0  0  0  0  0
  124.6752  121.8670   56.1271 H   0  0  0  0  0  0  0  0  0  0  0  0
  125.2375  124.3655   58.6441 H   0  0  0  0  0  0  0  0  0  0  0  0
  125.9996  125.2945   60.8167 H   0  0  0  0  0  0  0  0  0  0  0  0
  127.3720  125.0770   62.6070 H   0  0  0  0  0  0  0  0  0  0  0  0
  128.8452  127.2485   70.4669 H   0  0  0  0  0  0  0  0  0  0  0  0
  130.3402  126.3077   70.1408 H   0  0  0  0  0  0  0  0  0  0  0  0
  130.3911  128.1033   70.1408 H   0  0  0  0  0  0  0  0  0  0  0  0
  128.5309  129.1800   68.4349 H   0  0  0  0  0  0  0  0  0  0  0  0
  128.6860  128.4370   63.0060 H   0  0  0  0  0  0  0  0  0  0  0  0
  127.2790  127.4480   63.0410 H   0  0  0  0  0  0  0  0  0  0  0  0
  129.5809  122.8794   60.5970 H   0  0  0  0  0  0  0  0  0  0  0  0
  128.8180  121.9514   58.4193 H   0  0  0  0  0  0  0  0  0  0  0  0
  1  2  1  0
  2  3  2  0
  2  4  1  0
  4  5  2  0
  5  6  1  0
  6  7  2  0
  7  8  1  0
  8  9  1  0
  9 10  2  0
  9 11  1  0
 11 12  1  0
 12 13  1  0
 13 14  2  0
 14 15  1  0
 15 16  1  0
 15 17  2  0
 17 18  1  0
 18 19  1  0
 19 20  1  0
 19 21  1  0
 19 22  1  0
 18 23  2  0
 23 24  1  0
 24 25  1  0
  7 26  1  0
 26 27  2  0
 27  4  1  0
 24 11  2  0
 23 13  1  0
  1 28  1  0
  1 29  1  0
  1 30  1  0
  5 31  1  0
  6 32  1  0
  8 33  1  0
 16 34  1  0
 16 35  1  0
 16 36  1  0
 17 37  1  0
 25 38  1  0
 25 39  1  0
 26 40  1  0
 27 41  1  0
M  END
>  <Binding energies>  (1) 
[-6.91]

>  <Ligand effiencies>  (1) 
[-0.23033333333333333]

>  <Interactions>  (1) 
["V-B:PRO:540:N:9856, V-B:PRO:540:CB:9857, V-B:PRO:540:CA:9855, V-B:TYR:539:CE2:9848, H-B:TYR:539:N:9842, V-B:PRO:540:CD:9859, V-B:MET:535:CE:9807, V-B:LEU:363:CD1:8160, V-B:PRO:540:CG:9858, V-B:TYR:539:C:9839, H-B:GLU:543:OE1:9881, V-B:TYR:539:CD2:9846, V-B:GLU:543:CG:9879, V-B:GLU:543:CB:9878, V-A:GLU:543:CD:4908, V-B:GLU:543:CD:9880, V-B:HIS:456:CE1:9041, V-A:HIS:456:CE1:4070, V-A:GLU:543:CG:4907, V-A:GLU:543:CB:4906, H-A:GLU:543:OE1:4909, V-B:TYR:484:CZ:9318, V-A:GLU:543:CA:4904, H-B:GLU:543:OE2:9882, V-B:ILE:538:CG2:9835, V-B:TYR:484:CE2:9317"]

$$$$
4bc_Grossjean_2025
     RDKit          3D

 40 42  0  0  0  0  0  0  0  0999 V2000
  130.5780  132.7990   56.6940 C   0  0  0  0  0  0  0  0  0  0  0  0
  129.8860  133.5070   57.7170 O   0  0  0  0  0  0  0  0  0  0  0  0
  129.6000  132.8640   58.9060 C   0  0  0  0  0  0  0  0  0  0  0  0
  130.4330  131.8010   59.2540 C   0  0  0  0  0  0  0  0  0  0  0  0
  130.2230  131.0920   60.4340 C   0  0  0  0  0  0  0  0  0  0  0  0
  129.1780  131.4460   61.2900 C   0  0  0  0  0  0  0  0  0  0  0  0
  129.0340  130.6640   62.4510 N   0  0  0  0  0  0  0  0  0  0  0  0
  127.9380  130.0180   62.9190 C   0  0  0  0  0  0  0  0  0  0  0  0
  126.8330  130.0570   62.3750 O   0  0  0  0  0  0  0  0  0  0  0  0
  128.1380  129.2510   64.1520 C   0  0  0  0  0  0  0  0  0  0  0  0
  127.5500  129.8760   65.6910 S   0  0  0  0  0  0  0  0  0  0  0  0
  128.1530  128.4750   66.5430 C   0  0  0  0  0  0  0  0  0  0  0  0
  128.0010  128.3440   67.8610 N   0  0  0  0  0  0  0  0  0  0  0  0
  128.5120  127.2170   68.4080 C   0  0  0  0  0  0  0  0  0  0  0  0
  128.3230  127.0840   69.9080 C   0  0  0  0  0  0  0  0  0  0  0  0
  129.1650  126.2270   67.6770 C   0  0  0  0  0  0  0  0  0  0  0  0
  129.3280  126.3610   66.2890 C   0  0  0  0  0  0  0  0  0  0  0  0
  130.0570  125.2470   65.5280 C   0  0  0  0  0  0  0  0  0  0  0  0
  129.4120  124.8610   64.4250 F   0  0  0  0  0  0  0  0  0  0  0  0
  131.2640  125.6700   65.1580 F   0  0  0  0  0  0  0  0  0  0  0  0
  130.1860  124.1750   66.3110 F   0  0  0  0  0  0  0  0  0  0  0  0
  128.8000  127.5370   65.6800 C   0  0  0  0  0  0  0  0  0  0  0  0
  128.7720  128.0100   64.3170 C   0  0  0  0  0  0  0  0  0  0  0  0
  129.3190  127.3010   63.2770 N   0  0  0  0  0  0  0  0  0  0  0  0
  128.3280  132.5060   60.9410 C   0  0  0  0  0  0  0  0  0  0  0  0
  128.5400  133.2110   59.7600 C   0  0  0  0  0  0  0  0  0  0  0  0
  131.2771  132.0837   57.1517 H   0  0  0  0  0  0  0  0  0  0  0  0
  129.8535  132.2553   56.0699 H   0  0  0  0  0  0  0  0  0  0  0  0
  131.1381  133.5109   56.0699 H   0  0  0  0  0  0  0  0  0  0  0  0
  131.2638  131.5199   58.5901 H   0  0  0  0  0  0  0  0  0  0  0  0
  130.8824  130.2504   60.6927 H   0  0  0  0  0  0  0  0  0  0  0  0
  129.8640  130.6090   63.0230 H   0  0  0  0  0  0  0  0  0  0  0  0
  129.1156  127.6417   70.4283 H   0  0  0  0  0  0  0  0  0  0  0  0
  127.3413  127.4914   70.1914 H   0  0  0  0  0  0  0  0  0  0  0  0
  128.3751  126.0224   70.1914 H   0  0  0  0  0  0  0  0  0  0  0  0
  129.5550  125.3356   68.1901 H   0  0  0  0  0  0  0  0  0  0  0  0
  128.8280  126.5410   62.8300 H   0  0  0  0  0  0  0  0  0  0  0  0
  130.2390  127.5220   62.9200 H   0  0  0  0  0  0  0  0  0  0  0  0
  127.4926  132.7804   61.6019 H   0  0  0  0  0  0  0  0  0  0  0  0
  127.8737  134.0448   59.4937 H   0  0  0  0  0  0  0  0  0  0  0  0
  1  2  1  0
  2  3  1  0
  3  4  2  0
  4  5  1  0
  5  6  2  0
  6  7  1  0
  7  8  1  0
  8  9  2  0
  8 10  1  0
 10 11  1  0
 11 12  1  0
 12 13  2  0
 13 14  1  0
 14 15  1  0
 14 16  2  0
 16 17  1  0
 17 18  1  0
 18 19  1  0
 18 20  1  0
 18 21  1  0
 17 22  2  0
 22 23  1  0
 23 24  1  0
  6 25  1  0
 25 26  2  0
 26  3  1  0
 23 10  2  0
 22 12  1  0
  1 27  1  0
  1 28  1  0
  1 29  1  0
  4 30  1  0
  5 31  1  0
  7 32  1  0
 15 33  1  0
 15 34  1  0
 15 35  1  0
 16 36  1  0
 24 37  1  0
 24 38  1  0
 25 39  1  0
 26 40  1  0
M  END
>  <Binding energies>  (1) 
[-5.84]

>  <Ligand effiencies>  (1) 
[-0.2013793103448276]

>  <Interactions>  (1) 
["V-A:PRO:540:CA:4883, V-A:PRO:540:CB:4885, V-A:PRO:540:N:4884, V-A:TYR:539:C:4867, H-A:TYR:539:N:4870, H-B:GLU:543:OE1:9881, V-B:GLU:543:CG:9879, V-A:TYR:484:CZ:4347, V-B:GLU:543:CB:9878, V-A:GLU:543:CD:4908, V-A:TYR:484:CE2:4346, V-B:GLU:543:CD:9880, V-B:HIS:456:CE1:9041, V-B:GLU:543:C:9874, V-A:HIS:456:CE1:4070, V-A:GLU:543:CG:4907, V-A:GLU:543:CB:4906, H-A:GLU:543:OE1:4909, H-A:GLU:543:OE2:4910, V-B:TYR:484:CZ:9318, V-A:TYR:539:CE1:4875, V-B:GLU:543:CA:9876, V-A:TYR:539:CD1:4873, V-A:ILE:538:CA:4860, V-A:ILE:538:CB:4862"]

$$$$
4bd_Grossjean_2025
     RDKit          3D

 36 38  0  0  0  0  0  0  0  0999 V2000
  134.3460  124.2060   60.3560 C   0  0  0  0  0  0  0  0  0  0  0  0
  133.2350  123.9650   61.3620 C   0  0  0  0  0  0  0  0  0  0  0  0
  132.2190  123.0500   61.1050 C   0  0  0  0  0  0  0  0  0  0  0  0
  131.1970  122.8400   62.0440 C   0  0  0  0  0  0  0  0  0  0  0  0
  130.0970  121.8240   61.7150 C   0  0  0  0  0  0  0  0  0  0  0  0
  128.9280  122.3980   61.4190 F   0  0  0  0  0  0  0  0  0  0  0  0
  130.4590  121.0900   60.6640 F   0  0  0  0  0  0  0  0  0  0  0  0
  129.8940  121.0250   62.7620 F   0  0  0  0  0  0  0  0  0  0  0  0
  131.2540  123.5960   63.2520 C   0  0  0  0  0  0  0  0  0  0  0  0
  130.4060  123.6500   64.4180 C   0  0  0  0  0  0  0  0  0  0  0  0
  129.2830  122.8770   64.5510 N   0  0  0  0  0  0  0  0  0  0  0  0
  130.8350  124.5620   65.3980 C   0  0  0  0  0  0  0  0  0  0  0  0
  130.2090  124.8800   66.6850 C   0  0  0  0  0  0  0  0  0  0  0  0
  129.5300  124.0410   67.2770 O   0  0  0  0  0  0  0  0  0  0  0  0
  130.4480  126.1310   67.1540 N   0  0  0  0  0  0  0  0  0  0  0  0
  129.9680  126.7550   68.3200 C   0  0  0  0  0  0  0  0  0  0  0  0
  130.8600  127.6190   68.9620 C   0  0  0  0  0  0  0  0  0  0  0  0
  130.4760  128.2930   70.1180 C   0  0  0  0  0  0  0  0  0  0  0  0
  129.1940  128.1100   70.6300 C   0  0  0  0  0  0  0  0  0  0  0  0
  128.2920  127.2630   69.9920 C   0  0  0  0  0  0  0  0  0  0  0  0
  128.6720  126.5870   68.8350 C   0  0  0  0  0  0  0  0  0  0  0  0
  132.3140  125.3810   64.9030 S   0  0  0  0  0  0  0  0  0  0  0  0
  132.3490  124.5030   63.3910 C   0  0  0  0  0  0  0  0  0  0  0  0
  133.3170  124.6980   62.4970 N   0  0  0  0  0  0  0  0  0  0  0  0
  135.2860  124.4099   60.8897 H   0  0  0  0  0  0  0  0  0  0  0  0
  134.4689  123.3136   59.7247 H   0  0  0  0  0  0  0  0  0  0  0  0
  134.0881  125.0691   59.7247 H   0  0  0  0  0  0  0  0  0  0  0  0
  132.2166  122.4874   60.1597 H   0  0  0  0  0  0  0  0  0  0  0  0
  128.8720  122.3900   63.7670 H   0  0  0  0  0  0  0  0  0  0  0  0
  128.8270  122.7610   65.4460 H   0  0  0  0  0  0  0  0  0  0  0  0
  131.0730  126.7000   66.6020 H   0  0  0  0  0  0  0  0  0  0  0  0
  131.8699  127.7670   68.5519 H   0  0  0  0  0  0  0  0  0  0  0  0
  131.1822  128.9672   70.6248 H   0  0  0  0  0  0  0  0  0  0  0  0
  128.8916  128.6389   71.5459 H   0  0  0  0  0  0  0  0  0  0  0  0
  127.2800  127.1277   70.4013 H   0  0  0  0  0  0  0  0  0  0  0  0
  127.9585  125.9227   68.3255 H   0  0  0  0  0  0  0  0  0  0  0  0
  1  2  1  0
  2  3  2  0
  3  4  1  0
  4  5  1  0
  5  6  1  0
  5  7  1  0
  5  8  1  0
  4  9  2  0
  9 10  1  0
 10 11  1  0
 10 12  2  0
 12 13  1  0
 13 14  2  0
 13 15  1  0
 15 16  1  0
 16 17  2  0
 17 18  1  0
 18 19  2  0
 19 20  1  0
 20 21  2  0
 12 22  1  0
 22 23  1  0
 23 24  2  0
 24  2  1  0
 23  9  1  0
 21 16  1  0
  1 25  1  0
  1 26  1  0
  1 27  1  0
  3 28  1  0
 11 29  1  0
 11 30  1  0
 15 31  1  0
 17 32  1  0
 18 33  1  0
 19 34  1  0
 20 35  1  0
 21 36  1  0
M  END
>  <Binding energies>  (1) 
[-5.95]

>  <Ligand effiencies>  (1) 
[-0.22037037037037038]

>  <Interactions>  (1) 
["V-A:ASP:366:CG:3213, V-A:ASP:366:CB:3212, V-B:TYR:539:CE2:9848, V-B:TYR:539:CD2:9846, V-B:ALA:541:CB:9864, V-A:ASP:366:CA:3210, V-A:ILE:369:CD1:3239, V-B:GLU:543:CG:9879, V-A:ILE:369:CB:3236, V-A:ILE:369:CG2:3237, V-A:LEU:475:CD2:4259, V-A:TYR:484:CZ:4347, V-B:GLU:543:CB:9878, H-A:TYR:484:OH:4348, V-A:GLU:543:CD:4908, V-A:TYR:484:CE2:4346, V-A:ARG:545:CZ:4926, V-B:HIS:456:CE1:9041, V-A:GLY:544:C:4912, V-B:GLU:543:C:9874, V-B:HIS:456:CD2:9039, V-A:HIS:456:CE1:4070, V-A:GLU:543:C:4902, V-A:GLU:543:CB:4906, H-A:GLU:543:OE1:4909, H-A:GLU:543:OE2:4910, H-A:ARG:545:NH2:4928, V-A:LEU:475:CD1:4258"]

$$$$
4be_Grossjean_2025
     RDKit          3D

 38 40  0  0  0  0  0  0  0  0999 V2000
  127.3040  126.8710   70.7620 C   0  0  0  0  0  0  0  0  0  0  0  0
  128.6810  127.1700   70.1990 C   0  0  0  0  0  0  0  0  0  0  0  0
  129.5600  128.0430   70.8450 C   0  0  0  0  0  0  0  0  0  0  0  0
  130.8100  128.2730   70.2680 C   0  0  0  0  0  0  0  0  0  0  0  0
  131.1460  127.6330   69.0730 C   0  0  0  0  0  0  0  0  0  0  0  0
  130.2200  126.7660   68.4820 C   0  0  0  0  0  0  0  0  0  0  0  0
  130.6170  126.1590   67.2770 N   0  0  0  0  0  0  0  0  0  0  0  0
  130.2700  124.9450   66.7800 C   0  0  0  0  0  0  0  0  0  0  0  0
  129.5090  124.1620   67.3500 O   0  0  0  0  0  0  0  0  0  0  0  0
  130.8860  124.5910   65.4980 C   0  0  0  0  0  0  0  0  0  0  0  0
  132.3780  125.3790   64.9850 S   0  0  0  0  0  0  0  0  0  0  0  0
  132.3880  124.4820   63.4850 C   0  0  0  0  0  0  0  0  0  0  0  0
  133.3560  124.6460   62.5840 N   0  0  0  0  0  0  0  0  0  0  0  0
  133.2570  123.8950   61.4620 C   0  0  0  0  0  0  0  0  0  0  0  0
  134.3670  124.0990   60.4480 C   0  0  0  0  0  0  0  0  0  0  0  0
  132.2250  122.9920   61.2250 C   0  0  0  0  0  0  0  0  0  0  0  0
  131.2030  122.8130   62.1700 C   0  0  0  0  0  0  0  0  0  0  0  0
  130.0900  121.8050   61.8650 C   0  0  0  0  0  0  0  0  0  0  0  0
  129.8560  120.9650   62.8770 F   0  0  0  0  0  0  0  0  0  0  0  0
  128.9520  122.4510   61.6140 F   0  0  0  0  0  0  0  0  0  0  0  0
  130.4240  121.0710   60.8040 F   0  0  0  0  0  0  0  0  0  0  0  0
  131.2750  123.5940   63.3620 C   0  0  0  0  0  0  0  0  0  0  0  0
  130.4280  123.6870   64.5270 C   0  0  0  0  0  0  0  0  0  0  0  0
  129.2810  122.9500   64.6690 N   0  0  0  0  0  0  0  0  0  0  0  0
  128.9940  126.5400   69.0380 N   0  0  0  0  0  0  0  0  0  0  0  0
  127.3473  126.8804   71.8611 H   0  0  0  0  0  0  0  0  0  0  0  0
  126.5927  127.6356   70.4165 H   0  0  0  0  0  0  0  0  0  0  0  0
  126.9738  125.8802   70.4165 H   0  0  0  0  0  0  0  0  0  0  0  0
  129.2740  128.5370   71.7853 H   0  0  0  0  0  0  0  0  0  0  0  0
  131.5259  128.9540   70.7514 H   0  0  0  0  0  0  0  0  0  0  0  0
  132.1249  127.8080   68.6028 H   0  0  0  0  0  0  0  0  0  0  0  0
  131.2810  126.6930   66.7350 H   0  0  0  0  0  0  0  0  0  0  0  0
  135.3170  124.2736   60.9744 H   0  0  0  0  0  0  0  0  0  0  0  0
  134.4568  123.2023   59.8172 H   0  0  0  0  0  0  0  0  0  0  0  0
  134.1321  124.9690   59.8172 H   0  0  0  0  0  0  0  0  0  0  0  0
  132.2102  122.4138   60.2893 H   0  0  0  0  0  0  0  0  0  0  0  0
  128.8150  122.8520   65.5600 H   0  0  0  0  0  0  0  0  0  0  0  0
  128.8640  122.4710   63.8830 H   0  0  0  0  0  0  0  0  0  0  0  0
  1  2  1  0
  2  3  2  0
  3  4  1  0
  4  5  2  0
  5  6  1  0
  6  7  1  0
  7  8  1  0
  8  9  2  0
  8 10  1  0
 10 11  1  0
 11 12  1  0
 12 13  2  0
 13 14  1  0
 14 15  1  0
 14 16  2  0
 16 17  1  0
 17 18  1  0
 18 19  1  0
 18 20  1  0
 18 21  1  0
 17 22  2  0
 22 23  1  0
 23 24  1  0
  6 25  2  0
 25  2  1  0
 23 10  2  0
 22 12  1  0
  1 26  1  0
  1 27  1  0
  1 28  1  0
  3 29  1  0
  4 30  1  0
  5 31  1  0
  7 32  1  0
 15 33  1  0
 15 34  1  0
 15 35  1  0
 16 36  1  0
 24 37  1  0
 24 38  1  0
M  END
>  <Binding energies>  (1) 
[-5.99]

>  <Ligand effiencies>  (1) 
[-0.21392857142857144]

>  <Interactions>  (1) 
["V-A:ASP:366:CG:3213, V-B:TYR:539:CE2:9848, V-B:TYR:539:CD2:9846, V-B:ALA:541:CB:9864, V-A:ASP:366:CA:3210, V-A:ILE:369:CD1:3239, V-B:GLU:543:CG:9879, V-A:ILE:369:CB:3236, V-A:ILE:369:CG2:3237, V-A:LEU:475:CD2:4259, V-A:TYR:484:CZ:4347, V-B:GLU:543:CB:9878, H-A:TYR:484:OH:4348, V-A:GLU:543:CD:4908, V-A:TYR:484:CE2:4346, V-A:ARG:545:CZ:4926, V-B:GLU:543:CD:9880, V-B:HIS:456:CE1:9041, V-A:GLY:544:C:4912, V-B:GLY:544:C:9884, V-B:GLU:543:C:9874, V-A:HIS:456:CE1:4070, V-A:GLU:543:C:4902, V-A:GLU:543:CB:4906, V-B:GLY:544:CA:9886, V-A:ARG:545:CG:4922, H-A:GLU:543:OE2:4910, H-A:ARG:545:NH2:4928, V-A:LEU:475:CG:4257, V-A:LEU:475:CD1:4258"]

$$$$
4bf_Grossjean_2025
     RDKit          3D

 35 37  0  0  0  0  0  0  0  0999 V2000
  133.0860  125.3640   65.6060 C   0  0  0  0  0  0  0  0  0  0  0  0
  132.4040  124.6180   64.4720 C   0  0  0  0  0  0  0  0  0  0  0  0
  133.1080  123.7090   63.6870 C   0  0  0  0  0  0  0  0  0  0  0  0
  132.4670  123.0290   62.6400 C   0  0  0  0  0  0  0  0  0  0  0  0
  133.2830  122.0400   61.8010 C   0  0  0  0  0  0  0  0  0  0  0  0
  132.6040  120.9320   61.4920 F   0  0  0  0  0  0  0  0  0  0  0  0
  133.6500  122.6150   60.6550 F   0  0  0  0  0  0  0  0  0  0  0  0
  134.3720  121.6660   62.4750 F   0  0  0  0  0  0  0  0  0  0  0  0
  131.0850  123.3110   62.4280 C   0  0  0  0  0  0  0  0  0  0  0  0
  130.1180  122.8230   61.4750 C   0  0  0  0  0  0  0  0  0  0  0  0
  130.4300  121.8930   60.5160 N   0  0  0  0  0  0  0  0  0  0  0  0
  128.8370  123.3790   61.6200 C   0  0  0  0  0  0  0  0  0  0  0  0
  127.6380  123.1350   60.8120 C   0  0  0  0  0  0  0  0  0  0  0  0
  126.5770  122.8100   61.3460 O   0  0  0  0  0  0  0  0  0  0  0  0
  127.7930  123.3080   59.4770 N   0  0  0  0  0  0  0  0  0  0  0  0
  126.8680  123.1100   58.4340 C   0  0  0  0  0  0  0  0  0  0  0  0
  125.5670  123.6420   58.3870 C   0  0  0  0  0  0  0  0  0  0  0  0
  124.7420  123.3550   57.2970 C   0  0  0  0  0  0  0  0  0  0  0  0
  125.2380  122.5370   56.2810 C   0  0  0  0  0  0  0  0  0  0  0  0
  126.4860  122.0060   56.3060 N   0  0  0  0  0  0  0  0  0  0  0  0
  127.2760  122.2940   57.3720 C   0  0  0  0  0  0  0  0  0  0  0  0
  128.7910  124.5350   62.9490 S   0  0  0  0  0  0  0  0  0  0  0  0
  130.4810  124.2650   63.3050 C   0  0  0  0  0  0  0  0  0  0  0  0
  131.0940  124.9070   64.2980 N   0  0  0  0  0  0  0  0  0  0  0  0
  132.7282  124.9727   66.5698 H   0  0  0  0  0  0  0  0  0  0  0  0
  134.1747  125.2238   65.5347 H   0  0  0  0  0  0  0  0  0  0  0  0
  132.8489  126.4358   65.5347 H   0  0  0  0  0  0  0  0  0  0  0  0
  134.1732  123.5226   63.8886 H   0  0  0  0  0  0  0  0  0  0  0  0
  131.3050  121.9190   60.0110 H   0  0  0  0  0  0  0  0  0  0  0  0
  129.7920  121.1450   60.2820 H   0  0  0  0  0  0  0  0  0  0  0  0
  128.6990  123.6340   59.1730 H   0  0  0  0  0  0  0  0  0  0  0  0
  125.2010  124.2808   59.2043 H   0  0  0  0  0  0  0  0  0  0  0  0
  123.7229  123.7651   57.2407 H   0  0  0  0  0  0  0  0  0  0  0  0
  124.5884  122.3129   55.4221 H   0  0  0  0  0  0  0  0  0  0  0  0
  128.2881  121.8643   57.4028 H   0  0  0  0  0  0  0  0  0  0  0  0
  1  2  1  0
  2  3  2  0
  3  4  1  0
  4  5  1  0
  5  6  1  0
  5  7  1  0
  5  8  1  0
  4  9  2  0
  9 10  1  0
 10 11  1  0
 10 12  2  0
 12 13  1  0
 13 14  2  0
 13 15  1  0
 15 16  1  0
 16 17  2  0
 17 18  1  0
 18 19  2  0
 19 20  1  0
 20 21  2  0
 12 22  1  0
 22 23  1  0
 23 24  2  0
 24  2  1  0
 23  9  1  0
 21 16  1  0
  1 25  1  0
  1 26  1  0
  1 27  1  0
  3 28  1  0
 11 29  1  0
 11 30  1  0
 15 31  1  0
 17 32  1  0
 18 33  1  0
 19 34  1  0
 21 35  1  0
M  END
>  <Binding energies>  (1) 
[-6.2]

>  <Ligand effiencies>  (1) 
[-0.22962962962962963]

>  <Interactions>  (1) 
["V-B:PRO:540:N:9856, V-B:TYR:539:CE1:9847, V-B:PRO:540:CB:9857, V-B:TYR:539:CD1:9845, V-B:PRO:540:CA:9855, V-B:TYR:539:CE2:9848, H-B:TYR:539:N:9842, V-B:PRO:540:CD:9859, V-B:MET:535:CE:9807, V-B:LEU:363:CD1:8160, V-B:TYR:539:C:9839, V-B:TYR:539:CG:9844, H-B:ALA:541:N:9863, V-B:TYR:539:CD2:9846, V-A:ILE:369:CD1:3239, V-B:GLU:543:CG:9879, V-A:ILE:369:CG2:3237, V-A:LEU:475:CD2:4259, V-A:GLY:454:CA:4049, V-A:ARG:545:CZ:4926, V-B:GLU:543:CD:9880, V-B:ILE:538:CG2:9835, V-B:TYR:539:CA:9841, V-A:ARG:545:CD:4923, H-B:TYR:539:O:9840, V-A:SER:385:CB:3409, V-A:SER:385:C:3405"]

$$$$
4bg_Grossjean_2025
     RDKit          3D

 39 41  0  0  0  0  0  0  0  0999 V2000
  130.2680  120.6570   61.0710 C   0  0  0  0  0  0  0  0  0  0  0  0
  130.6740  121.7700   62.0210 C   0  0  0  0  0  0  0  0  0  0  0  0
  131.7130  122.6400   61.7040 C   0  0  0  0  0  0  0  0  0  0  0  0
  132.0820  123.6620   62.5940 C   0  0  0  0  0  0  0  0  0  0  0  0
  133.2320  124.5950   62.2010 C   0  0  0  0  0  0  0  0  0  0  0  0
  133.8620  124.2090   61.0900 F   0  0  0  0  0  0  0  0  0  0  0  0
  132.7620  125.8240   61.9870 F   0  0  0  0  0  0  0  0  0  0  0  0
  134.1370  124.6330   63.1790 F   0  0  0  0  0  0  0  0  0  0  0  0
  131.3500  123.7590   63.8140 C   0  0  0  0  0  0  0  0  0  0  0  0
  131.4410  124.6490   64.9460 C   0  0  0  0  0  0  0  0  0  0  0  0
  132.3730  125.6530   65.0280 N   0  0  0  0  0  0  0  0  0  0  0  0
  130.4900  124.4010   65.9460 C   0  0  0  0  0  0  0  0  0  0  0  0
  130.3160  125.0830   67.2290 C   0  0  0  0  0  0  0  0  0  0  0  0
  129.8590  124.4970   68.2120 O   0  0  0  0  0  0  0  0  0  0  0  0
  130.7220  126.3690   67.2730 N   0  0  0  0  0  0  0  0  0  0  0  0
  130.6310  127.2480   68.4390 C   0  0  0  0  0  0  0  0  0  0  0  0
  129.3040  127.1440   69.1790 C   0  0  0  0  0  0  0  0  0  0  0  0
  128.1100  127.0100   68.4630 C   0  0  0  0  0  0  0  0  0  0  0  0
  126.9030  126.8770   69.1430 C   0  0  0  0  0  0  0  0  0  0  0  0
  126.8930  126.8640   70.5370 C   0  0  0  0  0  0  0  0  0  0  0  0
  128.0800  126.9810   71.2560 C   0  0  0  0  0  0  0  0  0  0  0  0
  129.2880  127.1150   70.5760 C   0  0  0  0  0  0  0  0  0  0  0  0
  129.4690  123.0250   65.5350 S   0  0  0  0  0  0  0  0  0  0  0  0
  130.3020  122.8080   64.0140 C   0  0  0  0  0  0  0  0  0  0  0  0
  129.9580  121.8380   63.1660 N   0  0  0  0  0  0  0  0  0  0  0  0
  129.9476  119.7788   61.6507 H   0  0  0  0  0  0  0  0  0  0  0  0
  129.4374  121.0008   60.4371 H   0  0  0  0  0  0  0  0  0  0  0  0
  131.1249  120.3852   60.4371 H   0  0  0  0  0  0  0  0  0  0  0  0
  132.2488  122.5265   60.7500 H   0  0  0  0  0  0  0  0  0  0  0  0
  133.3040  125.4910   65.3810 H   0  0  0  0  0  0  0  0  0  0  0  0
  132.1520  126.5980   64.7420 H   0  0  0  0  0  0  0  0  0  0  0  0
  131.0110  126.8070   66.4100 H   0  0  0  0  0  0  0  0  0  0  0  0
  131.4397  126.9850   69.1367 H   0  0  0  0  0  0  0  0  0  0  0  0
  130.7151  128.2813   68.0713 H   0  0  0  0  0  0  0  0  0  0  0  0
  128.1249  127.0097   67.3631 H   0  0  0  0  0  0  0  0  0  0  0  0
  125.9610  126.7825   68.5829 H   0  0  0  0  0  0  0  0  0  0  0  0
  125.9386  126.7604   71.0741 H   0  0  0  0  0  0  0  0  0  0  0  0
  128.0635  126.9676   72.3558 H   0  0  0  0  0  0  0  0  0  0  0  0
  130.2296  127.1980   71.1386 H   0  0  0  0  0  0  0  0  0  0  0  0
  1  2  1  0
  2  3  2  0
  3  4  1  0
  4  5  1  0
  5  6  1  0
  5  7  1  0
  5  8  1  0
  4  9  2  0
  9 10  1  0
 10 11  1  0
 10 12  2  0
 12 13  1  0
 13 14  2  0
 13 15  1  0
 15 16  1  0
 16 17  1  0
 17 18  2  0
 18 19  1  0
 19 20  2  0
 20 21  1  0
 21 22  2  0
 12 23  1  0
 23 24  1  0
 24 25  2  0
 25  2  1  0
 24  9  1  0
 22 17  1  0
  1 26  1  0
  1 27  1  0
  1 28  1  0
  3 29  1  0
 11 30  1  0
 11 31  1  0
 15 32  1  0
 16 33  1  0
 16 34  1  0
 18 35  1  0
 19 36  1  0
 20 37  1  0
 21 38  1  0
 22 39  1  0
M  END
>  <Binding energies>  (1) 
[-6.11]

>  <Ligand effiencies>  (1) 
[-0.21821428571428572]

>  <Interactions>  (1) 
["V-A:ASP:366:CG:3213, V-B:TYR:539:CE2:9848, V-B:TYR:539:CD2:9846, V-A:ILE:369:CD1:3239, V-B:GLU:543:CG:9879, V-A:LEU:475:CD2:4259, V-A:TYR:484:CZ:4347, V-A:GLY:453:CA:4044, V-B:GLU:543:CB:9878, H-A:TYR:484:OH:4348, V-A:GLU:543:CD:4908, V-A:TYR:484:CE2:4346, V-A:ARG:545:CZ:4926, V-B:HIS:456:CE1:9041, V-B:GLY:544:C:9884, V-B:GLU:543:C:9874, V-A:HIS:456:CE1:4070, V-A:GLU:543:CB:4906, V-B:GLY:544:CA:9886, H-A:GLU:543:OE1:4909, H-A:GLU:543:OE2:4910, V-B:GLU:543:CA:9876, V-A:GLY:453:C:4042"]

$$$$
4bh_Grossjean_2025
     RDKit          3D

 51 53  0  0  0  0  0  0  0  0999 V2000
  129.8920  127.5930   68.9460 C   0  0  0  0  0  0  0  0  0  0  0  0
  128.7490  127.2080   68.1900 O   0  0  0  0  0  0  0  0  0  0  0  0
  128.6750  127.5470   66.8510 C   0  0  0  0  0  0  0  0  0  0  0  0
  128.1330  128.7520   66.3770 C   0  0  0  0  0  0  0  0  0  0  0  0
  128.0880  129.0280   65.0100 C   0  0  0  0  0  0  0  0  0  0  0  0
  127.5390  130.3600   64.5160 C   0  0  0  0  0  0  0  0  0  0  0  0
  128.0080  130.7270   63.1790 N   0  0  0  0  0  0  0  0  0  0  0  0
  128.9320  131.6710   62.9070 C   0  0  0  0  0  0  0  0  0  0  0  0
  129.4520  132.3620   63.7850 O   0  0  0  0  0  0  0  0  0  0  0  0
  129.2540  131.8670   61.4930 C   0  0  0  0  0  0  0  0  0  0  0  0
  128.1360  132.7360   60.4460 S   0  0  0  0  0  0  0  0  0  0  0  0
  129.1730  132.4870   59.0600 C   0  0  0  0  0  0  0  0  0  0  0  0
  128.8490  132.9570   57.8570 N   0  0  0  0  0  0  0  0  0  0  0  0
  129.7320  132.7040   56.8630 C   0  0  0  0  0  0  0  0  0  0  0  0
  129.3430  133.2470   55.4990 C   0  0  0  0  0  0  0  0  0  0  0  0
  130.9200  132.0000   57.0420 C   0  0  0  0  0  0  0  0  0  0  0  0
  131.2660  131.5010   58.3080 C   0  0  0  0  0  0  0  0  0  0  0  0
  132.5840  130.7350   58.4580 C   0  0  0  0  0  0  0  0  0  0  0  0
  133.4050  131.2760   59.3610 F   0  0  0  0  0  0  0  0  0  0  0  0
  132.3380  129.4830   58.8440 F   0  0  0  0  0  0  0  0  0  0  0  0
  133.2300  130.7170   57.2920 F   0  0  0  0  0  0  0  0  0  0  0  0
  130.3550  131.7480   59.3770 C   0  0  0  0  0  0  0  0  0  0  0  0
  130.3650  131.3960   60.7760 C   0  0  0  0  0  0  0  0  0  0  0  0
  131.3770  130.6720   61.3530 N   0  0  0  0  0  0  0  0  0  0  0  0
  128.6150  128.1040   64.1050 C   0  0  0  0  0  0  0  0  0  0  0  0
  129.1560  126.8880   64.5500 C   0  0  0  0  0  0  0  0  0  0  0  0
  129.6820  125.9230   63.7100 O   0  0  0  0  0  0  0  0  0  0  0  0
  130.5510  126.3160   62.6530 C   0  0  0  0  0  0  0  0  0  0  0  0
  129.1740  126.6190   65.9260 C   0  0  0  0  0  0  0  0  0  0  0  0
  129.7180  125.4390   66.3780 O   0  0  0  0  0  0  0  0  0  0  0  0
  131.1340  125.3800   66.2770 C   0  0  0  0  0  0  0  0  0  0  0  0
  129.6644  127.5163   70.0195 H   0  0  0  0  0  0  0  0  0  0  0  0
  130.7341  126.9289   68.7014 H   0  0  0  0  0  0  0  0  0  0  0  0
  130.1607  128.6312   68.7014 H   0  0  0  0  0  0  0  0  0  0  0  0
  127.7386  129.4884   67.0927 H   0  0  0  0  0  0  0  0  0  0  0  0
  126.4410  130.2971   64.4944 H   0  0  0  0  0  0  0  0  0  0  0  0
  127.8999  131.1347   65.2086 H   0  0  0  0  0  0  0  0  0  0  0  0
  127.6860  130.1420   62.4210 H   0  0  0  0  0  0  0  0  0  0  0  0
  128.7067  134.1353   55.6258 H   0  0  0  0  0  0  0  0  0  0  0  0
  130.2504  133.5226   54.9416 H   0  0  0  0  0  0  0  0  0  0  0  0
  128.7902  132.4765   54.9416 H   0  0  0  0  0  0  0  0  0  0  0  0
  131.5913  131.8338   56.1866 H   0  0  0  0  0  0  0  0  0  0  0  0
  131.4340  130.5350   62.3530 H   0  0  0  0  0  0  0  0  0  0  0  0
  132.1080  130.2540   60.7950 H   0  0  0  0  0  0  0  0  0  0  0  0
  128.6059  128.3324   63.0290 H   0  0  0  0  0  0  0  0  0  0  0  0
  131.4764  126.7345   63.0755 H   0  0  0  0  0  0  0  0  0  0  0  0
  130.7941  125.4402   62.0334 H   0  0  0  0  0  0  0  0  0  0  0  0
  130.0539  127.0769   62.0334 H   0  0  0  0  0  0  0  0  0  0  0  0
  131.5731  125.3617   67.2854 H   0  0  0  0  0  0  0  0  0  0  0  0
  131.4252  124.4689   65.7337 H   0  0  0  0  0  0  0  0  0  0  0  0
  131.5000  126.2637   65.7337 H   0  0  0  0  0  0  0  0  0  0  0  0
  1  2  1  0
  2  3  1  0
  3  4  2  0
  4  5  1  0
  5  6  1  0
  6  7  1  0
  7  8  1  0
  8  9  2  0
  8 10  1  0
 10 11  1  0
 11 12  1  0
 12 13  2  0
 13 14  1  0
 14 15  1  0
 14 16  2  0
 16 17  1  0
 17 18  1  0
 18 19  1  0
 18 20  1  0
 18 21  1  0
 17 22  2  0
 22 23  1  0
 23 24  1  0
  5 25  2  0
 25 26  1  0
 26 27  1  0
 27 28  1  0
 26 29  2  0
 29 30  1  0
 30 31  1  0
 29  3  1  0
 23 10  2  0
 22 12  1  0
  1 32  1  0
  1 33  1  0
  1 34  1  0
  4 35  1  0
  6 36  1  0
  6 37  1  0
  7 38  1  0
 15 39  1  0
 15 40  1  0
 15 41  1  0
 16 42  1  0
 24 43  1  0
 24 44  1  0
 25 45  1  0
 28 46  1  0
 28 47  1  0
 28 48  1  0
 31 49  1  0
 31 50  1  0
 31 51  1  0
M  END
>  <Binding energies>  (1) 
[-6.02]

>  <Ligand effiencies>  (1) 
[-0.17705882352941174]

>  <Interactions>  (1) 
["V-A:LEU:363:CD1:3189, V-A:ASP:366:CG:3213, V-A:PRO:540:CA:4883, V-A:PRO:540:CB:4885, H-A:ASP:366:OD2:3215, V-A:PRO:540:N:4884, V-A:TYR:539:C:4867, V-A:ASP:366:CB:3212, V-A:MET:535:CE:4835, V-B:GLU:543:CG:9879, V-A:TYR:484:CZ:4347, V-B:GLU:543:CB:9878, V-A:GLU:543:CD:4908, V-B:GLU:543:CD:9880, V-A:HIS:456:CE1:4070, V-A:GLU:543:CG:4907, V-A:GLU:543:CB:4906, V-A:TYR:531:CZ:4794, H-A:GLU:543:OE1:4909, H-A:ALA:541:N:4891, V-A:ILE:538:CA:4860, V-A:TYR:531:CE2:4793, V-A:ILE:538:C:4858, V-A:ILE:538:CG2:4863, V-A:ILE:538:CB:4862, V-A:LEU:363:CA:3185, V-A:LEU:363:CB:3187"]

$$$$
4bi_Grossjean_2025
     RDKit          3D

 32 34  0  0  0  0  0  0  0  0999 V2000
  127.2830  122.0040   55.0160 C   0  0  0  0  0  0  0  0  0  0  0  0
  126.9710  122.5410   56.4010 C   0  0  0  0  0  0  0  0  0  0  0  0
  125.8730  123.3690   56.6190 C   0  0  0  0  0  0  0  0  0  0  0  0
  125.5930  123.8550   57.9070 C   0  0  0  0  0  0  0  0  0  0  0  0
  124.3700  124.7570   58.0990 C   0  0  0  0  0  0  0  0  0  0  0  0
  123.6530  124.4410   59.1800 F   0  0  0  0  0  0  0  0  0  0  0  0
  124.7590  126.0240   58.2360 F   0  0  0  0  0  0  0  0  0  0  0  0
  123.5630  124.6560   57.0420 F   0  0  0  0  0  0  0  0  0  0  0  0
  126.4780  123.4670   58.9570 C   0  0  0  0  0  0  0  0  0  0  0  0
  126.5150  123.7620   60.3680 C   0  0  0  0  0  0  0  0  0  0  0  0
  125.5900  124.5680   60.9820 N   0  0  0  0  0  0  0  0  0  0  0  0
  127.5740  123.1470   61.0560 C   0  0  0  0  0  0  0  0  0  0  0  0
  127.9160  123.2400   62.4780 C   0  0  0  0  0  0  0  0  0  0  0  0
  127.1870  122.7350   63.3350 O   0  0  0  0  0  0  0  0  0  0  0  0
  129.0730  123.8890   62.7580 N   0  0  0  0  0  0  0  0  0  0  0  0
  129.6390  124.1110   64.0070 C   0  0  0  0  0  0  0  0  0  0  0  0
  130.3550  125.2630   64.3260 C   0  0  0  0  0  0  0  0  0  0  0  0
  130.7400  125.0950   65.6370 C   0  0  0  0  0  0  0  0  0  0  0  0
  130.2780  123.9030   66.0840 O   0  0  0  0  0  0  0  0  0  0  0  0
  129.5820  123.2880   65.0410 N   0  0  0  0  0  0  0  0  0  0  0  0
  128.5780  122.1980   59.9630 S   0  0  0  0  0  0  0  0  0  0  0  0
  127.5670  122.6130   58.5990 C   0  0  0  0  0  0  0  0  0  0  0  0
  127.8260  122.1540   57.3750 N   0  0  0  0  0  0  0  0  0  0  0  0
  127.8338  121.0561   55.1058 H   0  0  0  0  0  0  0  0  0  0  0  0
  126.3441  121.8322   54.4693 H   0  0  0  0  0  0  0  0  0  0  0  0
  127.8973  122.7346   54.4693 H   0  0  0  0  0  0  0  0  0  0  0  0
  125.2206  123.6444   55.7773 H   0  0  0  0  0  0  0  0  0  0  0  0
  125.4930  124.5990   61.9870 H   0  0  0  0  0  0  0  0  0  0  0  0
  124.9680  125.1560   60.4460 H   0  0  0  0  0  0  0  0  0  0  0  0
  129.5980  124.2510   61.9750 H   0  0  0  0  0  0  0  0  0  0  0  0
  130.5669  126.1214   63.6716 H   0  0  0  0  0  0  0  0  0  0  0  0
  131.3283  125.8134   66.2267 H   0  0  0  0  0  0  0  0  0  0  0  0
  1  2  1  0
  2  3  2  0
  3  4  1  0
  4  5  1  0
  5  6  1  0
  5  7  1  0
  5  8  1  0
  4  9  2  0
  9 10  1  0
 10 11  1  0
 10 12  2  0
 12 13  1  0
 13 14  2  0
 13 15  1  0
 15 16  1  0
 16 17  1  0
 17 18  2  0
 18 19  1  0
 19 20  1  0
 12 21  1  0
 21 22  1  0
 22 23  2  0
 23  2  1  0
 22  9  1  0
 20 16  2  0
  1 24  1  0
  1 25  1  0
  1 26  1  0
  3 27  1  0
 11 28  1  0
 11 29  1  0
 15 30  1  0
 17 31  1  0
 18 32  1  0
M  END
>  <Binding energies>  (1) 
[-6.51]

>  <Ligand effiencies>  (1) 
[-0.25038461538461537]

>  <Interactions>  (1) 
["V-B:PRO:540:N:9856, V-B:TYR:539:CE1:9847, V-B:PRO:540:CB:9857, V-B:TYR:539:CD1:9845, V-B:PRO:540:CA:9855, V-B:TYR:539:CE2:9848, H-B:TYR:539:N:9842, V-B:ASP:366:CB:8183, H-B:ASP:366:OD1:8185, V-B:ASP:366:CG:8184, V-B:MET:535:CE:9807, V-B:LEU:363:CD1:8160, V-B:TYR:539:C:9839, V-B:TYR:539:CG:9844, H-B:GLU:543:OE1:9881, V-B:TYR:531:CZ:9766, H-B:ALA:541:N:9863, V-B:TYR:539:CD2:9846, V-B:LEU:363:CA:8156, V-B:TYR:531:CE2:9765, V-B:ALA:541:CB:9864, V-B:GLU:543:CG:9879, H-A:TYR:484:OH:4348, V-B:GLU:543:CD:9880, V-B:ILE:538:CG2:9835, V-B:ILE:538:CA:9832, V-B:ILE:538:C:9830, V-B:ASN:362:C:8143, V-B:LEU:363:CB:8158, V-B:ILE:538:CB:9834, V-B:LEU:363:CG:8159, V-B:TYR:531:CD2:9763"]

$$$$
4bj_Grossjean_2025
     RDKit          3D

 32 34  0  0  0  0  0  0  0  0999 V2000
  127.2460  122.0140   54.9560 C   0  0  0  0  0  0  0  0  0  0  0  0
  126.9790  122.5540   56.3490 C   0  0  0  0  0  0  0  0  0  0  0  0
  125.8530  123.3300   56.6140 C   0  0  0  0  0  0  0  0  0  0  0  0
  125.6220  123.8280   57.9060 C   0  0  0  0  0  0  0  0  0  0  0  0
  124.3710  124.6790   58.1500 C   0  0  0  0  0  0  0  0  0  0  0  0
  124.6500  125.9620   58.3860 F   0  0  0  0  0  0  0  0  0  0  0  0
  123.5790  124.6330   57.0790 F   0  0  0  0  0  0  0  0  0  0  0  0
  123.7090  124.2120   59.2090 F   0  0  0  0  0  0  0  0  0  0  0  0
  126.5810  123.5030   58.9120 C   0  0  0  0  0  0  0  0  0  0  0  0
  126.6820  123.8290   60.3140 C   0  0  0  0  0  0  0  0  0  0  0  0
  125.7530  124.6010   60.9640 N   0  0  0  0  0  0  0  0  0  0  0  0
  127.8070  123.2810   60.9500 C   0  0  0  0  0  0  0  0  0  0  0  0
  128.2200  123.4160   62.3490 C   0  0  0  0  0  0  0  0  0  0  0  0
  127.5310  122.9500   63.2590 O   0  0  0  0  0  0  0  0  0  0  0  0
  129.3950  124.0640   62.5490 N   0  0  0  0  0  0  0  0  0  0  0  0
  130.0120  124.3150   63.7670 C   0  0  0  0  0  0  0  0  0  0  0  0
  129.5470  124.0750   64.9730 N   0  0  0  0  0  0  0  0  0  0  0  0
  130.4060  124.4350   65.9050 C   0  0  0  0  0  0  0  0  0  0  0  0
  131.6040  124.9840   65.4590 C   0  0  0  0  0  0  0  0  0  0  0  0
  131.5930  125.0280   63.7210 S   0  0  0  0  0  0  0  0  0  0  0  0
  128.7930  122.3570   59.8200 S   0  0  0  0  0  0  0  0  0  0  0  0
  127.6880  122.6960   58.5080 C   0  0  0  0  0  0  0  0  0  0  0  0
  127.9050  122.2270   57.2800 N   0  0  0  0  0  0  0  0  0  0  0  0
  127.7324  121.0302   55.0311 H   0  0  0  0  0  0  0  0  0  0  0  0
  126.2944  121.9121   54.4136 H   0  0  0  0  0  0  0  0  0  0  0  0
  127.9047  122.7083   54.4136 H   0  0  0  0  0  0  0  0  0  0  0  0
  125.1407  123.5539   55.8062 H   0  0  0  0  0  0  0  0  0  0  0  0
  125.1010  125.1890   60.4640 H   0  0  0  0  0  0  0  0  0  0  0  0
  125.6930  124.6110   61.9730 H   0  0  0  0  0  0  0  0  0  0  0  0
  129.8840  124.3990   61.7320 H   0  0  0  0  0  0  0  0  0  0  0  0
  130.1881  124.3085   66.9758 H   0  0  0  0  0  0  0  0  0  0  0  0
  132.4252  125.3336   66.1019 H   0  0  0  0  0  0  0  0  0  0  0  0
  1  2  1  0
  2  3  2  0
  3  4  1  0
  4  5  1  0
  5  6  1  0
  5  7  1  0
  5  8  1  0
  4  9  2  0
  9 10  1  0
 10 11  1  0
 10 12  2  0
 12 13  1  0
 13 14  2  0
 13 15  1  0
 15 16  1  0
 16 17  2  0
 17 18  1  0
 18 19  2  0
 19 20  1  0
 12 21  1  0
 21 22  1  0
 22 23  2  0
 23  2  1  0
 22  9  1  0
 20 16  1  0
  1 24  1  0
  1 25  1  0
  1 26  1  0
  3 27  1  0
 11 28  1  0
 11 29  1  0
 15 30  1  0
 18 31  1  0
 19 32  1  0
M  END
>  <Binding energies>  (1) 
[-6.25]

>  <Ligand effiencies>  (1) 
[-0.2403846153846154]

>  <Interactions>  (1) 
["V-B:PRO:540:N:9856, V-B:TYR:539:CE1:9847, V-B:PRO:540:CB:9857, V-B:TYR:539:CD1:9845, V-B:PRO:540:CA:9855, V-B:TYR:539:CE2:9848, H-B:TYR:539:N:9842, V-B:ASP:366:CB:8183, H-B:ASP:366:OD1:8185, V-B:ASP:366:CG:8184, V-B:MET:535:CE:9807, V-B:LEU:363:CD1:8160, V-B:TYR:539:C:9839, V-B:TYR:539:CG:9844, H-B:GLU:543:OE1:9881, V-B:TYR:531:CZ:9766, H-B:ALA:541:N:9863, V-B:TYR:539:CD2:9846, V-B:LEU:363:CA:8156, V-B:TYR:531:CE2:9765, V-B:GLU:543:CG:9879, V-A:TYR:484:CZ:4347, V-A:TYR:484:CE2:4346, V-B:GLU:543:CD:9880, V-B:ILE:538:CG2:9835, V-B:ILE:538:CA:9832, V-B:ILE:538:C:9830, V-B:ASN:362:C:8143, V-B:LEU:363:CB:8158, V-B:ILE:538:CB:9834, V-B:LEU:363:CG:8159, V-B:TYR:531:CD2:9763"]

$$$$
4bk_Grossjean_2025
     RDKit          3D

 50 51  0  0  0  0  0  0  0  0999 V2000
  134.5260  126.8390   74.9540 C   0  0  0  0  0  0  0  0  0  0  0  0
  133.1570  127.2120   74.9210 O   0  0  0  0  0  0  0  0  0  0  0  0
  132.4240  126.5830   73.8780 C   0  0  0  0  0  0  0  0  0  0  0  0
  130.9290  126.8820   74.0500 C   0  0  0  0  0  0  0  0  0  0  0  0
  130.6360  128.1570   73.4950 O   0  0  0  0  0  0  0  0  0  0  0  0
  129.8620  128.1010   72.3040 C   0  0  0  0  0  0  0  0  0  0  0  0
  130.7970  127.9730   71.0940 C   0  0  0  0  0  0  0  0  0  0  0  0
  130.1240  127.2800   70.0520 O   0  0  0  0  0  0  0  0  0  0  0  0
  130.6180  127.5770   68.7510 C   0  0  0  0  0  0  0  0  0  0  0  0
  129.5010  127.3520   67.7180 C   0  0  0  0  0  0  0  0  0  0  0  0
  129.8670  126.4210   66.6500 N   0  0  0  0  0  0  0  0  0  0  0  0
  130.0040  125.0860   66.7920 C   0  0  0  0  0  0  0  0  0  0  0  0
  129.8060  124.5130   67.8640 O   0  0  0  0  0  0  0  0  0  0  0  0
  130.3930  124.3470   65.5900 C   0  0  0  0  0  0  0  0  0  0  0  0
  129.4960  122.9100   65.1070 S   0  0  0  0  0  0  0  0  0  0  0  0
  130.5090  122.6980   63.6990 C   0  0  0  0  0  0  0  0  0  0  0  0
  130.3180  121.6880   62.8500 N   0  0  0  0  0  0  0  0  0  0  0  0
  131.1640  121.6290   61.7960 C   0  0  0  0  0  0  0  0  0  0  0  0
  130.9270  120.4730   60.8420 C   0  0  0  0  0  0  0  0  0  0  0  0
  132.1870  122.5480   61.5720 C   0  0  0  0  0  0  0  0  0  0  0  0
  132.3950  123.6130   62.4620 C   0  0  0  0  0  0  0  0  0  0  0  0
  133.5350  124.5950   62.1760 C   0  0  0  0  0  0  0  0  0  0  0  0
  134.2800  124.2390   61.1270 F   0  0  0  0  0  0  0  0  0  0  0  0
  133.0350  125.8040   61.9200 F   0  0  0  0  0  0  0  0  0  0  0  0
  134.3430  124.6680   63.2320 F   0  0  0  0  0  0  0  0  0  0  0  0
  131.5180  123.7050   63.5850 C   0  0  0  0  0  0  0  0  0  0  0  0
  131.4220  124.6360   64.6810 C   0  0  0  0  0  0  0  0  0  0  0  0
  132.2660  125.7080   64.8200 N   0  0  0  0  0  0  0  0  0  0  0  0
  134.8564  126.7490   75.9993 H   0  0  0  0  0  0  0  0  0  0  0  0
  134.6552  125.8729   74.4441 H   0  0  0  0  0  0  0  0  0  0  0  0
  135.1274  127.6060   74.4441 H   0  0  0  0  0  0  0  0  0  0  0  0
  132.7654  126.9686   72.9060 H   0  0  0  0  0  0  0  0  0  0  0  0
  132.5873  125.4960   73.9196 H   0  0  0  0  0  0  0  0  0  0  0  0
  130.3387  126.1118   73.5320 H   0  0  0  0  0  0  0  0  0  0  0  0
  130.6745  126.8797   75.1201 H   0  0  0  0  0  0  0  0  0  0  0  0
  129.1910  127.2302   72.3430 H   0  0  0  0  0  0  0  0  0  0  0  0
  129.2642  129.0196   72.2108 H   0  0  0  0  0  0  0  0  0  0  0  0
  131.0836  128.9755   70.7433 H   0  0  0  0  0  0  0  0  0  0  0  0
  131.7004  127.4161   71.3835 H   0  0  0  0  0  0  0  0  0  0  0  0
  130.9468  128.6261   68.7137 H   0  0  0  0  0  0  0  0  0  0  0  0
  131.4692  126.9191   68.5216 H   0  0  0  0  0  0  0  0  0  0  0  0
  128.6198  126.9518   68.2408 H   0  0  0  0  0  0  0  0  0  0  0  0
  129.3014  128.3239   67.2431 H   0  0  0  0  0  0  0  0  0  0  0  0
  130.0420  126.8290   65.7440 H   0  0  0  0  0  0  0  0  0  0  0  0
  130.7388  119.5549   61.4180 H   0  0  0  0  0  0  0  0  0  0  0  0
  130.0554  120.6934   60.2082 H   0  0  0  0  0  0  0  0  0  0  0  0
  131.8151  120.3326   60.2082 H   0  0  0  0  0  0  0  0  0  0  0  0
  132.8364  122.4380   60.6910 H   0  0  0  0  0  0  0  0  0  0  0  0
  133.2710  125.5970   64.8560 H   0  0  0  0  0  0  0  0  0  0  0  0
  131.9110  126.6520   64.8880 H   0  0  0  0  0  0  0  0  0  0  0  0
  1  2  1  0
  2  3  1  0
  3  4  1  0
  4  5  1  0
  5  6  1  0
  6  7  1  0
  7  8  1  0
  8  9  1  0
  9 10  1  0
 10 11  1  0
 11 12  1  0
 12 13  2  0
 12 14  1  0
 14 15  1  0
 15 16  1  0
 16 17  2  0
 17 18  1  0
 18 19  1  0
 18 20  2  0
 20 21  1  0
 21 22  1  0
 22 23  1  0
 22 24  1  0
 22 25  1  0
 21 26  2  0
 26 27  1  0
 27 28  1  0
 27 14  2  0
 26 16  1  0
  1 29  1  0
  1 30  1  0
  1 31  1  0
  3 32  1  0
  3 33  1  0
  4 34  1  0
  4 35  1  0
  6 36  1  0
  6 37  1  0
  7 38  1  0
  7 39  1  0
  9 40  1  0
  9 41  1  0
 10 42  1  0
 10 43  1  0
 11 44  1  0
 19 45  1  0
 19 46  1  0
 19 47  1  0
 20 48  1  0
 28 49  1  0
 28 50  1  0
M  END
>  <Binding energies>  (1) 
[-5.65]

>  <Ligand effiencies>  (1) 
[-0.18225806451612905]

>  <Interactions>  (1) 
["V-A:ASP:366:CG:3213, V-B:TYR:539:CE2:9848, V-B:TYR:539:CD2:9846, V-B:ALA:541:CB:9864, V-A:ILE:369:CD1:3239, V-B:GLU:543:CG:9879, V-A:LEU:475:CD2:4259, V-A:TYR:484:CZ:4347, V-A:GLY:453:CA:4044, V-B:GLU:543:CB:9878, H-A:TYR:484:OH:4348, V-A:GLU:543:CD:4908, V-A:TYR:484:CE2:4346, V-A:GLY:454:CA:4049, V-A:ARG:545:CZ:4926, V-A:GLY:544:C:4912, H-A:LYS:547:NZ:4951, V-A:HIS:456:CE1:4070, V-A:GLU:543:C:4902, V-A:GLU:543:CB:4906, H-A:GLU:543:OE1:4909, H-A:GLU:543:OE2:4910, V-A:HIS:456:CD2:4068, V-A:HIS:456:CB:4065, V-A:ARG:545:C:4917, V-A:HIS:456:CG:4066, V-A:LYS:547:CG:4948, V-A:GLY:453:C:4042, V-A:LYS:547:CB:4947"]

$$$$
4ca_Grossjean_2025
     RDKit          3D

 52 55  0  0  0  0  0  0  0  0999 V2000
  131.4790  131.8850   55.6520 C   0  0  0  0  0  0  0  0  0  0  0  0
  131.7080  132.6830   56.9390 C   0  0  0  0  0  0  0  0  0  0  0  0
  130.6500  133.6160   57.1120 O   0  0  0  0  0  0  0  0  0  0  0  0
  129.3860  133.2010   57.3870 C   0  0  0  0  0  0  0  0  0  0  0  0
  128.4330  133.3680   56.6190 O   0  0  0  0  0  0  0  0  0  0  0  0
  129.2640  132.5160   58.7170 C   0  0  0  0  0  0  0  0  0  0  0  0
  129.5190  131.1410   58.8040 C   0  0  0  0  0  0  0  0  0  0  0  0
  129.4190  130.4790   60.0250 C   0  0  0  0  0  0  0  0  0  0  0  0
  129.0540  131.1720   61.1780 C   0  0  0  0  0  0  0  0  0  0  0  0
  128.9910  130.4060   62.3590 N   0  0  0  0  0  0  0  0  0  0  0  0
  127.9340  129.7960   62.9480 C   0  0  0  0  0  0  0  0  0  0  0  0
  126.7950  129.7800   62.4790 O   0  0  0  0  0  0  0  0  0  0  0  0
  128.2290  129.1130   64.2090 C   0  0  0  0  0  0  0  0  0  0  0  0
  127.8670  129.8950   65.7460 S   0  0  0  0  0  0  0  0  0  0  0  0
  128.4320  128.5030   66.6390 C   0  0  0  0  0  0  0  0  0  0  0  0
  128.4090  128.4770   67.9690 N   0  0  0  0  0  0  0  0  0  0  0  0
  128.8550  127.3460   68.5760 C   0  0  0  0  0  0  0  0  0  0  0  0
  128.8070  127.3430   70.0770 C   0  0  0  0  0  0  0  0  0  0  0  0
  129.9020  127.7930   70.8320 C   0  0  0  0  0  0  0  0  0  0  0  0
  129.8660  127.7880   72.2240 C   0  0  0  0  0  0  0  0  0  0  0  0
  128.7310  127.3290   72.8830 C   0  0  0  0  0  0  0  0  0  0  0  0
  127.6330  126.8760   72.1600 C   0  0  0  0  0  0  0  0  0  0  0  0
  127.6730  126.8830   70.7680 C   0  0  0  0  0  0  0  0  0  0  0  0
  129.3420  126.2580   67.8440 C   0  0  0  0  0  0  0  0  0  0  0  0
  129.3740  126.2780   66.4420 C   0  0  0  0  0  0  0  0  0  0  0  0
  129.9180  125.0490   65.7030 C   0  0  0  0  0  0  0  0  0  0  0  0
  129.2240  124.7510   64.6030 F   0  0  0  0  0  0  0  0  0  0  0  0
  131.1790  125.2660   65.3330 F   0  0  0  0  0  0  0  0  0  0  0  0
  129.8710  123.9840   66.5030 F   0  0  0  0  0  0  0  0  0  0  0  0
  128.8930  127.4520   65.7950 C   0  0  0  0  0  0  0  0  0  0  0  0
  128.7630  127.8280   64.4080 C   0  0  0  0  0  0  0  0  0  0  0  0
  129.1310  127.0010   63.3780 N   0  0  0  0  0  0  0  0  0  0  0  0
  128.8010  132.5500   61.1020 C   0  0  0  0  0  0  0  0  0  0  0  0
  128.9050  133.2120   59.8810 C   0  0  0  0  0  0  0  0  0  0  0  0
  131.1838  130.8563   55.9061 H   0  0  0  0  0  0  0  0  0  0  0  0
  130.6811  132.3605   55.0628 H   0  0  0  0  0  0  0  0  0  0  0  0
  132.4077  131.8651   55.0628 H   0  0  0  0  0  0  0  0  0  0  0  0
  131.7345  131.9953   57.7971 H   0  0  0  0  0  0  0  0  0  0  0  0
  132.6647  133.2216   56.8714 H   0  0  0  0  0  0  0  0  0  0  0  0
  129.8004  130.5800   57.9006 H   0  0  0  0  0  0  0  0  0  0  0  0
  129.6297  129.4008   60.0800 H   0  0  0  0  0  0  0  0  0  0  0  0
  129.8800  130.2920   62.8230 H   0  0  0  0  0  0  0  0  0  0  0  0
  130.8030  128.1554   70.3154 H   0  0  0  0  0  0  0  0  0  0  0  0
  130.7321  128.1458   72.8000 H   0  0  0  0  0  0  0  0  0  0  0  0
  128.7015  127.3242   73.9826 H   0  0  0  0  0  0  0  0  0  0  0  0
  126.7369  126.5138   72.6852 H   0  0  0  0  0  0  0  0  0  0  0  0
  126.8027  126.5226   70.2000 H   0  0  0  0  0  0  0  0  0  0  0  0
  129.7072  125.3688   68.3788 H   0  0  0  0  0  0  0  0  0  0  0  0
  128.5160  126.2810   63.0240 H   0  0  0  0  0  0  0  0  0  0  0  0
  130.0360  127.0840   62.9340 H   0  0  0  0  0  0  0  0  0  0  0  0
  128.5203  133.1080   62.0075 H   0  0  0  0  0  0  0  0  0  0  0  0
  128.7035  134.2921   59.8288 H   0  0  0  0  0  0  0  0  0  0  0  0
  1  2  1  0
  2  3  1  0
  3  4  1  0
  4  5  2  0
  4  6  1  0
  6  7  2  0
  7  8  1  0
  8  9  2  0
  9 10  1  0
 10 11  1  0
 11 12  2  0
 11 13  1  0
 13 14  1  0
 14 15  1  0
 15 16  2  0
 16 17  1  0
 17 18  1  0
 18 19  2  0
 19 20  1  0
 20 21  2  0
 21 22  1  0
 22 23  2  0
 17 24  2  0
 24 25  1  0
 25 26  1  0
 26 27  1  0
 26 28  1  0
 26 29  1  0
 25 30  2  0
 30 31  1  0
 31 32  1  0
  9 33  1  0
 33 34  2  0
 34  6  1  0
 31 13  2  0
 30 15  1  0
 23 18  1  0
  1 35  1  0
  1 36  1  0
  1 37  1  0
  2 38  1  0
  2 39  1  0
  7 40  1  0
  8 41  1  0
 10 42  1  0
 19 43  1  0
 20 44  1  0
 21 45  1  0
 22 46  1  0
 23 47  1  0
 24 48  1  0
 32 49  1  0
 32 50  1  0
 33 51  1  0
 34 52  1  0
M  END
>  <Binding energies>  (1) 
[-8.5]

>  <Ligand effiencies>  (1) 
[-0.22972972972972974]

>  <Interactions>  (1) 
["V-A:LEU:363:CD1:3189, V-A:PRO:540:CA:4883, V-A:PRO:540:CB:4885, V-A:PRO:540:CD:4887, V-A:PRO:540:N:4884, V-A:TYR:539:C:4867, H-A:TYR:539:N:4870, H-B:GLU:543:OE1:9881, V-A:MET:535:CE:4835, V-B:GLU:543:CG:9879, V-A:TYR:484:CZ:4347, V-B:GLU:543:CB:9878, V-A:GLU:543:CD:4908, V-A:TYR:484:CE2:4346, V-B:GLU:543:CD:9880, V-B:HIS:456:CE1:9041, V-B:GLY:544:C:9884, V-B:GLU:543:C:9874, V-B:LYS:547:CE:9922, V-A:HIS:456:CE1:4070, V-A:GLU:543:CG:4907, V-A:GLU:543:CB:4906, V-B:GLY:544:CA:9886, H-A:GLU:543:OE1:4909, H-A:GLU:543:OE2:4910, V-B:TYR:484:CZ:9318, H-B:GLU:543:OE2:9882, V-B:GLU:543:CA:9876, V-A:TYR:539:CD1:4873, V-A:TYR:539:CG:4872, V-A:TYR:539:CA:4869, V-A:TYR:531:CE2:4793, V-B:TYR:484:CE2:9317, V-A:ILE:538:CG2:4863, V-A:ILE:538:CB:4862"]

$$$$
4cb_Grossjean_2025
     RDKit          3D

 49 52  0  0  0  0  0  0  0  0999 V2000
  131.6840  132.6320   56.2850 C   0  0  0  0  0  0  0  0  0  0  0  0
  130.9210  133.4970   57.1160 O   0  0  0  0  0  0  0  0  0  0  0  0
  129.6100  133.2500   57.3650 C   0  0  0  0  0  0  0  0  0  0  0  0
  128.6950  133.6100   56.6180 O   0  0  0  0  0  0  0  0  0  0  0  0
  129.3810  132.4920   58.6420 C   0  0  0  0  0  0  0  0  0  0  0  0
  130.4310  131.7440   59.1910 C   0  0  0  0  0  0  0  0  0  0  0  0
  130.2530  131.0380   60.3770 C   0  0  0  0  0  0  0  0  0  0  0  0
  129.0230  131.0580   61.0350 C   0  0  0  0  0  0  0  0  0  0  0  0
  128.9580  130.3210   62.2330 N   0  0  0  0  0  0  0  0  0  0  0  0
  127.8980  129.7370   62.8420 C   0  0  0  0  0  0  0  0  0  0  0  0
  126.7550  129.7250   62.3810 O   0  0  0  0  0  0  0  0  0  0  0  0
  128.1940  129.0790   64.1180 C   0  0  0  0  0  0  0  0  0  0  0  0
  127.8020  129.8780   65.6390 S   0  0  0  0  0  0  0  0  0  0  0  0
  128.3850  128.5110   66.5600 C   0  0  0  0  0  0  0  0  0  0  0  0
  128.3520  128.5040   67.8900 N   0  0  0  0  0  0  0  0  0  0  0  0
  128.8170  127.3920   68.5170 C   0  0  0  0  0  0  0  0  0  0  0  0
  128.7620  127.4120   70.0180 C   0  0  0  0  0  0  0  0  0  0  0  0
  127.6570  126.8800   70.7020 C   0  0  0  0  0  0  0  0  0  0  0  0
  127.5980  126.8980   72.0930 C   0  0  0  0  0  0  0  0  0  0  0  0
  128.6460  127.4500   72.8220 C   0  0  0  0  0  0  0  0  0  0  0  0
  129.7520  127.9870   72.1690 C   0  0  0  0  0  0  0  0  0  0  0  0
  129.8050  127.9680   70.7780 C   0  0  0  0  0  0  0  0  0  0  0  0
  129.3330  126.3040   67.8060 C   0  0  0  0  0  0  0  0  0  0  0  0
  129.3750  126.3030   66.4040 C   0  0  0  0  0  0  0  0  0  0  0  0
  129.9510  125.0750   65.6870 C   0  0  0  0  0  0  0  0  0  0  0  0
  129.9870  123.9870   66.4600 F   0  0  0  0  0  0  0  0  0  0  0  0
  129.2040  124.7830   64.6230 F   0  0  0  0  0  0  0  0  0  0  0  0
  131.1990  125.3260   65.2930 F   0  0  0  0  0  0  0  0  0  0  0  0
  128.8750  127.4570   65.7350 C   0  0  0  0  0  0  0  0  0  0  0  0
  128.7480  127.8080   64.3410 C   0  0  0  0  0  0  0  0  0  0  0  0
  129.1370  126.9700   63.3270 N   0  0  0  0  0  0  0  0  0  0  0  0
  127.9670  131.8070   60.4940 C   0  0  0  0  0  0  0  0  0  0  0  0
  128.1470  132.5140   59.3090 C   0  0  0  0  0  0  0  0  0  0  0  0
  132.2818  131.9543   56.9121 H   0  0  0  0  0  0  0  0  0  0  0  0
  131.0067  132.0421   55.6499 H   0  0  0  0  0  0  0  0  0  0  0  0
  132.3538  133.2303   55.6499 H   0  0  0  0  0  0  0  0  0  0  0  0
  131.4047  131.7146   58.6800 H   0  0  0  0  0  0  0  0  0  0  0  0
  131.0884  130.4599   60.7988 H   0  0  0  0  0  0  0  0  0  0  0  0
  129.8490  130.2090   62.6960 H   0  0  0  0  0  0  0  0  0  0  0  0
  126.8254  126.4424   70.1302 H   0  0  0  0  0  0  0  0  0  0  0  0
  126.7253  126.4770   72.6137 H   0  0  0  0  0  0  0  0  0  0  0  0
  128.6007  127.4623   73.9210 H   0  0  0  0  0  0  0  0  0  0  0  0
  130.5788  128.4236   72.7485 H   0  0  0  0  0  0  0  0  0  0  0  0
  130.6788  128.3958   70.2647 H   0  0  0  0  0  0  0  0  0  0  0  0
  129.7136  125.4315   68.3573 H   0  0  0  0  0  0  0  0  0  0  0  0
  128.5260  126.2530   62.9630 H   0  0  0  0  0  0  0  0  0  0  0  0
  130.0530  127.0440   62.9060 H   0  0  0  0  0  0  0  0  0  0  0  0
  126.9947  131.8354   61.0077 H   0  0  0  0  0  0  0  0  0  0  0  0
  127.3128  133.0964   58.8908 H   0  0  0  0  0  0  0  0  0  0  0  0
  1  2  1  0
  2  3  1  0
  3  4  2  0
  3  5  1  0
  5  6  2  0
  6  7  1  0
  7  8  2  0
  8  9  1  0
  9 10  1  0
 10 11  2  0
 10 12  1  0
 12 13  1  0
 13 14  1  0
 14 15  2  0
 15 16  1  0
 16 17  1  0
 17 18  2  0
 18 19  1  0
 19 20  2  0
 20 21  1  0
 21 22  2  0
 16 23  2  0
 23 24  1  0
 24 25  1  0
 25 26  1  0
 25 27  1  0
 25 28  1  0
 24 29  2  0
 29 30  1  0
 30 31  1  0
  8 32  1  0
 32 33  2  0
 33  5  1  0
 30 12  2  0
 29 14  1  0
 22 17  1  0
  1 34  1  0
  1 35  1  0
  1 36  1  0
  6 37  1  0
  7 38  1  0
  9 39  1  0
 18 40  1  0
 19 41  1  0
 20 42  1  0
 21 43  1  0
 22 44  1  0
 23 45  1  0
 31 46  1  0
 31 47  1  0
 32 48  1  0
 33 49  1  0
M  END
>  <Binding energies>  (1) 
[-8.27]

>  <Ligand effiencies>  (1) 
[-0.22972222222222222]

>  <Interactions>  (1) 
["V-A:LEU:363:CD1:3189, V-A:PRO:540:CA:4883, V-A:PRO:540:CB:4885, V-A:PRO:540:N:4884, V-A:TYR:539:C:4867, H-A:TYR:539:N:4870, H-B:GLU:543:OE1:9881, V-B:GLU:543:CG:9879, V-A:TYR:484:CZ:4347, V-B:GLU:543:CB:9878, V-A:GLU:543:CD:4908, V-A:TYR:484:CE2:4346, V-B:GLU:543:CD:9880, V-B:HIS:456:CE1:9041, V-B:GLY:544:C:9884, V-B:GLU:543:C:9874, V-B:HIS:456:CD2:9039, V-B:LYS:547:CE:9922, V-A:HIS:456:CE1:4070, V-A:GLU:543:CG:4907, V-A:GLU:543:CB:4906, V-B:GLY:544:CA:9886, H-A:GLU:543:OE1:4909, H-A:GLU:543:OE2:4910, V-B:TYR:484:CZ:9318, H-B:GLU:543:OE2:9882, V-A:TYR:539:CE1:4875, V-B:GLU:543:CA:9876, V-A:TYR:539:CD1:4873, V-A:TYR:539:CA:4869, V-A:ILE:538:CG2:4863, V-A:ILE:538:CB:4862"]

$$$$
4cc_Grossjean_2025
     RDKit          3D

 47 50  0  0  0  0  0  0  0  0999 V2000
  130.7960  132.8570   56.6060 C   0  0  0  0  0  0  0  0  0  0  0  0
  129.7860  133.3430   57.4840 O   0  0  0  0  0  0  0  0  0  0  0  0
  129.5200  132.6570   58.6530 C   0  0  0  0  0  0  0  0  0  0  0  0
  130.4890  131.7470   59.0740 C   0  0  0  0  0  0  0  0  0  0  0  0
  130.3100  131.0100   60.2420 C   0  0  0  0  0  0  0  0  0  0  0  0
  129.1490  131.1670   61.0010 C   0  0  0  0  0  0  0  0  0  0  0  0
  129.0630  130.3920   62.1720 N   0  0  0  0  0  0  0  0  0  0  0  0
  127.9770  129.8110   62.7380 C   0  0  0  0  0  0  0  0  0  0  0  0
  126.8450  129.8500   62.2540 O   0  0  0  0  0  0  0  0  0  0  0  0
  128.2260  129.1060   63.9990 C   0  0  0  0  0  0  0  0  0  0  0  0
  127.8350  129.8720   65.5370 S   0  0  0  0  0  0  0  0  0  0  0  0
  128.3860  128.4720   66.4260 C   0  0  0  0  0  0  0  0  0  0  0  0
  128.3430  128.4320   67.7560 N   0  0  0  0  0  0  0  0  0  0  0  0
  128.7840  127.2970   68.3580 C   0  0  0  0  0  0  0  0  0  0  0  0
  128.7250  127.2820   69.8580 C   0  0  0  0  0  0  0  0  0  0  0  0
  129.8460  127.6430   70.6240 C   0  0  0  0  0  0  0  0  0  0  0  0
  129.8000  127.6300   72.0150 C   0  0  0  0  0  0  0  0  0  0  0  0
  128.6290  127.2530   72.6630 C   0  0  0  0  0  0  0  0  0  0  0  0
  127.5050  126.8870   71.9290 C   0  0  0  0  0  0  0  0  0  0  0  0
  127.5560  126.9010   70.5380 C   0  0  0  0  0  0  0  0  0  0  0  0
  129.2810  126.2160   67.6240 C   0  0  0  0  0  0  0  0  0  0  0  0
  129.3330  126.2490   66.2210 C   0  0  0  0  0  0  0  0  0  0  0  0
  129.8850  125.0260   65.4790 C   0  0  0  0  0  0  0  0  0  0  0  0
  129.1680  124.6980   64.4010 F   0  0  0  0  0  0  0  0  0  0  0  0
  131.1300  125.2700   65.0700 F   0  0  0  0  0  0  0  0  0  0  0  0
  129.8890  123.9700   66.2920 F   0  0  0  0  0  0  0  0  0  0  0  0
  128.8650  127.4300   65.5780 C   0  0  0  0  0  0  0  0  0  0  0  0
  128.7650  127.8240   64.1940 C   0  0  0  0  0  0  0  0  0  0  0  0
  129.1600  127.0100   63.1620 N   0  0  0  0  0  0  0  0  0  0  0  0
  128.1750  132.0900   60.5900 C   0  0  0  0  0  0  0  0  0  0  0  0
  128.3590  132.8250   59.4230 C   0  0  0  0  0  0  0  0  0  0  0  0
  131.6324  132.4545   57.1963 H   0  0  0  0  0  0  0  0  0  0  0  0
  130.3785  132.0612   55.9717 H   0  0  0  0  0  0  0  0  0  0  0  0
  131.1574  133.6798   55.9717 H   0  0  0  0  0  0  0  0  0  0  0  0
  131.4033  131.6100   58.4780 H   0  0  0  0  0  0  0  0  0  0  0  0
  131.0861  130.3017   60.5676 H   0  0  0  0  0  0  0  0  0  0  0  0
  129.9460  130.2300   62.6320 H   0  0  0  0  0  0  0  0  0  0  0  0
  130.7752  127.9408   70.1161 H   0  0  0  0  0  0  0  0  0  0  0  0
  130.6866  127.9169   72.5994 H   0  0  0  0  0  0  0  0  0  0  0  0
  128.5909  127.2440   73.7623 H   0  0  0  0  0  0  0  0  0  0  0  0
  126.5808  126.5881   72.4453 H   0  0  0  0  0  0  0  0  0  0  0  0
  126.6660  126.6088   69.9614 H   0  0  0  0  0  0  0  0  0  0  0  0
  129.6384  125.3219   68.1559 H   0  0  0  0  0  0  0  0  0  0  0  0
  128.5250  126.3620   62.7190 H   0  0  0  0  0  0  0  0  0  0  0  0
  130.1070  127.0320   62.8110 H   0  0  0  0  0  0  0  0  0  0  0  0
  127.2649  132.2326   61.1912 H   0  0  0  0  0  0  0  0  0  0  0  0
  127.5894  133.5424   59.1019 H   0  0  0  0  0  0  0  0  0  0  0  0
  1  2  1  0
  2  3  1  0
  3  4  2  0
  4  5  1  0
  5  6  2  0
  6  7  1  0
  7  8  1  0
  8  9  2  0
  8 10  1  0
 10 11  1  0
 11 12  1  0
 12 13  2  0
 13 14  1  0
 14 15  1  0
 15 16  2  0
 16 17  1  0
 17 18  2  0
 18 19  1  0
 19 20  2  0
 14 21  2  0
 21 22  1  0
 22 23  1  0
 23 24  1  0
 23 25  1  0
 23 26  1  0
 22 27  2  0
 27 28  1  0
 28 29  1  0
  6 30  1  0
 30 31  2  0
 31  3  1  0
 28 10  2  0
 27 12  1  0
 20 15  1  0
  1 32  1  0
  1 33  1  0
  1 34  1  0
  4 35  1  0
  5 36  1  0
  7 37  1  0
 16 38  1  0
 17 39  1  0
 18 40  1  0
 19 41  1  0
 20 42  1  0
 21 43  1  0
 29 44  1  0
 29 45  1  0
 30 46  1  0
 31 47  1  0
M  END
>  <Binding energies>  (1) 
[-7.44]

>  <Ligand effiencies>  (1) 
[-0.21882352941176472]

>  <Interactions>  (1) 
["V-A:PRO:540:CA:4883, V-A:PRO:540:CB:4885, V-A:PRO:540:N:4884, V-A:TYR:539:C:4867, H-A:TYR:539:N:4870, H-B:GLU:543:OE1:9881, V-B:GLU:543:CG:9879, V-A:TYR:484:CZ:4347, V-B:GLU:543:CB:9878, V-A:GLU:543:CD:4908, V-A:TYR:484:CE2:4346, V-B:GLU:543:CD:9880, V-B:HIS:456:CE1:9041, V-B:GLY:544:C:9884, V-B:GLU:543:C:9874, V-B:HIS:456:CD2:9039, V-A:HIS:456:CE1:4070, V-A:GLU:543:CG:4907, V-A:GLU:543:CB:4906, V-B:GLY:544:CA:9886, H-A:GLU:543:OE1:4909, H-A:GLU:543:OE2:4910, V-B:TYR:484:CZ:9318, V-A:TYR:539:CE1:4875, V-B:GLU:543:CA:9876, V-A:TYR:539:CD1:4873, V-A:ILE:538:CA:4860, V-A:ILE:538:CG2:4863, V-A:ILE:538:CB:4862"]

$$$$
4cd_Grossjean_2025
     RDKit          3D

 43 46  0  0  0  0  0  0  0  0999 V2000
  129.0490  127.2270   63.7940 N   0  0  0  0  0  0  0  0  0  0  0  0
  129.3870  126.5070   64.9120 C   0  0  0  0  0  0  0  0  0  0  0  0
  130.0140  125.2520   64.8590 C   0  0  0  0  0  0  0  0  0  0  0  0
  130.4050  124.4750   63.6780 C   0  0  0  0  0  0  0  0  0  0  0  0
  129.7630  124.5580   62.6310 O   0  0  0  0  0  0  0  0  0  0  0  0
  131.5020  123.6940   63.8340 N   0  0  0  0  0  0  0  0  0  0  0  0
  132.1010  122.8000   62.9280 C   0  0  0  0  0  0  0  0  0  0  0  0
  131.2320  122.1340   62.0590 C   0  0  0  0  0  0  0  0  0  0  0  0
  131.7310  121.2390   61.1170 C   0  0  0  0  0  0  0  0  0  0  0  0
  133.1020  121.0130   61.0380 C   0  0  0  0  0  0  0  0  0  0  0  0
  133.9810  121.6790   61.8880 C   0  0  0  0  0  0  0  0  0  0  0  0
  133.4860  122.5760   62.8320 C   0  0  0  0  0  0  0  0  0  0  0  0
  130.3100  124.6200   66.4770 S   0  0  0  0  0  0  0  0  0  0  0  0
  129.5850  126.0300   67.2100 C   0  0  0  0  0  0  0  0  0  0  0  0
  129.4960  126.1580   68.5320 N   0  0  0  0  0  0  0  0  0  0  0  0
  128.9040  127.2850   69.0080 C   0  0  0  0  0  0  0  0  0  0  0  0
  128.8150  127.3990   70.5020 C   0  0  0  0  0  0  0  0  0  0  0  0
  129.8610  127.9750   71.2420 C   0  0  0  0  0  0  0  0  0  0  0  0
  129.7850  128.0860   72.6280 C   0  0  0  0  0  0  0  0  0  0  0  0
  128.6580  127.6200   73.2960 C   0  0  0  0  0  0  0  0  0  0  0  0
  127.6070  127.0480   72.5880 C   0  0  0  0  0  0  0  0  0  0  0  0
  127.6850  126.9420   71.2030 C   0  0  0  0  0  0  0  0  0  0  0  0
  128.4230  128.2840   68.1570 C   0  0  0  0  0  0  0  0  0  0  0  0
  128.5160  128.1600   66.7610 C   0  0  0  0  0  0  0  0  0  0  0  0
  127.9640  129.2920   65.8860 C   0  0  0  0  0  0  0  0  0  0  0  0
  128.6000  129.4090   64.7180 F   0  0  0  0  0  0  0  0  0  0  0  0
  126.6770  129.0710   65.6200 F   0  0  0  0  0  0  0  0  0  0  0  0
  128.0880  130.4560   66.5240 F   0  0  0  0  0  0  0  0  0  0  0  0
  129.1230  126.9780   66.2500 C   0  0  0  0  0  0  0  0  0  0  0  0
  128.2180  127.0220   63.2580 H   0  0  0  0  0  0  0  0  0  0  0  0
  129.6230  127.9920   63.4690 H   0  0  0  0  0  0  0  0  0  0  0  0
  131.9760  123.7650   64.7230 H   0  0  0  0  0  0  0  0  0  0  0  0
  130.1492  122.3180   62.1199 H   0  0  0  0  0  0  0  0  0  0  0  0
  131.0445  120.7124   60.4377 H   0  0  0  0  0  0  0  0  0  0  0  0
  133.4950  120.3014   60.2969 H   0  0  0  0  0  0  0  0  0  0  0  0
  135.0634  121.4974   61.8143 H   0  0  0  0  0  0  0  0  0  0  0  0
  134.1776  123.1084   63.5015 H   0  0  0  0  0  0  0  0  0  0  0  0
  130.7548  128.3444   70.7179 H   0  0  0  0  0  0  0  0  0  0  0  0
  130.6129  128.5404   73.1920 H   0  0  0  0  0  0  0  0  0  0  0  0
  128.5976  127.7044   74.3911 H   0  0  0  0  0  0  0  0  0  0  0  0
  126.7174  126.6808   73.1207 H   0  0  0  0  0  0  0  0  0  0  0  0
  126.8487  126.4932   70.6470 H   0  0  0  0  0  0  0  0  0  0  0  0
  127.9627  129.1848   68.5889 H   0  0  0  0  0  0  0  0  0  0  0  0
  1  2  1  0
  2  3  2  0
  3  4  1  0
  4  5  2  0
  4  6  1  0
  6  7  1  0
  7  8  2  0
  8  9  1  0
  9 10  2  0
 10 11  1  0
 11 12  2  0
  3 13  1  0
 13 14  1  0
 14 15  2  0
 15 16  1  0
 16 17  1  0
 17 18  2  0
 18 19  1  0
 19 20  2  0
 20 21  1  0
 21 22  2  0
 16 23  2  0
 23 24  1  0
 24 25  1  0
 25 26  1  0
 25 27  1  0
 25 28  1  0
 24 29  2  0
 29  2  1  0
 12  7  1  0
 29 14  1  0
 22 17  1  0
  1 30  1  0
  1 31  1  0
  6 32  1  0
  8 33  1  0
  9 34  1  0
 10 35  1  0
 11 36  1  0
 12 37  1  0
 18 38  1  0
 19 39  1  0
 20 40  1  0
 21 41  1  0
 22 42  1  0
 23 43  1  0
M  END
>  <Binding energies>  (1) 
[-7.28]

>  <Ligand effiencies>  (1) 
[-0.2275]

>  <Interactions>  (1) 
["V-B:TYR:539:CE2:9848, H-B:GLU:543:OE1:9881, V-B:TYR:539:CD2:9846, V-A:ILE:369:CD1:3239, V-B:GLU:543:CG:9879, V-A:ILE:369:CG2:3237, V-A:LEU:475:CD2:4259, V-A:TYR:484:CZ:4347, V-B:GLU:543:CB:9878, H-A:TYR:484:OH:4348, V-A:GLU:543:CD:4908, V-A:TYR:484:CE2:4346, V-A:GLY:454:CA:4049, V-B:GLU:543:CD:9880, V-B:HIS:456:CE1:9041, V-B:GLY:544:C:9884, V-B:GLU:543:C:9874, V-B:HIS:456:CD2:9039, V-B:LYS:547:CE:9922, V-A:HIS:456:CE1:4070, V-A:GLU:543:CG:4907, V-A:GLU:543:CB:4906, H-A:GLU:543:OE1:4909, H-A:GLU:543:OE2:4910, V-B:TYR:484:CZ:9318, V-A:GLU:543:CA:4904, H-B:GLU:543:OE2:9882, V-B:TYR:484:CE2:9317, V-A:SER:385:CB:3409, V-A:SER:385:C:3405"]

$$$$
4ce_Grossjean_2025
     RDKit          3D

 45 48  0  0  0  0  0  0  0  0999 V2000
  131.5560  120.2310   60.7250 C   0  0  0  0  0  0  0  0  0  0  0  0
  132.3420  121.2650   61.5090 C   0  0  0  0  0  0  0  0  0  0  0  0
  133.7130  121.4460   61.3090 C   0  0  0  0  0  0  0  0  0  0  0  0
  134.3700  122.4220   62.0600 C   0  0  0  0  0  0  0  0  0  0  0  0
  133.6490  123.1850   62.9810 C   0  0  0  0  0  0  0  0  0  0  0  0
  132.2780  122.9470   63.1350 C   0  0  0  0  0  0  0  0  0  0  0  0
  131.6030  123.7640   64.0600 N   0  0  0  0  0  0  0  0  0  0  0  0
  130.4570  124.4700   63.8900 C   0  0  0  0  0  0  0  0  0  0  0  0
  129.8060  124.4780   62.8440 O   0  0  0  0  0  0  0  0  0  0  0  0
  130.0180  125.2460   65.0520 C   0  0  0  0  0  0  0  0  0  0  0  0
  130.3000  124.6390   66.6820 S   0  0  0  0  0  0  0  0  0  0  0  0
  129.5780  126.0660   67.3870 C   0  0  0  0  0  0  0  0  0  0  0  0
  129.4900  126.2190   68.7050 N   0  0  0  0  0  0  0  0  0  0  0  0
  128.9270  127.3690   69.1610 C   0  0  0  0  0  0  0  0  0  0  0  0
  128.8470  127.5140   70.6510 C   0  0  0  0  0  0  0  0  0  0  0  0
  129.9290  128.0350   71.3790 C   0  0  0  0  0  0  0  0  0  0  0  0
  129.8650  128.1650   72.7640 C   0  0  0  0  0  0  0  0  0  0  0  0
  128.7140  127.7780   73.4420 C   0  0  0  0  0  0  0  0  0  0  0  0
  127.6290  127.2580   72.7450 C   0  0  0  0  0  0  0  0  0  0  0  0
  127.6970  127.1270   71.3600 C   0  0  0  0  0  0  0  0  0  0  0  0
  128.4360  128.3480   68.2900 C   0  0  0  0  0  0  0  0  0  0  0  0
  128.5200  128.1930   66.8970 C   0  0  0  0  0  0  0  0  0  0  0  0
  127.9640  129.3050   66.0010 C   0  0  0  0  0  0  0  0  0  0  0  0
  128.5770  129.3800   64.8170 F   0  0  0  0  0  0  0  0  0  0  0  0
  126.6690  129.0910   65.7660 F   0  0  0  0  0  0  0  0  0  0  0  0
  128.1120  130.4850   66.6020 F   0  0  0  0  0  0  0  0  0  0  0  0
  129.1230  126.9980   66.4090 C   0  0  0  0  0  0  0  0  0  0  0  0
  129.3860  126.5010   65.0800 C   0  0  0  0  0  0  0  0  0  0  0  0
  129.0500  127.1970   63.9480 N   0  0  0  0  0  0  0  0  0  0  0  0
  131.6280  121.9980   62.4010 N   0  0  0  0  0  0  0  0  0  0  0  0
  131.0417  119.5544   61.4234 H   0  0  0  0  0  0  0  0  0  0  0  0
  130.8132  120.7379   60.0916 H   0  0  0  0  0  0  0  0  0  0  0  0
  132.2432  119.6509   60.0916 H   0  0  0  0  0  0  0  0  0  0  0  0
  134.2612  120.8342   60.5775 H   0  0  0  0  0  0  0  0  0  0  0  0
  135.4491  122.5892   61.9272 H   0  0  0  0  0  0  0  0  0  0  0  0
  134.1510  123.9616   63.5767 H   0  0  0  0  0  0  0  0  0  0  0  0
  132.0150  123.7890   64.9810 H   0  0  0  0  0  0  0  0  0  0  0  0
  130.8407  128.3450   70.8473 H   0  0  0  0  0  0  0  0  0  0  0  0
  130.7222  128.5725   73.3201 H   0  0  0  0  0  0  0  0  0  0  0  0
  128.6617  127.8839   74.5356 H   0  0  0  0  0  0  0  0  0  0  0  0
  126.7210  126.9515   73.2850 H   0  0  0  0  0  0  0  0  0  0  0  0
  126.8369  126.7141   70.8125 H   0  0  0  0  0  0  0  0  0  0  0  0
  127.9753  129.2567   68.7047 H   0  0  0  0  0  0  0  0  0  0  0  0
  128.2300  126.9680   63.4030 H   0  0  0  0  0  0  0  0  0  0  0  0
  129.6160  127.9650   63.6150 H   0  0  0  0  0  0  0  0  0  0  0  0
  1  2  1  0
  2  3  2  0
  3  4  1  0
  4  5  2  0
  5  6  1  0
  6  7  1  0
  7  8  1  0
  8  9  2  0
  8 10  1  0
 10 11  1  0
 11 12  1  0
 12 13  2  0
 13 14  1  0
 14 15  1  0
 15 16  2  0
 16 17  1  0
 17 18  2  0
 18 19  1  0
 19 20  2  0
 14 21  2  0
 21 22  1  0
 22 23  1  0
 23 24  1  0
 23 25  1  0
 23 26  1  0
 22 27  2  0
 27 28  1  0
 28 29  1  0
  6 30  2  0
 30  2  1  0
 28 10  2  0
 27 12  1  0
 20 15  1  0
  1 31  1  0
  1 32  1  0
  1 33  1  0
  3 34  1  0
  4 35  1  0
  5 36  1  0
  7 37  1  0
 16 38  1  0
 17 39  1  0
 18 40  1  0
 19 41  1  0
 20 42  1  0
 21 43  1  0
 29 44  1  0
 29 45  1  0
M  END
>  <Binding energies>  (1) 
[-7.44]

>  <Ligand effiencies>  (1) 
[-0.22545454545454546]

>  <Interactions>  (1) 
["V-B:TYR:539:CE2:9848, H-B:GLU:543:OE1:9881, V-B:TYR:539:CD2:9846, V-A:ILE:369:CD1:3239, V-B:GLU:543:CG:9879, V-A:ILE:369:CG2:3237, V-A:LEU:475:CD2:4259, V-A:TYR:484:CZ:4347, V-B:GLU:543:CB:9878, H-A:TYR:484:OH:4348, V-A:GLU:543:CD:4908, V-A:TYR:484:CE2:4346, V-A:GLY:454:CA:4049, V-B:GLU:543:CD:9880, V-B:HIS:456:CE1:9041, V-B:GLY:544:C:9884, V-B:HIS:456:CD2:9039, V-B:LYS:547:CE:9922, V-A:HIS:456:CE1:4070, V-A:GLU:543:CG:4907, V-A:GLU:543:CB:4906, H-A:GLU:543:OE1:4909, H-A:GLU:543:OE2:4910, V-B:TYR:484:CZ:9318, V-A:GLU:543:CA:4904, H-B:GLU:543:OE2:9882, V-B:TYR:484:CE2:9317, V-A:SER:385:CB:3409"]

$$$$
4cf_Grossjean_2025
     RDKit          3D

 42 45  0  0  0  0  0  0  0  0999 V2000
  129.0100  127.2330   63.8750 N   0  0  0  0  0  0  0  0  0  0  0  0
  129.3790  126.5270   64.9910 C   0  0  0  0  0  0  0  0  0  0  0  0
  130.0310  125.2850   64.9350 C   0  0  0  0  0  0  0  0  0  0  0  0
  130.4040  124.5010   63.7540 C   0  0  0  0  0  0  0  0  0  0  0  0
  129.7380  124.5690   62.7200 O   0  0  0  0  0  0  0  0  0  0  0  0
  131.5120  123.7340   63.8920 N   0  0  0  0  0  0  0  0  0  0  0  0
  132.1030  122.8370   62.9820 C   0  0  0  0  0  0  0  0  0  0  0  0
  133.4850  122.6000   62.8490 C   0  0  0  0  0  0  0  0  0  0  0  0
  133.9410  121.6920   61.8920 C   0  0  0  0  0  0  0  0  0  0  0  0
  133.0050  121.0420   61.0880 C   0  0  0  0  0  0  0  0  0  0  0  0
  131.6690  121.2560   61.1900 N   0  0  0  0  0  0  0  0  0  0  0  0
  131.2410  122.1440   62.1250 C   0  0  0  0  0  0  0  0  0  0  0  0
  130.3600  124.6650   66.5510 S   0  0  0  0  0  0  0  0  0  0  0  0
  129.6180  126.0660   67.2880 C   0  0  0  0  0  0  0  0  0  0  0  0
  129.5400  126.1960   68.6110 N   0  0  0  0  0  0  0  0  0  0  0  0
  128.9290  127.3120   69.0890 C   0  0  0  0  0  0  0  0  0  0  0  0
  128.8500  127.4290   70.5840 C   0  0  0  0  0  0  0  0  0  0  0  0
  127.6690  127.0990   71.2670 C   0  0  0  0  0  0  0  0  0  0  0  0
  127.5870  127.2030   72.6530 C   0  0  0  0  0  0  0  0  0  0  0  0
  128.6910  127.6380   73.3780 C   0  0  0  0  0  0  0  0  0  0  0  0
  129.8760  127.9690   72.7270 C   0  0  0  0  0  0  0  0  0  0  0  0
  129.9520  127.8620   71.3410 C   0  0  0  0  0  0  0  0  0  0  0  0
  128.4240  128.3010   68.2400 C   0  0  0  0  0  0  0  0  0  0  0  0
  128.5050  128.1750   66.8440 C   0  0  0  0  0  0  0  0  0  0  0  0
  127.9250  129.2940   65.9710 C   0  0  0  0  0  0  0  0  0  0  0  0
  128.5110  129.3830   64.7750 F   0  0  0  0  0  0  0  0  0  0  0  0
  126.6270  129.0770   65.7630 F   0  0  0  0  0  0  0  0  0  0  0  0
  128.0830  130.4690   66.5800 F   0  0  0  0  0  0  0  0  0  0  0  0
  129.1260  127.0000   66.3300 C   0  0  0  0  0  0  0  0  0  0  0  0
  129.5640  128.0010   63.5210 H   0  0  0  0  0  0  0  0  0  0  0  0
  128.1670  127.0080   63.3640 H   0  0  0  0  0  0  0  0  0  0  0  0
  131.9980  123.8090   64.7750 H   0  0  0  0  0  0  0  0  0  0  0  0
  134.2012  123.1277   63.4959 H   0  0  0  0  0  0  0  0  0  0  0  0
  135.0165  121.4932   61.7744 H   0  0  0  0  0  0  0  0  0  0  0  0
  133.3661  120.3235   60.3374 H   0  0  0  0  0  0  0  0  0  0  0  0
  130.1600  122.3278   62.2129 H   0  0  0  0  0  0  0  0  0  0  0  0
  126.7938  126.7525   70.6978 H   0  0  0  0  0  0  0  0  0  0  0  0
  126.6530  126.9422   73.1722 H   0  0  0  0  0  0  0  0  0  0  0  0
  128.6275  127.7211   74.4730 H   0  0  0  0  0  0  0  0  0  0  0  0
  130.7470  128.3130   73.3041 H   0  0  0  0  0  0  0  0  0  0  0  0
  130.8909  128.1209   70.8296 H   0  0  0  0  0  0  0  0  0  0  0  0
  127.9538  129.1957   68.6742 H   0  0  0  0  0  0  0  0  0  0  0  0
  1  2  1  0
  2  3  2  0
  3  4  1  0
  4  5  2  0
  4  6  1  0
  6  7  1  0
  7  8  2  0
  8  9  1  0
  9 10  2  0
 10 11  1  0
 11 12  2  0
  3 13  1  0
 13 14  1  0
 14 15  2  0
 15 16  1  0
 16 17  1  0
 17 18  2  0
 18 19  1  0
 19 20  2  0
 20 21  1  0
 21 22  2  0
 16 23  2  0
 23 24  1  0
 24 25  1  0
 25 26  1  0
 25 27  1  0
 25 28  1  0
 24 29  2  0
 29  2  1  0
 12  7  1  0
 29 14  1  0
 22 17  1  0
  1 30  1  0
  1 31  1  0
  6 32  1  0
  8 33  1  0
  9 34  1  0
 10 35  1  0
 12 36  1  0
 18 37  1  0
 19 38  1  0
 20 39  1  0
 21 40  1  0
 22 41  1  0
 23 42  1  0
M  END
>  <Binding energies>  (1) 
[-6.91]

>  <Ligand effiencies>  (1) 
[-0.2159375]

>  <Interactions>  (1) 
["H-B:GLU:543:OE1:9881, V-A:ILE:369:CD1:3239, V-B:GLU:543:CG:9879, V-A:ILE:369:CG2:3237, V-A:LEU:475:CD2:4259, V-A:TYR:484:CZ:4347, V-B:GLU:543:CB:9878, H-A:TYR:484:OH:4348, V-A:GLU:543:CD:4908, V-A:TYR:484:CE2:4346, V-A:GLY:454:CA:4049, V-B:GLU:543:CD:9880, V-B:HIS:456:CE1:9041, V-B:GLY:544:C:9884, V-B:HIS:456:CD2:9039, V-B:LYS:547:CE:9922, V-A:HIS:456:CE1:4070, V-A:GLU:543:CG:4907, V-A:GLU:543:CB:4906, H-A:GLU:543:OE1:4909, H-A:GLU:543:OE2:4910, V-B:TYR:484:CZ:9318, V-A:GLU:543:CA:4904, H-B:GLU:543:OE2:9882, V-B:TYR:484:CE2:9317, V-A:SER:385:CB:3409, V-A:SER:385:C:3405"]

$$$$
4cg_Grossjean_2025
     RDKit          3D

 46 49  0  0  0  0  0  0  0  0999 V2000
  128.7330  127.2250   63.5400 N   0  0  0  0  0  0  0  0  0  0  0  0
  129.1260  126.4660   64.6120 C   0  0  0  0  0  0  0  0  0  0  0  0
  129.6070  125.1550   64.4890 C   0  0  0  0  0  0  0  0  0  0  0  0
  129.8290  124.3750   63.2720 C   0  0  0  0  0  0  0  0  0  0  0  0
  130.9660  124.0780   62.8970 O   0  0  0  0  0  0  0  0  0  0  0  0
  128.7240  124.0410   62.5730 N   0  0  0  0  0  0  0  0  0  0  0  0
  128.7050  123.2490   61.3440 C   0  0  0  0  0  0  0  0  0  0  0  0
  127.4430  123.4480   60.5130 C   0  0  0  0  0  0  0  0  0  0  0  0
  126.2280  123.7210   61.1500 C   0  0  0  0  0  0  0  0  0  0  0  0
  125.0790  123.9350   60.3940 C   0  0  0  0  0  0  0  0  0  0  0  0
  125.1500  123.8850   59.0030 C   0  0  0  0  0  0  0  0  0  0  0  0
  126.3600  123.6300   58.3620 C   0  0  0  0  0  0  0  0  0  0  0  0
  127.5100  123.4180   59.1180 C   0  0  0  0  0  0  0  0  0  0  0  0
  130.0410  124.4800   66.0570 S   0  0  0  0  0  0  0  0  0  0  0  0
  129.5540  125.9500   66.8690 C   0  0  0  0  0  0  0  0  0  0  0  0
  129.6460  126.0750   68.1900 N   0  0  0  0  0  0  0  0  0  0  0  0
  129.2490  127.2550   68.7330 C   0  0  0  0  0  0  0  0  0  0  0  0
  129.3630  127.3650   70.2270 C   0  0  0  0  0  0  0  0  0  0  0  0
  128.3340  126.9030   71.0650 C   0  0  0  0  0  0  0  0  0  0  0  0
  128.4340  127.0040   72.4490 C   0  0  0  0  0  0  0  0  0  0  0  0
  129.5690  127.5710   73.0200 C   0  0  0  0  0  0  0  0  0  0  0  0
  130.6020  128.0390   72.2150 C   0  0  0  0  0  0  0  0  0  0  0  0
  130.4970  127.9360   70.8310 C   0  0  0  0  0  0  0  0  0  0  0  0
  128.7430  128.2970   67.9460 C   0  0  0  0  0  0  0  0  0  0  0  0
  128.6420  128.1750   66.5520 C   0  0  0  0  0  0  0  0  0  0  0  0
  128.0790  129.3540   65.7500 C   0  0  0  0  0  0  0  0  0  0  0  0
  128.6950  129.5330   64.5790 F   0  0  0  0  0  0  0  0  0  0  0  0
  126.7860  129.1500   65.4950 F   0  0  0  0  0  0  0  0  0  0  0  0
  128.2170  130.4800   66.4480 F   0  0  0  0  0  0  0  0  0  0  0  0
  129.0700  126.9460   65.9710 C   0  0  0  0  0  0  0  0  0  0  0  0
  127.8370  127.0940   63.0910 H   0  0  0  0  0  0  0  0  0  0  0  0
  129.3270  127.9520   63.1640 H   0  0  0  0  0  0  0  0  0  0  0  0
  127.8240  124.2530   62.9770 H   0  0  0  0  0  0  0  0  0  0  0  0
  129.5735  123.5344   60.7322 H   0  0  0  0  0  0  0  0  0  0  0  0
  128.7340  122.1901   61.6405 H   0  0  0  0  0  0  0  0  0  0  0  0
  126.1805  123.7666   62.2480 H   0  0  0  0  0  0  0  0  0  0  0  0
  124.1202  124.1424   60.8917 H   0  0  0  0  0  0  0  0  0  0  0  0
  124.2412  124.0486   58.4053 H   0  0  0  0  0  0  0  0  0  0  0  0
  126.4069  123.5962   57.2635 H   0  0  0  0  0  0  0  0  0  0  0  0
  128.4705  123.2270   58.6171 H   0  0  0  0  0  0  0  0  0  0  0  0
  127.4342  126.4539   70.6192 H   0  0  0  0  0  0  0  0  0  0  0  0
  127.6186  126.6369   73.0895 H   0  0  0  0  0  0  0  0  0  0  0  0
  129.6497  127.6496   74.1142 H   0  0  0  0  0  0  0  0  0  0  0  0
  131.4973  128.4882   72.6697 H   0  0  0  0  0  0  0  0  0  0  0  0
  131.3162  128.3081   70.1982 H   0  0  0  0  0  0  0  0  0  0  0  0
  128.4183  129.2297   68.4304 H   0  0  0  0  0  0  0  0  0  0  0  0
  1  2  1  0
  2  3  2  0
  3  4  1  0
  4  5  2  0
  4  6  1  0
  6  7  1  0
  7  8  1  0
  8  9  2  0
  9 10  1  0
 10 11  2  0
 11 12  1  0
 12 13  2  0
  3 14  1  0
 14 15  1  0
 15 16  2  0
 16 17  1  0
 17 18  1  0
 18 19  2  0
 19 20  1  0
 20 21  2  0
 21 22  1  0
 22 23  2  0
 17 24  2  0
 24 25  1  0
 25 26  1  0
 26 27  1  0
 26 28  1  0
 26 29  1  0
 25 30  2  0
 30  2  1  0
 13  8  1  0
 30 15  1  0
 23 18  1  0
  1 31  1  0
  1 32  1  0
  6 33  1  0
  7 34  1  0
  7 35  1  0
  9 36  1  0
 10 37  1  0
 11 38  1  0
 12 39  1  0
 13 40  1  0
 19 41  1  0
 20 42  1  0
 21 43  1  0
 22 44  1  0
 23 45  1  0
 24 46  1  0
M  END
>  <Binding energies>  (1) 
[-7.52]

>  <Ligand effiencies>  (1) 
[-0.22787878787878788]

>  <Interactions>  (1) 
["V-B:PRO:540:CB:9857, V-B:PRO:540:CA:9855, H-B:GLU:543:OE1:9881, V-B:GLU:543:CG:9879, V-A:TYR:484:CZ:4347, V-B:GLU:543:CB:9878, V-A:GLU:543:CD:4908, V-A:TYR:484:CE2:4346, V-B:GLU:543:CD:9880, V-B:HIS:456:CE1:9041, V-A:GLY:544:C:4912, V-A:HIS:456:CE1:4070, V-A:GLU:543:CG:4907, V-A:GLU:543:C:4902, V-A:GLU:543:CB:4906, H-A:GLU:543:OE1:4909, H-A:GLU:543:OE2:4910, V-B:TYR:484:CZ:9318, V-A:GLU:543:CA:4904, H-B:GLU:543:OE2:9882, V-B:TYR:484:CE2:9317"]

$$$$
4ch_Grossjean_2025
     RDKit          3D

 58 61  0  0  0  0  0  0  0  0999 V2000
  127.6240  122.9400   55.8820 C   0  0  0  0  0  0  0  0  0  0  0  0
  127.4360  122.0530   56.9800 O   0  0  0  0  0  0  0  0  0  0  0  0
  127.3930  122.5640   58.2640 C   0  0  0  0  0  0  0  0  0  0  0  0
  128.4720  122.5180   59.1630 C   0  0  0  0  0  0  0  0  0  0  0  0
  128.3580  123.0560   60.4450 C   0  0  0  0  0  0  0  0  0  0  0  0
  129.5300  122.9710   61.4160 C   0  0  0  0  0  0  0  0  0  0  0  0
  129.3690  123.7830   62.6240 N   0  0  0  0  0  0  0  0  0  0  0  0
  130.3430  124.5010   63.2210 C   0  0  0  0  0  0  0  0  0  0  0  0
  131.4900  124.5640   62.7740 O   0  0  0  0  0  0  0  0  0  0  0  0
  129.9500  125.2400   64.4220 C   0  0  0  0  0  0  0  0  0  0  0  0
  130.2520  124.5580   66.0160 S   0  0  0  0  0  0  0  0  0  0  0  0
  129.5700  125.9650   66.7960 C   0  0  0  0  0  0  0  0  0  0  0  0
  129.4980  126.0580   68.1210 N   0  0  0  0  0  0  0  0  0  0  0  0
  128.9570  127.1930   68.6360 C   0  0  0  0  0  0  0  0  0  0  0  0
  128.8840  127.2640   70.1350 C   0  0  0  0  0  0  0  0  0  0  0  0
  127.7120  126.8970   70.8160 C   0  0  0  0  0  0  0  0  0  0  0  0
  127.6370  126.9620   72.2050 C   0  0  0  0  0  0  0  0  0  0  0  0
  128.7380  127.3970   72.9360 C   0  0  0  0  0  0  0  0  0  0  0  0
  129.9100  127.7700   72.2860 C   0  0  0  0  0  0  0  0  0  0  0  0
  129.9790  127.7050   70.8970 C   0  0  0  0  0  0  0  0  0  0  0  0
  128.4760  128.2190   67.8180 C   0  0  0  0  0  0  0  0  0  0  0  0
  128.5450  128.1310   66.4180 C   0  0  0  0  0  0  0  0  0  0  0  0
  127.9990  129.2930   65.5810 C   0  0  0  0  0  0  0  0  0  0  0  0
  128.7240  129.5360   64.4860 F   0  0  0  0  0  0  0  0  0  0  0  0
  126.7580  129.0190   65.1840 F   0  0  0  0  0  0  0  0  0  0  0  0
  127.9920  130.4090   66.3090 F   0  0  0  0  0  0  0  0  0  0  0  0
  129.1230  126.9510   65.8680 C   0  0  0  0  0  0  0  0  0  0  0  0
  129.3640  126.5130   64.5140 C   0  0  0  0  0  0  0  0  0  0  0  0
  129.0400  127.2710   63.4180 N   0  0  0  0  0  0  0  0  0  0  0  0
  127.1520  123.6330   60.8450 C   0  0  0  0  0  0  0  0  0  0  0  0
  126.0570  123.6910   59.9680 C   0  0  0  0  0  0  0  0  0  0  0  0
  124.8340  124.2490   60.2970 O   0  0  0  0  0  0  0  0  0  0  0  0
  124.1300  123.7670   61.4360 C   0  0  0  0  0  0  0  0  0  0  0  0
  126.1930  123.1590   58.6780 C   0  0  0  0  0  0  0  0  0  0  0  0
  125.1250  123.1970   57.8150 O   0  0  0  0  0  0  0  0  0  0  0  0
  124.7670  124.5060   57.3930 C   0  0  0  0  0  0  0  0  0  0  0  0
  127.8382  123.9507   56.2596 H   0  0  0  0  0  0  0  0  0  0  0  0
  128.4681  122.5910   55.2691 H   0  0  0  0  0  0  0  0  0  0  0  0
  126.7109  122.9635   55.2691 H   0  0  0  0  0  0  0  0  0  0  0  0
  129.4185  122.0519   58.8519 H   0  0  0  0  0  0  0  0  0  0  0  0
  129.6507  121.9207   61.7199 H   0  0  0  0  0  0  0  0  0  0  0  0
  130.4093  123.3649   60.8853 H   0  0  0  0  0  0  0  0  0  0  0  0
  128.4670  123.7340   63.0750 H   0  0  0  0  0  0  0  0  0  0  0  0
  126.8387  126.5525   70.2427 H   0  0  0  0  0  0  0  0  0  0  0  0
  126.7110  126.6706   72.7222 H   0  0  0  0  0  0  0  0  0  0  0  0
  128.6814  127.4462   74.0334 H   0  0  0  0  0  0  0  0  0  0  0  0
  130.7782  128.1147   72.8668 H   0  0  0  0  0  0  0  0  0  0  0  0
  130.9068  128.0041   70.3873 H   0  0  0  0  0  0  0  0  0  0  0  0
  128.0342  129.1141   68.2803 H   0  0  0  0  0  0  0  0  0  0  0  0
  128.1570  127.1650   62.9380 H   0  0  0  0  0  0  0  0  0  0  0  0
  129.6750  127.9670   63.0540 H   0  0  0  0  0  0  0  0  0  0  0  0
  127.0581  124.0474   61.8596 H   0  0  0  0  0  0  0  0  0  0  0  0
  124.6335  124.1117   62.3512 H   0  0  0  0  0  0  0  0  0  0  0  0
  123.0988  124.1494   61.4186 H   0  0  0  0  0  0  0  0  0  0  0  0
  124.1136  122.6673   61.4186 H   0  0  0  0  0  0  0  0  0  0  0  0
  124.5934  125.1408   58.2744 H   0  0  0  0  0  0  0  0  0  0  0  0
  125.5816  124.9321   56.7890 H   0  0  0  0  0  0  0  0  0  0  0  0
  123.8489  124.4583   56.7890 H   0  0  0  0  0  0  0  0  0  0  0  0
  1  2  1  0
  2  3  1  0
  3  4  2  0
  4  5  1  0
  5  6  1  0
  6  7  1  0
  7  8  1  0
  8  9  2  0
  8 10  1  0
 10 11  1  0
 11 12  1  0
 12 13  2  0
 13 14  1  0
 14 15  1  0
 15 16  2  0
 16 17  1  0
 17 18  2  0
 18 19  1  0
 19 20  2  0
 14 21  2  0
 21 22  1  0
 22 23  1  0
 23 24  1  0
 23 25  1  0
 23 26  1  0
 22 27  2  0
 27 28  1  0
 28 29  1  0
  5 30  2  0
 30 31  1  0
 31 32  1  0
 32 33  1  0
 31 34  2  0
 34 35  1  0
 35 36  1  0
 34  3  1  0
 28 10  2  0
 27 12  1  0
 20 15  1  0
  1 37  1  0
  1 38  1  0
  1 39  1  0
  4 40  1  0
  6 41  1  0
  6 42  1  0
  7 43  1  0
 16 44  1  0
 17 45  1  0
 18 46  1  0
 19 47  1  0
 20 48  1  0
 21 49  1  0
 29 50  1  0
 29 51  1  0
 30 52  1  0
 33 53  1  0
 33 54  1  0
 33 55  1  0
 36 56  1  0
 36 57  1  0
 36 58  1  0
M  END
>  <Binding energies>  (1) 
[-7.61]

>  <Ligand effiencies>  (1) 
[-0.19512820512820514]

>  <Interactions>  (1) 
["V-B:TYR:539:CZ:9849, V-B:PRO:540:N:9856, V-B:TYR:539:CE1:9847, V-B:PRO:540:CB:9857, V-B:TYR:539:CD1:9845, V-B:PRO:540:CA:9855, V-B:TYR:539:CE2:9848, H-B:TYR:539:N:9842, V-B:MET:535:CE:9807, V-B:LEU:363:CD1:8160, V-B:TYR:539:C:9839, V-B:TYR:539:CG:9844, H-B:GLU:543:OE1:9881, V-B:TYR:539:CD2:9846, V-B:TYR:531:CE2:9765, V-B:GLU:543:CG:9879, V-A:TYR:484:CZ:4347, V-B:GLU:543:CB:9878, V-A:GLU:543:CD:4908, V-A:TYR:484:CE2:4346, V-B:GLU:543:CD:9880, V-B:HIS:456:CE1:9041, V-B:GLY:544:C:9884, V-B:GLU:543:C:9874, V-B:HIS:456:CD2:9039, V-B:LYS:547:CE:9922, V-A:HIS:456:CE1:4070, V-A:GLU:543:CG:4907, V-A:GLU:543:CB:4906, H-A:GLU:543:OE1:4909, H-A:GLU:543:OE2:4910, V-B:TYR:484:CZ:9318, H-B:GLU:543:OE2:9882, V-B:ASN:362:CB:8147, V-B:TYR:484:CE2:9317, V-B:ASN:362:C:8143"]

$$$$
4ci_Grossjean_2025
     RDKit          3D

 39 42  0  0  0  0  0  0  0  0999 V2000
  129.1800  127.2010   63.9360 N   0  0  0  0  0  0  0  0  0  0  0  0
  129.4900  126.5160   65.0820 C   0  0  0  0  0  0  0  0  0  0  0  0
  130.1440  125.2730   65.0840 C   0  0  0  0  0  0  0  0  0  0  0  0
  130.6210  124.4910   63.9400 C   0  0  0  0  0  0  0  0  0  0  0  0
  130.0230  124.5250   62.8620 O   0  0  0  0  0  0  0  0  0  0  0  0
  131.7300  123.7440   64.1650 N   0  0  0  0  0  0  0  0  0  0  0  0
  132.3880  122.9140   63.2660 C   0  0  0  0  0  0  0  0  0  0  0  0
  131.7870  122.4100   62.1130 C   0  0  0  0  0  0  0  0  0  0  0  0
  132.7570  121.6450   61.5080 C   0  0  0  0  0  0  0  0  0  0  0  0
  133.8850  121.6850   62.2590 O   0  0  0  0  0  0  0  0  0  0  0  0
  133.6370  122.4920   63.3710 N   0  0  0  0  0  0  0  0  0  0  0  0
  130.3920  124.6850   66.7260 S   0  0  0  0  0  0  0  0  0  0  0  0
  129.6120  126.0980   67.3980 C   0  0  0  0  0  0  0  0  0  0  0  0
  129.4740  126.2580   68.7120 N   0  0  0  0  0  0  0  0  0  0  0  0
  128.8570  127.3900   69.1400 C   0  0  0  0  0  0  0  0  0  0  0  0
  128.7120  127.5390   70.6280 C   0  0  0  0  0  0  0  0  0  0  0  0
  127.5250  127.1620   71.2770 C   0  0  0  0  0  0  0  0  0  0  0  0
  127.3850  127.2970   72.6560 C   0  0  0  0  0  0  0  0  0  0  0  0
  128.4340  127.8150   73.4080 C   0  0  0  0  0  0  0  0  0  0  0  0
  129.6180  128.2000   72.7910 C   0  0  0  0  0  0  0  0  0  0  0  0
  129.7540  128.0650   71.4120 C   0  0  0  0  0  0  0  0  0  0  0  0
  128.3670  128.3470   68.2450 C   0  0  0  0  0  0  0  0  0  0  0  0
  128.5080  128.1890   66.8570 C   0  0  0  0  0  0  0  0  0  0  0  0
  127.9470  129.2770   65.9340 C   0  0  0  0  0  0  0  0  0  0  0  0
  128.5760  129.3430   64.7590 F   0  0  0  0  0  0  0  0  0  0  0  0
  126.6600  129.0360   65.6850 F   0  0  0  0  0  0  0  0  0  0  0  0
  128.0660  130.4700   66.5190 F   0  0  0  0  0  0  0  0  0  0  0  0
  129.1640  127.0110   66.3980 C   0  0  0  0  0  0  0  0  0  0  0  0
  128.2950  127.0810   63.4630 H   0  0  0  0  0  0  0  0  0  0  0  0
  129.8290  127.8590   63.5260 H   0  0  0  0  0  0  0  0  0  0  0  0
  132.1330  123.7860   65.0890 H   0  0  0  0  0  0  0  0  0  0  0  0
  130.7592  122.5862   61.7629 H   0  0  0  0  0  0  0  0  0  0  0  0
  132.6368  121.0899   60.5660 H   0  0  0  0  0  0  0  0  0  0  0  0
  126.6920  126.7533   70.6863 H   0  0  0  0  0  0  0  0  0  0  0  0
  126.4488  126.9952   73.1483 H   0  0  0  0  0  0  0  0  0  0  0  0
  128.3258  127.9205   74.4976 H   0  0  0  0  0  0  0  0  0  0  0  0
  130.4447  128.6099   73.3898 H   0  0  0  0  0  0  0  0  0  0  0  0
  130.6919  128.3749   70.9279 H   0  0  0  0  0  0  0  0  0  0  0  0
  127.8609  129.2416   68.6367 H   0  0  0  0  0  0  0  0  0  0  0  0
  1  2  1  0
  2  3  2  0
  3  4  1  0
  4  5  2  0
  4  6  1  0
  6  7  1  0
  7  8  1  0
  8  9  2  0
  9 10  1  0
 10 11  1  0
  3 12  1  0
 12 13  1  0
 13 14  2  0
 14 15  1  0
 15 16  1  0
 16 17  2  0
 17 18  1  0
 18 19  2  0
 19 20  1  0
 20 21  2  0
 15 22  2  0
 22 23  1  0
 23 24  1  0
 24 25  1  0
 24 26  1  0
 24 27  1  0
 23 28  2  0
 28  2  1  0
 11  7  2  0
 28 13  1  0
 21 16  1  0
  1 29  1  0
  1 30  1  0
  6 31  1  0
  8 32  1  0
  9 33  1  0
 17 34  1  0
 18 35  1  0
 19 36  1  0
 20 37  1  0
 21 38  1  0
 22 39  1  0
M  END
>  <Binding energies>  (1) 
[-6.72]

>  <Ligand effiencies>  (1) 
[-0.2167741935483871]

>  <Interactions>  (1) 
["H-B:GLU:543:OE1:9881, V-B:GLU:543:CG:9879, V-A:LEU:475:CD2:4259, V-A:TYR:484:CZ:4347, V-B:GLU:543:CB:9878, H-A:TYR:484:OH:4348, V-A:GLU:543:CD:4908, V-A:TYR:484:CE2:4346, V-B:GLU:543:CD:9880, V-B:HIS:456:CE1:9041, V-B:GLY:544:C:9884, V-B:HIS:456:CD2:9039, V-B:LYS:547:CE:9922, V-A:HIS:456:CE1:4070, V-A:GLU:543:CG:4907, V-A:GLU:543:CB:4906, V-B:HIS:456:CG:9037, H-A:GLU:543:OE1:4909, H-A:GLU:543:OE2:4910, V-B:TYR:484:CZ:9318, V-A:GLU:543:CA:4904, H-B:GLU:543:OE2:9882, H-A:GLY:454:N:4050, V-B:TYR:484:CE2:9317"]

$$$$
4cj_Grossjean_2025
     RDKit          3D

 39 42  0  0  0  0  0  0  0  0999 V2000
  129.0700  127.1860   63.7830 N   0  0  0  0  0  0  0  0  0  0  0  0
  129.4760  126.5240   64.9140 C   0  0  0  0  0  0  0  0  0  0  0  0
  130.2690  125.3650   64.8840 C   0  0  0  0  0  0  0  0  0  0  0  0
  130.8090  124.6580   63.7200 C   0  0  0  0  0  0  0  0  0  0  0  0
  130.4050  124.9130   62.5830 O   0  0  0  0  0  0  0  0  0  0  0  0
  131.7530  123.7230   63.9940 N   0  0  0  0  0  0  0  0  0  0  0  0
  132.4190  122.9190   63.0790 C   0  0  0  0  0  0  0  0  0  0  0  0
  133.7110  122.6760   63.0080 N   0  0  0  0  0  0  0  0  0  0  0  0
  133.9960  121.8610   62.0120 C   0  0  0  0  0  0  0  0  0  0  0  0
  132.9200  121.4220   61.2470 C   0  0  0  0  0  0  0  0  0  0  0  0
  131.4570  122.1220   61.8760 S   0  0  0  0  0  0  0  0  0  0  0  0
  130.6140  124.7870   66.5120 S   0  0  0  0  0  0  0  0  0  0  0  0
  129.6950  126.0950   67.2190 C   0  0  0  0  0  0  0  0  0  0  0  0
  129.5710  126.2230   68.5380 N   0  0  0  0  0  0  0  0  0  0  0  0
  128.8450  127.2750   68.9950 C   0  0  0  0  0  0  0  0  0  0  0  0
  128.7360  127.3980   70.4880 C   0  0  0  0  0  0  0  0  0  0  0  0
  127.5940  126.9420   71.1650 C   0  0  0  0  0  0  0  0  0  0  0  0
  127.4840  127.0580   72.5490 C   0  0  0  0  0  0  0  0  0  0  0  0
  128.5190  127.6370   73.2770 C   0  0  0  0  0  0  0  0  0  0  0  0
  129.6600  128.0990   72.6310 C   0  0  0  0  0  0  0  0  0  0  0  0
  129.7660  127.9790   71.2480 C   0  0  0  0  0  0  0  0  0  0  0  0
  128.2250  128.1790   68.1250 C   0  0  0  0  0  0  0  0  0  0  0  0
  128.3470  128.0520   66.7320 C   0  0  0  0  0  0  0  0  0  0  0  0
  127.6440  129.0790   65.8370 C   0  0  0  0  0  0  0  0  0  0  0  0
  127.3370  128.6000   64.6310 F   0  0  0  0  0  0  0  0  0  0  0  0
  126.5080  129.4740   66.4110 F   0  0  0  0  0  0  0  0  0  0  0  0
  128.4360  130.1370   65.6570 F   0  0  0  0  0  0  0  0  0  0  0  0
  129.1230  126.9630   66.2420 C   0  0  0  0  0  0  0  0  0  0  0  0
  128.2310  126.9250   63.2830 H   0  0  0  0  0  0  0  0  0  0  0  0
  129.5960  127.9660   63.4140 H   0  0  0  0  0  0  0  0  0  0  0  0
  131.9980  123.5810   64.9630 H   0  0  0  0  0  0  0  0  0  0  0  0
  135.0277  121.5454   61.7975 H   0  0  0  0  0  0  0  0  0  0  0  0
  132.9840  120.7425   60.3843 H   0  0  0  0  0  0  0  0  0  0  0  0
  126.7724  126.4856   70.5934 H   0  0  0  0  0  0  0  0  0  0  0  0
  126.5829  126.6935   73.0640 H   0  0  0  0  0  0  0  0  0  0  0  0
  128.4338  127.7296   74.3698 H   0  0  0  0  0  0  0  0  0  0  0  0
  130.4754  128.5573   73.2099 H   0  0  0  0  0  0  0  0  0  0  0  0
  130.6712  128.3451   70.7414 H   0  0  0  0  0  0  0  0  0  0  0  0
  127.6302  129.0056   68.5408 H   0  0  0  0  0  0  0  0  0  0  0  0
  1  2  1  0
  2  3  2  0
  3  4  1  0
  4  5  2  0
  4  6  1  0
  6  7  1  0
  7  8  2  0
  8  9  1  0
  9 10  2  0
 10 11  1  0
  3 12  1  0
 12 13  1  0
 13 14  2  0
 14 15  1  0
 15 16  1  0
 16 17  2  0
 17 18  1  0
 18 19  2  0
 19 20  1  0
 20 21  2  0
 15 22  2  0
 22 23  1  0
 23 24  1  0
 24 25  1  0
 24 26  1  0
 24 27  1  0
 23 28  2  0
 28  2  1  0
 11  7  1  0
 28 13  1  0
 21 16  1  0
  1 29  1  0
  1 30  1  0
  6 31  1  0
  9 32  1  0
 10 33  1  0
 17 34  1  0
 18 35  1  0
 19 36  1  0
 20 37  1  0
 21 38  1  0
 22 39  1  0
M  END
>  <Binding energies>  (1) 
[-6.88]

>  <Ligand effiencies>  (1) 
[-0.22193548387096773]

>  <Interactions>  (1) 
["H-B:GLU:543:OE1:9881, V-A:ILE:369:CD1:3239, V-B:GLU:543:CG:9879, V-A:ILE:369:CG2:3237, V-A:LEU:475:CD2:4259, V-A:TYR:484:CZ:4347, V-B:GLU:543:CB:9878, H-A:TYR:484:OH:4348, V-A:GLU:543:CD:4908, V-A:TYR:484:CE2:4346, V-A:GLY:454:CA:4049, V-B:GLU:543:CD:9880, V-B:HIS:456:CE1:9041, V-B:GLY:544:C:9884, V-B:GLU:543:C:9874, V-B:HIS:456:CD2:9039, V-B:LYS:547:CE:9922, V-A:HIS:456:CE1:4070, V-A:GLU:543:CG:4907, V-A:GLU:543:CB:4906, V-B:GLY:544:CA:9886, H-A:GLU:543:OE1:4909, H-A:GLU:543:OE2:4910, V-B:TYR:484:CZ:9318, H-B:GLU:543:OE2:9882, H-A:GLY:454:N:4050, V-B:TYR:484:CE2:9317, V-A:SER:385:C:3405"]

$$$$
4ck_Grossjean_2025
     RDKit          3D

 57 59  0  0  0  0  0  0  0  0999 V2000
  125.1450  122.3810   56.2470 C   0  0  0  0  0  0  0  0  0  0  0  0
  126.5050  121.9850   56.1630 O   0  0  0  0  0  0  0  0  0  0  0  0
  127.3580  122.7040   57.0420 C   0  0  0  0  0  0  0  0  0  0  0  0
  126.5290  123.7470   57.8020 C   0  0  0  0  0  0  0  0  0  0  0  0
  126.1960  123.2310   59.0830 O   0  0  0  0  0  0  0  0  0  0  0  0
  125.7330  124.2210   59.9920 C   0  0  0  0  0  0  0  0  0  0  0  0
  126.7460  124.3690   61.1340 C   0  0  0  0  0  0  0  0  0  0  0  0
  126.9630  123.0930   61.7200 O   0  0  0  0  0  0  0  0  0  0  0  0
  128.0310  122.3620   61.1300 C   0  0  0  0  0  0  0  0  0  0  0  0
  129.3730  122.9800   61.5510 C   0  0  0  0  0  0  0  0  0  0  0  0
  129.2420  123.8190   62.7430 N   0  0  0  0  0  0  0  0  0  0  0  0
  130.2470  124.4700   63.3650 C   0  0  0  0  0  0  0  0  0  0  0  0
  131.4090  124.4440   62.9580 O   0  0  0  0  0  0  0  0  0  0  0  0
  129.8740  125.2310   64.5580 C   0  0  0  0  0  0  0  0  0  0  0  0
  130.1890  124.5710   66.1610 S   0  0  0  0  0  0  0  0  0  0  0  0
  129.5540  126.0090   66.9250 C   0  0  0  0  0  0  0  0  0  0  0  0
  129.5160  126.1330   68.2490 N   0  0  0  0  0  0  0  0  0  0  0  0
  129.0040  127.2860   68.7520 C   0  0  0  0  0  0  0  0  0  0  0  0
  128.9920  127.4030   70.2490 C   0  0  0  0  0  0  0  0  0  0  0  0
  127.8830  126.9710   70.9950 C   0  0  0  0  0  0  0  0  0  0  0  0
  127.8650  127.0780   72.3840 C   0  0  0  0  0  0  0  0  0  0  0  0
  128.9600  127.6210   73.0480 C   0  0  0  0  0  0  0  0  0  0  0  0
  130.0730  128.0510   72.3340 C   0  0  0  0  0  0  0  0  0  0  0  0
  130.0880  127.9410   70.9460 C   0  0  0  0  0  0  0  0  0  0  0  0
  128.5410  128.3130   67.9220 C   0  0  0  0  0  0  0  0  0  0  0  0
  128.5750  128.1920   66.5240 C   0  0  0  0  0  0  0  0  0  0  0  0
  128.0480  129.3540   65.6740 C   0  0  0  0  0  0  0  0  0  0  0  0
  128.7130  129.5090   64.5280 F   0  0  0  0  0  0  0  0  0  0  0  0
  126.7680  129.1440   65.3680 F   0  0  0  0  0  0  0  0  0  0  0  0
  128.1550  130.4950   66.3550 F   0  0  0  0  0  0  0  0  0  0  0  0
  129.1080  126.9850   65.9860 C   0  0  0  0  0  0  0  0  0  0  0  0
  129.3110  126.5140   64.6370 C   0  0  0  0  0  0  0  0  0  0  0  0
  128.9790  127.2560   63.5330 N   0  0  0  0  0  0  0  0  0  0  0  0
  124.8525  122.4662   57.3040 H   0  0  0  0  0  0  0  0  0  0  0  0
  125.0152  123.3542   55.7511 H   0  0  0  0  0  0  0  0  0  0  0  0
  124.5130  121.6296   55.7511 H   0  0  0  0  0  0  0  0  0  0  0  0
  127.8208  122.0084   57.7575 H   0  0  0  0  0  0  0  0  0  0  0  0
  128.1476  123.2067   56.4643 H   0  0  0  0  0  0  0  0  0  0  0  0
  127.1152  124.6706   57.9177 H   0  0  0  0  0  0  0  0  0  0  0  0
  125.6093  123.9702   57.2413 H   0  0  0  0  0  0  0  0  0  0  0  0
  125.6270  125.1819   59.4671 H   0  0  0  0  0  0  0  0  0  0  0  0
  124.7566  123.9208   60.4002 H   0  0  0  0  0  0  0  0  0  0  0  0
  127.6948  124.7607   60.7385 H   0  0  0  0  0  0  0  0  0  0  0  0
  126.3581  125.0672   61.8903 H   0  0  0  0  0  0  0  0  0  0  0  0
  127.9882  121.3156   61.4665 H   0  0  0  0  0  0  0  0  0  0  0  0
  127.9387  122.4006   60.0346 H   0  0  0  0  0  0  0  0  0  0  0  0
  130.0856  122.1696   61.7641 H   0  0  0  0  0  0  0  0  0  0  0  0
  129.7272  123.6157   60.7261 H   0  0  0  0  0  0  0  0  0  0  0  0
  128.3020  123.9600   63.0840 H   0  0  0  0  0  0  0  0  0  0  0  0
  127.0147  126.5413   70.4741 H   0  0  0  0  0  0  0  0  0  0  0  0
  126.9886  126.7345   72.9531 H   0  0  0  0  0  0  0  0  0  0  0  0
  128.9454  127.7108   74.1442 H   0  0  0  0  0  0  0  0  0  0  0  0
  130.9382  128.4764   72.8636 H   0  0  0  0  0  0  0  0  0  0  0  0
  130.9717  128.2805   70.3858 H   0  0  0  0  0  0  0  0  0  0  0  0
  128.1425  129.2333   68.3740 H   0  0  0  0  0  0  0  0  0  0  0  0
  128.1040  127.1270   63.0440 H   0  0  0  0  0  0  0  0  0  0  0  0
  129.6010  127.9670   63.1710 H   0  0  0  0  0  0  0  0  0  0  0  0
  1  2  1  0
  2  3  1  0
  3  4  1  0
  4  5  1  0
  5  6  1  0
  6  7  1  0
  7  8  1  0
  8  9  1  0
  9 10  1  0
 10 11  1  0
 11 12  1  0
 12 13  2  0
 12 14  1  0
 14 15  1  0
 15 16  1  0
 16 17  2  0
 17 18  1  0
 18 19  1  0
 19 20  2  0
 20 21  1  0
 21 22  2  0
 22 23  1  0
 23 24  2  0
 18 25  2  0
 25 26  1  0
 26 27  1  0
 27 28  1  0
 27 29  1  0
 27 30  1  0
 26 31  2  0
 31 32  1  0
 32 33  1  0
 32 14  2  0
 31 16  1  0
 24 19  1  0
  1 34  1  0
  1 35  1  0
  1 36  1  0
  3 37  1  0
  3 38  1  0
  4 39  1  0
  4 40  1  0
  6 41  1  0
  6 42  1  0
  7 43  1  0
  7 44  1  0
  9 45  1  0
  9 46  1  0
 10 47  1  0
 10 48  1  0
 11 49  1  0
 20 50  1  0
 21 51  1  0
 22 52  1  0
 23 53  1  0
 24 54  1  0
 25 55  1  0
 33 56  1  0
 33 57  1  0
M  END
>  <Binding energies>  (1) 
[-7.23]

>  <Ligand effiencies>  (1) 
[-0.20083333333333334]

>  <Interactions>  (1) 
["V-B:TYR:539:CZ:9849, V-B:PRO:540:N:9856, V-B:TYR:539:CE1:9847, V-B:PRO:540:CB:9857, V-B:TYR:539:CD1:9845, V-B:PRO:540:CA:9855, V-B:TYR:539:CE2:9848, H-B:TYR:539:N:9842, V-B:PRO:540:CD:9859, V-B:MET:535:CE:9807, V-B:LEU:363:CD1:8160, V-B:PRO:540:CG:9858, V-B:TYR:539:C:9839, V-B:TYR:539:CG:9844, H-B:GLU:543:OE1:9881, V-B:PRO:540:C:9853, H-B:ALA:541:N:9863, V-B:TYR:539:CD2:9846, V-B:GLU:543:CG:9879, V-A:TYR:484:CZ:4347, V-B:GLU:543:CB:9878, V-A:GLU:543:CD:4908, V-A:TYR:484:CE2:4346, V-B:GLU:543:CD:9880, V-B:HIS:456:CE1:9041, V-B:GLY:544:C:9884, V-B:GLU:543:C:9874, V-B:HIS:456:CD2:9039, V-B:LYS:547:CE:9922, V-A:HIS:456:CE1:4070, V-A:GLU:543:CG:4907, V-A:GLU:543:CB:4906, H-A:GLU:543:OE1:4909, H-A:GLU:543:OE2:4910, V-B:TYR:484:CZ:9318, V-A:GLU:543:CA:4904, H-B:GLU:543:OE2:9882, V-B:ILE:538:CG2:9835, V-B:TYR:484:CE2:9317"]

$$$$
4dd_Grossjean_2025
     RDKit          3D

 43 46  0  0  0  0  0  0  0  0999 V2000
  127.7050  129.0940   65.8910 C   0  0  0  0  0  0  0  0  0  0  0  0
  128.4030  128.0510   66.7510 C   0  0  0  0  0  0  0  0  0  0  0  0
  128.3240  128.1820   68.1430 C   0  0  0  0  0  0  0  0  0  0  0  0
  128.9450  127.2550   68.9890 C   0  0  0  0  0  0  0  0  0  0  0  0
  128.8810  127.3740   70.4830 C   0  0  0  0  0  0  0  0  0  0  0  0
  129.9500  127.9240   71.2080 C   0  0  0  0  0  0  0  0  0  0  0  0
  129.8960  128.0400   72.5950 C   0  0  0  0  0  0  0  0  0  0  0  0
  128.7680  127.6030   73.2790 C   0  0  0  0  0  0  0  0  0  0  0  0
  127.6930  127.0550   72.5870 C   0  0  0  0  0  0  0  0  0  0  0  0
  127.7500  126.9430   71.2000 C   0  0  0  0  0  0  0  0  0  0  0  0
  129.6570  126.2030   68.5030 N   0  0  0  0  0  0  0  0  0  0  0  0
  129.7280  126.0730   67.1790 C   0  0  0  0  0  0  0  0  0  0  0  0
  130.5950  124.7570   66.4200 S   0  0  0  0  0  0  0  0  0  0  0  0
  130.1770  125.3480   64.8100 C   0  0  0  0  0  0  0  0  0  0  0  0
  130.6220  124.6250   63.6170 C   0  0  0  0  0  0  0  0  0  0  0  0
  130.1690  124.9070   62.5060 O   0  0  0  0  0  0  0  0  0  0  0  0
  131.5480  123.6600   63.8340 N   0  0  0  0  0  0  0  0  0  0  0  0
  132.1350  122.7600   62.9260 C   0  0  0  0  0  0  0  0  0  0  0  0
  131.2540  122.0980   62.0660 C   0  0  0  0  0  0  0  0  0  0  0  0
  131.7390  121.1980   61.1210 C   0  0  0  0  0  0  0  0  0  0  0  0
  133.1080  120.9630   61.0300 C   0  0  0  0  0  0  0  0  0  0  0  0
  133.9980  121.6240   61.8730 C   0  0  0  0  0  0  0  0  0  0  0  0
  133.5160  122.5250   62.8190 C   0  0  0  0  0  0  0  0  0  0  0  0
  129.4050  126.5170   64.8860 C   0  0  0  0  0  0  0  0  0  0  0  0
  128.9410  127.1990   63.7880 N   0  0  0  0  0  0  0  0  0  0  0  0
  129.1320  126.9510   66.2300 C   0  0  0  0  0  0  0  0  0  0  0  0
  127.2107  129.8326   66.5392 H   0  0  0  0  0  0  0  0  0  0  0  0
  128.4462  129.6013   65.2560 H   0  0  0  0  0  0  0  0  0  0  0  0
  126.9534  128.6022   65.2560 H   0  0  0  0  0  0  0  0  0  0  0  0
  127.7665  129.0247   68.5778 H   0  0  0  0  0  0  0  0  0  0  0  0
  130.8459  128.2694   70.6713 H   0  0  0  0  0  0  0  0  0  0  0  0
  130.7423  128.4755   73.1464 H   0  0  0  0  0  0  0  0  0  0  0  0
  128.7250  127.6910   74.3746 H   0  0  0  0  0  0  0  0  0  0  0  0
  126.8018  126.7116   73.1328 H   0  0  0  0  0  0  0  0  0  0  0  0
  126.8970  126.5106   70.6564 H   0  0  0  0  0  0  0  0  0  0  0  0
  131.8830  123.5720   64.7820 H   0  0  0  0  0  0  0  0  0  0  0  0
  130.1730  122.2890   62.1362 H   0  0  0  0  0  0  0  0  0  0  0  0
  131.0431  120.6746   60.4489 H   0  0  0  0  0  0  0  0  0  0  0  0
  133.4903  120.2489   60.2857 H   0  0  0  0  0  0  0  0  0  0  0  0
  135.0786  121.4349   61.7918 H   0  0  0  0  0  0  0  0  0  0  0  0
  134.2167  123.0529   63.4827 H   0  0  0  0  0  0  0  0  0  0  0  0
  129.0350  126.8300   62.8520 H   0  0  0  0  0  0  0  0  0  0  0  0
  128.4850  128.0950   63.8820 H   0  0  0  0  0  0  0  0  0  0  0  0
  1  2  1  0
  2  3  2  0
  3  4  1  0
  4  5  1  0
  5  6  2  0
  6  7  1  0
  7  8  2  0
  8  9  1  0
  9 10  2  0
  4 11  2  0
 11 12  1  0
 12 13  1  0
 13 14  1  0
 14 15  1  0
 15 16  2  0
 15 17  1  0
 17 18  1  0
 18 19  2  0
 19 20  1  0
 20 21  2  0
 21 22  1  0
 22 23  2  0
 14 24  2  0
 24 25  1  0
 24 26  1  0
 26  2  1  0
 10  5  1  0
 26 12  2  0
 23 18  1  0
  1 27  1  0
  1 28  1  0
  1 29  1  0
  3 30  1  0
  6 31  1  0
  7 32  1  0
  8 33  1  0
  9 34  1  0
 10 35  1  0
 17 36  1  0
 19 37  1  0
 20 38  1  0
 21 39  1  0
 22 40  1  0
 23 41  1  0
 25 42  1  0
 25 43  1  0
M  END
>  <Binding energies>  (1) 
[-7.17]

>  <Ligand effiencies>  (1) 
[-0.24724137931034482]

>  <Interactions>  (1) 
["V-B:TYR:539:CE2:9848, H-B:GLU:543:OE1:9881, V-B:TYR:539:CD2:9846, V-A:ILE:369:CD1:3239, V-B:GLU:543:CG:9879, V-A:ILE:369:CG2:3237, V-A:LEU:475:CD2:4259, V-A:TYR:484:CZ:4347, V-B:GLU:543:CB:9878, H-A:TYR:484:OH:4348, V-A:GLU:543:CD:4908, V-A:TYR:484:CE2:4346, V-A:GLY:454:CA:4049, V-B:GLU:543:CD:9880, V-B:HIS:456:CE1:9041, V-B:GLY:544:C:9884, V-B:GLU:543:C:9874, V-B:HIS:456:CD2:9039, V-B:LYS:547:CE:9922, V-A:HIS:456:CE1:4070, V-A:GLU:543:CG:4907, V-A:GLU:543:CB:4906, H-A:GLU:543:OE1:4909, H-B:GLU:543:OE2:9882, V-A:SER:385:CB:3409, V-A:SER:385:C:3405"]

$$$$
4dg_Grossjean_2025
     RDKit          3D

 46 49  0  0  0  0  0  0  0  0999 V2000
  128.1140  129.3820   65.9330 C   0  0  0  0  0  0  0  0  0  0  0  0
  128.6310  128.2180   66.7640 C   0  0  0  0  0  0  0  0  0  0  0  0
  128.6850  128.3720   68.1540 C   0  0  0  0  0  0  0  0  0  0  0  0
  129.1500  127.3380   68.9760 C   0  0  0  0  0  0  0  0  0  0  0  0
  129.2180  127.4740   70.4710 C   0  0  0  0  0  0  0  0  0  0  0  0
  128.1140  127.1480   71.2750 C   0  0  0  0  0  0  0  0  0  0  0  0
  128.1710  127.2760   72.6610 C   0  0  0  0  0  0  0  0  0  0  0  0
  129.3370  127.7330   73.2650 C   0  0  0  0  0  0  0  0  0  0  0  0
  130.4450  128.0680   72.4920 C   0  0  0  0  0  0  0  0  0  0  0  0
  130.3830  127.9390   71.1080 C   0  0  0  0  0  0  0  0  0  0  0  0
  129.5500  126.1420   68.4670 N   0  0  0  0  0  0  0  0  0  0  0  0
  129.5000  125.9930   67.1430 C   0  0  0  0  0  0  0  0  0  0  0  0
  129.9900  124.5100   66.3590 S   0  0  0  0  0  0  0  0  0  0  0  0
  129.6100  125.1730   64.7700 C   0  0  0  0  0  0  0  0  0  0  0  0
  129.8540  124.3810   63.5660 C   0  0  0  0  0  0  0  0  0  0  0  0
  130.9990  124.1330   63.1820 O   0  0  0  0  0  0  0  0  0  0  0  0
  128.7560  123.9800   62.8920 N   0  0  0  0  0  0  0  0  0  0  0  0
  128.7590  123.1630   61.6790 C   0  0  0  0  0  0  0  0  0  0  0  0
  127.5770  123.4440   60.7570 C   0  0  0  0  0  0  0  0  0  0  0  0
  127.7520  123.4020   59.3710 C   0  0  0  0  0  0  0  0  0  0  0  0
  126.6690  123.6270   58.5260 C   0  0  0  0  0  0  0  0  0  0  0  0
  125.4120  123.8810   59.0700 C   0  0  0  0  0  0  0  0  0  0  0  0
  125.2260  123.9070   60.4500 C   0  0  0  0  0  0  0  0  0  0  0  0
  126.3090  123.6820   61.2950 C   0  0  0  0  0  0  0  0  0  0  0  0
  129.1420  126.4920   64.8670 C   0  0  0  0  0  0  0  0  0  0  0  0
  128.7850  127.2570   63.7860 N   0  0  0  0  0  0  0  0  0  0  0  0
  129.0580  126.9800   66.2170 C   0  0  0  0  0  0  0  0  0  0  0  0
  127.7593  130.1806   66.6012 H   0  0  0  0  0  0  0  0  0  0  0  0
  128.9252  129.7683   65.2984 H   0  0  0  0  0  0  0  0  0  0  0  0
  127.2835  129.0391   65.2984 H   0  0  0  0  0  0  0  0  0  0  0  0
  128.3574  129.3191   68.6075 H   0  0  0  0  0  0  0  0  0  0  0  0
  127.1890  126.7856   70.8027 H   0  0  0  0  0  0  0  0  0  0  0  0
  127.2964  127.0164   73.2756 H   0  0  0  0  0  0  0  0  0  0  0  0
  129.3841  127.8303   74.3597 H   0  0  0  0  0  0  0  0  0  0  0  0
  131.3647  128.4328   72.9727 H   0  0  0  0  0  0  0  0  0  0  0  0
  131.2608  128.2054   70.5009 H   0  0  0  0  0  0  0  0  0  0  0  0
  127.8530  124.1530   63.3080 H   0  0  0  0  0  0  0  0  0  0  0  0
  129.6883  123.3636   61.1257 H   0  0  0  0  0  0  0  0  0  0  0  0
  128.6820  122.1121   61.9949 H   0  0  0  0  0  0  0  0  0  0  0  0
  128.7453  123.1912   58.9480 H   0  0  0  0  0  0  0  0  0  0  0  0
  126.8050  123.6044   57.4347 H   0  0  0  0  0  0  0  0  0  0  0  0
  124.5570  124.0630   58.4023 H   0  0  0  0  0  0  0  0  0  0  0  0
  124.2286  124.1043   60.8699 H   0  0  0  0  0  0  0  0  0  0  0  0
  126.1671  123.6915   62.3858 H   0  0  0  0  0  0  0  0  0  0  0  0
  127.8830  127.1660   63.3420 H   0  0  0  0  0  0  0  0  0  0  0  0
  129.4160  127.9460   63.4000 H   0  0  0  0  0  0  0  0  0  0  0  0
  1  2  1  0
  2  3  2  0
  3  4  1  0
  4  5  1  0
  5  6  2  0
  6  7  1  0
  7  8  2  0
  8  9  1  0
  9 10  2  0
  4 11  2  0
 11 12  1  0
 12 13  1  0
 13 14  1  0
 14 15  1  0
 15 16  2  0
 15 17  1  0
 17 18  1  0
 18 19  1  0
 19 20  2  0
 20 21  1  0
 21 22  2  0
 22 23  1  0
 23 24  2  0
 14 25  2  0
 25 26  1  0
 25 27  1  0
 27  2  1  0
 10  5  1  0
 27 12  2  0
 24 19  1  0
  1 28  1  0
  1 29  1  0
  1 30  1  0
  3 31  1  0
  6 32  1  0
  7 33  1  0
  8 34  1  0
  9 35  1  0
 10 36  1  0
 17 37  1  0
 18 38  1  0
 18 39  1  0
 20 40  1  0
 21 41  1  0
 22 42  1  0
 23 43  1  0
 24 44  1  0
 26 45  1  0
 26 46  1  0
M  END
>  <Binding energies>  (1) 
[-7.79]

>  <Ligand effiencies>  (1) 
[-0.25966666666666666]

>  <Interactions>  (1) 
["V-B:PRO:540:CB:9857, V-B:PRO:540:CA:9855, H-B:GLU:543:OE1:9881, V-B:GLU:543:CG:9879, V-A:TYR:484:CZ:4347, V-B:GLU:543:CB:9878, V-A:GLU:543:CD:4908, V-A:TYR:484:CE2:4346, V-B:GLU:543:CD:9880, V-B:HIS:456:CE1:9041, V-A:GLY:544:C:4912, V-B:HIS:456:CD2:9039, V-A:HIS:456:CE1:4070, V-A:GLU:543:CG:4907, V-A:GLU:543:C:4902, V-A:GLU:543:CB:4906, H-A:GLU:543:OE1:4909, H-A:GLU:543:OE2:4910, H-B:GLU:543:OE2:9882, V-B:GLU:543:CA:9876"]

$$$$
4dj_Grossjean_2025
     RDKit          3D

 39 42  0  0  0  0  0  0  0  0999 V2000
  127.8430  129.1520   65.9440 C   0  0  0  0  0  0  0  0  0  0  0  0
  128.4680  128.0960   66.8440 C   0  0  0  0  0  0  0  0  0  0  0  0
  128.3370  128.2490   68.2290 C   0  0  0  0  0  0  0  0  0  0  0  0
  128.8900  127.3140   69.1120 C   0  0  0  0  0  0  0  0  0  0  0  0
  128.7600  127.4480   70.6030 C   0  0  0  0  0  0  0  0  0  0  0  0
  127.5620  127.1140   71.2550 C   0  0  0  0  0  0  0  0  0  0  0  0
  127.4350  127.2370   72.6360 C   0  0  0  0  0  0  0  0  0  0  0  0
  128.5090  127.7020   73.3880 C   0  0  0  0  0  0  0  0  0  0  0  0
  129.7060  128.0450   72.7690 C   0  0  0  0  0  0  0  0  0  0  0  0
  129.8280  127.9190   71.3880 C   0  0  0  0  0  0  0  0  0  0  0  0
  129.5590  126.2150   68.6680 N   0  0  0  0  0  0  0  0  0  0  0  0
  129.6860  126.0690   67.3500 C   0  0  0  0  0  0  0  0  0  0  0  0
  130.5290  124.7080   66.6430 S   0  0  0  0  0  0  0  0  0  0  0  0
  130.2140  125.3010   65.0110 C   0  0  0  0  0  0  0  0  0  0  0  0
  130.7050  124.5610   63.8480 C   0  0  0  0  0  0  0  0  0  0  0  0
  130.1610  124.6840   62.7470 O   0  0  0  0  0  0  0  0  0  0  0  0
  131.7660  123.7490   64.0780 N   0  0  0  0  0  0  0  0  0  0  0  0
  132.4160  122.9430   63.1540 C   0  0  0  0  0  0  0  0  0  0  0  0
  133.7030  122.6790   63.0770 N   0  0  0  0  0  0  0  0  0  0  0  0
  133.9720  121.8700   62.0710 C   0  0  0  0  0  0  0  0  0  0  0  0
  132.8860  121.4570   61.3050 C   0  0  0  0  0  0  0  0  0  0  0  0
  131.4380  122.1740   61.9460 S   0  0  0  0  0  0  0  0  0  0  0  0
  129.4900  126.5020   65.0400 C   0  0  0  0  0  0  0  0  0  0  0  0
  129.1080  127.1910   63.9160 N   0  0  0  0  0  0  0  0  0  0  0  0
  129.1730  126.9620   66.3660 C   0  0  0  0  0  0  0  0  0  0  0  0
  127.3800  129.9343   66.5634 H   0  0  0  0  0  0  0  0  0  0  0  0
  128.6215  129.6000   65.3090 H   0  0  0  0  0  0  0  0  0  0  0  0
  127.0757  128.6851   65.3090 H   0  0  0  0  0  0  0  0  0  0  0  0
  127.7917  129.1164   68.6294 H   0  0  0  0  0  0  0  0  0  0  0  0
  126.7089  126.7488   70.6643 H   0  0  0  0  0  0  0  0  0  0  0  0
  126.4898  126.9678   73.1301 H   0  0  0  0  0  0  0  0  0  0  0  0
  128.4107  127.7990   74.4793 H   0  0  0  0  0  0  0  0  0  0  0  0
  130.5520  128.4140   73.3674 H   0  0  0  0  0  0  0  0  0  0  0  0
  130.7762  128.1926   70.9021 H   0  0  0  0  0  0  0  0  0  0  0  0
  132.1280  123.7160   65.0200 H   0  0  0  0  0  0  0  0  0  0  0  0
  134.9977  121.5400   61.8496 H   0  0  0  0  0  0  0  0  0  0  0  0
  132.9358  120.7857   60.4350 H   0  0  0  0  0  0  0  0  0  0  0  0
  128.3090  126.9140   63.3660 H   0  0  0  0  0  0  0  0  0  0  0  0
  129.6190  128.0040   63.6010 H   0  0  0  0  0  0  0  0  0  0  0  0
  1  2  1  0
  2  3  2  0
  3  4  1  0
  4  5  1  0
  5  6  2  0
  6  7  1  0
  7  8  2  0
  8  9  1  0
  9 10  2  0
  4 11  2  0
 11 12  1  0
 12 13  1  0
 13 14  1  0
 14 15  1  0
 15 16  2  0
 15 17  1  0
 17 18  1  0
 18 19  2  0
 19 20  1  0
 20 21  2  0
 21 22  1  0
 14 23  2  0
 23 24  1  0
 23 25  1  0
 25  2  1  0
 10  5  1  0
 25 12  2  0
 22 18  1  0
  1 26  1  0
  1 27  1  0
  1 28  1  0
  3 29  1  0
  6 30  1  0
  7 31  1  0
  8 32  1  0
  9 33  1  0
 10 34  1  0
 17 35  1  0
 20 36  1  0
 21 37  1  0
 24 38  1  0
 24 39  1  0
M  END
>  <Binding energies>  (1) 
[-7.16]

>  <Ligand effiencies>  (1) 
[-0.2557142857142857]

>  <Interactions>  (1) 
["H-B:GLU:543:OE1:9881, V-A:ILE:369:CD1:3239, V-B:GLU:543:CG:9879, V-A:ILE:369:CG2:3237, V-A:LEU:475:CD2:4259, V-A:TYR:484:CZ:4347, V-B:GLU:543:CB:9878, H-A:TYR:484:OH:4348, V-A:GLU:543:CD:4908, V-A:TYR:484:CE2:4346, V-A:GLY:454:CA:4049, V-B:GLU:543:CD:9880, V-B:HIS:456:CE1:9041, V-B:GLY:544:C:9884, V-B:HIS:456:CD2:9039, V-B:LYS:547:CE:9922, V-A:HIS:456:CE1:4070, V-A:GLU:543:CG:4907, V-A:GLU:543:CB:4906, V-B:HIS:456:CG:9037, H-A:GLU:543:OE1:4909, H-A:GLU:543:OE2:4910, H-B:GLU:543:OE2:9882, H-A:GLY:454:N:4050"]

$$$$
4ea_Grossjean_2025
     RDKit          3D

 52 55  0  0  0  0  0  0  0  0999 V2000
  131.4160  131.9340   55.6710 C   0  0  0  0  0  0  0  0  0  0  0  0
  131.7510  132.6400   56.9880 C   0  0  0  0  0  0  0  0  0  0  0  0
  130.7550  133.6150   57.2680 O   0  0  0  0  0  0  0  0  0  0  0  0
  129.4790  133.2520   57.5570 C   0  0  0  0  0  0  0  0  0  0  0  0
  128.5200  133.4910   56.8160 O   0  0  0  0  0  0  0  0  0  0  0  0
  129.3490  132.5300   58.8670 C   0  0  0  0  0  0  0  0  0  0  0  0
  129.5560  131.1460   58.9080 C   0  0  0  0  0  0  0  0  0  0  0  0
  129.4430  130.4480   60.1070 C   0  0  0  0  0  0  0  0  0  0  0  0
  129.1220  131.1170   61.2880 C   0  0  0  0  0  0  0  0  0  0  0  0
  129.0350  130.3090   62.4390 N   0  0  0  0  0  0  0  0  0  0  0  0
  128.0080  129.5620   62.9120 C   0  0  0  0  0  0  0  0  0  0  0  0
  126.9090  129.4680   62.3640 O   0  0  0  0  0  0  0  0  0  0  0  0
  128.2820  128.8410   64.1580 C   0  0  0  0  0  0  0  0  0  0  0  0
  127.6550  129.4430   65.6950 S   0  0  0  0  0  0  0  0  0  0  0  0
  128.3820  128.1140   66.5670 C   0  0  0  0  0  0  0  0  0  0  0  0
  128.2590  127.9880   67.8900 N   0  0  0  0  0  0  0  0  0  0  0  0
  128.8700  126.9130   68.4450 C   0  0  0  0  0  0  0  0  0  0  0  0
  128.7180  126.7890   69.9500 C   0  0  0  0  0  0  0  0  0  0  0  0
  129.5930  125.9710   67.7170 C   0  0  0  0  0  0  0  0  0  0  0  0
  129.7200  126.1070   66.3310 C   0  0  0  0  0  0  0  0  0  0  0  0
  130.4920  125.0980   65.5710 C   0  0  0  0  0  0  0  0  0  0  0  0
  131.8150  125.3580   65.2000 C   0  0  0  0  0  0  0  0  0  0  0  0
  132.5420  124.4080   64.4870 C   0  0  0  0  0  0  0  0  0  0  0  0
  131.9440  123.1980   64.1430 C   0  0  0  0  0  0  0  0  0  0  0  0
  130.6260  122.9310   64.5030 C   0  0  0  0  0  0  0  0  0  0  0  0
  129.9000  123.8810   65.2160 C   0  0  0  0  0  0  0  0  0  0  0  0
  129.0930  127.2220   65.7090 C   0  0  0  0  0  0  0  0  0  0  0  0
  129.0200  127.6610   64.3400 C   0  0  0  0  0  0  0  0  0  0  0  0
  129.6240  126.9730   63.3180 N   0  0  0  0  0  0  0  0  0  0  0  0
  128.9130  132.5050   61.2570 C   0  0  0  0  0  0  0  0  0  0  0  0
  129.0260  133.2010   60.0570 C   0  0  0  0  0  0  0  0  0  0  0  0
  130.9534  130.9592   55.8849 H   0  0  0  0  0  0  0  0  0  0  0  0
  130.7155  132.5529   55.0911 H   0  0  0  0  0  0  0  0  0  0  0  0
  132.3384  131.7828   55.0911 H   0  0  0  0  0  0  0  0  0  0  0  0
  131.7811  131.9017   57.8028 H   0  0  0  0  0  0  0  0  0  0  0  0
  132.7317  133.1308   56.9026 H   0  0  0  0  0  0  0  0  0  0  0  0
  129.8102  130.6053   57.9844 H   0  0  0  0  0  0  0  0  0  0  0  0
  129.6081  129.3606   60.1232 H   0  0  0  0  0  0  0  0  0  0  0  0
  129.8800  130.2930   62.9910 H   0  0  0  0  0  0  0  0  0  0  0  0
  129.4781  127.4091   70.4476 H   0  0  0  0  0  0  0  0  0  0  0  0
  127.7151  127.1299   70.2466 H   0  0  0  0  0  0  0  0  0  0  0  0
  128.8506  125.7381   70.2466 H   0  0  0  0  0  0  0  0  0  0  0  0
  130.0638  125.1206   68.2320 H   0  0  0  0  0  0  0  0  0  0  0  0
  132.2828  126.3157   65.4721 H   0  0  0  0  0  0  0  0  0  0  0  0
  133.5832  124.6122   64.1970 H   0  0  0  0  0  0  0  0  0  0  0  0
  132.5185  122.4464   63.5817 H   0  0  0  0  0  0  0  0  0  0  0  0
  130.1604  121.9738   64.2254 H   0  0  0  0  0  0  0  0  0  0  0  0
  128.8579  123.6743   65.5011 H   0  0  0  0  0  0  0  0  0  0  0  0
  129.1780  126.1840   62.8700 H   0  0  0  0  0  0  0  0  0  0  0  0
  130.5390  127.2340   62.9770 H   0  0  0  0  0  0  0  0  0  0  0  0
  128.6596  133.0431   62.1823 H   0  0  0  0  0  0  0  0  0  0  0  0
  128.8605  134.2884   60.0409 H   0  0  0  0  0  0  0  0  0  0  0  0
  1  2  1  0
  2  3  1  0
  3  4  1  0
  4  5  2  0
  4  6  1  0
  6  7  2  0
  7  8  1  0
  8  9  2  0
  9 10  1  0
 10 11  1  0
 11 12  2  0
 11 13  1  0
 13 14  1  0
 14 15  1  0
 15 16  2  0
 16 17  1  0
 17 18  1  0
 17 19  2  0
 19 20  1  0
 20 21  1  0
 21 22  2  0
 22 23  1  0
 23 24  2  0
 24 25  1  0
 25 26  2  0
 20 27  2  0
 27 28  1  0
 28 29  1  0
  9 30  1  0
 30 31  2  0
 31  6  1  0
 28 13  2  0
 27 15  1  0
 26 21  1  0
  1 32  1  0
  1 33  1  0
  1 34  1  0
  2 35  1  0
  2 36  1  0
  7 37  1  0
  8 38  1  0
 10 39  1  0
 18 40  1  0
 18 41  1  0
 18 42  1  0
 19 43  1  0
 22 44  1  0
 23 45  1  0
 24 46  1  0
 25 47  1  0
 26 48  1  0
 29 49  1  0
 29 50  1  0
 30 51  1  0
 31 52  1  0
M  END
>  <Binding energies>  (1) 
[-8.52]

>  <Ligand effiencies>  (1) 
[-0.2505882352941176]

>  <Interactions>  (1) 
["V-A:LEU:363:CD1:3189, V-A:PRO:540:CA:4883, V-A:PRO:540:CB:4885, V-A:PRO:540:CD:4887, V-A:PRO:540:N:4884, V-A:TYR:539:C:4867, H-A:TYR:539:N:4870, H-B:GLU:543:OE1:9881, V-A:MET:535:CE:4835, V-B:GLU:543:CG:9879, V-A:LEU:475:CD2:4259, V-A:TYR:484:CZ:4347, V-B:GLU:543:CB:9878, V-A:GLU:543:CD:4908, V-A:TYR:484:CE2:4346, V-A:ARG:545:CZ:4926, V-B:GLU:543:CD:9880, V-B:GLU:543:C:9874, V-A:HIS:456:CE1:4070, V-A:GLU:543:CG:4907, V-A:GLU:543:CB:4906, H-A:GLU:543:OE1:4909, H-A:GLU:543:OE2:4910, V-A:TYR:539:CD1:4873, V-A:TYR:539:CG:4872, V-A:TYR:539:CA:4869, V-A:ILE:538:CG2:4863, V-A:ILE:538:CB:4862"]

$$$$
4eb_Grossjean_2025
     RDKit          3D

 49 52  0  0  0  0  0  0  0  0999 V2000
  131.7530  132.7750   56.4900 C   0  0  0  0  0  0  0  0  0  0  0  0
  130.9660  133.5520   57.3800 O   0  0  0  0  0  0  0  0  0  0  0  0
  129.6580  133.2550   57.5970 C   0  0  0  0  0  0  0  0  0  0  0  0
  128.7490  133.5870   56.8310 O   0  0  0  0  0  0  0  0  0  0  0  0
  129.4280  132.4810   58.8630 C   0  0  0  0  0  0  0  0  0  0  0  0
  130.4470  131.6530   59.3530 C   0  0  0  0  0  0  0  0  0  0  0  0
  130.2640  130.9240   60.5240 C   0  0  0  0  0  0  0  0  0  0  0  0
  129.0630  131.0050   61.2290 C   0  0  0  0  0  0  0  0  0  0  0  0
  128.9910  130.2230   62.3990 N   0  0  0  0  0  0  0  0  0  0  0  0
  127.9530  129.5320   62.9310 C   0  0  0  0  0  0  0  0  0  0  0  0
  126.8280  129.4790   62.4340 O   0  0  0  0  0  0  0  0  0  0  0  0
  128.2480  128.8230   64.1780 C   0  0  0  0  0  0  0  0  0  0  0  0
  127.6440  129.4370   65.7190 S   0  0  0  0  0  0  0  0  0  0  0  0
  128.3870  128.1160   66.5920 C   0  0  0  0  0  0  0  0  0  0  0  0
  128.2850  128.0020   67.9170 N   0  0  0  0  0  0  0  0  0  0  0  0
  128.9060  126.9330   68.4720 C   0  0  0  0  0  0  0  0  0  0  0  0
  128.7770  126.8220   69.9810 C   0  0  0  0  0  0  0  0  0  0  0  0
  129.6190  125.9850   67.7420 C   0  0  0  0  0  0  0  0  0  0  0  0
  129.7230  126.1090   66.3520 C   0  0  0  0  0  0  0  0  0  0  0  0
  130.4850  125.0940   65.5890 C   0  0  0  0  0  0  0  0  0  0  0  0
  129.8970  123.8640   65.2750 C   0  0  0  0  0  0  0  0  0  0  0  0
  130.6120  122.9090   64.5560 C   0  0  0  0  0  0  0  0  0  0  0  0
  131.9170  123.1840   64.1530 C   0  0  0  0  0  0  0  0  0  0  0  0
  132.5120  124.4050   64.4630 C   0  0  0  0  0  0  0  0  0  0  0  0
  131.7960  125.3590   65.1820 C   0  0  0  0  0  0  0  0  0  0  0  0
  129.0850  127.2180   65.7310 C   0  0  0  0  0  0  0  0  0  0  0  0
  128.9900  127.6450   64.3600 C   0  0  0  0  0  0  0  0  0  0  0  0
  129.5780  126.9490   63.3330 N   0  0  0  0  0  0  0  0  0  0  0  0
  128.0370  131.8310   60.7460 C   0  0  0  0  0  0  0  0  0  0  0  0
  128.2210  132.5600   59.5750 C   0  0  0  0  0  0  0  0  0  0  0  0
  132.4190  132.1175   57.0681 H   0  0  0  0  0  0  0  0  0  0  0  0
  131.0939  132.1636   55.8561 H   0  0  0  0  0  0  0  0  0  0  0  0
  132.3559  133.4418   55.8561 H   0  0  0  0  0  0  0  0  0  0  0  0
  131.3993  131.5788   58.8074 H   0  0  0  0  0  0  0  0  0  0  0  0
  131.0730  130.2786   60.8968 H   0  0  0  0  0  0  0  0  0  0  0  0
  129.8570  130.1780   62.9140 H   0  0  0  0  0  0  0  0  0  0  0  0
  129.5270  127.4674   70.4616 H   0  0  0  0  0  0  0  0  0  0  0  0
  127.7695  127.1399   70.2872 H   0  0  0  0  0  0  0  0  0  0  0  0
  128.9411  125.7783   70.2872 H   0  0  0  0  0  0  0  0  0  0  0  0
  130.0995  125.1402   68.2572 H   0  0  0  0  0  0  0  0  0  0  0  0
  128.8670  123.6504   65.5968 H   0  0  0  0  0  0  0  0  0  0  0  0
  130.1487  121.9427   64.3077 H   0  0  0  0  0  0  0  0  0  0  0  0
  132.4825  122.4305   63.5851 H   0  0  0  0  0  0  0  0  0  0  0  0
  133.5428  124.6147   64.1413 H   0  0  0  0  0  0  0  0  0  0  0  0
  132.2632  126.3234   65.4303 H   0  0  0  0  0  0  0  0  0  0  0  0
  129.1270  126.1540   62.9040 H   0  0  0  0  0  0  0  0  0  0  0  0
  130.4860  127.2110   62.9710 H   0  0  0  0  0  0  0  0  0  0  0  0
  127.0857  131.9025   61.2937 H   0  0  0  0  0  0  0  0  0  0  0  0
  127.4115  133.2053   59.2032 H   0  0  0  0  0  0  0  0  0  0  0  0
  1  2  1  0
  2  3  1  0
  3  4  2  0
  3  5  1  0
  5  6  2  0
  6  7  1  0
  7  8  2  0
  8  9  1  0
  9 10  1  0
 10 11  2  0
 10 12  1  0
 12 13  1  0
 13 14  1  0
 14 15  2  0
 15 16  1  0
 16 17  1  0
 16 18  2  0
 18 19  1  0
 19 20  1  0
 20 21  2  0
 21 22  1  0
 22 23  2  0
 23 24  1  0
 24 25  2  0
 19 26  2  0
 26 27  1  0
 27 28  1  0
  8 29  1  0
 29 30  2  0
 30  5  1  0
 27 12  2  0
 26 14  1  0
 25 20  1  0
  1 31  1  0
  1 32  1  0
  1 33  1  0
  6 34  1  0
  7 35  1  0
  9 36  1  0
 17 37  1  0
 17 38  1  0
 17 39  1  0
 18 40  1  0
 21 41  1  0
 22 42  1  0
 23 43  1  0
 24 44  1  0
 25 45  1  0
 28 46  1  0
 28 47  1  0
 29 48  1  0
 30 49  1  0
M  END
>  <Binding energies>  (1) 
[-8.28]

>  <Ligand effiencies>  (1) 
[-0.2509090909090909]

>  <Interactions>  (1) 
["V-A:LEU:363:CD1:3189, V-A:PRO:540:CA:4883, V-A:PRO:540:CD:4887, V-A:PRO:540:N:4884, V-A:TYR:539:C:4867, H-A:TYR:539:N:4870, H-B:GLU:543:OE1:9881, V-B:GLU:543:CG:9879, V-A:LEU:475:CD2:4259, V-A:TYR:484:CZ:4347, V-B:GLU:543:CB:9878, V-A:GLU:543:CD:4908, V-A:TYR:484:CE2:4346, V-A:ARG:545:CZ:4926, V-B:GLU:543:CD:9880, V-B:GLU:543:C:9874, V-A:HIS:456:CE1:4070, V-A:GLU:543:CG:4907, V-A:GLU:543:CB:4906, H-A:GLU:543:OE1:4909, H-A:GLU:543:OE2:4910, V-A:TYR:539:CE1:4875, V-A:TYR:539:CD1:4873, V-A:TYR:539:CA:4869, V-A:ILE:538:CG2:4863, V-A:ILE:538:CB:4862"]

$$$$
8a_Ghoteimi_2023
     RDKit          3D

 67 71  0  0  0  0  0  0  0  0999 V2000
  131.2330  131.7560   55.5360 C   0  0  0  0  0  0  0  0  0  0  0  0
  131.7570  132.8780   56.4360 C   0  0  0  0  0  0  0  0  0  0  0  0
  130.6590  133.6110   56.9650 O   0  0  0  0  0  0  0  0  0  0  0  0
  129.4280  133.0460   57.0760 C   0  0  0  0  0  0  0  0  0  0  0  0
  128.5590  133.1340   56.2030 O   0  0  0  0  0  0  0  0  0  0  0  0
  129.2270  132.3090   58.3690 C   0  0  0  0  0  0  0  0  0  0  0  0
  130.3210  131.6720   58.9700 C   0  0  0  0  0  0  0  0  0  0  0  0
  130.1670  130.9800   60.1670 C   0  0  0  0  0  0  0  0  0  0  0  0
  128.9190  130.9080   60.7900 C   0  0  0  0  0  0  0  0  0  0  0  0
  128.8820  130.1770   61.9940 N   0  0  0  0  0  0  0  0  0  0  0  0
  127.8970  129.4110   62.5240 C   0  0  0  0  0  0  0  0  0  0  0  0
  126.8020  129.2260   61.9960 O   0  0  0  0  0  0  0  0  0  0  0  0
  128.2190  128.7840   63.8100 C   0  0  0  0  0  0  0  0  0  0  0  0
  127.5680  129.4410   65.3100 S   0  0  0  0  0  0  0  0  0  0  0  0
  128.3850  128.2190   66.2560 C   0  0  0  0  0  0  0  0  0  0  0  0
  128.2980  128.1880   67.5860 N   0  0  0  0  0  0  0  0  0  0  0  0
  128.9770  127.1980   68.2250 C   0  0  0  0  0  0  0  0  0  0  0  0
  128.8820  127.1950   69.7170 C   0  0  0  0  0  0  0  0  0  0  0  0
  127.6800  126.8780   70.3650 C   0  0  0  0  0  0  0  0  0  0  0  0
  127.5950  126.8880   71.7550 C   0  0  0  0  0  0  0  0  0  0  0  0
  128.7070  127.2120   72.5300 C   0  0  0  0  0  0  0  0  0  0  0  0
  128.5290  127.1980   73.9010 O   0  0  0  0  0  0  0  0  0  0  0  0
  128.0420  128.3680   74.5480 C   0  0  0  0  0  0  0  0  0  0  0  0
  129.9160  127.5240   71.8920 C   0  0  0  0  0  0  0  0  0  0  0  0
  129.9970  127.5160   70.5020 C   0  0  0  0  0  0  0  0  0  0  0  0
  129.7290  126.2440   67.5370 C   0  0  0  0  0  0  0  0  0  0  0  0
  129.8090  126.2630   66.1400 C   0  0  0  0  0  0  0  0  0  0  0  0
  130.5970  125.2050   65.4560 C   0  0  0  0  0  0  0  0  0  0  0  0
  131.9420  125.4190   65.1490 C   0  0  0  0  0  0  0  0  0  0  0  0
  132.6890  124.4230   64.5270 C   0  0  0  0  0  0  0  0  0  0  0  0
  132.1080  123.1960   64.2060 C   0  0  0  0  0  0  0  0  0  0  0  0
  132.9250  122.2680   63.5900 O   0  0  0  0  0  0  0  0  0  0  0  0
  133.7010  122.6640   62.4660 C   0  0  0  0  0  0  0  0  0  0  0  0
  130.7580  122.9760   64.5210 C   0  0  0  0  0  0  0  0  0  0  0  0
  130.0130  123.9740   65.1450 C   0  0  0  0  0  0  0  0  0  0  0  0
  129.1250  127.3030   65.4510 C   0  0  0  0  0  0  0  0  0  0  0  0
  129.0270  127.6620   64.0570 C   0  0  0  0  0  0  0  0  0  0  0  0
  129.6840  126.9710   63.0700 N   0  0  0  0  0  0  0  0  0  0  0  0
  127.8190  131.5470   60.1970 C   0  0  0  0  0  0  0  0  0  0  0  0
  127.9750  132.2390   58.9990 C   0  0  0  0  0  0  0  0  0  0  0  0
  130.8495  130.9348   56.1594 H   0  0  0  0  0  0  0  0  0  0  0  0
  130.4227  132.1435   54.9010 H   0  0  0  0  0  0  0  0  0  0  0  0
  132.0503  131.3834   54.9010 H   0  0  0  0  0  0  0  0  0  0  0  0
  132.3404  132.4441   57.2615 H   0  0  0  0  0  0  0  0  0  0  0  0
  132.3990  133.5508   55.8484 H   0  0  0  0  0  0  0  0  0  0  0  0
  131.3101  131.7196   58.4911 H   0  0  0  0  0  0  0  0  0  0  0  0
  131.0354  130.4854   60.6267 H   0  0  0  0  0  0  0  0  0  0  0  0
  129.7330  130.2320   62.5330 H   0  0  0  0  0  0  0  0  0  0  0  0
  126.7932  126.6182   69.7683 H   0  0  0  0  0  0  0  0  0  0  0  0
  126.6425  126.6381   72.2451 H   0  0  0  0  0  0  0  0  0  0  0  0
  128.0977  128.2341   75.6384 H   0  0  0  0  0  0  0  0  0  0  0  0
  128.6551  129.2323   74.2529 H   0  0  0  0  0  0  0  0  0  0  0  0
  126.9967  128.5420   74.2529 H   0  0  0  0  0  0  0  0  0  0  0  0
  130.8032  127.7759   72.4915 H   0  0  0  0  0  0  0  0  0  0  0  0
  130.9503  127.7654   70.0132 H   0  0  0  0  0  0  0  0  0  0  0  0
  130.2659  125.4668   68.1007 H   0  0  0  0  0  0  0  0  0  0  0  0
  132.4140  126.3803   65.4002 H   0  0  0  0  0  0  0  0  0  0  0  0
  133.7468  124.6049   64.2864 H   0  0  0  0  0  0  0  0  0  0  0  0
  134.6312  123.1387   62.8115 H   0  0  0  0  0  0  0  0  0  0  0  0
  133.9443  121.7798   61.8585 H   0  0  0  0  0  0  0  0  0  0  0  0
  133.1278  123.3798   61.8585 H   0  0  0  0  0  0  0  0  0  0  0  0
  130.2871  122.0130   64.2745 H   0  0  0  0  0  0  0  0  0  0  0  0
  128.9573  123.7919   65.3948 H   0  0  0  0  0  0  0  0  0  0  0  0
  129.2440  126.2010   62.5840 H   0  0  0  0  0  0  0  0  0  0  0  0
  130.6250  127.2080   62.7920 H   0  0  0  0  0  0  0  0  0  0  0  0
  126.8317  131.5010   60.6797 H   0  0  0  0  0  0  0  0  0  0  0  0
  127.1072  132.7364   58.5412 H   0  0  0  0  0  0  0  0  0  0  0  0
  1  2  1  0
  2  3  1  0
  3  4  1  0
  4  5  2  0
  4  6  1  0
  6  7  2  0
  7  8  1  0
  8  9  2  0
  9 10  1  0
 10 11  1  0
 11 12  2  0
 11 13  1  0
 13 14  1  0
 14 15  1  0
 15 16  2  0
 16 17  1  0
 17 18  1  0
 18 19  2  0
 19 20  1  0
 20 21  2  0
 21 22  1  0
 22 23  1  0
 21 24  1  0
 24 25  2  0
 17 26  2  0
 26 27  1  0
 27 28  1  0
 28 29  2  0
 29 30  1  0
 30 31  2  0
 31 32  1  0
 32 33  1  0
 31 34  1  0
 34 35  2  0
 27 36  2  0
 36 37  1  0
 37 38  1  0
  9 39  1  0
 39 40  2  0
 40  6  1  0
 37 13  2  0
 36 15  1  0
 25 18  1  0
 35 28  1  0
  1 41  1  0
  1 42  1  0
  1 43  1  0
  2 44  1  0
  2 45  1  0
  7 46  1  0
  8 47  1  0
 10 48  1  0
 19 49  1  0
 20 50  1  0
 23 51  1  0
 23 52  1  0
 23 53  1  0
 24 54  1  0
 25 55  1  0
 26 56  1  0
 29 57  1  0
 30 58  1  0
 33 59  1  0
 33 60  1  0
 33 61  1  0
 34 62  1  0
 35 63  1  0
 38 64  1  0
 38 65  1  0
 39 66  1  0
 40 67  1  0
M  END
>  <Binding energies>  (1) 
[-9.66]

>  <Ligand effiencies>  (1) 
[-0.2246511627906977]

>  <Interactions>  (1) 
["V-A:LEU:363:CD1:3189, V-A:PRO:540:CA:4883, V-A:PRO:540:CD:4887, V-A:PRO:540:N:4884, V-A:TYR:539:C:4867, H-A:TYR:539:N:4870, H-B:GLU:543:OE1:9881, V-A:MET:535:CE:4835, V-B:GLU:543:CG:9879, V-A:LEU:475:CD2:4259, V-A:TYR:484:CZ:4347, V-B:GLU:543:CB:9878, H-A:TYR:484:OH:4348, V-A:GLU:543:CD:4908, V-A:TYR:484:CE2:4346, V-A:GLY:454:CA:4049, V-A:ARG:545:CZ:4926, V-B:GLU:543:CD:9880, V-B:HIS:456:CE1:9041, V-B:GLY:544:C:9884, V-B:GLU:543:C:9874, V-B:HIS:456:CD2:9039, V-A:HIS:456:CE1:4070, V-A:GLU:543:CG:4907, V-A:GLU:543:CB:4906, V-B:GLY:544:CA:9886, H-B:LYS:547:NZ:9923, H-A:GLU:543:OE1:4909, H-A:GLU:543:OE2:4910, V-A:TYR:539:CE1:4875, H-A:GLY:454:N:4050, V-A:TYR:539:CD1:4873, V-A:ILE:538:CA:4860, V-A:ILE:538:CG2:4863, V-A:ILE:538:CB:4862, V-A:MET:535:CG:4833"]

$$$$
8b_Ghoteimi_2023
     RDKit          3D

 54 58  0  0  0  0  0  0  0  0999 V2000
  130.9670  126.8970   73.9930 C   0  0  0  0  0  0  0  0  0  0  0  0
  130.2940  127.9730   73.3470 O   0  0  0  0  0  0  0  0  0  0  0  0
  129.9660  127.8560   72.0100 C   0  0  0  0  0  0  0  0  0  0  0  0
  130.9910  128.0850   71.0940 C   0  0  0  0  0  0  0  0  0  0  0  0
  130.7530  127.9900   69.7270 C   0  0  0  0  0  0  0  0  0  0  0  0
  129.4790  127.6630   69.2380 C   0  0  0  0  0  0  0  0  0  0  0  0
  129.2170  127.5620   67.7690 C   0  0  0  0  0  0  0  0  0  0  0  0
  128.5730  128.5830   67.0630 C   0  0  0  0  0  0  0  0  0  0  0  0
  128.3410  128.4640   65.6900 C   0  0  0  0  0  0  0  0  0  0  0  0
  127.6480  129.5600   64.9740 C   0  0  0  0  0  0  0  0  0  0  0  0
  128.3690  130.6580   64.5010 C   0  0  0  0  0  0  0  0  0  0  0  0
  127.7180  131.6830   63.8200 C   0  0  0  0  0  0  0  0  0  0  0  0
  126.3400  131.6270   63.6040 C   0  0  0  0  0  0  0  0  0  0  0  0
  125.7790  132.6880   62.9170 O   0  0  0  0  0  0  0  0  0  0  0  0
  124.3690  132.8730   62.9580 C   0  0  0  0  0  0  0  0  0  0  0  0
  125.6170  130.5250   64.0840 C   0  0  0  0  0  0  0  0  0  0  0  0
  126.2690  129.5000   64.7640 C   0  0  0  0  0  0  0  0  0  0  0  0
  128.7830  127.2830   65.0360 C   0  0  0  0  0  0  0  0  0  0  0  0
  128.7170  126.8400   63.6680 C   0  0  0  0  0  0  0  0  0  0  0  0
  128.1430  127.5980   62.6790 N   0  0  0  0  0  0  0  0  0  0  0  0
  129.2900  125.5780   63.4500 C   0  0  0  0  0  0  0  0  0  0  0  0
  129.4020  124.8320   62.1950 C   0  0  0  0  0  0  0  0  0  0  0  0
  130.4970  124.6770   61.6500 O   0  0  0  0  0  0  0  0  0  0  0  0
  128.2350  124.3450   61.7020 N   0  0  0  0  0  0  0  0  0  0  0  0
  128.0500  123.6050   60.5420 C   0  0  0  0  0  0  0  0  0  0  0  0
  127.3610  124.0900   59.4310 C   0  0  0  0  0  0  0  0  0  0  0  0
  127.3970  123.0660   58.5130 C   0  0  0  0  0  0  0  0  0  0  0  0
  128.0770  122.0200   59.0410 O   0  0  0  0  0  0  0  0  0  0  0  0
  128.4870  122.3740   60.3280 N   0  0  0  0  0  0  0  0  0  0  0  0
  129.9330  124.9030   64.9490 S   0  0  0  0  0  0  0  0  0  0  0  0
  129.4310  126.3120   65.8540 C   0  0  0  0  0  0  0  0  0  0  0  0
  129.6510  126.4240   67.1630 N   0  0  0  0  0  0  0  0  0  0  0  0
  128.4540  127.4310   70.1640 C   0  0  0  0  0  0  0  0  0  0  0  0
  128.6890  127.5260   71.5330 C   0  0  0  0  0  0  0  0  0  0  0  0
  130.8908  127.0188   75.0836 H   0  0  0  0  0  0  0  0  0  0  0  0
  130.5036  125.9443   73.6972 H   0  0  0  0  0  0  0  0  0  0  0  0
  132.0265  126.8968   73.6972 H   0  0  0  0  0  0  0  0  0  0  0  0
  131.9973  128.3432   71.4554 H   0  0  0  0  0  0  0  0  0  0  0  0
  131.5749  128.1737   69.0193 H   0  0  0  0  0  0  0  0  0  0  0  0
  128.2457  129.4891   67.5938 H   0  0  0  0  0  0  0  0  0  0  0  0
  129.4550  130.7134   64.6669 H   0  0  0  0  0  0  0  0  0  0  0  0
  128.2940  132.5437   63.4492 H   0  0  0  0  0  0  0  0  0  0  0  0
  124.0352  132.9168   64.0052 H   0  0  0  0  0  0  0  0  0  0  0  0
  124.1076  133.8131   62.4502 H   0  0  0  0  0  0  0  0  0  0  0  0
  123.8739  132.0321   62.4502 H   0  0  0  0  0  0  0  0  0  0  0  0
  124.5303  130.4705   63.9225 H   0  0  0  0  0  0  0  0  0  0  0  0
  125.6952  128.6390   65.1375 H   0  0  0  0  0  0  0  0  0  0  0  0
  127.1770  127.4700   62.4120 H   0  0  0  0  0  0  0  0  0  0  0  0
  128.6650  128.3060   62.1820 H   0  0  0  0  0  0  0  0  0  0  0  0
  127.3980  124.5350   62.2340 H   0  0  0  0  0  0  0  0  0  0  0  0
  126.8906  125.0774   59.3139 H   0  0  0  0  0  0  0  0  0  0  0  0
  126.9456  123.0923   57.5102 H   0  0  0  0  0  0  0  0  0  0  0  0
  127.4479  127.1697   69.8041 H   0  0  0  0  0  0  0  0  0  0  0  0
  127.8697  127.3415   72.2435 H   0  0  0  0  0  0  0  0  0  0  0  0
  1  2  1  0
  2  3  1  0
  3  4  2  0
  4  5  1  0
  5  6  2  0
  6  7  1  0
  7  8  2  0
  8  9  1  0
  9 10  1  0
 10 11  2  0
 11 12  1  0
 12 13  2  0
 13 14  1  0
 14 15  1  0
 13 16  1  0
 16 17  2  0
  9 18  2  0
 18 19  1  0
 19 20  1  0
 19 21  2  0
 21 22  1  0
 22 23  2  0
 22 24  1  0
 24 25  1  0
 25 26  1  0
 26 27  2  0
 27 28  1  0
 28 29  1  0
 21 30  1  0
 30 31  1  0
 31 32  2  0
  6 33  1  0
 33 34  2  0
 34  3  1  0
 32  7  1  0
 17 10  1  0
 31 18  1  0
 29 25  2  0
  1 35  1  0
  1 36  1  0
  1 37  1  0
  4 38  1  0
  5 39  1  0
  8 40  1  0
 11 41  1  0
 12 42  1  0
 15 43  1  0
 15 44  1  0
 15 45  1  0
 16 46  1  0
 17 47  1  0
 20 48  1  0
 20 49  1  0
 24 50  1  0
 26 51  1  0
 27 52  1  0
 33 53  1  0
 34 54  1  0
M  END
>  <Binding energies>  (1) 
[-7.47]

>  <Ligand effiencies>  (1) 
[-0.20189189189189188]

>  <Interactions>  (1) 
["V-B:PRO:540:N:9856, V-B:PRO:540:CB:9857, V-B:PRO:540:CA:9855, V-B:TYR:539:C:9839, H-B:GLU:543:OE1:9881, V-B:GLU:543:CG:9879, V-B:GLU:543:CB:9878, V-A:GLU:543:CD:4908, V-B:GLU:543:CD:9880, V-B:HIS:456:CE1:9041, V-A:GLY:544:CA:4914, V-A:GLY:544:C:4912, H-A:LYS:547:NZ:4951, V-B:HIS:456:CD2:9039, V-A:HIS:456:CE1:4070, V-A:GLU:543:CG:4907, V-A:GLU:543:C:4902, V-A:GLU:543:CB:4906, H-A:GLU:543:OE1:4909, H-B:GLU:543:OE2:9882, V-A:HIS:456:CD2:4068, V-B:LEU:475:CD2:9230, V-B:GLY:454:CA:9020"]

$$$$
8c_Ghoteimi_2023
     RDKit          3D

 54 58  0  0  0  0  0  0  0  0999 V2000
  126.8290  128.7400   74.8290 C   0  0  0  0  0  0  0  0  0  0  0  0
  127.9310  127.9690   74.3640 O   0  0  0  0  0  0  0  0  0  0  0  0
  128.1720  127.8890   73.0060 C   0  0  0  0  0  0  0  0  0  0  0  0
  127.2600  127.1510   72.2530 C   0  0  0  0  0  0  0  0  0  0  0  0
  127.4250  127.0140   70.8780 C   0  0  0  0  0  0  0  0  0  0  0  0
  128.5080  127.6130   70.2190 C   0  0  0  0  0  0  0  0  0  0  0  0
  128.6920  127.4660   68.7410 C   0  0  0  0  0  0  0  0  0  0  0  0
  128.0800  128.3330   67.8320 C   0  0  0  0  0  0  0  0  0  0  0  0
  128.2710  128.1760   66.4550 C   0  0  0  0  0  0  0  0  0  0  0  0
  127.6010  129.1060   65.5190 C   0  0  0  0  0  0  0  0  0  0  0  0
  126.2060  129.1400   65.4370 C   0  0  0  0  0  0  0  0  0  0  0  0
  125.5780  130.0210   64.5640 C   0  0  0  0  0  0  0  0  0  0  0  0
  126.3290  130.8780   63.7580 C   0  0  0  0  0  0  0  0  0  0  0  0
  125.6200  131.7210   62.9230 O   0  0  0  0  0  0  0  0  0  0  0  0
  124.3130  131.3460   62.5050 C   0  0  0  0  0  0  0  0  0  0  0  0
  127.7300  130.8400   63.8380 C   0  0  0  0  0  0  0  0  0  0  0  0
  128.3580  129.9580   64.7130 C   0  0  0  0  0  0  0  0  0  0  0  0
  129.1070  127.1160   66.0140 C   0  0  0  0  0  0  0  0  0  0  0  0
  129.5160  126.6750   64.7070 C   0  0  0  0  0  0  0  0  0  0  0  0
  129.1010  127.2990   63.5570 N   0  0  0  0  0  0  0  0  0  0  0  0
  130.3690  125.5600   64.7230 C   0  0  0  0  0  0  0  0  0  0  0  0
  130.9740  124.8580   63.5890 C   0  0  0  0  0  0  0  0  0  0  0  0
  130.6740  125.1560   62.4310 O   0  0  0  0  0  0  0  0  0  0  0  0
  131.8610  123.8850   63.9140 N   0  0  0  0  0  0  0  0  0  0  0  0
  132.5710  123.0770   63.0370 C   0  0  0  0  0  0  0  0  0  0  0  0
  133.8730  122.8950   62.9800 N   0  0  0  0  0  0  0  0  0  0  0  0
  134.2030  122.0530   62.0210 C   0  0  0  0  0  0  0  0  0  0  0  0
  133.1540  121.5310   61.2720 C   0  0  0  0  0  0  0  0  0  0  0  0
  131.6560  122.1860   61.8640 S   0  0  0  0  0  0  0  0  0  0  0  0
  130.6920  125.0290   66.3740 S   0  0  0  0  0  0  0  0  0  0  0  0
  129.6830  126.2980   67.0290 C   0  0  0  0  0  0  0  0  0  0  0  0
  129.5000  126.4460   68.3410 N   0  0  0  0  0  0  0  0  0  0  0  0
  129.4190  128.3550   70.9820 C   0  0  0  0  0  0  0  0  0  0  0  0
  129.2580  128.4930   72.3570 C   0  0  0  0  0  0  0  0  0  0  0  0
  126.8227  128.7444   75.9290 H   0  0  0  0  0  0  0  0  0  0  0  0
  126.9211  129.7717   74.4587 H   0  0  0  0  0  0  0  0  0  0  0  0
  125.8913  128.2999   74.4587 H   0  0  0  0  0  0  0  0  0  0  0  0
  126.4029  126.6730   72.7498 H   0  0  0  0  0  0  0  0  0  0  0  0
  126.6956  126.4276   70.3000 H   0  0  0  0  0  0  0  0  0  0  0  0
  127.4411  129.1479   68.2032 H   0  0  0  0  0  0  0  0  0  0  0  0
  125.6033  128.4676   66.0652 H   0  0  0  0  0  0  0  0  0  0  0  0
  124.4796  130.0429   64.5080 H   0  0  0  0  0  0  0  0  0  0  0  0
  123.6832  131.1653   63.3886 H   0  0  0  0  0  0  0  0  0  0  0  0
  123.8749  132.1547   61.9016 H   0  0  0  0  0  0  0  0  0  0  0  0
  124.3703  130.4280   61.9016 H   0  0  0  0  0  0  0  0  0  0  0  0
  128.3335  131.5093   63.2073 H   0  0  0  0  0  0  0  0  0  0  0  0
  129.4562  129.9323   64.7695 H   0  0  0  0  0  0  0  0  0  0  0  0
  129.6980  127.9510   63.0660 H   0  0  0  0  0  0  0  0  0  0  0  0
  128.1860  127.1330   63.1630 H   0  0  0  0  0  0  0  0  0  0  0  0
  132.0330  123.7250   64.8960 H   0  0  0  0  0  0  0  0  0  0  0  0
  135.2499  121.7785   61.8241 H   0  0  0  0  0  0  0  0  0  0  0  0
  133.2555  120.8190   60.4397 H   0  0  0  0  0  0  0  0  0  0  0  0
  130.2750  128.8360   70.4862 H   0  0  0  0  0  0  0  0  0  0  0  0
  129.9860  129.0786   72.9375 H   0  0  0  0  0  0  0  0  0  0  0  0
  1  2  1  0
  2  3  1  0
  3  4  2  0
  4  5  1  0
  5  6  2  0
  6  7  1  0
  7  8  2  0
  8  9  1  0
  9 10  1  0
 10 11  2  0
 11 12  1  0
 12 13  2  0
 13 14  1  0
 14 15  1  0
 13 16  1  0
 16 17  2  0
  9 18  2  0
 18 19  1  0
 19 20  1  0
 19 21  2  0
 21 22  1  0
 22 23  2  0
 22 24  1  0
 24 25  1  0
 25 26  2  0
 26 27  1  0
 27 28  2  0
 28 29  1  0
 21 30  1  0
 30 31  1  0
 31 32  2  0
  6 33  1  0
 33 34  2  0
 34  3  1  0
 32  7  1  0
 17 10  1  0
 31 18  1  0
 29 25  1  0
  1 35  1  0
  1 36  1  0
  1 37  1  0
  4 38  1  0
  5 39  1  0
  8 40  1  0
 11 41  1  0
 12 42  1  0
 15 43  1  0
 15 44  1  0
 15 45  1  0
 16 46  1  0
 17 47  1  0
 20 48  1  0
 20 49  1  0
 24 50  1  0
 27 51  1  0
 28 52  1  0
 33 53  1  0
 34 54  1  0
M  END
>  <Binding energies>  (1) 
[-7.59]

>  <Ligand effiencies>  (1) 
[-0.20513513513513512]

>  <Interactions>  (1) 
["H-B:GLU:543:OE1:9881, V-A:ILE:369:CD1:3239, V-B:GLU:543:CG:9879, V-A:ILE:369:CG2:3237, V-A:LEU:475:CD2:4259, V-A:TYR:484:CZ:4347, V-B:GLU:543:CB:9878, H-A:TYR:484:OH:4348, V-A:GLU:543:CD:4908, V-A:TYR:484:CE2:4346, V-A:GLY:454:CA:4049, V-B:GLU:543:CD:9880, V-B:HIS:456:CE1:9041, V-B:GLY:544:C:9884, V-B:GLU:543:C:9874, V-B:HIS:456:CD2:9039, V-B:LYS:547:CE:9922, V-A:HIS:456:CE1:4070, V-A:GLU:543:CG:4907, V-A:GLU:543:C:4902, V-A:GLU:543:CB:4906, V-B:HIS:456:CG:9037, V-B:GLY:544:CA:9886, H-B:LYS:547:NZ:9923, H-A:GLU:543:OE1:4909, H-A:GLU:543:OE2:4910, H-B:GLU:543:OE2:9882, H-B:TYR:484:OH:9319, V-B:HIS:456:CB:9036, H-A:GLY:454:N:4050, V-A:SER:385:C:3405"]

$$$$
8d_Ghoteimi_2023
     RDKit          3D

 50 53  0  0  0  0  0  0  0  0999 V2000
  133.9140  131.7230   61.0720 C   0  0  0  0  0  0  0  0  0  0  0  0
  132.6170  131.3930   60.5940 O   0  0  0  0  0  0  0  0  0  0  0  0
  131.5510  131.3660   61.4360 C   0  0  0  0  0  0  0  0  0  0  0  0
  131.3900  132.1560   62.3690 O   0  0  0  0  0  0  0  0  0  0  0  0
  130.5930  130.2850   61.1180 C   0  0  0  0  0  0  0  0  0  0  0  0
  130.9920  129.0920   59.8800 S   0  0  0  0  0  0  0  0  0  0  0  0
  129.4660  128.2730   60.1230 C   0  0  0  0  0  0  0  0  0  0  0  0
  129.1300  127.1890   59.4220 N   0  0  0  0  0  0  0  0  0  0  0  0
  127.9200  126.6290   59.6920 C   0  0  0  0  0  0  0  0  0  0  0  0
  127.5660  125.4180   58.8890 C   0  0  0  0  0  0  0  0  0  0  0  0
  128.0340  125.2550   57.5770 C   0  0  0  0  0  0  0  0  0  0  0  0
  127.7000  124.1260   56.8350 C   0  0  0  0  0  0  0  0  0  0  0  0
  126.8910  123.1320   57.3810 C   0  0  0  0  0  0  0  0  0  0  0  0
  126.6120  122.0480   56.5720 O   0  0  0  0  0  0  0  0  0  0  0  0
  125.3680  121.9980   55.8810 C   0  0  0  0  0  0  0  0  0  0  0  0
  126.4190  123.2830   58.6930 C   0  0  0  0  0  0  0  0  0  0  0  0
  126.7550  124.4130   59.4330 C   0  0  0  0  0  0  0  0  0  0  0  0
  127.0510  127.1560   60.6520 C   0  0  0  0  0  0  0  0  0  0  0  0
  127.4050  128.2900   61.3890 C   0  0  0  0  0  0  0  0  0  0  0  0
  126.4660  128.8190   62.4050 C   0  0  0  0  0  0  0  0  0  0  0  0
  126.7870  128.7470   63.7620 C   0  0  0  0  0  0  0  0  0  0  0  0
  125.9000  129.2360   64.7170 C   0  0  0  0  0  0  0  0  0  0  0  0
  124.6860  129.8070   64.3320 C   0  0  0  0  0  0  0  0  0  0  0  0
  123.8700  130.2640   65.3480 O   0  0  0  0  0  0  0  0  0  0  0  0
  124.0200  129.7250   66.6560 C   0  0  0  0  0  0  0  0  0  0  0  0
  124.3680  129.8820   62.9660 C   0  0  0  0  0  0  0  0  0  0  0  0
  125.2560  129.3920   62.0120 C   0  0  0  0  0  0  0  0  0  0  0  0
  128.6650  128.8900   61.1260 C   0  0  0  0  0  0  0  0  0  0  0  0
  129.3340  130.0370   61.6760 C   0  0  0  0  0  0  0  0  0  0  0  0
  128.7770  130.8170   62.6570 N   0  0  0  0  0  0  0  0  0  0  0  0
  133.9106  131.7221   62.1720 H   0  0  0  0  0  0  0  0  0  0  0  0
  134.6391  130.9807   60.7070 H   0  0  0  0  0  0  0  0  0  0  0  0
  134.1962  132.7216   60.7070 H   0  0  0  0  0  0  0  0  0  0  0  0
  128.6734  126.0296   57.1286 H   0  0  0  0  0  0  0  0  0  0  0  0
  128.0783  124.0175   55.8078 H   0  0  0  0  0  0  0  0  0  0  0  0
  124.5448  121.9649   56.6099 H   0  0  0  0  0  0  0  0  0  0  0  0
  125.2630  122.8927   55.2497 H   0  0  0  0  0  0  0  0  0  0  0  0
  125.3352  121.0978   55.2497 H   0  0  0  0  0  0  0  0  0  0  0  0
  125.7810  122.5057   59.1388 H   0  0  0  0  0  0  0  0  0  0  0  0
  126.3780  124.5188   60.4610 H   0  0  0  0  0  0  0  0  0  0  0  0
  126.0786  126.6734   60.8293 H   0  0  0  0  0  0  0  0  0  0  0  0
  127.7428  128.3029   64.0771 H   0  0  0  0  0  0  0  0  0  0  0  0
  126.1581  129.1718   65.7844 H   0  0  0  0  0  0  0  0  0  0  0  0
  123.8030  130.5047   67.4010 H   0  0  0  0  0  0  0  0  0  0  0  0
  123.3212  128.8860   66.7892 H   0  0  0  0  0  0  0  0  0  0  0  0
  125.0517  129.3676   66.7892 H   0  0  0  0  0  0  0  0  0  0  0  0
  123.4144  130.3293   62.6488 H   0  0  0  0  0  0  0  0  0  0  0  0
  125.0024  129.4569   60.9436 H   0  0  0  0  0  0  0  0  0  0  0  0
  127.8040  130.7280   62.9140 H   0  0  0  0  0  0  0  0  0  0  0  0
  129.3200  131.5030   63.1620 H   0  0  0  0  0  0  0  0  0  0  0  0
  1  2  1  0
  2  3  1  0
  3  4  2  0
  3  5  1  0
  5  6  1  0
  6  7  1  0
  7  8  2  0
  8  9  1  0
  9 10  1  0
 10 11  2  0
 11 12  1  0
 12 13  2  0
 13 14  1  0
 14 15  1  0
 13 16  1  0
 16 17  2  0
  9 18  2  0
 18 19  1  0
 19 20  1  0
 20 21  2  0
 21 22  1  0
 22 23  2  0
 23 24  1  0
 24 25  1  0
 23 26  1  0
 26 27  2  0
 19 28  2  0
 28 29  1  0
 29 30  1  0
 29  5  2  0
 28  7  1  0
 17 10  1  0
 27 20  1  0
  1 31  1  0
  1 32  1  0
  1 33  1  0
 11 34  1  0
 12 35  1  0
 15 36  1  0
 15 37  1  0
 15 38  1  0
 16 39  1  0
 17 40  1  0
 18 41  1  0
 21 42  1  0
 22 43  1  0
 25 44  1  0
 25 45  1  0
 25 46  1  0
 26 47  1  0
 27 48  1  0
 30 49  1  0
 30 50  1  0
M  END
>  <Binding energies>  (1) 
[-6.34]

>  <Ligand effiencies>  (1) 
[-0.198125]

>  <Interactions>  (1) 
["V-A:ASP:366:CG:3213, V-A:PRO:540:CA:4883, V-A:PRO:540:CB:4885, V-B:TYR:539:CZ:9849, V-B:PRO:540:N:9856, V-B:PRO:540:CB:9857, V-B:PRO:540:CA:9855, H-B:TYR:539:N:9842, V-B:PRO:540:CD:9859, V-B:ASP:366:CG:8184, V-B:MET:535:CE:9807, V-B:LEU:363:CD1:8160, V-A:GLU:543:CD:4908, V-B:GLU:543:CD:9880, V-B:HIS:456:CE1:9041, H-A:GLU:543:OE1:4909, V-B:TYR:484:CZ:9318, H-B:TYR:484:OH:9319, H-A:ALA:541:N:4891, V-B:ILE:538:CG2:9835, V-B:ILE:538:CA:9832, V-B:ILE:538:C:9830, V-B:GLY:454:CA:9020, V-B:ARG:545:CZ:9898, V-A:LEU:363:CA:3185, V-A:ASN:362:CB:3176, V-A:ASN:362:C:3172, V-B:ARG:545:CD:9895, V-B:ILE:538:CB:9834, H-B:ARG:545:NE:9896, H-B:GLY:454:N:9021, V-B:ARG:545:CG:9894, V-B:TYR:484:CE1:9316"]

$$$$
9a_Ghoteimi_2023
     RDKit          3D

 85 91  0  0  0  0  0  0  0  0999 V2000
  131.7190  132.8180   56.4680 C   0  0  0  0  0  0  0  0  0  0  0  0
  130.5630  132.5730   55.4930 C   0  0  0  0  0  0  0  0  0  0  0  0
  129.4430  133.3610   55.8790 O   0  0  0  0  0  0  0  0  0  0  0  0
  128.2390  132.7900   56.1370 C   0  0  0  0  0  0  0  0  0  0  0  0
  127.2710  132.8680   55.3740 O   0  0  0  0  0  0  0  0  0  0  0  0
  128.1980  132.0570   57.4470 C   0  0  0  0  0  0  0  0  0  0  0  0
  129.1870  132.3130   58.4060 C   0  0  0  0  0  0  0  0  0  0  0  0
  129.1770  131.6480   59.6290 C   0  0  0  0  0  0  0  0  0  0  0  0
  128.1800  130.7170   59.9210 C   0  0  0  0  0  0  0  0  0  0  0  0
  128.2700  130.1070   61.1870 N   0  0  0  0  0  0  0  0  0  0  0  0
  127.3030  129.8060   62.0880 C   0  0  0  0  0  0  0  0  0  0  0  0
  126.1050  130.0390   61.9210 O   0  0  0  0  0  0  0  0  0  0  0  0
  127.7710  129.1590   63.3170 C   0  0  0  0  0  0  0  0  0  0  0  0
  127.4860  129.9140   64.8860 S   0  0  0  0  0  0  0  0  0  0  0  0
  128.2790  128.5950   65.7150 C   0  0  0  0  0  0  0  0  0  0  0  0
  128.3800  128.5650   67.0430 N   0  0  0  0  0  0  0  0  0  0  0  0
  129.0040  127.4890   67.5910 C   0  0  0  0  0  0  0  0  0  0  0  0
  129.0970  127.4710   69.0820 C   0  0  0  0  0  0  0  0  0  0  0  0
  128.0570  126.9380   69.8530 C   0  0  0  0  0  0  0  0  0  0  0  0
  128.1350  126.9160   71.2420 C   0  0  0  0  0  0  0  0  0  0  0  0
  129.2630  127.4150   71.9140 C   0  0  0  0  0  0  0  0  0  0  0  0
  129.3470  127.4180   73.3100 N   0  0  0  0  0  0  0  0  0  0  0  0
  130.5280  126.8770   74.0130 C   0  0  0  0  0  0  0  0  0  0  0  0
  130.2980  126.6300   75.5190 C   0  0  0  0  0  0  0  0  0  0  0  0
  129.8350  127.8170   76.1410 O   0  0  0  0  0  0  0  0  0  0  0  0
  128.6080  128.2550   75.5780 C   0  0  0  0  0  0  0  0  0  0  0  0
  128.7940  128.5540   74.0760 C   0  0  0  0  0  0  0  0  0  0  0  0
  130.2950  127.9620   71.1370 C   0  0  0  0  0  0  0  0  0  0  0  0
  130.2150  127.9850   69.7480 C   0  0  0  0  0  0  0  0  0  0  0  0
  129.5470  126.4650   66.8100 C   0  0  0  0  0  0  0  0  0  0  0  0
  129.4600  126.5030   65.4140 C   0  0  0  0  0  0  0  0  0  0  0  0
  130.0860  125.4070   64.6310 C   0  0  0  0  0  0  0  0  0  0  0  0
  129.6850  124.0810   64.8150 C   0  0  0  0  0  0  0  0  0  0  0  0
  130.2630  123.0580   64.0700 C   0  0  0  0  0  0  0  0  0  0  0  0
  131.2460  123.3340   63.1070 C   0  0  0  0  0  0  0  0  0  0  0  0
  131.8490  122.3220   62.3550 N   0  0  0  0  0  0  0  0  0  0  0  0
  133.2780  122.4390   62.0060 C   0  0  0  0  0  0  0  0  0  0  0  0
  133.8990  121.1120   61.5210 C   0  0  0  0  0  0  0  0  0  0  0  0
  133.1520  120.5950   60.4310 O   0  0  0  0  0  0  0  0  0  0  0  0
  131.8040  120.3400   60.7930 C   0  0  0  0  0  0  0  0  0  0  0  0
  131.1270  121.6470   61.2580 C   0  0  0  0  0  0  0  0  0  0  0  0
  131.6400  124.6680   62.9290 C   0  0  0  0  0  0  0  0  0  0  0  0
  131.0650  125.6910   63.6760 C   0  0  0  0  0  0  0  0  0  0  0  0
  128.7780  127.6030   64.8210 C   0  0  0  0  0  0  0  0  0  0  0  0
  128.4530  127.9400   63.4570 C   0  0  0  0  0  0  0  0  0  0  0  0
  128.7720  127.1270   62.4000 N   0  0  0  0  0  0  0  0  0  0  0  0
  127.1830  130.4570   58.9670 C   0  0  0  0  0  0  0  0  0  0  0  0
  127.1950  131.1220   57.7440 C   0  0  0  0  0  0  0  0  0  0  0  0
  131.3500  132.7398   57.5013 H   0  0  0  0  0  0  0  0  0  0  0  0
  132.5047  132.0664   56.3014 H   0  0  0  0  0  0  0  0  0  0  0  0
  132.1323  133.8237   56.3014 H   0  0  0  0  0  0  0  0  0  0  0  0
  130.8753  132.8527   54.4760 H   0  0  0  0  0  0  0  0  0  0  0  0
  130.2866  131.5084   55.5115 H   0  0  0  0  0  0  0  0  0  0  0  0
  129.9784  133.0460   58.1906 H   0  0  0  0  0  0  0  0  0  0  0  0
  129.9614  131.8583   60.3709 H   0  0  0  0  0  0  0  0  0  0  0  0
  129.2100  129.8550   61.4540 H   0  0  0  0  0  0  0  0  0  0  0  0
  127.1655  126.5308   69.3535 H   0  0  0  0  0  0  0  0  0  0  0  0
  127.2990  126.5007   71.8239 H   0  0  0  0  0  0  0  0  0  0  0  0
  130.8036  125.9214   73.5430 H   0  0  0  0  0  0  0  0  0  0  0  0
  131.3236  127.6321   73.9302 H   0  0  0  0  0  0  0  0  0  0  0  0
  129.5482  125.8354   75.6473 H   0  0  0  0  0  0  0  0  0  0  0  0
  131.2476  126.3262   75.9837 H   0  0  0  0  0  0  0  0  0  0  0  0
  127.8491  127.4684   75.7016 H   0  0  0  0  0  0  0  0  0  0  0  0
  128.2820  129.1717   76.0911 H   0  0  0  0  0  0  0  0  0  0  0  0
  127.8144  128.8166   73.6499 H   0  0  0  0  0  0  0  0  0  0  0  0
  129.5187  129.3779   73.9988 H   0  0  0  0  0  0  0  0  0  0  0  0
  131.1827  128.3799   71.6343 H   0  0  0  0  0  0  0  0  0  0  0  0
  131.0432  128.4138   69.1647 H   0  0  0  0  0  0  0  0  0  0  0  0
  130.0496  125.6177   67.2994 H   0  0  0  0  0  0  0  0  0  0  0  0
  128.9061  123.8442   65.5548 H   0  0  0  0  0  0  0  0  0  0  0  0
  129.9452  122.0184   64.2381 H   0  0  0  0  0  0  0  0  0  0  0  0
  133.3817  123.1861   61.2054 H   0  0  0  0  0  0  0  0  0  0  0  0
  133.8134  122.7340   62.9205 H   0  0  0  0  0  0  0  0  0  0  0  0
  134.9356  121.2912   61.1995 H   0  0  0  0  0  0  0  0  0  0  0  0
  133.8841  120.3843   62.3457 H   0  0  0  0  0  0  0  0  0  0  0  0
  131.2628  119.9386   59.9235 H   0  0  0  0  0  0  0  0  0  0  0  0
  131.7825  119.6094   61.6151 H   0  0  0  0  0  0  0  0  0  0  0  0
  131.0715  122.3350   60.4015 H   0  0  0  0  0  0  0  0  0  0  0  0
  130.1311  121.3791   61.6406 H   0  0  0  0  0  0  0  0  0  0  0  0
  132.4157  124.9092   62.1873 H   0  0  0  0  0  0  0  0  0  0  0  0
  131.3836  126.7312   63.5134 H   0  0  0  0  0  0  0  0  0  0  0  0
  128.1690  126.3710   62.1080 H   0  0  0  0  0  0  0  0  0  0  0  0
  129.6260  127.2580   61.8750 H   0  0  0  0  0  0  0  0  0  0  0  0
  126.3907  129.7262   59.1865 H   0  0  0  0  0  0  0  0  0  0  0  0
  126.4098  130.9122   57.0027 H   0  0  0  0  0  0  0  0  0  0  0  0
  1  2  1  0
  2  3  1  0
  3  4  1  0
  4  5  2  0
  4  6  1  0
  6  7  2  0
  7  8  1  0
  8  9  2  0
  9 10  1  0
 10 11  1  0
 11 12  2  0
 11 13  1  0
 13 14  1  0
 14 15  1  0
 15 16  2  0
 16 17  1  0
 17 18  1  0
 18 19  2  0
 19 20  1  0
 20 21  2  0
 21 22  1  0
 22 23  1  0
 23 24  1  0
 24 25  1  0
 25 26  1  0
 26 27  1  0
 21 28  1  0
 28 29  2  0
 17 30  2  0
 30 31  1  0
 31 32  1  0
 32 33  2  0
 33 34  1  0
 34 35  2  0
 35 36  1  0
 36 37  1  0
 37 38  1  0
 38 39  1  0
 39 40  1  0
 40 41  1  0
 35 42  1  0
 42 43  2  0
 31 44  2  0
 44 45  1  0
 45 46  1  0
  9 47  1  0
 47 48  2  0
 48  6  1  0
 45 13  2  0
 44 15  1  0
 29 18  1  0
 43 32  1  0
 27 22  1  0
 41 36  1  0
  1 49  1  0
  1 50  1  0
  1 51  1  0
  2 52  1  0
  2 53  1  0
  7 54  1  0
  8 55  1  0
 10 56  1  0
 19 57  1  0
 20 58  1  0
 23 59  1  0
 23 60  1  0
 24 61  1  0
 24 62  1  0
 26 63  1  0
 26 64  1  0
 27 65  1  0
 27 66  1  0
 28 67  1  0
 29 68  1  0
 30 69  1  0
 33 70  1  0
 34 71  1  0
 37 72  1  0
 37 73  1  0
 38 74  1  0
 38 75  1  0
 40 76  1  0
 40 77  1  0
 41 78  1  0
 41 79  1  0
 42 80  1  0
 43 81  1  0
 46 82  1  0
 46 83  1  0
 47 84  1  0
 48 85  1  0
M  END
>  <Binding energies>  (1) 
[-10.26]

>  <Ligand effiencies>  (1) 
[-0.2011764705882353]

>  <Interactions>  (1) 
["V-A:LEU:363:CD1:3189, V-A:PRO:540:CD:4887, H-A:TYR:539:N:4870, V-B:TYR:539:CE2:9848, H-B:GLU:543:OE1:9881, V-B:TYR:539:CD2:9846, V-A:MET:535:CE:4835, V-A:ILE:369:CD1:3239, V-B:GLU:543:CG:9879, V-A:ILE:369:CG2:3237, V-A:LEU:475:CD2:4259, V-B:GLU:543:CB:9878, V-A:GLU:543:CD:4908, V-B:GLU:543:CD:9880, V-B:HIS:456:CE1:9041, V-A:GLY:544:C:4912, H-A:LYS:547:NZ:4951, V-B:GLU:543:C:9874, V-B:HIS:456:CD2:9039, V-A:HIS:456:CE1:4070, V-A:GLU:543:CG:4907, V-A:GLU:543:C:4902, V-A:GLU:543:CB:4906, H-B:LYS:547:NZ:9923, H-A:GLU:543:OE1:4909, V-A:HIS:456:CD2:4068, H-A:TYR:539:OH:4878, V-A:TYR:539:CE1:4875, V-A:TYR:539:CZ:4877, V-A:TYR:539:CD1:4873, V-A:TYR:539:CD2:4874, V-A:ILE:538:CA:4860, V-A:TYR:539:CG:4872, V-A:TYR:539:CE2:4876, V-A:ILE:538:CG2:4863, V-A:ILE:538:CB:4862, H-A:SER:385:OG:3410, V-A:SER:385:CA:3407, V-A:SER:385:CB:3409, V-A:SER:385:C:3405"]

$$$$
9b_Ghoteimi_2023
     RDKit          3D

 72 78  0  0  0  0  0  0  0  0999 V2000
  128.6620  126.0540   59.2550 N   0  0  0  0  0  0  0  0  0  0  0  0
  128.6310  125.3220   60.4150 C   0  0  0  0  0  0  0  0  0  0  0  0
  128.3460  123.9490   60.4550 C   0  0  0  0  0  0  0  0  0  0  0  0
  128.0620  123.0410   59.3400 C   0  0  0  0  0  0  0  0  0  0  0  0
  128.7000  121.9960   59.2020 O   0  0  0  0  0  0  0  0  0  0  0  0
  127.0730  123.4400   58.5010 N   0  0  0  0  0  0  0  0  0  0  0  0
  126.6090  122.7860   57.3670 C   0  0  0  0  0  0  0  0  0  0  0  0
  125.2600  122.7310   57.0190 C   0  0  0  0  0  0  0  0  0  0  0  0
  125.2220  122.0070   55.8500 C   0  0  0  0  0  0  0  0  0  0  0  0
  126.4830  121.6440   55.5120 O   0  0  0  0  0  0  0  0  0  0  0  0
  127.3530  122.1440   56.4820 N   0  0  0  0  0  0  0  0  0  0  0  0
  128.3600  123.3430   62.1110 S   0  0  0  0  0  0  0  0  0  0  0  0
  128.7280  124.9320   62.7370 C   0  0  0  0  0  0  0  0  0  0  0  0
  128.8510  125.1560   64.0440 N   0  0  0  0  0  0  0  0  0  0  0  0
  129.1210  126.4310   64.4290 C   0  0  0  0  0  0  0  0  0  0  0  0
  129.2330  126.6590   65.9020 C   0  0  0  0  0  0  0  0  0  0  0  0
  128.7450  127.8320   66.4920 C   0  0  0  0  0  0  0  0  0  0  0  0
  128.8650  128.0450   67.8610 C   0  0  0  0  0  0  0  0  0  0  0  0
  129.4900  127.1010   68.6900 C   0  0  0  0  0  0  0  0  0  0  0  0
  129.6150  127.3000   70.0700 N   0  0  0  0  0  0  0  0  0  0  0  0
  128.4450  127.6300   70.9080 C   0  0  0  0  0  0  0  0  0  0  0  0
  128.6990  127.4730   72.4220 C   0  0  0  0  0  0  0  0  0  0  0  0
  129.8300  128.2360   72.8060 O   0  0  0  0  0  0  0  0  0  0  0  0
  131.0000  127.8100   72.1270 C   0  0  0  0  0  0  0  0  0  0  0  0
  130.8180  127.9730   70.6020 C   0  0  0  0  0  0  0  0  0  0  0  0
  129.9590  125.9200   68.0970 C   0  0  0  0  0  0  0  0  0  0  0  0
  129.8350  125.7040   66.7270 C   0  0  0  0  0  0  0  0  0  0  0  0
  129.2940  127.4680   63.5080 C   0  0  0  0  0  0  0  0  0  0  0  0
  129.1860  127.2320   62.1330 C   0  0  0  0  0  0  0  0  0  0  0  0
  129.4080  128.3620   61.1940 C   0  0  0  0  0  0  0  0  0  0  0  0
  130.6780  128.6010   60.6680 C   0  0  0  0  0  0  0  0  0  0  0  0
  130.8860  129.6460   59.7730 C   0  0  0  0  0  0  0  0  0  0  0  0
  129.8280  130.4820   59.3810 C   0  0  0  0  0  0  0  0  0  0  0  0
  130.0110  131.5280   58.4720 N   0  0  0  0  0  0  0  0  0  0  0  0
  131.3540  131.7690   57.9100 C   0  0  0  0  0  0  0  0  0  0  0  0
  131.4980  133.1600   57.2560 C   0  0  0  0  0  0  0  0  0  0  0  0
  130.4990  133.3360   56.2640 O   0  0  0  0  0  0  0  0  0  0  0  0
  129.1920  133.2400   56.8100 C   0  0  0  0  0  0  0  0  0  0  0  0
  128.9900  131.8540   57.4570 C   0  0  0  0  0  0  0  0  0  0  0  0
  128.5530  130.2200   59.9030 C   0  0  0  0  0  0  0  0  0  0  0  0
  128.3450  129.1740   60.7980 C   0  0  0  0  0  0  0  0  0  0  0  0
  128.8690  125.9110   61.7090 C   0  0  0  0  0  0  0  0  0  0  0  0
  128.1240  125.7880   58.4420 H   0  0  0  0  0  0  0  0  0  0  0  0
  129.2270  126.8880   59.1730 H   0  0  0  0  0  0  0  0  0  0  0  0
  126.6120  124.3120   58.7180 H   0  0  0  0  0  0  0  0  0  0  0  0
  124.4104  123.1711   57.5616 H   0  0  0  0  0  0  0  0  0  0  0  0
  124.3133  121.7619   55.2806 H   0  0  0  0  0  0  0  0  0  0  0  0
  128.2606  128.5945   65.8643 H   0  0  0  0  0  0  0  0  0  0  0  0
  128.4631  128.9693   68.3015 H   0  0  0  0  0  0  0  0  0  0  0  0
  128.1604  128.6740   70.7105 H   0  0  0  0  0  0  0  0  0  0  0  0
  127.6492  126.9190   70.6413 H   0  0  0  0  0  0  0  0  0  0  0  0
  127.8170  127.8243   72.9776 H   0  0  0  0  0  0  0  0  0  0  0  0
  128.8851  126.4128   72.6486 H   0  0  0  0  0  0  0  0  0  0  0  0
  131.8547  128.4180   72.4584 H   0  0  0  0  0  0  0  0  0  0  0  0
  131.1834  126.7499   72.3563 H   0  0  0  0  0  0  0  0  0  0  0  0
  130.7441  129.0466   70.3743 H   0  0  0  0  0  0  0  0  0  0  0  0
  131.6880  127.5001   70.1230 H   0  0  0  0  0  0  0  0  0  0  0  0
  130.4329  125.1511   68.7248 H   0  0  0  0  0  0  0  0  0  0  0  0
  130.2156  124.7699   66.2881 H   0  0  0  0  0  0  0  0  0  0  0  0
  129.5179  128.4828   63.8687 H   0  0  0  0  0  0  0  0  0  0  0  0
  131.5209  127.9587   60.9629 H   0  0  0  0  0  0  0  0  0  0  0  0
  131.8934  129.8197   59.3668 H   0  0  0  0  0  0  0  0  0  0  0  0
  132.0926  131.6856   58.7209 H   0  0  0  0  0  0  0  0  0  0  0  0
  131.5188  131.0186   57.1228 H   0  0  0  0  0  0  0  0  0  0  0  0
  131.3876  133.9377   58.0261 H   0  0  0  0  0  0  0  0  0  0  0  0
  132.4900  133.2373   56.7869 H   0  0  0  0  0  0  0  0  0  0  0  0
  129.0578  134.0210   57.5729 H   0  0  0  0  0  0  0  0  0  0  0  0
  128.4541  133.3734   56.0052 H   0  0  0  0  0  0  0  0  0  0  0  0
  128.0010  131.8343   57.9381 H   0  0  0  0  0  0  0  0  0  0  0  0
  129.0769  131.1052   56.6559 H   0  0  0  0  0  0  0  0  0  0  0  0
  127.7040  130.8507   59.6006 H   0  0  0  0  0  0  0  0  0  0  0  0
  127.3365  128.9867   61.1952 H   0  0  0  0  0  0  0  0  0  0  0  0
  1  2  1  0
  2  3  2  0
  3  4  1  0
  4  5  2  0
  4  6  1  0
  6  7  1  0
  7  8  1  0
  8  9  2  0
  9 10  1  0
 10 11  1  0
  3 12  1  0
 12 13  1  0
 13 14  2  0
 14 15  1  0
 15 16  1  0
 16 17  2  0
 17 18  1  0
 18 19  2  0
 19 20  1  0
 20 21  1  0
 21 22  1  0
 22 23  1  0
 23 24  1  0
 24 25  1  0
 19 26  1  0
 26 27  2  0
 15 28  2  0
 28 29  1  0
 29 30  1  0
 30 31  2  0
 31 32  1  0
 32 33  2  0
 33 34  1  0
 34 35  1  0
 35 36  1  0
 36 37  1  0
 37 38  1  0
 38 39  1  0
 33 40  1  0
 40 41  2  0
 29 42  2  0
 42  2  1  0
 11  7  2  0
 42 13  1  0
 27 16  1  0
 41 30  1  0
 25 20  1  0
 39 34  1  0
  1 43  1  0
  1 44  1  0
  6 45  1  0
  8 46  1  0
  9 47  1  0
 17 48  1  0
 18 49  1  0
 21 50  1  0
 21 51  1  0
 22 52  1  0
 22 53  1  0
 24 54  1  0
 24 55  1  0
 25 56  1  0
 25 57  1  0
 26 58  1  0
 27 59  1  0
 28 60  1  0
 31 61  1  0
 32 62  1  0
 35 63  1  0
 35 64  1  0
 36 65  1  0
 36 66  1  0
 38 67  1  0
 38 68  1  0
 39 69  1  0
 39 70  1  0
 40 71  1  0
 41 72  1  0
M  END
>  <Binding energies>  (1) 
[-9.83]

>  <Ligand effiencies>  (1) 
[-0.21844444444444444]

>  <Interactions>  (1) 
["V-A:LEU:363:CD1:3189, V-A:PRO:540:CA:4883, V-A:PRO:540:CB:4885, V-A:PRO:540:CD:4887, V-A:PRO:540:CG:4886, V-A:PRO:540:N:4884, V-A:TYR:539:C:4867, H-A:TYR:539:N:4870, V-B:PRO:540:N:9856, V-B:PRO:540:CB:9857, V-B:PRO:540:CA:9855, V-B:TYR:539:CE2:9848, H-B:TYR:539:N:9842, V-B:PRO:540:CD:9859, V-B:MET:535:CE:9807, V-B:LEU:363:CD1:8160, V-B:PRO:540:CG:9858, V-B:TYR:539:C:9839, V-B:TYR:539:CD2:9846, V-B:GLU:543:CG:9879, V-B:GLU:543:CB:9878, V-A:GLU:543:CD:4908, V-B:GLU:543:CD:9880, V-B:HIS:456:CE1:9041, V-A:GLY:544:C:4912, H-A:LYS:547:NZ:4951, V-B:HIS:456:CD2:9039, V-A:HIS:456:CE1:4070, V-A:GLU:543:CG:4907, V-A:GLU:543:C:4902, V-A:GLU:543:CB:4906, V-A:HIS:456:CD2:4068, V-B:ILE:538:CG2:9835, V-A:TYR:539:CD1:4873, V-A:ILE:538:CA:4860, V-A:TYR:539:CG:4872, V-A:TYR:539:CA:4869, V-A:ILE:538:C:4858, V-A:ILE:538:CB:4862, V-B:ILE:538:CA:9832, V-B:ILE:538:CB:9834"]

$$$$
9c_Ghoteimi_2023
     RDKit          3D

 72 78  0  0  0  0  0  0  0  0999 V2000
  129.0030  127.1560   62.1460 N   0  0  0  0  0  0  0  0  0  0  0  0
  128.5070  127.8810   63.1990 C   0  0  0  0  0  0  0  0  0  0  0  0
  127.7270  129.0380   63.0420 C   0  0  0  0  0  0  0  0  0  0  0  0
  127.2790  129.6760   61.8000 C   0  0  0  0  0  0  0  0  0  0  0  0
  128.0060  130.4720   61.2030 O   0  0  0  0  0  0  0  0  0  0  0  0
  126.0360  129.3300   61.3840 N   0  0  0  0  0  0  0  0  0  0  0  0
  125.3740  129.7980   60.2570 C   0  0  0  0  0  0  0  0  0  0  0  0
  125.5850  129.4700   59.0010 N   0  0  0  0  0  0  0  0  0  0  0  0
  124.7700  130.1150   58.1880 C   0  0  0  0  0  0  0  0  0  0  0  0
  123.8700  130.9920   58.7870 C   0  0  0  0  0  0  0  0  0  0  0  0
  124.1120  130.9620   60.5080 S   0  0  0  0  0  0  0  0  0  0  0  0
  127.2880  129.7280   64.6040 S   0  0  0  0  0  0  0  0  0  0  0  0
  128.1640  128.4780   65.4540 C   0  0  0  0  0  0  0  0  0  0  0  0
  128.2390  128.4590   66.7840 N   0  0  0  0  0  0  0  0  0  0  0  0
  128.9600  127.4540   67.3460 C   0  0  0  0  0  0  0  0  0  0  0  0
  129.0460  127.4690   68.8380 C   0  0  0  0  0  0  0  0  0  0  0  0
  127.9960  126.9890   69.6290 C   0  0  0  0  0  0  0  0  0  0  0  0
  128.0770  127.0130   71.0180 C   0  0  0  0  0  0  0  0  0  0  0  0
  129.2080  127.5330   71.6680 C   0  0  0  0  0  0  0  0  0  0  0  0
  129.3080  127.5580   73.0640 N   0  0  0  0  0  0  0  0  0  0  0  0
  128.7510  128.6750   73.8550 C   0  0  0  0  0  0  0  0  0  0  0  0
  128.6380  128.3750   75.3640 C   0  0  0  0  0  0  0  0  0  0  0  0
  129.8990  127.9730   75.8730 O   0  0  0  0  0  0  0  0  0  0  0  0
  130.3660  126.7960   75.2340 C   0  0  0  0  0  0  0  0  0  0  0  0
  130.5290  127.0440   73.7180 C   0  0  0  0  0  0  0  0  0  0  0  0
  130.2640  127.9950   70.8710 C   0  0  0  0  0  0  0  0  0  0  0  0
  130.1840  127.9660   69.4810 C   0  0  0  0  0  0  0  0  0  0  0  0
  129.5760  126.4600   66.5830 C   0  0  0  0  0  0  0  0  0  0  0  0
  129.4810  126.4630   65.1870 C   0  0  0  0  0  0  0  0  0  0  0  0
  130.1270  125.3680   64.4220 C   0  0  0  0  0  0  0  0  0  0  0  0
  129.3500  124.4330   63.7360 C   0  0  0  0  0  0  0  0  0  0  0  0
  129.9520  123.4140   63.0040 C   0  0  0  0  0  0  0  0  0  0  0  0
  131.3500  123.3010   62.9400 C   0  0  0  0  0  0  0  0  0  0  0  0
  131.9760  122.2930   62.2020 N   0  0  0  0  0  0  0  0  0  0  0  0
  131.1930  121.5390   61.2020 C   0  0  0  0  0  0  0  0  0  0  0  0
  131.8760  120.2290   60.7550 C   0  0  0  0  0  0  0  0  0  0  0  0
  133.1810  120.5030   60.2680 O   0  0  0  0  0  0  0  0  0  0  0  0
  133.9960  121.1060   61.2600 C   0  0  0  0  0  0  0  0  0  0  0  0
  133.3650  122.4380   61.7260 C   0  0  0  0  0  0  0  0  0  0  0  0
  132.1210  124.2580   63.6160 C   0  0  0  0  0  0  0  0  0  0  0  0
  131.5190  125.2770   64.3480 C   0  0  0  0  0  0  0  0  0  0  0  0
  128.7610  127.5280   64.5730 C   0  0  0  0  0  0  0  0  0  0  0  0
  128.4660  126.4230   61.7030 H   0  0  0  0  0  0  0  0  0  0  0  0
  129.9270  127.3290   61.7760 H   0  0  0  0  0  0  0  0  0  0  0  0
  125.5290  128.6610   61.9440 H   0  0  0  0  0  0  0  0  0  0  0  0
  124.8001  129.9680   57.0983 H   0  0  0  0  0  0  0  0  0  0  0  0
  123.1260  131.6048   58.2569 H   0  0  0  0  0  0  0  0  0  0  0  0
  127.0934  126.5868   69.1457 H   0  0  0  0  0  0  0  0  0  0  0  0
  127.2423  126.6186   71.6160 H   0  0  0  0  0  0  0  0  0  0  0  0
  129.4026  129.5515   73.7237 H   0  0  0  0  0  0  0  0  0  0  0  0
  127.7296  128.8501   73.4862 H   0  0  0  0  0  0  0  0  0  0  0  0
  128.3038  129.2805   75.8916 H   0  0  0  0  0  0  0  0  0  0  0  0
  127.9107  127.5643   75.5181 H   0  0  0  0  0  0  0  0  0  0  0  0
  131.3381  126.5106   75.6626 H   0  0  0  0  0  0  0  0  0  0  0  0
  129.6363  125.9878   75.3902 H   0  0  0  0  0  0  0  0  0  0  0  0
  131.3360  127.7769   73.5711 H   0  0  0  0  0  0  0  0  0  0  0  0
  130.7549  126.0714   73.2564 H   0  0  0  0  0  0  0  0  0  0  0  0
  131.1722  128.3875   71.3518 H   0  0  0  0  0  0  0  0  0  0  0  0
  131.0271  128.3390   68.8809 H   0  0  0  0  0  0  0  0  0  0  0  0
  130.1438  125.6636   67.0863 H   0  0  0  0  0  0  0  0  0  0  0  0
  128.2529  124.5022   63.7743 H   0  0  0  0  0  0  0  0  0  0  0  0
  129.3239  122.6871   62.4682 H   0  0  0  0  0  0  0  0  0  0  0  0
  130.2144  121.2913   61.6390 H   0  0  0  0  0  0  0  0  0  0  0  0
  131.0989  122.1782   60.3117 H   0  0  0  0  0  0  0  0  0  0  0  0
  131.9437  119.5428   61.6120 H   0  0  0  0  0  0  0  0  0  0  0  0
  131.2811  119.7673   59.9532 H   0  0  0  0  0  0  0  0  0  0  0  0
  134.0867  120.4257   62.1196 H   0  0  0  0  0  0  0  0  0  0  0  0
  134.9909  121.3070   60.8361 H   0  0  0  0  0  0  0  0  0  0  0  0
  133.9743  122.8442   62.5468 H   0  0  0  0  0  0  0  0  0  0  0  0
  133.3415  123.1088   60.8545 H   0  0  0  0  0  0  0  0  0  0  0  0
  133.2185  124.2022   63.5668 H   0  0  0  0  0  0  0  0  0  0  0  0
  132.1434  126.0157   64.8718 H   0  0  0  0  0  0  0  0  0  0  0  0
  1  2  1  0
  2  3  2  0
  3  4  1  0
  4  5  2  0
  4  6  1  0
  6  7  1  0
  7  8  2  0
  8  9  1  0
  9 10  2  0
 10 11  1  0
  3 12  1  0
 12 13  1  0
 13 14  2  0
 14 15  1  0
 15 16  1  0
 16 17  2  0
 17 18  1  0
 18 19  2  0
 19 20  1  0
 20 21  1  0
 21 22  1  0
 22 23  1  0
 23 24  1  0
 24 25  1  0
 19 26  1  0
 26 27  2  0
 15 28  2  0
 28 29  1  0
 29 30  1  0
 30 31  2  0
 31 32  1  0
 32 33  2  0
 33 34  1  0
 34 35  1  0
 35 36  1  0
 36 37  1  0
 37 38  1  0
 38 39  1  0
 33 40  1  0
 40 41  2  0
 29 42  2  0
 42  2  1  0
 11  7  1  0
 42 13  1  0
 27 16  1  0
 41 30  1  0
 25 20  1  0
 39 34  1  0
  1 43  1  0
  1 44  1  0
  6 45  1  0
  9 46  1  0
 10 47  1  0
 17 48  1  0
 18 49  1  0
 21 50  1  0
 21 51  1  0
 22 52  1  0
 22 53  1  0
 24 54  1  0
 24 55  1  0
 25 56  1  0
 25 57  1  0
 26 58  1  0
 27 59  1  0
 28 60  1  0
 31 61  1  0
 32 62  1  0
 35 63  1  0
 35 64  1  0
 36 65  1  0
 36 66  1  0
 38 67  1  0
 38 68  1  0
 39 69  1  0
 39 70  1  0
 40 71  1  0
 41 72  1  0
M  END
>  <Binding energies>  (1) 
[-9.04]

>  <Ligand effiencies>  (1) 
[-0.20088888888888887]

>  <Interactions>  (1) 
["V-B:TYR:539:CE2:9848, V-B:ASP:366:CB:8183, H-B:TYR:531:OH:9767, H-B:ASP:366:OD1:8185, V-B:ASP:366:CG:8184, H-B:GLU:543:OE1:9881, V-B:TYR:539:CD2:9846, V-A:ILE:369:CD1:3239, V-B:GLU:543:CG:9879, V-A:ILE:369:CG2:3237, V-A:LEU:475:CD2:4259, V-B:GLU:543:CB:9878, V-A:GLU:543:CD:4908, V-B:GLU:543:CD:9880, V-B:HIS:456:CE1:9041, V-A:GLY:544:C:4912, H-A:LYS:547:NZ:4951, V-B:GLU:543:C:9874, V-B:HIS:456:CD2:9039, V-A:HIS:456:CE1:4070, V-A:GLU:543:CG:4907, V-A:GLU:543:C:4902, V-A:GLU:543:CB:4906, H-A:GLU:543:OE1:4909, V-A:HIS:456:CD2:4068, V-B:ASP:366:CA:8181, V-B:ILE:369:CG2:8208, V-B:ILE:369:CB:8207, H-B:ASP:366:OD2:8186, H-A:SER:385:OG:3410, V-A:SER:385:CA:3407, V-A:SER:385:CB:3409, V-A:SER:385:C:3405"]

$$$$
9d_Ghoteimi_2023
     RDKit          3D

 68 73  0  0  0  0  0  0  0  0999 V2000
  128.2360  132.8850   55.7740 C   0  0  0  0  0  0  0  0  0  0  0  0
  128.0630  132.2290   57.0220 O   0  0  0  0  0  0  0  0  0  0  0  0
  128.8310  132.5570   58.0940 C   0  0  0  0  0  0  0  0  0  0  0  0
  129.5700  133.5440   58.1360 O   0  0  0  0  0  0  0  0  0  0  0  0
  128.6950  131.6000   59.2140 C   0  0  0  0  0  0  0  0  0  0  0  0
  129.0490  132.1220   60.8610 S   0  0  0  0  0  0  0  0  0  0  0  0
  128.6420  130.5430   61.4900 C   0  0  0  0  0  0  0  0  0  0  0  0
  128.6810  130.2810   62.7960 N   0  0  0  0  0  0  0  0  0  0  0  0
  128.3300  129.0270   63.1850 C   0  0  0  0  0  0  0  0  0  0  0  0
  128.3560  128.7640   64.6570 C   0  0  0  0  0  0  0  0  0  0  0  0
  127.9980  129.7660   65.5640 C   0  0  0  0  0  0  0  0  0  0  0  0
  128.0210  129.5320   66.9360 C   0  0  0  0  0  0  0  0  0  0  0  0
  128.3930  128.2800   67.4510 C   0  0  0  0  0  0  0  0  0  0  0  0
  128.4390  128.0350   68.8280 N   0  0  0  0  0  0  0  0  0  0  0  0
  127.7330  126.8840   69.4270 C   0  0  0  0  0  0  0  0  0  0  0  0
  127.6010  126.9630   70.9620 C   0  0  0  0  0  0  0  0  0  0  0  0
  128.8780  127.1390   71.5510 O   0  0  0  0  0  0  0  0  0  0  0  0
  129.4930  128.3380   71.1090 C   0  0  0  0  0  0  0  0  0  0  0  0
  129.6840  128.3040   69.5770 C   0  0  0  0  0  0  0  0  0  0  0  0
  128.7670  127.2840   66.5380 C   0  0  0  0  0  0  0  0  0  0  0  0
  128.7460  127.5190   65.1660 C   0  0  0  0  0  0  0  0  0  0  0  0
  127.9740  128.0340   62.2690 C   0  0  0  0  0  0  0  0  0  0  0  0
  127.9510  128.2990   60.8950 C   0  0  0  0  0  0  0  0  0  0  0  0
  127.5920  127.1990   59.9610 C   0  0  0  0  0  0  0  0  0  0  0  0
  126.3950  127.2350   59.2430 C   0  0  0  0  0  0  0  0  0  0  0  0
  126.0720  126.2110   58.3560 C   0  0  0  0  0  0  0  0  0  0  0  0
  126.9470  125.1320   58.1520 C   0  0  0  0  0  0  0  0  0  0  0  0
  126.6420  124.0880   57.2750 N   0  0  0  0  0  0  0  0  0  0  0  0
  125.4020  123.3150   57.4830 C   0  0  0  0  0  0  0  0  0  0  0  0
  124.9930  122.4770   56.2530 C   0  0  0  0  0  0  0  0  0  0  0  0
  126.0620  121.6260   55.8670 O   0  0  0  0  0  0  0  0  0  0  0  0
  127.2260  122.3670   55.5280 C   0  0  0  0  0  0  0  0  0  0  0  0
  127.6910  123.1980   56.7430 C   0  0  0  0  0  0  0  0  0  0  0  0
  128.1460  125.1060   58.8800 C   0  0  0  0  0  0  0  0  0  0  0  0
  128.4670  126.1280   59.7670 C   0  0  0  0  0  0  0  0  0  0  0  0
  128.2750  129.6170   60.4690 C   0  0  0  0  0  0  0  0  0  0  0  0
  128.2960  130.2580   59.1800 C   0  0  0  0  0  0  0  0  0  0  0  0
  127.9350  129.6170   58.0230 N   0  0  0  0  0  0  0  0  0  0  0  0
  128.5130  133.9354   55.9472 H   0  0  0  0  0  0  0  0  0  0  0  0
  129.0329  132.3848   55.2042 H   0  0  0  0  0  0  0  0  0  0  0  0
  127.2960  132.8428   55.2042 H   0  0  0  0  0  0  0  0  0  0  0  0
  127.6937  130.7539   65.1878 H   0  0  0  0  0  0  0  0  0  0  0  0
  127.7433  130.3409   67.6277 H   0  0  0  0  0  0  0  0  0  0  0  0
  126.7229  126.8337   68.9944 H   0  0  0  0  0  0  0  0  0  0  0  0
  128.3326  125.9894   69.2032 H   0  0  0  0  0  0  0  0  0  0  0  0
  126.9567  127.8137   71.2287 H   0  0  0  0  0  0  0  0  0  0  0  0
  127.1580  126.0276   71.3344 H   0  0  0  0  0  0  0  0  0  0  0  0
  128.8560  129.1937   71.3772 H   0  0  0  0  0  0  0  0  0  0  0  0
  130.4764  128.4370   71.5919 H   0  0  0  0  0  0  0  0  0  0  0  0
  130.0792  129.2787   69.2548 H   0  0  0  0  0  0  0  0  0  0  0  0
  130.3754  127.4770   69.3580 H   0  0  0  0  0  0  0  0  0  0  0  0
  129.0827  126.2991   66.9125 H   0  0  0  0  0  0  0  0  0  0  0  0
  129.0394  126.7167   64.4730 H   0  0  0  0  0  0  0  0  0  0  0  0
  127.7082  127.0304   62.6326 H   0  0  0  0  0  0  0  0  0  0  0  0
  125.7020  128.0784   59.3789 H   0  0  0  0  0  0  0  0  0  0  0  0
  125.1189  126.2480   57.8081 H   0  0  0  0  0  0  0  0  0  0  0  0
  125.5528  122.6351   58.3345 H   0  0  0  0  0  0  0  0  0  0  0  0
  124.5940  124.0379   57.6687 H   0  0  0  0  0  0  0  0  0  0  0  0
  124.1138  121.8658   56.5048 H   0  0  0  0  0  0  0  0  0  0  0  0
  124.7515  123.1534   55.4198 H   0  0  0  0  0  0  0  0  0  0  0  0
  128.0269  121.6734   55.2323 H   0  0  0  0  0  0  0  0  0  0  0  0
  126.9942  123.0443   54.6928 H   0  0  0  0  0  0  0  0  0  0  0  0
  128.0009  122.5071   57.5409 H   0  0  0  0  0  0  0  0  0  0  0  0
  128.5199  123.8366   56.4038 H   0  0  0  0  0  0  0  0  0  0  0  0
  128.8424  124.2649   58.7473 H   0  0  0  0  0  0  0  0  0  0  0  0
  129.4173  126.0925   60.3199 H   0  0  0  0  0  0  0  0  0  0  0  0
  127.6130  130.1250   57.2120 H   0  0  0  0  0  0  0  0  0  0  0  0
  127.9840  128.6110   57.9400 H   0  0  0  0  0  0  0  0  0  0  0  0
  1  2  1  0
  2  3  1  0
  3  4  2  0
  3  5  1  0
  5  6  1  0
  6  7  1  0
  7  8  2  0
  8  9  1  0
  9 10  1  0
 10 11  2  0
 11 12  1  0
 12 13  2  0
 13 14  1  0
 14 15  1  0
 15 16  1  0
 16 17  1  0
 17 18  1  0
 18 19  1  0
 13 20  1  0
 20 21  2  0
  9 22  2  0
 22 23  1  0
 23 24  1  0
 24 25  2  0
 25 26  1  0
 26 27  2  0
 27 28  1  0
 28 29  1  0
 29 30  1  0
 30 31  1  0
 31 32  1  0
 32 33  1  0
 27 34  1  0
 34 35  2  0
 23 36  2  0
 36 37  1  0
 37 38  1  0
 37  5  2  0
 36  7  1  0
 21 10  1  0
 35 24  1  0
 19 14  1  0
 33 28  1  0
  1 39  1  0
  1 40  1  0
  1 41  1  0
 11 42  1  0
 12 43  1  0
 15 44  1  0
 15 45  1  0
 16 46  1  0
 16 47  1  0
 18 48  1  0
 18 49  1  0
 19 50  1  0
 19 51  1  0
 20 52  1  0
 21 53  1  0
 22 54  1  0
 25 55  1  0
 26 56  1  0
 29 57  1  0
 29 58  1  0
 30 59  1  0
 30 60  1  0
 32 61  1  0
 32 62  1  0
 33 63  1  0
 33 64  1  0
 34 65  1  0
 35 66  1  0
 38 67  1  0
 38 68  1  0
M  END
>  <Binding energies>  (1) 
[-8.43]

>  <Ligand effiencies>  (1) 
[-0.21075]

>  <Interactions>  (1) 
["H-A:TYR:539:N:4870, V-B:TYR:539:CZ:9849, V-B:PRO:540:N:9856, V-B:TYR:539:CE1:9847, V-B:PRO:540:CB:9857, V-B:TYR:539:CD1:9845, V-B:PRO:540:CA:9855, V-B:TYR:539:CE2:9848, H-B:TYR:539:N:9842, H-B:TYR:531:OH:9767, V-B:PRO:540:CD:9859, V-B:ASP:366:CG:8184, V-B:MET:535:CE:9807, V-B:LEU:363:CD1:8160, V-B:PRO:540:CG:9858, V-B:TYR:539:CG:9844, V-A:MET:535:CE:4835, V-B:GLU:543:CG:9879, V-B:GLU:543:CB:9878, V-A:GLU:543:CD:4908, V-B:GLU:543:CD:9880, V-B:HIS:456:CE1:9041, V-B:GLY:544:C:9884, V-B:GLU:543:C:9874, V-B:HIS:456:CD2:9039, V-A:GLU:543:CG:4907, V-A:GLU:543:C:4902, V-A:GLU:543:CB:4906, V-B:TYR:484:CZ:9318, V-A:TYR:539:CE1:4875, V-A:TYR:539:CZ:4877, V-B:ILE:538:CG2:9835, V-A:TYR:539:CD1:4873, V-A:TYR:539:CD2:4874, V-A:ILE:538:CA:4860, V-A:TYR:539:CG:4872, V-A:TYR:539:CE2:4876, V-B:TYR:484:CE2:9317, V-B:ILE:538:CA:9832, V-B:ILE:538:C:9830"]

$$$$
RR10_Rahimova_2017
     RDKit          3D

 66 70  0  0  0  0  0  0  0  0999 V2000
  133.6990  124.5720   58.6040 C   0  0  0  0  0  0  0  0  0  0  0  0
  133.5050  124.0080   60.0230 C   0  0  1  0  0  0  0  0  0  0  0  0
  132.6120  124.9250   60.8910 C   0  0  0  0  0  0  0  0  0  0  0  0
  132.4600  124.3580   62.3210 C   0  0  0  0  0  0  0  0  0  0  0  0
  131.8690  122.9250   62.3210 C   0  0  1  0  0  0  0  0  0  0  0  0
  130.4680  122.9400   61.8780 N   0  0  0  0  0  0  0  0  0  0  0  0
  129.8160  121.9050   61.3190 C   0  0  0  0  0  0  0  0  0  0  0  0
  130.3370  120.8020   61.1360 O   0  0  0  0  0  0  0  0  0  0  0  0
  128.3560  122.1550   60.8880 C   0  0  1  0  0  0  0  0  0  0  0  0
  127.7020  123.1770   61.8550 C   0  0  0  0  0  0  0  0  0  0  0  0
  126.2680  123.5010   61.3720 C   0  0  0  0  0  0  0  0  0  0  0  0
  126.2250  123.9260   59.8860 C   0  0  0  0  0  0  0  0  0  0  0  0
  126.9270  122.9280   59.0340 N   0  0  0  0  0  0  0  0  0  0  0  0
  126.6860  123.1500   57.2930 S   0  0  0  0  0  0  0  0  0  0  0  0
  125.2650  123.4340   57.0610 O   0  0  0  0  0  0  0  0  0  0  0  0
  127.3400  122.0330   56.6010 O   0  0  0  0  0  0  0  0  0  0  0  0
  127.5830  124.6490   56.8870 C   0  0  0  0  0  0  0  0  0  0  0  0
  128.5720  124.6090   55.8990 C   0  0  0  0  0  0  0  0  0  0  0  0
  129.3080  125.7420   55.5380 C   0  0  0  0  0  0  0  0  0  0  0  0
  129.0040  126.9250   56.2150 C   0  0  0  0  0  0  0  0  0  0  0  0
  129.4920  128.2090   56.1540 N   0  0  0  0  0  0  0  0  0  0  0  0
  128.8010  128.9700   57.0740 C   0  0  0  0  0  0  0  0  0  0  0  0
  129.0610  130.4310   57.3070 C   0  0  0  0  0  0  0  0  0  0  0  0
  130.2580  131.0170   56.8720 C   0  0  0  0  0  0  0  0  0  0  0  0
  130.4980  132.3720   57.0840 C   0  0  0  0  0  0  0  0  0  0  0  0
  129.5420  133.1490   57.7330 C   0  0  0  0  0  0  0  0  0  0  0  0
  128.3480  132.5830   58.1700 C   0  0  0  0  0  0  0  0  0  0  0  0
  128.1090  131.2270   57.9580 C   0  0  0  0  0  0  0  0  0  0  0  0
  127.8980  128.2640   57.7180 N   0  0  0  0  0  0  0  0  0  0  0  0
  128.0020  126.9950   57.2120 C   0  0  0  0  0  0  0  0  0  0  0  0
  127.2780  125.8440   57.5510 C   0  0  0  0  0  0  0  0  0  0  0  0
  128.3370  122.6940   59.4360 C   0  0  0  0  0  0  0  0  0  0  0  0
  132.7650  122.0200   61.4320 C   0  0  0  0  0  0  0  0  0  0  0  0
  132.9130  122.5800   60.0000 C   0  0  0  0  0  0  0  0  0  0  0  0
  134.0562  125.6104   58.6678 H   0  0  0  0  0  0  0  0  0  0  0  0
  134.4390  123.9622   58.0650 H   0  0  0  0  0  0  0  0  0  0  0  0
  132.7404  124.5464   58.0650 H   0  0  0  0  0  0  0  0  0  0  0  0
  134.5073  123.9651   60.4741 H   0  0  0  0  0  0  0  0  0  0  0  0
  133.0692  125.9239   60.9469 H   0  0  0  0  0  0  0  0  0  0  0  0
  131.6153  124.9825   60.4291 H   0  0  0  0  0  0  0  0  0  0  0  0
  133.4501  124.3332   62.7997 H   0  0  0  0  0  0  0  0  0  0  0  0
  131.7663  125.0102   62.8717 H   0  0  0  0  0  0  0  0  0  0  0  0
  131.8634  122.5140   63.3413 H   0  0  0  0  0  0  0  0  0  0  0  0
  130.0090  123.8390   61.8980 H   0  0  0  0  0  0  0  0  0  0  0  0
  127.7856  121.2152   60.9267 H   0  0  0  0  0  0  0  0  0  0  0  0
  127.6597  122.7486   62.8672 H   0  0  0  0  0  0  0  0  0  0  0  0
  128.3001  124.1000   61.8717 H   0  0  0  0  0  0  0  0  0  0  0  0
  125.6417  122.6059   61.5011 H   0  0  0  0  0  0  0  0  0  0  0  0
  125.8963  124.3449   61.9716 H   0  0  0  0  0  0  0  0  0  0  0  0
  125.1765  124.0033   59.5625 H   0  0  0  0  0  0  0  0  0  0  0  0
  126.7289  124.8981   59.7810 H   0  0  0  0  0  0  0  0  0  0  0  0
  128.7775  123.6560   55.3896 H   0  0  0  0  0  0  0  0  0  0  0  0
  130.0859  125.7034   54.7612 H   0  0  0  0  0  0  0  0  0  0  0  0
  130.2240  128.5790   55.5650 H   0  0  0  0  0  0  0  0  0  0  0  0
  131.0127  130.4021   56.3597 H   0  0  0  0  0  0  0  0  0  0  0  0
  131.4388  132.8267   56.7403 H   0  0  0  0  0  0  0  0  0  0  0  0
  129.7321  134.2192   57.9017 H   0  0  0  0  0  0  0  0  0  0  0  0
  127.5966  133.2034   58.6804 H   0  0  0  0  0  0  0  0  0  0  0  0
  127.1663  130.7780   58.3041 H   0  0  0  0  0  0  0  0  0  0  0  0
  126.4907  125.8781   58.3185 H   0  0  0  0  0  0  0  0  0  0  0  0
  128.7969  121.9568   58.7614 H   0  0  0  0  0  0  0  0  0  0  0  0
  128.9046  123.6345   59.3777 H   0  0  0  0  0  0  0  0  0  0  0  0
  133.7625  121.9482   61.8901 H   0  0  0  0  0  0  0  0  0  0  0  0
  132.2869  121.0318   61.3626 H   0  0  0  0  0  0  0  0  0  0  0  0
  133.5809  121.9228   59.4238 H   0  0  0  0  0  0  0  0  0  0  0  0
  131.9172  122.6205   59.5344 H   0  0  0  0  0  0  0  0  0  0  0  0
  1  2  1  0
  2  3  1  0
  3  4  1  0
  4  5  1  0
  5  6  1  0
  6  7  1  0
  7  8  2  0
  7  9  1  0
  9 10  1  0
 10 11  1  0
 11 12  1  0
 12 13  1  0
 13 14  1  0
 14 15  2  0
 14 16  2  0
 14 17  1  0
 17 18  2  0
 18 19  1  0
 19 20  2  0
 20 21  1  0
 21 22  1  0
 22 23  1  0
 23 24  2  0
 24 25  1  0
 25 26  2  0
 26 27  1  0
 27 28  2  0
 22 29  2  0
 29 30  1  0
 30 31  2  0
 13 32  1  0
  5 33  1  0
 33 34  1  0
 34  2  1  0
 32  9  1  0
 31 17  1  0
 30 20  1  0
 28 23  1  0
  1 35  1  0
  1 36  1  0
  1 37  1  0
  2 38  1  1
  3 39  1  0
  3 40  1  0
  4 41  1  0
  4 42  1  0
  5 43  1  1
  6 44  1  0
  9 45  1  6
 10 46  1  0
 10 47  1  0
 11 48  1  0
 11 49  1  0
 12 50  1  0
 12 51  1  0
 18 52  1  0
 19 53  1  0
 21 54  1  0
 24 55  1  0
 25 56  1  0
 26 57  1  0
 27 58  1  0
 28 59  1  0
 31 60  1  0
 32 61  1  0
 32 62  1  0
 33 63  1  0
 33 64  1  0
 34 65  1  0
 34 66  1  0
M  END
>  <Binding energies>  (1) 
[-10.45]

>  <Ligand effiencies>  (1) 
[-0.29027777777777775]

>  <Interactions>  (1) 
["V-A:ASP:366:CG:3213, H-A:TYR:531:OH:4795, V-A:PRO:540:CA:4883, V-A:PRO:540:N:4884, V-A:TYR:539:C:4867, V-A:ASP:366:CB:3212, V-B:TYR:539:CZ:9849, V-B:PRO:540:N:9856, V-B:TYR:539:CE1:9847, V-B:PRO:540:CB:9857, V-B:PRO:540:CA:9855, V-B:TYR:539:CE2:9848, H-B:TYR:539:N:9842, H-B:TYR:531:OH:9767, V-B:TYR:539:C:9839, V-B:PRO:540:C:9853, V-B:TYR:539:CD2:9846, V-A:MET:535:CE:4835, V-A:ASP:366:C:3208, V-A:ASP:366:CA:3210, V-A:ILE:369:CB:3236, V-A:ILE:369:CG2:3237, V-A:LEU:475:CD2:4259, V-A:TYR:531:CZ:4794, V-A:TYR:539:CE1:4875, V-A:TYR:539:CD1:4873, V-A:TYR:539:CA:4869, H-A:MET:535:SD:4834"]

$$$$
RR11_Rahimova_2017
     RDKit          3D

 55 60  0  0  0  0  0  0  0  0999 V2000
  129.9640  132.8720   56.7540 N   0  0  0  0  0  0  0  0  0  0  0  0
  130.3680  131.6280   57.2340 C   0  0  0  0  0  0  0  0  0  0  0  0
  131.6870  131.4360   57.6400 C   0  0  0  0  0  0  0  0  0  0  0  0
  132.0890  130.1940   58.1220 C   0  0  0  0  0  0  0  0  0  0  0  0
  131.1790  129.1320   58.2010 C   0  0  0  0  0  0  0  0  0  0  0  0
  131.6120  127.7960   58.7260 C   0  0  0  0  0  0  0  0  0  0  0  0
  131.3730  127.3620   59.9440 N   0  0  0  0  0  0  0  0  0  0  0  0
  131.9230  126.1080   59.9970 C   0  0  0  0  0  0  0  0  0  0  0  0
  131.9480  125.1960   61.0600 C   0  0  0  0  0  0  0  0  0  0  0  0
  132.5640  123.9550   60.8580 C   0  0  0  0  0  0  0  0  0  0  0  0
  132.6120  122.9450   61.9970 C   0  0  0  0  0  0  0  0  0  0  0  0
  131.7550  123.3520   63.1880 C   0  0  0  0  0  0  0  0  0  0  0  0
  130.5840  122.6400   63.4690 C   0  0  0  0  0  0  0  0  0  0  0  0
  129.7700  122.9690   64.5550 C   0  0  0  0  0  0  0  0  0  0  0  0
  130.1590  124.0390   65.3710 C   0  0  0  0  0  0  0  0  0  0  0  0
  129.5370  124.5580   66.4770 N   0  0  0  0  0  0  0  0  0  0  0  0
  130.3030  125.5530   66.8710 C   0  0  0  0  0  0  0  0  0  0  0  0
  130.0100  126.4340   68.0510 C   0  0  0  0  0  0  0  0  0  0  0  0
  131.0050  127.2650   68.5820 C   0  0  0  0  0  0  0  0  0  0  0  0
  130.7360  128.0750   69.6830 C   0  0  0  0  0  0  0  0  0  0  0  0
  129.4690  128.0590   70.2610 C   0  0  0  0  0  0  0  0  0  0  0  0
  129.2000  128.8660   71.3660 N   0  0  0  0  0  0  0  0  0  0  0  0
  128.4690  127.2420   69.7410 C   0  0  0  0  0  0  0  0  0  0  0  0
  128.7390  126.4320   68.6400 C   0  0  0  0  0  0  0  0  0  0  0  0
  131.4120  125.7010   66.0650 N   0  0  0  0  0  0  0  0  0  0  0  0
  131.3520  124.7430   65.0820 C   0  0  0  0  0  0  0  0  0  0  0  0
  132.1740  124.4140   64.0000 C   0  0  0  0  0  0  0  0  0  0  0  0
  133.1630  123.6470   59.6320 C   0  0  0  0  0  0  0  0  0  0  0  0
  133.1590  124.5360   58.5540 C   0  0  0  0  0  0  0  0  0  0  0  0
  132.5270  125.7640   58.7640 C   0  0  0  0  0  0  0  0  0  0  0  0
  132.3100  126.8710   57.9760 N   0  0  0  0  0  0  0  0  0  0  0  0
  129.8550  129.3390   57.7880 C   0  0  0  0  0  0  0  0  0  0  0  0
  129.4510  130.5810   57.3060 C   0  0  0  0  0  0  0  0  0  0  0  0
  130.1380  133.1140   55.7890 H   0  0  0  0  0  0  0  0  0  0  0  0
  129.4650  133.5020   57.3660 H   0  0  0  0  0  0  0  0  0  0  0  0
  132.4086  132.2640   57.5797 H   0  0  0  0  0  0  0  0  0  0  0  0
  133.1303  130.0449   58.4437 H   0  0  0  0  0  0  0  0  0  0  0  0
  131.4947  125.4487   62.0299 H   0  0  0  0  0  0  0  0  0  0  0  0
  132.2529  121.9755   61.6214 H   0  0  0  0  0  0  0  0  0  0  0  0
  133.6542  122.8895   62.3445 H   0  0  0  0  0  0  0  0  0  0  0  0
  130.2974  121.8005   62.8186 H   0  0  0  0  0  0  0  0  0  0  0  0
  128.8496  122.4040   64.7637 H   0  0  0  0  0  0  0  0  0  0  0  0
  132.0060  127.2780   68.1262 H   0  0  0  0  0  0  0  0  0  0  0  0
  131.5219  128.7253   70.0946 H   0  0  0  0  0  0  0  0  0  0  0  0
  129.0680  128.4400   72.2720 H   0  0  0  0  0  0  0  0  0  0  0  0
  129.1750  129.8700   71.2540 H   0  0  0  0  0  0  0  0  0  0  0  0
  127.4685  127.2359   70.1981 H   0  0  0  0  0  0  0  0  0  0  0  0
  127.9484  125.7862   68.2303 H   0  0  0  0  0  0  0  0  0  0  0  0
  132.1140  126.4120   66.2120 H   0  0  0  0  0  0  0  0  0  0  0  0
  133.1052  124.9628   63.7960 H   0  0  0  0  0  0  0  0  0  0  0  0
  133.6546  122.6703   59.5123 H   0  0  0  0  0  0  0  0  0  0  0  0
  133.6282  124.2826   57.5919 H   0  0  0  0  0  0  0  0  0  0  0  0
  132.5860  127.0270   57.0180 H   0  0  0  0  0  0  0  0  0  0  0  0
  129.1300  128.5137   57.8453 H   0  0  0  0  0  0  0  0  0  0  0  0
  128.4109  130.7355   56.9829 H   0  0  0  0  0  0  0  0  0  0  0  0
  1  2  1  0
  2  3  2  0
  3  4  1  0
  4  5  2  0
  5  6  1  0
  6  7  2  0
  7  8  1  0
  8  9  2  0
  9 10  1  0
 10 11  1  0
 11 12  1  0
 12 13  2  0
 13 14  1  0
 14 15  2  0
 15 16  1  0
 16 17  2  0
 17 18  1  0
 18 19  2  0
 19 20  1  0
 20 21  2  0
 21 22  1  0
 21 23  1  0
 23 24  2  0
 17 25  1  0
 25 26  1  0
 26 27  2  0
 10 28  2  0
 28 29  1  0
 29 30  2  0
 30 31  1  0
  5 32  1  0
 32 33  2  0
 33  2  1  0
 31  6  1  0
 30  8  1  0
 27 12  1  0
 26 15  1  0
 24 18  1  0
  1 34  1  0
  1 35  1  0
  3 36  1  0
  4 37  1  0
  9 38  1  0
 11 39  1  0
 11 40  1  0
 13 41  1  0
 14 42  1  0
 19 43  1  0
 20 44  1  0
 22 45  1  0
 22 46  1  0
 23 47  1  0
 24 48  1  0
 25 49  1  0
 27 50  1  0
 28 51  1  0
 29 52  1  0
 31 53  1  0
 32 54  1  0
 33 55  1  0
M  END
>  <Binding energies>  (1) 
[-8.62]

>  <Ligand effiencies>  (1) 
[-0.221025641025641]

>  <Interactions>  (1) 
["V-A:LEU:363:CD1:3189, V-A:ASP:366:CG:3213, H-A:TYR:531:OH:4795, V-A:ASP:366:CB:3212, V-B:TYR:539:CZ:9849, V-B:TYR:539:CE2:9848, V-A:MET:535:CE:4835, V-B:ALA:541:CB:9864, V-A:ASP:366:CA:3210, V-B:GLU:543:CG:9879, H-A:ASP:366:O:3209, V-A:ILE:369:CG2:3237, V-A:LEU:475:CD2:4259, V-A:TYR:484:CZ:4347, V-B:GLU:543:CB:9878, H-A:TYR:484:OH:4348, V-A:GLU:543:CD:4908, V-A:TYR:484:CE2:4346, V-B:HIS:456:CE1:9041, V-A:GLY:544:C:4912, V-B:GLU:543:C:9874, V-B:HIS:456:CD2:9039, V-A:HIS:456:CE1:4070, V-A:GLU:543:C:4902, V-A:GLU:543:CB:4906, V-A:TYR:531:CZ:4794, V-A:ARG:545:CG:4922, H-A:GLU:543:OE2:4910, V-A:GLU:543:CA:4904, H-B:HIS:456:NE2:9042, H-A:GLU:543:O:4903, V-B:GLU:543:CA:9876, V-A:ILE:538:CA:4860"]

$$$$
RR11_Rahimova_2017-again1
     RDKit          3D

 56 61  0  0  0  0  0  0  0  0999 V2000
  129.2140  128.7860   71.4350 N   0  0  0  0  0  0  0  0  0  0  0  0
  129.4770  127.9960   70.3170 C   0  0  0  0  0  0  0  0  0  0  0  0
  128.4950  127.1370   69.8280 C   0  0  0  0  0  0  0  0  0  0  0  0
  128.7590  126.3460   68.7120 C   0  0  0  0  0  0  0  0  0  0  0  0
  130.0070  126.4060   68.0780 C   0  0  0  0  0  0  0  0  0  0  0  0
  130.2940  125.5470   66.8810 C   0  0  0  0  0  0  0  0  0  0  0  0
  129.5610  124.5210   66.5110 N   0  0  0  0  0  0  0  0  0  0  0  0
  130.1820  124.0150   65.3990 C   0  0  0  0  0  0  0  0  0  0  0  0
  129.8250  122.9160   64.6060 C   0  0  0  0  0  0  0  0  0  0  0  0
  130.6430  122.5930   63.5220 C   0  0  0  0  0  0  0  0  0  0  0  0
  131.7920  123.3330   63.2240 C   0  0  0  0  0  0  0  0  0  0  0  0
  132.6510  122.9340   62.0330 C   0  0  0  0  0  0  0  0  0  0  0  0
  132.5890  123.9480   60.8990 C   0  0  0  0  0  0  0  0  0  0  0  0
  133.0970  123.6080   59.6400 C   0  0  0  0  0  0  0  0  0  0  0  0
  133.0690  124.4970   58.5620 C   0  0  0  0  0  0  0  0  0  0  0  0
  132.5030  125.7530   58.8000 C   0  0  0  0  0  0  0  0  0  0  0  0
  132.3260  126.8590   57.9800 N   0  0  0  0  0  0  0  0  0  0  0  0
  131.7160  127.8740   58.6810 C   0  0  0  0  0  0  0  0  0  0  0  0
  131.3650  129.2340   58.1710 C   0  0  0  0  0  0  0  0  0  0  0  0
  130.0600  129.5090   57.7460 C   0  0  0  0  0  0  0  0  0  0  0  0
  129.7250  130.7770   57.2770 C   0  0  0  0  0  0  0  0  0  0  0  0
  130.6950  131.7760   57.2300 C   0  0  0  0  0  0  0  0  0  0  0  0
  130.3580  133.0460   56.7650 N   0  0  0  0  0  0  0  0  0  0  0  0
  131.9990  131.5120   57.6490 C   0  0  0  0  0  0  0  0  0  0  0  0
  132.3330  130.2450   58.1180 C   0  0  0  0  0  0  0  0  0  0  0  0
  131.5030  127.3940   59.9520 N   0  0  0  0  0  0  0  0  0  0  0  0
  131.9790  126.0950   60.0580 C   0  0  0  0  0  0  0  0  0  0  0  0
  132.0030  125.1990   61.1300 C   0  0  0  0  0  0  0  0  0  0  0  0
  132.1560  124.4510   63.9880 C   0  0  0  0  0  0  0  0  0  0  0  0
  131.3380  124.7640   65.0760 C   0  0  0  0  0  0  0  0  0  0  0  0
  131.3730  125.7400   66.0440 N   0  0  0  0  0  0  0  0  0  0  0  0
  130.9850  127.2750   68.5800 C   0  0  0  0  0  0  0  0  0  0  0  0
  130.7210  128.0680   69.6950 C   0  0  0  0  0  0  0  0  0  0  0  0
  128.8850  128.3510   72.2840 H   0  0  0  0  0  0  0  0  0  0  0  0
  129.3180  129.7880   71.3700 H   0  0  0  0  0  0  0  0  0  0  0  0
  127.5136  127.0835   70.3220 H   0  0  0  0  0  0  0  0  0  0  0  0
  127.9822  125.6696   68.3259 H   0  0  0  0  0  0  0  0  0  0  0  0
  128.9254  122.3245   64.8315 H   0  0  0  0  0  0  0  0  0  0  0  0
  130.3775  121.7354   62.8864 H   0  0  0  0  0  0  0  0  0  0  0  0
  133.6951  122.8426   62.3669 H   0  0  0  0  0  0  0  0  0  0  0  0
  132.2626  121.9798   61.6476 H   0  0  0  0  0  0  0  0  0  0  0  0
  133.5325  122.6085   59.4942 H   0  0  0  0  0  0  0  0  0  0  0  0
  133.4720  124.2223   57.5760 H   0  0  0  0  0  0  0  0  0  0  0  0
  132.5930  126.9550   57.0110 H   0  0  0  0  0  0  0  0  0  0  0  0
  129.2949  128.7195   57.7826 H   0  0  0  0  0  0  0  0  0  0  0  0
  128.6980  130.9890   56.9448 H   0  0  0  0  0  0  0  0  0  0  0  0
  131.0110  133.5540   56.1850 H   0  0  0  0  0  0  0  0  0  0  0  0
  129.4760  133.4570   57.0350 H   0  0  0  0  0  0  0  0  0  0  0  0
  132.7617  132.3036   57.6088 H   0  0  0  0  0  0  0  0  0  0  0  0
  133.3613  130.0367   58.4484 H   0  0  0  0  0  0  0  0  0  0  0  0
  131.0640  127.9480   60.6720 H   0  0  0  0  0  0  0  0  0  0  0  0
  131.5809  125.4641   62.1106 H   0  0  0  0  0  0  0  0  0  0  0  0
  133.0434  125.0528   63.7422 H   0  0  0  0  0  0  0  0  0  0  0  0
  132.0480  126.4800   66.1700 H   0  0  0  0  0  0  0  0  0  0  0  0
  131.9684  127.3316   68.0903 H   0  0  0  0  0  0  0  0  0  0  0  0
  131.4930  128.7489   70.0828 H   0  0  0  0  0  0  0  0  0  0  0  0
  1  2  1  0
  2  3  2  0
  3  4  1  0
  4  5  2  0
  5  6  1  0
  6  7  2  0
  7  8  1  0
  8  9  2  0
  9 10  1  0
 10 11  2  0
 11 12  1  0
 12 13  1  0
 13 14  2  0
 14 15  1  0
 15 16  2  0
 16 17  1  0
 17 18  1  0
 18 19  1  0
 19 20  2  0
 20 21  1  0
 21 22  2  0
 22 23  1  0
 22 24  1  0
 24 25  2  0
 18 26  2  0
 26 27  1  0
 27 28  2  0
 11 29  1  0
 29 30  2  0
 30 31  1  0
  5 32  1  0
 32 33  2  0
 33  2  1  0
 31  6  1  0
 30  8  1  0
 28 13  1  0
 27 16  1  0
 25 19  1  0
  1 34  1  0
  1 35  1  0
  3 36  1  0
  4 37  1  0
  9 38  1  0
 10 39  1  0
 12 40  1  0
 12 41  1  0
 14 42  1  0
 15 43  1  0
 17 44  1  0
 20 45  1  0
 21 46  1  0
 23 47  1  0
 23 48  1  0
 24 49  1  0
 25 50  1  0
 26 51  1  0
 28 52  1  0
 29 53  1  0
 31 54  1  0
 32 55  1  0
 33 56  1  0
M  CHG  1  26   1
M  END
>  <Binding energies>  (1) 
[-9.28]

>  <Ligand effiencies>  (1) 
[-0.23199999999999998]

>  <Interactions>  (1) 
["V-A:LEU:363:CD1:3189, V-A:ASP:366:CG:3213, H-A:TYR:531:OH:4795, H-B:TYR:539:OH:9850, V-A:PRO:540:CB:4885, H-A:ASP:366:OD2:3215, V-A:PRO:540:N:4884, V-A:ASP:366:CB:3212, V-B:TYR:539:CZ:9849, V-B:TYR:539:CE2:9848, V-A:MET:535:CE:4835, V-B:ALA:541:CB:9864, V-A:ASP:366:CA:3210, V-B:GLU:543:CG:9879, H-A:ASP:366:O:3209, V-A:ILE:369:CG2:3237, V-A:LEU:475:CD2:4259, V-A:TYR:484:CZ:4347, V-B:GLU:543:CB:9878, H-A:TYR:484:OH:4348, V-A:GLU:543:CD:4908, V-A:TYR:484:CE2:4346, V-B:HIS:456:CE1:9041, V-A:GLY:544:C:4912, V-B:GLU:543:C:9874, V-B:HIS:456:CD2:9039, V-A:HIS:456:CE1:4070, V-A:GLU:543:C:4902, V-A:GLU:543:CB:4906, V-A:TYR:531:CZ:4794, H-A:GLU:543:OE1:4909, V-A:ARG:545:CG:4922, H-A:GLU:543:OE2:4910, V-A:GLU:543:CA:4904, H-B:HIS:456:NE2:9042, H-A:GLU:543:O:4903, V-B:GLU:543:CA:9876, V-A:ILE:538:CA:4860, V-A:ILE:538:CB:4862"]

$$$$
RR11_Rahimova_2017-again2
     RDKit          3D

 57 62  0  0  0  0  0  0  0  0999 V2000
  129.1490  128.8950   71.3560 N   0  0  0  0  0  0  0  0  0  0  0  0
  129.4350  128.0800   70.2620 C   0  0  0  0  0  0  0  0  0  0  0  0
  130.7080  128.1020   69.6950 C   0  0  0  0  0  0  0  0  0  0  0  0
  130.9920  127.2920   68.5990 C   0  0  0  0  0  0  0  0  0  0  0  0
  130.0040  126.4560   68.0620 C   0  0  0  0  0  0  0  0  0  0  0  0
  130.3050  125.5950   66.8800 C   0  0  0  0  0  0  0  0  0  0  0  0
  131.3490  125.7470   65.9950 N   0  0  0  0  0  0  0  0  0  0  0  0
  131.3120  124.7410   65.0380 C   0  0  0  0  0  0  0  0  0  0  0  0
  132.1450  124.4610   63.9510 C   0  0  0  0  0  0  0  0  0  0  0  0
  131.8280  123.3340   63.1830 C   0  0  0  0  0  0  0  0  0  0  0  0
  132.7020  122.9750   61.9890 C   0  0  0  0  0  0  0  0  0  0  0  0
  132.6140  123.9970   60.8640 C   0  0  0  0  0  0  0  0  0  0  0  0
  133.1750  123.7010   59.6160 C   0  0  0  0  0  0  0  0  0  0  0  0
  133.1260  124.5990   58.5470 C   0  0  0  0  0  0  0  0  0  0  0  0
  132.4800  125.8150   58.7800 C   0  0  0  0  0  0  0  0  0  0  0  0
  132.2610  126.9160   57.9630 N   0  0  0  0  0  0  0  0  0  0  0  0
  131.5720  127.8880   58.6530 C   0  0  0  0  0  0  0  0  0  0  0  0
  131.1560  129.2280   58.1400 C   0  0  0  0  0  0  0  0  0  0  0  0
  129.8640  129.4230   57.6410 C   0  0  0  0  0  0  0  0  0  0  0  0
  129.4720  130.6740   57.1720 C   0  0  0  0  0  0  0  0  0  0  0  0
  130.3720  131.7370   57.2010 C   0  0  0  0  0  0  0  0  0  0  0  0
  129.9790  132.9920   56.7380 N   0  0  0  0  0  0  0  0  0  0  0  0
  131.6640  131.5540   57.6930 C   0  0  0  0  0  0  0  0  0  0  0  0
  132.0540  130.3020   58.1620 C   0  0  0  0  0  0  0  0  0  0  0  0
  131.3510  127.3840   59.9140 N   0  0  0  0  0  0  0  0  0  0  0  0
  131.9020  126.1140   60.0240 C   0  0  0  0  0  0  0  0  0  0  0  0
  131.9480  125.2100   61.0890 C   0  0  0  0  0  0  0  0  0  0  0  0
  130.7090  122.5470   63.4780 C   0  0  0  0  0  0  0  0  0  0  0  0
  129.8680  122.8260   64.5590 C   0  0  0  0  0  0  0  0  0  0  0  0
  130.1980  123.9390   65.3360 C   0  0  0  0  0  0  0  0  0  0  0  0
  129.6030  124.4870   66.4650 N   0  0  0  0  0  0  0  0  0  0  0  0
  128.7300  126.4400   68.6420 C   0  0  0  0  0  0  0  0  0  0  0  0
  128.4460  127.2500   69.7390 C   0  0  0  0  0  0  0  0  0  0  0  0
  129.1500  129.8990   71.2420 H   0  0  0  0  0  0  0  0  0  0  0  0
  129.0090  128.4780   72.2650 H   0  0  0  0  0  0  0  0  0  0  0  0
  131.4863  128.7577   70.1125 H   0  0  0  0  0  0  0  0  0  0  0  0
  131.9971  127.3083   68.1523 H   0  0  0  0  0  0  0  0  0  0  0  0
  132.0220  126.4940   66.0760 H   0  0  0  0  0  0  0  0  0  0  0  0
  133.0097  125.0968   63.7101 H   0  0  0  0  0  0  0  0  0  0  0  0
  133.7474  122.9118   62.3252 H   0  0  0  0  0  0  0  0  0  0  0  0
  132.3418  122.0144   61.5922 H   0  0  0  0  0  0  0  0  0  0  0  0
  133.6706  122.7295   59.4724 H   0  0  0  0  0  0  0  0  0  0  0  0
  133.5737  124.3603   57.5710 H   0  0  0  0  0  0  0  0  0  0  0  0
  132.5490  127.0370   57.0030 H   0  0  0  0  0  0  0  0  0  0  0  0
  129.1537  128.5834   57.6190 H   0  0  0  0  0  0  0  0  0  0  0  0
  128.4551  130.8225   56.7799 H   0  0  0  0  0  0  0  0  0  0  0  0
  130.2430  133.2850   55.8090 H   0  0  0  0  0  0  0  0  0  0  0  0
  129.4900  133.6200   57.3600 H   0  0  0  0  0  0  0  0  0  0  0  0
  132.3724  132.3954   57.7106 H   0  0  0  0  0  0  0  0  0  0  0  0
  133.0723  130.1562   58.5516 H   0  0  0  0  0  0  0  0  0  0  0  0
  130.8600  127.9050   60.6260 H   0  0  0  0  0  0  0  0  0  0  0  0
  131.4830  125.4397   62.0591 H   0  0  0  0  0  0  0  0  0  0  0  0
  130.4840  121.6808   62.8384 H   0  0  0  0  0  0  0  0  0  0  0  0
  128.9915  122.2014   64.7862 H   0  0  0  0  0  0  0  0  0  0  0  0
  128.7820  124.1570   66.9500 H   0  0  0  0  0  0  0  0  0  0  0  0
  127.9491  125.7843   68.2293 H   0  0  0  0  0  0  0  0  0  0  0  0
  127.4434  127.2343   70.1912 H   0  0  0  0  0  0  0  0  0  0  0  0
  1  2  1  0
  2  3  2  0
  3  4  1  0
  4  5  2  0
  5  6  1  0
  6  7  1  0
  7  8  1  0
  8  9  2  0
  9 10  1  0
 10 11  1  0
 11 12  1  0
 12 13  2  0
 13 14  1  0
 14 15  2  0
 15 16  1  0
 16 17  1  0
 17 18  1  0
 18 19  2  0
 19 20  1  0
 20 21  2  0
 21 22  1  0
 21 23  1  0
 23 24  2  0
 17 25  2  0
 25 26  1  0
 26 27  2  0
 10 28  2  0
 28 29  1  0
 29 30  2  0
 30 31  1  0
  5 32  1  0
 32 33  2  0
 33  2  1  0
 31  6  2  0
 30  8  1  0
 27 12  1  0
 26 15  1  0
 24 18  1  0
  1 34  1  0
  1 35  1  0
  3 36  1  0
  4 37  1  0
  7 38  1  0
  9 39  1  0
 11 40  1  0
 11 41  1  0
 13 42  1  0
 14 43  1  0
 16 44  1  0
 19 45  1  0
 20 46  1  0
 22 47  1  0
 22 48  1  0
 23 49  1  0
 24 50  1  0
 25 51  1  0
 27 52  1  0
 28 53  1  0
 29 54  1  0
 31 55  1  0
 32 56  1  0
 33 57  1  0
M  CHG  2  25   1  31   1
M  END
>  <Binding energies>  (1) 
[-9.69]

>  <Ligand effiencies>  (1) 
[-0.23634146341463413]

>  <Interactions>  (1) 
["V-A:LEU:363:CD1:3189, V-A:ASP:366:CG:3213, H-A:TYR:531:OH:4795, H-A:ASP:366:OD2:3215, V-A:PRO:540:N:4884, V-A:ASP:366:CB:3212, V-B:TYR:539:CZ:9849, V-B:TYR:539:CE2:9848, V-A:MET:535:CE:4835, V-B:ALA:541:CB:9864, V-A:ASP:366:CA:3210, V-B:GLU:543:CG:9879, H-A:ASP:366:O:3209, V-A:ILE:369:CG2:3237, V-A:LEU:475:CD2:4259, V-A:TYR:484:CZ:4347, V-B:GLU:543:CB:9878, V-A:GLU:543:CD:4908, V-A:TYR:484:CE2:4346, V-B:GLU:543:CD:9880, V-B:HIS:456:CE1:9041, V-A:GLY:544:C:4912, V-B:GLU:543:C:9874, V-B:HIS:456:CD2:9039, V-A:HIS:456:CE1:4070, V-A:GLU:543:C:4902, V-A:GLU:543:CB:4906, V-A:TYR:531:CZ:4794, H-A:GLU:543:OE1:4909, V-A:ARG:545:CG:4922, H-A:GLU:543:OE2:4910, V-A:GLU:543:CA:4904, H-B:GLU:543:O:9875, H-B:HIS:456:NE2:9042, H-A:GLU:543:O:4903, V-B:GLU:543:CA:9876, V-A:ILE:538:CA:4860, V-A:ILE:538:CB:4862, H-A:TYR:539:O:4868"]

$$$$
RR12_Rahimova_2017
     RDKit          3D

 51 53  0  0  0  0  0  0  0  0999 V2000
  132.3310  120.5400   60.6760 C   0  0  0  0  0  0  0  0  0  0  0  0
  133.5530  121.1260   61.3940 C   0  0  0  0  0  0  0  0  0  0  0  0
  133.2030  122.3570   62.2500 C   0  0  0  0  0  0  0  0  0  0  0  0
  132.3190  123.2610   61.5180 N   0  0  0  0  0  0  0  0  0  0  0  0
  131.0640  123.7080   61.9010 C   0  0  0  0  0  0  0  0  0  0  0  0
  130.3620  123.2720   63.1760 C   0  0  0  0  0  0  0  0  0  0  0  0
  129.5250  121.9950   62.9780 C   0  0  0  0  0  0  0  0  0  0  0  0
  129.0380  121.8210   61.5260 C   0  0  0  0  0  0  0  0  0  0  0  0
  128.3020  122.9740   61.0090 N   0  0  0  0  0  0  0  0  0  0  0  0
  127.0850  123.3640   61.4290 C   0  0  0  0  0  0  0  0  0  0  0  0
  126.4530  122.7750   62.3090 O   0  0  0  0  0  0  0  0  0  0  0  0
  126.5140  124.6120   60.7430 C   0  0  0  0  0  0  0  0  0  0  0  0
  127.1300  124.7770   59.4650 O   0  0  0  0  0  0  0  0  0  0  0  0
  126.7050  124.0000   58.4030 C   0  0  0  0  0  0  0  0  0  0  0  0
  127.6950  123.2930   57.7160 C   0  0  0  0  0  0  0  0  0  0  0  0
  127.3630  122.4820   56.6350 C   0  0  0  0  0  0  0  0  0  0  0  0
  126.0340  122.3750   56.2370 C   0  0  0  0  0  0  0  0  0  0  0  0
  125.0340  123.0750   56.9080 C   0  0  0  0  0  0  0  0  0  0  0  0
  125.3680  123.8870   57.9900 C   0  0  0  0  0  0  0  0  0  0  0  0
  130.5240  124.5380   61.0430 N   0  0  0  0  0  0  0  0  0  0  0  0
  131.4580  124.6790   60.0550 C   0  0  0  0  0  0  0  0  0  0  0  0
  131.4020  125.4640   58.8930 C   0  0  0  0  0  0  0  0  0  0  0  0
  132.5000  125.4430   58.0330 C   0  0  0  0  0  0  0  0  0  0  0  0
  133.6250  124.6660   58.3120 C   0  0  0  0  0  0  0  0  0  0  0  0
  133.7100  123.8730   59.4590 C   0  0  0  0  0  0  0  0  0  0  0  0
  132.6070  123.8940   60.3220 C   0  0  0  0  0  0  0  0  0  0  0  0
  131.6011  120.1900   61.4208 H   0  0  0  0  0  0  0  0  0  0  0  0
  131.8694  121.3147   60.0461 H   0  0  0  0  0  0  0  0  0  0  0  0
  132.6461  119.6950   60.0461 H   0  0  0  0  0  0  0  0  0  0  0  0
  133.9818  120.3525   62.0481 H   0  0  0  0  0  0  0  0  0  0  0  0
  134.2690  121.4486   60.6237 H   0  0  0  0  0  0  0  0  0  0  0  0
  132.6990  122.0256   63.1699 H   0  0  0  0  0  0  0  0  0  0  0  0
  134.1319  122.8927   62.4953 H   0  0  0  0  0  0  0  0  0  0  0  0
  131.1206  123.0808   63.9492 H   0  0  0  0  0  0  0  0  0  0  0  0
  129.6768  124.0792   63.4744 H   0  0  0  0  0  0  0  0  0  0  0  0
  130.1412  121.1250   63.2489 H   0  0  0  0  0  0  0  0  0  0  0  0
  128.6348  122.0790   63.6187 H   0  0  0  0  0  0  0  0  0  0  0  0
  129.9150  121.6528   60.8837 H   0  0  0  0  0  0  0  0  0  0  0  0
  128.3431  120.9683   61.5208 H   0  0  0  0  0  0  0  0  0  0  0  0
  128.7590  123.5090   60.2850 H   0  0  0  0  0  0  0  0  0  0  0  0
  125.4279  124.4949   60.6141 H   0  0  0  0  0  0  0  0  0  0  0  0
  126.7164  125.4968   61.3644 H   0  0  0  0  0  0  0  0  0  0  0  0
  128.7452  123.3781   58.0321 H   0  0  0  0  0  0  0  0  0  0  0  0
  128.1472  121.9283   56.0979 H   0  0  0  0  0  0  0  0  0  0  0  0
  125.7706  121.7316   55.3845 H   0  0  0  0  0  0  0  0  0  0  0  0
  123.9860  122.9872   56.5854 H   0  0  0  0  0  0  0  0  0  0  0  0
  124.5812  124.4415   58.5225 H   0  0  0  0  0  0  0  0  0  0  0  0
  130.5178  126.0781   58.6670 H   0  0  0  0  0  0  0  0  0  0  0  0
  132.4786  126.0511   57.1166 H   0  0  0  0  0  0  0  0  0  0  0  0
  134.4700  124.6783   57.6079 H   0  0  0  0  0  0  0  0  0  0  0  0
  134.5993  123.2622   59.6738 H   0  0  0  0  0  0  0  0  0  0  0  0
  1  2  1  0
  2  3  1  0
  3  4  1  0
  4  5  1  0
  5  6  1  0
  6  7  1  0
  7  8  1  0
  8  9  1  0
  9 10  1  0
 10 11  2  0
 10 12  1  0
 12 13  1  0
 13 14  1  0
 14 15  2  0
 15 16  1  0
 16 17  2  0
 17 18  1  0
 18 19  2  0
  5 20  2  0
 20 21  1  0
 21 22  2  0
 22 23  1  0
 23 24  2  0
 24 25  1  0
 25 26  2  0
 26  4  1  0
 19 14  1  0
 26 21  1  0
  1 27  1  0
  1 28  1  0
  1 29  1  0
  2 30  1  0
  2 31  1  0
  3 32  1  0
  3 33  1  0
  6 34  1  0
  6 35  1  0
  7 36  1  0
  7 37  1  0
  8 38  1  0
  8 39  1  0
  9 40  1  0
 12 41  1  0
 12 42  1  0
 15 43  1  0
 16 44  1  0
 17 45  1  0
 18 46  1  0
 19 47  1  0
 22 48  1  0
 23 49  1  0
 24 50  1  0
 25 51  1  0
M  END
>  <Binding energies>  (1) 
[-6.35]

>  <Ligand effiencies>  (1) 
[-0.23518518518518516]

>  <Interactions>  (1) 
["V-A:ASP:366:CG:3213, V-A:ASP:366:CB:3212, V-B:TYR:539:CZ:9849, V-B:PRO:540:N:9856, V-B:TYR:539:CE1:9847, V-B:PRO:540:CB:9857, V-B:TYR:539:CD1:9845, V-B:PRO:540:CA:9855, V-B:TYR:539:CE2:9848, V-B:PRO:540:CD:9859, V-B:MET:535:CE:9807, V-B:LEU:363:CD1:8160, V-B:TYR:539:C:9839, V-B:TYR:539:CG:9844, V-B:PRO:540:C:9853, H-B:ALA:541:N:9863, V-B:TYR:539:CD2:9846, V-B:ALA:541:CB:9864, V-A:ASP:366:C:3208, V-A:ASP:366:CA:3210, V-A:ILE:369:CD1:3239, V-A:ILE:369:CB:3236, V-A:ILE:369:CG2:3237, V-A:LEU:475:CD2:4259, V-B:ILE:538:CG2:9835, V-A:SER:385:CA:3407, V-A:SER:385:CB:3409, V-A:SER:385:C:3405"]

$$$$
RR13_Rahimova_2017
     RDKit          3D

 84 90  0  0  0  0  0  0  0  0999 V2000
  128.4720  122.7770   60.9920 Cl  0  0  0  0  0  0  0  0  0  0  0  0
  128.3370  123.3400   59.3600 C   0  0  0  0  0  0  0  0  0  0  0  0
  127.2890  122.8380   58.5840 C   0  0  0  0  0  0  0  0  0  0  0  0
  127.1390  123.2350   57.2580 C   0  0  0  0  0  0  0  0  0  0  0  0
  128.0390  124.1370   56.6980 C   0  0  0  0  0  0  0  0  0  0  0  0
  129.0870  124.6420   57.4650 C   0  0  0  0  0  0  0  0  0  0  0  0
  129.2480  124.2630   58.8080 C   0  0  0  0  0  0  0  0  0  0  0  0
  130.4320  124.8180   59.6300 C   0  0  1  0  0  0  0  0  0  0  0  0
  131.7300  124.8000   58.8100 C   0  0  0  0  0  0  0  0  0  0  0  0
  132.0270  125.5790   57.7930 N   0  0  0  0  0  0  0  0  0  0  0  0
  133.2870  125.1780   57.3600 N   0  0  0  0  0  0  0  0  0  0  0  0
  133.7380  124.1220   58.1280 N   0  0  0  0  0  0  0  0  0  0  0  0
  132.7500  123.8920   58.9990 N   0  0  0  0  0  0  0  0  0  0  0  0
  132.8880  122.8540   60.0140 C   0  0  0  0  0  0  0  0  0  0  0  0
  133.6510  123.4000   61.2360 C   0  0  0  0  0  0  0  0  0  0  0  0
  132.7160  123.7970   62.3670 C   0  0  0  0  0  0  0  0  0  0  0  0
  131.6040  123.0040   62.6640 C   0  0  0  0  0  0  0  0  0  0  0  0
  130.7440  123.3730   63.6950 C   0  0  0  0  0  0  0  0  0  0  0  0
  130.9990  124.5330   64.4250 C   0  0  0  0  0  0  0  0  0  0  0  0
  132.1050  125.3270   64.1330 C   0  0  0  0  0  0  0  0  0  0  0  0
  132.9660  124.9590   63.1020 C   0  0  0  0  0  0  0  0  0  0  0  0
  130.1620  126.1460   60.2320 N   0  0  0  0  0  0  0  0  0  0  0  0
  129.2530  126.9270   59.3730 C   0  0  0  0  0  0  0  0  0  0  0  0
  128.8610  128.2590   60.0560 C   0  0  0  0  0  0  0  0  0  0  0  0
  130.0530  129.0870   60.3000 N   0  0  0  0  0  0  0  0  0  0  0  0
  129.7160  130.4080   60.8790 C   0  0  1  0  0  0  0  0  0  0  0  0
  128.6690  130.3900   62.0150 C   0  0  0  0  0  0  0  0  0  0  0  0
  128.6370  129.2560   62.8380 C   0  0  0  0  0  0  0  0  0  0  0  0
  127.7360  129.1600   63.8980 C   0  0  0  0  0  0  0  0  0  0  0  0
  126.8450  130.2000   64.1470 C   0  0  0  0  0  0  0  0  0  0  0  0
  126.8490  131.3280   63.3320 C   0  0  0  0  0  0  0  0  0  0  0  0
  127.7450  131.4320   62.2650 C   0  0  0  0  0  0  0  0  0  0  0  0
  127.6250  132.8430   61.2670 Cl  0  0  0  0  0  0  0  0  0  0  0  0
  130.9470  131.2070   61.3130 C   0  0  0  0  0  0  0  0  0  0  0  0
  131.0980  131.8050   62.4720 N   0  0  0  0  0  0  0  0  0  0  0  0
  132.3610  132.3870   62.4410 N   0  0  0  0  0  0  0  0  0  0  0  0
  132.9790  132.1130   61.2380 N   0  0  0  0  0  0  0  0  0  0  0  0
  132.0960  131.3640   60.5660 N   0  0  0  0  0  0  0  0  0  0  0  0
  132.4080  130.8990   59.2190 C   0  0  0  0  0  0  0  0  0  0  0  0
  132.4830  132.0880   58.2440 C   0  0  0  0  0  0  0  0  0  0  0  0
  131.1290  132.4180   57.6350 C   0  0  0  0  0  0  0  0  0  0  0  0
  130.0170  132.5950   58.4620 C   0  0  0  0  0  0  0  0  0  0  0  0
  128.7790  132.9040   57.9050 C   0  0  0  0  0  0  0  0  0  0  0  0
  128.6570  133.0340   56.5220 C   0  0  0  0  0  0  0  0  0  0  0  0
  129.7640  132.8590   55.6930 C   0  0  0  0  0  0  0  0  0  0  0  0
  131.0020  132.5510   56.2490 C   0  0  0  0  0  0  0  0  0  0  0  0
  130.9570  128.3050   61.1630 C   0  0  0  0  0  0  0  0  0  0  0  0
  131.3530  126.9800   60.4710 C   0  0  0  0  0  0  0  0  0  0  0  0
  126.5773  122.1239   59.0240 H   0  0  0  0  0  0  0  0  0  0  0  0
  126.3106  122.8365   56.6539 H   0  0  0  0  0  0  0  0  0  0  0  0
  127.9230  124.4511   55.6502 H   0  0  0  0  0  0  0  0  0  0  0  0
  129.7988  125.3479   57.0121 H   0  0  0  0  0  0  0  0  0  0  0  0
  130.5657  124.1389   60.4849 H   0  0  0  0  0  0  0  0  0  0  0  0
  131.8887  122.5198   60.3297 H   0  0  0  0  0  0  0  0  0  0  0  0
  133.4504  122.0098   59.5886 H   0  0  0  0  0  0  0  0  0  0  0  0
  134.3381  122.6224   61.6010 H   0  0  0  0  0  0  0  0  0  0  0  0
  134.1974  124.3002   60.9181 H   0  0  0  0  0  0  0  0  0  0  0  0
  131.4086  122.0899   62.0842 H   0  0  0  0  0  0  0  0  0  0  0  0
  129.8675  122.7522   63.9324 H   0  0  0  0  0  0  0  0  0  0  0  0
  130.3197  124.8240   65.2398 H   0  0  0  0  0  0  0  0  0  0  0  0
  132.2978  126.2409   64.7141 H   0  0  0  0  0  0  0  0  0  0  0  0
  133.8415  125.5820   62.8666 H   0  0  0  0  0  0  0  0  0  0  0  0
  129.7563  127.1451   58.4195 H   0  0  0  0  0  0  0  0  0  0  0  0
  128.3403  126.3383   59.1982 H   0  0  0  0  0  0  0  0  0  0  0  0
  128.1664  128.8088   59.4039 H   0  0  0  0  0  0  0  0  0  0  0  0
  128.3815  128.0351   61.0204 H   0  0  0  0  0  0  0  0  0  0  0  0
  129.2383  130.9224   60.0321 H   0  0  0  0  0  0  0  0  0  0  0  0
  129.3344  128.4277   62.6445 H   0  0  0  0  0  0  0  0  0  0  0  0
  127.7294  128.2641   64.5362 H   0  0  0  0  0  0  0  0  0  0  0  0
  126.1384  130.1303   64.9872 H   0  0  0  0  0  0  0  0  0  0  0  0
  126.1400  132.1455   63.5297 H   0  0  0  0  0  0  0  0  0  0  0  0
  133.3769  130.3784   59.2308 H   0  0  0  0  0  0  0  0  0  0  0  0
  131.6145  130.2140   58.8856 H   0  0  0  0  0  0  0  0  0  0  0  0
  132.8509  132.9701   58.7886 H   0  0  0  0  0  0  0  0  0  0  0  0
  133.1630  131.8107   57.4251 H   0  0  0  0  0  0  0  0  0  0  0  0
  130.1195  132.4903   59.5522 H   0  0  0  0  0  0  0  0  0  0  0  0
  127.9013  133.0449   58.5528 H   0  0  0  0  0  0  0  0  0  0  0  0
  127.6788  133.2767   56.0814 H   0  0  0  0  0  0  0  0  0  0  0  0
  129.6593  132.9640   54.6030 H   0  0  0  0  0  0  0  0  0  0  0  0
  131.8788  132.4125   55.5994 H   0  0  0  0  0  0  0  0  0  0  0  0
  131.8642  128.8935   61.3647 H   0  0  0  0  0  0  0  0  0  0  0  0
  130.4384  128.0737   62.1051 H   0  0  0  0  0  0  0  0  0  0  0  0
  131.8365  127.2046   59.5088 H   0  0  0  0  0  0  0  0  0  0  0  0
  132.0463  126.4307   61.1250 H   0  0  0  0  0  0  0  0  0  0  0  0
  1  2  1  0
  2  3  2  0
  3  4  1  0
  4  5  2  0
  5  6  1  0
  6  7  2  0
  7  8  1  0
  8  9  1  0
  9 10  2  0
 10 11  1  0
 11 12  2  0
 12 13  1  0
 13 14  1  0
 14 15  1  0
 15 16  1  0
 16 17  2  0
 17 18  1  0
 18 19  2  0
 19 20  1  0
 20 21  2  0
  8 22  1  0
 22 23  1  0
 23 24  1  0
 24 25  1  0
 25 26  1  0
 26 27  1  0
 27 28  2  0
 28 29  1  0
 29 30  2  0
 30 31  1  0
 31 32  2  0
 32 33  1  0
 26 34  1  0
 34 35  2  0
 35 36  1  0
 36 37  2  0
 37 38  1  0
 38 39  1  0
 39 40  1  0
 40 41  1  0
 41 42  2  0
 42 43  1  0
 43 44  2  0
 44 45  1  0
 45 46  2  0
 25 47  1  0
 47 48  1  0
  7  2  1  0
 13  9  1  0
 21 16  1  0
 48 22  1  0
 32 27  1  0
 38 34  1  0
 46 41  1  0
  3 49  1  0
  4 50  1  0
  5 51  1  0
  6 52  1  0
  8 53  1  1
 14 54  1  0
 14 55  1  0
 15 56  1  0
 15 57  1  0
 17 58  1  0
 18 59  1  0
 19 60  1  0
 20 61  1  0
 21 62  1  0
 23 63  1  0
 23 64  1  0
 24 65  1  0
 24 66  1  0
 26 67  1  6
 28 68  1  0
 29 69  1  0
 30 70  1  0
 31 71  1  0
 39 72  1  0
 39 73  1  0
 40 74  1  0
 40 75  1  0
 42 76  1  0
 43 77  1  0
 44 78  1  0
 45 79  1  0
 46 80  1  0
 47 81  1  0
 47 82  1  0
 48 83  1  0
 48 84  1  0
M  END
>  <Binding energies>  (1) 
[-12.78]

>  <Ligand effiencies>  (1) 
[-0.26625]

>  <Interactions>  (1) 
["V-A:LEU:363:CD1:3189, V-A:ASP:366:CG:3213, H-A:TYR:531:OH:4795, V-A:PRO:540:CA:4883, H-B:TYR:539:OH:9850, V-A:PRO:540:CB:4885, V-A:PRO:540:CG:4886, V-A:PRO:540:N:4884, V-A:TYR:539:C:4867, V-B:TYR:539:CZ:9849, V-B:PRO:540:N:9856, V-B:TYR:539:CE1:9847, V-B:PRO:540:CB:9857, V-B:PRO:540:CA:9855, V-B:TYR:539:CE2:9848, V-B:TYR:539:C:9839, V-B:TYR:539:CD2:9846, V-A:MET:535:CE:4835, V-A:ILE:369:CD1:3239, V-A:ILE:369:CG2:3237, V-A:LEU:475:CD2:4259, V-A:GLU:543:CD:4908, V-A:ARG:545:CZ:4926, V-A:TYR:539:CE1:4875, V-A:TYR:539:CZ:4877, H-A:ALA:541:N:4891, V-A:TYR:539:CD1:4873, V-A:TYR:539:CD2:4874, V-A:ILE:538:CA:4860, V-A:TYR:539:CG:4872, V-A:TYR:539:CE2:4876, V-A:ILE:538:C:4858, V-A:ILE:538:CG2:4863, V-A:ILE:538:CB:4862"]

$$$$
RR14_Rahimova_2017
     RDKit          3D

 76 80  0  0  0  0  0  0  0  0999 V2000
  133.0100  125.3760   66.1110 C   0  0  0  0  0  0  0  0  0  0  0  0
  133.9840  124.9970   65.1440 O   0  0  0  0  0  0  0  0  0  0  0  0
  133.5630  124.4870   63.9310 C   0  0  0  0  0  0  0  0  0  0  0  0
  134.3490  124.7950   62.8200 C   0  0  0  0  0  0  0  0  0  0  0  0
  133.9920  124.3460   61.5520 C   0  0  0  0  0  0  0  0  0  0  0  0
  132.8340  123.5830   61.3830 C   0  0  0  0  0  0  0  0  0  0  0  0
  132.4040  123.1450   59.9880 C   0  0  0  0  0  0  0  0  0  0  0  0
  132.5950  124.1790   58.9720 N   0  0  0  0  0  0  0  0  0  0  0  0
  133.6190  124.1040   58.1140 N   0  0  0  0  0  0  0  0  0  0  0  0
  133.5090  125.2380   57.3350 N   0  0  0  0  0  0  0  0  0  0  0  0
  132.4140  125.9940   57.7420 N   0  0  0  0  0  0  0  0  0  0  0  0
  131.8780  125.3340   58.7420 C   0  0  0  0  0  0  0  0  0  0  0  0
  130.6600  125.7840   59.5370 C   0  0  0  0  0  0  0  0  0  0  0  0
  130.2460  127.1570   59.2040 N   0  0  0  0  0  0  0  0  0  0  0  0
  131.3170  128.1290   59.4550 C   0  0  0  0  0  0  0  0  0  0  0  0
  131.6830  128.9730   58.2140 C   0  0  0  0  0  0  0  0  0  0  0  0
  131.7010  130.4930   58.4820 C   0  0  0  0  0  0  0  0  0  0  0  0
  130.7640  131.2420   57.6380 N   0  0  0  0  0  0  0  0  0  0  0  0
  131.4190  131.6540   56.3900 C   0  0  0  0  0  0  0  0  0  0  0  0
  130.4750  132.4910   55.5010 C   0  0  0  0  0  0  0  0  0  0  0  0
  129.9660  133.5990   56.2350 O   0  0  0  0  0  0  0  0  0  0  0  0
  129.2340  133.1940   57.3850 C   0  0  0  0  0  0  0  0  0  0  0  0
  130.1410  132.3800   58.3330 C   0  0  0  0  0  0  0  0  0  0  0  0
  129.8060  127.2260   57.8030 C   0  0  0  0  0  0  0  0  0  0  0  0
  128.9830  126.0420   57.2990 C   0  0  0  0  0  0  0  0  0  0  0  0
  127.9370  125.5620   58.0140 C   0  0  0  0  0  0  0  0  0  0  0  0
  127.1510  124.3930   57.5690 C   0  0  0  0  0  0  0  0  0  0  0  0
  126.0490  123.8820   58.2750 C   0  0  0  0  0  0  0  0  0  0  0  0
  125.5750  124.5090   59.5800 C   0  0  0  0  0  0  0  0  0  0  0  0
  125.3710  122.7720   57.7650 C   0  0  0  0  0  0  0  0  0  0  0  0
  125.7770  122.1760   56.5720 C   0  0  0  0  0  0  0  0  0  0  0  0
  126.8700  122.6790   55.8610 C   0  0  0  0  0  0  0  0  0  0  0  0
  127.2880  122.0070   54.5590 C   0  0  0  0  0  0  0  0  0  0  0  0
  127.5590  123.7940   56.3640 C   0  0  0  0  0  0  0  0  0  0  0  0
  128.6700  124.3340   55.6830 N   0  0  0  0  0  0  0  0  0  0  0  0
  129.4190  125.4020   56.0530 C   0  0  0  0  0  0  0  0  0  0  0  0
  130.3770  125.7600   55.3680 O   0  0  0  0  0  0  0  0  0  0  0  0
  132.0570  123.2440   62.4920 C   0  0  0  0  0  0  0  0  0  0  0  0
  132.4150  123.6950   63.7590 C   0  0  0  0  0  0  0  0  0  0  0  0
  133.4156  125.2182   67.1213 H   0  0  0  0  0  0  0  0  0  0  0  0
  132.7567  126.4383   65.9794 H   0  0  0  0  0  0  0  0  0  0  0  0
  132.1053  124.7643   65.9794 H   0  0  0  0  0  0  0  0  0  0  0  0
  135.2597  125.3986   62.9476 H   0  0  0  0  0  0  0  0  0  0  0  0
  134.6210  124.5917   60.6837 H   0  0  0  0  0  0  0  0  0  0  0  0
  132.9939  122.2616   59.7022 H   0  0  0  0  0  0  0  0  0  0  0  0
  131.3266  122.9276   60.0327 H   0  0  0  0  0  0  0  0  0  0  0  0
  129.8252  125.1013   59.3202 H   0  0  0  0  0  0  0  0  0  0  0  0
  130.9308  125.7655   60.6030 H   0  0  0  0  0  0  0  0  0  0  0  0
  130.9899  128.8093   60.2552 H   0  0  0  0  0  0  0  0  0  0  0  0
  132.2144  127.5580   59.7355 H   0  0  0  0  0  0  0  0  0  0  0  0
  132.6825  128.6690   57.8695 H   0  0  0  0  0  0  0  0  0  0  0  0
  130.9052  128.7885   57.4584 H   0  0  0  0  0  0  0  0  0  0  0  0
  131.4359  130.6649   59.5356 H   0  0  0  0  0  0  0  0  0  0  0  0
  132.7128  130.8537   58.2450 H   0  0  0  0  0  0  0  0  0  0  0  0
  132.3061  132.2566   56.6348 H   0  0  0  0  0  0  0  0  0  0  0  0
  131.7003  130.7474   55.8341 H   0  0  0  0  0  0  0  0  0  0  0  0
  131.0306  132.8588   54.6258 H   0  0  0  0  0  0  0  0  0  0  0  0
  129.6356  131.8600   55.1736 H   0  0  0  0  0  0  0  0  0  0  0  0
  128.8633  134.0852   57.9126 H   0  0  0  0  0  0  0  0  0  0  0  0
  128.3877  132.5660   57.0698 H   0  0  0  0  0  0  0  0  0  0  0  0
  130.9321  133.0374   58.7228 H   0  0  0  0  0  0  0  0  0  0  0  0
  129.5202  131.9867   59.1515 H   0  0  0  0  0  0  0  0  0  0  0  0
  129.1956  128.1337   57.6866 H   0  0  0  0  0  0  0  0  0  0  0  0
  130.7278  127.2224   57.2028 H   0  0  0  0  0  0  0  0  0  0  0  0
  127.6641  126.0590   58.9566 H   0  0  0  0  0  0  0  0  0  0  0  0
  125.9967  123.9512   60.4292 H   0  0  0  0  0  0  0  0  0  0  0  0
  125.9095  125.5559   59.6266 H   0  0  0  0  0  0  0  0  0  0  0  0
  124.4766  124.4726   59.6266 H   0  0  0  0  0  0  0  0  0  0  0  0
  124.5075  122.3639   58.3107 H   0  0  0  0  0  0  0  0  0  0  0  0
  125.2320  121.3017   56.1866 H   0  0  0  0  0  0  0  0  0  0  0  0
  127.8567  121.0928   54.7844 H   0  0  0  0  0  0  0  0  0  0  0  0
  126.3919  121.7472   53.9763 H   0  0  0  0  0  0  0  0  0  0  0  0
  127.9172  122.6959   53.9763 H   0  0  0  0  0  0  0  0  0  0  0  0
  128.9630  123.8930   54.8250 H   0  0  0  0  0  0  0  0  0  0  0  0
  131.1605  122.6195   62.3643 H   0  0  0  0  0  0  0  0  0  0  0  0
  131.7967  123.4304   64.6295 H   0  0  0  0  0  0  0  0  0  0  0  0
  1  2  1  0
  2  3  1  0
  3  4  2  0
  4  5  1  0
  5  6  2  0
  6  7  1  0
  7  8  1  0
  8  9  1  0
  9 10  2  0
 10 11  1  0
 11 12  2  0
 12 13  1  0
 13 14  1  0
 14 15  1  0
 15 16  1  0
 16 17  1  0
 17 18  1  0
 18 19  1  0
 19 20  1  0
 20 21  1  0
 21 22  1  0
 22 23  1  0
 14 24  1  0
 24 25  1  0
 25 26  2  0
 26 27  1  0
 27 28  2  0
 28 29  1  0
 28 30  1  0
 30 31  2  0
 31 32  1  0
 32 33  1  0
 32 34  2  0
 34 35  1  0
 35 36  1  0
 36 37  2  0
  6 38  1  0
 38 39  2  0
 39  3  1  0
 12  8  1  0
 23 18  1  0
 36 25  1  0
 34 27  1  0
  1 40  1  0
  1 41  1  0
  1 42  1  0
  4 43  1  0
  5 44  1  0
  7 45  1  0
  7 46  1  0
 13 47  1  0
 13 48  1  0
 15 49  1  0
 15 50  1  0
 16 51  1  0
 16 52  1  0
 17 53  1  0
 17 54  1  0
 19 55  1  0
 19 56  1  0
 20 57  1  0
 20 58  1  0
 22 59  1  0
 22 60  1  0
 23 61  1  0
 23 62  1  0
 24 63  1  0
 24 64  1  0
 26 65  1  0
 29 66  1  0
 29 67  1  0
 29 68  1  0
 30 69  1  0
 31 70  1  0
 33 71  1  0
 33 72  1  0
 33 73  1  0
 35 74  1  0
 38 75  1  0
 39 76  1  0
M  END
>  <Binding energies>  (1) 
[-10.56]

>  <Ligand effiencies>  (1) 
[-0.264]

>  <Interactions>  (1) 
["V-A:LEU:363:CD1:3189, V-A:ASP:366:CG:3213, H-A:TYR:531:OH:4795, V-A:PRO:540:CA:4883, H-B:TYR:539:OH:9850, V-A:PRO:540:N:4884, V-A:TYR:539:C:4867, V-A:ASP:366:CB:3212, H-A:TYR:539:N:4870, V-B:TYR:539:CZ:9849, V-B:PRO:540:N:9856, V-B:TYR:539:CE1:9847, V-B:PRO:540:CB:9857, V-B:TYR:539:CD1:9845, V-B:PRO:540:CA:9855, V-B:TYR:539:CE2:9848, V-B:PRO:540:CD:9859, V-B:MET:535:CE:9807, V-B:LEU:363:CD1:8160, V-B:PRO:540:CG:9858, V-B:TYR:539:C:9839, V-B:TYR:539:CG:9844, H-A:ASN:370:ND2:3248, V-B:TYR:539:CD2:9846, V-A:MET:535:CE:4835, V-A:ILE:369:CD1:3239, V-A:ILE:369:CG2:3237, V-A:LEU:475:CD2:4259, V-A:TYR:484:CZ:4347, V-A:GLY:453:CA:4044, H-A:TYR:484:OH:4348, H-A:ARG:545:NE:4924, V-A:GLY:454:CA:4049, V-A:ARG:545:CZ:4926, V-A:TYR:531:CZ:4794, V-A:ARG:545:CG:4922, H-A:ARG:545:NH2:4928, H-A:GLY:454:N:4050, V-A:GLY:453:C:4042, V-B:ILE:538:CG2:9835, H-B:MET:535:SD:9806, V-A:TYR:539:CD1:4873, V-A:ILE:538:CA:4860, V-A:TYR:539:CG:4872, V-A:TYR:539:CA:4869, V-A:ILE:538:CG2:4863, V-A:ILE:538:CB:4862, V-B:ILE:538:CA:9832, V-B:ILE:538:C:9830, V-A:ARG:545:CD:4923, H-A:ARG:545:NH1:4927, V-B:ILE:538:CB:9834, V-B:ILE:538:CG1:9836, V-B:VAL:537:C:9822"]

$$$$
RR15_Rahimova_2017
     RDKit          3D

 85 89  0  0  0  0  0  0  0  0999 V2000
  130.0220  123.3080   65.3240 C   0  0  0  0  0  0  0  0  0  0  0  0
  129.5220  122.2460   64.5170 O   0  0  0  0  0  0  0  0  0  0  0  0
  129.1030  122.5120   63.2250 C   0  0  0  0  0  0  0  0  0  0  0  0
  127.7920  122.8890   62.8950 C   0  0  0  0  0  0  0  0  0  0  0  0
  127.4350  123.1390   61.5720 C   0  0  0  0  0  0  0  0  0  0  0  0
  128.3740  123.0190   60.5420 C   0  0  0  0  0  0  0  0  0  0  0  0
  127.9870  123.2830   59.1130 C   0  0  0  0  0  0  0  0  0  0  0  0
  126.8900  122.7840   58.5600 N   0  0  0  0  0  0  0  0  0  0  0  0
  126.8830  123.2330   57.2550 N   0  0  0  0  0  0  0  0  0  0  0  0
  127.9730  123.9970   57.1800 N   0  0  0  0  0  0  0  0  0  0  0  0
  128.4450  124.5510   55.9110 C   0  0  0  0  0  0  0  0  0  0  0  0
  129.1420  125.9300   56.0240 C   0  0  0  0  0  0  0  0  0  0  0  0
  130.0760  126.1740   55.2580 O   0  0  0  0  0  0  0  0  0  0  0  0
  128.6900  126.8440   56.9360 N   0  0  0  0  0  0  0  0  0  0  0  0
  127.2470  127.0310   57.1870 C   0  0  0  0  0  0  0  0  0  0  0  0
  126.9140  127.3720   58.6550 C   0  0  0  0  0  0  0  0  0  0  0  0
  126.8110  128.8850   58.9630 C   0  0  0  0  0  0  0  0  0  0  0  0
  125.5130  129.4710   58.6150 N   0  0  0  0  0  0  0  0  0  0  0  0
  124.9260  130.2820   59.6910 C   0  0  0  0  0  0  0  0  0  0  0  0
  123.6050  130.9450   59.2440 C   0  0  0  0  0  0  0  0  0  0  0  0
  123.8120  131.6970   58.0530 O   0  0  0  0  0  0  0  0  0  0  0  0
  124.2830  130.8920   56.9770 C   0  0  0  0  0  0  0  0  0  0  0  0
  125.6240  130.2310   57.3620 C   0  0  0  0  0  0  0  0  0  0  0  0
  129.5900  127.5770   57.8800 C   0  0  2  0  0  0  0  0  0  0  0  0
  130.0770  128.9620   57.3480 C   0  0  0  0  0  0  0  0  0  0  0  0
  129.6320  129.4330   56.3020 O   0  0  0  0  0  0  0  0  0  0  0  0
  130.9680  129.6020   58.1250 N   0  0  0  0  0  0  0  0  0  0  0  0
  131.4850  130.9450   57.8860 C   0  0  0  0  0  0  0  0  0  0  0  0
  130.5340  132.0160   58.4520 C   0  0  2  0  0  0  0  0  0  0  0  0
  129.1280  131.5170   58.8300 C   0  0  0  0  0  0  0  0  0  0  0  0
  128.2510  131.9530   57.6820 C   0  0  0  0  0  0  0  0  0  0  0  0
  128.9150  133.2570   57.2760 C   0  0  0  0  0  0  0  0  0  0  0  0
  130.2990  132.9440   57.3850 O   0  0  0  0  0  0  0  0  0  0  0  0
  130.6410  126.6380   58.4590 C   0  0  0  0  0  0  0  0  0  0  0  0
  130.4710  126.1880   59.7740 C   0  0  0  0  0  0  0  0  0  0  0  0
  131.3990  125.3300   60.3560 C   0  0  0  0  0  0  0  0  0  0  0  0
  132.5080  124.9130   59.6240 C   0  0  0  0  0  0  0  0  0  0  0  0
  133.4100  124.0790   60.1890 F   0  0  0  0  0  0  0  0  0  0  0  0
  132.6940  125.3490   58.3150 C   0  0  0  0  0  0  0  0  0  0  0  0
  131.7650  126.2090   57.7350 C   0  0  0  0  0  0  0  0  0  0  0  0
  128.7110  124.0250   58.2960 N   0  0  0  0  0  0  0  0  0  0  0  0
  129.6820  122.6440   60.8750 C   0  0  0  0  0  0  0  0  0  0  0  0
  130.0580  122.3920   62.2050 C   0  0  0  0  0  0  0  0  0  0  0  0
  131.3380  122.0230   62.5840 O   0  0  0  0  0  0  0  0  0  0  0  0
  132.3320  123.0240   62.7720 C   0  0  0  0  0  0  0  0  0  0  0  0
  129.9004  123.0498   66.3863 H   0  0  0  0  0  0  0  0  0  0  0  0
  131.0884  123.4646   65.1044 H   0  0  0  0  0  0  0  0  0  0  0  0
  129.4633  124.2297   65.1044 H   0  0  0  0  0  0  0  0  0  0  0  0
  127.0381  122.9881   63.6899 H   0  0  0  0  0  0  0  0  0  0  0  0
  126.4024  123.4343   61.3343 H   0  0  0  0  0  0  0  0  0  0  0  0
  129.1611  123.8404   55.4725 H   0  0  0  0  0  0  0  0  0  0  0  0
  127.5512  124.7056   55.2888 H   0  0  0  0  0  0  0  0  0  0  0  0
  126.8866  127.8515   56.5491 H   0  0  0  0  0  0  0  0  0  0  0  0
  126.7533  126.0750   56.9581 H   0  0  0  0  0  0  0  0  0  0  0  0
  125.9494  126.9057   58.9042 H   0  0  0  0  0  0  0  0  0  0  0  0
  127.7501  126.9895   59.2588 H   0  0  0  0  0  0  0  0  0  0  0  0
  126.9809  129.0324   60.0398 H   0  0  0  0  0  0  0  0  0  0  0  0
  127.5676  129.3907   58.3452 H   0  0  0  0  0  0  0  0  0  0  0  0
  124.7257  129.6349   60.5576 H   0  0  0  0  0  0  0  0  0  0  0  0
  125.6398  131.0770   59.9524 H   0  0  0  0  0  0  0  0  0  0  0  0
  122.8525  130.1652   59.0554 H   0  0  0  0  0  0  0  0  0  0  0  0
  123.2546  131.6199   60.0388 H   0  0  0  0  0  0  0  0  0  0  0  0
  123.5417  130.1102   56.7549 H   0  0  0  0  0  0  0  0  0  0  0  0
  124.4332  131.5253   56.0902 H   0  0  0  0  0  0  0  0  0  0  0  0
  125.9294  129.5476   56.5560 H   0  0  0  0  0  0  0  0  0  0  0  0
  126.3701  131.0261   57.5071 H   0  0  0  0  0  0  0  0  0  0  0  0
  129.0009  127.8998   58.7511 H   0  0  0  0  0  0  0  0  0  0  0  0
  131.2630  129.1600   58.9840 H   0  0  0  0  0  0  0  0  0  0  0  0
  132.4667  131.0435   58.3724 H   0  0  0  0  0  0  0  0  0  0  0  0
  131.5736  131.0963   56.8001 H   0  0  0  0  0  0  0  0  0  0  0  0
  131.0163  132.4064   59.3603 H   0  0  0  0  0  0  0  0  0  0  0  0
  129.1186  130.4218   58.9323 H   0  0  0  0  0  0  0  0  0  0  0  0
  128.7861  131.9208   59.7944 H   0  0  0  0  0  0  0  0  0  0  0  0
  128.2682  131.2203   56.8617 H   0  0  0  0  0  0  0  0  0  0  0  0
  127.1867  132.0522   57.9417 H   0  0  0  0  0  0  0  0  0  0  0  0
  128.6500  133.5341   56.2450 H   0  0  0  0  0  0  0  0  0  0  0  0
  128.6094  134.1155   57.8921 H   0  0  0  0  0  0  0  0  0  0  0  0
  129.5950  126.5161   60.3528 H   0  0  0  0  0  0  0  0  0  0  0  0
  131.2573  124.9825   61.3900 H   0  0  0  0  0  0  0  0  0  0  0  0
  133.5713  125.0155   57.7412 H   0  0  0  0  0  0  0  0  0  0  0  0
  131.9129  126.5550   56.7014 H   0  0  0  0  0  0  0  0  0  0  0  0
  130.4321  122.5445   60.0766 H   0  0  0  0  0  0  0  0  0  0  0  0
  132.4916  123.1847   63.8484 H   0  0  0  0  0  0  0  0  0  0  0  0
  133.2737  122.6977   62.3064 H   0  0  0  0  0  0  0  0  0  0  0  0
  131.9991  123.9634   62.3064 H   0  0  0  0  0  0  0  0  0  0  0  0
  1  2  1  0
  2  3  1  0
  3  4  2  0
  4  5  1  0
  5  6  2  0
  6  7  1  0
  7  8  1  0
  8  9  2  0
  9 10  1  0
 10 11  1  0
 11 12  1  0
 12 13  2  0
 12 14  1  0
 14 15  1  0
 15 16  1  0
 16 17  1  0
 17 18  1  0
 18 19  1  0
 19 20  1  0
 20 21  1  0
 21 22  1  0
 22 23  1  0
 14 24  1  0
 24 25  1  0
 25 26  2  0
 25 27  1  0
 27 28  1  0
 28 29  1  0
 29 30  1  0
 30 31  1  0
 31 32  1  0
 32 33  1  0
 24 34  1  0
 34 35  2  0
 35 36  1  0
 36 37  2  0
 37 38  1  0
 37 39  1  0
 39 40  2  0
 10 41  1  0
  6 42  1  0
 42 43  2  0
 43 44  1  0
 44 45  1  0
 43  3  1  0
 41  7  2  0
 23 18  1  0
 33 29  1  0
 40 34  1  0
  1 46  1  0
  1 47  1  0
  1 48  1  0
  4 49  1  0
  5 50  1  0
 11 51  1  0
 11 52  1  0
 15 53  1  0
 15 54  1  0
 16 55  1  0
 16 56  1  0
 17 57  1  0
 17 58  1  0
 19 59  1  0
 19 60  1  0
 20 61  1  0
 20 62  1  0
 22 63  1  0
 22 64  1  0
 23 65  1  0
 23 66  1  0
 24 67  1  1
 27 68  1  0
 28 69  1  0
 28 70  1  0
 29 71  1  1
 30 72  1  0
 30 73  1  0
 31 74  1  0
 31 75  1  0
 32 76  1  0
 32 77  1  0
 35 78  1  0
 36 79  1  0
 39 80  1  0
 40 81  1  0
 42 82  1  0
 45 83  1  0
 45 84  1  0
 45 85  1  0
M  END
>  <Binding energies>  (1) 
[-8.09]

>  <Ligand effiencies>  (1) 
[-0.1758695652173913]

>  <Interactions>  (1) 
["V-A:ASP:366:CG:3213, H-A:TYR:531:OH:4795, V-A:PRO:540:CA:4883, H-B:TYR:539:OH:9850, V-A:PRO:540:CB:4885, H-A:ASP:366:OD2:3215, V-A:PRO:540:N:4884, V-A:TYR:539:C:4867, V-A:ASP:366:CB:3212, H-A:TYR:539:N:4870, V-B:TYR:539:CZ:9849, V-B:TYR:539:CE1:9847, V-B:PRO:540:CA:9855, V-B:TYR:539:CE2:9848, V-B:ASP:366:CB:8183, H-B:TYR:531:OH:9767, V-B:ASP:366:CG:8184, V-B:TYR:531:CE1:9764, V-B:TYR:531:CZ:9766, V-B:TYR:539:CD2:9846, V-B:ALA:541:CB:9864, V-A:ASP:366:CA:3210, V-B:GLU:543:CG:9879, V-A:ILE:369:CG2:3237, V-A:LEU:475:CD2:4259, V-A:TYR:484:CZ:4347, V-A:TYR:484:CE2:4346, V-B:GLU:543:CD:9880, V-A:TYR:531:CZ:4794, H-A:TYR:539:OH:4878, V-A:TYR:539:CE1:4875, V-B:ASP:366:CA:8181, V-B:ILE:369:CG2:8208, V-A:TYR:539:CZ:4877, V-B:ASP:366:C:8179, V-B:ILE:369:CB:8207, V-B:ALA:541:CA:9862, V-A:TYR:539:CD1:4873, V-A:TYR:539:CG:4872, V-A:TYR:539:CA:4869"]

$$$$
RR16_Rahimova_2017
     RDKit          3D

 80 85  0  0  0  0  0  0  0  0999 V2000
  129.1390  123.3400   65.7010 O   0  0  0  0  0  0  0  0  0  0  0  0
  129.8360  122.3790   64.8380 S   0  0  0  0  0  0  0  0  0  0  0  0
  129.9080  120.9580   65.1990 O   0  0  0  0  0  0  0  0  0  0  0  0
  131.4830  122.9700   64.6060 N   0  0  0  0  0  0  0  0  0  0  0  0
  131.7920  124.4160   64.6940 C   0  0  0  0  0  0  0  0  0  0  0  0
  133.3190  124.6220   64.5160 C   0  0  0  0  0  0  0  0  0  0  0  0
  133.9060  124.3800   63.1120 C   0  0  0  0  0  0  0  0  0  0  0  0
  133.3700  125.3400   62.0360 C   0  0  0  0  0  0  0  0  0  0  0  0
  132.0570  124.9170   61.3530 C   0  0  0  0  0  0  0  0  0  0  0  0
  130.8660  124.5730   62.2680 C   0  0  0  0  0  0  0  0  0  0  0  0
  130.8920  125.1720   63.6880 C   0  0  0  0  0  0  0  0  0  0  0  0
  129.0870  122.4980   63.2180 C   0  0  0  0  0  0  0  0  0  0  0  0
  129.6560  121.8350   62.1280 C   0  0  0  0  0  0  0  0  0  0  0  0
  129.1350  122.0350   60.8530 C   0  0  0  0  0  0  0  0  0  0  0  0
  128.0490  122.8940   60.6730 C   0  0  0  0  0  0  0  0  0  0  0  0
  127.4680  123.2620   59.0190 S   0  0  0  0  0  0  0  0  0  0  0  0
  126.0050  123.3810   59.0840 O   0  0  0  0  0  0  0  0  0  0  0  0
  128.0930  122.2950   58.1080 O   0  0  0  0  0  0  0  0  0  0  0  0
  128.1420  124.8660   58.6690 N   0  0  0  0  0  0  0  0  0  0  0  0
  129.6110  124.8820   58.4510 C   0  0  0  0  0  0  0  0  0  0  0  0
  130.1440  126.3300   58.4680 C   0  0  0  0  0  0  0  0  0  0  0  0
  129.3750  127.2360   57.4740 C   0  0  0  0  0  0  0  0  0  0  0  0
  129.8570  128.6880   57.5090 C   0  0  0  0  0  0  0  0  0  0  0  0
  131.0830  129.0000   58.1140 C   0  0  0  0  0  0  0  0  0  0  0  0
  131.5650  130.3090   58.1620 C   0  0  0  0  0  0  0  0  0  0  0  0
  132.7670  130.5950   58.7550 O   0  0  0  0  0  0  0  0  0  0  0  0
  130.7880  131.3230   57.5800 C   0  0  0  0  0  0  0  0  0  0  0  0
  131.0080  132.6640   57.4610 N   0  0  0  0  0  0  0  0  0  0  0  0
  129.9400  133.2000   56.7750 N   0  0  0  0  0  0  0  0  0  0  0  0
  129.0610  132.2130   56.5170 N   0  0  0  0  0  0  0  0  0  0  0  0
  127.8700  132.4810   55.7220 C   0  0  0  0  0  0  0  0  0  0  0  0
  126.6310  131.7830   56.2660 C   0  0  0  0  0  0  0  0  0  0  0  0
  125.6390  131.3290   55.3890 C   0  0  0  0  0  0  0  0  0  0  0  0
  124.5140  130.6690   55.8840 C   0  0  0  0  0  0  0  0  0  0  0  0
  124.3740  130.4590   57.2560 C   0  0  0  0  0  0  0  0  0  0  0  0
  125.3600  130.9080   58.1350 C   0  0  0  0  0  0  0  0  0  0  0  0
  125.1950  130.6400   59.8320 Cl  0  0  0  0  0  0  0  0  0  0  0  0
  126.4850  131.5720   57.6410 C   0  0  0  0  0  0  0  0  0  0  0  0
  129.5480  131.0010   56.9780 C   0  0  0  0  0  0  0  0  0  0  0  0
  129.0620  129.6900   56.9330 C   0  0  0  0  0  0  0  0  0  0  0  0
  127.8370  127.1100   57.6320 C   0  0  0  0  0  0  0  0  0  0  0  0
  127.3790  125.6380   57.6530 C   0  0  0  0  0  0  0  0  0  0  0  0
  127.4560  123.5230   61.7700 C   0  0  0  0  0  0  0  0  0  0  0  0
  127.9780  123.3270   63.0440 C   0  0  0  0  0  0  0  0  0  0  0  0
  132.2450  122.3250   64.8320 H   0  0  0  0  0  0  0  0  0  0  0  0
  131.5594  124.8409   65.6816 H   0  0  0  0  0  0  0  0  0  0  0  0
  133.5469  125.6614   64.7947 H   0  0  0  0  0  0  0  0  0  0  0  0
  133.7835  123.8544   65.1524 H   0  0  0  0  0  0  0  0  0  0  0  0
  134.9981  124.4987   63.1685 H   0  0  0  0  0  0  0  0  0  0  0  0
  133.6053  123.3654   62.8118 H   0  0  0  0  0  0  0  0  0  0  0  0
  133.2036  126.3186   62.5099 H   0  0  0  0  0  0  0  0  0  0  0  0
  134.1298  125.3506   61.2407 H   0  0  0  0  0  0  0  0  0  0  0  0
  131.7434  125.7435   60.6984 H   0  0  0  0  0  0  0  0  0  0  0  0
  132.2972  123.9768   60.8349 H   0  0  0  0  0  0  0  0  0  0  0  0
  129.9506  124.9286   61.7724 H   0  0  0  0  0  0  0  0  0  0  0  0
  130.9153  123.4835   62.4115 H   0  0  0  0  0  0  0  0  0  0  0  0
  131.2544  126.2081   63.6159 H   0  0  0  0  0  0  0  0  0  0  0  0
  129.8648  125.0978   64.0745 H   0  0  0  0  0  0  0  0  0  0  0  0
  130.5108  121.1588   62.2765 H   0  0  0  0  0  0  0  0  0  0  0  0
  129.5777  121.5176   59.9891 H   0  0  0  0  0  0  0  0  0  0  0  0
  130.1018  124.3062   59.2495 H   0  0  0  0  0  0  0  0  0  0  0  0
  129.8301  124.4337   57.4707 H   0  0  0  0  0  0  0  0  0  0  0  0
  130.0320  126.7391   59.4829 H   0  0  0  0  0  0  0  0  0  0  0  0
  131.2014  126.3095   58.1654 H   0  0  0  0  0  0  0  0  0  0  0  0
  129.6119  126.8641   56.4662 H   0  0  0  0  0  0  0  0  0  0  0  0
  131.6802  128.1923   58.5623 H   0  0  0  0  0  0  0  0  0  0  0  0
  133.0240  129.9530   59.4210 H   0  0  0  0  0  0  0  0  0  0  0  0
  127.6883  133.5659   55.7151 H   0  0  0  0  0  0  0  0  0  0  0  0
  128.0523  132.0926   54.7091 H   0  0  0  0  0  0  0  0  0  0  0  0
  125.7468  131.4931   54.3067 H   0  0  0  0  0  0  0  0  0  0  0  0
  123.7365  130.3138   55.1917 H   0  0  0  0  0  0  0  0  0  0  0  0
  123.4860  129.9393   57.6449 H   0  0  0  0  0  0  0  0  0  0  0  0
  127.2590  131.9303   58.3357 H   0  0  0  0  0  0  0  0  0  0  0  0
  128.0950  129.4543   56.4646 H   0  0  0  0  0  0  0  0  0  0  0  0
  127.5361  127.5894   58.5752 H   0  0  0  0  0  0  0  0  0  0  0  0
  127.3646  127.6013   56.7686 H   0  0  0  0  0  0  0  0  0  0  0  0
  126.3073  125.5965   57.8975 H   0  0  0  0  0  0  0  0  0  0  0  0
  127.5611  125.1962   56.6622 H   0  0  0  0  0  0  0  0  0  0  0  0
  126.5790  124.1713   61.6267 H   0  0  0  0  0  0  0  0  0  0  0  0
  127.5184  123.8236   63.9113 H   0  0  0  0  0  0  0  0  0  0  0  0
  1  2  2  0
  2  3  2  0
  2  4  1  0
  4  5  1  0
  5  6  1  0
  6  7  1  0
  7  8  1  0
  8  9  1  0
  9 10  1  0
 10 11  1  0
  2 12  1  0
 12 13  2  0
 13 14  1  0
 14 15  2  0
 15 16  1  0
 16 17  2  0
 16 18  2  0
 16 19  1  0
 19 20  1  0
 20 21  1  0
 21 22  1  0
 22 23  1  0
 23 24  2  0
 24 25  1  0
 25 26  1  0
 25 27  2  0
 27 28  1  0
 28 29  2  0
 29 30  1  0
 30 31  1  0
 31 32  1  0
 32 33  2  0
 33 34  1  0
 34 35  2  0
 35 36  1  0
 36 37  1  0
 36 38  2  0
 30 39  1  0
 39 40  2  0
 22 41  1  0
 41 42  1  0
 15 43  1  0
 43 44  2  0
 11  5  1  0
 44 12  1  0
 42 19  1  0
 40 23  1  0
 39 27  1  0
 38 32  1  0
  4 45  1  0
  5 46  1  0
  6 47  1  0
  6 48  1  0
  7 49  1  0
  7 50  1  0
  8 51  1  0
  8 52  1  0
  9 53  1  0
  9 54  1  0
 10 55  1  0
 10 56  1  0
 11 57  1  0
 11 58  1  0
 13 59  1  0
 14 60  1  0
 20 61  1  0
 20 62  1  0
 21 63  1  0
 21 64  1  0
 22 65  1  0
 24 66  1  0
 26 67  1  0
 31 68  1  0
 31 69  1  0
 33 70  1  0
 34 71  1  0
 35 72  1  0
 38 73  1  0
 40 74  1  0
 41 75  1  0
 41 76  1  0
 42 77  1  0
 42 78  1  0
 43 79  1  0
 44 80  1  0
M  END
>  <Binding energies>  (1) 
[-9.73]

>  <Ligand effiencies>  (1) 
[-0.20270833333333335]

>  <Interactions>  (1) 
["V-A:ASP:366:CG:3213, H-A:ASP:366:OD2:3215, H-A:TYR:539:N:4870, V-B:TYR:539:CZ:9849, V-B:PRO:540:N:9856, V-B:PRO:540:CA:9855, V-B:TYR:539:CE2:9848, V-B:ASP:366:CB:8183, V-B:ASP:366:CG:8184, V-B:TYR:531:CE1:9764, V-B:TYR:531:CZ:9766, V-B:TYR:539:CD2:9846, V-A:MET:535:CE:4835, V-B:ALA:541:CB:9864, V-B:GLU:543:CG:9879, V-A:LEU:475:CD2:4259, V-A:TYR:484:CZ:4347, V-A:GLY:453:CA:4044, H-A:TYR:484:OH:4348, V-A:TYR:484:CE2:4346, V-A:GLY:454:CA:4049, V-A:ARG:545:CZ:4926, V-B:GLU:543:CD:9880, V-A:TYR:539:CE1:4875, V-B:ASP:366:CA:8181, V-A:TYR:539:CZ:4877, V-B:ASP:366:C:8179, V-A:GLY:453:C:4042, V-A:TYR:539:CD1:4873, V-A:TYR:539:CE2:4876"]

$$$$
RR17_Rahimova_2017
     RDKit          3D

 63 66  0  0  0  0  0  0  0  0999 V2000
  129.8420  116.9700   60.8530 C   0  0  0  0  0  0  0  0  0  0  0  0
  130.2540  118.3100   61.4700 C   0  0  0  0  0  0  0  0  0  0  0  0
  131.3650  118.8260   60.7430 O   0  0  0  0  0  0  0  0  0  0  0  0
  131.6120  120.1870   60.7580 C   0  0  0  0  0  0  0  0  0  0  0  0
  132.9220  120.5850   60.4970 C   0  0  0  0  0  0  0  0  0  0  0  0
  133.2660  121.9320   60.4930 C   0  0  0  0  0  0  0  0  0  0  0  0
  132.3010  122.9160   60.7530 C   0  0  0  0  0  0  0  0  0  0  0  0
  132.7020  124.3630   60.7400 C   0  0  0  0  0  0  0  0  0  0  0  0
  132.9120  124.9820   59.6930 O   0  0  0  0  0  0  0  0  0  0  0  0
  132.8600  125.0590   62.1110 C   0  0  0  0  0  0  0  0  0  0  0  0
  133.6120  123.9560   63.3610 S   0  0  0  0  0  0  0  0  0  0  0  0
  132.9700  124.6890   64.8390 C   0  0  0  0  0  0  0  0  0  0  0  0
  133.6880  125.2630   65.7760 N   0  0  0  0  0  0  0  0  0  0  0  0
  132.8180  125.7170   66.7600 N   0  0  0  0  0  0  0  0  0  0  0  0
  131.6060  125.4040   66.3780 C   0  0  0  0  0  0  0  0  0  0  0  0
  130.3420  125.7290   67.1600 C   0  0  0  0  0  0  0  0  0  0  0  0
  130.3760  127.0320   67.8210 N   0  0  0  0  0  0  0  0  0  0  0  0
  129.8550  127.2700   69.1050 C   0  0  0  0  0  0  0  0  0  0  0  0
  130.6870  127.9040   70.0280 C   0  0  0  0  0  0  0  0  0  0  0  0
  130.2360  128.1650   71.3190 C   0  0  0  0  0  0  0  0  0  0  0  0
  128.9430  127.7970   71.7020 C   0  0  0  0  0  0  0  0  0  0  0  0
  128.4660  128.0850   73.1250 C   0  0  0  0  0  0  0  0  0  0  0  0
  129.0640  127.3030   74.0260 F   0  0  0  0  0  0  0  0  0  0  0  0
  128.7160  129.3540   73.4510 F   0  0  0  0  0  0  0  0  0  0  0  0
  127.1520  127.8760   73.1950 F   0  0  0  0  0  0  0  0  0  0  0  0
  128.1050  127.1690   70.7750 C   0  0  0  0  0  0  0  0  0  0  0  0
  128.5550  126.9090   69.4840 C   0  0  0  0  0  0  0  0  0  0  0  0
  131.6310  124.7380   65.1700 N   0  0  0  0  0  0  0  0  0  0  0  0
  130.5410  124.2510   64.4330 C   0  0  0  0  0  0  0  0  0  0  0  0
  129.8830  125.0960   63.5390 C   0  0  0  0  0  0  0  0  0  0  0  0
  128.7990  124.6140   62.8110 C   0  0  0  0  0  0  0  0  0  0  0  0
  128.3700  123.2870   62.9740 C   0  0  0  0  0  0  0  0  0  0  0  0
  127.3070  122.7230   62.2950 O   0  0  0  0  0  0  0  0  0  0  0  0
  126.5310  123.5370   61.4220 C   0  0  0  0  0  0  0  0  0  0  0  0
  129.0400  122.4560   63.8750 C   0  0  0  0  0  0  0  0  0  0  0  0
  130.1250  122.9310   64.6060 C   0  0  0  0  0  0  0  0  0  0  0  0
  130.9830  122.5150   61.0150 C   0  0  0  0  0  0  0  0  0  0  0  0
  130.6410  121.1650   61.0170 C   0  0  0  0  0  0  0  0  0  0  0  0
  129.6206  116.2499   61.6545 H   0  0  0  0  0  0  0  0  0  0  0  0
  128.9463  117.1128   60.2307 H   0  0  0  0  0  0  0  0  0  0  0  0
  130.6632  116.5849   60.2307 H   0  0  0  0  0  0  0  0  0  0  0  0
  129.4137  119.0175   61.4130 H   0  0  0  0  0  0  0  0  0  0  0  0
  130.5306  118.1672   62.5250 H   0  0  0  0  0  0  0  0  0  0  0  0
  133.6913  119.8259   60.2922 H   0  0  0  0  0  0  0  0  0  0  0  0
  134.3044  122.2287   60.2840 H   0  0  0  0  0  0  0  0  0  0  0  0
  133.5014  125.9441   61.9875 H   0  0  0  0  0  0  0  0  0  0  0  0
  131.8572  125.3387   62.4661 H   0  0  0  0  0  0  0  0  0  0  0  0
  129.4904  125.7154   66.4639 H   0  0  0  0  0  0  0  0  0  0  0  0
  130.2510  124.9705   67.9515 H   0  0  0  0  0  0  0  0  0  0  0  0
  130.5950  127.8350   67.2500 H   0  0  0  0  0  0  0  0  0  0  0  0
  131.7050  128.1993   69.7341 H   0  0  0  0  0  0  0  0  0  0  0  0
  130.9001  128.6630   72.0408 H   0  0  0  0  0  0  0  0  0  0  0  0
  127.0851  126.8791   71.0678 H   0  0  0  0  0  0  0  0  0  0  0  0
  127.8885  126.4188   68.7591 H   0  0  0  0  0  0  0  0  0  0  0  0
  130.2184  126.1357   63.4104 H   0  0  0  0  0  0  0  0  0  0  0  0
  128.2760  125.2757   62.1048 H   0  0  0  0  0  0  0  0  0  0  0  0
  125.8923  124.2069   62.0164 H   0  0  0  0  0  0  0  0  0  0  0  0
  127.2006  124.1362   60.7875 H   0  0  0  0  0  0  0  0  0  0  0  0
  125.9005  122.8968   60.7875 H   0  0  0  0  0  0  0  0  0  0  0  0
  128.7069  121.4161   64.0081 H   0  0  0  0  0  0  0  0  0  0  0  0
  130.6494  122.2717   65.3134 H   0  0  0  0  0  0  0  0  0  0  0  0
  130.2129  123.2731   61.2206 H   0  0  0  0  0  0  0  0  0  0  0  0
  129.6032  120.8641   61.2229 H   0  0  0  0  0  0  0  0  0  0  0  0
  1  2  1  0
  2  3  1  0
  3  4  1  0
  4  5  2  0
  5  6  1  0
  6  7  2  0
  7  8  1  0
  8  9  2  0
  8 10  1  0
 10 11  1  0
 11 12  1  0
 12 13  2  0
 13 14  1  0
 14 15  2  0
 15 16  1  0
 16 17  1  0
 17 18  1  0
 18 19  2  0
 19 20  1  0
 20 21  2  0
 21 22  1  0
 22 23  1  0
 22 24  1  0
 22 25  1  0
 21 26  1  0
 26 27  2  0
 15 28  1  0
 28 29  1  0
 29 30  2  0
 30 31  1  0
 31 32  2  0
 32 33  1  0
 33 34  1  0
 32 35  1  0
 35 36  2  0
  7 37  1  0
 37 38  2  0
 38  4  1  0
 28 12  1  0
 36 29  1  0
 27 18  1  0
  1 39  1  0
  1 40  1  0
  1 41  1  0
  2 42  1  0
  2 43  1  0
  5 44  1  0
  6 45  1  0
 10 46  1  0
 10 47  1  0
 16 48  1  0
 16 49  1  0
 17 50  1  0
 19 51  1  0
 20 52  1  0
 26 53  1  0
 27 54  1  0
 30 55  1  0
 31 56  1  0
 34 57  1  0
 34 58  1  0
 34 59  1  0
 35 60  1  0
 36 61  1  0
 37 62  1  0
 38 63  1  0
M  END
>  <Binding energies>  (1) 
[-9.17]

>  <Ligand effiencies>  (1) 
[-0.23512820512820512]

>  <Interactions>  (1) 
["V-A:ASP:366:CG:3213, V-B:PRO:540:CB:9857, V-B:PRO:540:CA:9855, V-B:TYR:539:CE2:9848, H-B:ALA:541:N:9863, V-B:TYR:539:CD2:9846, V-B:ALA:541:CB:9864, V-B:GLU:543:CG:9879, V-A:ILE:369:CG2:3237, V-A:LEU:475:CD2:4259, V-A:TYR:484:CZ:4347, V-B:GLU:543:CB:9878, H-A:TYR:484:OH:4348, V-A:GLU:543:CD:4908, V-A:TYR:484:CE2:4346, H-A:ARG:545:NE:4924, V-A:ARG:545:CZ:4926, V-B:GLU:543:CD:9880, V-B:HIS:456:CE1:9041, V-A:GLY:544:C:4912, V-B:GLU:543:C:9874, V-B:HIS:456:CD2:9039, V-B:LYS:547:CE:9922, V-A:HIS:456:CE1:4070, V-A:GLU:543:C:4902, V-A:GLU:543:CB:4906, V-B:HIS:456:CG:9037, H-A:GLU:543:OE1:4909, H-A:GLU:543:OE2:4910, H-A:ARG:545:NH2:4928, H-A:GLY:454:N:4050, H-A:SER:385:OG:3410, V-A:HIS:383:NE2:3394, V-A:LEU:475:CG:4257, V-A:HIS:383:CE1:3393, V-A:LEU:475:CD1:4258, V-A:PRO:482:CB:4326, V-A:PRO:482:CG:4327, H-A:HIS:383:HE2:3395, V-A:SER:385:CB:3409, V-B:VAL:344:CG1:7972"]

$$$$
RR18_Rahimova_2017
     RDKit          3D

 56 61  0  0  0  0  0  0  0  0999 V2000
  132.9380  125.0210   61.2970 C   0  0  0  0  0  0  0  0  0  0  0  0
  132.2910  125.1480   62.6530 C   0  0  0  0  0  0  0  0  0  0  0  0
  132.7340  124.9760   63.9540 C   0  0  0  0  0  0  0  0  0  0  0  0
  131.6490  125.2440   64.7880 C   0  0  0  0  0  0  0  0  0  0  0  0
  130.5820  125.5710   63.9660 C   0  0  0  0  0  0  0  0  0  0  0  0
  129.1320  125.9700   64.2250 C   0  0  1  0  0  0  0  0  0  0  0  0
  129.0200  126.9970   65.3900 C   0  0  0  0  0  0  0  0  0  0  0  0
  129.3920  126.6160   66.7490 C   0  0  0  0  0  0  0  0  0  0  0  0
  129.7970  125.4840   67.0190 O   0  0  0  0  0  0  0  0  0  0  0  0
  129.2680  127.6120   67.6570 N   0  0  0  0  0  0  0  0  0  0  0  0
  129.5110  127.6140   69.0480 C   0  0  0  0  0  0  0  0  0  0  0  0
  130.7570  127.9360   69.6170 C   0  0  0  0  0  0  0  0  0  0  0  0
  130.9320  127.9120   70.9990 C   0  0  0  0  0  0  0  0  0  0  0  0
  129.8740  127.5620   71.8320 C   0  0  0  0  0  0  0  0  0  0  0  0
  128.6380  127.2300   71.2820 C   0  0  0  0  0  0  0  0  0  0  0  0
  128.4460  127.2500   69.8970 C   0  0  0  0  0  0  0  0  0  0  0  0
  127.0740  126.8720   69.3450 C   0  0  0  0  0  0  0  0  0  0  0  0
  128.6700  128.2760   65.0940 C   0  0  0  0  0  0  0  0  0  0  0  0
  128.2880  128.7120   63.8610 N   0  0  0  0  0  0  0  0  0  0  0  0
  128.1650  127.8670   62.9040 C   0  0  0  0  0  0  0  0  0  0  0  0
  127.5430  128.2510   61.3160 S   0  0  0  0  0  0  0  0  0  0  0  0
  127.7160  126.5500   60.7800 C   0  0  0  0  0  0  0  0  0  0  0  0
  127.3990  126.0300   59.5440 C   0  0  0  0  0  0  0  0  0  0  0  0
  126.7760  126.8810   58.5190 C   0  0  0  0  0  0  0  0  0  0  0  0
  126.4820  128.0750   58.5530 O   0  0  0  0  0  0  0  0  0  0  0  0
  126.5340  126.1090   57.4540 N   0  0  0  0  0  0  0  0  0  0  0  0
  126.9540  124.8250   57.6220 C   0  0  0  0  0  0  0  0  0  0  0  0
  126.8690  123.7710   56.7120 C   0  0  0  0  0  0  0  0  0  0  0  0
  127.3910  122.5310   57.0690 C   0  0  0  0  0  0  0  0  0  0  0  0
  127.9920  122.3690   58.3150 C   0  0  0  0  0  0  0  0  0  0  0  0
  128.0650  123.4390   59.2100 C   0  0  0  0  0  0  0  0  0  0  0  0
  127.5220  124.6950   58.8780 C   0  0  0  0  0  0  0  0  0  0  0  0
  128.2490  125.7750   61.9010 C   0  0  0  0  0  0  0  0  0  0  0  0
  128.4490  124.5640   61.9220 O   0  0  0  0  0  0  0  0  0  0  0  0
  128.4960  126.5530   62.9900 N   0  0  0  0  0  0  0  0  0  0  0  0
  130.9810  125.5090   62.6680 O   0  0  0  0  0  0  0  0  0  0  0  0
  134.0105  124.8105   61.4208 H   0  0  0  0  0  0  0  0  0  0  0  0
  132.4647  124.1986   60.7405 H   0  0  0  0  0  0  0  0  0  0  0  0
  132.8107  125.9613   60.7405 H   0  0  0  0  0  0  0  0  0  0  0  0
  133.7468  124.6842   64.2688 H   0  0  0  0  0  0  0  0  0  0  0  0
  131.6414  125.2036   65.8872 H   0  0  0  0  0  0  0  0  0  0  0  0
  128.5980  125.0508   64.5075 H   0  0  0  0  0  0  0  0  0  0  0  0
  129.0080  128.5130   67.2880 H   0  0  0  0  0  0  0  0  0  0  0  0
  131.6000  128.2090   68.9652 H   0  0  0  0  0  0  0  0  0  0  0  0
  131.9093  128.1705   71.4327 H   0  0  0  0  0  0  0  0  0  0  0  0
  130.0133  127.5475   72.9230 H   0  0  0  0  0  0  0  0  0  0  0  0
  127.8051  126.9494   71.9434 H   0  0  0  0  0  0  0  0  0  0  0  0
  126.3829  126.6816   70.1793 H   0  0  0  0  0  0  0  0  0  0  0  0
  126.6867  127.6969   68.7290 H   0  0  0  0  0  0  0  0  0  0  0  0
  127.1638  125.9651   68.7290 H   0  0  0  0  0  0  0  0  0  0  0  0
  128.6970  129.0136   65.9096 H   0  0  0  0  0  0  0  0  0  0  0  0
  126.1030  126.4550   56.6090 H   0  0  0  0  0  0  0  0  0  0  0  0
  126.3975  123.9174   55.7290 H   0  0  0  0  0  0  0  0  0  0  0  0
  127.3292  121.6834   56.3707 H   0  0  0  0  0  0  0  0  0  0  0  0
  128.4120  121.3920   58.5961 H   0  0  0  0  0  0  0  0  0  0  0  0
  128.5526  123.2987   60.1860 H   0  0  0  0  0  0  0  0  0  0  0  0
  1  2  1  0
  2  3  2  0
  3  4  1  0
  4  5  2  0
  5  6  1  0
  6  7  1  0
  7  8  1  0
  8  9  2  0
  8 10  1  0
 10 11  1  0
 11 12  2  0
 12 13  1  0
 13 14  2  0
 14 15  1  0
 15 16  2  0
 16 17  1  0
  7 18  2  0
 18 19  1  0
 19 20  2  0
 20 21  1  0
 21 22  1  0
 22 23  2  0
 23 24  1  0
 24 25  2  0
 24 26  1  0
 26 27  1  0
 27 28  2  0
 28 29  1  0
 29 30  2  0
 30 31  1  0
 31 32  2  0
 22 33  1  0
 33 34  2  0
 33 35  1  0
  5 36  1  0
 36  2  1  0
 35  6  1  0
 16 11  1  0
 35 20  1  0
 32 23  1  0
 32 27  1  0
  1 37  1  0
  1 38  1  0
  1 39  1  0
  3 40  1  0
  4 41  1  0
  6 42  1  1
 10 43  1  0
 12 44  1  0
 13 45  1  0
 14 46  1  0
 15 47  1  0
 17 48  1  0
 17 49  1  0
 17 50  1  0
 18 51  1  0
 26 52  1  0
 28 53  1  0
 29 54  1  0
 30 55  1  0
 31 56  1  0
M  END
>  <Binding energies>  (1) 
[-8.58]

>  <Ligand effiencies>  (1) 
[-0.22578947368421054]

>  <Interactions>  (1) 
["V-A:ASP:366:CG:3213, V-B:TYR:539:CZ:9849, V-B:PRO:540:N:9856, V-B:TYR:539:CE1:9847, V-B:TYR:539:CD1:9845, V-B:PRO:540:CA:9855, V-B:TYR:539:CE2:9848, H-B:TYR:531:OH:9767, V-B:TYR:539:C:9839, V-B:TYR:539:CG:9844, V-B:TYR:531:CZ:9766, V-B:TYR:539:CD2:9846, V-B:GLU:543:CG:9879, V-B:GLU:543:CB:9878, V-A:GLU:543:CD:4908, V-A:ARG:545:CZ:4926, V-B:GLU:543:CD:9880, V-B:HIS:456:CE1:9041, V-A:GLY:544:C:4912, V-B:GLY:544:C:9884, V-B:GLU:543:C:9874, V-A:HIS:456:CE1:4070, V-A:GLU:543:CG:4907, V-A:GLU:543:C:4902, V-A:GLU:543:CB:4906, H-A:GLU:543:OE2:4910, V-B:GLU:543:CA:9876, H-B:MET:535:SD:9806"]

$$$$
RR19_Rahimova_2017
     RDKit          3D

 72 77  0  0  0  0  0  0  0  0999 V2000
  133.5250  124.2280   64.3040 O   0  0  0  0  0  0  0  0  0  0  0  0
  132.3670  124.3120   63.8840 C   0  0  0  0  0  0  0  0  0  0  0  0
  132.0010  124.6300   62.6160 N   0  0  0  0  0  0  0  0  0  0  0  0
  132.6980  124.7300   61.4380 C   0  0  0  0  0  0  0  0  0  0  0  0
  134.2920  124.2150   61.1890 S   0  0  0  0  0  0  0  0  0  0  0  0
  131.8880  125.3140   60.4960 N   0  0  0  0  0  0  0  0  0  0  0  0
  132.0190  125.5160   59.1600 C   0  0  0  0  0  0  0  0  0  0  0  0
  132.8830  125.0270   58.4280 O   0  0  0  0  0  0  0  0  0  0  0  0
  130.9640  126.4800   58.5630 C   0  0  2  0  0  0  0  0  0  0  0  0
  130.8010  127.8250   59.3290 C   0  0  0  0  0  0  0  0  0  0  0  0
  130.9310  129.0760   58.4750 C   0  0  0  0  0  0  0  0  0  0  0  0
  129.8310  129.5670   57.7380 C   0  0  0  0  0  0  0  0  0  0  0  0
  129.9450  130.7540   57.0270 C   0  0  0  0  0  0  0  0  0  0  0  0
  131.1340  131.4730   57.0510 C   0  0  0  0  0  0  0  0  0  0  0  0
  132.2150  131.0180   57.7950 C   0  0  0  0  0  0  0  0  0  0  0  0
  132.1200  129.8350   58.5150 C   0  0  0  0  0  0  0  0  0  0  0  0
  129.6540  125.7980   58.3730 N   0  0  0  0  0  0  0  0  0  0  0  0
  128.7870  125.6260   59.4110 C   0  0  0  0  0  0  0  0  0  0  0  0
  128.9540  125.9590   60.5860 O   0  0  0  0  0  0  0  0  0  0  0  0
  127.5970  124.9600   58.8280 C   0  0  0  0  0  0  0  0  0  0  0  0
  126.4040  124.5380   59.4160 C   0  0  0  0  0  0  0  0  0  0  0  0
  125.4350  123.9340   58.6080 C   0  0  0  0  0  0  0  0  0  0  0  0
  125.6670  123.7620   57.2360 C   0  0  0  0  0  0  0  0  0  0  0  0
  126.8690  124.1930   56.6650 C   0  0  0  0  0  0  0  0  0  0  0  0
  127.8230  124.7910   57.4890 C   0  0  0  0  0  0  0  0  0  0  0  0
  129.1640  125.3480   57.1800 C   0  0  0  0  0  0  0  0  0  0  0  0
  129.7100  125.3990   56.0770 O   0  0  0  0  0  0  0  0  0  0  0  0
  131.1810  124.0540   64.8510 C   0  0  2  0  0  0  0  0  0  0  0  0
  130.3430  122.7900   64.4990 C   0  0  0  0  0  0  0  0  0  0  0  0
  129.9310  122.7110   63.0400 C   0  0  0  0  0  0  0  0  0  0  0  0
  130.7670  122.0680   62.1020 C   0  0  0  0  0  0  0  0  0  0  0  0
  130.3420  121.9070   60.7890 C   0  0  0  0  0  0  0  0  0  0  0  0
  129.0850  122.3520   60.4000 C   0  0  0  0  0  0  0  0  0  0  0  0
  128.2360  122.9520   61.3220 C   0  0  0  0  0  0  0  0  0  0  0  0
  128.6420  123.1230   62.6390 C   0  0  0  0  0  0  0  0  0  0  0  0
  130.3100  125.2480   65.0500 N   0  0  0  0  0  0  0  0  0  0  0  0
  129.9570  125.6780   66.2940 C   0  0  0  0  0  0  0  0  0  0  0  0
  130.2640  125.1710   67.3740 O   0  0  0  0  0  0  0  0  0  0  0  0
  129.1240  126.8850   66.0700 C   0  0  0  0  0  0  0  0  0  0  0  0
  128.4840  127.7350   66.9740 C   0  0  0  0  0  0  0  0  0  0  0  0
  127.7550  128.8190   66.4740 C   0  0  0  0  0  0  0  0  0  0  0  0
  127.6760  129.0400   65.0920 C   0  0  0  0  0  0  0  0  0  0  0  0
  128.3270  128.1780   64.2020 C   0  0  0  0  0  0  0  0  0  0  0  0
  129.0470  127.1010   64.7220 C   0  0  0  0  0  0  0  0  0  0  0  0
  129.8290  126.0380   64.0450 C   0  0  0  0  0  0  0  0  0  0  0  0
  130.0070  125.8990   62.8340 O   0  0  0  0  0  0  0  0  0  0  0  0
  131.0020  124.7200   62.5010 H   0  0  0  0  0  0  0  0  0  0  0  0
  131.0740  125.7650   60.8880 H   0  0  0  0  0  0  0  0  0  0  0  0
  131.3624  126.7641   57.5778 H   0  0  0  0  0  0  0  0  0  0  0  0
  129.8044  127.8329   59.7946 H   0  0  0  0  0  0  0  0  0  0  0  0
  131.6258  127.8644   60.0557 H   0  0  0  0  0  0  0  0  0  0  0  0
  128.8833  129.0087   57.7273 H   0  0  0  0  0  0  0  0  0  0  0  0
  129.0910  131.1268   56.4425 H   0  0  0  0  0  0  0  0  0  0  0  0
  131.2195  132.4078   56.4775 H   0  0  0  0  0  0  0  0  0  0  0  0
  133.1499  131.5973   57.8138 H   0  0  0  0  0  0  0  0  0  0  0  0
  132.9727  129.4887   59.1175 H   0  0  0  0  0  0  0  0  0  0  0  0
  126.2291  124.6775   60.4930 H   0  0  0  0  0  0  0  0  0  0  0  0
  124.4876  123.5927   59.0506 H   0  0  0  0  0  0  0  0  0  0  0  0
  124.9008  123.2863   56.6062 H   0  0  0  0  0  0  0  0  0  0  0  0
  127.0581  124.0632   55.5892 H   0  0  0  0  0  0  0  0  0  0  0  0
  131.6642  123.8448   65.8168 H   0  0  0  0  0  0  0  0  0  0  0  0
  130.9427  121.8994   64.7381 H   0  0  0  0  0  0  0  0  0  0  0  0
  129.4166  122.8468   65.0894 H   0  0  0  0  0  0  0  0  0  0  0  0
  131.7546  121.6945   62.4104 H   0  0  0  0  0  0  0  0  0  0  0  0
  131.0038  121.4250   60.0544 H   0  0  0  0  0  0  0  0  0  0  0  0
  128.7599  122.2288   59.3564 H   0  0  0  0  0  0  0  0  0  0  0  0
  127.2385  123.2928   61.0075 H   0  0  0  0  0  0  0  0  0  0  0  0
  127.9586  123.5798   63.3700 H   0  0  0  0  0  0  0  0  0  0  0  0
  128.5517  127.5559   68.0572 H   0  0  0  0  0  0  0  0  0  0  0  0
  127.2417  129.5008   67.1680 H   0  0  0  0  0  0  0  0  0  0  0  0
  127.1003  129.8940   64.7056 H   0  0  0  0  0  0  0  0  0  0  0  0
  128.2725  128.3456   63.1162 H   0  0  0  0  0  0  0  0  0  0  0  0
  1  2  2  0
  2  3  1  0
  3  4  1  0
  4  5  2  0
  4  6  1  0
  6  7  1  0
  7  8  2  0
  7  9  1  0
  9 10  1  0
 10 11  1  0
 11 12  2  0
 12 13  1  0
 13 14  2  0
 14 15  1  0
 15 16  2  0
  9 17  1  0
 17 18  1  0
 18 19  2  0
 18 20  1  0
 20 21  2  0
 21 22  1  0
 22 23  2  0
 23 24  1  0
 24 25  2  0
 25 26  1  0
 26 27  2  0
  2 28  1  0
 28 29  1  0
 29 30  1  0
 30 31  2  0
 31 32  1  0
 32 33  2  0
 33 34  1  0
 34 35  2  0
 28 36  1  0
 36 37  1  0
 37 38  2  0
 37 39  1  0
 39 40  2  0
 40 41  1  0
 41 42  2  0
 42 43  1  0
 43 44  2  0
 44 45  1  0
 45 46  2  0
 16 11  1  0
 26 17  1  0
 35 30  1  0
 45 36  1  0
 25 20  1  0
 44 39  1  0
  3 47  1  0
  6 48  1  0
  9 49  1  6
 10 50  1  0
 10 51  1  0
 12 52  1  0
 13 53  1  0
 14 54  1  0
 15 55  1  0
 16 56  1  0
 21 57  1  0
 22 58  1  0
 23 59  1  0
 24 60  1  0
 28 61  1  1
 29 62  1  0
 29 63  1  0
 31 64  1  0
 32 65  1  0
 33 66  1  0
 34 67  1  0
 35 68  1  0
 40 69  1  0
 41 70  1  0
 42 71  1  0
 43 72  1  0
M  END
>  <Binding energies>  (1) 
[-10.87]

>  <Ligand effiencies>  (1) 
[-0.22645833333333332]

>  <Interactions>  (1) 
["V-A:LEU:363:CD1:3189, V-A:ASP:366:CG:3213, H-A:TYR:531:OH:4795, H-B:TYR:539:OH:9850, V-A:ASP:366:CB:3212, V-B:TYR:539:CZ:9849, V-B:PRO:540:CB:9857, V-B:PRO:540:CA:9855, V-B:TYR:539:CE2:9848, V-B:MET:535:CE:9807, V-B:TYR:539:CD2:9846, V-A:MET:535:CE:4835, V-B:ALA:541:CB:9864, V-A:ILE:369:CD1:3239, V-B:GLU:543:CG:9879, V-A:LEU:475:CD2:4259, V-A:TYR:484:CZ:4347, V-B:GLU:543:CB:9878, H-A:TYR:484:OH:4348, V-A:GLU:543:CD:4908, V-A:TYR:484:CE2:4346, V-B:GLU:543:CD:9880, V-B:HIS:456:CE1:9041, H-A:GLY:454:N:4050"]

$$$$
RR19_Rahimova_2017-again1
     RDKit          3D

 71 76  0  0  0  0  0  0  0  0999 V2000
  133.1340  125.3980   58.2620 O   0  0  0  0  0  0  0  0  0  0  0  0
  132.1450  125.6210   58.9650 C   0  0  0  0  0  0  0  0  0  0  0  0
  131.9370  125.1410   60.2140 N   0  0  0  0  0  0  0  0  0  0  0  0
  132.7300  124.4500   61.0870 C   0  0  0  0  0  0  0  0  0  0  0  0
  134.2740  123.8190   60.8840 S   0  0  0  0  0  0  0  0  0  0  0  0
  132.0490  124.4070   62.2910 N   0  0  0  0  0  0  0  0  0  0  0  0
  132.5170  124.4360   63.4960 C   0  0  0  0  0  0  0  0  0  0  0  0
  133.6850  124.5920   63.9060 O   0  0  0  0  0  0  0  0  0  0  0  0
  131.4610  124.2260   64.6320 C   0  0  2  0  0  0  0  0  0  0  0  0
  130.7740  122.8240   64.5210 C   0  0  0  0  0  0  0  0  0  0  0  0
  129.9220  122.6330   63.2690 C   0  0  0  0  0  0  0  0  0  0  0  0
  128.6420  123.1890   63.2050 C   0  0  0  0  0  0  0  0  0  0  0  0
  127.8700  123.0280   62.0570 C   0  0  0  0  0  0  0  0  0  0  0  0
  128.3800  122.3080   60.9780 C   0  0  0  0  0  0  0  0  0  0  0  0
  129.6540  121.7470   61.0370 C   0  0  0  0  0  0  0  0  0  0  0  0
  130.4250  121.9070   62.1850 C   0  0  0  0  0  0  0  0  0  0  0  0
  130.5100  125.3760   64.7880 N   0  0  0  0  0  0  0  0  0  0  0  0
  130.0540  125.7650   66.0120 C   0  0  0  0  0  0  0  0  0  0  0  0
  130.3200  125.2610   67.1040 O   0  0  0  0  0  0  0  0  0  0  0  0
  129.1640  126.9250   65.7510 C   0  0  0  0  0  0  0  0  0  0  0  0
  128.4210  127.7220   66.6230 C   0  0  0  0  0  0  0  0  0  0  0  0
  127.6570  128.7660   66.0900 C   0  0  0  0  0  0  0  0  0  0  0  0
  127.6470  129.0000   64.7080 C   0  0  0  0  0  0  0  0  0  0  0  0
  128.4000  128.1910   63.8510 C   0  0  0  0  0  0  0  0  0  0  0  0
  129.1530  127.1530   64.4030 C   0  0  0  0  0  0  0  0  0  0  0  0
  130.0350  126.1480   63.7630 C   0  0  0  0  0  0  0  0  0  0  0  0
  130.2840  126.0370   62.5630 O   0  0  0  0  0  0  0  0  0  0  0  0
  131.0000  126.5250   58.4190 C   0  0  2  0  0  0  0  0  0  0  0  0
  130.8010  127.8400   59.2280 C   0  0  0  0  0  0  0  0  0  0  0  0
  130.9700  129.1030   58.4030 C   0  0  0  0  0  0  0  0  0  0  0  0
  129.8800  129.6220   57.6730 C   0  0  0  0  0  0  0  0  0  0  0  0
  130.0060  130.8300   56.9990 C   0  0  0  0  0  0  0  0  0  0  0  0
  131.1960  131.5460   57.0620 C   0  0  0  0  0  0  0  0  0  0  0  0
  132.2650  131.0650   57.8070 C   0  0  0  0  0  0  0  0  0  0  0  0
  132.1580  129.8600   58.4890 C   0  0  0  0  0  0  0  0  0  0  0  0
  129.7100  125.8050   58.1940 N   0  0  0  0  0  0  0  0  0  0  0  0
  129.3320  125.3890   56.9520 C   0  0  0  0  0  0  0  0  0  0  0  0
  129.9100  125.5980   55.8860 O   0  0  0  0  0  0  0  0  0  0  0  0
  128.0800  124.6200   57.1580 C   0  0  0  0  0  0  0  0  0  0  0  0
  127.2560  123.9530   56.2490 C   0  0  0  0  0  0  0  0  0  0  0  0
  126.1290  123.2810   56.7350 C   0  0  0  0  0  0  0  0  0  0  0  0
  125.8400  123.2860   58.1060 C   0  0  0  0  0  0  0  0  0  0  0  0
  126.6760  123.9630   59.0010 C   0  0  0  0  0  0  0  0  0  0  0  0
  127.7960  124.6250   58.4970 C   0  0  0  0  0  0  0  0  0  0  0  0
  128.8650  125.3900   59.1850 C   0  0  0  0  0  0  0  0  0  0  0  0
  128.9730  125.5960   60.3940 O   0  0  0  0  0  0  0  0  0  0  0  0
  131.0540  125.4190   60.6150 H   0  0  0  0  0  0  0  0  0  0  0  0
  132.0090  124.2192   65.5857 H   0  0  0  0  0  0  0  0  0  0  0  0
  131.5606  122.0551   64.5217 H   0  0  0  0  0  0  0  0  0  0  0  0
  130.0909  122.7419   65.3793 H   0  0  0  0  0  0  0  0  0  0  0  0
  128.2440  123.7537   64.0610 H   0  0  0  0  0  0  0  0  0  0  0  0
  126.8628  123.4669   62.0021 H   0  0  0  0  0  0  0  0  0  0  0  0
  127.7707  122.1814   60.0710 H   0  0  0  0  0  0  0  0  0  0  0  0
  130.0486  121.1805   60.1807 H   0  0  0  0  0  0  0  0  0  0  0  0
  131.4297  121.4624   62.2393 H   0  0  0  0  0  0  0  0  0  0  0  0
  128.4357  127.5334   67.7066 H   0  0  0  0  0  0  0  0  0  0  0  0
  127.0618  129.4057   66.7582 H   0  0  0  0  0  0  0  0  0  0  0  0
  127.0446  129.8230   64.2960 H   0  0  0  0  0  0  0  0  0  0  0  0
  128.3990  128.3687   62.7654 H   0  0  0  0  0  0  0  0  0  0  0  0
  131.3546  126.8262   57.4222 H   0  0  0  0  0  0  0  0  0  0  0  0
  129.7854  127.8360   59.6506 H   0  0  0  0  0  0  0  0  0  0  0  0
  131.5816  127.8587   60.0028 H   0  0  0  0  0  0  0  0  0  0  0  0
  128.9295  129.0695   57.6375 H   0  0  0  0  0  0  0  0  0  0  0  0
  129.1612  131.2215   56.4133 H   0  0  0  0  0  0  0  0  0  0  0  0
  131.2914  132.4980   56.5192 H   0  0  0  0  0  0  0  0  0  0  0  0
  133.2007  131.6412   57.8570 H   0  0  0  0  0  0  0  0  0  0  0  0
  132.9995  129.4954   59.0964 H   0  0  0  0  0  0  0  0  0  0  0  0
  127.4880  123.9558   55.1737 H   0  0  0  0  0  0  0  0  0  0  0  0
  125.4671  122.7465   56.0377 H   0  0  0  0  0  0  0  0  0  0  0  0
  124.9521  122.7555   58.4804 H   0  0  0  0  0  0  0  0  0  0  0  0
  126.4549  123.9730   60.0785 H   0  0  0  0  0  0  0  0  0  0  0  0
  1  2  2  0
  2  3  1  0
  3  4  1  0
  4  5  2  0
  4  6  1  0
  6  7  2  0
  7  8  1  0
  7  9  1  0
  9 10  1  0
 10 11  1  0
 11 12  2  0
 12 13  1  0
 13 14  2  0
 14 15  1  0
 15 16  2  0
  9 17  1  0
 17 18  1  0
 18 19  2  0
 18 20  1  0
 20 21  2  0
 21 22  1  0
 22 23  2  0
 23 24  1  0
 24 25  2  0
 25 26  1  0
 26 27  2  0
  2 28  1  0
 28 29  1  0
 29 30  1  0
 30 31  2  0
 31 32  1  0
 32 33  2  0
 33 34  1  0
 34 35  2  0
 28 36  1  0
 36 37  1  0
 37 38  2  0
 37 39  1  0
 39 40  2  0
 40 41  1  0
 41 42  2  0
 42 43  1  0
 43 44  2  0
 44 45  1  0
 45 46  2  0
 16 11  1  0
 26 17  1  0
 35 30  1  0
 45 36  1  0
 25 20  1  0
 44 39  1  0
  3 47  1  0
  9 48  1  1
 10 49  1  0
 10 50  1  0
 12 51  1  0
 13 52  1  0
 14 53  1  0
 15 54  1  0
 16 55  1  0
 21 56  1  0
 22 57  1  0
 23 58  1  0
 24 59  1  0
 28 60  1  6
 29 61  1  0
 29 62  1  0
 31 63  1  0
 32 64  1  0
 33 65  1  0
 34 66  1  0
 35 67  1  0
 40 68  1  0
 41 69  1  0
 42 70  1  0
 43 71  1  0
M  CHG  1   8  -1
M  END
>  <Binding energies>  (1) 
[-9.95]

>  <Ligand effiencies>  (1) 
[-0.21170212765957444]

>  <Interactions>  (1) 
["V-A:LEU:363:CD1:3189, V-A:ASP:366:CG:3213, H-A:TYR:531:OH:4795, H-B:TYR:539:OH:9850, V-A:ASP:366:CB:3212, V-B:TYR:539:CZ:9849, V-B:PRO:540:N:9856, V-B:PRO:540:CB:9857, V-B:PRO:540:CA:9855, V-B:TYR:539:CE2:9848, V-B:MET:535:CE:9807, V-B:PRO:540:C:9853, V-B:TYR:539:CD2:9846, V-A:MET:535:CE:4835, V-B:ALA:541:CB:9864, V-A:ILE:369:CD1:3239, V-B:GLU:543:CG:9879, V-A:ILE:369:CB:3236, V-A:ILE:369:CG2:3237, V-A:LEU:475:CD2:4259, V-A:TYR:484:CZ:4347, V-B:GLU:543:CB:9878, H-A:TYR:484:OH:4348, V-A:GLU:543:CD:4908, V-A:TYR:484:CE2:4346, V-B:GLU:543:CD:9880, H-A:ARG:545:NH2:4928, H-A:GLY:454:N:4050"]

$$$$
RR1_Rahimova_2017
     RDKit          3D

 68 71  0  0  0  0  0  0  0  0999 V2000
  131.4910  132.6920   56.6380 C   0  0  0  0  0  0  0  0  0  0  0  0
  130.1930  133.2350   56.4210 O   0  0  0  0  0  0  0  0  0  0  0  0
  129.1540  132.8460   57.2440 C   0  0  0  0  0  0  0  0  0  0  0  0
  128.0360  132.1140   56.8150 C   0  0  0  0  0  0  0  0  0  0  0  0
  127.0320  131.7740   57.7170 C   0  0  0  0  0  0  0  0  0  0  0  0
  127.1290  132.1500   59.0580 C   0  0  0  0  0  0  0  0  0  0  0  0
  126.0430  131.7980   59.8810 N   0  0  0  0  0  0  0  0  0  0  0  0
  125.2010  130.7470   59.7840 C   0  0  0  0  0  0  0  0  0  0  0  0
  125.2110  129.9220   58.8700 O   0  0  0  0  0  0  0  0  0  0  0  0
  124.1800  130.6370   60.9280 C   0  0  0  0  0  0  0  0  0  0  0  0
  124.5580  131.6300   62.4140 S   0  0  0  0  0  0  0  0  0  0  0  0
  126.2010  131.0530   62.6770 C   0  0  0  0  0  0  0  0  0  0  0  0
  127.2610  131.5580   62.0970 N   0  0  0  0  0  0  0  0  0  0  0  0
  128.2650  130.8390   62.5880 C   0  0  0  0  0  0  0  0  0  0  0  0
  129.6950  131.0870   62.2000 C   0  0  0  0  0  0  0  0  0  0  0  0
  130.2450  130.5370   61.0310 C   0  0  0  0  0  0  0  0  0  0  0  0
  131.5780  130.7830   60.6980 C   0  0  0  0  0  0  0  0  0  0  0  0
  132.3400  131.5800   61.5500 C   0  0  0  0  0  0  0  0  0  0  0  0
  131.8420  132.1260   62.6880 N   0  0  0  0  0  0  0  0  0  0  0  0
  130.5430  131.8770   62.9930 C   0  0  0  0  0  0  0  0  0  0  0  0
  127.9200  129.8950   63.4440 N   0  0  0  0  0  0  0  0  0  0  0  0
  126.5920  130.0300   63.5020 N   0  0  0  0  0  0  0  0  0  0  0  0
  125.7950  129.1700   64.3770 C   0  0  0  0  0  0  0  0  0  0  0  0
  126.2130  129.1840   65.8580 C   0  0  0  0  0  0  0  0  0  0  0  0
  125.3660  129.2630   66.7540 O   0  0  0  0  0  0  0  0  0  0  0  0
  127.5410  129.1100   66.0740 N   0  0  0  0  0  0  0  0  0  0  0  0
  127.9830  128.9700   67.3830 N   0  0  0  0  0  0  0  0  0  0  0  0
  128.8190  127.9450   67.6590 C   0  0  0  0  0  0  0  0  0  0  0  0
  129.2940  127.1890   66.8050 O   0  0  0  0  0  0  0  0  0  0  0  0
  129.1840  127.7730   69.1190 C   0  0  0  0  0  0  0  0  0  0  0  0
  130.4860  128.0510   69.5510 C   0  0  0  0  0  0  0  0  0  0  0  0
  130.8460  127.8880   70.8850 C   0  0  0  0  0  0  0  0  0  0  0  0
  129.9140  127.4330   71.8300 C   0  0  0  0  0  0  0  0  0  0  0  0
  130.2110  127.2370   73.1670 O   0  0  0  0  0  0  0  0  0  0  0  0
  131.5380  126.8930   73.5480 C   0  0  0  0  0  0  0  0  0  0  0  0
  128.6070  127.1420   71.4170 C   0  0  0  0  0  0  0  0  0  0  0  0
  127.7310  126.6770   72.3840 O   0  0  0  0  0  0  0  0  0  0  0  0
  126.9670  127.6050   73.1460 C   0  0  0  0  0  0  0  0  0  0  0  0
  128.2530  127.3170   70.0670 C   0  0  0  0  0  0  0  0  0  0  0  0
  128.2460  132.8810   59.4910 C   0  0  0  0  0  0  0  0  0  0  0  0
  129.2480  133.2190   58.5860 C   0  0  0  0  0  0  0  0  0  0  0  0
  131.6795  132.6132   57.7189 H   0  0  0  0  0  0  0  0  0  0  0  0
  131.5516  131.6931   56.1814 H   0  0  0  0  0  0  0  0  0  0  0  0
  132.2448  133.3502   56.1814 H   0  0  0  0  0  0  0  0  0  0  0  0
  127.9529  131.8078   55.7618 H   0  0  0  0  0  0  0  0  0  0  0  0
  126.1563  131.2053   57.3710 H   0  0  0  0  0  0  0  0  0  0  0  0
  125.8570  132.4530   60.6280 H   0  0  0  0  0  0  0  0  0  0  0  0
  123.2022  130.9617   60.5426 H   0  0  0  0  0  0  0  0  0  0  0  0
  124.2005  129.5861   61.2525 H   0  0  0  0  0  0  0  0  0  0  0  0
  129.6231  129.9100   60.3752 H   0  0  0  0  0  0  0  0  0  0  0  0
  132.0171  130.3573   59.7837 H   0  0  0  0  0  0  0  0  0  0  0  0
  133.3906  131.7749   61.2887 H   0  0  0  0  0  0  0  0  0  0  0  0
  130.1316  132.3187   63.9126 H   0  0  0  0  0  0  0  0  0  0  0  0
  124.7468  129.4977   64.3151 H   0  0  0  0  0  0  0  0  0  0  0  0
  125.9521  128.1405   64.0227 H   0  0  0  0  0  0  0  0  0  0  0  0
  128.2250  128.8380   65.3820 H   0  0  0  0  0  0  0  0  0  0  0  0
  127.2800  129.2660   68.0440 H   0  0  0  0  0  0  0  0  0  0  0  0
  131.2347  128.4031   68.8261 H   0  0  0  0  0  0  0  0  0  0  0  0
  131.8736  128.1186   71.2026 H   0  0  0  0  0  0  0  0  0  0  0  0
  131.6111  126.8740   74.6454 H   0  0  0  0  0  0  0  0  0  0  0  0
  131.7890  125.9001   73.1466 H   0  0  0  0  0  0  0  0  0  0  0  0
  132.2398  127.6389   73.1466 H   0  0  0  0  0  0  0  0  0  0  0  0
  127.1231  127.4154   74.2182 H   0  0  0  0  0  0  0  0  0  0  0  0
  127.2871  128.6293   72.9044 H   0  0  0  0  0  0  0  0  0  0  0  0
  125.9003  127.4876   72.9044 H   0  0  0  0  0  0  0  0  0  0  0  0
  127.2250  127.0919   69.7467 H   0  0  0  0  0  0  0  0  0  0  0  0
  128.3295  133.1865   60.5444 H   0  0  0  0  0  0  0  0  0  0  0  0
  130.1243  133.7867   58.9323 H   0  0  0  0  0  0  0  0  0  0  0  0
  1  2  1  0
  2  3  1  0
  3  4  2  0
  4  5  1  0
  5  6  2  0
  6  7  1  0
  7  8  1  0
  8  9  2  0
  8 10  1  0
 10 11  1  0
 11 12  1  0
 12 13  2  0
 13 14  1  0
 14 15  1  0
 15 16  2  0
 16 17  1  0
 17 18  2  0
 18 19  1  0
 19 20  2  0
 14 21  2  0
 21 22  1  0
 22 23  1  0
 23 24  1  0
 24 25  2  0
 24 26  1  0
 26 27  1  0
 27 28  1  0
 28 29  2  0
 28 30  1  0
 30 31  2  0
 31 32  1  0
 32 33  2  0
 33 34  1  0
 34 35  1  0
 33 36  1  0
 36 37  1  0
 37 38  1  0
 36 39  2  0
  6 40  1  0
 40 41  2  0
 41  3  1  0
 22 12  1  0
 39 30  1  0
 20 15  1  0
  1 42  1  0
  1 43  1  0
  1 44  1  0
  4 45  1  0
  5 46  1  0
  7 47  1  0
 10 48  1  0
 10 49  1  0
 16 50  1  0
 17 51  1  0
 18 52  1  0
 20 53  1  0
 23 54  1  0
 23 55  1  0
 26 56  1  0
 27 57  1  0
 31 58  1  0
 32 59  1  0
 35 60  1  0
 35 61  1  0
 35 62  1  0
 38 63  1  0
 38 64  1  0
 38 65  1  0
 39 66  1  0
 40 67  1  0
 41 68  1  0
M  END
>  <Binding energies>  (1) 
[-8.27]

>  <Ligand effiencies>  (1) 
[-0.18795454545454546]

>  <Interactions>  (1) 
["V-A:LEU:363:CD1:3189, V-A:PRO:540:CA:4883, V-A:PRO:540:CB:4885, V-A:PRO:540:CD:4887, V-A:PRO:540:N:4884, V-A:TYR:539:C:4867, H-A:TYR:539:N:4870, H-B:TYR:531:OH:9767, V-B:ASP:366:CG:8184, V-A:MET:535:CE:4835, V-A:GLU:543:CD:4908, V-B:GLU:543:CD:9880, V-B:HIS:456:CE1:9041, V-A:GLY:544:C:4912, H-A:LYS:547:NZ:4951, V-B:GLY:544:C:9884, V-B:HIS:456:CD2:9039, V-B:LYS:547:CE:9922, V-A:HIS:456:CE1:4070, V-A:GLU:543:CG:4907, V-A:GLU:543:C:4902, V-A:GLU:543:CB:4906, V-B:HIS:456:CG:9037, H-B:LYS:547:NZ:9923, H-A:GLU:543:OE1:4909, H-A:GLU:543:OE2:4910, V-B:TYR:484:CZ:9318, H-B:GLU:543:OE2:9882, H-B:TYR:484:OH:9319, V-A:ALA:541:CB:4892, V-A:HIS:456:CD2:4068, H-B:HIS:456:NE2:9042, V-A:HIS:456:CG:4066, V-A:TYR:539:CE1:4875, V-A:ALA:541:CA:4890, V-A:TYR:539:CZ:4877, H-A:ALA:541:N:4891, V-A:TYR:539:CD1:4873, V-A:TYR:539:CA:4869, V-A:ILE:538:CG2:4863, V-A:ILE:538:CB:4862, V-B:ARG:545:CZ:9898, H-B:ARG:545:NE:9896"]

$$$$
RR20_Rahimova_2017
     RDKit          3D

 68 73  0  0  0  0  0  0  0  0999 V2000
  133.1150  124.1160   76.3840 C   0  0  0  0  0  0  0  0  0  0  0  0
  132.3560  125.0720   75.4810 C   0  0  0  0  0  0  0  0  0  0  0  0
  130.9600  125.0700   75.4850 C   0  0  0  0  0  0  0  0  0  0  0  0
  130.2620  125.9520   74.6640 C   0  0  0  0  0  0  0  0  0  0  0  0
  130.9530  126.8330   73.8240 C   0  0  0  0  0  0  0  0  0  0  0  0
  130.1750  127.7970   72.9560 C   0  0  0  0  0  0  0  0  0  0  0  0
  130.3810  129.0030   73.1150 O   0  0  0  0  0  0  0  0  0  0  0  0
  129.2970  127.3070   72.0320 N   0  0  0  0  0  0  0  0  0  0  0  0
  127.9220  126.9320   72.3980 C   0  0  0  0  0  0  0  0  0  0  0  0
  127.2130  126.5840   71.1000 C   0  0  0  0  0  0  0  0  0  0  0  0
  128.1290  127.1510   70.0570 C   0  0  0  0  0  0  0  0  0  0  0  0
  127.9560  127.2100   68.6740 C   0  0  0  0  0  0  0  0  0  0  0  0
  129.0020  127.6310   67.8420 C   0  0  0  0  0  0  0  0  0  0  0  0
  128.8140  127.7030   66.3530 C   0  0  0  0  0  0  0  0  0  0  0  0
  128.2750  128.7980   65.8400 N   0  0  0  0  0  0  0  0  0  0  0  0
  128.1770  128.7610   64.5350 C   0  0  0  0  0  0  0  0  0  0  0  0
  127.6700  129.7340   63.6880 N   0  0  0  0  0  0  0  0  0  0  0  0
  127.7520  131.0770   63.8480 C   0  0  0  0  0  0  0  0  0  0  0  0
  128.3290  131.6250   64.7900 O   0  0  0  0  0  0  0  0  0  0  0  0
  127.1070  131.9790   62.7690 C   0  0  0  0  0  0  0  0  0  0  0  0
  127.8810  132.0190   61.5140 N   0  0  0  0  0  0  0  0  0  0  0  0
  127.6780  133.2710   60.7700 C   0  0  0  0  0  0  0  0  0  0  0  0
  128.2880  133.1540   59.3550 C   0  0  0  0  0  0  0  0  0  0  0  0
  129.6910  132.5450   59.3580 C   0  0  0  0  0  0  0  0  0  0  0  0
  130.5050  132.6050   58.2210 C   0  0  0  0  0  0  0  0  0  0  0  0
  131.7670  132.0170   58.2110 C   0  0  0  0  0  0  0  0  0  0  0  0
  132.2340  131.3610   59.3460 C   0  0  0  0  0  0  0  0  0  0  0  0
  131.4370  131.3020   60.4880 C   0  0  0  0  0  0  0  0  0  0  0  0
  130.1670  131.8880   60.5110 C   0  0  0  0  0  0  0  0  0  0  0  0
  129.3170  131.8740   61.7820 C   0  0  0  0  0  0  0  0  0  0  0  0
  128.7560  127.3070   63.8200 S   0  0  0  0  0  0  0  0  0  0  0  0
  129.1510  126.7060   65.4130 C   0  0  0  0  0  0  0  0  0  0  0  0
  129.7250  125.3170   65.5870 C   0  0  0  0  0  0  0  0  0  0  0  0
  130.2400  127.9370   68.4270 C   0  0  0  0  0  0  0  0  0  0  0  0
  130.4210  127.8600   69.8070 C   0  0  0  0  0  0  0  0  0  0  0  0
  129.3430  127.5200   70.6350 C   0  0  0  0  0  0  0  0  0  0  0  0
  132.3530  126.8490   73.8480 C   0  0  0  0  0  0  0  0  0  0  0  0
  133.0520  125.9680   74.6690 C   0  0  0  0  0  0  0  0  0  0  0  0
  132.9148  124.3682   77.4358 H   0  0  0  0  0  0  0  0  0  0  0  0
  132.7866  123.0852   76.1852 H   0  0  0  0  0  0  0  0  0  0  0  0
  134.1935  124.2021   76.1852 H   0  0  0  0  0  0  0  0  0  0  0  0
  130.4121  124.3727   76.1358 H   0  0  0  0  0  0  0  0  0  0  0  0
  129.1621  125.9564   74.6757 H   0  0  0  0  0  0  0  0  0  0  0  0
  127.9312  126.0624   73.0716 H   0  0  0  0  0  0  0  0  0  0  0  0
  127.4114  127.7520   72.9242 H   0  0  0  0  0  0  0  0  0  0  0  0
  127.1086  125.4950   70.9855 H   0  0  0  0  0  0  0  0  0  0  0  0
  126.1894  126.9828   71.0431 H   0  0  0  0  0  0  0  0  0  0  0  0
  126.9900  126.9235   68.2327 H   0  0  0  0  0  0  0  0  0  0  0  0
  127.1800  129.3980   62.8700 H   0  0  0  0  0  0  0  0  0  0  0  0
  126.1000  131.5957   62.5478 H   0  0  0  0  0  0  0  0  0  0  0  0
  127.0774  133.0027   63.1704 H   0  0  0  0  0  0  0  0  0  0  0  0
  126.6000  133.4732   60.6857 H   0  0  0  0  0  0  0  0  0  0  0  0
  128.1726  134.0932   61.3079 H   0  0  0  0  0  0  0  0  0  0  0  0
  127.6316  132.5193   58.7416 H   0  0  0  0  0  0  0  0  0  0  0  0
  128.3720  134.1723   58.9475 H   0  0  0  0  0  0  0  0  0  0  0  0
  130.1422  133.1245   57.3218 H   0  0  0  0  0  0  0  0  0  0  0  0
  132.3933  132.0708   57.3083 H   0  0  0  0  0  0  0  0  0  0  0  0
  133.2284  130.8908   59.3419 H   0  0  0  0  0  0  0  0  0  0  0  0
  131.8123  130.7869   61.3846 H   0  0  0  0  0  0  0  0  0  0  0  0
  129.4816  130.9193   62.3031 H   0  0  0  0  0  0  0  0  0  0  0  0
  129.6259  132.7346   62.3936 H   0  0  0  0  0  0  0  0  0  0  0  0
  129.8186  125.0906   66.6594 H   0  0  0  0  0  0  0  0  0  0  0  0
  129.0568  124.5822   65.1141 H   0  0  0  0  0  0  0  0  0  0  0  0
  130.7169  125.2683   65.1141 H   0  0  0  0  0  0  0  0  0  0  0  0
  131.0807  128.2424   67.7868 H   0  0  0  0  0  0  0  0  0  0  0  0
  131.4087  128.0659   70.2453 H   0  0  0  0  0  0  0  0  0  0  0  0
  132.9032  127.5610   73.2152 H   0  0  0  0  0  0  0  0  0  0  0  0
  134.1519  125.9784   74.6774 H   0  0  0  0  0  0  0  0  0  0  0  0
  1  2  1  0
  2  3  2  0
  3  4  1  0
  4  5  2  0
  5  6  1  0
  6  7  2  0
  6  8  1  0
  8  9  1  0
  9 10  1  0
 10 11  1  0
 11 12  2  0
 12 13  1  0
 13 14  1  0
 14 15  1  0
 15 16  2  0
 16 17  1  0
 17 18  1  0
 18 19  2  0
 18 20  1  0
 20 21  1  0
 21 22  1  0
 22 23  1  0
 23 24  1  0
 24 25  2  0
 25 26  1  0
 26 27  2  0
 27 28  1  0
 28 29  2  0
 29 30  1  0
 16 31  1  0
 31 32  1  0
 32 33  1  0
 13 34  2  0
 34 35  1  0
 35 36  2  0
  5 37  1  0
 37 38  2  0
 38  2  1  0
 36  8  1  0
 36 11  1  0
 32 14  2  0
 30 21  1  0
 29 24  1  0
  1 39  1  0
  1 40  1  0
  1 41  1  0
  3 42  1  0
  4 43  1  0
  9 44  1  0
  9 45  1  0
 10 46  1  0
 10 47  1  0
 12 48  1  0
 17 49  1  0
 20 50  1  0
 20 51  1  0
 22 52  1  0
 22 53  1  0
 23 54  1  0
 23 55  1  0
 25 56  1  0
 26 57  1  0
 27 58  1  0
 28 59  1  0
 30 60  1  0
 30 61  1  0
 33 62  1  0
 33 63  1  0
 33 64  1  0
 34 65  1  0
 35 66  1  0
 37 67  1  0
 38 68  1  0
M  END
>  <Binding energies>  (1) 
[-10.1]

>  <Ligand effiencies>  (1) 
[-0.25897435897435894]

>  <Interactions>  (1) 
["V-A:LEU:363:CD1:3189, V-A:PRO:540:CA:4883, V-A:PRO:540:CB:4885, V-A:PRO:540:N:4884, V-A:TYR:539:C:4867, V-B:GLU:543:CG:9879, V-B:GLU:543:CB:9878, V-A:GLU:543:CD:4908, V-B:GLU:543:CD:9880, V-B:HIS:456:CE1:9041, V-A:GLY:544:C:4912, H-A:LYS:547:NZ:4951, V-B:GLY:544:C:9884, V-B:GLU:543:C:9874, V-B:LYS:547:CE:9922, V-A:HIS:456:CE1:4070, V-A:GLU:543:CG:4907, V-A:GLU:543:C:4902, V-A:GLU:543:CB:4906, V-B:GLY:544:CA:9886, H-B:TYR:484:OH:9319, V-A:HIS:456:CD2:4068, V-A:HIS:456:CB:4065, V-A:HIS:456:CG:4066, V-A:TYR:539:CE1:4875, V-A:TYR:539:CD1:4873"]

$$$$
RR20_Rahimova_2017-again1
     RDKit          3D

 68 73  0  0  0  0  0  0  0  0999 V2000
  124.9140  122.7480   57.2540 C   0  0  0  0  0  0  0  0  0  0  0  0
  126.0980  123.6620   56.9930 C   0  0  0  0  0  0  0  0  0  0  0  0
  126.0060  125.0230   57.2890 C   0  0  0  0  0  0  0  0  0  0  0  0
  127.0940  125.8600   57.0570 C   0  0  0  0  0  0  0  0  0  0  0  0
  128.2790  125.3460   56.5170 C   0  0  0  0  0  0  0  0  0  0  0  0
  129.4560  126.2680   56.2880 C   0  0  0  0  0  0  0  0  0  0  0  0
  129.8500  126.4180   55.1300 O   0  0  0  0  0  0  0  0  0  0  0  0
  130.0140  126.9130   57.3540 N   0  0  0  0  0  0  0  0  0  0  0  0
  129.8450  128.3620   57.5500 C   0  0  0  0  0  0  0  0  0  0  0  0
  130.4660  128.6880   58.8980 C   0  0  0  0  0  0  0  0  0  0  0  0
  130.6070  127.3380   59.5340 C   0  0  0  0  0  0  0  0  0  0  0  0
  131.0470  127.0140   60.8180 C   0  0  0  0  0  0  0  0  0  0  0  0
  131.2720  125.6770   61.1800 C   0  0  0  0  0  0  0  0  0  0  0  0
  131.7520  125.3270   62.5600 C   0  0  0  0  0  0  0  0  0  0  0  0
  130.9490  125.5770   63.5830 N   0  0  0  0  0  0  0  0  0  0  0  0
  131.4510  125.2490   64.7490 C   0  0  0  0  0  0  0  0  0  0  0  0
  130.9090  125.4100   65.9970 N   0  0  0  0  0  0  0  0  0  0  0  0
  130.0230  124.6350   66.5250 C   0  0  0  0  0  0  0  0  0  0  0  0
  129.5120  123.5720   66.1250 O   0  0  0  0  0  0  0  0  0  0  0  0
  129.5210  125.1090   67.9050 C   0  0  0  0  0  0  0  0  0  0  0  0
  128.9340  126.5460   67.7900 N   0  0  2  0  0  0  0  0  0  0  0  0
  130.0180  127.6380   67.9080 C   0  0  0  0  0  0  0  0  0  0  0  0
  130.6290  127.6210   69.3210 C   0  0  0  0  0  0  0  0  0  0  0  0
  129.5820  127.6080   70.4300 C   0  0  0  0  0  0  0  0  0  0  0  0
  129.9360  128.0060   71.7250 C   0  0  0  0  0  0  0  0  0  0  0  0
  129.0190  127.9620   72.7710 C   0  0  0  0  0  0  0  0  0  0  0  0
  127.7240  127.5180   72.5330 C   0  0  0  0  0  0  0  0  0  0  0  0
  127.3520  127.1310   71.2480 C   0  0  0  0  0  0  0  0  0  0  0  0
  128.2570  127.1760   70.1810 C   0  0  0  0  0  0  0  0  0  0  0  0
  127.7690  126.7880   68.7800 C   0  0  0  0  0  0  0  0  0  0  0  0
  133.0450  124.6000   64.6450 S   0  0  0  0  0  0  0  0  0  0  0  0
  132.9900  124.7500   62.9050 C   0  0  0  0  0  0  0  0  0  0  0  0
  134.1480  124.2710   62.0560 C   0  0  0  0  0  0  0  0  0  0  0  0
  131.0910  124.6830   60.2090 C   0  0  0  0  0  0  0  0  0  0  0  0
  130.6690  125.0060   58.9190 C   0  0  0  0  0  0  0  0  0  0  0  0
  130.3720  126.3350   58.5930 C   0  0  0  0  0  0  0  0  0  0  0  0
  128.3740  123.9740   56.2510 C   0  0  0  0  0  0  0  0  0  0  0  0
  127.2860  123.1370   56.4830 C   0  0  0  0  0  0  0  0  0  0  0  0
  124.7692  122.6362   58.3387 H   0  0  0  0  0  0  0  0  0  0  0  0
  124.0087  123.1838   56.8062 H   0  0  0  0  0  0  0  0  0  0  0  0
  125.1063  121.7619   56.8062 H   0  0  0  0  0  0  0  0  0  0  0  0
  125.0744  125.4339   57.7053 H   0  0  0  0  0  0  0  0  0  0  0  0
  127.0222  126.9306   57.2992 H   0  0  0  0  0  0  0  0  0  0  0  0
  130.3584  128.9164   56.7506 H   0  0  0  0  0  0  0  0  0  0  0  0
  128.7830  128.6471   57.5208 H   0  0  0  0  0  0  0  0  0  0  0  0
  131.4459  129.1728   58.7760 H   0  0  0  0  0  0  0  0  0  0  0  0
  129.8661  129.3903   59.4954 H   0  0  0  0  0  0  0  0  0  0  0  0
  131.2191  127.8140   61.5531 H   0  0  0  0  0  0  0  0  0  0  0  0
  128.7394  124.4233   68.2641 H   0  0  0  0  0  0  0  0  0  0  0  0
  130.3625  125.1171   68.6134 H   0  0  0  0  0  0  0  0  0  0  0  0
  128.5560  126.6180   66.8540 H   0  0  0  0  0  0  0  0  0  0  0  0
  130.8084  127.4486   67.1668 H   0  0  0  0  0  0  0  0  0  0  0  0
  129.5619  128.6218   67.7230 H   0  0  0  0  0  0  0  0  0  0  0  0
  131.2543  126.7215   69.4204 H   0  0  0  0  0  0  0  0  0  0  0  0
  131.2133  128.5460   69.4349 H   0  0  0  0  0  0  0  0  0  0  0  0
  130.9590  128.3604   71.9194 H   0  0  0  0  0  0  0  0  0  0  0  0
  129.3180  128.2773   73.7815 H   0  0  0  0  0  0  0  0  0  0  0  0
  126.9957  127.4724   73.3561 H   0  0  0  0  0  0  0  0  0  0  0  0
  126.3245  126.7823   71.0675 H   0  0  0  0  0  0  0  0  0  0  0  0
  127.1746  125.8656   68.8568 H   0  0  0  0  0  0  0  0  0  0  0  0
  127.1703  127.6252   68.3919 H   0  0  0  0  0  0  0  0  0  0  0  0
  134.9660  123.9326   62.7089 H   0  0  0  0  0  0  0  0  0  0  0  0
  133.8164  123.4362   61.4210 H   0  0  0  0  0  0  0  0  0  0  0  0
  134.5031  125.0961   61.4210 H   0  0  0  0  0  0  0  0  0  0  0  0
  131.2847  123.6316   60.4679 H   0  0  0  0  0  0  0  0  0  0  0  0
  130.5697  124.2173   58.1587 H   0  0  0  0  0  0  0  0  0  0  0  0
  129.3122  123.5562   55.8571 H   0  0  0  0  0  0  0  0  0  0  0  0
  127.3629  122.0617   56.2643 H   0  0  0  0  0  0  0  0  0  0  0  0
  1  2  1  0
  2  3  2  0
  3  4  1  0
  4  5  2  0
  5  6  1  0
  6  7  2  0
  6  8  1  0
  8  9  1  0
  9 10  1  0
 10 11  1  0
 11 12  2  0
 12 13  1  0
 13 14  1  0
 14 15  1  0
 15 16  2  0
 16 17  1  0
 17 18  2  0
 18 19  1  0
 18 20  1  0
 20 21  1  0
 21 22  1  0
 22 23  1  0
 23 24  1  0
 24 25  2  0
 25 26  1  0
 26 27  2  0
 27 28  1  0
 28 29  2  0
 29 30  1  0
 16 31  1  0
 31 32  1  0
 32 33  1  0
 13 34  2  0
 34 35  1  0
 35 36  2  0
  5 37  1  0
 37 38  2  0
 38  2  1  0
 36  8  1  0
 36 11  1  0
 32 14  2  0
 30 21  1  0
 29 24  1  0
  1 39  1  0
  1 40  1  0
  1 41  1  0
  3 42  1  0
  4 43  1  0
  9 44  1  0
  9 45  1  0
 10 46  1  0
 10 47  1  0
 12 48  1  0
 20 49  1  0
 20 50  1  0
 21 51  1  6
 22 52  1  0
 22 53  1  0
 23 54  1  0
 23 55  1  0
 25 56  1  0
 26 57  1  0
 27 58  1  0
 28 59  1  0
 30 60  1  0
 30 61  1  0
 33 62  1  0
 33 63  1  0
 33 64  1  0
 34 65  1  0
 35 66  1  0
 37 67  1  0
 38 68  1  0
M  CHG  2  19  -1  21   1
M  END
>  <Binding energies>  (1) 
[-9.54]

>  <Ligand effiencies>  (1) 
[-0.2446153846153846]

>  <Interactions>  (1) 
["V-A:ASP:366:CG:3213, H-A:TYR:531:OH:4795, H-B:TYR:539:OH:9850, V-B:TYR:539:CZ:9849, V-B:PRO:540:N:9856, V-B:TYR:539:CE1:9847, V-B:PRO:540:CB:9857, V-B:TYR:539:CD1:9845, V-B:PRO:540:CA:9855, V-B:TYR:539:CE2:9848, V-B:PRO:540:CD:9859, V-B:MET:535:CE:9807, V-B:LEU:363:CD1:8160, V-B:PRO:540:CG:9858, V-B:TYR:531:CE2:9765, V-A:ILE:369:CD1:3239, V-B:GLU:543:CG:9879, V-A:TYR:484:CZ:4347, V-B:GLU:543:CB:9878, H-A:TYR:484:OH:4348, V-A:GLU:543:CD:4908, V-A:TYR:484:CE2:4346, V-A:ARG:545:CZ:4926, V-B:HIS:456:CE1:9041, V-B:GLY:544:C:9884, V-B:GLU:543:C:9874, V-B:HIS:456:CD2:9039, V-A:HIS:456:CE1:4070, V-A:GLU:543:CG:4907, V-A:GLU:543:CB:4906, V-B:HIS:456:CG:9037, V-B:GLY:544:CA:9886, H-A:GLU:543:OE2:4910, H-B:GLU:543:OE2:9882, V-B:GLU:543:CA:9876"]

$$$$
RR21_Rahimova_2017
     RDKit          3D

 62 67  0  0  0  0  0  0  0  0999 V2000
  133.8030  123.0040   62.0720 C   0  0  0  0  0  0  0  0  0  0  0  0
  133.4180  122.5650   63.3710 O   0  0  0  0  0  0  0  0  0  0  0  0
  132.5690  123.3530   64.1260 C   0  0  0  0  0  0  0  0  0  0  0  0
  131.2740  122.9720   64.5140 C   0  0  0  0  0  0  0  0  0  0  0  0
  130.4810  123.8260   65.2800 C   0  0  0  0  0  0  0  0  0  0  0  0
  130.9610  125.0790   65.6790 C   0  0  0  0  0  0  0  0  0  0  0  0
  130.1090  125.9930   66.5050 C   0  0  0  0  0  0  0  0  0  0  0  0
  130.2330  125.9950   67.8180 N   0  0  0  0  0  0  0  0  0  0  0  0
  129.3590  126.8990   68.2860 N   0  0  0  0  0  0  0  0  0  0  0  0
  129.2450  127.1710   69.6740 C   0  0  0  0  0  0  0  0  0  0  0  0
  130.3230  127.7150   70.3900 C   0  0  0  0  0  0  0  0  0  0  0  0
  130.1970  127.9820   71.7510 C   0  0  0  0  0  0  0  0  0  0  0  0
  128.9970  127.7060   72.4000 C   0  0  0  0  0  0  0  0  0  0  0  0
  127.9210  127.1630   71.7020 C   0  0  0  0  0  0  0  0  0  0  0  0
  128.0430  126.8950   70.3420 C   0  0  0  0  0  0  0  0  0  0  0  0
  128.6850  127.4880   67.2460 C   0  0  0  0  0  0  0  0  0  0  0  0
  129.1330  126.9160   66.0650 C   0  0  0  0  0  0  0  0  0  0  0  0
  128.7460  127.2470   64.7020 C   0  0  0  0  0  0  0  0  0  0  0  0
  128.2230  128.4050   64.2380 C   0  0  0  0  0  0  0  0  0  0  0  0
  127.8400  129.8760   65.1580 S   0  0  0  0  0  0  0  0  0  0  0  0
  127.3060  130.6500   63.6730 C   0  0  0  0  0  0  0  0  0  0  0  0
  126.8590  131.8580   63.5210 N   0  0  0  0  0  0  0  0  0  0  0  0
  126.4690  132.3680   62.2520 C   0  0  0  0  0  0  0  0  0  0  0  0
  126.0560  133.5040   62.0220 O   0  0  0  0  0  0  0  0  0  0  0  0
  126.6080  131.3760   61.1300 C   0  0  0  0  0  0  0  0  0  0  0  0
  126.1980  131.8080   59.7160 C   0  0  0  0  0  0  0  0  0  0  0  0
  127.3710  132.1030   58.7830 C   0  0  0  0  0  0  0  0  0  0  0  0
  128.5490  132.6550   59.2940 C   0  0  0  0  0  0  0  0  0  0  0  0
  129.6240  132.9090   58.4450 C   0  0  0  0  0  0  0  0  0  0  0  0
  129.5250  132.6090   57.0850 C   0  0  0  0  0  0  0  0  0  0  0  0
  130.7040  132.8760   56.1680 C   0  0  0  0  0  0  0  0  0  0  0  0
  128.3520  132.0470   56.5750 C   0  0  0  0  0  0  0  0  0  0  0  0
  127.2770  131.7940   57.4230 C   0  0  0  0  0  0  0  0  0  0  0  0
  127.0500  130.1730   61.2970 N   0  0  0  0  0  0  0  0  0  0  0  0
  127.4100  129.8050   62.6000 N   0  0  0  0  0  0  0  0  0  0  0  0
  127.8970  128.5600   62.8270 C   0  0  0  0  0  0  0  0  0  0  0  0
  128.0450  127.6920   61.9590 O   0  0  0  0  0  0  0  0  0  0  0  0
  132.2480  125.4620   65.2870 C   0  0  0  0  0  0  0  0  0  0  0  0
  133.0430  124.6090   64.5210 C   0  0  0  0  0  0  0  0  0  0  0  0
  134.2840  125.0090   64.1590 F   0  0  0  0  0  0  0  0  0  0  0  0
  134.5258  123.8282   62.1628 H   0  0  0  0  0  0  0  0  0  0  0  0
  134.2655  122.1692   61.5250 H   0  0  0  0  0  0  0  0  0  0  0  0
  132.9150  123.3536   61.5250 H   0  0  0  0  0  0  0  0  0  0  0  0
  130.8814  121.9903   64.2107 H   0  0  0  0  0  0  0  0  0  0  0  0
  129.4685  123.5119   65.5735 H   0  0  0  0  0  0  0  0  0  0  0  0
  131.2703  127.9311   69.8744 H   0  0  0  0  0  0  0  0  0  0  0  0
  131.0422  128.4092   72.3107 H   0  0  0  0  0  0  0  0  0  0  0  0
  128.8975  127.9188   73.4746 H   0  0  0  0  0  0  0  0  0  0  0  0
  126.9774  126.9466   72.2243 H   0  0  0  0  0  0  0  0  0  0  0  0
  127.1944  126.4655   69.7893 H   0  0  0  0  0  0  0  0  0  0  0  0
  127.9226  128.2761   67.3338 H   0  0  0  0  0  0  0  0  0  0  0  0
  128.8980  126.4550   63.9539 H   0  0  0  0  0  0  0  0  0  0  0  0
  125.5977  131.0013   59.2700 H   0  0  0  0  0  0  0  0  0  0  0  0
  125.6379  132.7485   59.8243 H   0  0  0  0  0  0  0  0  0  0  0  0
  128.6273  132.8888   60.3660 H   0  0  0  0  0  0  0  0  0  0  0  0
  130.5505  133.3458   58.8460 H   0  0  0  0  0  0  0  0  0  0  0  0
  131.6002  133.0790   56.7727 H   0  0  0  0  0  0  0  0  0  0  0  0
  130.8816  131.9953   55.5333 H   0  0  0  0  0  0  0  0  0  0  0  0
  130.4849  133.7473   55.5333 H   0  0  0  0  0  0  0  0  0  0  0  0
  128.2778  131.8046   55.5046 H   0  0  0  0  0  0  0  0  0  0  0  0
  126.3533  131.3508   57.0225 H   0  0  0  0  0  0  0  0  0  0  0  0
  132.6374  126.4464   65.5859 H   0  0  0  0  0  0  0  0  0  0  0  0
  1  2  1  0
  2  3  1  0
  3  4  2  0
  4  5  1  0
  5  6  2  0
  6  7  1  0
  7  8  2  0
  8  9  1  0
  9 10  1  0
 10 11  2  0
 11 12  1  0
 12 13  2  0
 13 14  1  0
 14 15  2  0
  9 16  1  0
 16 17  2  0
 17 18  1  0
 18 19  2  0
 19 20  1  0
 20 21  1  0
 21 22  2  0
 22 23  1  0
 23 24  2  0
 23 25  1  0
 25 26  1  0
 26 27  1  0
 27 28  2  0
 28 29  1  0
 29 30  2  0
 30 31  1  0
 30 32  1  0
 32 33  2  0
 25 34  2  0
 34 35  1  0
 35 36  1  0
 36 37  2  0
  6 38  1  0
 38 39  2  0
 39 40  1  0
 39  3  1  0
 17  7  1  0
 36 19  1  0
 15 10  1  0
 35 21  1  0
 33 27  1  0
  1 41  1  0
  1 42  1  0
  1 43  1  0
  4 44  1  0
  5 45  1  0
 11 46  1  0
 12 47  1  0
 13 48  1  0
 14 49  1  0
 15 50  1  0
 16 51  1  0
 18 52  1  0
 26 53  1  0
 26 54  1  0
 28 55  1  0
 29 56  1  0
 31 57  1  0
 31 58  1  0
 31 59  1  0
 32 60  1  0
 33 61  1  0
 38 62  1  0
M  END
>  <Binding energies>  (1) 
[-9.66]

>  <Ligand effiencies>  (1) 
[-0.2415]

>  <Interactions>  (1) 
["V-A:PRO:540:CA:4883, V-A:PRO:540:N:4884, V-A:TYR:539:C:4867, V-A:MET:535:CE:4835, V-A:ILE:369:CD1:3239, V-B:GLU:543:CG:9879, V-A:LEU:475:CD2:4259, V-A:TYR:484:CZ:4347, V-A:GLY:453:CA:4044, V-B:GLU:543:CB:9878, H-A:TYR:484:OH:4348, V-A:GLU:543:CD:4908, V-A:TYR:484:CE2:4346, V-A:GLY:454:CA:4049, V-A:ARG:545:CZ:4926, V-B:GLU:543:CD:9880, V-B:HIS:456:CE1:9041, V-A:GLY:544:C:4912, V-B:GLY:544:C:9884, V-B:GLU:543:C:9874, V-B:HIS:456:CD2:9039, V-A:HIS:456:CE1:4070, V-A:GLU:543:CG:4907, H-B:TYR:484:OH:9319, V-A:TYR:539:CE1:4875, V-A:TYR:539:CZ:4877, H-A:GLY:454:N:4050, V-A:GLY:453:C:4042, V-A:TYR:539:CD1:4873, V-A:ILE:538:CA:4860, V-A:ILE:538:CG2:4863, V-A:ILE:538:CB:4862"]

$$$$
RR22_Rahimova_2017
     RDKit          3D

 49 54  0  0  0  0  0  0  0  0999 V2000
  134.0020  124.2500   57.5450 O   0  0  0  0  0  0  0  0  0  0  0  0
  133.1830  124.9580   58.1270 C   0  0  0  0  0  0  0  0  0  0  0  0
  132.5900  126.1190   57.6630 N   0  0  0  0  0  0  0  0  0  0  0  0
  131.6020  126.7960   58.4470 C   0  0  1  0  0  0  0  0  0  0  0  0
  132.0910  128.1330   58.5930 O   0  0  0  0  0  0  0  0  0  0  0  0
  131.3080  129.1820   58.1100 C   0  0  0  0  0  0  0  0  0  0  0  0
  131.9510  130.4060   57.9290 C   0  0  0  0  0  0  0  0  0  0  0  0
  131.2250  131.5120   57.4880 C   0  0  0  0  0  0  0  0  0  0  0  0
  129.8570  131.3940   57.2360 C   0  0  0  0  0  0  0  0  0  0  0  0
  129.2130  130.1690   57.4180 C   0  0  0  0  0  0  0  0  0  0  0  0
  129.9340  129.0460   57.8360 C   0  0  0  0  0  0  0  0  0  0  0  0
  129.3230  127.6890   58.1040 C   0  0  1  0  0  0  0  0  0  0  0  0
  128.1280  127.1670   57.3320 C   0  0  0  0  0  0  0  0  0  0  0  0
  128.4170  125.6640   57.3880 C   0  0  0  0  0  0  0  0  0  0  0  0
  127.3830  124.6420   57.1270 C   0  0  0  0  0  0  0  0  0  0  0  0
  127.7370  123.3800   56.6290 C   0  0  0  0  0  0  0  0  0  0  0  0
  126.7590  122.4200   56.3860 C   0  0  0  0  0  0  0  0  0  0  0  0
  125.4220  122.7150   56.6390 C   0  0  0  0  0  0  0  0  0  0  0  0
  125.0540  123.9640   57.1340 C   0  0  0  0  0  0  0  0  0  0  0  0
  126.0310  124.9240   57.3790 C   0  0  0  0  0  0  0  0  0  0  0  0
  129.6470  125.4400   57.6590 N   0  0  0  0  0  0  0  0  0  0  0  0
  130.2920  126.6810   57.7910 N   0  0  0  0  0  0  0  0  0  0  0  0
  131.6300  126.1570   59.8280 C   0  0  0  0  0  0  0  0  0  0  0  0
  131.0910  126.7440   60.9220 C   0  0  0  0  0  0  0  0  0  0  0  0
  131.0310  126.2310   62.3050 C   0  0  0  0  0  0  0  0  0  0  0  0
  129.9120  126.3920   63.1350 C   0  0  0  0  0  0  0  0  0  0  0  0
  129.9280  125.8800   64.4330 C   0  0  0  0  0  0  0  0  0  0  0  0
  131.0740  125.2190   64.8740 C   0  0  0  0  0  0  0  0  0  0  0  0
  132.1730  125.0550   64.0970 N   0  0  0  0  0  0  0  0  0  0  0  0
  132.1380  125.5600   62.8360 C   0  0  0  0  0  0  0  0  0  0  0  0
  132.5350  124.6360   59.7950 S   0  0  0  0  0  0  0  0  0  0  0  0
  132.8740  126.5310   56.7870 H   0  0  0  0  0  0  0  0  0  0  0  0
  133.0278  130.4989   58.1335 H   0  0  0  0  0  0  0  0  0  0  0  0
  131.7304  132.4776   57.3387 H   0  0  0  0  0  0  0  0  0  0  0  0
  129.2850  132.2688   56.8931 H   0  0  0  0  0  0  0  0  0  0  0  0
  128.1321  130.0865   57.2315 H   0  0  0  0  0  0  0  0  0  0  0  0
  128.9896  127.8610   59.1381 H   0  0  0  0  0  0  0  0  0  0  0  0
  127.1789  127.4197   57.8274 H   0  0  0  0  0  0  0  0  0  0  0  0
  128.0117  127.5808   56.3194 H   0  0  0  0  0  0  0  0  0  0  0  0
  128.7934  123.1474   56.4293 H   0  0  0  0  0  0  0  0  0  0  0  0
  127.0415  121.4313   55.9953 H   0  0  0  0  0  0  0  0  0  0  0  0
  124.6499  121.9555   56.4464 H   0  0  0  0  0  0  0  0  0  0  0  0
  123.9956  124.1904   57.3304 H   0  0  0  0  0  0  0  0  0  0  0  0
  125.7423  125.9098   57.7725 H   0  0  0  0  0  0  0  0  0  0  0  0
  130.6382  127.7332   60.7593 H   0  0  0  0  0  0  0  0  0  0  0  0
  129.0224  126.9215   62.7631 H   0  0  0  0  0  0  0  0  0  0  0  0
  129.0561  125.9952   65.0936 H   0  0  0  0  0  0  0  0  0  0  0  0
  131.0869  124.8132   65.8963 H   0  0  0  0  0  0  0  0  0  0  0  0
  133.0263  125.4347   62.1994 H   0  0  0  0  0  0  0  0  0  0  0  0
  1  2  2  0
  2  3  1  0
  3  4  1  0
  4  5  1  1
  5  6  1  0
  6  7  2  0
  7  8  1  0
  8  9  2  0
  9 10  1  0
 10 11  2  0
 11 12  1  0
 12 13  1  0
 13 14  1  0
 14 15  1  0
 15 16  2  0
 16 17  1  0
 17 18  2  0
 18 19  1  0
 19 20  2  0
 14 21  2  0
 21 22  1  0
  4 23  1  0
 23 24  2  0
 24 25  1  0
 25 26  2  0
 26 27  1  0
 27 28  2  0
 28 29  1  0
 29 30  2  0
 23 31  1  0
 31  2  1  0
 22  4  1  0
 30 25  1  0
 11  6  1  0
 22 12  1  0
 20 15  1  0
  3 32  1  0
  7 33  1  0
  8 34  1  0
  9 35  1  0
 10 36  1  0
 12 37  1  1
 13 38  1  0
 13 39  1  0
 16 40  1  0
 17 41  1  0
 18 42  1  0
 19 43  1  0
 20 44  1  0
 24 45  1  0
 26 46  1  0
 27 47  1  0
 28 48  1  0
 30 49  1  0
M  END
>  <Binding energies>  (1) 
[-9.39]

>  <Ligand effiencies>  (1) 
[-0.2934375]

>  <Interactions>  (1) 
["V-A:ASP:366:CG:3213, H-A:TYR:531:OH:4795, H-B:TYR:539:OH:9850, V-A:ASP:366:CB:3212, V-B:TYR:539:CZ:9849, V-B:PRO:540:N:9856, V-B:TYR:539:CE1:9847, V-B:PRO:540:CB:9857, V-B:TYR:539:CD1:9845, V-B:TYR:539:CE2:9848, V-B:PRO:540:CD:9859, V-B:MET:535:CE:9807, V-B:LEU:363:CD1:8160, V-B:TYR:539:C:9839, V-A:MET:535:CE:4835, V-B:TYR:531:CE2:9765, V-A:ASP:366:C:3208, V-A:ASP:366:CA:3210, V-B:GLU:543:CG:9879, H-A:ASN:370:N:3244, H-A:ASP:366:O:3209, V-A:GLU:543:CD:4908, V-A:ARG:545:CZ:4926, V-B:GLU:543:CD:9880, V-A:TYR:531:CZ:4794, H-A:ARG:545:NH2:4928"]

$$$$
RR23_Rahimova_2017
     RDKit          3D

 65 70  0  0  0  0  0  0  0  0999 V2000
  127.1570  128.3780   74.7330 C   0  0  0  0  0  0  0  0  0  0  0  0
  127.9420  128.2010   73.4450 C   0  0  0  0  0  0  0  0  0  0  0  0
  127.4400  127.3880   72.4280 C   0  0  0  0  0  0  0  0  0  0  0  0
  128.1560  127.2340   71.2440 C   0  0  0  0  0  0  0  0  0  0  0  0
  129.3840  127.8820   71.0720 C   0  0  0  0  0  0  0  0  0  0  0  0
  130.1360  127.7190   69.7700 C   0  0  0  0  0  0  0  0  0  0  0  0
  131.3680  127.7070   69.8200 O   0  0  0  0  0  0  0  0  0  0  0  0
  129.4370  127.5760   68.6050 N   0  0  0  0  0  0  0  0  0  0  0  0
  128.5380  128.6320   68.1120 C   0  0  0  0  0  0  0  0  0  0  0  0
  128.0620  128.1820   66.7410 C   0  0  0  0  0  0  0  0  0  0  0  0
  129.0220  127.0840   66.3980 C   0  0  0  0  0  0  0  0  0  0  0  0
  129.1330  126.3510   65.2160 C   0  0  0  0  0  0  0  0  0  0  0  0
  129.9960  125.2470   65.1440 C   0  0  0  0  0  0  0  0  0  0  0  0
  130.1480  124.4130   63.8630 C   0  0  2  0  0  0  0  0  0  0  0  0
  129.1860  124.7880   62.8500 N   0  0  0  0  0  0  0  0  0  0  0  0
  128.8460  123.7970   62.1280 C   0  0  0  0  0  0  0  0  0  0  0  0
  127.9500  123.7710   61.1050 N   0  0  0  0  0  0  0  0  0  0  0  0
  127.1070  124.7520   60.7000 C   0  0  0  0  0  0  0  0  0  0  0  0
  127.0390  125.8830   61.1850 O   0  0  0  0  0  0  0  0  0  0  0  0
  126.1690  124.3810   59.5400 C   0  0  0  0  0  0  0  0  0  0  0  0
  126.9050  124.5090   58.2620 N   0  0  0  0  0  0  0  0  0  0  0  0
  127.3460  123.3150   57.7050 N   0  0  0  0  0  0  0  0  0  0  0  0
  128.0030  123.2900   56.5900 N   0  0  0  0  0  0  0  0  0  0  0  0
  128.2790  124.4850   55.9210 C   0  0  0  0  0  0  0  0  0  0  0  0
  128.9920  124.4240   54.7210 C   0  0  0  0  0  0  0  0  0  0  0  0
  129.2840  125.6010   54.0290 C   0  0  0  0  0  0  0  0  0  0  0  0
  128.8670  126.8340   54.5340 C   0  0  0  0  0  0  0  0  0  0  0  0
  128.1550  126.8970   55.7330 C   0  0  0  0  0  0  0  0  0  0  0  0
  127.8610  125.7170   56.4260 C   0  0  0  0  0  0  0  0  0  0  0  0
  127.0950  125.7640   57.7280 C   0  0  0  0  0  0  0  0  0  0  0  0
  126.6980  126.8080   58.2530 O   0  0  0  0  0  0  0  0  0  0  0  0
  129.6170  122.2260   62.4960 S   0  0  0  0  0  0  0  0  0  0  0  0
  130.1300  122.8840   64.0920 C   0  0  2  0  0  0  0  0  0  0  0  0
  129.1730  122.3590   65.1830 C   0  0  0  0  0  0  0  0  0  0  0  0
  130.7030  124.8670   66.2910 C   0  0  0  0  0  0  0  0  0  0  0  0
  130.5760  125.5870   67.4800 C   0  0  0  0  0  0  0  0  0  0  0  0
  129.7750  126.7360   67.5200 C   0  0  0  0  0  0  0  0  0  0  0  0
  129.8680  128.7200   72.0860 C   0  0  0  0  0  0  0  0  0  0  0  0
  129.1520  128.8740   73.2700 C   0  0  0  0  0  0  0  0  0  0  0  0
  127.8255  128.2273   75.5935 H   0  0  0  0  0  0  0  0  0  0  0  0
  126.7360  129.3936   74.7692 H   0  0  0  0  0  0  0  0  0  0  0  0
  126.3409  127.6413   74.7692 H   0  0  0  0  0  0  0  0  0  0  0  0
  126.4793  126.8692   72.5617 H   0  0  0  0  0  0  0  0  0  0  0  0
  127.7543  126.5999   70.4399 H   0  0  0  0  0  0  0  0  0  0  0  0
  127.6817  128.7513   68.7921 H   0  0  0  0  0  0  0  0  0  0  0  0
  129.0535  129.6022   68.0574 H   0  0  0  0  0  0  0  0  0  0  0  0
  127.0293  127.8057   66.7843 H   0  0  0  0  0  0  0  0  0  0  0  0
  128.0462  128.9934   65.9984 H   0  0  0  0  0  0  0  0  0  0  0  0
  128.5405  126.6403   64.3355 H   0  0  0  0  0  0  0  0  0  0  0  0
  131.1564  124.6557   63.4968 H   0  0  0  0  0  0  0  0  0  0  0  0
  127.8680  122.8950   60.6110 H   0  0  0  0  0  0  0  0  0  0  0  0
  125.8228  123.3442   59.6634 H   0  0  0  0  0  0  0  0  0  0  0  0
  125.2998  125.0551   59.5362 H   0  0  0  0  0  0  0  0  0  0  0  0
  129.3219  123.4530   54.3232 H   0  0  0  0  0  0  0  0  0  0  0  0
  129.8441  125.5567   53.0833 H   0  0  0  0  0  0  0  0  0  0  0  0
  129.1002  127.7585   53.9854 H   0  0  0  0  0  0  0  0  0  0  0  0
  127.8268  127.8685   56.1310 H   0  0  0  0  0  0  0  0  0  0  0  0
  131.1199  122.5700   64.4548 H   0  0  0  0  0  0  0  0  0  0  0  0
  129.5884  122.5869   66.1757 H   0  0  0  0  0  0  0  0  0  0  0  0
  128.1923  122.8454   65.0754 H   0  0  0  0  0  0  0  0  0  0  0  0
  129.0562  121.2705   65.0754 H   0  0  0  0  0  0  0  0  0  0  0  0
  131.3666  123.9905   66.2548 H   0  0  0  0  0  0  0  0  0  0  0  0
  131.1044  125.2526   68.3850 H   0  0  0  0  0  0  0  0  0  0  0  0
  130.8171  129.2580   71.9457 H   0  0  0  0  0  0  0  0  0  0  0  0
  129.5397  129.5256   74.0669 H   0  0  0  0  0  0  0  0  0  0  0  0
  1  2  1  0
  2  3  2  0
  3  4  1  0
  4  5  2  0
  5  6  1  0
  6  7  2  0
  6  8  1  0
  8  9  1  0
  9 10  1  0
 10 11  1  0
 11 12  2  0
 12 13  1  0
 13 14  1  0
 14 15  1  0
 15 16  2  0
 16 17  1  0
 17 18  1  0
 18 19  2  0
 18 20  1  0
 20 21  1  0
 21 22  1  0
 22 23  2  0
 23 24  1  0
 24 25  2  0
 25 26  1  0
 26 27  2  0
 27 28  1  0
 28 29  2  0
 29 30  1  0
 30 31  2  0
 16 32  1  0
 32 33  1  0
 33 34  1  0
 13 35  2  0
 35 36  1  0
 36 37  2  0
  5 38  1  0
 38 39  2  0
 39  2  1  0
 37  8  1  0
 37 11  1  0
 33 14  1  0
 30 21  1  0
 29 24  1  0
  1 40  1  0
  1 41  1  0
  1 42  1  0
  3 43  1  0
  4 44  1  0
  9 45  1  0
  9 46  1  0
 10 47  1  0
 10 48  1  0
 12 49  1  0
 14 50  1  6
 17 51  1  0
 20 52  1  0
 20 53  1  0
 25 54  1  0
 26 55  1  0
 27 56  1  0
 28 57  1  0
 33 58  1  1
 34 59  1  0
 34 60  1  0
 34 61  1  0
 35 62  1  0
 36 63  1  0
 38 64  1  0
 39 65  1  0
M  END
>  <Binding energies>  (1) 
[-9.68]

>  <Ligand effiencies>  (1) 
[-0.242]

>  <Interactions>  (1) 
["H-B:TYR:539:OH:9850, V-B:TYR:539:CZ:9849, V-B:TYR:539:CE1:9847, V-B:PRO:540:CB:9857, H-B:TYR:531:OH:9767, V-A:MET:535:CE:4835, V-B:MET:535:CG:9805, V-B:ALA:541:CB:9864, V-B:GLU:543:CG:9879, V-A:LEU:475:CD2:4259, V-A:TYR:484:CZ:4347, V-B:GLU:543:CB:9878, V-A:GLU:543:CD:4908, V-A:TYR:484:CE2:4346, V-B:GLU:543:CD:9880, V-B:HIS:456:CE1:9041, V-A:GLY:544:C:4912, V-B:GLY:544:C:9884, V-B:HIS:456:CD2:9039, V-B:LYS:547:CE:9922, V-A:HIS:456:CE1:4070, V-A:GLU:543:CG:4907, V-A:GLU:543:C:4902, V-A:GLU:543:CB:4906, V-B:HIS:456:CG:9037, H-A:HIS:456:ND1:4067, H-A:ARG:545:N:4920, V-B:GLU:543:CA:9876"]

$$$$
RR24_Rahimova_2017
     RDKit          3D

 65 71  0  0  0  0  0  0  0  0999 V2000
  124.6430  123.8760   57.9770 C   0  0  0  0  0  0  0  0  0  0  0  0
  125.7950  123.8610   56.9630 C   0  0  2  0  0  0  0  0  0  0  0  0
  126.6930  122.5940   57.0720 C   0  0  0  0  0  0  0  0  0  0  0  0
  126.9740  121.9020   56.0880 O   0  0  0  0  0  0  0  0  0  0  0  0
  127.0900  122.3430   58.3550 O   0  0  0  0  0  0  0  0  0  0  0  0
  127.7540  123.3190   59.0630 C   0  0  0  0  0  0  0  0  0  0  0  0
  127.1970  123.8030   60.2490 C   0  0  0  0  0  0  0  0  0  0  0  0
  127.8650  124.7820   60.9790 C   0  0  0  0  0  0  0  0  0  0  0  0
  129.0940  125.2750   60.5320 C   0  0  0  0  0  0  0  0  0  0  0  0
  129.8150  126.3670   61.3310 C   0  0  1  0  0  0  0  0  0  0  0  0
  128.8340  127.1960   62.1930 C   0  0  0  0  0  0  0  0  0  0  0  0
  129.0280  127.4170   63.5070 C   0  0  0  0  0  0  0  0  0  0  0  0
  130.1150  126.9190   64.1810 N   0  0  0  0  0  0  0  0  0  0  0  0
  131.0680  126.1620   63.5400 C   0  0  0  0  0  0  0  0  0  0  0  0
  132.0830  125.7550   64.3450 N   0  0  0  0  0  0  0  0  0  0  0  0
  133.0750  124.9330   63.9060 C   0  0  0  0  0  0  0  0  0  0  0  0
  133.7770  124.3440   64.7300 O   0  0  0  0  0  0  0  0  0  0  0  0
  133.0710  124.7240   62.5360 N   0  0  0  0  0  0  0  0  0  0  0  0
  134.1810  123.9120   61.9950 C   0  0  0  0  0  0  0  0  0  0  0  0
  132.0920  125.0900   61.6280 C   0  0  0  0  0  0  0  0  0  0  0  0
  132.1300  124.8240   60.4230 O   0  0  0  0  0  0  0  0  0  0  0  0
  130.9910  125.8590   62.2180 C   0  0  0  0  0  0  0  0  0  0  0  0
  127.9520  128.2230   64.0590 C   0  0  0  0  0  0  0  0  0  0  0  0
  127.6900  128.7100   65.3400 C   0  0  0  0  0  0  0  0  0  0  0  0
  126.5400  129.4750   65.5570 C   0  0  0  0  0  0  0  0  0  0  0  0
  125.6670  129.7480   64.5000 C   0  0  0  0  0  0  0  0  0  0  0  0
  125.9350  129.2570   63.2190 C   0  0  0  0  0  0  0  0  0  0  0  0
  127.0840  128.4920   63.0090 C   0  0  0  0  0  0  0  0  0  0  0  0
  127.6040  127.8610   61.7780 C   0  0  0  0  0  0  0  0  0  0  0  0
  127.1440  127.8640   60.6370 O   0  0  0  0  0  0  0  0  0  0  0  0
  129.6590  124.7740   59.3540 C   0  0  0  0  0  0  0  0  0  0  0  0
  128.9930  123.7940   58.6250 C   0  0  0  0  0  0  0  0  0  0  0  0
  126.5890  125.1250   56.9970 N   0  0  0  0  0  0  0  0  0  0  0  0
  126.2070  126.1870   57.7610 C   0  0  0  0  0  0  0  0  0  0  0  0
  125.2120  126.2690   58.4840 O   0  0  0  0  0  0  0  0  0  0  0  0
  127.2420  127.2270   57.5370 C   0  0  0  0  0  0  0  0  0  0  0  0
  127.3670  128.5170   58.0550 C   0  0  0  0  0  0  0  0  0  0  0  0
  128.4670  129.2900   57.6660 C   0  0  0  0  0  0  0  0  0  0  0  0
  129.4170  128.7700   56.7780 C   0  0  0  0  0  0  0  0  0  0  0  0
  129.2730  127.4750   56.2700 C   0  0  0  0  0  0  0  0  0  0  0  0
  128.1690  126.7200   56.6680 C   0  0  0  0  0  0  0  0  0  0  0  0
  127.7530  125.3410   56.3110 C   0  0  0  0  0  0  0  0  0  0  0  0
  128.3360  124.5570   55.5610 O   0  0  0  0  0  0  0  0  0  0  0  0
  125.0529  123.8707   58.9978 H   0  0  0  0  0  0  0  0  0  0  0  0
  124.0369  124.7821   57.8300 H   0  0  0  0  0  0  0  0  0  0  0  0
  124.0135  122.9860   57.8300 H   0  0  0  0  0  0  0  0  0  0  0  0
  125.3235  123.8050   55.9707 H   0  0  0  0  0  0  0  0  0  0  0  0
  126.2328  123.4114   60.6053 H   0  0  0  0  0  0  0  0  0  0  0  0
  127.4245  125.1685   61.9099 H   0  0  0  0  0  0  0  0  0  0  0  0
  130.2618  127.0088   60.5575 H   0  0  0  0  0  0  0  0  0  0  0  0
  130.2230  127.1130   65.1670 H   0  0  0  0  0  0  0  0  0  0  0  0
  132.1170  126.0330   65.3150 H   0  0  0  0  0  0  0  0  0  0  0  0
  134.7628  123.4864   62.8259 H   0  0  0  0  0  0  0  0  0  0  0  0
  133.7729  123.0977   61.3782 H   0  0  0  0  0  0  0  0  0  0  0  0
  134.8335  124.5475   61.3782 H   0  0  0  0  0  0  0  0  0  0  0  0
  128.3799  128.4947   66.1692 H   0  0  0  0  0  0  0  0  0  0  0  0
  126.3215  129.8633   66.5627 H   0  0  0  0  0  0  0  0  0  0  0  0
  124.7649  130.3520   64.6771 H   0  0  0  0  0  0  0  0  0  0  0  0
  125.2488  129.4708   62.3862 H   0  0  0  0  0  0  0  0  0  0  0  0
  130.6298  125.1551   59.0043 H   0  0  0  0  0  0  0  0  0  0  0  0
  129.4416  123.3932   57.7041 H   0  0  0  0  0  0  0  0  0  0  0  0
  126.6175  128.9173   58.7536 H   0  0  0  0  0  0  0  0  0  0  0  0
  128.5859  130.3103   58.0594 H   0  0  0  0  0  0  0  0  0  0  0  0
  130.2801  129.3828   56.4788 H   0  0  0  0  0  0  0  0  0  0  0  0
  130.0145  127.0602   55.5713 H   0  0  0  0  0  0  0  0  0  0  0  0
  1  2  1  0
  2  3  1  0
  3  4  2  0
  3  5  1  0
  5  6  1  0
  6  7  2  0
  7  8  1  0
  8  9  2  0
  9 10  1  0
 10 11  1  0
 11 12  2  0
 12 13  1  0
 13 14  1  0
 14 15  1  0
 15 16  1  0
 16 17  2  0
 16 18  1  0
 18 19  1  0
 18 20  1  0
 20 21  2  0
 20 22  1  0
 12 23  1  0
 23 24  2  0
 24 25  1  0
 25 26  2  0
 26 27  1  0
 27 28  2  0
 28 29  1  0
 29 30  2  0
  9 31  1  0
 31 32  2  0
  2 33  1  0
 33 34  1  0
 34 35  2  0
 34 36  1  0
 36 37  2  0
 37 38  1  0
 38 39  2  0
 39 40  1  0
 40 41  2  0
 41 42  1  0
 42 43  2  0
 32  6  1  0
 42 33  1  0
 22 10  1  0
 28 23  1  0
 41 36  1  0
 29 11  1  0
 22 14  2  0
  1 44  1  0
  1 45  1  0
  1 46  1  0
  2 47  1  6
  7 48  1  0
  8 49  1  0
 10 50  1  6
 13 51  1  0
 15 52  1  0
 19 53  1  0
 19 54  1  0
 19 55  1  0
 24 56  1  0
 25 57  1  0
 26 58  1  0
 27 59  1  0
 31 60  1  0
 32 61  1  0
 37 62  1  0
 38 63  1  0
 39 64  1  0
 40 65  1  0
M  END
>  <Binding energies>  (1) 
[-9.5]

>  <Ligand effiencies>  (1) 
[-0.2111111111111111]

>  <Interactions>  (1) 
["H-B:TYR:539:OH:9850, V-B:TYR:539:CZ:9849, V-B:PRO:540:N:9856, V-B:PRO:540:CB:9857, V-B:PRO:540:CA:9855, V-B:TYR:539:CE2:9848, H-B:TYR:539:N:9842, H-B:TYR:531:OH:9767, V-B:PRO:540:CD:9859, V-B:MET:535:CE:9807, V-B:LEU:363:CD1:8160, V-B:TYR:539:C:9839, V-B:TYR:531:CZ:9766, V-B:TYR:539:CD2:9846, V-A:MET:535:CE:4835, V-A:ILE:369:CD1:3239, H-A:TYR:484:OH:4348, V-A:GLU:543:CD:4908, V-A:ARG:545:CZ:4926, V-B:GLU:543:CD:9880, H-A:GLU:543:OE1:4909, H-A:GLU:543:OE2:4910, V-B:TYR:484:CZ:9318, H-A:GLY:454:N:4050, V-B:ARG:545:CZ:9898"]

$$$$
RR24_Rahimova_2017-again1
     RDKit          3D

 63 69  0  0  0  0  0  0  0  0999 V2000
  125.0110  133.2810   64.4230 C   0  0  0  0  0  0  0  0  0  0  0  0
  125.0310  132.4960   63.1050 C   0  0  2  0  0  0  0  0  0  0  0  0
  124.2840  131.1320   63.1870 C   0  0  0  0  0  0  0  0  0  0  0  0
  124.2780  130.4500   64.2180 O   0  0  0  0  0  0  0  0  0  0  0  0
  123.6830  130.7900   62.0090 O   0  0  0  0  0  0  0  0  0  0  0  0
  124.4450  130.3000   60.9740 C   0  0  0  0  0  0  0  0  0  0  0  0
  124.1760  130.7110   59.6670 C   0  0  0  0  0  0  0  0  0  0  0  0
  124.9550  130.2350   58.6160 C   0  0  0  0  0  0  0  0  0  0  0  0
  126.0100  129.3520   58.8670 C   0  0  0  0  0  0  0  0  0  0  0  0
  126.8720  128.8240   57.7110 C   0  0  1  0  0  0  0  0  0  0  0  0
  128.0440  129.7830   57.3990 C   0  0  0  0  0  0  0  0  0  0  0  0
  128.0800  131.0570   56.9480 C   0  0  0  0  0  0  0  0  0  0  0  0
  127.0450  131.7590   56.6320 O   0  0  0  0  0  0  0  0  0  0  0  0
  129.4610  131.5380   56.8960 C   0  0  0  0  0  0  0  0  0  0  0  0
  130.0200  132.7650   56.5190 C   0  0  0  0  0  0  0  0  0  0  0  0
  131.4040  132.9390   56.5800 C   0  0  0  0  0  0  0  0  0  0  0  0
  132.2230  131.8950   57.0120 C   0  0  0  0  0  0  0  0  0  0  0  0
  131.6600  130.6720   57.3850 C   0  0  0  0  0  0  0  0  0  0  0  0
  130.2750  130.5010   57.3270 C   0  0  0  0  0  0  0  0  0  0  0  0
  129.4180  129.3680   57.6260 C   0  0  0  0  0  0  0  0  0  0  0  0
  129.7220  128.1850   58.0110 N   0  0  0  0  0  0  0  0  0  0  0  0
  128.7810  127.2060   58.1260 C   0  0  0  0  0  0  0  0  0  0  0  0
  129.3160  125.9780   58.3890 N   0  0  0  0  0  0  0  0  0  0  0  0
  128.5330  124.9680   58.5380 C   0  0  0  0  0  0  0  0  0  0  0  0
  129.1280  123.9050   58.7780 O   0  0  0  0  0  0  0  0  0  0  0  0
  127.1470  125.0770   58.4330 N   0  0  0  0  0  0  0  0  0  0  0  0
  126.2200  123.9330   58.6010 C   0  0  0  0  0  0  0  0  0  0  0  0
  126.5200  126.2750   58.1520 C   0  0  0  0  0  0  0  0  0  0  0  0
  125.2980  126.4100   58.0270 O   0  0  0  0  0  0  0  0  0  0  0  0
  127.4330  127.4120   58.0000 C   0  0  0  0  0  0  0  0  0  0  0  0
  126.2840  128.9520   60.1780 C   0  0  0  0  0  0  0  0  0  0  0  0
  125.5070  129.4290   61.2300 C   0  0  0  0  0  0  0  0  0  0  0  0
  126.4130  132.3530   62.5590 N   0  0  0  0  0  0  0  0  0  0  0  0
  126.6990  132.6380   61.2580 C   0  0  0  0  0  0  0  0  0  0  0  0
  125.9180  133.0270   60.3870 O   0  0  0  0  0  0  0  0  0  0  0  0
  128.1530  132.3800   61.1080 C   0  0  0  0  0  0  0  0  0  0  0  0
  128.9920  132.4960   59.9980 C   0  0  0  0  0  0  0  0  0  0  0  0
  130.3470  132.1800   60.1480 C   0  0  0  0  0  0  0  0  0  0  0  0
  130.8420  131.7590   61.3890 C   0  0  0  0  0  0  0  0  0  0  0  0
  129.9840  131.6500   62.4900 C   0  0  0  0  0  0  0  0  0  0  0  0
  128.6360  131.9680   62.3190 C   0  0  0  0  0  0  0  0  0  0  0  0
  127.5050  131.9530   63.2800 C   0  0  0  0  0  0  0  0  0  0  0  0
  127.5430  131.6470   64.4730 O   0  0  0  0  0  0  0  0  0  0  0  0
  125.0289  132.5780   65.2688 H   0  0  0  0  0  0  0  0  0  0  0  0
  125.8927  133.9368   64.4726 H   0  0  0  0  0  0  0  0  0  0  0  0
  124.0970  133.8911   64.4726 H   0  0  0  0  0  0  0  0  0  0  0  0
  124.4605  133.1020   62.3857 H   0  0  0  0  0  0  0  0  0  0  0  0
  123.3500  131.4097   59.4681 H   0  0  0  0  0  0  0  0  0  0  0  0
  124.7402  130.5542   57.5855 H   0  0  0  0  0  0  0  0  0  0  0  0
  126.2084  128.7634   56.8358 H   0  0  0  0  0  0  0  0  0  0  0  0
  129.3732  133.5864   56.1770 H   0  0  0  0  0  0  0  0  0  0  0  0
  131.8497  133.9010   56.2869 H   0  0  0  0  0  0  0  0  0  0  0  0
  133.3130  132.0351   57.0589 H   0  0  0  0  0  0  0  0  0  0  0  0
  132.3047  129.8473   57.7229 H   0  0  0  0  0  0  0  0  0  0  0  0
  126.0647  123.7413   59.6730 H   0  0  0  0  0  0  0  0  0  0  0  0
  125.2558  124.1697   58.1274 H   0  0  0  0  0  0  0  0  0  0  0  0
  126.6514  123.0388   58.1274 H   0  0  0  0  0  0  0  0  0  0  0  0
  127.1147  128.2594   60.3787 H   0  0  0  0  0  0  0  0  0  0  0  0
  125.7290  129.1203   62.2622 H   0  0  0  0  0  0  0  0  0  0  0  0
  128.5966  132.8285   59.0269 H   0  0  0  0  0  0  0  0  0  0  0  0
  131.0268  132.2626   59.2871 H   0  0  0  0  0  0  0  0  0  0  0  0
  131.9085  131.5132   61.4989 H   0  0  0  0  0  0  0  0  0  0  0  0
  130.3641  131.3209   63.4684 H   0  0  0  0  0  0  0  0  0  0  0  0
  1  2  1  0
  2  3  1  0
  3  4  2  0
  3  5  1  0
  5  6  1  0
  6  7  2  0
  7  8  1  0
  8  9  2  0
  9 10  1  0
 10 11  1  0
 11 12  2  0
 12 13  1  0
 12 14  1  0
 14 15  2  0
 15 16  1  0
 16 17  2  0
 17 18  1  0
 18 19  2  0
 19 20  1  0
 20 21  2  0
 21 22  1  0
 22 23  1  0
 23 24  2  0
 24 25  1  0
 24 26  1  0
 26 27  1  0
 26 28  1  0
 28 29  2  0
 28 30  1  0
  9 31  1  0
 31 32  2  0
  2 33  1  0
 33 34  1  0
 34 35  2  0
 34 36  1  0
 36 37  2  0
 37 38  1  0
 38 39  2  0
 39 40  1  0
 40 41  2  0
 41 42  1  0
 42 43  2  0
 32  6  1  0
 42 33  1  0
 30 10  1  0
 41 36  1  0
 20 11  1  0
 30 22  2  0
 19 14  1  0
  1 44  1  0
  1 45  1  0
  1 46  1  0
  2 47  1  6
  7 48  1  0
  8 49  1  0
 10 50  1  6
 15 51  1  0
 16 52  1  0
 17 53  1  0
 18 54  1  0
 27 55  1  0
 27 56  1  0
 27 57  1  0
 31 58  1  0
 32 59  1  0
 37 60  1  0
 38 61  1  0
 39 62  1  0
 40 63  1  0
M  CHG  2  13  -1  25  -1
M  END
>  <Binding energies>  (1) 
[-7.96]

>  <Ligand effiencies>  (1) 
[-0.18511627906976744]

>  <Interactions>  (1) 
["V-A:LEU:363:CD1:3189, H-A:TYR:531:OH:4795, V-A:PRO:540:CA:4883, V-A:PRO:540:CB:4885, V-A:PRO:540:CD:4887, V-A:PRO:540:N:4884, V-B:PRO:540:CB:9857, V-B:PRO:540:CA:9855, V-B:ASP:366:CB:8183, H-B:TYR:531:OH:9767, V-B:ASP:366:CG:8184, V-A:MET:535:CE:4835, V-A:GLU:543:CD:4908, V-A:GLU:543:CG:4907, V-A:TYR:531:CZ:4794, V-B:TYR:484:CZ:9318, H-B:TYR:484:OH:9319, H-A:TYR:539:OH:4878, V-B:ASP:366:CA:8181, V-A:ILE:538:CA:4860, V-A:TYR:531:CE2:4793, V-A:ILE:538:CG2:4863, V-A:ILE:538:CB:4862, V-B:LEU:475:CD2:9230, V-B:GLY:454:CA:9020, H-B:GLY:454:N:9021, V-B:LEU:475:CB:9227"]

$$$$
RR25_Rahimova_2017
     RDKit          3D

 63 68  0  0  0  0  0  0  0  0999 V2000
  130.5720  124.6500   65.6100 O   0  0  0  0  0  0  0  0  0  0  0  0
  130.7720  125.0800   64.4740 C   0  0  0  0  0  0  0  0  0  0  0  0
  131.8810  124.5930   63.8280 O   0  0  0  0  0  0  0  0  0  0  0  0
  132.0780  124.8010   62.4750 C   0  0  0  0  0  0  0  0  0  0  0  0
  132.8640  123.8660   61.8040 C   0  0  0  0  0  0  0  0  0  0  0  0
  133.1100  124.0180   60.4410 C   0  0  0  0  0  0  0  0  0  0  0  0
  132.5800  125.1060   59.7320 C   0  0  0  0  0  0  0  0  0  0  0  0
  132.8360  125.2620   58.2790 N   0  0  0  0  0  0  0  0  0  0  0  0
  133.6490  124.5130   57.7420 O   0  0  0  0  0  0  0  0  0  0  0  0
  132.2280  126.1340   57.6660 O   0  0  0  0  0  0  0  0  0  0  0  0
  131.8000  126.0440   60.4290 C   0  0  0  0  0  0  0  0  0  0  0  0
  131.5500  125.9100   61.7980 C   0  0  0  0  0  0  0  0  0  0  0  0
  130.7060  126.8890   62.5920 C   0  0  0  0  0  0  0  0  0  0  0  0
  129.9210  126.1270   63.6980 C   0  0  2  0  0  0  0  0  0  0  0  0
  129.1200  127.1130   64.5970 C   0  0  0  0  0  0  0  0  0  0  0  0
  129.1860  126.9130   65.8130 O   0  0  0  0  0  0  0  0  0  0  0  0
  128.4840  128.2100   64.0870 N   0  0  0  0  0  0  0  0  0  0  0  0
  128.1110  128.3290   62.6610 C   0  0  0  0  0  0  0  0  0  0  0  0
  128.2930  129.7950   62.2150 C   0  0  0  0  0  0  0  0  0  0  0  0
  127.5440  130.7130   63.0770 N   0  0  0  0  0  0  0  0  0  0  0  0
  127.6070  132.0930   62.5770 C   0  0  0  0  0  0  0  0  0  0  0  0
  129.0620  132.6020   62.3940 C   0  0  0  0  0  0  0  0  0  0  0  0
  129.6410  132.4570   61.0270 N   0  0  0  0  0  0  0  0  0  0  0  0
  130.8840  131.8650   60.9720 C   0  0  0  0  0  0  0  0  0  0  0  0
  131.5070  131.5060   61.9780 O   0  0  0  0  0  0  0  0  0  0  0  0
  131.4290  131.6660   59.5710 C   0  0  0  0  0  0  0  0  0  0  0  0
  132.6750  131.0490   59.3980 C   0  0  0  0  0  0  0  0  0  0  0  0
  133.2010  130.8430   58.1240 C   0  0  0  0  0  0  0  0  0  0  0  0
  132.5020  131.2420   56.9870 C   0  0  0  0  0  0  0  0  0  0  0  0
  131.2400  131.8700   57.1120 C   0  0  0  0  0  0  0  0  0  0  0  0
  130.4770  132.2990   56.0000 C   0  0  0  0  0  0  0  0  0  0  0  0
  129.2380  132.9080   56.1950 C   0  0  0  0  0  0  0  0  0  0  0  0
  128.7320  133.1070   57.4780 C   0  0  0  0  0  0  0  0  0  0  0  0
  129.4520  132.6990   58.6080 C   0  0  0  0  0  0  0  0  0  0  0  0
  130.7130  132.0770   58.4180 C   0  0  0  0  0  0  0  0  0  0  0  0
  128.8630  132.9240   59.9870 C   0  0  0  0  0  0  0  0  0  0  0  0
  127.7660  133.4690   60.1500 O   0  0  0  0  0  0  0  0  0  0  0  0
  128.0330  130.6140   64.4540 C   0  0  0  0  0  0  0  0  0  0  0  0
  127.8670  129.1830   65.0180 C   0  0  0  0  0  0  0  0  0  0  0  0
  133.2891  123.0103   62.3490 H   0  0  0  0  0  0  0  0  0  0  0  0
  133.7276  123.2755   59.9144 H   0  0  0  0  0  0  0  0  0  0  0  0
  131.3770  126.9021   59.8860 H   0  0  0  0  0  0  0  0  0  0  0  0
  131.3597  127.6403   63.0592 H   0  0  0  0  0  0  0  0  0  0  0  0
  129.9942  127.3872   61.9174 H   0  0  0  0  0  0  0  0  0  0  0  0
  129.1740  125.4997   63.1896 H   0  0  0  0  0  0  0  0  0  0  0  0
  128.7567  127.6763   62.0552 H   0  0  0  0  0  0  0  0  0  0  0  0
  127.0623  128.0264   62.5246 H   0  0  0  0  0  0  0  0  0  0  0  0
  129.3614  130.0529   62.2604 H   0  0  0  0  0  0  0  0  0  0  0  0
  127.9107  129.8945   61.1884 H   0  0  0  0  0  0  0  0  0  0  0  0
  127.0943  132.1381   61.6049 H   0  0  0  0  0  0  0  0  0  0  0  0
  127.1226  132.7381   63.3249 H   0  0  0  0  0  0  0  0  0  0  0  0
  129.0795  133.6705   62.6548 H   0  0  0  0  0  0  0  0  0  0  0  0
  129.6810  131.9679   63.0458 H   0  0  0  0  0  0  0  0  0  0  0  0
  133.2459  130.7227   60.2798 H   0  0  0  0  0  0  0  0  0  0  0  0
  134.1824  130.3583   58.0147 H   0  0  0  0  0  0  0  0  0  0  0  0
  132.9321  131.0685   55.9895 H   0  0  0  0  0  0  0  0  0  0  0  0
  130.8620  132.1518   54.9802 H   0  0  0  0  0  0  0  0  0  0  0  0
  128.6518  133.2359   55.3239 H   0  0  0  0  0  0  0  0  0  0  0  0
  127.7527  133.5916   57.6052 H   0  0  0  0  0  0  0  0  0  0  0  0
  129.0992  130.8837   64.4740 H   0  0  0  0  0  0  0  0  0  0  0  0
  127.4414  131.2997   65.0784 H   0  0  0  0  0  0  0  0  0  0  0  0
  128.3609  129.1159   65.9986 H   0  0  0  0  0  0  0  0  0  0  0  0
  126.7967  128.9551   65.1298 H   0  0  0  0  0  0  0  0  0  0  0  0
  1  2  2  0
  2  3  1  0
  3  4  1  0
  4  5  2  0
  5  6  1  0
  6  7  2  0
  7  8  1  0
  8  9  2  0
  8 10  1  0
  7 11  1  0
 11 12  2  0
 12 13  1  0
 13 14  1  0
 14 15  1  0
 15 16  2  0
 15 17  1  0
 17 18  1  0
 18 19  1  0
 19 20  1  0
 20 21  1  0
 21 22  1  0
 22 23  1  0
 23 24  1  0
 24 25  2  0
 24 26  1  0
 26 27  2  0
 27 28  1  0
 28 29  2  0
 29 30  1  0
 30 31  2  0
 31 32  1  0
 32 33  2  0
 33 34  1  0
 34 35  2  0
 34 36  1  0
 36 37  2  0
 20 38  1  0
 38 39  1  0
 14  2  1  0
 39 17  1  0
 12  4  1  0
 36 23  1  0
 35 26  1  0
 35 30  1  0
  5 40  1  0
  6 41  1  0
 11 42  1  0
 13 43  1  0
 13 44  1  0
 14 45  1  6
 18 46  1  0
 18 47  1  0
 19 48  1  0
 19 49  1  0
 21 50  1  0
 21 51  1  0
 22 52  1  0
 22 53  1  0
 27 54  1  0
 28 55  1  0
 29 56  1  0
 31 57  1  0
 32 58  1  0
 33 59  1  0
 38 60  1  0
 38 61  1  0
 39 62  1  0
 39 63  1  0
M  CHG  2   8   1  10  -1
M  END
>  <Binding energies>  (1) 
[-10.36]

>  <Ligand effiencies>  (1) 
[-0.26564102564102565]

>  <Interactions>  (1) 
["V-A:LEU:363:CD1:3189, V-A:ASP:366:CG:3213, H-A:TYR:531:OH:4795, V-A:PRO:540:CA:4883, H-B:TYR:539:OH:9850, V-A:PRO:540:CB:4885, V-A:PRO:540:N:4884, V-A:TYR:539:C:4867, V-A:ASP:366:CB:3212, V-B:TYR:539:CZ:9849, V-B:TYR:539:CE2:9848, V-A:MET:535:CE:4835, V-A:ASP:366:C:3208, V-A:ASP:366:CA:3210, V-B:GLU:543:CG:9879, H-A:TYR:484:OH:4348, V-A:GLU:543:CD:4908, V-B:GLU:543:CD:9880, V-A:GLU:543:CG:4907, V-A:TYR:531:CZ:4794, V-A:ALA:541:CB:4892, V-A:TYR:539:CE1:4875, V-A:PRO:540:C:4881, H-A:ALA:541:N:4891, V-A:TYR:539:CD1:4873, V-A:ILE:538:CA:4860, V-A:TYR:539:CG:4872, V-A:TYR:531:CE2:4793, V-A:ILE:538:CG2:4863, V-A:ILE:538:CB:4862, V-A:LEU:363:CA:3185"]

$$$$
RR26_Rahimova_2017
     RDKit          3D

 59 65  0  0  0  0  0  0  0  0999 V2000
  124.2960  123.8930   58.5960 C   0  0  0  0  0  0  0  0  0  0  0  0
  125.4340  123.3490   57.7410 C   0  0  0  0  0  0  0  0  0  0  0  0
  125.1130  122.7130   56.5370 C   0  0  0  0  0  0  0  0  0  0  0  0
  126.1150  122.2320   55.6970 C   0  0  0  0  0  0  0  0  0  0  0  0
  127.4520  122.3900   56.0510 C   0  0  0  0  0  0  0  0  0  0  0  0
  127.7840  123.0230   57.2470 C   0  0  0  0  0  0  0  0  0  0  0  0
  126.7890  123.5060   58.1100 C   0  0  0  0  0  0  0  0  0  0  0  0
  127.2330  124.1610   59.3860 C   0  0  0  0  0  0  0  0  0  0  0  0
  127.5160  123.4630   60.4830 N   0  0  0  0  0  0  0  0  0  0  0  0
  127.8610  124.4040   61.3200 C   0  0  0  0  0  0  0  0  0  0  0  0
  128.3750  124.4680   62.9650 S   0  0  0  0  0  0  0  0  0  0  0  0
  128.5030  126.2620   62.8310 C   0  0  0  0  0  0  0  0  0  0  0  0
  128.8750  127.1400   63.7900 C   0  0  0  0  0  0  0  0  0  0  0  0
  129.2690  126.8560   65.1600 C   0  0  0  0  0  0  0  0  0  0  0  0
  128.8250  127.4660   66.3230 C   0  0  0  0  0  0  0  0  0  0  0  0
  129.4360  126.8480   67.3840 N   0  0  0  0  0  0  0  0  0  0  0  0
  129.2870  127.1260   68.7670 C   0  0  0  0  0  0  0  0  0  0  0  0
  128.0720  126.8770   69.4230 C   0  0  0  0  0  0  0  0  0  0  0  0
  127.9380  127.1580   70.7800 C   0  0  0  0  0  0  0  0  0  0  0  0
  129.0160  127.6850   71.4860 C   0  0  0  0  0  0  0  0  0  0  0  0
  130.2290  127.9350   70.8470 C   0  0  0  0  0  0  0  0  0  0  0  0
  130.3660  127.6570   69.4900 C   0  0  0  0  0  0  0  0  0  0  0  0
  130.2270  125.8540   66.9510 N   0  0  0  0  0  0  0  0  0  0  0  0
  130.1420  125.8500   65.6350 C   0  0  0  0  0  0  0  0  0  0  0  0
  130.9240  124.8520   64.8400 C   0  0  0  0  0  0  0  0  0  0  0  0
  130.5160  123.5100   64.7850 C   0  0  0  0  0  0  0  0  0  0  0  0
  131.2410  122.5710   64.0500 C   0  0  0  0  0  0  0  0  0  0  0  0
  132.3850  122.9680   63.3610 C   0  0  0  0  0  0  0  0  0  0  0  0
  132.7930  124.3100   63.3920 C   0  0  0  0  0  0  0  0  0  0  0  0
  132.0710  125.2450   64.1330 C   0  0  0  0  0  0  0  0  0  0  0  0
  133.9440  124.7400   62.7620 O   0  0  0  0  0  0  0  0  0  0  0  0
  134.4220  123.8520   61.7460 C   0  0  0  0  0  0  0  0  0  0  0  0
  134.3790  122.3860   62.2410 C   0  0  0  0  0  0  0  0  0  0  0  0
  133.0450  122.0180   62.6070 O   0  0  0  0  0  0  0  0  0  0  0  0
  128.1330  126.7470   61.5050 C   0  0  0  0  0  0  0  0  0  0  0  0
  128.1040  127.9040   61.0800 O   0  0  0  0  0  0  0  0  0  0  0  0
  127.7930  125.6180   60.7440 N   0  0  0  0  0  0  0  0  0  0  0  0
  127.3890  125.4730   59.4790 N   0  0  0  0  0  0  0  0  0  0  0  0
  124.5472  123.7729   59.6602 H   0  0  0  0  0  0  0  0  0  0  0  0
  124.1470  124.9597   58.3725 H   0  0  0  0  0  0  0  0  0  0  0  0
  123.3723  123.3391   58.3725 H   0  0  0  0  0  0  0  0  0  0  0  0
  124.0580  122.5914   56.2504 H   0  0  0  0  0  0  0  0  0  0  0  0
  125.8501  121.7283   54.7557 H   0  0  0  0  0  0  0  0  0  0  0  0
  128.2454  122.0156   55.3874 H   0  0  0  0  0  0  0  0  0  0  0  0
  128.8428  123.1459   57.5188 H   0  0  0  0  0  0  0  0  0  0  0  0
  128.8800  128.2002   63.4970 H   0  0  0  0  0  0  0  0  0  0  0  0
  128.1089  128.2988   66.3841 H   0  0  0  0  0  0  0  0  0  0  0  0
  127.2225  126.4584   68.8633 H   0  0  0  0  0  0  0  0  0  0  0  0
  126.9841  126.9644   71.2924 H   0  0  0  0  0  0  0  0  0  0  0  0
  128.9093  127.9061   72.5582 H   0  0  0  0  0  0  0  0  0  0  0  0
  131.0755  128.3507   71.4132 H   0  0  0  0  0  0  0  0  0  0  0  0
  131.3222  127.8540   68.9833 H   0  0  0  0  0  0  0  0  0  0  0  0
  129.6131  123.1944   65.3283 H   0  0  0  0  0  0  0  0  0  0  0  0
  130.9108  121.5223   64.0148 H   0  0  0  0  0  0  0  0  0  0  0  0
  132.4014  126.2938   64.1635 H   0  0  0  0  0  0  0  0  0  0  0  0
  133.7886  123.9507   60.8521 H   0  0  0  0  0  0  0  0  0  0  0  0
  135.4626  124.1151   61.5053 H   0  0  0  0  0  0  0  0  0  0  0  0
  134.7296  121.7223   61.4369 H   0  0  0  0  0  0  0  0  0  0  0  0
  135.0287  122.2899   63.1234 H   0  0  0  0  0  0  0  0  0  0  0  0
  1  2  1  0
  2  3  2  0
  3  4  1  0
  4  5  2  0
  5  6  1  0
  6  7  2  0
  7  8  1  0
  8  9  1  0
  9 10  2  0
 10 11  1  0
 11 12  1  0
 12 13  2  0
 13 14  1  0
 14 15  2  0
 15 16  1  0
 16 17  1  0
 17 18  2  0
 18 19  1  0
 19 20  2  0
 20 21  1  0
 21 22  2  0
 16 23  1  0
 23 24  2  0
 24 25  1  0
 25 26  2  0
 26 27  1  0
 27 28  2  0
 28 29  1  0
 29 30  2  0
 29 31  1  0
 31 32  1  0
 32 33  1  0
 33 34  1  0
 12 35  1  0
 35 36  2  0
 35 37  1  0
 37 38  1  0
  7  2  1  0
 38  8  2  0
 37 10  1  0
 24 14  1  0
 30 25  1  0
 22 17  1  0
 34 28  1  0
  1 39  1  0
  1 40  1  0
  1 41  1  0
  3 42  1  0
  4 43  1  0
  5 44  1  0
  6 45  1  0
 13 46  1  0
 15 47  1  0
 18 48  1  0
 19 49  1  0
 20 50  1  0
 21 51  1  0
 22 52  1  0
 26 53  1  0
 27 54  1  0
 30 55  1  0
 32 56  1  0
 32 57  1  0
 33 58  1  0
 33 59  1  0
M  END
>  <Binding energies>  (1) 
[-9.66]

>  <Ligand effiencies>  (1) 
[-0.2542105263157895]

>  <Interactions>  (1) 
["V-B:TYR:539:CZ:9849, V-B:PRO:540:N:9856, V-B:TYR:539:CE1:9847, V-B:PRO:540:CB:9857, V-B:TYR:539:CD1:9845, V-B:PRO:540:CA:9855, V-B:TYR:539:CE2:9848, V-B:PRO:540:CD:9859, V-B:MET:535:CE:9807, V-B:LEU:363:CD1:8160, V-B:TYR:539:CG:9844, V-B:TYR:539:CD2:9846, V-B:LEU:363:CA:8156, V-A:ILE:369:CD1:3239, V-B:GLU:543:CG:9879, V-A:LEU:475:CD2:4259, V-A:TYR:484:CZ:4347, V-B:GLU:543:CB:9878, V-A:GLU:543:CD:4908, V-A:TYR:484:CE2:4346, V-A:GLY:454:CA:4049, V-A:ARG:545:CZ:4926, V-B:GLU:543:CD:9880, V-B:HIS:456:CE1:9041, V-A:GLY:544:C:4912, V-B:GLU:543:C:9874, V-B:HIS:456:CD2:9039, V-A:HIS:456:CE1:4070, V-A:GLU:543:C:4902, V-A:GLU:543:CB:4906, H-A:ARG:545:NH2:4928, H-A:GLY:454:N:4050, V-B:ILE:538:CG2:9835, V-B:ILE:538:CA:9832, V-B:ILE:538:C:9830, V-B:LEU:363:CB:8158, V-B:ILE:538:CB:9834"]

$$$$
RR27_Rahimova_2017
     RDKit          3D

 66 71  0  0  0  0  0  0  0  0999 V2000
  131.9360  128.6330   58.5260 O   0  0  0  0  0  0  0  0  0  0  0  0
  130.8800  128.9670   59.0720 C   0  0  0  0  0  0  0  0  0  0  0  0
  130.6570  130.4750   59.3860 C   0  0  0  0  0  0  0  0  0  0  0  0
  130.4910  131.3380   58.1210 C   0  0  0  0  0  0  0  0  0  0  0  0
  131.4320  131.3150   57.0810 C   0  0  0  0  0  0  0  0  0  0  0  0
  131.2500  132.1060   55.9500 C   0  0  0  0  0  0  0  0  0  0  0  0
  130.1280  132.9240   55.8540 C   0  0  0  0  0  0  0  0  0  0  0  0
  129.1870  132.9590   56.8800 C   0  0  0  0  0  0  0  0  0  0  0  0
  129.3690  132.1680   58.0100 C   0  0  0  0  0  0  0  0  0  0  0  0
  131.6840  131.0060   60.4040 C   0  0  0  0  0  0  0  0  0  0  0  0
  131.3520  131.2090   61.7500 C   0  0  0  0  0  0  0  0  0  0  0  0
  132.3020  131.7010   62.6410 C   0  0  0  0  0  0  0  0  0  0  0  0
  133.5860  131.9960   62.1890 C   0  0  0  0  0  0  0  0  0  0  0  0
  133.9270  131.8090   60.8520 C   0  0  0  0  0  0  0  0  0  0  0  0
  132.9760  131.3190   59.9620 C   0  0  0  0  0  0  0  0  0  0  0  0
  129.8630  128.0800   59.2640 N   0  0  0  0  0  0  0  0  0  0  0  0
  128.7010  128.3520   60.1240 C   0  0  0  0  0  0  0  0  0  0  0  0
  129.0940  127.9210   61.5550 C   0  0  0  0  0  0  0  0  0  0  0  0
  129.5800  126.4380   61.6270 C   0  0  0  0  0  0  0  0  0  0  0  0
  130.0890  125.9920   63.0100 C   0  0  0  0  0  0  0  0  0  0  0  0
  131.1420  125.1220   63.0170 N   0  0  0  0  0  0  0  0  0  0  0  0
  131.6480  124.7170   64.2150 C   0  0  0  0  0  0  0  0  0  0  0  0
  132.7030  123.8530   64.3510 O   0  0  0  0  0  0  0  0  0  0  0  0
  131.0630  125.2100   65.3970 C   0  0  0  0  0  0  0  0  0  0  0  0
  131.3180  125.0200   66.7230 N   0  0  0  0  0  0  0  0  0  0  0  0
  130.3980  125.7700   67.4310 N   0  0  0  0  0  0  0  0  0  0  0  0
  129.5980  126.4160   66.5560 N   0  0  0  0  0  0  0  0  0  0  0  0
  128.5120  127.2680   67.0350 C   0  0  0  0  0  0  0  0  0  0  0  0
  128.3640  127.2780   68.5500 C   0  0  0  0  0  0  0  0  0  0  0  0
  127.1660  126.8670   69.1430 C   0  0  0  0  0  0  0  0  0  0  0  0
  127.0350  126.8660   70.5330 C   0  0  0  0  0  0  0  0  0  0  0  0
  128.1010  127.2700   71.3360 C   0  0  0  0  0  0  0  0  0  0  0  0
  129.3020  127.6720   70.7510 C   0  0  0  0  0  0  0  0  0  0  0  0
  130.6320  128.1470   71.7440 Cl  0  0  0  0  0  0  0  0  0  0  0  0
  129.4320  127.6810   69.3620 C   0  0  0  0  0  0  0  0  0  0  0  0
  129.9720  126.0950   65.2620 C   0  0  0  0  0  0  0  0  0  0  0  0
  129.4510  126.5020   64.1010 N   0  0  0  0  0  0  0  0  0  0  0  0
  130.5600  126.0900   60.4640 C   0  0  0  0  0  0  0  0  0  0  0  0
  130.0970  126.6380   59.0910 C   0  0  0  0  0  0  0  0  0  0  0  0
  129.6826  130.5637   59.8886 H   0  0  0  0  0  0  0  0  0  0  0  0
  132.3185  130.6685   57.1595 H   0  0  0  0  0  0  0  0  0  0  0  0
  131.9895  132.0846   55.1360 H   0  0  0  0  0  0  0  0  0  0  0  0
  129.9833  133.5483   54.9599 H   0  0  0  0  0  0  0  0  0  0  0  0
  128.3036  133.6092   56.7974 H   0  0  0  0  0  0  0  0  0  0  0  0
  128.6267  132.1949   58.8213 H   0  0  0  0  0  0  0  0  0  0  0  0
  130.3364  130.9787   62.1043 H   0  0  0  0  0  0  0  0  0  0  0  0
  132.0395  131.8561   63.6979 H   0  0  0  0  0  0  0  0  0  0  0  0
  134.3374  132.3801   62.8946 H   0  0  0  0  0  0  0  0  0  0  0  0
  134.9421  132.0472   60.5014 H   0  0  0  0  0  0  0  0  0  0  0  0
  133.2407  131.1764   58.9039 H   0  0  0  0  0  0  0  0  0  0  0  0
  128.4585  129.4248   60.1048 H   0  0  0  0  0  0  0  0  0  0  0  0
  127.8146  127.8017   59.7755 H   0  0  0  0  0  0  0  0  0  0  0  0
  129.9050  128.5745   61.9089 H   0  0  0  0  0  0  0  0  0  0  0  0
  128.1969  128.0072   62.1857 H   0  0  0  0  0  0  0  0  0  0  0  0
  128.6763  125.8288   61.4781 H   0  0  0  0  0  0  0  0  0  0  0  0
  132.7680  123.4840   65.2340 H   0  0  0  0  0  0  0  0  0  0  0  0
  128.7040  128.2974   66.6981 H   0  0  0  0  0  0  0  0  0  0  0  0
  127.5774  126.8588   66.6237 H   0  0  0  0  0  0  0  0  0  0  0  0
  126.3246  126.5436   68.5126 H   0  0  0  0  0  0  0  0  0  0  0  0
  126.0895  126.5461   70.9953 H   0  0  0  0  0  0  0  0  0  0  0  0
  127.9949  127.2717   72.4309 H   0  0  0  0  0  0  0  0  0  0  0  0
  130.3771  128.0059   68.9025 H   0  0  0  0  0  0  0  0  0  0  0  0
  131.5457  126.5190   60.6973 H   0  0  0  0  0  0  0  0  0  0  0  0
  130.5951  124.9935   60.3833 H   0  0  0  0  0  0  0  0  0  0  0  0
  130.8769  126.4694   58.3338 H   0  0  0  0  0  0  0  0  0  0  0  0
  129.1832  126.1285   58.7513 H   0  0  0  0  0  0  0  0  0  0  0  0
  1  2  2  0
  2  3  1  0
  3  4  1  0
  4  5  2  0
  5  6  1  0
  6  7  2  0
  7  8  1  0
  8  9  2  0
  3 10  1  0
 10 11  2  0
 11 12  1  0
 12 13  2  0
 13 14  1  0
 14 15  2  0
  2 16  1  0
 16 17  1  0
 17 18  1  0
 18 19  1  0
 19 20  1  0
 20 21  2  0
 21 22  1  0
 22 23  1  0
 22 24  2  0
 24 25  1  0
 25 26  2  0
 26 27  1  0
 27 28  1  0
 28 29  1  0
 29 30  2  0
 30 31  1  0
 31 32  2  0
 32 33  1  0
 33 34  1  0
 33 35  2  0
 27 36  1  0
 36 37  2  0
 19 38  1  0
 38 39  1  0
  9  4  1  0
 15 10  1  0
 39 16  1  0
 37 20  1  0
 36 24  1  0
 35 29  1  0
  3 40  1  0
  5 41  1  0
  6 42  1  0
  7 43  1  0
  8 44  1  0
  9 45  1  0
 11 46  1  0
 12 47  1  0
 13 48  1  0
 14 49  1  0
 15 50  1  0
 17 51  1  0
 17 52  1  0
 18 53  1  0
 18 54  1  0
 19 55  1  0
 23 56  1  0
 28 57  1  0
 28 58  1  0
 30 59  1  0
 31 60  1  0
 32 61  1  0
 35 62  1  0
 38 63  1  0
 38 64  1  0
 39 65  1  0
 39 66  1  0
M  END
>  <Binding energies>  (1) 
[-10.08]

>  <Ligand effiencies>  (1) 
[-0.252]

>  <Interactions>  (1) 
["V-A:LEU:363:CD1:3189, V-A:ASP:366:CG:3213, H-A:TYR:531:OH:4795, V-A:PRO:540:CA:4883, V-A:PRO:540:CB:4885, V-A:MET:535:CE:4835, V-B:GLU:543:CG:9879, V-B:GLU:543:CB:9878, H-A:TYR:484:OH:4348, V-A:GLU:543:CD:4908, V-B:GLU:543:CD:9880, V-B:HIS:456:CE1:9041, V-A:GLY:544:C:4912, V-B:GLY:544:C:9884, V-B:GLU:543:C:9874, V-B:HIS:456:CD2:9039, V-A:HIS:456:CE1:4070, V-A:GLU:543:CG:4907, V-A:GLU:543:C:4902, V-A:GLU:543:CB:4906, V-B:GLY:544:CA:9886, V-A:ALA:541:C:4888, V-B:GLU:543:CA:9876, H-A:GLY:454:N:4050, V-A:TYR:539:CD1:4873, V-A:ILE:538:CA:4860, V-A:ILE:538:C:4858, V-A:ILE:538:CG2:4863, V-A:ILE:538:CB:4862, V-A:LEU:363:CA:3185, V-A:ASN:362:CB:3176, V-A:LEU:363:CB:3187, V-A:ASN:362:C:3172, V-A:ASN:362:CG:3177"]

$$$$
RR27_Rahimova_2017-again1
     RDKit          3D

 66 71  0  0  0  0  0  0  0  0999 V2000
  129.5320  125.1880   57.1020 O   0  0  0  0  0  0  0  0  0  0  0  0
  129.3380  125.5550   58.2650 C   0  0  0  0  0  0  0  0  0  0  0  0
  127.8780  125.5270   58.8110 C   0  0  0  0  0  0  0  0  0  0  0  0
  126.9800  124.5380   58.0430 C   0  0  0  0  0  0  0  0  0  0  0  0
  125.6580  124.8520   57.6900 C   0  0  0  0  0  0  0  0  0  0  0  0
  124.8780  123.9330   56.9950 C   0  0  0  0  0  0  0  0  0  0  0  0
  125.4120  122.6960   56.6490 C   0  0  0  0  0  0  0  0  0  0  0  0
  126.7210  122.3700   56.9910 C   0  0  0  0  0  0  0  0  0  0  0  0
  127.5020  123.2890   57.6860 C   0  0  0  0  0  0  0  0  0  0  0  0
  127.2790  126.9410   58.9340 C   0  0  0  0  0  0  0  0  0  0  0  0
  127.3550  127.8620   57.8790 C   0  0  0  0  0  0  0  0  0  0  0  0
  126.8250  129.1410   58.0210 C   0  0  0  0  0  0  0  0  0  0  0  0
  126.2130  129.5060   59.2170 C   0  0  0  0  0  0  0  0  0  0  0  0
  126.1310  128.6030   60.2740 C   0  0  0  0  0  0  0  0  0  0  0  0
  126.6690  127.3260   60.1350 C   0  0  0  0  0  0  0  0  0  0  0  0
  130.3790  125.8210   59.1060 N   0  0  0  0  0  0  0  0  0  0  0  0
  130.2320  126.5190   60.3910 C   0  0  0  0  0  0  0  0  0  0  0  0
  130.2760  128.0390   60.1090 C   0  0  0  0  0  0  0  0  0  0  0  0
  131.3840  128.5110   59.1100 C   0  0  0  0  0  0  0  0  0  0  0  0
  131.0410  129.8210   58.3930 C   0  0  0  0  0  0  0  0  0  0  0  0
  130.0560  130.5580   58.8020 N   0  0  0  0  0  0  0  0  0  0  0  0
  129.8390  131.6960   58.0860 C   0  0  0  0  0  0  0  0  0  0  0  0
  130.5610  132.1220   56.9820 C   0  0  0  0  0  0  0  0  0  0  0  0
  130.0730  133.2630   56.5260 N   0  0  0  0  0  0  0  0  0  0  0  0
  129.0020  133.6140   57.3410 N   0  0  0  0  0  0  0  0  0  0  0  0
  128.8890  132.6640   58.2850 N   0  0  0  0  0  0  0  0  0  0  0  0
  127.8370  132.7290   59.2910 C   0  0  0  0  0  0  0  0  0  0  0  0
  128.2910  132.2710   60.6690 C   0  0  0  0  0  0  0  0  0  0  0  0
  129.5380  132.6680   61.1650 C   0  0  0  0  0  0  0  0  0  0  0  0
  129.9600  132.2420   62.4250 C   0  0  0  0  0  0  0  0  0  0  0  0
  129.1390  131.4210   63.1960 C   0  0  0  0  0  0  0  0  0  0  0  0
  127.8920  131.0260   62.7090 C   0  0  0  0  0  0  0  0  0  0  0  0
  126.8780  130.0060   63.6620 Cl  0  0  0  0  0  0  0  0  0  0  0  0
  127.4680  131.4520   61.4500 C   0  0  0  0  0  0  0  0  0  0  0  0
  131.6810  131.3120   56.5040 C   0  0  0  0  0  0  0  0  0  0  0  0
  132.4320  131.5260   55.5550 O   0  0  0  0  0  0  0  0  0  0  0  0
  131.8150  130.1930   57.2980 N   0  0  0  0  0  0  0  0  0  0  0  0
  131.9300  127.4260   58.1290 C   0  0  0  0  0  0  0  0  0  0  0  0
  131.7410  125.9530   58.5690 C   0  0  0  0  0  0  0  0  0  0  0  0
  127.9249  125.1345   59.8375 H   0  0  0  0  0  0  0  0  0  0  0  0
  125.2364  125.8302   57.9644 H   0  0  0  0  0  0  0  0  0  0  0  0
  123.8428  124.1837   56.7201 H   0  0  0  0  0  0  0  0  0  0  0  0
  124.7945  121.9695   56.1005 H   0  0  0  0  0  0  0  0  0  0  0  0
  127.1367  121.3902   56.7133 H   0  0  0  0  0  0  0  0  0  0  0  0
  128.5368  123.0320   57.9567 H   0  0  0  0  0  0  0  0  0  0  0  0
  127.8365  127.5717   56.9335 H   0  0  0  0  0  0  0  0  0  0  0  0
  126.8894  129.8606   57.1916 H   0  0  0  0  0  0  0  0  0  0  0  0
  125.7909  130.5157   59.3280 H   0  0  0  0  0  0  0  0  0  0  0  0
  125.6432  128.8972   61.2150 H   0  0  0  0  0  0  0  0  0  0  0  0
  126.6147  126.6155   60.9730 H   0  0  0  0  0  0  0  0  0  0  0  0
  129.2709  126.2518   60.8546 H   0  0  0  0  0  0  0  0  0  0  0  0
  131.0401  126.2317   61.0798 H   0  0  0  0  0  0  0  0  0  0  0  0
  129.3002  128.3347   59.6961 H   0  0  0  0  0  0  0  0  0  0  0  0
  130.5159  128.5160   61.0707 H   0  0  0  0  0  0  0  0  0  0  0  0
  132.2333  128.7176   59.7778 H   0  0  0  0  0  0  0  0  0  0  0  0
  127.4900  133.7701   59.3662 H   0  0  0  0  0  0  0  0  0  0  0  0
  127.0365  132.0467   58.9689 H   0  0  0  0  0  0  0  0  0  0  0  0
  130.1873  133.3177   60.5598 H   0  0  0  0  0  0  0  0  0  0  0  0
  130.9418  132.5545   62.8102 H   0  0  0  0  0  0  0  0  0  0  0  0
  129.4738  131.0843   64.1883 H   0  0  0  0  0  0  0  0  0  0  0  0
  126.4831  131.1429   61.0699 H   0  0  0  0  0  0  0  0  0  0  0  0
  132.5690  129.5750   57.0340 H   0  0  0  0  0  0  0  0  0  0  0  0
  131.4181  127.5570   57.1642 H   0  0  0  0  0  0  0  0  0  0  0  0
  133.0177  127.5850   58.0880 H   0  0  0  0  0  0  0  0  0  0  0  0
  131.8702  125.2840   57.7054 H   0  0  0  0  0  0  0  0  0  0  0  0
  132.4851  125.6789   59.3313 H   0  0  0  0  0  0  0  0  0  0  0  0
  1  2  2  0
  2  3  1  0
  3  4  1  0
  4  5  2  0
  5  6  1  0
  6  7  2  0
  7  8  1  0
  8  9  2  0
  3 10  1  0
 10 11  2  0
 11 12  1  0
 12 13  2  0
 13 14  1  0
 14 15  2  0
  2 16  1  0
 16 17  1  0
 17 18  1  0
 18 19  1  0
 19 20  1  0
 20 21  2  0
 21 22  1  0
 22 23  2  0
 23 24  1  0
 24 25  2  0
 25 26  1  0
 26 27  1  0
 27 28  1  0
 28 29  2  0
 29 30  1  0
 30 31  2  0
 31 32  1  0
 32 33  1  0
 32 34  2  0
 23 35  1  0
 35 36  2  0
 35 37  1  0
 19 38  1  0
 38 39  1  0
  9  4  1  0
 15 10  1  0
 39 16  1  0
 37 20  1  0
 26 22  1  0
 34 28  1  0
  3 40  1  0
  5 41  1  0
  6 42  1  0
  7 43  1  0
  8 44  1  0
  9 45  1  0
 11 46  1  0
 12 47  1  0
 13 48  1  0
 14 49  1  0
 15 50  1  0
 17 51  1  0
 17 52  1  0
 18 53  1  0
 18 54  1  0
 19 55  1  0
 27 56  1  0
 27 57  1  0
 29 58  1  0
 30 59  1  0
 31 60  1  0
 34 61  1  0
 37 62  1  0
 38 63  1  0
 38 64  1  0
 39 65  1  0
 39 66  1  0
M  END
>  <Binding energies>  (1) 
[-10.11]

>  <Ligand effiencies>  (1) 
[-0.25275]

>  <Interactions>  (1) 
["V-A:LEU:363:CD1:3189, V-A:ASP:366:CG:3213, H-A:TYR:531:OH:4795, V-A:PRO:540:CA:4883, H-B:TYR:539:OH:9850, V-A:TYR:539:C:4867, V-A:ASP:366:CB:3212, H-A:TYR:539:N:4870, V-B:PRO:540:N:9856, V-B:PRO:540:CB:9857, V-B:PRO:540:CA:9855, V-B:TYR:539:CE2:9848, V-B:PRO:540:CD:9859, V-B:ASP:366:CG:8184, V-B:MET:535:CE:9807, V-B:LEU:363:CD1:8160, V-B:TYR:539:C:9839, V-B:TYR:531:CE2:9765, V-A:GLU:543:CD:4908, V-A:GLU:543:CG:4907, V-A:TYR:531:CZ:4794, V-A:ALA:541:CB:4892, V-A:TYR:539:CE1:4875, V-A:ALA:541:CA:4890, V-A:PRO:540:C:4881, V-A:TYR:539:CD1:4873, V-A:TYR:531:CE2:4793, V-B:TYR:539:CA:9841"]

$$$$
RR28_Rahimova_2017
     RDKit          3D

 82 85  0  0  0  0  0  0  0  0999 V2000
  133.6870  124.5230   63.1420 C   0  0  0  0  0  0  0  0  0  0  0  0
  132.2560  125.0460   63.1280 C   0  0  0  0  0  0  0  0  0  0  0  0
  131.9570  125.9780   62.3830 O   0  0  0  0  0  0  0  0  0  0  0  0
  131.3870  124.4330   63.9570 N   0  0  0  0  0  0  0  0  0  0  0  0
  129.9510  124.7290   64.1600 C   0  0  0  0  0  0  0  0  0  0  0  0
  129.8030  125.5410   65.4790 C   0  0  0  0  0  0  0  0  0  0  0  0
  130.3400  125.0250   66.6680 C   0  0  0  0  0  0  0  0  0  0  0  0
  130.2220  125.7220   67.8670 C   0  0  0  0  0  0  0  0  0  0  0  0
  129.5640  126.9520   67.9040 C   0  0  0  0  0  0  0  0  0  0  0  0
  129.4410  127.7010   69.2310 C   0  0  0  0  0  0  0  0  0  0  0  0
  128.5610  127.1290   70.0560 F   0  0  0  0  0  0  0  0  0  0  0  0
  130.6210  127.7410   69.8500 F   0  0  0  0  0  0  0  0  0  0  0  0
  129.0380  128.9500   68.9930 F   0  0  0  0  0  0  0  0  0  0  0  0
  129.0230  127.4760   66.7270 C   0  0  0  0  0  0  0  0  0  0  0  0
  129.1410  126.7780   65.5280 C   0  0  0  0  0  0  0  0  0  0  0  0
  129.1070  123.4040   64.1360 C   0  0  0  0  0  0  0  0  0  0  0  0
  129.1100  122.7000   62.7550 C   0  0  0  0  0  0  0  0  0  0  0  0
  128.5650  123.6700   61.7920 N   0  0  0  0  0  0  0  0  0  0  0  0
  127.2370  123.6690   61.4920 C   0  0  0  0  0  0  0  0  0  0  0  0
  126.4820  122.7710   61.8710 O   0  0  0  0  0  0  0  0  0  0  0  0
  126.6910  124.7340   60.5110 C   0  0  0  0  0  0  0  0  0  0  0  0
  126.1650  124.1990   59.1510 C   0  0  0  0  0  0  0  0  0  0  0  0
  127.1420  124.3550   57.9620 C   0  0  0  0  0  0  0  0  0  0  0  0
  127.3720  123.3600   57.2690 O   0  0  0  0  0  0  0  0  0  0  0  0
  127.6080  125.5910   57.6280 N   0  0  0  0  0  0  0  0  0  0  0  0
  127.6340  126.7240   58.5620 C   0  0  0  0  0  0  0  0  0  0  0  0
  128.9450  126.6010   59.3680 C   0  0  0  0  0  0  0  0  0  0  0  0
  130.2490  126.5570   58.4970 C   0  0  0  0  0  0  0  0  0  0  0  0
  131.3650  126.0450   59.3200 N   0  0  0  0  0  0  0  0  0  0  0  0
  132.4840  125.4170   58.9060 C   0  0  0  0  0  0  0  0  0  0  0  0
  133.4580  124.9830   59.9970 C   0  0  0  0  0  0  0  0  0  0  0  0
  132.7470  125.1830   57.7270 O   0  0  0  0  0  0  0  0  0  0  0  0
  130.5950  128.0280   58.0970 C   0  0  0  0  0  0  0  0  0  0  0  0
  131.7830  128.6660   58.4920 C   0  0  0  0  0  0  0  0  0  0  0  0
  132.0540  129.9780   58.1130 C   0  0  0  0  0  0  0  0  0  0  0  0
  131.1400  130.6890   57.3310 C   0  0  0  0  0  0  0  0  0  0  0  0
  131.4250  132.1280   56.9040 C   0  0  0  0  0  0  0  0  0  0  0  0
  132.4930  132.6070   57.5450 F   0  0  0  0  0  0  0  0  0  0  0  0
  131.6660  132.1560   55.5940 F   0  0  0  0  0  0  0  0  0  0  0  0
  130.3960  132.9400   57.1570 F   0  0  0  0  0  0  0  0  0  0  0  0
  129.9520  130.0730   56.9380 C   0  0  0  0  0  0  0  0  0  0  0  0
  129.6850  128.7610   57.3180 C   0  0  0  0  0  0  0  0  0  0  0  0
  130.0050  125.6170   57.2540 C   0  0  0  0  0  0  0  0  0  0  0  0
  128.6160  125.7370   56.5700 C   0  0  0  0  0  0  0  0  0  0  0  0
  129.4170  124.8540   61.6120 C   0  0  0  0  0  0  0  0  0  0  0  0
  129.4440  125.6050   62.9680 C   0  0  0  0  0  0  0  0  0  0  0  0
  134.0224  124.4004   64.1824 H   0  0  0  0  0  0  0  0  0  0  0  0
  133.7275  123.5519   62.6268 H   0  0  0  0  0  0  0  0  0  0  0  0
  134.3442  125.2391   62.6268 H   0  0  0  0  0  0  0  0  0  0  0  0
  131.7520  123.6920   64.5370 H   0  0  0  0  0  0  0  0  0  0  0  0
  130.8613  124.0565   66.6525 H   0  0  0  0  0  0  0  0  0  0  0  0
  130.6492  125.3015   68.7893 H   0  0  0  0  0  0  0  0  0  0  0  0
  128.5015  128.4443   66.7478 H   0  0  0  0  0  0  0  0  0  0  0  0
  128.7104  127.2008   64.6083 H   0  0  0  0  0  0  0  0  0  0  0  0
  129.5235  122.7112   64.8820 H   0  0  0  0  0  0  0  0  0  0  0  0
  128.0653  123.6772   64.3601 H   0  0  0  0  0  0  0  0  0  0  0  0
  130.1357  122.4197   62.4733 H   0  0  0  0  0  0  0  0  0  0  0  0
  128.5091  121.7789   62.7761 H   0  0  0  0  0  0  0  0  0  0  0  0
  125.8625  125.2582   61.0099 H   0  0  0  0  0  0  0  0  0  0  0  0
  127.5477  125.3787   60.2654 H   0  0  0  0  0  0  0  0  0  0  0  0
  125.9409  123.1286   59.2696 H   0  0  0  0  0  0  0  0  0  0  0  0
  125.2822  124.8068   58.9037 H   0  0  0  0  0  0  0  0  0  0  0  0
  127.6172  127.6737   58.0072 H   0  0  0  0  0  0  0  0  0  0  0  0
  126.7572  126.7109   59.2262 H   0  0  0  0  0  0  0  0  0  0  0  0
  129.0138  127.4659   60.0442 H   0  0  0  0  0  0  0  0  0  0  0  0
  128.8938  125.6390   59.8991 H   0  0  0  0  0  0  0  0  0  0  0  0
  131.2420  126.1540   60.3160 H   0  0  0  0  0  0  0  0  0  0  0  0
  133.0146  125.1806   60.9841 H   0  0  0  0  0  0  0  0  0  0  0  0
  133.6653  123.9074   59.8968 H   0  0  0  0  0  0  0  0  0  0  0  0
  134.3964  125.5481   59.8968 H   0  0  0  0  0  0  0  0  0  0  0  0
  132.5106  128.1201   59.1106 H   0  0  0  0  0  0  0  0  0  0  0  0
  132.9919  130.4570   58.4306 H   0  0  0  0  0  0  0  0  0  0  0  0
  129.2240  130.6257   56.3260 H   0  0  0  0  0  0  0  0  0  0  0  0
  128.7430  128.2891   57.0020 H   0  0  0  0  0  0  0  0  0  0  0  0
  130.7720  125.8498   56.5007 H   0  0  0  0  0  0  0  0  0  0  0  0
  130.0543  124.5902   57.6454 H   0  0  0  0  0  0  0  0  0  0  0  0
  128.5163  126.7192   56.0850 H   0  0  0  0  0  0  0  0  0  0  0  0
  128.4896  124.9663   55.7954 H   0  0  0  0  0  0  0  0  0  0  0  0
  130.4350  124.5472   61.3300 H   0  0  0  0  0  0  0  0  0  0  0  0
  129.0254  125.5010   60.8133 H   0  0  0  0  0  0  0  0  0  0  0  0
  130.1084  126.4761   62.8697 H   0  0  0  0  0  0  0  0  0  0  0  0
  128.4074  125.8926   63.1977 H   0  0  0  0  0  0  0  0  0  0  0  0
  1  2  1  0
  2  3  2  0
  2  4  1  0
  4  5  1  0
  5  6  1  0
  6  7  2  0
  7  8  1  0
  8  9  2  0
  9 10  1  0
 10 11  1  0
 10 12  1  0
 10 13  1  0
  9 14  1  0
 14 15  2  0
  5 16  1  0
 16 17  1  0
 17 18  1  0
 18 19  1  0
 19 20  2  0
 19 21  1  0
 21 22  1  0
 22 23  1  0
 23 24  2  0
 23 25  1  0
 25 26  1  0
 26 27  1  0
 27 28  1  0
 28 29  1  0
 29 30  1  0
 30 31  1  0
 30 32  2  0
 28 33  1  0
 33 34  2  0
 34 35  1  0
 35 36  2  0
 36 37  1  0
 37 38  1  0
 37 39  1  0
 37 40  1  0
 36 41  1  0
 41 42  2  0
 28 43  1  0
 43 44  1  0
 18 45  1  0
 45 46  1  0
 46  5  1  0
 15  6  1  0
 44 25  1  0
 42 33  1  0
  1 47  1  0
  1 48  1  0
  1 49  1  0
  4 50  1  0
  7 51  1  0
  8 52  1  0
 14 53  1  0
 15 54  1  0
 16 55  1  0
 16 56  1  0
 17 57  1  0
 17 58  1  0
 21 59  1  0
 21 60  1  0
 22 61  1  0
 22 62  1  0
 26 63  1  0
 26 64  1  0
 27 65  1  0
 27 66  1  0
 29 67  1  0
 31 68  1  0
 31 69  1  0
 31 70  1  0
 34 71  1  0
 35 72  1  0
 41 73  1  0
 42 74  1  0
 43 75  1  0
 43 76  1  0
 44 77  1  0
 44 78  1  0
 45 79  1  0
 45 80  1  0
 46 81  1  0
 46 82  1  0
M  END
>  <Binding energies>  (1) 
[-9.03]

>  <Ligand effiencies>  (1) 
[-0.188125]

>  <Interactions>  (1) 
["V-A:LEU:363:CD1:3189, V-A:ASP:366:CG:3213, V-A:PRO:540:CA:4883, H-B:TYR:539:OH:9850, V-A:PRO:540:CB:4885, V-A:PRO:540:CD:4887, V-A:PRO:540:CG:4886, V-A:PRO:540:N:4884, V-A:TYR:539:C:4867, V-A:ASP:366:CB:3212, V-B:TYR:539:CZ:9849, V-B:PRO:540:CB:9857, V-B:PRO:540:CA:9855, V-B:TYR:539:CE2:9848, H-B:ALA:541:N:9863, V-A:MET:535:CE:4835, V-B:ALA:541:CB:9864, V-A:ASP:366:CA:3210, V-B:GLU:543:CG:9879, V-A:TYR:484:CZ:4347, V-B:GLU:543:CB:9878, H-A:TYR:484:OH:4348, V-A:GLU:543:CD:4908, V-A:TYR:484:CE2:4346, V-A:ARG:545:CZ:4926, V-B:GLU:543:CD:9880, V-B:HIS:456:CE1:9041, V-A:HIS:456:CE1:4070, V-A:GLU:543:CG:4907, V-A:GLU:543:C:4902, V-A:GLU:543:CB:4906, V-A:GLU:543:CA:4904, H-A:ARG:545:NH2:4928, V-A:ILE:538:CG2:4863, V-A:ILE:538:CB:4862"]

$$$$
RR29_Rahimova_2017
     RDKit          3D

 35 36  0  0  0  0  0  0  0  0999 V2000
  127.9450  133.5000   63.0850 C   0  0  0  0  0  0  0  0  0  0  0  0
  128.5680  132.1690   63.4790 C   0  0  0  0  0  0  0  0  0  0  0  0
  129.9920  131.9770   62.9110 C   0  0  0  0  0  0  0  0  0  0  0  0
  130.0090  130.9710   61.7420 C   0  0  0  0  0  0  0  0  0  0  0  0
  130.0180  131.6620   60.3870 C   0  0  0  0  0  0  0  0  0  0  0  0
  128.8990  132.4120   59.9720 C   0  0  0  0  0  0  0  0  0  0  0  0
  128.8870  133.0570   58.7270 C   0  0  0  0  0  0  0  0  0  0  0  0
  130.0100  132.9180   57.9200 C   0  0  0  0  0  0  0  0  0  0  0  0
  131.0970  132.1900   58.3160 C   0  0  0  0  0  0  0  0  0  0  0  0
  131.1410  131.5480   59.5490 C   0  0  0  0  0  0  0  0  0  0  0  0
  132.0540  132.2520   57.3540 O   0  0  0  0  0  0  0  0  0  0  0  0
  131.4440  132.8670   56.2510 C   0  0  0  0  0  0  0  0  0  0  0  0
  130.2530  133.4600   56.6970 O   0  0  0  0  0  0  0  0  0  0  0  0
  127.8840  131.3620   64.2040 N   0  0  0  0  0  0  0  0  0  0  0  0
  128.4120  130.1220   64.4910 N   0  0  0  0  0  0  0  0  0  0  0  0
  127.7740  129.1820   65.2070 C   0  0  0  0  0  0  0  0  0  0  0  0
  126.5490  129.3120   65.7170 N   0  0  0  0  0  0  0  0  0  0  0  0
  128.4070  128.0380   65.4250 N   0  0  0  0  0  0  0  0  0  0  0  0
  127.6810  134.0640   63.9918 H   0  0  0  0  0  0  0  0  0  0  0  0
  128.6652  134.0799   62.4892 H   0  0  0  0  0  0  0  0  0  0  0  0
  127.0383  133.3184   62.4892 H   0  0  0  0  0  0  0  0  0  0  0  0
  130.3664  132.9470   62.5520 H   0  0  0  0  0  0  0  0  0  0  0  0
  130.6309  131.5805   63.7139 H   0  0  0  0  0  0  0  0  0  0  0  0
  130.9100  130.3456   61.8263 H   0  0  0  0  0  0  0  0  0  0  0  0
  129.0929  130.3655   61.8053 H   0  0  0  0  0  0  0  0  0  0  0  0
  128.0238  132.4923   60.6334 H   0  0  0  0  0  0  0  0  0  0  0  0
  128.0206  133.6512   58.4010 H   0  0  0  0  0  0  0  0  0  0  0  0
  132.0247  130.9705   59.8581 H   0  0  0  0  0  0  0  0  0  0  0  0
  132.1116  133.6353   55.8340 H   0  0  0  0  0  0  0  0  0  0  0  0
  131.2346  132.1269   55.4647 H   0  0  0  0  0  0  0  0  0  0  0  0
  129.3470  129.9390   64.1560 H   0  0  0  0  0  0  0  0  0  0  0  0
  126.0110  128.4940   65.9620 H   0  0  0  0  0  0  0  0  0  0  0  0
  126.1590  130.2350   65.8450 H   0  0  0  0  0  0  0  0  0  0  0  0
  129.4130  127.9960   65.3540 H   0  0  0  0  0  0  0  0  0  0  0  0
  127.8810  127.2110   65.6680 H   0  0  0  0  0  0  0  0  0  0  0  0
  1  2  1  0
  2  3  1  0
  3  4  1  0
  4  5  1  0
  5  6  2  0
  6  7  1  0
  7  8  2  0
  8  9  1  0
  9 10  2  0
  9 11  1  0
 11 12  1  0
 12 13  1  0
  2 14  2  0
 14 15  1  0
 15 16  1  0
 16 17  1  0
 16 18  2  0
 10  5  1  0
 13  8  1  0
  1 19  1  0
  1 20  1  0
  1 21  1  0
  3 22  1  0
  3 23  1  0
  4 24  1  0
  4 25  1  0
  6 26  1  0
  7 27  1  0
 10 28  1  0
 12 29  1  0
 12 30  1  0
 15 31  1  0
 17 32  1  0
 17 33  1  0
 18 34  1  0
 18 35  1  0
M  CHG  1  18   1
M  END
>  <Binding energies>  (1) 
[-7.32]

>  <Ligand effiencies>  (1) 
[-0.31826086956521743]

>  <Interactions>  (1) 
["V-A:LEU:363:CD1:3189, V-A:PRO:540:CA:4883, V-A:PRO:540:CB:4885, V-A:PRO:540:N:4884, V-A:TYR:539:C:4867, H-A:TYR:539:N:4870, H-B:GLU:543:OE1:9881, V-A:GLU:543:CD:4908, V-B:GLU:543:CD:9880, V-A:GLU:543:CG:4907, H-A:GLU:543:OE1:4909, H-A:GLU:543:OE2:4910, V-B:TYR:484:CZ:9318, H-B:GLU:543:OE2:9882, H-B:TYR:484:OH:9319, V-A:ALA:541:CB:4892, V-A:TYR:539:CE1:4875, V-A:TYR:539:CD1:4873, V-A:ILE:538:CA:4860, V-A:ILE:538:CG2:4863, V-A:ILE:538:CB:4862, V-B:LEU:475:CD2:9230"]

$$$$
RR29_Rahimova_2017-again1
     RDKit          3D

 34 35  0  0  0  0  0  0  0  0999 V2000
  128.9360  132.1530   64.5050 C   0  0  0  0  0  0  0  0  0  0  0  0
  129.4110  132.0500   63.0640 C   0  0  0  0  0  0  0  0  0  0  0  0
  128.3040  131.6170   62.0830 C   0  0  0  0  0  0  0  0  0  0  0  0
  127.7730  132.8130   61.2650 C   0  0  0  0  0  0  0  0  0  0  0  0
  128.0760  132.6760   59.7800 C   0  0  0  0  0  0  0  0  0  0  0  0
  127.1350  132.0720   58.9240 C   0  0  0  0  0  0  0  0  0  0  0  0
  127.3930  131.9370   57.5520 C   0  0  0  0  0  0  0  0  0  0  0  0
  128.6110  132.4110   57.0770 C   0  0  0  0  0  0  0  0  0  0  0  0
  129.5280  132.9960   57.9040 C   0  0  0  0  0  0  0  0  0  0  0  0
  129.2940  133.1520   59.2660 C   0  0  0  0  0  0  0  0  0  0  0  0
  130.6030  133.3930   57.1730 O   0  0  0  0  0  0  0  0  0  0  0  0
  130.4170  132.8410   55.8980 C   0  0  0  0  0  0  0  0  0  0  0  0
  129.0820  132.4240   55.8030 O   0  0  0  0  0  0  0  0  0  0  0  0
  130.6420  132.3010   62.7880 N   0  0  0  0  0  0  0  0  0  0  0  0
  131.0110  132.1740   61.5540 N   0  0  0  0  0  0  0  0  0  0  0  0
  131.9990  131.3920   61.3120 C   0  0  0  0  0  0  0  0  0  0  0  0
  132.7630  130.6310   62.2400 N   0  0  0  0  0  0  0  0  0  0  0  0
  132.4660  131.1880   59.9960 N   0  0  0  0  0  0  0  0  0  0  0  0
  129.7819  131.9696   65.1839 H   0  0  0  0  0  0  0  0  0  0  0  0
  128.5316  133.1597   64.6867 H   0  0  0  0  0  0  0  0  0  0  0  0
  128.1510  131.4042   64.6867 H   0  0  0  0  0  0  0  0  0  0  0  0
  128.7129  130.8649   61.3922 H   0  0  0  0  0  0  0  0  0  0  0  0
  127.4696  131.2006   62.6665 H   0  0  0  0  0  0  0  0  0  0  0  0
  126.6831  132.8776   61.3993 H   0  0  0  0  0  0  0  0  0  0  0  0
  128.2768  133.7205   61.6293 H   0  0  0  0  0  0  0  0  0  0  0  0
  126.1852  131.7012   59.3368 H   0  0  0  0  0  0  0  0  0  0  0  0
  126.6590  131.4733   56.8766 H   0  0  0  0  0  0  0  0  0  0  0  0
  130.0377  133.6320   59.9191 H   0  0  0  0  0  0  0  0  0  0  0  0
  130.6285  133.5976   55.1280 H   0  0  0  0  0  0  0  0  0  0  0  0
  131.0974  131.9905   55.7442 H   0  0  0  0  0  0  0  0  0  0  0  0
  132.5770  130.6540   63.2330 H   0  0  0  0  0  0  0  0  0  0  0  0
  133.5310  130.0420   61.9570 H   0  0  0  0  0  0  0  0  0  0  0  0
  132.0490  131.6500   59.2010 H   0  0  0  0  0  0  0  0  0  0  0  0
  133.2440  130.5810   59.7840 H   0  0  0  0  0  0  0  0  0  0  0  0
  1  2  1  0
  2  3  1  0
  3  4  1  0
  4  5  1  0
  5  6  2  0
  6  7  1  0
  7  8  2  0
  8  9  1  0
  9 10  2  0
  9 11  1  0
 11 12  1  0
 12 13  1  0
  2 14  2  0
 14 15  1  0
 15 16  2  0
 16 17  1  0
 16 18  1  0
 10  5  1  0
 13  8  1  0
  1 19  1  0
  1 20  1  0
  1 21  1  0
  3 22  1  0
  3 23  1  0
  4 24  1  0
  4 25  1  0
  6 26  1  0
  7 27  1  0
 10 28  1  0
 12 29  1  0
 12 30  1  0
 17 31  1  0
 17 32  1  0
 18 33  1  0
 18 34  1  0
M  END
>  <Binding energies>  (1) 
[-6.8]

>  <Ligand effiencies>  (1) 
[-0.3090909090909091]

>  <Interactions>  (1) 
["V-A:ASP:366:CG:3213, V-A:PRO:540:CA:4883, V-A:PRO:540:CB:4885, H-A:ASP:366:OD2:3215, V-A:PRO:540:N:4884, V-A:TYR:539:C:4867, H-A:TYR:539:N:4870, V-A:MET:535:CE:4835, V-A:GLU:543:CD:4908, V-A:ARG:545:CZ:4926, V-A:GLU:543:CG:4907, H-A:GLU:543:OE1:4909, H-A:GLU:543:OE2:4910, V-A:ALA:541:CB:4892, V-A:TYR:539:CE1:4875, V-A:TYR:539:CZ:4877, H-A:ALA:541:N:4891, V-A:TYR:539:CD1:4873, V-A:ILE:538:CA:4860, V-A:ILE:538:C:4858, V-B:TYR:484:CE2:9317, V-A:ILE:538:CG2:4863, V-A:ILE:538:CB:4862, H-A:ASP:366:OD1:3214, V-A:ASN:362:CB:3176, H-A:ALA:541:O:4889"]

$$$$
RR2_Rahimova_2017
     RDKit          3D

 76 80  0  0  0  0  0  0  0  0999 V2000
  128.8060  133.4940   55.6270 C   0  0  0  0  0  0  0  0  0  0  0  0
  129.9800  133.1290   56.3440 O   0  0  0  0  0  0  0  0  0  0  0  0
  130.0600  131.8710   56.9120 C   0  0  0  0  0  0  0  0  0  0  0  0
  131.2470  131.2840   57.3720 C   0  0  0  0  0  0  0  0  0  0  0  0
  131.2300  130.0080   57.9290 C   0  0  0  0  0  0  0  0  0  0  0  0
  130.0320  129.2890   58.0360 C   0  0  0  0  0  0  0  0  0  0  0  0
  130.0420  127.8980   58.6410 C   0  0  0  0  0  0  0  0  0  0  0  0
  129.3320  127.6390   59.6180 O   0  0  0  0  0  0  0  0  0  0  0  0
  130.8720  127.0060   58.0520 N   0  0  0  0  0  0  0  0  0  0  0  0
  130.9890  125.7430   58.6230 N   0  0  0  0  0  0  0  0  0  0  0  0
  132.1930  125.1370   58.5890 C   0  0  0  0  0  0  0  0  0  0  0  0
  133.1630  125.5310   57.9350 O   0  0  0  0  0  0  0  0  0  0  0  0
  132.3260  123.8810   59.4610 C   0  0  0  0  0  0  0  0  0  0  0  0
  133.9950  123.5920   60.1530 S   0  0  0  0  0  0  0  0  0  0  0  0
  133.7650  124.1650   61.8090 C   0  0  0  0  0  0  0  0  0  0  0  0
  134.7430  124.6240   62.5480 N   0  0  0  0  0  0  0  0  0  0  0  0
  134.2210  124.9120   63.8010 N   0  0  0  0  0  0  0  0  0  0  0  0
  132.9370  124.6440   63.7630 C   0  0  0  0  0  0  0  0  0  0  0  0
  132.0210  124.8440   64.9270 C   0  0  0  0  0  0  0  0  0  0  0  0
  130.7350  124.2990   64.9010 C   0  0  0  0  0  0  0  0  0  0  0  0
  129.8730  124.4860   65.9760 C   0  0  0  0  0  0  0  0  0  0  0  0
  130.2950  125.2080   67.0990 C   0  0  0  0  0  0  0  0  0  0  0  0
  129.4660  125.4370   68.2070 N   0  0  0  0  0  0  0  0  0  0  0  0
  128.7880  127.0180   68.6550 S   0  0  0  0  0  0  0  0  0  0  0  0
  127.3340  126.8900   68.5100 O   0  0  0  0  0  0  0  0  0  0  0  0
  129.5290  128.0540   67.9240 O   0  0  0  0  0  0  0  0  0  0  0  0
  129.1190  127.1910   70.4060 C   0  0  0  0  0  0  0  0  0  0  0  0
  130.3640  127.6400   70.8540 C   0  0  0  0  0  0  0  0  0  0  0  0
  130.6060  127.7520   72.2210 C   0  0  0  0  0  0  0  0  0  0  0  0
  129.6050  127.4210   73.1370 C   0  0  0  0  0  0  0  0  0  0  0  0
  129.8760  127.5300   74.6260 C   0  0  0  0  0  0  0  0  0  0  0  0
  128.3630  126.9690   72.6860 C   0  0  0  0  0  0  0  0  0  0  0  0
  128.1200  126.8550   71.3200 C   0  0  0  0  0  0  0  0  0  0  0  0
  131.5800  125.7490   67.1250 C   0  0  0  0  0  0  0  0  0  0  0  0
  132.4420  125.5680   66.0470 C   0  0  0  0  0  0  0  0  0  0  0  0
  132.5770  124.1580   62.5170 N   0  0  0  0  0  0  0  0  0  0  0  0
  131.3120  123.7140   62.0810 C   0  0  0  0  0  0  0  0  0  0  0  0
  130.3210  124.6430   61.7580 C   0  0  0  0  0  0  0  0  0  0  0  0
  129.0760  124.1980   61.3230 C   0  0  0  0  0  0  0  0  0  0  0  0
  128.8080  122.8330   61.2090 C   0  0  0  0  0  0  0  0  0  0  0  0
  127.5440  122.4890   60.7720 O   0  0  0  0  0  0  0  0  0  0  0  0
  126.5160  123.4750   60.7730 C   0  0  0  0  0  0  0  0  0  0  0  0
  129.8110  121.9060   61.5370 C   0  0  0  0  0  0  0  0  0  0  0  0
  131.0590  122.3450   61.9700 C   0  0  0  0  0  0  0  0  0  0  0  0
  128.8460  129.8860   57.5800 C   0  0  0  0  0  0  0  0  0  0  0  0
  128.8650  131.1630   57.0250 C   0  0  0  0  0  0  0  0  0  0  0  0
  128.0046  133.7431   56.3382 H   0  0  0  0  0  0  0  0  0  0  0  0
  129.0196  134.3681   54.9943 H   0  0  0  0  0  0  0  0  0  0  0  0
  128.4864  132.6528   54.9943 H   0  0  0  0  0  0  0  0  0  0  0  0
  132.1963  131.8340   57.2925 H   0  0  0  0  0  0  0  0  0  0  0  0
  132.1675  129.5593   58.2891 H   0  0  0  0  0  0  0  0  0  0  0  0
  131.7310  127.2960   57.6080 H   0  0  0  0  0  0  0  0  0  0  0  0
  130.2930  125.5590   59.3320 H   0  0  0  0  0  0  0  0  0  0  0  0
  131.6201  123.9717   60.2997 H   0  0  0  0  0  0  0  0  0  0  0  0
  132.1145  123.0260   58.8021 H   0  0  0  0  0  0  0  0  0  0  0  0
  130.4030  123.7197   64.0268 H   0  0  0  0  0  0  0  0  0  0  0  0
  128.8570  124.0656   65.9441 H   0  0  0  0  0  0  0  0  0  0  0  0
  129.2140  124.6420   68.7770 H   0  0  0  0  0  0  0  0  0  0  0  0
  131.1494  127.9038   70.1304 H   0  0  0  0  0  0  0  0  0  0  0  0
  131.5856  128.1012   72.5793 H   0  0  0  0  0  0  0  0  0  0  0  0
  128.9973  127.1766   75.1854 H   0  0  0  0  0  0  0  0  0  0  0  0
  130.7487  126.9130   74.8860 H   0  0  0  0  0  0  0  0  0  0  0  0
  130.0784  128.5795   74.8860 H   0  0  0  0  0  0  0  0  0  0  0  0
  127.5778  126.7034   73.4091 H   0  0  0  0  0  0  0  0  0  0  0  0
  127.1421  126.5007   70.9620 H   0  0  0  0  0  0  0  0  0  0  0  0
  131.9144  126.3221   68.0024 H   0  0  0  0  0  0  0  0  0  0  0  0
  133.4554  125.9949   66.0762 H   0  0  0  0  0  0  0  0  0  0  0  0
  130.5231  125.7206   61.8468 H   0  0  0  0  0  0  0  0  0  0  0  0
  128.2955  124.9294   61.0665 H   0  0  0  0  0  0  0  0  0  0  0  0
  126.2519  123.7283   61.8103 H   0  0  0  0  0  0  0  0  0  0  0  0
  126.8728  124.3773   60.2547 H   0  0  0  0  0  0  0  0  0  0  0  0
  125.6294  123.0809   60.2547 H   0  0  0  0  0  0  0  0  0  0  0  0
  129.6093  120.8280   61.4513 H   0  0  0  0  0  0  0  0  0  0  0  0
  131.8430  121.6164   62.2238 H   0  0  0  0  0  0  0  0  0  0  0  0
  127.8942  129.3407   57.6618 H   0  0  0  0  0  0  0  0  0  0  0  0
  127.9274  131.6174   56.6723 H   0  0  0  0  0  0  0  0  0  0  0  0
  1  2  1  0
  2  3  1  0
  3  4  2  0
  4  5  1  0
  5  6  2  0
  6  7  1  0
  7  8  2  0
  7  9  1  0
  9 10  1  0
 10 11  1  0
 11 12  2  0
 11 13  1  0
 13 14  1  0
 14 15  1  0
 15 16  2  0
 16 17  1  0
 17 18  2  0
 18 19  1  0
 19 20  2  0
 20 21  1  0
 21 22  2  0
 22 23  1  0
 23 24  1  0
 24 25  2  0
 24 26  2  0
 24 27  1  0
 27 28  2  0
 28 29  1  0
 29 30  2  0
 30 31  1  0
 30 32  1  0
 32 33  2  0
 22 34  1  0
 34 35  2  0
 18 36  1  0
 36 37  1  0
 37 38  2  0
 38 39  1  0
 39 40  2  0
 40 41  1  0
 41 42  1  0
 40 43  1  0
 43 44  2  0
  6 45  1  0
 45 46  2  0
 46  3  1  0
 36 15  1  0
 44 37  1  0
 35 19  1  0
 33 27  1  0
  1 47  1  0
  1 48  1  0
  1 49  1  0
  4 50  1  0
  5 51  1  0
  9 52  1  0
 10 53  1  0
 13 54  1  0
 13 55  1  0
 20 56  1  0
 21 57  1  0
 23 58  1  0
 28 59  1  0
 29 60  1  0
 31 61  1  0
 31 62  1  0
 31 63  1  0
 32 64  1  0
 33 65  1  0
 34 66  1  0
 35 67  1  0
 38 68  1  0
 39 69  1  0
 42 70  1  0
 42 71  1  0
 42 72  1  0
 43 73  1  0
 44 74  1  0
 45 75  1  0
 46 76  1  0
M  END
>  <Binding energies>  (1) 
[-11.26]

>  <Ligand effiencies>  (1) 
[-0.22979591836734695]

>  <Interactions>  (1) 
["H-A:TYR:531:OH:4795, H-B:TYR:539:OH:9850, V-A:ASP:366:CB:3212, H-A:TYR:539:N:4870, V-B:TYR:539:CZ:9849, V-B:PRO:540:CB:9857, V-B:PRO:540:CA:9855, V-B:TYR:539:CE2:9848, H-B:ALA:541:N:9863, V-A:MET:535:CE:4835, V-A:ILE:369:CD1:3239, V-B:GLU:543:CG:9879, V-A:LEU:475:CD2:4259, V-A:TYR:484:CZ:4347, V-B:GLU:543:CB:9878, V-A:GLU:543:CD:4908, V-A:TYR:484:CE2:4346, H-A:ARG:545:NE:4924, V-A:ARG:545:CZ:4926, V-B:GLU:543:CD:9880, V-B:HIS:456:CE1:9041, V-A:GLY:544:C:4912, V-B:GLU:543:C:9874, V-B:LYS:547:CE:9922, V-A:HIS:456:CE1:4070, V-A:ARG:545:CG:4922, V-A:HIS:456:CD2:4068, H-A:HIS:456:NE2:4071, H-B:GLU:543:O:9875, V-A:TYR:539:CZ:4877, H-A:ARG:545:NH2:4928, V-B:GLU:543:CA:9876, H-A:GLY:454:N:4050, V-A:TYR:539:CD1:4873, V-A:TYR:539:CD2:4874, V-A:ILE:538:CA:4860, V-A:TYR:539:CG:4872, V-A:TYR:539:CE2:4876, V-A:ILE:538:C:4858, V-A:ILE:538:CB:4862, V-A:ARG:545:CD:4923, H-A:ARG:545:NH1:4927"]

$$$$
RR30_Rahimova_2017
     RDKit          3D

 29 30  0  0  0  0  0  0  0  0999 V2000
  123.8040  129.5760   76.4720 C   0  0  0  0  0  0  0  0  0  0  0  0
  124.2520  128.4150   75.5720 C   0  0  0  0  0  0  0  0  0  0  0  0
  125.7580  128.3370   75.4450 C   0  0  0  0  0  0  0  0  0  0  0  0
  126.6170  127.8300   76.2940 N   0  0  0  0  0  0  0  0  0  0  0  0
  127.8730  128.0110   75.7190 N   0  0  0  0  0  0  0  0  0  0  0  0
  127.6650  128.6190   74.5790 C   0  0  0  0  0  0  0  0  0  0  0  0
  128.8690  129.1070   73.3860 S   0  0  0  0  0  0  0  0  0  0  0  0
  129.1830  127.5030   72.5840 C   0  0  0  0  0  0  0  0  0  0  0  0
  130.1790  126.6480   73.3710 C   0  0  0  0  0  0  0  0  0  0  0  0
  129.8540  125.5110   73.7190 O   0  0  0  0  0  0  0  0  0  0  0  0
  131.3610  127.2350   73.6630 N   0  0  0  0  0  0  0  0  0  0  0  0
  132.4140  126.6660   74.3640 C   0  0  0  0  0  0  0  0  0  0  0  0
  133.5940  127.1830   74.6220 N   0  0  0  0  0  0  0  0  0  0  0  0
  134.4000  126.3190   75.3530 N   0  0  0  0  0  0  0  0  0  0  0  0
  133.8200  125.1750   75.6310 C   0  0  0  0  0  0  0  0  0  0  0  0
  134.4960  124.0720   76.4130 C   0  0  0  0  0  0  0  0  0  0  0  0
  132.1970  125.0670   75.0050 S   0  0  0  0  0  0  0  0  0  0  0  0
  126.3500  128.8520   74.3390 O   0  0  0  0  0  0  0  0  0  0  0  0
  123.9158  129.2862   77.5272 H   0  0  0  0  0  0  0  0  0  0  0  0
  124.4256  130.4600   76.2667 H   0  0  0  0  0  0  0  0  0  0  0  0
  122.7497  129.8134   76.2667 H   0  0  0  0  0  0  0  0  0  0  0  0
  123.8836  127.4717   76.0014 H   0  0  0  0  0  0  0  0  0  0  0  0
  123.8374  128.5873   74.5678 H   0  0  0  0  0  0  0  0  0  0  0  0
  128.2325  126.9553   72.5031 H   0  0  0  0  0  0  0  0  0  0  0  0
  129.6170  127.7004   71.5927 H   0  0  0  0  0  0  0  0  0  0  0  0
  131.5020  128.1850   73.3490 H   0  0  0  0  0  0  0  0  0  0  0  0
  134.3796  124.2619   77.4902 H   0  0  0  0  0  0  0  0  0  0  0  0
  134.0344  123.1064   76.1589 H   0  0  0  0  0  0  0  0  0  0  0  0
  135.5659  124.0451   76.1589 H   0  0  0  0  0  0  0  0  0  0  0  0
  1  2  1  0
  2  3  1  0
  3  4  2  0
  4  5  1  0
  5  6  2  0
  6  7  1  0
  7  8  1  0
  8  9  1  0
  9 10  2  0
  9 11  1  0
 11 12  1  0
 12 13  2  0
 13 14  1  0
 14 15  2  0
 15 16  1  0
 15 17  1  0
  6 18  1  0
 18  3  1  0
 17 12  1  0
  1 19  1  0
  1 20  1  0
  1 21  1  0
  2 22  1  0
  2 23  1  0
  8 24  1  0
  8 25  1  0
 11 26  1  0
 16 27  1  0
 16 28  1  0
 16 29  1  0
M  END
>  <Binding energies>  (1) 
[-6.54]

>  <Ligand effiencies>  (1) 
[-0.34421052631578947]

>  <Interactions>  (1) 
["V-A:GLY:544:C:4912, H-A:LYS:547:NZ:4951, V-B:HIS:456:CD2:9039, V-B:LYS:547:CE:9922, H-B:LYS:547:NZ:9923, V-A:HIS:456:CD2:4068, V-B:LYS:547:CD:9921, V-B:HIS:456:CB:9036, V-A:HIS:456:CB:4065, H-A:GLY:544:O:4913, V-A:HIS:456:CG:4066, V-B:LYS:471:CD:9190, V-B:VAL:457:CA:9046, V-B:HIS:456:C:9032, V-B:VAL:458:CG2:9058, V-B:VAL:457:C:9044, V-A:HIS:456:C:4061, V-A:VAL:458:CG2:4087, V-A:LYS:471:CD:4219, H-A:VAL:457:N:4076"]

$$$$
RR31_Rahimova_2017
     RDKit          3D

 44 45  0  0  0  0  0  0  0  0999 V2000
  133.1430  126.2920   77.4930 C   0  0  0  0  0  0  0  0  0  0  0  0
  132.3990  126.5130   76.1830 C   0  0  0  0  0  0  0  0  0  0  0  0
  131.0070  126.6150   76.2000 C   0  0  0  0  0  0  0  0  0  0  0  0
  130.2980  126.8210   75.0180 C   0  0  0  0  0  0  0  0  0  0  0  0
  130.9590  126.9380   73.7850 C   0  0  0  0  0  0  0  0  0  0  0  0
  130.2610  127.1340   72.5910 N   0  0  0  0  0  0  0  0  0  0  0  0
  130.9290  127.6070   71.3630 C   0  0  0  0  0  0  0  0  0  0  0  0
  129.9600  128.1520   70.2880 C   0  0  0  0  0  0  0  0  0  0  0  0
  128.9480  127.1510   69.9400 N   0  0  0  0  0  0  0  0  0  0  0  0
  128.0350  127.6260   68.8960 C   0  0  0  0  0  0  0  0  0  0  0  0
  128.6980  127.7040   67.5060 C   0  0  0  0  0  0  0  0  0  0  0  0
  128.1690  128.8820   66.6730 C   0  0  0  0  0  0  0  0  0  0  0  0
  126.6530  128.7520   66.4850 N   0  0  0  0  0  0  0  0  0  0  0  0
  128.1930  126.8520   71.1560 C   0  0  0  0  0  0  0  0  0  0  0  0
  129.1170  126.2660   72.2470 C   0  0  0  0  0  0  0  0  0  0  0  0
  132.3570  126.8240   73.7820 C   0  0  0  0  0  0  0  0  0  0  0  0
  133.0820  126.6160   74.9610 C   0  0  0  0  0  0  0  0  0  0  0  0
  134.5990  126.4980   74.8900 C   0  0  0  0  0  0  0  0  0  0  0  0
  132.4668  126.4928   78.3371 H   0  0  0  0  0  0  0  0  0  0  0  0
  133.4941  125.2508   77.5441 H   0  0  0  0  0  0  0  0  0  0  0  0
  134.0056  126.9727   77.5441 H   0  0  0  0  0  0  0  0  0  0  0  0
  130.4654  126.5321   77.1538 H   0  0  0  0  0  0  0  0  0  0  0  0
  129.2009  126.8932   75.0518 H   0  0  0  0  0  0  0  0  0  0  0  0
  131.6281  128.4107   71.6375 H   0  0  0  0  0  0  0  0  0  0  0  0
  131.4357  126.7362   70.9216 H   0  0  0  0  0  0  0  0  0  0  0  0
  129.4588  129.0505   70.6773 H   0  0  0  0  0  0  0  0  0  0  0  0
  130.5385  128.3955   69.3846 H   0  0  0  0  0  0  0  0  0  0  0  0
  127.1796  126.9368   68.8382 H   0  0  0  0  0  0  0  0  0  0  0  0
  127.7235  128.6448   69.1697 H   0  0  0  0  0  0  0  0  0  0  0  0
  129.7835  127.8233   67.6380 H   0  0  0  0  0  0  0  0  0  0  0  0
  128.4586  126.7758   66.9664 H   0  0  0  0  0  0  0  0  0  0  0  0
  128.3920  129.8252   67.1932 H   0  0  0  0  0  0  0  0  0  0  0  0
  128.6571  128.8753   65.6872 H   0  0  0  0  0  0  0  0  0  0  0  0
  126.2950  127.9990   67.0560 H   0  0  0  0  0  0  0  0  0  0  0  0
  126.4380  128.5560   65.5180 H   0  0  0  0  0  0  0  0  0  0  0  0
  126.1930  129.6100   66.7530 H   0  0  0  0  0  0  0  0  0  0  0  0
  127.7338  127.7782   71.5320 H   0  0  0  0  0  0  0  0  0  0  0  0
  127.4177  126.1097   70.9154 H   0  0  0  0  0  0  0  0  0  0  0  0
  128.5197  126.1035   73.1563 H   0  0  0  0  0  0  0  0  0  0  0  0
  129.5347  125.3316   71.8439 H   0  0  0  0  0  0  0  0  0  0  0  0
  132.8981  126.9001   72.8273 H   0  0  0  0  0  0  0  0  0  0  0  0
  135.0124  126.4658   75.9089 H   0  0  0  0  0  0  0  0  0  0  0  0
  134.8704  125.5760   74.3549 H   0  0  0  0  0  0  0  0  0  0  0  0
  135.0097  127.3669   74.3549 H   0  0  0  0  0  0  0  0  0  0  0  0
  1  2  1  0
  2  3  2  0
  3  4  1  0
  4  5  2  0
  5  6  1  0
  6  7  1  0
  7  8  1  0
  8  9  1  0
  9 10  1  0
 10 11  1  0
 11 12  1  0
 12 13  1  0
  9 14  1  0
 14 15  1  0
  5 16  1  0
 16 17  2  0
 17 18  1  0
 17  2  1  0
 15  6  1  0
  1 19  1  0
  1 20  1  0
  1 21  1  0
  3 22  1  0
  4 23  1  0
  7 24  1  0
  7 25  1  0
  8 26  1  0
  8 27  1  0
 10 28  1  0
 10 29  1  0
 11 30  1  0
 11 31  1  0
 12 32  1  0
 12 33  1  0
 13 34  1  0
 13 35  1  0
 13 36  1  0
 14 37  1  0
 14 38  1  0
 15 39  1  0
 15 40  1  0
 16 41  1  0
 18 42  1  0
 18 43  1  0
 18 44  1  0
M  CHG  1  13   1
M  END
>  <Binding energies>  (1) 
[-6.26]

>  <Ligand effiencies>  (1) 
[-0.2980952380952381]

>  <Interactions>  (1) 
["H-B:GLU:543:OE1:9881, V-B:GLU:543:CB:9878, V-A:GLU:543:CD:4908, V-B:GLU:543:CD:9880, V-B:HIS:456:CE1:9041, V-A:GLY:544:C:4912, V-B:GLU:543:C:9874, V-A:HIS:456:CE1:4070, V-A:GLU:543:CG:4907, V-A:GLU:543:C:4902, V-A:GLU:543:CB:4906, H-B:GLU:543:OE2:9882, H-B:TYR:484:OH:9319, V-A:HIS:456:CD2:4068, V-A:HIS:456:CB:4065, V-A:ARG:545:C:4917, V-A:HIS:456:CG:4066, V-A:HIS:456:CA:4063, V-A:LYS:547:CG:4948, V-A:HIS:456:C:4061, V-A:VAL:458:CG2:4087, V-A:VAL:457:C:4073"]

$$$$
RR32_Rahimova_2017
     RDKit          3D

 37 39  0  0  0  0  0  0  0  0999 V2000
  124.6210  123.4810   62.1480 C   0  0  0  0  0  0  0  0  0  0  0  0
  125.6910  123.5000   61.0620 C   0  0  0  0  0  0  0  0  0  0  0  0
  126.9960  123.1530   61.4140 C   0  0  0  0  0  0  0  0  0  0  0  0
  127.9980  123.1560   60.4480 C   0  0  0  0  0  0  0  0  0  0  0  0
  129.2910  122.8110   60.8020 N   0  0  0  0  0  0  0  0  0  0  0  0
  129.6450  121.3810   60.7580 C   0  0  0  0  0  0  0  0  0  0  0  0
  131.0460  121.0800   61.3410 C   0  0  0  0  0  0  0  0  0  0  0  0
  132.0670  121.8360   60.6180 N   0  0  0  0  0  0  0  0  0  0  0  0
  133.3910  121.5280   61.1470 C   0  0  0  0  0  0  0  0  0  0  0  0
  131.7750  123.2590   60.7800 C   0  0  0  0  0  0  0  0  0  0  0  0
  130.3840  123.5920   60.1920 C   0  0  0  0  0  0  0  0  0  0  0  0
  127.7650  123.4890   59.1520 N   0  0  0  0  0  0  0  0  0  0  0  0
  126.5030  123.8350   58.7780 C   0  0  0  0  0  0  0  0  0  0  0  0
  126.2890  124.1800   57.4210 C   0  0  0  0  0  0  0  0  0  0  0  0
  125.0210  124.5420   56.9820 C   0  0  0  0  0  0  0  0  0  0  0  0
  123.9490  124.5680   57.8670 C   0  0  0  0  0  0  0  0  0  0  0  0
  124.1250  124.2350   59.2070 C   0  0  0  0  0  0  0  0  0  0  0  0
  125.4080  123.8590   59.7020 C   0  0  0  0  0  0  0  0  0  0  0  0
  125.1023  123.4895   63.1371 H   0  0  0  0  0  0  0  0  0  0  0  0
  123.9784  124.3679   62.0452 H   0  0  0  0  0  0  0  0  0  0  0  0
  124.0103  122.5719   62.0452 H   0  0  0  0  0  0  0  0  0  0  0  0
  127.2322  122.8778   62.4525 H   0  0  0  0  0  0  0  0  0  0  0  0
  128.8976  120.8182   61.3365 H   0  0  0  0  0  0  0  0  0  0  0  0
  129.6609  121.0814   59.6997 H   0  0  0  0  0  0  0  0  0  0  0  0
  131.0665  121.3655   62.4031 H   0  0  0  0  0  0  0  0  0  0  0  0
  131.2546  120.0050   61.2369 H   0  0  0  0  0  0  0  0  0  0  0  0
  133.3575  121.5358   62.2465 H   0  0  0  0  0  0  0  0  0  0  0  0
  133.7035  120.5332   60.7967 H   0  0  0  0  0  0  0  0  0  0  0  0
  134.1105  122.2828   60.7967 H   0  0  0  0  0  0  0  0  0  0  0  0
  131.7865  123.5122   61.8504 H   0  0  0  0  0  0  0  0  0  0  0  0
  132.5384  123.8439   60.2461 H   0  0  0  0  0  0  0  0  0  0  0  0
  130.1826  124.6610   60.3552 H   0  0  0  0  0  0  0  0  0  0  0  0
  130.4117  123.3342   59.1230 H   0  0  0  0  0  0  0  0  0  0  0  0
  127.1297  124.1613   56.7118 H   0  0  0  0  0  0  0  0  0  0  0  0
  124.8644  124.8099   55.9267 H   0  0  0  0  0  0  0  0  0  0  0  0
  122.9509  124.8549   57.5043 H   0  0  0  0  0  0  0  0  0  0  0  0
  123.2645  124.2623   59.8917 H   0  0  0  0  0  0  0  0  0  0  0  0
  1  2  1  0
  2  3  2  0
  3  4  1  0
  4  5  1  0
  5  6  1  0
  6  7  1  0
  7  8  1  0
  8  9  1  0
  8 10  1  0
 10 11  1  0
  4 12  2  0
 12 13  1  0
 13 14  2  0
 14 15  1  0
 15 16  2  0
 16 17  1  0
 17 18  2  0
 18  2  1  0
 11  5  1  0
 18 13  1  0
  1 19  1  0
  1 20  1  0
  1 21  1  0
  3 22  1  0
  6 23  1  0
  6 24  1  0
  7 25  1  0
  7 26  1  0
  9 27  1  0
  9 28  1  0
  9 29  1  0
 10 30  1  0
 10 31  1  0
 11 32  1  0
 11 33  1  0
 14 34  1  0
 15 35  1  0
 16 36  1  0
 17 37  1  0
M  END
>  <Binding energies>  (1) 
[-5.83]

>  <Ligand effiencies>  (1) 
[-0.3238888888888889]

>  <Interactions>  (1) 
["V-B:PRO:540:CB:9857, V-B:PRO:540:CA:9855, V-B:TYR:539:CE2:9848, V-B:ASP:366:CB:8183, V-B:ASP:366:CG:8184, V-B:MET:535:CE:9807, V-B:LEU:363:CD1:8160, V-B:TYR:539:C:9839, V-B:TYR:531:CZ:9766, V-B:PRO:540:C:9853, V-B:TYR:539:CD2:9846, V-B:LEU:363:CA:8156, V-B:TYR:531:CE2:9765, V-A:ILE:369:CG2:3237, V-A:LEU:475:CD2:4259, V-B:GLU:543:CD:9880, V-B:ASN:362:CB:8147, V-B:LEU:363:CB:8158"]

$$$$
RR32_Rahimova_2017-again1
     RDKit          3D

 38 40  0  0  0  0  0  0  0  0999 V2000
  128.4740  123.7140   58.4550 C   0  0  0  0  0  0  0  0  0  0  0  0
  128.0360  123.3830   59.8740 C   0  0  0  0  0  0  0  0  0  0  0  0
  128.9750  122.9790   60.8240 C   0  0  0  0  0  0  0  0  0  0  0  0
  128.5700  122.6810   62.1300 C   0  0  0  0  0  0  0  0  0  0  0  0
  129.4920  122.2640   63.0960 N   0  0  0  0  0  0  0  0  0  0  0  0
  130.9420  122.3820   62.8440 C   0  0  0  0  0  0  0  0  0  0  0  0
  131.5000  123.7730   63.2300 C   0  0  0  0  0  0  0  0  0  0  0  0
  131.2690  123.9940   64.7370 N   0  0  0  0  0  0  0  0  0  0  0  0
  131.7930  125.3750   65.1750 C   0  0  0  0  0  0  0  0  0  0  0  0
  129.7600  123.8640   65.0310 C   0  0  0  0  0  0  0  0  0  0  0  0
  129.2810  122.4760   64.5440 C   0  0  0  0  0  0  0  0  0  0  0  0
  127.2610  122.7480   62.4980 N   0  0  0  0  0  0  0  0  0  0  0  0
  126.3230  123.1420   61.5950 C   0  0  0  0  0  0  0  0  0  0  0  0
  124.9740  123.2160   62.0170 C   0  0  0  0  0  0  0  0  0  0  0  0
  123.9820  123.6170   61.1260 C   0  0  0  0  0  0  0  0  0  0  0  0
  124.3030  123.9480   59.8140 C   0  0  0  0  0  0  0  0  0  0  0  0
  125.6210  123.8830   59.3680 C   0  0  0  0  0  0  0  0  0  0  0  0
  126.6620  123.4790   60.2490 C   0  0  0  0  0  0  0  0  0  0  0  0
  129.3512  124.3769   58.4873 H   0  0  0  0  0  0  0  0  0  0  0  0
  128.7352  122.7856   57.9259 H   0  0  0  0  0  0  0  0  0  0  0  0
  127.6522  124.2187   57.9259 H   0  0  0  0  0  0  0  0  0  0  0  0
  130.0359  122.8946   60.5457 H   0  0  0  0  0  0  0  0  0  0  0  0
  131.4660  121.6157   63.4341 H   0  0  0  0  0  0  0  0  0  0  0  0
  131.1058  122.2441   61.7650 H   0  0  0  0  0  0  0  0  0  0  0  0
  132.5770  123.8143   63.0102 H   0  0  0  0  0  0  0  0  0  0  0  0
  130.9882  124.5568   62.6523 H   0  0  0  0  0  0  0  0  0  0  0  0
  131.7580  123.2700   65.2460 H   0  0  0  0  0  0  0  0  0  0  0  0
  131.8131  125.4280   66.2735 H   0  0  0  0  0  0  0  0  0  0  0  0
  132.8097  125.5229   64.7821 H   0  0  0  0  0  0  0  0  0  0  0  0
  131.1303  126.1601   64.7821 H   0  0  0  0  0  0  0  0  0  0  0  0
  129.5835  123.9586   66.1126 H   0  0  0  0  0  0  0  0  0  0  0  0
  129.2053  124.6578   64.5092 H   0  0  0  0  0  0  0  0  0  0  0  0
  129.8344  121.7015   65.0954 H   0  0  0  0  0  0  0  0  0  0  0  0
  128.1981  122.4196   64.7291 H   0  0  0  0  0  0  0  0  0  0  0  0
  124.7084  122.9559   63.0523 H   0  0  0  0  0  0  0  0  0  0  0  0
  122.9362  123.6724   61.4625 H   0  0  0  0  0  0  0  0  0  0  0  0
  123.5086  124.2641   59.1219 H   0  0  0  0  0  0  0  0  0  0  0  0
  125.8585  124.1461   58.3267 H   0  0  0  0  0  0  0  0  0  0  0  0
  1  2  1  0
  2  3  2  0
  3  4  1  0
  4  5  1  0
  5  6  1  0
  6  7  1  0
  7  8  1  0
  8  9  1  0
  8 10  1  0
 10 11  1  0
  4 12  2  0
 12 13  1  0
 13 14  2  0
 14 15  1  0
 15 16  2  0
 16 17  1  0
 17 18  2  0
 18  2  1  0
 11  5  1  0
 18 13  1  0
  1 19  1  0
  1 20  1  0
  1 21  1  0
  3 22  1  0
  6 23  1  0
  6 24  1  0
  7 25  1  0
  7 26  1  0
  8 27  1  0
  9 28  1  0
  9 29  1  0
  9 30  1  0
 10 31  1  0
 10 32  1  0
 11 33  1  0
 11 34  1  0
 14 35  1  0
 15 36  1  0
 16 37  1  0
 17 38  1  0
M  CHG  1   8   1
M  END
>  <Binding energies>  (1) 
[-6.46]

>  <Ligand effiencies>  (1) 
[-0.34]

>  <Interactions>  (1) 
["V-B:TYR:539:CZ:9849, V-B:PRO:540:CB:9857, V-B:PRO:540:CA:9855, V-B:TYR:539:CE2:9848, V-B:ASP:366:CG:8184, V-B:PRO:540:C:9853, H-B:ALA:541:N:9863, V-B:TYR:539:CD2:9846, V-B:LEU:363:CA:8156, V-B:ALA:541:CB:9864, V-B:GLU:543:CG:9879, V-A:LEU:475:CD2:4259, V-A:TYR:484:CZ:4347, H-A:TYR:484:OH:4348, V-A:GLU:543:CD:4908, V-A:TYR:484:CE2:4346, V-A:ARG:545:CZ:4926, V-B:GLU:543:CD:9880, V-B:ASN:362:CB:8147, V-B:ASN:362:C:8143"]

$$$$
RR32_Rahimova_2017-again2
     RDKit          3D

 39 41  0  0  0  0  0  0  0  0999 V2000
  127.5950  125.2540   56.9370 C   0  0  0  0  0  0  0  0  0  0  0  0
  127.3990  125.1890   58.4460 C   0  0  0  0  0  0  0  0  0  0  0  0
  128.4300  125.5820   59.3040 C   0  0  0  0  0  0  0  0  0  0  0  0
  128.2720  125.5240   60.6950 C   0  0  0  0  0  0  0  0  0  0  0  0
  129.2970  125.9310   61.6230 N   0  0  0  0  0  0  0  0  0  0  0  0
  130.7240  125.9790   61.2090 C   0  0  0  0  0  0  0  0  0  0  0  0
  131.0530  127.3350   60.5290 C   0  0  0  0  0  0  0  0  0  0  0  0
  130.7660  128.4910   61.5170 N   0  0  0  0  0  0  0  0  0  0  0  0
  131.0270  129.8590   60.8570 C   0  0  0  0  0  0  0  0  0  0  0  0
  129.3130  128.3970   62.0410 C   0  0  0  0  0  0  0  0  0  0  0  0
  129.0780  126.9870   62.6440 C   0  0  0  0  0  0  0  0  0  0  0  0
  127.0910  125.0860   61.1780 N   0  0  0  0  0  0  0  0  0  0  0  0
  126.0220  124.6810   60.4120 C   0  0  0  0  0  0  0  0  0  0  0  0
  124.8270  124.2370   61.0220 C   0  0  0  0  0  0  0  0  0  0  0  0
  123.7640  123.8380   60.2150 C   0  0  0  0  0  0  0  0  0  0  0  0
  123.8740  123.8740   58.8270 C   0  0  0  0  0  0  0  0  0  0  0  0
  125.0480  124.3100   58.2130 C   0  0  0  0  0  0  0  0  0  0  0  0
  126.1620  124.7280   58.9940 C   0  0  0  0  0  0  0  0  0  0  0  0
  128.6175  125.5931   56.7143 H   0  0  0  0  0  0  0  0  0  0  0  0
  127.4373  124.2554   56.5034 H   0  0  0  0  0  0  0  0  0  0  0  0
  126.8718  125.9604   56.5034 H   0  0  0  0  0  0  0  0  0  0  0  0
  129.3794  125.9421   58.8810 H   0  0  0  0  0  0  0  0  0  0  0  0
  131.3618  125.8562   62.0968 H   0  0  0  0  0  0  0  0  0  0  0  0
  130.9108  125.1682   60.4895 H   0  0  0  0  0  0  0  0  0  0  0  0
  132.1147  127.3531   60.2420 H   0  0  0  0  0  0  0  0  0  0  0  0
  130.4283  127.4561   59.6317 H   0  0  0  0  0  0  0  0  0  0  0  0
  131.3860  128.3820   62.3080 H   0  0  0  0  0  0  0  0  0  0  0  0
  131.1723  130.6207   61.6372 H   0  0  0  0  0  0  0  0  0  0  0  0
  131.9297  129.7980   60.2314 H   0  0  0  0  0  0  0  0  0  0  0  0
  130.1652  130.1347   60.2314 H   0  0  0  0  0  0  0  0  0  0  0  0
  129.1515  129.1603   62.8164 H   0  0  0  0  0  0  0  0  0  0  0  0
  128.6098  128.5663   61.2123 H   0  0  0  0  0  0  0  0  0  0  0  0
  129.7770  126.8313   63.4789 H   0  0  0  0  0  0  0  0  0  0  0  0
  128.0380  126.9245   62.9970 H   0  0  0  0  0  0  0  0  0  0  0  0
  126.9820  125.0600   62.1810 H   0  0  0  0  0  0  0  0  0  0  0  0
  124.7376  124.2069   62.1179 H   0  0  0  0  0  0  0  0  0  0  0  0
  122.8286  123.4911   60.6784 H   0  0  0  0  0  0  0  0  0  0  0  0
  123.0236  123.5543   58.2068 H   0  0  0  0  0  0  0  0  0  0  0  0
  125.1135  124.3310   57.1152 H   0  0  0  0  0  0  0  0  0  0  0  0
  1  2  1  0
  2  3  2  0
  3  4  1  0
  4  5  1  0
  5  6  1  0
  6  7  1  0
  7  8  1  0
  8  9  1  0
  8 10  1  0
 10 11  1  0
  4 12  2  0
 12 13  1  0
 13 14  2  0
 14 15  1  0
 15 16  2  0
 16 17  1  0
 17 18  2  0
 18  2  1  0
 11  5  1  0
 18 13  1  0
  1 19  1  0
  1 20  1  0
  1 21  1  0
  3 22  1  0
  6 23  1  0
  6 24  1  0
  7 25  1  0
  7 26  1  0
  8 27  1  0
  9 28  1  0
  9 29  1  0
  9 30  1  0
 10 31  1  0
 10 32  1  0
 11 33  1  0
 11 34  1  0
 12 35  1  0
 14 36  1  0
 15 37  1  0
 16 38  1  0
 17 39  1  0
M  CHG  2   8   1  12   1
M  END
>  <Binding energies>  (1) 
[-6.72]

>  <Ligand effiencies>  (1) 
[-0.33599999999999997]

>  <Interactions>  (1) 
["V-A:ASP:366:CG:3213, H-A:ASP:366:OD2:3215, V-B:PRO:540:CB:9857, V-B:ASP:366:CG:8184, V-B:LEU:363:CD1:8160, H-B:GLU:543:OE1:9881, V-B:LEU:363:CA:8156, V-A:GLU:543:CD:4908, V-B:GLU:543:CD:9880, H-A:GLU:543:OE1:4909, H-A:GLU:543:OE2:4910, V-B:ASN:362:CB:8147, V-B:ASN:362:C:8143, V-B:LEU:363:CB:8158"]

$$$$
RR33_Rahimova_2017
     RDKit          3D

 36 37  0  0  0  0  0  0  0  0999 V2000
  136.5040  123.4470   76.5470 C   0  0  0  0  0  0  0  0  0  0  0  0
  135.1350  122.7610   76.5080 C   0  0  0  0  0  0  0  0  0  0  0  0
  134.1830  123.6020   77.1550 O   0  0  0  0  0  0  0  0  0  0  0  0
  133.2410  124.2690   76.3950 C   0  0  0  0  0  0  0  0  0  0  0  0
  133.6950  125.3680   75.6680 C   0  0  0  0  0  0  0  0  0  0  0  0
  132.8180  126.1050   74.8760 C   0  0  0  0  0  0  0  0  0  0  0  0
  131.4680  125.7500   74.8000 C   0  0  0  0  0  0  0  0  0  0  0  0
  130.5260  126.5410   73.9510 C   0  0  0  0  0  0  0  0  0  0  0  0
  130.5710  127.8290   73.6890 N   0  0  0  0  0  0  0  0  0  0  0  0
  129.5350  128.0610   72.8980 C   0  0  0  0  0  0  0  0  0  0  0  0
  129.2570  129.4510   72.3680 C   0  0  0  0  0  0  0  0  0  0  0  0
  129.9580  130.4520   73.1590 N   0  0  0  0  0  0  0  0  0  0  0  0
  129.0140  131.2890   73.8800 C   0  0  0  0  0  0  0  0  0  0  0  0
  128.8430  126.8770   72.6760 C   0  0  0  0  0  0  0  0  0  0  0  0
  127.6180  126.4810   71.8880 C   0  0  0  0  0  0  0  0  0  0  0  0
  129.4850  125.9010   73.3580 O   0  0  0  0  0  0  0  0  0  0  0  0
  131.0090  124.6450   75.5250 C   0  0  0  0  0  0  0  0  0  0  0  0
  131.8870  123.9090   76.3180 C   0  0  0  0  0  0  0  0  0  0  0  0
  136.8081  123.5994   77.5931 H   0  0  0  0  0  0  0  0  0  0  0  0
  137.2459  122.8142   76.0380 H   0  0  0  0  0  0  0  0  0  0  0  0
  136.4411  124.4201   76.0380 H   0  0  0  0  0  0  0  0  0  0  0  0
  134.8333  122.5962   75.4631 H   0  0  0  0  0  0  0  0  0  0  0  0
  135.1878  121.7902   77.0225 H   0  0  0  0  0  0  0  0  0  0  0  0
  134.7554  125.6558   75.7202 H   0  0  0  0  0  0  0  0  0  0  0  0
  133.1893  126.9705   74.3076 H   0  0  0  0  0  0  0  0  0  0  0  0
  129.5959  129.5138   71.3234 H   0  0  0  0  0  0  0  0  0  0  0  0
  128.1759  129.6440   72.4303 H   0  0  0  0  0  0  0  0  0  0  0  0
  130.5100  131.0350   72.5440 H   0  0  0  0  0  0  0  0  0  0  0  0
  129.1608  131.1588   74.9624 H   0  0  0  0  0  0  0  0  0  0  0  0
  129.1791  132.3429   73.6117 H   0  0  0  0  0  0  0  0  0  0  0  0
  127.9874  130.9989   73.6117 H   0  0  0  0  0  0  0  0  0  0  0  0
  126.8053  126.2183   72.5811 H   0  0  0  0  0  0  0  0  0  0  0  0
  127.3017  127.3227   71.2543 H   0  0  0  0  0  0  0  0  0  0  0  0
  127.8543  125.6135   71.2543 H   0  0  0  0  0  0  0  0  0  0  0  0
  129.9492  124.3557   75.4687 H   0  0  0  0  0  0  0  0  0  0  0  0
  131.5173  123.0425   76.8858 H   0  0  0  0  0  0  0  0  0  0  0  0
  1  2  1  0
  2  3  1  0
  3  4  1  0
  4  5  2  0
  5  6  1  0
  6  7  2  0
  7  8  1  0
  8  9  2  0
  9 10  1  0
 10 11  1  0
 11 12  1  0
 12 13  1  0
 10 14  2  0
 14 15  1  0
 14 16  1  0
  7 17  1  0
 17 18  2  0
 18  4  1  0
 16  8  1  0
  1 19  1  0
  1 20  1  0
  1 21  1  0
  2 22  1  0
  2 23  1  0
  5 24  1  0
  6 25  1  0
 11 26  1  0
 11 27  1  0
 12 28  1  0
 13 29  1  0
 13 30  1  0
 13 31  1  0
 15 32  1  0
 15 33  1  0
 15 34  1  0
 17 35  1  0
 18 36  1  0
M  END
>  <Binding energies>  (1) 
[-5.25]

>  <Ligand effiencies>  (1) 
[-0.27631578947368424]

>  <Interactions>  (1) 
["H-A:LYS:547:NZ:4951, V-B:GLY:544:C:9884, V-B:GLU:543:C:9874, V-B:HIS:456:CD2:9039, V-B:LYS:547:CE:9922, V-A:GLU:543:C:4902, V-B:GLY:544:CA:9886, H-B:LYS:547:NZ:9923, V-A:HIS:456:CD2:4068, V-A:HIS:456:CB:4065, H-A:GLU:543:O:4903, H-A:GLY:544:O:4913, V-A:HIS:456:CG:4066, V-A:HIS:456:C:4061, V-A:VAL:458:CG2:4087, V-A:VAL:457:C:4073, V-A:VAL:457:CA:4075, H-A:LYS:471:NZ:4221, V-A:LYS:547:CE:4950, V-A:ASP:473:CG:4240, V-A:LYS:471:CG:4218, V-A:LYS:471:CD:4219, V-A:LYS:471:C:4213, V-A:LYS:471:CB:4217, V-A:LYS:471:CA:4215, V-A:LEU:472:CA:4228, V-A:VAL:458:CB:4085"]

$$$$
RR33_Rahimova_2017-again1
     RDKit          3D

 37 38  0  0  0  0  0  0  0  0999 V2000
  131.1390  126.5590   74.1890 C   0  0  0  0  0  0  0  0  0  0  0  0
  129.9040  127.4390   73.9740 C   0  0  0  0  0  0  0  0  0  0  0  0
  128.9830  126.7400   73.1420 O   0  0  0  0  0  0  0  0  0  0  0  0
  128.9610  127.0020   71.7850 C   0  0  0  0  0  0  0  0  0  0  0  0
  127.7910  126.6640   71.1050 C   0  0  0  0  0  0  0  0  0  0  0  0
  127.6760  126.8900   69.7360 C   0  0  0  0  0  0  0  0  0  0  0  0
  128.7360  127.4600   69.0240 C   0  0  0  0  0  0  0  0  0  0  0  0
  128.6160  127.7060   67.5540 C   0  0  0  0  0  0  0  0  0  0  0  0
  129.1020  126.9740   66.5760 N   0  0  0  0  0  0  0  0  0  0  0  0
  128.7370  127.5890   65.4610 C   0  0  0  0  0  0  0  0  0  0  0  0
  129.1270  127.0440   64.1010 C   0  0  0  0  0  0  0  0  0  0  0  0
  130.6030  126.6140   64.1350 N   0  0  0  0  0  0  0  0  0  0  0  0
  130.8470  125.2080   63.5680 C   0  0  0  0  0  0  0  0  0  0  0  0
  128.0150  128.7330   65.7780 C   0  0  0  0  0  0  0  0  0  0  0  0
  127.3470  129.8340   64.9920 C   0  0  0  0  0  0  0  0  0  0  0  0
  127.9380  128.8010   67.1280 O   0  0  0  0  0  0  0  0  0  0  0  0
  129.9110  127.8000   69.7030 C   0  0  0  0  0  0  0  0  0  0  0  0
  130.0250  127.5740   71.0720 C   0  0  0  0  0  0  0  0  0  0  0  0
  131.3161  126.4328   75.2673 H   0  0  0  0  0  0  0  0  0  0  0  0
  130.9727  125.5746   73.7271 H   0  0  0  0  0  0  0  0  0  0  0  0
  132.0151  127.0375   73.7271 H   0  0  0  0  0  0  0  0  0  0  0  0
  129.4333  127.6591   74.9435 H   0  0  0  0  0  0  0  0  0  0  0  0
  130.1972  128.3850   73.4954 H   0  0  0  0  0  0  0  0  0  0  0  0
  126.9513  126.2147   71.6555 H   0  0  0  0  0  0  0  0  0  0  0  0
  126.7474  126.6190   69.2123 H   0  0  0  0  0  0  0  0  0  0  0  0
  128.4962  126.1764   63.8573 H   0  0  0  0  0  0  0  0  0  0  0  0
  128.9853  127.8215   63.3359 H   0  0  0  0  0  0  0  0  0  0  0  0
  131.1500  127.2800   63.6090 H   0  0  0  0  0  0  0  0  0  0  0  0
  130.9230  126.6380   65.0940 H   0  0  0  0  0  0  0  0  0  0  0  0
  130.9707  124.4950   64.3964 H   0  0  0  0  0  0  0  0  0  0  0  0
  129.9876  124.9073   62.9507 H   0  0  0  0  0  0  0  0  0  0  0  0
  131.7574  125.2145   62.9507 H   0  0  0  0  0  0  0  0  0  0  0  0
  126.9044  130.5635   65.6862 H   0  0  0  0  0  0  0  0  0  0  0  0
  128.0927  130.3365   64.3584 H   0  0  0  0  0  0  0  0  0  0  0  0
  126.5569  129.4047   64.3584 H   0  0  0  0  0  0  0  0  0  0  0  0
  130.7503  128.2489   69.1516 H   0  0  0  0  0  0  0  0  0  0  0  0
  130.9531  127.8450   71.5966 H   0  0  0  0  0  0  0  0  0  0  0  0
  1  2  1  0
  2  3  1  0
  3  4  1  0
  4  5  2  0
  5  6  1  0
  6  7  2  0
  7  8  1  0
  8  9  2  0
  9 10  1  0
 10 11  1  0
 11 12  1  0
 12 13  1  0
 10 14  2  0
 14 15  1  0
 14 16  1  0
  7 17  1  0
 17 18  2  0
 18  4  1  0
 16  8  1  0
  1 19  1  0
  1 20  1  0
  1 21  1  0
  2 22  1  0
  2 23  1  0
  5 24  1  0
  6 25  1  0
 11 26  1  0
 11 27  1  0
 12 28  1  0
 12 29  1  0
 13 30  1  0
 13 31  1  0
 13 32  1  0
 15 33  1  0
 15 34  1  0
 15 35  1  0
 17 36  1  0
 18 37  1  0
M  CHG  1  12   1
M  END
>  <Binding energies>  (1) 
[-6.04]

>  <Ligand effiencies>  (1) 
[-0.302]

>  <Interactions>  (1) 
["V-B:GLU:543:CG:9879, V-B:GLU:543:CB:9878, V-A:GLU:543:CD:4908, V-B:GLU:543:CD:9880, V-B:HIS:456:CE1:9041, V-B:GLY:544:C:9884, V-B:GLU:543:C:9874, V-A:HIS:456:CE1:4070, V-A:GLU:543:CG:4907, V-A:GLU:543:CB:4906, V-B:GLY:544:CA:9886, H-B:LYS:547:NZ:9923, H-A:GLU:543:OE1:4909, H-A:GLU:543:OE2:4910, V-A:HIS:456:CD2:4068"]

$$$$
RR3_Rahimova_2017
     RDKit          3D

 63 69  0  0  0  0  0  0  0  0999 V2000
  131.0840  121.3580   61.0160 C   0  0  0  0  0  0  0  0  0  0  0  0
  132.0810  122.1800   61.5310 C   0  0  0  0  0  0  0  0  0  0  0  0
  131.7860  123.0490   62.5780 C   0  0  0  0  0  0  0  0  0  0  0  0
  130.4940  123.1070   63.1230 C   0  0  0  0  0  0  0  0  0  0  0  0
  130.1790  124.0410   64.2490 C   0  0  0  0  0  0  0  0  0  0  0  0
  129.8850  125.3900   64.0060 C   0  0  0  0  0  0  0  0  0  0  0  0
  129.5950  126.2590   65.0540 C   0  0  0  0  0  0  0  0  0  0  0  0
  129.6000  125.7990   66.3740 C   0  0  0  0  0  0  0  0  0  0  0  0
  129.2940  126.7300   67.5060 C   0  0  0  0  0  0  0  0  0  0  0  0
  129.8190  126.5100   68.7070 N   0  0  0  0  0  0  0  0  0  0  0  0
  129.4200  127.4950   69.4750 C   0  0  0  0  0  0  0  0  0  0  0  0
  129.7640  127.6530   70.8860 C   0  0  0  0  0  0  0  0  0  0  0  0
  131.0450  127.7470   71.4020 C   0  0  0  0  0  0  0  0  0  0  0  0
  130.9970  127.8970   72.7630 N   0  0  0  0  0  0  0  0  0  0  0  0
  129.6870  127.9060   73.1880 C   0  0  0  0  0  0  0  0  0  0  0  0
  129.1430  128.0320   74.4710 C   0  0  0  0  0  0  0  0  0  0  0  0
  127.7530  128.0020   74.5750 C   0  0  0  0  0  0  0  0  0  0  0  0
  126.9370  127.8510   73.4590 C   0  0  0  0  0  0  0  0  0  0  0  0
  127.4780  127.7260   72.1810 C   0  0  0  0  0  0  0  0  0  0  0  0
  128.8750  127.7500   72.0200 C   0  0  0  0  0  0  0  0  0  0  0  0
  128.6240  128.3650   68.7820 N   0  0  0  0  0  0  0  0  0  0  0  0
  128.5000  127.8890   67.5030 C   0  0  0  0  0  0  0  0  0  0  0  0
  127.6490  128.5520   66.4700 C   0  0  0  0  0  0  0  0  0  0  0  0
  128.1800  128.8590   65.2160 C   0  0  0  0  0  0  0  0  0  0  0  0
  127.3940  129.4880   64.2560 C   0  0  0  0  0  0  0  0  0  0  0  0
  126.0580  129.8220   64.5240 C   0  0  0  0  0  0  0  0  0  0  0  0
  125.2220  130.5170   63.4960 C   0  0  0  0  0  0  0  0  0  0  0  0
  124.9350  129.9030   62.2670 C   0  0  0  0  0  0  0  0  0  0  0  0
  124.1530  130.5480   61.3120 C   0  0  0  0  0  0  0  0  0  0  0  0
  123.6480  131.8170   61.5770 C   0  0  0  0  0  0  0  0  0  0  0  0
  123.9180  132.4430   62.7890 C   0  0  0  0  0  0  0  0  0  0  0  0
  124.7020  131.7970   63.7410 C   0  0  0  0  0  0  0  0  0  0  0  0
  125.5320  129.4930   65.7810 C   0  0  0  0  0  0  0  0  0  0  0  0
  126.3150  128.8630   66.7440 C   0  0  0  0  0  0  0  0  0  0  0  0
  129.8780  124.4540   66.6250 C   0  0  0  0  0  0  0  0  0  0  0  0
  130.1680  123.5880   65.5750 C   0  0  0  0  0  0  0  0  0  0  0  0
  129.5050  122.2700   62.5870 C   0  0  0  0  0  0  0  0  0  0  0  0
  129.7960  121.3990   61.5400 C   0  0  0  0  0  0  0  0  0  0  0  0
  131.3156  120.6709   60.1888 H   0  0  0  0  0  0  0  0  0  0  0  0
  133.0978  122.1436   61.1130 H   0  0  0  0  0  0  0  0  0  0  0  0
  132.5758  123.6985   62.9833 H   0  0  0  0  0  0  0  0  0  0  0  0
  129.8835  125.7671   62.9726 H   0  0  0  0  0  0  0  0  0  0  0  0
  129.3608  127.3127   64.8424 H   0  0  0  0  0  0  0  0  0  0  0  0
  131.9683  127.7070   70.8054 H   0  0  0  0  0  0  0  0  0  0  0  0
  131.8290  127.9860   73.3290 H   0  0  0  0  0  0  0  0  0  0  0  0
  129.7833  128.1494   75.3577 H   0  0  0  0  0  0  0  0  0  0  0  0
  127.2888  128.1005   75.5674 H   0  0  0  0  0  0  0  0  0  0  0  0
  125.8447  127.8299   73.5875 H   0  0  0  0  0  0  0  0  0  0  0  0
  126.8196  127.6098   71.3075 H   0  0  0  0  0  0  0  0  0  0  0  0
  128.1830  129.1940   69.1540 H   0  0  0  0  0  0  0  0  0  0  0  0
  129.2246  128.6024   64.9860 H   0  0  0  0  0  0  0  0  0  0  0  0
  127.8260  129.7269   63.2730 H   0  0  0  0  0  0  0  0  0  0  0  0
  125.3328  128.8995   62.0554 H   0  0  0  0  0  0  0  0  0  0  0  0
  123.9356  130.0563   60.3524 H   0  0  0  0  0  0  0  0  0  0  0  0
  123.0313  132.3283   60.8231 H   0  0  0  0  0  0  0  0  0  0  0  0
  123.5136  133.4450   62.9948 H   0  0  0  0  0  0  0  0  0  0  0  0
  124.9165  132.2964   64.6974 H   0  0  0  0  0  0  0  0  0  0  0  0
  124.4840  129.7365   66.0099 H   0  0  0  0  0  0  0  0  0  0  0  0
  125.8824  128.6094   67.7230 H   0  0  0  0  0  0  0  0  0  0  0  0
  129.8677  124.0768   67.6583 H   0  0  0  0  0  0  0  0  0  0  0  0
  130.3919  122.5325   65.7890 H   0  0  0  0  0  0  0  0  0  0  0  0
  128.4856  122.3017   62.9990 H   0  0  0  0  0  0  0  0  0  0  0  0
  129.0112  120.7467   61.1294 H   0  0  0  0  0  0  0  0  0  0  0  0
  1  2  2  0
  2  3  1  0
  3  4  2  0
  4  5  1  0
  5  6  2  0
  6  7  1  0
  7  8  2  0
  8  9  1  0
  9 10  1  0
 10 11  2  0
 11 12  1  0
 12 13  2  0
 13 14  1  0
 14 15  1  0
 15 16  2  0
 16 17  1  0
 17 18  2  0
 18 19  1  0
 19 20  2  0
 11 21  1  0
 21 22  1  0
 22 23  1  0
 23 24  2  0
 24 25  1  0
 25 26  2  0
 26 27  1  0
 27 28  2  0
 28 29  1  0
 29 30  2  0
 30 31  1  0
 31 32  2  0
 26 33  1  0
 33 34  2  0
  8 35  1  0
 35 36  2  0
  4 37  1  0
 37 38  2  0
 38  1  1  0
 36  5  1  0
 22  9  2  0
 34 23  1  0
 20 12  1  0
 32 27  1  0
 20 15  1  0
  1 39  1  0
  2 40  1  0
  3 41  1  0
  6 42  1  0
  7 43  1  0
 13 44  1  0
 14 45  1  0
 16 46  1  0
 17 47  1  0
 18 48  1  0
 19 49  1  0
 21 50  1  0
 24 51  1  0
 25 52  1  0
 28 53  1  0
 29 54  1  0
 30 55  1  0
 31 56  1  0
 32 57  1  0
 33 58  1  0
 34 59  1  0
 35 60  1  0
 36 61  1  0
 37 62  1  0
 38 63  1  0
M  END
>  <Binding energies>  (1) 
[-9.71]

>  <Ligand effiencies>  (1) 
[-0.24275000000000002]

>  <Interactions>  (1) 
["V-B:TYR:539:CE2:9848, V-B:ASP:366:CG:8184, V-B:TYR:539:CD2:9846, V-B:ALA:541:CB:9864, V-B:GLU:543:CG:9879, V-A:LEU:475:CD2:4259, V-A:TYR:484:CZ:4347, V-B:GLU:543:CB:9878, V-A:GLU:543:CD:4908, V-A:TYR:484:CE2:4346, V-B:GLU:543:CD:9880, V-B:HIS:456:CE1:9041, V-A:GLY:544:C:4912, V-B:HIS:456:CD2:9039, V-B:LYS:547:CE:9922, V-A:HIS:456:CE1:4070, V-A:GLU:543:CG:4907, V-A:GLU:543:CB:4906, V-B:HIS:456:CG:9037, V-B:TYR:484:CZ:9318, V-A:HIS:456:CD2:4068, V-B:HIS:456:CB:9036, H-B:HIS:456:NE2:9042, H-A:GLU:543:O:4903, H-A:GLY:544:O:4913, V-B:ILE:369:CG2:8208, V-B:GLU:543:CA:9876, V-B:GLY:454:CA:9020"]

$$$$
RR4_Rahimova_2017
     RDKit          3D

 66 70  0  0  0  0  0  0  0  0999 V2000
  127.7990  128.3710   74.1630 C   0  0  0  0  0  0  0  0  0  0  0  0
  128.5470  127.3100   73.5800 O   0  0  0  0  0  0  0  0  0  0  0  0
  128.7310  127.2870   72.2110 C   0  0  0  0  0  0  0  0  0  0  0  0
  127.6330  126.9140   71.4390 C   0  0  0  0  0  0  0  0  0  0  0  0
  127.7250  126.8650   70.0510 C   0  0  0  0  0  0  0  0  0  0  0  0
  128.9220  127.1850   69.3930 C   0  0  0  0  0  0  0  0  0  0  0  0
  129.0180  127.1290   67.8960 C   0  0  0  0  0  0  0  0  0  0  0  0
  129.8260  126.2070   67.2220 C   0  0  0  0  0  0  0  0  0  0  0  0
  129.8780  126.1930   65.8220 C   0  0  0  0  0  0  0  0  0  0  0  0
  130.7420  125.1610   65.1720 C   0  0  0  0  0  0  0  0  0  0  0  0
  132.1020  125.4110   64.9690 C   0  0  0  0  0  0  0  0  0  0  0  0
  132.9170  124.4510   64.3740 C   0  0  0  0  0  0  0  0  0  0  0  0
  132.3890  123.2220   63.9780 C   0  0  0  0  0  0  0  0  0  0  0  0
  133.2720  122.3310   63.3980 O   0  0  0  0  0  0  0  0  0  0  0  0
  133.9910  122.7250   62.2330 C   0  0  0  0  0  0  0  0  0  0  0  0
  131.0260  122.9650   64.1840 C   0  0  0  0  0  0  0  0  0  0  0  0
  130.2140  123.9270   64.7800 C   0  0  0  0  0  0  0  0  0  0  0  0
  129.1180  127.1510   65.1080 C   0  0  0  0  0  0  0  0  0  0  0  0
  129.1350  127.1790   63.6430 C   0  0  0  0  0  0  0  0  0  0  0  0
  129.1500  127.2020   62.4860 N   0  0  0  0  0  0  0  0  0  0  0  0
  128.3460  128.0720   65.8530 C   0  0  0  0  0  0  0  0  0  0  0  0
  127.3420  129.3490   65.1260 S   0  0  0  0  0  0  0  0  0  0  0  0
  128.4270  130.7680   64.7560 C   0  0  0  0  0  0  0  0  0  0  0  0
  128.3630  131.2570   63.3030 C   0  0  0  0  0  0  0  0  0  0  0  0
  127.3330  131.7730   62.8610 O   0  0  0  0  0  0  0  0  0  0  0  0
  129.4950  131.0600   62.5890 N   0  0  0  0  0  0  0  0  0  0  0  0
  129.7500  131.3940   61.2560 C   0  0  0  0  0  0  0  0  0  0  0  0
  128.4860  131.7080   60.0980 S   0  0  0  0  0  0  0  0  0  0  0  0
  129.6400  132.0020   58.8340 C   0  0  0  0  0  0  0  0  0  0  0  0
  130.9580  131.8580   59.2940 C   0  0  0  0  0  0  0  0  0  0  0  0
  131.0180  131.5290   60.6700 C   0  0  0  0  0  0  0  0  0  0  0  0
  132.2700  131.3420   61.3980 C   0  0  0  0  0  0  0  0  0  0  0  0
  133.2630  131.1930   61.9740 N   0  0  0  0  0  0  0  0  0  0  0  0
  132.1600  132.1040   58.3760 C   0  0  0  0  0  0  0  0  0  0  0  0
  131.7300  132.8790   57.1100 C   0  0  0  0  0  0  0  0  0  0  0  0
  130.4470  132.3030   56.4850 C   0  0  0  0  0  0  0  0  0  0  0  0
  129.2340  132.4320   57.4300 C   0  0  0  0  0  0  0  0  0  0  0  0
  128.2890  128.0430   67.2060 N   0  0  0  0  0  0  0  0  0  0  0  0
  130.0210  127.5630   70.1800 C   0  0  0  0  0  0  0  0  0  0  0  0
  129.9330  127.6140   71.5680 C   0  0  0  0  0  0  0  0  0  0  0  0
  127.8511  128.2971   75.2593 H   0  0  0  0  0  0  0  0  0  0  0  0
  128.2179  129.3355   73.8402 H   0  0  0  0  0  0  0  0  0  0  0  0
  126.7498  128.3005   73.8402 H   0  0  0  0  0  0  0  0  0  0  0  0
  126.6838  126.6556   71.9312 H   0  0  0  0  0  0  0  0  0  0  0  0
  126.8449  126.5706   69.4604 H   0  0  0  0  0  0  0  0  0  0  0  0
  130.4262  125.4862   67.7967 H   0  0  0  0  0  0  0  0  0  0  0  0
  132.5323  126.3739   65.2817 H   0  0  0  0  0  0  0  0  0  0  0  0
  133.9846  124.6634   64.2152 H   0  0  0  0  0  0  0  0  0  0  0  0
  134.9198  123.2340   62.5300 H   0  0  0  0  0  0  0  0  0  0  0  0
  134.2358  121.8350   61.6347 H   0  0  0  0  0  0  0  0  0  0  0  0
  133.3726  123.4103   61.6347 H   0  0  0  0  0  0  0  0  0  0  0  0
  130.5968  122.0008   63.8740 H   0  0  0  0  0  0  0  0  0  0  0  0
  129.1473  123.7140   64.9439 H   0  0  0  0  0  0  0  0  0  0  0  0
  128.1374  131.6020   65.4121 H   0  0  0  0  0  0  0  0  0  0  0  0
  129.4584  130.4252   64.9252 H   0  0  0  0  0  0  0  0  0  0  0  0
  130.2660  130.6260   63.0740 H   0  0  0  0  0  0  0  0  0  0  0  0
  132.9154  132.6905   58.9194 H   0  0  0  0  0  0  0  0  0  0  0  0
  132.5776  131.1329   58.0717 H   0  0  0  0  0  0  0  0  0  0  0  0
  131.5512  133.9299   57.3814 H   0  0  0  0  0  0  0  0  0  0  0  0
  132.5373  132.7895   56.3682 H   0  0  0  0  0  0  0  0  0  0  0  0
  130.2308  132.8469   55.5537 H   0  0  0  0  0  0  0  0  0  0  0  0
  130.6144  131.2331   56.2919 H   0  0  0  0  0  0  0  0  0  0  0  0
  128.8938  133.4779   57.4502 H   0  0  0  0  0  0  0  0  0  0  0  0
  128.4171  131.7892   57.0701 H   0  0  0  0  0  0  0  0  0  0  0  0
  130.9706  127.8241   69.6900 H   0  0  0  0  0  0  0  0  0  0  0  0
  130.8094  127.9118   72.1624 H   0  0  0  0  0  0  0  0  0  0  0  0
  1  2  1  0
  2  3  1  0
  3  4  2  0
  4  5  1  0
  5  6  2  0
  6  7  1  0
  7  8  2  0
  8  9  1  0
  9 10  1  0
 10 11  2  0
 11 12  1  0
 12 13  2  0
 13 14  1  0
 14 15  1  0
 13 16  1  0
 16 17  2  0
  9 18  2  0
 18 19  1  0
 19 20  3  0
 18 21  1  0
 21 22  1  0
 22 23  1  0
 23 24  1  0
 24 25  2  0
 24 26  1  0
 26 27  1  0
 27 28  1  0
 28 29  1  0
 29 30  2  0
 30 31  1  0
 31 32  1  0
 32 33  3  0
 30 34  1  0
 34 35  1  0
 35 36  1  0
 36 37  1  0
 21 38  2  0
  6 39  1  0
 39 40  2  0
 40  3  1  0
 38  7  1  0
 17 10  1  0
 31 27  2  0
 37 29  1  0
  1 41  1  0
  1 42  1  0
  1 43  1  0
  4 44  1  0
  5 45  1  0
  8 46  1  0
 11 47  1  0
 12 48  1  0
 15 49  1  0
 15 50  1  0
 15 51  1  0
 16 52  1  0
 17 53  1  0
 23 54  1  0
 23 55  1  0
 26 56  1  0
 34 57  1  0
 34 58  1  0
 35 59  1  0
 35 60  1  0
 36 61  1  0
 36 62  1  0
 37 63  1  0
 37 64  1  0
 39 65  1  0
 40 66  1  0
M  END
>  <Binding energies>  (1) 
[-10.99]

>  <Ligand effiencies>  (1) 
[-0.2680487804878049]

>  <Interactions>  (1) 
["V-A:LEU:363:CD1:3189, V-A:PRO:540:CA:4883, V-A:PRO:540:CB:4885, V-A:PRO:540:CD:4887, V-A:PRO:540:CG:4886, V-A:PRO:540:N:4884, V-A:MET:535:CE:4835, V-A:ILE:369:CD1:3239, V-B:GLU:543:CG:9879, V-A:LEU:475:CD2:4259, V-B:GLU:543:CB:9878, H-A:TYR:484:OH:4348, V-A:GLU:543:CD:4908, V-A:TYR:484:CE2:4346, V-A:GLY:454:CA:4049, V-A:ARG:545:CZ:4926, V-B:GLU:543:CD:9880, V-B:HIS:456:CE1:9041, V-B:GLY:544:C:9884, V-B:GLU:543:C:9874, V-B:HIS:456:CD2:9039, V-A:HIS:456:CE1:4070, V-A:GLU:543:CG:4907, V-B:GLY:544:CA:9886, H-B:LYS:547:NZ:9923, H-A:GLU:543:OE1:4909, H-B:TYR:484:OH:9319, H-A:ARG:545:NH2:4928, H-A:GLY:454:N:4050, V-A:ILE:538:CB:4862"]

$$$$
RR5_Rahimova_2017
     RDKit          3D

 77 82  0  0  0  0  0  0  0  0999 V2000
  126.9470  127.2140   59.0520 O   0  0  0  0  0  0  0  0  0  0  0  0
  126.9570  126.7550   60.1930 C   0  0  0  0  0  0  0  0  0  0  0  0
  126.3520  127.5730   61.3500 C   0  0  0  0  0  0  0  0  0  0  0  0
  127.3900  128.4800   62.1020 C   0  0  2  0  0  0  0  0  0  0  0  0
  127.6070  129.8110   61.5000 N   0  0  0  0  0  0  0  0  0  0  0  0
  126.5610  130.5380   60.9470 C   0  0  0  0  0  0  0  0  0  0  0  0
  125.3710  130.2160   60.9260 O   0  0  0  0  0  0  0  0  0  0  0  0
  127.0640  131.6660   60.4150 O   0  0  0  0  0  0  0  0  0  0  0  0
  127.6670  131.6730   59.1240 C   0  0  0  0  0  0  0  0  0  0  0  0
  128.9320  132.5600   59.1140 C   0  0  0  0  0  0  0  0  0  0  0  0
  129.9470  132.1850   60.1790 C   0  0  0  0  0  0  0  0  0  0  0  0
  129.7980  132.1240   61.5680 C   0  0  0  0  0  0  0  0  0  0  0  0
  130.8730  131.7270   62.3650 C   0  0  0  0  0  0  0  0  0  0  0  0
  132.0950  131.3940   61.7800 C   0  0  0  0  0  0  0  0  0  0  0  0
  132.2480  131.4580   60.3930 C   0  0  0  0  0  0  0  0  0  0  0  0
  131.1710  131.8550   59.5980 C   0  0  0  0  0  0  0  0  0  0  0  0
  131.0530  132.0170   58.1400 C   0  0  0  0  0  0  0  0  0  0  0  0
  131.9840  131.8300   57.1160 C   0  0  0  0  0  0  0  0  0  0  0  0
  131.6150  132.0790   55.7930 C   0  0  0  0  0  0  0  0  0  0  0  0
  130.3200  132.5110   55.4960 C   0  0  0  0  0  0  0  0  0  0  0  0
  129.3930  132.6930   56.5220 C   0  0  0  0  0  0  0  0  0  0  0  0
  129.7570  132.4420   57.8470 C   0  0  0  0  0  0  0  0  0  0  0  0
  128.7480  127.7500   62.2560 C   0  0  0  0  0  0  0  0  0  0  0  0
  128.8780  126.6060   62.6420 O   0  0  0  0  0  0  0  0  0  0  0  0
  129.7610  128.5810   61.8730 O   0  0  0  0  0  0  0  0  0  0  0  0
  127.4410  125.5390   60.5320 N   0  0  0  0  0  0  0  0  0  0  0  0
  128.0930  124.4410   59.7570 C   0  0  0  0  0  0  0  0  0  0  0  0
  129.2560  125.1980   59.0330 C   0  0  0  0  0  0  0  0  0  0  0  0
  129.1650  125.5580   57.6780 C   0  0  0  0  0  0  0  0  0  0  0  0
  130.2050  126.2330   57.0440 C   0  0  0  0  0  0  0  0  0  0  0  0
  131.3590  126.5500   57.7520 C   0  0  0  0  0  0  0  0  0  0  0  0
  131.4760  126.2080   59.0940 C   0  0  0  0  0  0  0  0  0  0  0  0
  130.4320  125.5430   59.7290 C   0  0  0  0  0  0  0  0  0  0  0  0
  128.6140  123.3860   60.7910 C   0  0  0  0  0  0  0  0  0  0  0  0
  129.2280  122.1920   60.3810 C   0  0  0  0  0  0  0  0  0  0  0  0
  129.6670  121.2590   61.3180 C   0  0  0  0  0  0  0  0  0  0  0  0
  129.4940  121.5070   62.6750 C   0  0  0  0  0  0  0  0  0  0  0  0
  128.8910  122.6840   63.1060 C   0  0  0  0  0  0  0  0  0  0  0  0
  128.4620  123.6190   62.1690 C   0  0  0  0  0  0  0  0  0  0  0  0
  127.0070  123.9020   58.7660 C   0  0  0  0  0  0  0  0  0  0  0  0
  127.3370  122.9670   57.7690 C   0  0  0  0  0  0  0  0  0  0  0  0
  126.3780  122.4910   56.8790 C   0  0  0  0  0  0  0  0  0  0  0  0
  125.0650  122.9380   56.9760 C   0  0  0  0  0  0  0  0  0  0  0  0
  124.7050  123.8510   57.9600 C   0  0  0  0  0  0  0  0  0  0  0  0
  125.6680  124.3250   58.8470 C   0  0  0  0  0  0  0  0  0  0  0  0
  125.5612  128.2187   60.9406 H   0  0  0  0  0  0  0  0  0  0  0  0
  125.9699  126.8497   62.0854 H   0  0  0  0  0  0  0  0  0  0  0  0
  126.9366  128.6646   63.0871 H   0  0  0  0  0  0  0  0  0  0  0  0
  128.5560  130.1140   61.3390 H   0  0  0  0  0  0  0  0  0  0  0  0
  127.9455  130.6446   58.8505 H   0  0  0  0  0  0  0  0  0  0  0  0
  126.9455  132.0797   58.4001 H   0  0  0  0  0  0  0  0  0  0  0  0
  128.4943  133.5592   59.2557 H   0  0  0  0  0  0  0  0  0  0  0  0
  128.8360  132.3882   62.0315 H   0  0  0  0  0  0  0  0  0  0  0  0
  130.7563  131.6766   63.4576 H   0  0  0  0  0  0  0  0  0  0  0  0
  132.9391  131.0806   62.4118 H   0  0  0  0  0  0  0  0  0  0  0  0
  133.2111  131.1972   59.9299 H   0  0  0  0  0  0  0  0  0  0  0  0
  133.0029  131.4882   57.3508 H   0  0  0  0  0  0  0  0  0  0  0  0
  132.3451  131.9348   54.9829 H   0  0  0  0  0  0  0  0  0  0  0  0
  130.0315  132.7076   54.4529 H   0  0  0  0  0  0  0  0  0  0  0  0
  128.3740  133.0346   56.2875 H   0  0  0  0  0  0  0  0  0  0  0  0
  130.4290  128.6780   62.5550 H   0  0  0  0  0  0  0  0  0  0  0  0
  127.4580  125.3650   61.5260 H   0  0  0  0  0  0  0  0  0  0  0  0
  128.2586  125.3028   57.1094 H   0  0  0  0  0  0  0  0  0  0  0  0
  130.1137  126.5150   55.9847 H   0  0  0  0  0  0  0  0  0  0  0  0
  132.1838  127.0743   57.2472 H   0  0  0  0  0  0  0  0  0  0  0  0
  132.3897  126.4619   59.6514 H   0  0  0  0  0  0  0  0  0  0  0  0
  130.5260  125.2818   60.7934 H   0  0  0  0  0  0  0  0  0  0  0  0
  129.3640  121.9908   59.3081 H   0  0  0  0  0  0  0  0  0  0  0  0
  130.1494  120.3282   60.9849 H   0  0  0  0  0  0  0  0  0  0  0  0
  129.8365  120.7670   63.4133 H   0  0  0  0  0  0  0  0  0  0  0  0
  128.7541  122.8745   64.1807 H   0  0  0  0  0  0  0  0  0  0  0  0
  127.9967  124.5549   62.5118 H   0  0  0  0  0  0  0  0  0  0  0  0
  128.3727  122.6047   57.6907 H   0  0  0  0  0  0  0  0  0  0  0  0
  126.6579  121.7642   56.1022 H   0  0  0  0  0  0  0  0  0  0  0  0
  124.3072  122.5671   56.2702 H   0  0  0  0  0  0  0  0  0  0  0  0
  123.6639  124.1976   58.0378 H   0  0  0  0  0  0  0  0  0  0  0  0
  125.3759  125.0443   59.6263 H   0  0  0  0  0  0  0  0  0  0  0  0
  1  2  2  0
  2  3  1  0
  3  4  1  0
  4  5  1  0
  5  6  1  0
  6  7  2  0
  6  8  1  0
  8  9  1  0
  9 10  1  0
 10 11  1  0
 11 12  2  0
 12 13  1  0
 13 14  2  0
 14 15  1  0
 15 16  2  0
 16 17  1  0
 17 18  2  0
 18 19  1  0
 19 20  2  0
 20 21  1  0
 21 22  2  0
  4 23  1  0
 23 24  2  0
 23 25  1  0
  2 26  1  0
 26 27  1  0
 27 28  1  0
 28 29  2  0
 29 30  1  0
 30 31  2  0
 31 32  1  0
 32 33  2  0
 27 34  1  0
 34 35  2  0
 35 36  1  0
 36 37  2  0
 37 38  1  0
 38 39  2  0
 27 40  1  0
 40 41  2  0
 41 42  1  0
 42 43  2  0
 43 44  1  0
 44 45  2  0
 22 10  1  0
 33 28  1  0
 39 34  1  0
 45 40  1  0
 16 11  1  0
 22 17  1  0
  3 46  1  0
  3 47  1  0
  4 48  1  1
  5 49  1  0
  9 50  1  0
  9 51  1  0
 10 52  1  0
 12 53  1  0
 13 54  1  0
 14 55  1  0
 15 56  1  0
 18 57  1  0
 19 58  1  0
 20 59  1  0
 21 60  1  0
 25 61  1  0
 26 62  1  0
 29 63  1  0
 30 64  1  0
 31 65  1  0
 32 66  1  0
 33 67  1  0
 35 68  1  0
 36 69  1  0
 37 70  1  0
 38 71  1  0
 39 72  1  0
 41 73  1  0
 42 74  1  0
 43 75  1  0
 44 76  1  0
 45 77  1  0
M  END
>  <Binding energies>  (1) 
[-10.06]

>  <Ligand effiencies>  (1) 
[-0.20958333333333334]

>  <Interactions>  (1) 
["V-A:LEU:363:CD1:3189, V-A:ASP:366:CG:3213, V-A:PRO:540:CA:4883, V-A:PRO:540:CB:4885, V-A:PRO:540:N:4884, V-A:TYR:539:C:4867, V-A:ASP:366:CB:3212, V-B:PRO:540:N:9856, V-B:PRO:540:CB:9857, V-B:PRO:540:CA:9855, V-B:TYR:539:CE2:9848, V-B:PRO:540:CD:9859, V-B:ASP:366:CG:8184, V-B:MET:535:CE:9807, V-B:LEU:363:CD1:8160, V-B:PRO:540:CG:9858, V-B:TYR:539:C:9839, H-B:GLU:543:OE1:9881, V-B:TYR:539:CD2:9846, V-A:MET:535:CE:4835, V-B:ALA:541:CB:9864, V-B:GLU:543:CG:9879, V-A:LEU:475:CD2:4259, V-A:GLU:543:CD:4908, V-A:GLU:543:CG:4907, V-A:TYR:531:CZ:4794, H-A:GLU:543:OE1:4909, H-A:GLU:543:OE2:4910, V-A:TYR:539:CE1:4875, V-B:ALA:541:CA:9862, V-A:TYR:539:CD1:4873, V-A:ILE:538:CA:4860, V-A:ILE:538:CG2:4863, V-A:ILE:538:CB:4862"]

$$$$
RR5_Rahimova_2017-again1
     RDKit          3D

 76 81  0  0  0  0  0  0  0  0999 V2000
  130.1470  126.1340   56.0320 O   0  0  0  0  0  0  0  0  0  0  0  0
  129.2900  125.5540   56.6980 C   0  0  0  0  0  0  0  0  0  0  0  0
  128.3960  124.5040   56.0050 C   0  0  0  0  0  0  0  0  0  0  0  0
  127.4650  123.6540   56.9320 C   0  0  2  0  0  0  0  0  0  0  0  0
  128.2290  123.2240   58.1210 N   0  0  0  0  0  0  0  0  0  0  0  0
  127.6530  123.1900   59.3860 C   0  0  0  0  0  0  0  0  0  0  0  0
  126.4990  123.5170   59.6770 O   0  0  0  0  0  0  0  0  0  0  0  0
  128.5670  122.7350   60.2650 O   0  0  0  0  0  0  0  0  0  0  0  0
  129.2070  123.6190   61.1780 C   0  0  0  0  0  0  0  0  0  0  0  0
  129.9310  122.8150   62.2750 C   0  0  0  0  0  0  0  0  0  0  0  0
  131.1500  122.0630   61.7710 C   0  0  0  0  0  0  0  0  0  0  0  0
  131.2440  121.0760   60.7860 C   0  0  0  0  0  0  0  0  0  0  0  0
  132.4870  120.5250   60.4690 C   0  0  0  0  0  0  0  0  0  0  0  0
  133.6350  120.9540   61.1370 C   0  0  0  0  0  0  0  0  0  0  0  0
  133.5440  121.9340   62.1260 C   0  0  0  0  0  0  0  0  0  0  0  0
  132.3000  122.4850   62.4400 C   0  0  0  0  0  0  0  0  0  0  0  0
  131.9150  123.5060   63.4270 C   0  0  0  0  0  0  0  0  0  0  0  0
  132.6790  124.2290   64.3460 C   0  0  0  0  0  0  0  0  0  0  0  0
  132.0540  125.1450   65.1940 C   0  0  0  0  0  0  0  0  0  0  0  0
  130.6730  125.3370   65.1220 C   0  0  0  0  0  0  0  0  0  0  0  0
  129.9120  124.6150   64.2000 C   0  0  0  0  0  0  0  0  0  0  0  0
  130.5350  123.6980   63.3480 C   0  0  0  0  0  0  0  0  0  0  0  0
  126.8270  122.4260   56.1660 C   0  0  0  0  0  0  0  0  0  0  0  0
  127.5110  122.0060   55.2030 O   0  0  0  0  0  0  0  0  0  0  0  0
  125.7430  121.9810   56.6130 O   0  0  0  0  0  0  0  0  0  0  0  0
  129.1760  125.7010   58.0350 N   0  0  0  0  0  0  0  0  0  0  0  0
  129.9100  126.6100   58.9520 C   0  0  0  0  0  0  0  0  0  0  0  0
  130.1510  127.9900   58.2600 C   0  0  0  0  0  0  0  0  0  0  0  0
  131.3900  128.6460   58.3690 C   0  0  0  0  0  0  0  0  0  0  0  0
  131.6120  129.8690   57.7430 C   0  0  0  0  0  0  0  0  0  0  0  0
  130.5960  130.4540   56.9940 C   0  0  0  0  0  0  0  0  0  0  0  0
  129.3620  129.8240   56.8670 C   0  0  0  0  0  0  0  0  0  0  0  0
  129.1420  128.6010   57.4940 C   0  0  0  0  0  0  0  0  0  0  0  0
  129.1510  126.9860   60.2650 C   0  0  0  0  0  0  0  0  0  0  0  0
  129.7740  127.7550   61.2640 C   0  0  0  0  0  0  0  0  0  0  0  0
  129.1020  128.0900   62.4360 C   0  0  0  0  0  0  0  0  0  0  0  0
  127.7910  127.6640   62.6240 C   0  0  0  0  0  0  0  0  0  0  0  0
  127.1480  126.9100   61.6460 C   0  0  0  0  0  0  0  0  0  0  0  0
  127.8240  126.5770   60.4760 C   0  0  0  0  0  0  0  0  0  0  0  0
  131.2710  125.8780   59.2110 C   0  0  0  0  0  0  0  0  0  0  0  0
  131.7470  125.6400   60.5130 C   0  0  0  0  0  0  0  0  0  0  0  0
  132.9480  124.9720   60.7270 C   0  0  0  0  0  0  0  0  0  0  0  0
  133.6880  124.5180   59.6400 C   0  0  0  0  0  0  0  0  0  0  0  0
  133.2300  124.7190   58.3430 C   0  0  0  0  0  0  0  0  0  0  0  0
  132.0280  125.3880   58.1320 C   0  0  0  0  0  0  0  0  0  0  0  0
  127.7555  125.0343   55.2849 H   0  0  0  0  0  0  0  0  0  0  0  0
  129.0930  123.7822   55.5542 H   0  0  0  0  0  0  0  0  0  0  0  0
  126.6199  124.2791   57.2561 H   0  0  0  0  0  0  0  0  0  0  0  0
  129.1730  122.8850   57.9940 H   0  0  0  0  0  0  0  0  0  0  0  0
  129.9392  124.2349   60.6353 H   0  0  0  0  0  0  0  0  0  0  0  0
  128.4486  124.2640   61.6459 H   0  0  0  0  0  0  0  0  0  0  0  0
  129.1339  122.1511   62.6408 H   0  0  0  0  0  0  0  0  0  0  0  0
  130.3399  120.7338   60.2612 H   0  0  0  0  0  0  0  0  0  0  0  0
  132.5618  119.7510   59.6910 H   0  0  0  0  0  0  0  0  0  0  0  0
  134.6129  120.5188   60.8834 H   0  0  0  0  0  0  0  0  0  0  0  0
  134.4474  122.2707   62.6555 H   0  0  0  0  0  0  0  0  0  0  0  0
  133.7671  124.0774   64.4012 H   0  0  0  0  0  0  0  0  0  0  0  0
  132.6506  125.7165   65.9202 H   0  0  0  0  0  0  0  0  0  0  0  0
  130.1834  126.0583   65.7928 H   0  0  0  0  0  0  0  0  0  0  0  0
  128.8241  124.7675   64.1442 H   0  0  0  0  0  0  0  0  0  0  0  0
  128.3980  125.2250   58.4670 H   0  0  0  0  0  0  0  0  0  0  0  0
  132.1965  128.1853   58.9583 H   0  0  0  0  0  0  0  0  0  0  0  0
  132.5861  130.3707   57.8400 H   0  0  0  0  0  0  0  0  0  0  0  0
  130.7694  131.4209   56.4990 H   0  0  0  0  0  0  0  0  0  0  0  0
  128.5627  130.2910   56.2729 H   0  0  0  0  0  0  0  0  0  0  0  0
  128.1656  128.1055   57.3890 H   0  0  0  0  0  0  0  0  0  0  0  0
  130.8090  128.0973   61.1169 H   0  0  0  0  0  0  0  0  0  0  0  0
  129.6050  128.6886   63.2097 H   0  0  0  0  0  0  0  0  0  0  0  0
  127.2592  127.9245   63.5510 H   0  0  0  0  0  0  0  0  0  0  0  0
  126.1100  126.5789   61.7975 H   0  0  0  0  0  0  0  0  0  0  0  0
  127.3110  125.9842   59.7044 H   0  0  0  0  0  0  0  0  0  0  0  0
  131.1600  125.9878   61.3758 H   0  0  0  0  0  0  0  0  0  0  0  0
  133.3112  124.8034   61.7515 H   0  0  0  0  0  0  0  0  0  0  0  0
  134.6419  123.9965   59.8079 H   0  0  0  0  0  0  0  0  0  0  0  0
  133.8150  124.3509   57.4873 H   0  0  0  0  0  0  0  0  0  0  0  0
  131.6642  125.5359   57.1045 H   0  0  0  0  0  0  0  0  0  0  0  0
  1  2  2  0
  2  3  1  0
  3  4  1  0
  4  5  1  0
  5  6  1  0
  6  7  2  0
  6  8  1  0
  8  9  1  0
  9 10  1  0
 10 11  1  0
 11 12  2  0
 12 13  1  0
 13 14  2  0
 14 15  1  0
 15 16  2  0
 16 17  1  0
 17 18  2  0
 18 19  1  0
 19 20  2  0
 20 21  1  0
 21 22  2  0
  4 23  1  0
 23 24  2  0
 23 25  1  0
  2 26  1  0
 26 27  1  0
 27 28  1  0
 28 29  2  0
 29 30  1  0
 30 31  2  0
 31 32  1  0
 32 33  2  0
 27 34  1  0
 34 35  2  0
 35 36  1  0
 36 37  2  0
 37 38  1  0
 38 39  2  0
 27 40  1  0
 40 41  2  0
 41 42  1  0
 42 43  2  0
 43 44  1  0
 44 45  2  0
 22 10  1  0
 33 28  1  0
 39 34  1  0
 45 40  1  0
 16 11  1  0
 22 17  1  0
  3 46  1  0
  3 47  1  0
  4 48  1  1
  5 49  1  0
  9 50  1  0
  9 51  1  0
 10 52  1  0
 12 53  1  0
 13 54  1  0
 14 55  1  0
 15 56  1  0
 18 57  1  0
 19 58  1  0
 20 59  1  0
 21 60  1  0
 26 61  1  0
 29 62  1  0
 30 63  1  0
 31 64  1  0
 32 65  1  0
 33 66  1  0
 35 67  1  0
 36 68  1  0
 37 69  1  0
 38 70  1  0
 39 71  1  0
 41 72  1  0
 42 73  1  0
 43 74  1  0
 44 75  1  0
 45 76  1  0
M  CHG  1  25  -1
M  END
>  <Binding energies>  (1) 
[-9.28]

>  <Ligand effiencies>  (1) 
[-0.19744680851063828]

>  <Interactions>  (1) 
["V-A:ASP:366:CG:3213, H-A:TYR:531:OH:4795, H-B:TYR:539:OH:9850, V-A:ASP:366:CB:3212, V-B:TYR:539:CZ:9849, V-B:PRO:540:N:9856, V-B:TYR:539:CE1:9847, V-B:TYR:539:CD1:9845, V-B:PRO:540:CA:9855, V-B:TYR:539:CE2:9848, H-B:TYR:539:N:9842, V-B:PRO:540:CD:9859, V-B:TYR:539:CD2:9846, V-A:MET:535:CE:4835, V-A:ASP:366:C:3208, V-A:ASP:366:CA:3210, V-B:GLU:543:CG:9879, V-A:ILE:369:CG2:3237, V-A:LEU:475:CD2:4259, V-A:GLU:543:CD:4908, V-A:GLY:454:CA:4049, V-A:ARG:545:CZ:4926, V-B:GLU:543:CD:9880, V-A:TYR:531:CZ:4794, V-A:TYR:531:CE2:4793, V-A:SER:385:CA:3407, V-A:SER:385:CB:3409, V-A:SER:385:C:3405"]

$$$$
RR6_Rahimova_2017
     RDKit          3D

 63 66  0  0  0  0  0  0  0  0999 V2000
  131.5250  132.1800   56.1560 C   0  0  0  0  0  0  0  0  0  0  0  0
  130.9570  133.2490   56.9000 O   0  0  0  0  0  0  0  0  0  0  0  0
  129.6880  133.1710   57.3770 C   0  0  0  0  0  0  0  0  0  0  0  0
  128.6940  133.4920   56.7190 O   0  0  0  0  0  0  0  0  0  0  0  0
  129.6140  132.6550   58.7860 C   0  0  0  0  0  0  0  0  0  0  0  0
  130.7340  132.1300   59.4450 C   0  0  0  0  0  0  0  0  0  0  0  0
  130.6310  131.6520   60.7500 C   0  0  0  0  0  0  0  0  0  0  0  0
  129.3970  131.6890   61.4170 C   0  0  0  0  0  0  0  0  0  0  0  0
  129.1760  131.2080   62.7210 N   0  0  0  0  0  0  0  0  0  0  0  0
  128.2840  131.6250   63.6470 C   0  0  0  0  0  0  0  0  0  0  0  0
  127.4680  132.5340   63.4940 O   0  0  0  0  0  0  0  0  0  0  0  0
  128.3680  130.9260   65.0080 C   0  0  0  0  0  0  0  0  0  0  0  0
  127.3430  129.4210   65.1220 S   0  0  0  0  0  0  0  0  0  0  0  0
  128.3700  128.1550   65.8400 C   0  0  0  0  0  0  0  0  0  0  0  0
  128.4110  128.1720   67.1940 N   0  0  0  0  0  0  0  0  0  0  0  0
  129.1370  127.2360   67.8570 C   0  0  0  0  0  0  0  0  0  0  0  0
  129.0810  127.2870   69.3550 C   0  0  0  0  0  0  0  0  0  0  0  0
  130.1940  127.6980   70.1060 C   0  0  0  0  0  0  0  0  0  0  0  0
  130.1460  127.7320   71.4970 C   0  0  0  0  0  0  0  0  0  0  0  0
  128.9790  127.3610   72.1650 C   0  0  0  0  0  0  0  0  0  0  0  0
  128.9350  127.3910   73.6820 C   0  0  0  0  0  0  0  0  0  0  0  0
  127.8640  126.9530   71.4380 C   0  0  0  0  0  0  0  0  0  0  0  0
  127.9170  126.9210   70.0480 C   0  0  0  0  0  0  0  0  0  0  0  0
  129.8550  126.2610   67.1580 C   0  0  0  0  0  0  0  0  0  0  0  0
  129.8320  126.2250   65.7560 C   0  0  0  0  0  0  0  0  0  0  0  0
  130.6060  125.1450   65.0740 C   0  0  0  0  0  0  0  0  0  0  0  0
  129.9760  123.9510   64.7120 C   0  0  0  0  0  0  0  0  0  0  0  0
  130.6870  122.9450   64.0620 C   0  0  0  0  0  0  0  0  0  0  0  0
  132.0360  123.1160   63.7560 C   0  0  0  0  0  0  0  0  0  0  0  0
  132.6600  122.0660   63.1090 O   0  0  0  0  0  0  0  0  0  0  0  0
  133.8680  122.3110   62.3960 C   0  0  0  0  0  0  0  0  0  0  0  0
  132.6720  124.3150   64.1130 C   0  0  0  0  0  0  0  0  0  0  0  0
  131.9580  125.3180   64.7630 C   0  0  0  0  0  0  0  0  0  0  0  0
  129.0710  127.2040   65.0710 C   0  0  0  0  0  0  0  0  0  0  0  0
  129.0260  127.2420   63.6050 C   0  0  0  0  0  0  0  0  0  0  0  0
  128.9900  127.2700   62.4490 N   0  0  0  0  0  0  0  0  0  0  0  0
  128.2840  132.2260   60.7700 C   0  0  0  0  0  0  0  0  0  0  0  0
  128.3890  132.7010   59.4650 C   0  0  0  0  0  0  0  0  0  0  0  0
  131.9264  131.4246   56.8476 H   0  0  0  0  0  0  0  0  0  0  0  0
  130.7510  131.7225   55.5222 H   0  0  0  0  0  0  0  0  0  0  0  0
  132.3373  132.5653   55.5222 H   0  0  0  0  0  0  0  0  0  0  0  0
  131.7038  132.0949   58.9271 H   0  0  0  0  0  0  0  0  0  0  0  0
  131.5180  131.2453   61.2577 H   0  0  0  0  0  0  0  0  0  0  0  0
  129.8370  130.5090   63.0240 H   0  0  0  0  0  0  0  0  0  0  0  0
  129.4162  130.6474   65.1915 H   0  0  0  0  0  0  0  0  0  0  0  0
  127.9853  131.6340   65.7579 H   0  0  0  0  0  0  0  0  0  0  0  0
  131.1170  127.9974   69.5879 H   0  0  0  0  0  0  0  0  0  0  0  0
  131.0291  128.0517   72.0697 H   0  0  0  0  0  0  0  0  0  0  0  0
  129.7807  126.8144   74.0848 H   0  0  0  0  0  0  0  0  0  0  0  0
  129.0022  128.4323   74.0303 H   0  0  0  0  0  0  0  0  0  0  0  0
  127.9902  126.9481   74.0303 H   0  0  0  0  0  0  0  0  0  0  0  0
  126.9430  126.6565   71.9614 H   0  0  0  0  0  0  0  0  0  0  0  0
  127.0295  126.6027   69.4815 H   0  0  0  0  0  0  0  0  0  0  0  0
  130.4434  125.5152   67.7127 H   0  0  0  0  0  0  0  0  0  0  0  0
  128.9104  123.8047   64.9422 H   0  0  0  0  0  0  0  0  0  0  0  0
  130.1798  122.0081   63.7880 H   0  0  0  0  0  0  0  0  0  0  0  0
  134.6880  122.4773   63.1101 H   0  0  0  0  0  0  0  0  0  0  0  0
  134.1031  121.4423   61.7635 H   0  0  0  0  0  0  0  0  0  0  0  0
  133.7461  123.2027   61.7635 H   0  0  0  0  0  0  0  0  0  0  0  0
  133.7366  124.4626   63.8788 H   0  0  0  0  0  0  0  0  0  0  0  0
  132.4630  126.2566   65.0348 H   0  0  0  0  0  0  0  0  0  0  0  0
  127.3178  132.2746   61.2935 H   0  0  0  0  0  0  0  0  0  0  0  0
  127.5026  133.1159   58.9629 H   0  0  0  0  0  0  0  0  0  0  0  0
  1  2  1  0
  2  3  1  0
  3  4  2  0
  3  5  1  0
  5  6  2  0
  6  7  1  0
  7  8  2  0
  8  9  1  0
  9 10  1  0
 10 11  2  0
 10 12  1  0
 12 13  1  0
 13 14  1  0
 14 15  2  0
 15 16  1  0
 16 17  1  0
 17 18  2  0
 18 19  1  0
 19 20  2  0
 20 21  1  0
 20 22  1  0
 22 23  2  0
 16 24  2  0
 24 25  1  0
 25 26  1  0
 26 27  2  0
 27 28  1  0
 28 29  2  0
 29 30  1  0
 30 31  1  0
 29 32  1  0
 32 33  2  0
 25 34  2  0
 34 35  1  0
 35 36  3  0
  8 37  1  0
 37 38  2  0
 38  5  1  0
 34 14  1  0
 23 17  1  0
 33 26  1  0
  1 39  1  0
  1 40  1  0
  1 41  1  0
  6 42  1  0
  7 43  1  0
  9 44  1  0
 12 45  1  0
 12 46  1  0
 18 47  1  0
 19 48  1  0
 21 49  1  0
 21 50  1  0
 21 51  1  0
 22 52  1  0
 23 53  1  0
 24 54  1  0
 27 55  1  0
 28 56  1  0
 31 57  1  0
 31 58  1  0
 31 59  1  0
 32 60  1  0
 33 61  1  0
 37 62  1  0
 38 63  1  0
M  END
>  <Binding energies>  (1) 
[-10.08]

>  <Ligand effiencies>  (1) 
[-0.25846153846153846]

>  <Interactions>  (1) 
["V-A:LEU:363:CD1:3189, V-A:PRO:540:CA:4883, V-A:PRO:540:CB:4885, V-A:PRO:540:N:4884, V-A:TYR:539:C:4867, H-A:TYR:539:N:4870, V-A:ILE:369:CD1:3239, V-B:GLU:543:CG:9879, V-A:LEU:475:CD2:4259, V-B:GLU:543:CB:9878, V-A:GLU:543:CD:4908, V-A:GLY:454:CA:4049, V-A:ARG:545:CZ:4926, V-B:GLU:543:CD:9880, V-B:HIS:456:CE1:9041, V-B:GLY:544:C:9884, V-B:GLU:543:C:9874, V-A:HIS:456:CE1:4070, V-A:GLU:543:CG:4907, V-A:GLU:543:CB:4906, H-A:GLU:543:OE1:4909, V-B:TYR:484:CZ:9318, H-B:TYR:484:OH:9319, V-A:TYR:539:CE1:4875, V-A:TYR:539:CD1:4873, V-A:TYR:539:CA:4869, V-B:TYR:484:CE2:9317, V-A:ILE:538:CG2:4863, V-A:ILE:538:CB:4862"]

$$$$
RR7_Rahimova_2017
     RDKit          3D

 80 86  0  0  0  0  0  0  0  0999 V2000
  133.1260  131.5300   61.6650 C   0  0  0  0  0  0  0  0  0  0  0  0
  133.0260  131.6470   60.2490 O   0  0  0  0  0  0  0  0  0  0  0  0
  131.8160  131.3830   59.6360 C   0  0  0  0  0  0  0  0  0  0  0  0
  130.6840  131.4230   60.4480 C   0  0  0  0  0  0  0  0  0  0  0  0
  129.4220  131.1760   59.9190 C   0  0  0  0  0  0  0  0  0  0  0  0
  129.2620  130.8690   58.5590 C   0  0  0  0  0  0  0  0  0  0  0  0
  127.8550  130.6200   57.9320 C   0  0  0  0  0  0  0  0  0  0  0  0
  127.7700  129.2000   57.6740 O   0  0  0  0  0  0  0  0  0  0  0  0
  127.8750  128.7070   56.3340 C   0  0  0  0  0  0  0  0  0  0  0  0
  129.1870  127.9180   56.1930 C   0  0  1  0  0  0  0  0  0  0  0  0
  129.8220  127.9410   57.4680 O   0  0  0  0  0  0  0  0  0  0  0  0
  130.0320  126.6530   57.9710 C   0  0  1  0  0  0  0  0  0  0  0  0
  129.9230  126.6570   59.4180 N   0  0  0  0  0  0  0  0  0  0  0  0
  128.9710  127.2880   60.1990 C   0  0  0  0  0  0  0  0  0  0  0  0
  129.1350  127.1660   61.4930 N   0  0  0  0  0  0  0  0  0  0  0  0
  130.2950  126.4480   61.6080 C   0  0  0  0  0  0  0  0  0  0  0  0
  131.0180  125.9990   62.7300 C   0  0  0  0  0  0  0  0  0  0  0  0
  130.5210  126.2890   64.0140 N   0  0  0  0  0  0  0  0  0  0  0  0
  130.0070  125.4440   64.9400 C   0  0  0  0  0  0  0  0  0  0  0  0
  129.8770  124.2290   64.7750 O   0  0  0  0  0  0  0  0  0  0  0  0
  129.5500  126.0870   66.2320 C   0  0  0  0  0  0  0  0  0  0  0  0
  128.8010  127.2740   66.1890 C   0  0  0  0  0  0  0  0  0  0  0  0
  128.3660  127.8790   67.3640 C   0  0  0  0  0  0  0  0  0  0  0  0
  128.6710  127.3010   68.5920 C   0  0  0  0  0  0  0  0  0  0  0  0
  129.4080  126.1220   68.6560 C   0  0  0  0  0  0  0  0  0  0  0  0
  129.8460  125.5160   67.4810 C   0  0  0  0  0  0  0  0  0  0  0  0
  132.1790  125.3020   62.5410 N   0  0  0  0  0  0  0  0  0  0  0  0
  132.5810  125.0750   61.2630 C   0  0  0  0  0  0  0  0  0  0  0  0
  131.9620  125.4570   60.1140 N   0  0  0  0  0  0  0  0  0  0  0  0
  130.8250  126.1320   60.3300 C   0  0  0  0  0  0  0  0  0  0  0  0
  129.0180  125.7710   57.2520 C   0  0  0  0  0  0  0  0  0  0  0  0
  129.0160  126.4240   55.8810 C   0  0  2  0  0  0  0  0  0  0  0  0
  130.0500  125.9220   55.0510 O   0  0  0  0  0  0  0  0  0  0  0  0
  126.7020  130.9720   58.9080 C   0  0  0  0  0  0  0  0  0  0  0  0
  126.6240  132.2530   59.4800 C   0  0  0  0  0  0  0  0  0  0  0  0
  125.6030  132.5750   60.3680 C   0  0  0  0  0  0  0  0  0  0  0  0
  124.6470  131.6190   60.6950 C   0  0  0  0  0  0  0  0  0  0  0  0
  124.7040  130.3440   60.1400 C   0  0  0  0  0  0  0  0  0  0  0  0
  125.7270  130.0210   59.2530 C   0  0  0  0  0  0  0  0  0  0  0  0
  127.5490  131.4040   56.6240 C   0  0  0  0  0  0  0  0  0  0  0  0
  128.3980  132.4390   56.2010 C   0  0  0  0  0  0  0  0  0  0  0  0
  128.1270  133.1520   55.0370 C   0  0  0  0  0  0  0  0  0  0  0  0
  126.9960  132.8430   54.2870 C   0  0  0  0  0  0  0  0  0  0  0  0
  126.1340  131.8300   54.6940 C   0  0  0  0  0  0  0  0  0  0  0  0
  126.4060  131.1180   55.8580 C   0  0  0  0  0  0  0  0  0  0  0  0
  130.4020  130.8440   57.7430 C   0  0  0  0  0  0  0  0  0  0  0  0
  131.6660  131.0920   58.2730 C   0  0  0  0  0  0  0  0  0  0  0  0
  132.4819  132.2836   62.1416 H   0  0  0  0  0  0  0  0  0  0  0  0
  132.8039  130.5245   61.9735 H   0  0  0  0  0  0  0  0  0  0  0  0
  134.1694  131.6915   61.9735 H   0  0  0  0  0  0  0  0  0  0  0  0
  130.7900  131.6524   61.5186 H   0  0  0  0  0  0  0  0  0  0  0  0
  128.5393  131.2217   60.5738 H   0  0  0  0  0  0  0  0  0  0  0  0
  127.0224  128.0471   56.1158 H   0  0  0  0  0  0  0  0  0  0  0  0
  127.8696  129.5492   55.6264 H   0  0  0  0  0  0  0  0  0  0  0  0
  129.7363  128.3874   55.3636 H   0  0  0  0  0  0  0  0  0  0  0  0
  131.0426  126.2615   57.7829 H   0  0  0  0  0  0  0  0  0  0  0  0
  128.1339  127.8533   59.7633 H   0  0  0  0  0  0  0  0  0  0  0  0
  130.5540  127.2660   64.2650 H   0  0  0  0  0  0  0  0  0  0  0  0
  128.5561  127.7294   65.2181 H   0  0  0  0  0  0  0  0  0  0  0  0
  127.7831  128.8109   67.3221 H   0  0  0  0  0  0  0  0  0  0  0  0
  128.3267  127.7799   69.5205 H   0  0  0  0  0  0  0  0  0  0  0  0
  129.6436  125.6705   69.6310 H   0  0  0  0  0  0  0  0  0  0  0  0
  130.4278  124.5838   67.5313 H   0  0  0  0  0  0  0  0  0  0  0  0
  133.5201  124.5148   61.1435 H   0  0  0  0  0  0  0  0  0  0  0  0
  129.3511  124.7238   57.2037 H   0  0  0  0  0  0  0  0  0  0  0  0
  128.0321  125.7132   57.7364 H   0  0  0  0  0  0  0  0  0  0  0  0
  128.0969  126.2180   55.3128 H   0  0  0  0  0  0  0  0  0  0  0  0
  130.4050  125.1260   55.4530 H   0  0  0  0  0  0  0  0  0  0  0  0
  127.3793  133.0101   59.2225 H   0  0  0  0  0  0  0  0  0  0  0  0
  125.5518  133.5811   60.8097 H   0  0  0  0  0  0  0  0  0  0  0  0
  123.8397  131.8727   61.3977 H   0  0  0  0  0  0  0  0  0  0  0  0
  123.9431  129.5939   60.4014 H   0  0  0  0  0  0  0  0  0  0  0  0
  125.7725  129.0117   58.8181 H   0  0  0  0  0  0  0  0  0  0  0  0
  129.2881  132.6894   56.7968 H   0  0  0  0  0  0  0  0  0  0  0  0
  128.8034  133.9559   54.7113 H   0  0  0  0  0  0  0  0  0  0  0  0
  126.7822  133.4041   53.3654 H   0  0  0  0  0  0  0  0  0  0  0  0
  125.2406  131.5927   54.0978 H   0  0  0  0  0  0  0  0  0  0  0  0
  125.7189  130.3225   56.1822 H   0  0  0  0  0  0  0  0  0  0  0  0
  130.2967  130.6256   56.6700 H   0  0  0  0  0  0  0  0  0  0  0  0
  132.5501  131.0594   57.6193 H   0  0  0  0  0  0  0  0  0  0  0  0
  1  2  1  0
  2  3  1  0
  3  4  2  0
  4  5  1  0
  5  6  2  0
  6  7  1  0
  7  8  1  0
  8  9  1  0
  9 10  1  0
 10 11  1  0
 11 12  1  0
 12 13  1  0
 13 14  1  0
 14 15  2  0
 15 16  1  0
 16 17  2  0
 17 18  1  0
 18 19  1  0
 19 20  2  0
 19 21  1  0
 21 22  2  0
 22 23  1  0
 23 24  2  0
 24 25  1  0
 25 26  2  0
 17 27  1  0
 27 28  2  0
 28 29  1  0
 29 30  2  0
 12 31  1  0
 31 32  1  0
 32 33  1  0
  7 34  1  0
 34 35  2  0
 35 36  1  0
 36 37  2  0
 37 38  1  0
 38 39  2  0
  7 40  1  0
 40 41  2  0
 41 42  1  0
 42 43  2  0
 43 44  1  0
 44 45  2  0
  6 46  1  0
 46 47  2  0
 47  3  1  0
 32 10  1  0
 39 34  1  0
 45 40  1  0
 30 13  1  0
 30 16  1  0
 26 21  1  0
  1 48  1  0
  1 49  1  0
  1 50  1  0
  4 51  1  0
  5 52  1  0
  9 53  1  0
  9 54  1  0
 10 55  1  6
 12 56  1  1
 14 57  1  0
 18 58  1  0
 22 59  1  0
 23 60  1  0
 24 61  1  0
 25 62  1  0
 26 63  1  0
 28 64  1  0
 31 65  1  0
 31 66  1  0
 32 67  1  6
 33 68  1  0
 35 69  1  0
 36 70  1  0
 37 71  1  0
 38 72  1  0
 39 73  1  0
 41 74  1  0
 42 75  1  0
 43 76  1  0
 44 77  1  0
 45 78  1  0
 46 79  1  0
 47 80  1  0
M  END
>  <Binding energies>  (1) 
[-9.27]

>  <Ligand effiencies>  (1) 
[-0.18918367346938775]

>  <Interactions>  (1) 
["V-A:ASP:366:CG:3213, H-A:TYR:531:OH:4795, V-A:PRO:540:CA:4883, H-B:TYR:539:OH:9850, V-A:PRO:540:CB:4885, V-B:ASP:366:CB:8183, H-B:TYR:531:OH:9767, V-B:ASP:366:CG:8184, H-A:ASN:370:ND2:3248, V-A:MET:535:CE:4835, V-B:GLU:543:CG:9879, V-B:GLU:543:CB:9878, V-A:GLU:543:CD:4908, V-B:GLU:543:CD:9880, V-B:HIS:456:CE1:9041, V-B:GLU:543:C:9874, V-A:HIS:456:CE1:4070, V-A:GLU:543:CB:4906, H-A:GLU:543:OE1:4909, H-A:GLU:543:OE2:4910, V-A:TYR:539:CE1:4875, V-A:TYR:539:CZ:4877, H-A:ARG:545:NH2:4928, V-B:GLU:543:CA:9876, V-A:TYR:539:CD1:4873, V-A:TYR:539:CD2:4874, V-A:ILE:538:CA:4860, V-A:TYR:539:CG:4872, V-A:TYR:539:CE2:4876, V-A:ASN:362:CB:3176"]

$$$$
RR8_A_Rahimova_2017
     RDKit          3D

 73 77  0  0  0  0  0  0  0  0999 V2000
  134.1170  123.5310   57.4150 O   0  0  0  0  0  0  0  0  0  0  0  0
  133.4720  124.2730   58.1640 C   0  0  0  0  0  0  0  0  0  0  0  0
  132.7590  125.3640   57.7440 O   0  0  0  0  0  0  0  0  0  0  0  0
  131.6910  125.7870   58.5460 C   0  0  1  0  0  0  0  0  0  0  0  0
  132.1050  126.7070   59.5140 O   0  0  0  0  0  0  0  0  0  0  0  0
  131.1390  127.7350   59.7150 C   0  0  2  0  0  0  0  0  0  0  0  0
  130.7650  127.7710   61.2070 C   0  0  0  0  0  0  0  0  0  0  0  0
  130.7720  126.4430   61.7140 O   0  0  0  0  0  0  0  0  0  0  0  0
  129.5050  125.9970   62.1800 C   0  0  0  0  0  0  0  0  0  0  0  0
  129.2120  124.6100   61.6290 C   0  0  0  0  0  0  0  0  0  0  0  0
  129.0890  124.4200   60.2500 C   0  0  0  0  0  0  0  0  0  0  0  0
  128.8270  123.1490   59.7420 C   0  0  0  0  0  0  0  0  0  0  0  0
  128.6920  122.0710   60.6140 C   0  0  0  0  0  0  0  0  0  0  0  0
  128.8180  122.2510   61.9900 C   0  0  0  0  0  0  0  0  0  0  0  0
  129.0820  123.5210   62.4980 C   0  0  0  0  0  0  0  0  0  0  0  0
  129.9990  127.3580   58.7590 C   0  0  1  0  0  0  0  0  0  0  0  0
  129.4020  128.4870   58.1250 O   0  0  0  0  0  0  0  0  0  0  0  0
  129.5410  129.7250   58.8130 C   0  0  0  0  0  0  0  0  0  0  0  0
  130.2400  130.7400   57.9190 C   0  0  0  0  0  0  0  0  0  0  0  0
  129.5860  131.9280   57.5750 C   0  0  0  0  0  0  0  0  0  0  0  0
  130.2160  132.8560   56.7510 C   0  0  0  0  0  0  0  0  0  0  0  0
  131.4970  132.5950   56.2690 C   0  0  0  0  0  0  0  0  0  0  0  0
  132.1530  131.4120   56.6010 C   0  0  0  0  0  0  0  0  0  0  0  0
  131.5230  130.4820   57.4240 C   0  0  0  0  0  0  0  0  0  0  0  0
  130.7010  126.5540   57.6800 C   0  0  2  0  0  0  0  0  0  0  0  0
  129.7720  125.7180   56.9940 O   0  0  0  0  0  0  0  0  0  0  0  0
  128.3990  126.0520   57.1630 C   0  0  0  0  0  0  0  0  0  0  0  0
  127.5450  124.7960   57.0700 C   0  0  0  0  0  0  0  0  0  0  0  0
  126.2740  124.7650   57.6530 C   0  0  0  0  0  0  0  0  0  0  0  0
  125.4920  123.6170   57.5570 C   0  0  0  0  0  0  0  0  0  0  0  0
  125.9800  122.5040   56.8740 C   0  0  0  0  0  0  0  0  0  0  0  0
  127.2430  122.5300   56.2860 C   0  0  0  0  0  0  0  0  0  0  0  0
  128.0260  123.6780   56.3820 C   0  0  0  0  0  0  0  0  0  0  0  0
  133.3820  124.0580   59.6470 C   0  0  0  0  0  0  0  0  0  0  0  0
  132.3450  123.3100   60.2260 C   0  0  0  0  0  0  0  0  0  0  0  0
  132.2890  123.1300   61.6060 C   0  0  0  0  0  0  0  0  0  0  0  0
  133.2630  123.6920   62.4400 C   0  0  0  0  0  0  0  0  0  0  0  0
  133.2030  123.4970   63.9090 N   0  0  0  0  0  0  0  0  0  0  0  0
  133.6400  124.3820   64.6390 O   0  0  0  0  0  0  0  0  0  0  0  0
  132.7160  122.4580   64.3450 O   0  0  0  0  0  0  0  0  0  0  0  0
  134.2960  124.4400   61.8610 C   0  0  0  0  0  0  0  0  0  0  0  0
  134.3540  124.6220   60.4830 C   0  0  0  0  0  0  0  0  0  0  0  0
  131.2643  124.8882   59.0152 H   0  0  0  0  0  0  0  0  0  0  0  0
  131.4731  128.7590   59.4917 H   0  0  0  0  0  0  0  0  0  0  0  0
  131.4973  128.3804   61.7569 H   0  0  0  0  0  0  0  0  0  0  0  0
  129.7652  128.2127   61.3308 H   0  0  0  0  0  0  0  0  0  0  0  0
  129.5130  125.9589   63.2793 H   0  0  0  0  0  0  0  0  0  0  0  0
  128.7264  126.6951   61.8388 H   0  0  0  0  0  0  0  0  0  0  0  0
  129.1990  125.2739   59.5653 H   0  0  0  0  0  0  0  0  0  0  0  0
  128.7272  122.9976   58.6570 H   0  0  0  0  0  0  0  0  0  0  0  0
  128.4840  121.0682   60.2125 H   0  0  0  0  0  0  0  0  0  0  0  0
  128.7095  121.3945   62.6717 H   0  0  0  0  0  0  0  0  0  0  0  0
  129.1883  123.6678   63.5830 H   0  0  0  0  0  0  0  0  0  0  0  0
  129.1957  126.8395   59.3030 H   0  0  0  0  0  0  0  0  0  0  0  0
  128.5452  130.1043   59.0859 H   0  0  0  0  0  0  0  0  0  0  0  0
  130.1415  129.5687   59.7213 H   0  0  0  0  0  0  0  0  0  0  0  0
  128.5737  132.1286   57.9558 H   0  0  0  0  0  0  0  0  0  0  0  0
  129.7046  133.7918   56.4813 H   0  0  0  0  0  0  0  0  0  0  0  0
  131.9951  133.3303   55.6200 H   0  0  0  0  0  0  0  0  0  0  0  0
  133.1637  131.2134   56.2150 H   0  0  0  0  0  0  0  0  0  0  0  0
  132.0344  129.5438   57.6852 H   0  0  0  0  0  0  0  0  0  0  0  0
  131.1734  127.1246   56.8669 H   0  0  0  0  0  0  0  0  0  0  0  0
  128.2558  126.5182   58.1490 H   0  0  0  0  0  0  0  0  0  0  0  0
  128.0972  126.7544   56.3721 H   0  0  0  0  0  0  0  0  0  0  0  0
  125.8923  125.6475   58.1873 H   0  0  0  0  0  0  0  0  0  0  0  0
  124.4937  123.5884   58.0180 H   0  0  0  0  0  0  0  0  0  0  0  0
  125.3623  121.5969   56.7986 H   0  0  0  0  0  0  0  0  0  0  0  0
  127.6201  121.6476   55.7482 H   0  0  0  0  0  0  0  0  0  0  0  0
  129.0224  123.7049   55.9167 H   0  0  0  0  0  0  0  0  0  0  0  0
  131.5709  122.8627   59.5852 H   0  0  0  0  0  0  0  0  0  0  0  0
  131.4710  122.5401   62.0452 H   0  0  0  0  0  0  0  0  0  0  0  0
  135.0692  124.8881   62.5024 H   0  0  0  0  0  0  0  0  0  0  0  0
  135.1711  125.2146   60.0458 H   0  0  0  0  0  0  0  0  0  0  0  0
  1  2  2  0
  2  3  1  0
  3  4  1  0
  4  5  1  0
  5  6  1  0
  6  7  1  0
  7  8  1  0
  8  9  1  0
  9 10  1  0
 10 11  2  0
 11 12  1  0
 12 13  2  0
 13 14  1  0
 14 15  2  0
  6 16  1  0
 16 17  1  0
 17 18  1  0
 18 19  1  0
 19 20  2  0
 20 21  1  0
 21 22  2  0
 22 23  1  0
 23 24  2  0
 16 25  1  0
 25 26  1  0
 26 27  1  0
 27 28  1  0
 28 29  2  0
 29 30  1  0
 30 31  2  0
 31 32  1  0
 32 33  2  0
  2 34  1  0
 34 35  2  0
 35 36  1  0
 36 37  2  0
 37 38  1  0
 38 39  2  0
 38 40  1  0
 37 41  1  0
 41 42  2  0
 25  4  1  0
 33 28  1  0
 42 34  1  0
 15 10  1  0
 24 19  1  0
  4 43  1  1
  6 44  1  6
  7 45  1  0
  7 46  1  0
  9 47  1  0
  9 48  1  0
 11 49  1  0
 12 50  1  0
 13 51  1  0
 14 52  1  0
 15 53  1  0
 16 54  1  1
 18 55  1  0
 18 56  1  0
 20 57  1  0
 21 58  1  0
 22 59  1  0
 23 60  1  0
 24 61  1  0
 25 62  1  6
 27 63  1  0
 27 64  1  0
 29 65  1  0
 30 66  1  0
 31 67  1  0
 32 68  1  0
 33 69  1  0
 35 70  1  0
 36 71  1  0
 41 72  1  0
 42 73  1  0
M  CHG  2  38   1  40  -1
M  END
>  <Binding energies>  (1) 
[-9.25]

>  <Ligand effiencies>  (1) 
[-0.22023809523809523]

>  <Interactions>  (1) 
["V-A:LEU:363:CD1:3189, V-A:ASP:366:CG:3213, H-A:TYR:531:OH:4795, H-B:TYR:539:OH:9850, V-A:ASP:366:CB:3212, V-B:TYR:539:CZ:9849, V-B:PRO:540:N:9856, V-B:TYR:539:CE1:9847, V-B:PRO:540:CB:9857, V-B:TYR:539:CD1:9845, V-B:PRO:540:CA:9855, V-B:TYR:539:CE2:9848, V-B:PRO:540:CD:9859, V-B:LEU:363:CD1:8160, V-B:TYR:539:C:9839, V-B:TYR:539:CG:9844, V-B:PRO:540:C:9853, V-B:TYR:539:CD2:9846, V-B:ALA:541:CB:9864, V-A:ASP:366:C:3208, V-A:ASP:366:CA:3210, V-A:ILE:369:CD1:3239, H-A:ASN:370:N:3244, V-A:ILE:369:CB:3236, V-A:ILE:369:CG2:3237, H-A:TYR:484:OH:4348, V-A:GLY:454:CA:4049, V-A:TYR:531:CZ:4794, H-A:GLY:454:N:4050, V-A:ILE:538:CA:4860, V-A:TYR:531:CE2:4793, V-A:ILE:538:CG2:4863, V-A:ILE:538:CB:4862"]

$$$$
RR8_B_Rahimova_2017
     RDKit          3D

 73 77  0  0  0  0  0  0  0  0999 V2000
  125.3540  128.3420   58.5580 O   0  0  0  0  0  0  0  0  0  0  0  0
  126.3050  127.5660   58.6970 C   0  0  0  0  0  0  0  0  0  0  0  0
  127.4330  127.8470   59.4180 O   0  0  0  0  0  0  0  0  0  0  0  0
  127.3500  127.8100   60.8210 C   0  0  2  0  0  0  0  0  0  0  0  0
  128.2710  128.6770   61.4210 O   0  0  0  0  0  0  0  0  0  0  0  0
  129.5030  128.0160   61.7040 C   0  0  2  0  0  0  0  0  0  0  0  0
  130.6540  128.7440   60.9870 C   0  0  0  0  0  0  0  0  0  0  0  0
  130.1120  129.7080   60.0930 O   0  0  0  0  0  0  0  0  0  0  0  0
  130.6960  131.0000   60.1800 C   0  0  0  0  0  0  0  0  0  0  0  0
  130.6420  131.6660   58.8140 C   0  0  0  0  0  0  0  0  0  0  0  0
  129.4600  132.2800   58.3870 C   0  0  0  0  0  0  0  0  0  0  0  0
  129.3970  132.8710   57.1280 C   0  0  0  0  0  0  0  0  0  0  0  0
  130.5170  132.8480   56.2990 C   0  0  0  0  0  0  0  0  0  0  0  0
  131.7000  132.2450   56.7200 C   0  0  0  0  0  0  0  0  0  0  0  0
  131.7630  131.6500   57.9780 C   0  0  0  0  0  0  0  0  0  0  0  0
  129.2650  126.5660   61.2650 C   0  0  1  0  0  0  0  0  0  0  0  0
  129.9520  125.6730   62.1470 O   0  0  0  0  0  0  0  0  0  0  0  0
  131.3730  125.8030   62.2260 C   0  0  0  0  0  0  0  0  0  0  0  0
  132.0800  125.1610   61.0360 C   0  0  0  0  0  0  0  0  0  0  0  0
  131.8880  125.6720   59.7490 C   0  0  0  0  0  0  0  0  0  0  0  0
  132.5590  125.1050   58.6690 C   0  0  0  0  0  0  0  0  0  0  0  0
  133.4160  124.0260   58.8780 C   0  0  0  0  0  0  0  0  0  0  0  0
  133.6080  123.5090   60.1580 C   0  0  0  0  0  0  0  0  0  0  0  0
  132.9390  124.0780   61.2390 C   0  0  0  0  0  0  0  0  0  0  0  0
  127.7490  126.4210   61.3180 C   0  0  2  0  0  0  0  0  0  0  0  0
  127.3210  125.3610   60.4660 O   0  0  0  0  0  0  0  0  0  0  0  0
  126.8160  124.2100   61.1250 C   0  0  0  0  0  0  0  0  0  0  0  0
  127.9600  123.2270   61.3090 C   0  0  0  0  0  0  0  0  0  0  0  0
  128.5090  122.5690   60.2050 C   0  0  0  0  0  0  0  0  0  0  0  0
  129.5440  121.6560   60.3880 C   0  0  0  0  0  0  0  0  0  0  0  0
  130.0250  121.4040   61.6710 C   0  0  0  0  0  0  0  0  0  0  0  0
  129.4830  122.0580   62.7750 C   0  0  0  0  0  0  0  0  0  0  0  0
  128.4490  122.9710   62.5940 C   0  0  0  0  0  0  0  0  0  0  0  0
  126.3600  126.2110   58.0520 C   0  0  0  0  0  0  0  0  0  0  0  0
  127.5280  125.7290   57.4440 C   0  0  0  0  0  0  0  0  0  0  0  0
  127.5470  124.4730   56.8480 C   0  0  0  0  0  0  0  0  0  0  0  0
  126.3990  123.6720   56.8330 C   0  0  0  0  0  0  0  0  0  0  0  0
  126.4140  122.3440   56.1720 N   0  0  0  0  0  0  0  0  0  0  0  0
  127.4330  121.9900   55.5840 O   0  0  0  0  0  0  0  0  0  0  0  0
  125.4090  121.6410   56.2410 O   0  0  0  0  0  0  0  0  0  0  0  0
  125.2340  124.1520   57.4460 C   0  0  0  0  0  0  0  0  0  0  0  0
  125.2160  125.4050   58.0500 C   0  0  0  0  0  0  0  0  0  0  0  0
  126.3174  128.0880   61.0788 H   0  0  0  0  0  0  0  0  0  0  0  0
  129.8046  128.0262   62.7618 H   0  0  0  0  0  0  0  0  0  0  0  0
  131.2902  129.2476   61.7297 H   0  0  0  0  0  0  0  0  0  0  0  0
  131.2582  128.0168   60.4248 H   0  0  0  0  0  0  0  0  0  0  0  0
  130.1383  131.6076   60.9079 H   0  0  0  0  0  0  0  0  0  0  0  0
  131.7426  130.9113   60.5069 H   0  0  0  0  0  0  0  0  0  0  0  0
  128.5797  132.2959   59.0463 H   0  0  0  0  0  0  0  0  0  0  0  0
  128.4682  133.3535   56.7895 H   0  0  0  0  0  0  0  0  0  0  0  0
  130.4663  133.3106   55.3023 H   0  0  0  0  0  0  0  0  0  0  0  0
  132.5811  132.2387   56.0616 H   0  0  0  0  0  0  0  0  0  0  0  0
  132.6933  131.1682   58.3134 H   0  0  0  0  0  0  0  0  0  0  0  0
  129.6493  126.3242   60.2631 H   0  0  0  0  0  0  0  0  0  0  0  0
  131.6294  126.8723   62.2551 H   0  0  0  0  0  0  0  0  0  0  0  0
  131.7084  125.2847   63.1365 H   0  0  0  0  0  0  0  0  0  0  0  0
  131.2073  126.5213   59.5898 H   0  0  0  0  0  0  0  0  0  0  0  0
  132.4134  125.5068   57.6554 H   0  0  0  0  0  0  0  0  0  0  0  0
  133.9460  123.5781   58.0245 H   0  0  0  0  0  0  0  0  0  0  0  0
  134.2846  122.6558   60.3137 H   0  0  0  0  0  0  0  0  0  0  0  0
  133.0868  123.6750   62.2518 H   0  0  0  0  0  0  0  0  0  0  0  0
  127.3086  126.1563   62.2906 H   0  0  0  0  0  0  0  0  0  0  0  0
  126.4065  124.4924   62.1061 H   0  0  0  0  0  0  0  0  0  0  0  0
  126.0141  123.7517   60.5276 H   0  0  0  0  0  0  0  0  0  0  0  0
  128.1245  122.7718   59.1945 H   0  0  0  0  0  0  0  0  0  0  0  0
  129.9804  121.1355   59.5227 H   0  0  0  0  0  0  0  0  0  0  0  0
  130.8415  120.6809   61.8137 H   0  0  0  0  0  0  0  0  0  0  0  0
  129.8703  121.8538   63.7841 H   0  0  0  0  0  0  0  0  0  0  0  0
  128.0163  123.4913   63.4612 H   0  0  0  0  0  0  0  0  0  0  0  0
  128.4363  126.3494   57.4385 H   0  0  0  0  0  0  0  0  0  0  0  0
  128.4737  124.1049   56.3835 H   0  0  0  0  0  0  0  0  0  0  0  0
  124.3252  123.5322   57.4497 H   0  0  0  0  0  0  0  0  0  0  0  0
  124.2944  125.7654   58.5303 H   0  0  0  0  0  0  0  0  0  0  0  0
  1  2  2  0
  2  3  1  0
  3  4  1  0
  4  5  1  0
  5  6  1  0
  6  7  1  0
  7  8  1  0
  8  9  1  0
  9 10  1  0
 10 11  2  0
 11 12  1  0
 12 13  2  0
 13 14  1  0
 14 15  2  0
  6 16  1  0
 16 17  1  0
 17 18  1  0
 18 19  1  0
 19 20  2  0
 20 21  1  0
 21 22  2  0
 22 23  1  0
 23 24  2  0
 16 25  1  0
 25 26  1  0
 26 27  1  0
 27 28  1  0
 28 29  2  0
 29 30  1  0
 30 31  2  0
 31 32  1  0
 32 33  2  0
  2 34  1  0
 34 35  2  0
 35 36  1  0
 36 37  2  0
 37 38  1  0
 38 39  2  0
 38 40  1  0
 37 41  1  0
 41 42  2  0
 25  4  1  0
 33 28  1  0
 42 34  1  0
 15 10  1  0
 24 19  1  0
  4 43  1  6
  6 44  1  1
  7 45  1  0
  7 46  1  0
  9 47  1  0
  9 48  1  0
 11 49  1  0
 12 50  1  0
 13 51  1  0
 14 52  1  0
 15 53  1  0
 16 54  1  6
 18 55  1  0
 18 56  1  0
 20 57  1  0
 21 58  1  0
 22 59  1  0
 23 60  1  0
 24 61  1  0
 25 62  1  1
 27 63  1  0
 27 64  1  0
 29 65  1  0
 30 66  1  0
 31 67  1  0
 32 68  1  0
 33 69  1  0
 35 70  1  0
 36 71  1  0
 41 72  1  0
 42 73  1  0
M  CHG  2  38   1  40  -1
M  END
>  <Binding energies>  (1) 
[-9.23]

>  <Ligand effiencies>  (1) 
[-0.21976190476190477]

>  <Interactions>  (1) 
["V-A:LEU:363:CD1:3189, V-A:ASP:366:CG:3213, V-A:PRO:540:CA:4883, V-A:PRO:540:CB:4885, V-A:ASP:366:CB:3212, V-B:TYR:539:CZ:9849, V-B:PRO:540:N:9856, V-B:PRO:540:CA:9855, V-B:TYR:539:CE2:9848, H-B:TYR:539:N:9842, V-B:ASP:366:CB:8183, H-B:TYR:531:OH:9767, V-B:PRO:540:CD:9859, V-B:ASP:366:CG:8184, V-B:MET:535:CE:9807, V-B:LEU:363:CD1:8160, V-B:TYR:539:C:9839, V-B:TYR:539:CD2:9846, V-B:TYR:531:CE2:9765, V-B:ALA:541:CB:9864, V-A:ASP:366:CA:3210, V-A:ILE:369:CD1:3239, V-B:GLU:543:CG:9879, V-A:ILE:369:CB:3236, V-A:ILE:369:CG2:3237, V-A:LEU:475:CD2:4259, V-B:ILE:538:CG2:9835, V-A:ILE:538:CA:4860, V-A:ILE:538:CG2:4863, V-A:ILE:538:CB:4862, V-B:ILE:538:CA:9832"]

$$$$
RR9_Rahimova_2017
     RDKit          3D

 64 68  0  0  0  0  0  0  0  0999 V2000
  129.8820  127.5800   73.1230 C   0  0  0  0  0  0  0  0  0  0  0  0
  129.5770  128.8310   72.2930 C   0  0  0  0  0  0  0  0  0  0  0  0
  128.6570  128.4820   71.2620 O   0  0  0  0  0  0  0  0  0  0  0  0
  129.0990  127.7470   70.1790 C   0  0  0  0  0  0  0  0  0  0  0  0
  130.4130  127.9660   69.7710 C   0  0  0  0  0  0  0  0  0  0  0  0
  130.9450  127.2720   68.6890 C   0  0  0  0  0  0  0  0  0  0  0  0
  130.1740  126.3370   67.9810 C   0  0  0  0  0  0  0  0  0  0  0  0
  130.7400  125.5900   66.8110 C   0  0  0  0  0  0  0  0  0  0  0  0
  129.9570  124.7020   66.0560 C   0  0  0  0  0  0  0  0  0  0  0  0
  130.4880  124.0140   64.9510 C   0  0  0  0  0  0  0  0  0  0  0  0
  129.5720  123.1560   64.1210 C   0  0  0  0  0  0  0  0  0  0  0  0
  129.6020  121.9300   64.2270 O   0  0  0  0  0  0  0  0  0  0  0  0
  128.7650  123.8160   63.2670 N   0  0  0  0  0  0  0  0  0  0  0  0
  127.8840  123.2020   62.2690 C   0  0  0  0  0  0  0  0  0  0  0  0
  128.5050  123.1670   60.8530 C   0  0  0  0  0  0  0  0  0  0  0  0
  127.4980  123.2670   59.7130 C   0  0  0  0  0  0  0  0  0  0  0  0
  127.8050  122.7350   58.4560 C   0  0  0  0  0  0  0  0  0  0  0  0
  126.8690  122.7970   57.4270 C   0  0  0  0  0  0  0  0  0  0  0  0
  125.6320  123.3940   57.6560 C   0  0  0  0  0  0  0  0  0  0  0  0
  125.3200  123.9310   58.9040 C   0  0  0  0  0  0  0  0  0  0  0  0
  126.2560  123.8680   59.9340 C   0  0  0  0  0  0  0  0  0  0  0  0
  131.8580  124.2420   64.6700 C   0  0  0  0  0  0  0  0  0  0  0  0
  132.8640  123.7960   63.7350 C   0  0  0  0  0  0  0  0  0  0  0  0
  132.7740  122.7550   62.6680 C   0  0  0  0  0  0  0  0  0  0  0  0
  131.5950  122.6040   61.9320 C   0  0  0  0  0  0  0  0  0  0  0  0
  131.5070  121.6220   60.9480 C   0  0  0  0  0  0  0  0  0  0  0  0
  132.5990  120.7910   60.6940 C   0  0  0  0  0  0  0  0  0  0  0  0
  132.4970  119.7080   59.6350 C   0  0  0  0  0  0  0  0  0  0  0  0
  133.7770  120.9380   61.4280 C   0  0  0  0  0  0  0  0  0  0  0  0
  133.8640  121.9210   62.4090 C   0  0  0  0  0  0  0  0  0  0  0  0
  133.9960  124.4320   63.9370 N   0  0  0  0  0  0  0  0  0  0  0  0
  133.8310  125.2440   64.9940 N   0  0  0  0  0  0  0  0  0  0  0  0
  132.5510  125.1620   65.4910 C   0  0  0  0  0  0  0  0  0  0  0  0
  132.0520  125.8260   66.5330 N   0  0  0  0  0  0  0  0  0  0  0  0
  128.8520  126.1240   68.3970 C   0  0  0  0  0  0  0  0  0  0  0  0
  128.3180  126.8160   69.4810 C   0  0  0  0  0  0  0  0  0  0  0  0
  129.8219  127.8265   74.1933 H   0  0  0  0  0  0  0  0  0  0  0  0
  129.1490  126.7949   72.8858 H   0  0  0  0  0  0  0  0  0  0  0  0
  130.8941  127.2204   72.8858 H   0  0  0  0  0  0  0  0  0  0  0  0
  129.1343  129.6043   72.9380 H   0  0  0  0  0  0  0  0  0  0  0  0
  130.5048  129.2228   71.8507 H   0  0  0  0  0  0  0  0  0  0  0  0
  131.0361  128.6950   70.3098 H   0  0  0  0  0  0  0  0  0  0  0  0
  131.9852  127.4588   68.3839 H   0  0  0  0  0  0  0  0  0  0  0  0
  128.9053  124.5412   66.3352 H   0  0  0  0  0  0  0  0  0  0  0  0
  128.7480  124.8240   63.3120 H   0  0  0  0  0  0  0  0  0  0  0  0
  127.6661  122.1701   62.5816 H   0  0  0  0  0  0  0  0  0  0  0  0
  126.9729  123.8158   62.2131 H   0  0  0  0  0  0  0  0  0  0  0  0
  129.2063  124.0099   60.7655 H   0  0  0  0  0  0  0  0  0  0  0  0
  128.9924  122.1861   60.7518 H   0  0  0  0  0  0  0  0  0  0  0  0
  128.7854  122.2679   58.2807 H   0  0  0  0  0  0  0  0  0  0  0  0
  127.1055  122.3766   56.4384 H   0  0  0  0  0  0  0  0  0  0  0  0
  124.8927  123.4424   56.8429 H   0  0  0  0  0  0  0  0  0  0  0  0
  124.3405  124.4017   59.0745 H   0  0  0  0  0  0  0  0  0  0  0  0
  126.0174  124.2912   60.9209 H   0  0  0  0  0  0  0  0  0  0  0  0
  130.7357  123.2615   62.1302 H   0  0  0  0  0  0  0  0  0  0  0  0
  130.5778  121.5017   60.3718 H   0  0  0  0  0  0  0  0  0  0  0  0
  132.4045  118.7262   60.1223 H   0  0  0  0  0  0  0  0  0  0  0  0
  131.6121  119.8908   59.0077 H   0  0  0  0  0  0  0  0  0  0  0  0
  133.4005  119.7223   59.0077 H   0  0  0  0  0  0  0  0  0  0  0  0
  134.6349  120.2781   61.2314 H   0  0  0  0  0  0  0  0  0  0  0  0
  134.7948  122.0417   62.9827 H   0  0  0  0  0  0  0  0  0  0  0  0
  134.5930  125.8170   65.3270 H   0  0  0  0  0  0  0  0  0  0  0  0
  128.2260  125.3978   67.8578 H   0  0  0  0  0  0  0  0  0  0  0  0
  127.2788  126.6311   69.7907 H   0  0  0  0  0  0  0  0  0  0  0  0
  1  2  1  0
  2  3  1  0
  3  4  1  0
  4  5  2  0
  5  6  1  0
  6  7  2  0
  7  8  1  0
  8  9  2  0
  9 10  1  0
 10 11  1  0
 11 12  2  0
 11 13  1  0
 13 14  1  0
 14 15  1  0
 15 16  1  0
 16 17  2  0
 17 18  1  0
 18 19  2  0
 19 20  1  0
 20 21  2  0
 10 22  2  0
 22 23  1  0
 23 24  1  0
 24 25  2  0
 25 26  1  0
 26 27  2  0
 27 28  1  0
 27 29  1  0
 29 30  2  0
 23 31  2  0
 31 32  1  0
 32 33  1  0
 33 34  2  0
  7 35  1  0
 35 36  2  0
 36  4  1  0
 34  8  1  0
 21 16  1  0
 33 22  1  0
 30 24  1  0
  1 37  1  0
  1 38  1  0
  1 39  1  0
  2 40  1  0
  2 41  1  0
  5 42  1  0
  6 43  1  0
  9 44  1  0
 13 45  1  0
 14 46  1  0
 14 47  1  0
 15 48  1  0
 15 49  1  0
 17 50  1  0
 18 51  1  0
 19 52  1  0
 20 53  1  0
 21 54  1  0
 25 55  1  0
 26 56  1  0
 28 57  1  0
 28 58  1  0
 28 59  1  0
 29 60  1  0
 30 61  1  0
 32 62  1  0
 35 63  1  0
 36 64  1  0
M  END
>  <Binding energies>  (1) 
[-9.07]

>  <Ligand effiencies>  (1) 
[-0.2386842105263158]

>  <Interactions>  (1) 
["V-B:PRO:540:N:9856, V-B:PRO:540:CB:9857, V-B:PRO:540:CA:9855, V-B:TYR:539:CE2:9848, V-B:PRO:540:CD:9859, V-B:TYR:539:C:9839, V-B:TYR:539:CG:9844, H-B:GLU:543:OE1:9881, V-B:TYR:539:CD2:9846, V-B:ALA:541:CB:9864, V-A:ILE:369:CD1:3239, V-B:GLU:543:CG:9879, V-A:ILE:369:CG2:3237, V-A:LEU:475:CD2:4259, V-A:GLY:453:CA:4044, V-B:GLU:543:CB:9878, H-A:TYR:484:OH:4348, V-A:TYR:484:CE2:4346, H-A:ARG:545:NE:4924, V-A:GLY:454:CA:4049, V-A:ARG:545:CZ:4926, V-B:GLU:543:CD:9880, V-B:HIS:456:CE1:9041, V-B:GLU:543:C:9874, V-B:HIS:456:CD2:9039, V-A:HIS:456:CE1:4070, V-A:GLU:543:C:4902, V-A:GLU:543:CB:4906, V-A:ARG:545:CG:4922, H-A:ARG:545:NH2:4928, V-B:GLU:543:CA:9876, H-A:GLY:454:N:4050, V-A:ARG:545:CD:4923, V-A:SER:385:CA:3407, V-A:SER:385:CB:3409, V-A:SER:385:C:3405"]

$$$$
