1a_Ghoteimi_2023
     RDKit          3D

 40 43  0  0  0  0  0  0  0  0999 V2000
  128.6960  132.4010   56.2960 C   0  0  0  0  0  0  0  0  0  0  0  0
  130.0930  132.6040   55.7030 C   0  0  0  0  0  0  0  0  0  0  0  0
  130.9800  133.0430   56.7250 O   0  0  0  0  0  0  0  0  0  0  0  0
  131.9430  132.2220   57.2180 C   0  0  0  0  0  0  0  0  0  0  0  0
  133.1150  132.2380   56.8310 O   0  0  0  0  0  0  0  0  0  0  0  0
  131.4400  131.2940   58.2860 C   0  0  0  0  0  0  0  0  0  0  0  0
  131.6440  131.5520   59.6500 C   0  0  0  0  0  0  0  0  0  0  0  0
  131.1680  130.6720   60.6180 C   0  0  0  0  0  0  0  0  0  0  0  0
  130.4730  129.5140   60.2370 C   0  0  0  0  0  0  0  0  0  0  0  0
  129.9540  128.5560   61.1290 N   0  0  0  0  0  0  0  0  0  0  0  0
  130.4060  127.3180   61.4280 C   0  0  0  0  0  0  0  0  0  0  0  0
  131.4150  126.7910   60.9590 O   0  0  0  0  0  0  0  0  0  0  0  0
  129.5710  126.5420   62.4460 C   0  0  0  0  0  0  0  0  0  0  0  0
  130.4930  125.1420   63.1460 S   0  0  0  0  0  0  0  0  0  0  0  0
  130.2120  123.7670   62.0540 C   0  0  0  0  0  0  0  0  0  0  0  0
  129.1460  123.9260   61.2340 N   0  0  0  0  0  0  0  0  0  0  0  0
  128.8250  122.9490   60.3460 C   0  0  0  0  0  0  0  0  0  0  0  0
  127.6420  123.2090   59.4580 C   0  0  0  0  0  0  0  0  0  0  0  0
  126.4430  123.7270   59.9730 C   0  0  0  0  0  0  0  0  0  0  0  0
  125.3490  123.9670   59.1470 C   0  0  0  0  0  0  0  0  0  0  0  0
  125.4170  123.6970   57.7830 C   0  0  0  0  0  0  0  0  0  0  0  0
  124.2840  123.9690   57.0390 O   0  0  0  0  0  0  0  0  0  0  0  0
  123.2310  124.7210   57.6300 C   0  0  0  0  0  0  0  0  0  0  0  0
  126.6060  123.1760   57.2540 C   0  0  0  0  0  0  0  0  0  0  0  0
  127.6980  122.9360   58.0820 C   0  0  0  0  0  0  0  0  0  0  0  0
  129.5860  121.7760   60.2720 C   0  0  0  0  0  0  0  0  0  0  0  0
  130.6790  121.5780   61.1270 C   0  0  0  0  0  0  0  0  0  0  0  0
  131.4260  120.2890   61.0140 C   0  0  0  0  0  0  0  0  0  0  0  0
  130.7710  119.0640   61.1790 C   0  0  0  0  0  0  0  0  0  0  0  0
  131.4710  117.8670   61.0570 C   0  0  0  0  0  0  0  0  0  0  0  0
  132.8340  117.8690   60.7600 C   0  0  0  0  0  0  0  0  0  0  0  0
  133.4440  116.6350   60.6570 O   0  0  0  0  0  0  0  0  0  0  0  0
  132.7530  115.4780   61.1160 C   0  0  0  0  0  0  0  0  0  0  0  0
  133.4920  119.0960   60.5850 C   0  0  0  0  0  0  0  0  0  0  0  0
  132.7900  120.2930   60.7090 C   0  0  0  0  0  0  0  0  0  0  0  0
  131.0090  122.6030   62.0460 C   0  0  0  0  0  0  0  0  0  0  0  0
  132.1510  122.4600   62.9560 C   0  0  0  0  0  0  0  0  0  0  0  0
  133.0520  122.3460   63.6730 N   0  0  0  0  0  0  0  0  0  0  0  0
  130.2720  129.2520   58.8820 C   0  0  0  0  0  0  0  0  0  0  0  0
  130.7480  130.1340   57.9150 C   0  0  0  0  0  0  0  0  0  0  0  0
  1  2  1  0
  2  3  1  0
  3  4  1  0
  4  5  2  0
  4  6  1  0
  6  7  2  0
  7  8  1  0
  8  9  2  0
  9 10  1  0
 10 11  1  0
 11 12  2  0
 11 13  1  0
 13 14  1  0
 14 15  1  0
 15 16  2  0
 16 17  1  0
 17 18  1  0
 18 19  2  0
 19 20  1  0
 20 21  2  0
 21 22  1  0
 22 23  1  0
 21 24  1  0
 24 25  2  0
 17 26  2  0
 26 27  1  0
 27 28  1  0
 28 29  2  0
 29 30  1  0
 30 31  2  0
 31 32  1  0
 32 33  1  0
 31 34  1  0
 34 35  2  0
 27 36  2  0
 36 37  1  0
 37 38  3  0
  9 39  1  0
 39 40  2  0
 40  6  1  0
 36 15  1  0
 25 18  1  0
 35 28  1  0
M  END
>  <Binding energies>  (1) 
[-10.1]

>  <Ligand effiencies>  (1) 
[-0.24634146341463414]

>  <Interactions>  (1) 
["H-A:TYR:539:N:4868, V-A:TYR:539:CD1:4871, V-A:PRO:540:N:4882, V-A:MET:535:CE:4833, V-A:ILE:538:CG2:4861, V-A:PRO:540:CD:4885, V-A:PRO:540:CA:4881, V-A:TYR:539:CE1:4873, V-A:ILE:538:CB:4860, V-A:PRO:540:CB:4883, V-A:TYR:539:CZ:4875, V-B:TYR:539:CE1:9847, V-B:TYR:539:CD1:9845, V-B:TYR:531:CE2:9765, V-B:PRO:540:CA:9855, V-B:LEU:363:CD1:8160, V-B:PRO:540:N:9856, V-B:TYR:539:C:9839, V-B:TYR:531:CZ:9766, V-B:PRO:540:CB:9857, V-A:LEU:475:CD2:4256, V-A:LEU:373:CD1:3277, V-A:PRO:482:CB:4323, V-A:PRO:482:CG:4324, H-A:GLU:543:OE1:4907, H-A:ARG:545:NH2:4926, V-B:LEU:363:CB:8158, V-B:LEU:363:CA:8156, V-B:ASP:366:CB:8183, V-B:ASP:366:CG:8184, V-A:ILE:369:CG2:3234, V-A:TYR:539:CD2:4872, V-A:TYR:539:CE2:4874, H-B:TYR:531:OH:9767, V-A:TYR:539:CG:4870, H-A:GLY:454:N:4047, H-A:TYR:484:OH:4345, V-A:ILE:538:CA:4858, V-A:SER:385:CA:3404, V-A:SER:385:CB:3406, V-A:SER:385:C:3402, V-A:ILE:538:C:4856, H-A:SER:385:N:3405, V-B:LEU:363:C:8154"]

$$$$
1b_Ghoteimi_2023
     RDKit          3D

 34 37  0  0  0  0  0  0  0  0999 V2000
  125.2820  140.6400   61.9350 C   0  0  0  0  0  0  0  0  0  0  0  0
  124.5110  139.5590   61.4230 O   0  0  0  0  0  0  0  0  0  0  0  0
  125.0490  138.2860   61.4290 C   0  0  0  0  0  0  0  0  0  0  0  0
  124.2010  137.2480   61.0470 C   0  0  0  0  0  0  0  0  0  0  0  0
  124.6540  135.9330   61.0240 C   0  0  0  0  0  0  0  0  0  0  0  0
  125.9740  135.6150   61.3790 C   0  0  0  0  0  0  0  0  0  0  0  0
  126.4600  134.1920   61.3550 C   0  0  0  0  0  0  0  0  0  0  0  0
  127.7450  133.8340   60.9350 C   0  0  0  0  0  0  0  0  0  0  0  0
  128.1500  132.4930   60.9360 C   0  0  0  0  0  0  0  0  0  0  0  0
  129.5350  132.1840   60.4700 C   0  0  0  0  0  0  0  0  0  0  0  0
  129.8500  132.2380   59.1090 C   0  0  0  0  0  0  0  0  0  0  0  0
  131.1370  131.9430   58.6690 C   0  0  0  0  0  0  0  0  0  0  0  0
  132.1320  131.5820   59.5780 C   0  0  0  0  0  0  0  0  0  0  0  0
  133.3790  131.3060   59.0500 O   0  0  0  0  0  0  0  0  0  0  0  0
  133.5140  131.1310   57.6440 C   0  0  0  0  0  0  0  0  0  0  0  0
  131.8180  131.5180   60.9440 C   0  0  0  0  0  0  0  0  0  0  0  0
  130.5300  131.8140   61.3800 C   0  0  0  0  0  0  0  0  0  0  0  0
  127.2320  131.5120   61.3830 C   0  0  0  0  0  0  0  0  0  0  0  0
  127.6380  130.1080   61.4940 C   0  0  0  0  0  0  0  0  0  0  0  0
  127.9600  128.9990   61.5810 N   0  0  0  0  0  0  0  0  0  0  0  0
  125.9430  131.9390   61.7740 C   0  0  0  0  0  0  0  0  0  0  0  0
  124.6600  130.8480   62.3540 S   0  0  0  0  0  0  0  0  0  0  0  0
  123.3740  130.7580   61.0640 C   0  0  0  0  0  0  0  0  0  0  0  0
  123.8980  130.7760   59.6200 C   0  0  0  0  0  0  0  0  0  0  0  0
  123.3980  131.5250   58.7780 O   0  0  0  0  0  0  0  0  0  0  0  0
  124.9170  129.9210   59.3810 N   0  0  0  0  0  0  0  0  0  0  0  0
  125.5860  129.7250   58.1780 C   0  0  0  0  0  0  0  0  0  0  0  0
  126.9700  129.8300   58.0510 C   0  0  0  0  0  0  0  0  0  0  0  0
  127.2290  129.5690   56.7240 C   0  0  0  0  0  0  0  0  0  0  0  0
  126.0600  129.3170   56.0870 O   0  0  0  0  0  0  0  0  0  0  0  0
  125.0260  129.4190   57.0190 N   0  0  0  0  0  0  0  0  0  0  0  0
  125.5820  133.2450   61.7770 N   0  0  0  0  0  0  0  0  0  0  0  0
  126.8190  136.6680   61.7640 C   0  0  0  0  0  0  0  0  0  0  0  0
  126.3690  137.9840   61.7890 C   0  0  0  0  0  0  0  0  0  0  0  0
  1  2  1  0
  2  3  1  0
  3  4  2  0
  4  5  1  0
  5  6  2  0
  6  7  1  0
  7  8  2  0
  8  9  1  0
  9 10  1  0
 10 11  2  0
 11 12  1  0
 12 13  2  0
 13 14  1  0
 14 15  1  0
 13 16  1  0
 16 17  2  0
  9 18  2  0
 18 19  1  0
 19 20  3  0
 18 21  1  0
 21 22  1  0
 22 23  1  0
 23 24  1  0
 24 25  2  0
 24 26  1  0
 26 27  1  0
 27 28  1  0
 28 29  2  0
 29 30  1  0
 30 31  1  0
 21 32  2  0
  6 33  1  0
 33 34  2  0
 34  3  1  0
 32  7  1  0
 17 10  1  0
 31 27  2  0
M  END
>  <Binding energies>  (2) 
[-9.3]

>  <Ligand effiencies>  (2) 
[-0.26571428571428574]

>  <Interactions>  (2) 
["V-A:TYR:539:CD1:4871, V-A:PRO:540:N:4882, V-A:MET:535:CE:4833, V-A:LEU:363:CD1:3186, V-A:PRO:540:CA:4881, V-A:TYR:531:CE2:4791, V-A:TYR:539:CE1:4873, V-B:LEU:475:CD2:9230, V-A:PRO:540:CB:4883, V-A:TYR:539:C:4865, V-A:ASP:366:CB:3209, V-A:PRO:540:C:4879, V-A:ASP:366:CG:3210, V-B:ASP:366:CB:8183, V-B:ASP:366:CG:8184, H-B:TYR:531:OH:9767, H-B:ASP:366:OD1:8185, H-A:TYR:539:OH:4876, H-B:ASP:366:OD2:8186, V-B:ILE:369:CD1:8210, V-B:SER:385:CB:8380, V-B:PRO:482:CG:9298, V-B:ILE:369:CG2:8208, V-B:LEU:373:CD1:8251, V-B:PRO:482:CB:9297, V-B:SER:385:CA:8378, V-A:LEU:363:CA:3182, V-B:ASP:366:CA:8181, V-B:ILE:369:CB:8207, V-B:THR:477:CA:9241, V-B:HIS:383:CG:8361, V-B:HIS:383:CB:8360, V-B:VAL:384:C:8368"]

$$$$
1c_Ghoteimi_2023
     RDKit          3D

 34 37  0  0  0  0  0  0  0  0999 V2000
  124.0160  124.3650   57.4150 C   0  0  0  0  0  0  0  0  0  0  0  0
  124.1090  123.9660   58.7780 O   0  0  0  0  0  0  0  0  0  0  0  0
  125.3450  123.6400   59.3040 C   0  0  0  0  0  0  0  0  0  0  0  0
  126.3170  123.2200   58.4000 C   0  0  0  0  0  0  0  0  0  0  0  0
  127.5900  122.8690   58.8420 C   0  0  0  0  0  0  0  0  0  0  0  0
  127.9270  122.9260   60.2030 C   0  0  0  0  0  0  0  0  0  0  0  0
  129.2970  122.5430   60.6850 C   0  0  0  0  0  0  0  0  0  0  0  0
  129.7810  121.2320   60.6230 C   0  0  0  0  0  0  0  0  0  0  0  0
  131.0760  120.9280   61.0590 C   0  0  0  0  0  0  0  0  0  0  0  0
  131.5510  119.5210   60.9020 C   0  0  0  0  0  0  0  0  0  0  0  0
  130.7530  118.4500   61.3150 C   0  0  0  0  0  0  0  0  0  0  0  0
  131.2060  117.1410   61.1870 C   0  0  0  0  0  0  0  0  0  0  0  0
  132.4660  116.8770   60.6500 C   0  0  0  0  0  0  0  0  0  0  0  0
  132.8330  115.5470   60.5610 O   0  0  0  0  0  0  0  0  0  0  0  0
  132.0610  114.5670   61.2480 C   0  0  0  0  0  0  0  0  0  0  0  0
  133.2730  117.9500   60.2400 C   0  0  0  0  0  0  0  0  0  0  0  0
  132.8170  119.2590   60.3690 C   0  0  0  0  0  0  0  0  0  0  0  0
  131.8700  121.9710   61.5910 C   0  0  0  0  0  0  0  0  0  0  0  0
  133.2230  121.7120   62.0960 C   0  0  0  0  0  0  0  0  0  0  0  0
  134.2900  121.5050   62.4930 N   0  0  0  0  0  0  0  0  0  0  0  0
  131.3270  123.2720   61.6070 C   0  0  0  0  0  0  0  0  0  0  0  0
  132.2700  124.7030   62.0880 S   0  0  0  0  0  0  0  0  0  0  0  0
  133.6730  124.7480   60.9260 C   0  0  0  0  0  0  0  0  0  0  0  0
  133.2270  124.5450   59.4730 C   0  0  0  0  0  0  0  0  0  0  0  0
  133.9050  123.8420   58.7220 O   0  0  0  0  0  0  0  0  0  0  0  0
  132.0630  125.1440   59.1390 N   0  0  0  0  0  0  0  0  0  0  0  0
  131.3660  124.9940   57.9510 C   0  0  0  0  0  0  0  0  0  0  0  0
  130.1860  124.4410   57.7700 N   0  0  0  0  0  0  0  0  0  0  0  0
  129.8080  124.5090   56.5090 C   0  0  0  0  0  0  0  0  0  0  0  0
  130.6930  125.1320   55.6340 C   0  0  0  0  0  0  0  0  0  0  0  0
  132.0950  125.6510   56.5210 S   0  0  0  0  0  0  0  0  0  0  0  0
  130.0790  123.5480   61.1580 N   0  0  0  0  0  0  0  0  0  0  0  0
  126.9420  123.3560   61.1030 C   0  0  0  0  0  0  0  0  0  0  0  0
  125.6680  123.7070   60.6660 C   0  0  0  0  0  0  0  0  0  0  0  0
  1  2  1  0
  2  3  1  0
  3  4  2  0
  4  5  1  0
  5  6  2  0
  6  7  1  0
  7  8  2  0
  8  9  1  0
  9 10  1  0
 10 11  2  0
 11 12  1  0
 12 13  2  0
 13 14  1  0
 14 15  1  0
 13 16  1  0
 16 17  2  0
  9 18  2  0
 18 19  1  0
 19 20  3  0
 18 21  1  0
 21 22  1  0
 22 23  1  0
 23 24  1  0
 24 25  2  0
 24 26  1  0
 26 27  1  0
 27 28  2  0
 28 29  1  0
 29 30  2  0
 30 31  1  0
 21 32  2  0
  6 33  1  0
 33 34  2  0
 34  3  1  0
 32  7  1  0
 17 10  1  0
 31 27  1  0
M  END
>  <Binding energies>  (3) 
[-8.58]

>  <Ligand effiencies>  (3) 
[-0.24514285714285713]

>  <Interactions>  (3) 
["V-A:TYR:531:CZ:4792, V-B:TYR:539:CE1:9847, V-B:TYR:539:CD1:9845, V-B:TYR:531:CE2:9765, V-A:ASP:366:CB:3209, V-B:PRO:540:CA:9855, V-B:MET:535:CE:9807, V-B:TYR:539:CZ:9849, V-B:LEU:363:CD1:8160, V-B:PRO:540:N:9856, V-B:TYR:539:C:9839, V-B:TYR:531:CZ:9766, V-B:PRO:540:CB:9857, V-A:LEU:475:CD2:4256, V-A:LEU:373:CD1:3277, V-B:PRO:540:C:9853, V-A:PRO:482:CB:4323, V-B:ALA:541:CB:9864, V-A:PRO:482:CG:4324, V-A:ASP:366:CG:3210, V-B:LEU:363:CA:8156, V-A:GLY:454:CA:4046, V-B:ASP:366:CB:8183, V-A:ASP:366:CA:3207, V-B:ASP:366:CG:8184, V-A:ILE:369:CD1:3236, H-B:TYR:539:OH:9850, V-A:ILE:369:CG2:3234, H-A:GLY:454:N:4047, V-A:SER:385:CA:3404, V-A:SER:385:CB:3406, H-A:ASP:366:OD1:3211, V-A:HIS:383:CG:3387, V-A:HIS:383:CB:3386, V-A:TYR:531:CE1:4790, V-A:THR:477:CA:4267"]

$$$$
1d_Ghoteimi_2023
     RDKit          3D

 30 32  0  0  0  0  0  0  0  0999 V2000
  127.4220  129.2730   66.6040 C   0  0  0  0  0  0  0  0  0  0  0  0
  126.0300  129.4830   66.4200 O   0  0  0  0  0  0  0  0  0  0  0  0
  125.5310  129.7350   65.1920 C   0  0  0  0  0  0  0  0  0  0  0  0
  124.3560  129.9820   64.9200 O   0  0  0  0  0  0  0  0  0  0  0  0
  126.6040  129.6780   64.1080 C   0  0  0  0  0  0  0  0  0  0  0  0
  125.7960  130.0390   62.5200 S   0  0  0  0  0  0  0  0  0  0  0  0
  126.5310  131.5310   61.8880 C   0  0  0  0  0  0  0  0  0  0  0  0
  127.7610  131.3490   61.3510 N   0  0  0  0  0  0  0  0  0  0  0  0
  128.4380  132.4060   60.8340 C   0  0  0  0  0  0  0  0  0  0  0  0
  129.7910  132.1180   60.2530 C   0  0  0  0  0  0  0  0  0  0  0  0
  130.8740  131.7580   61.0700 C   0  0  0  0  0  0  0  0  0  0  0  0
  132.1300  131.4980   60.5300 C   0  0  0  0  0  0  0  0  0  0  0  0
  132.3440  131.5900   59.1570 C   0  0  0  0  0  0  0  0  0  0  0  0
  133.6220  131.3170   58.7090 O   0  0  0  0  0  0  0  0  0  0  0  0
  133.8130  130.9220   57.3550 C   0  0  0  0  0  0  0  0  0  0  0  0
  131.2730  131.9490   58.3270 C   0  0  0  0  0  0  0  0  0  0  0  0
  130.0180  132.2070   58.8710 C   0  0  0  0  0  0  0  0  0  0  0  0
  127.8730  133.6870   60.8420 C   0  0  0  0  0  0  0  0  0  0  0  0
  126.6100  133.9070   61.4050 C   0  0  0  0  0  0  0  0  0  0  0  0
  126.0690  135.3010   61.3870 C   0  0  0  0  0  0  0  0  0  0  0  0
  124.7350  135.5340   61.0400 C   0  0  0  0  0  0  0  0  0  0  0  0
  124.2250  136.8290   61.0210 C   0  0  0  0  0  0  0  0  0  0  0  0
  125.0350  137.9150   61.3520 C   0  0  0  0  0  0  0  0  0  0  0  0
  124.4460  139.1640   61.2990 O   0  0  0  0  0  0  0  0  0  0  0  0
  125.1090  140.2710   61.9000 C   0  0  0  0  0  0  0  0  0  0  0  0
  126.3710  137.6850   61.7130 C   0  0  0  0  0  0  0  0  0  0  0  0
  126.8780  136.3880   61.7330 C   0  0  0  0  0  0  0  0  0  0  0  0
  125.9200  132.8030   61.9660 C   0  0  0  0  0  0  0  0  0  0  0  0
  124.6430  132.9930   62.6600 C   0  0  0  0  0  0  0  0  0  0  0  0
  123.6350  133.1450   63.2080 N   0  0  0  0  0  0  0  0  0  0  0  0
  1  2  1  0
  2  3  1  0
  3  4  2  0
  3  5  1  0
  5  6  1  0
  6  7  1  0
  7  8  2  0
  8  9  1  0
  9 10  1  0
 10 11  2  0
 11 12  1  0
 12 13  2  0
 13 14  1  0
 14 15  1  0
 13 16  1  0
 16 17  2  0
  9 18  2  0
 18 19  1  0
 19 20  1  0
 20 21  2  0
 21 22  1  0
 22 23  2  0
 23 24  1  0
 24 25  1  0
 23 26  1  0
 26 27  2  0
 19 28  2  0
 28 29  1  0
 29 30  3  0
 28  7  1  0
 17 10  1  0
 27 20  1  0
M  END
>  <Binding energies>  (4) 
[-8.31]

>  <Ligand effiencies>  (4) 
[-0.277]

>  <Interactions>  (4) 
["V-A:TYR:539:CD1:4871, V-A:PRO:540:N:4882, V-A:LEU:363:CD1:3186, V-A:PRO:540:CA:4881, V-A:TYR:531:CE2:4791, V-A:TYR:539:CE1:4873, V-A:GLU:543:CD:4906, V-B:LEU:475:CD2:9230, V-A:TYR:531:CZ:4792, V-A:PRO:540:CB:4883, V-A:TYR:539:C:4865, V-A:ASP:366:CB:3209, H-B:ARG:545:NH2:9900, V-A:PRO:540:C:4879, V-A:ASP:366:CG:3210, V-B:ARG:545:CZ:9898, V-B:HIS:456:CE1:9040, H-B:TYR:484:OH:9319, H-B:GLY:454:N:9021, V-B:GLY:454:CA:9020, H-B:ARG:545:NE:9896, V-B:SER:385:CB:8380, V-B:PRO:482:CG:9298, V-B:ILE:369:CG2:8208, V-B:LEU:373:CD1:8251, V-B:PRO:482:CB:9297, V-B:SER:385:CA:8378, V-A:LEU:363:CA:3182, V-A:LEU:363:CB:3184, V-B:THR:477:CA:9241, V-B:HIS:383:CG:8361, V-B:HIS:383:CB:8360, V-A:GLU:543:CB:4904"]

$$$$
1j_Grossjean_2025
     RDKit          3D

 20 21  0  0  0  0  0  0  0  0999 V2000
  125.4270  123.8640   62.6740 C   0  0  0  0  0  0  0  0  0  0  0  0
  125.8820  123.5430   61.2620 C   0  0  0  0  0  0  0  0  0  0  0  0
  125.0100  123.6260   60.1790 C   0  0  0  0  0  0  0  0  0  0  0  0
  125.4880  123.3320   58.8980 C   0  0  0  0  0  0  0  0  0  0  0  0
  124.5170  123.4460   57.7230 C   0  0  0  0  0  0  0  0  0  0  0  0
  126.8390  122.9500   58.7350 C   0  0  0  0  0  0  0  0  0  0  0  0
  127.3740  122.6890   57.3970 C   0  0  0  0  0  0  0  0  0  0  0  0
  127.7940  122.4840   56.3380 N   0  0  0  0  0  0  0  0  0  0  0  0
  127.6460  122.8670   59.8950 C   0  0  0  0  0  0  0  0  0  0  0  0
  129.3630  122.4020   59.8760 S   0  0  0  0  0  0  0  0  0  0  0  0
  129.7170  121.5300   61.4300 C   0  0  0  0  0  0  0  0  0  0  0  0
  130.8650  120.5300   61.2790 C   0  0  0  0  0  0  0  0  0  0  0  0
  132.0190  120.8970   61.5060 O   0  0  0  0  0  0  0  0  0  0  0  0
  130.5060  119.2840   60.8990 N   0  0  0  0  0  0  0  0  0  0  0  0
  131.3550  118.2070   60.6880 C   0  0  0  0  0  0  0  0  0  0  0  0
  132.6230  118.0990   61.0230 N   0  0  0  0  0  0  0  0  0  0  0  0
  133.1200  116.9310   60.6680 C   0  0  0  0  0  0  0  0  0  0  0  0
  132.2450  116.0580   60.0280 C   0  0  0  0  0  0  0  0  0  0  0  0
  130.6880  116.8180   59.8910 S   0  0  0  0  0  0  0  0  0  0  0  0
  127.1780  123.1760   61.1300 N   0  0  0  0  0  0  0  0  0  0  0  0
  1  2  1  0
  2  3  2  0
  3  4  1  0
  4  5  1  0
  4  6  2  0
  6  7  1  0
  7  8  3  0
  6  9  1  0
  9 10  1  0
 10 11  1  0
 11 12  1  0
 12 13  2  0
 12 14  1  0
 14 15  1  0
 15 16  2  0
 16 17  1  0
 17 18  2  0
 18 19  1  0
  9 20  2  0
 20  2  1  0
 19 15  1  0
M  END
>  <Binding energies>  (5) 
[-8.16]

>  <Ligand effiencies>  (5) 
[-0.38857142857142857]

>  <Interactions>  (5) 
["H-B:TYR:539:N:9842, V-B:TYR:539:CE1:9847, V-B:TYR:539:CD1:9845, V-B:PRO:540:CA:9855, V-B:ASN:362:CB:8147, V-B:LEU:363:CD1:8160, V-B:PRO:540:N:9856, V-B:TYR:539:C:9839, V-B:GLU:543:CD:9880, V-B:PRO:540:CB:9857, V-A:LEU:475:CD2:4256, V-A:LEU:373:CD1:3277, V-B:PRO:540:C:9853, V-B:ALA:541:CB:9864, V-A:PRO:482:CG:4324, H-B:ALA:541:N:9863, H-B:TYR:539:O:9840, V-B:ARG:545:CZ:9898, V-A:SER:385:CA:3404, V-A:SER:385:CB:3406, V-B:VAL:344:CG1:7972, V-B:TYR:539:CB:9843"]

$$$$
1o_Grossjean_2025
     RDKit          3D

 26 27  0  0  0  0  0  0  0  0999 V2000
  131.9350  113.8450   61.3690 C   0  0  0  0  0  0  0  0  0  0  0  0
  132.3350  114.4100   60.1280 O   0  0  0  0  0  0  0  0  0  0  0  0
  133.1730  115.4770   60.0830 C   0  0  0  0  0  0  0  0  0  0  0  0
  134.3770  115.3860   59.8220 O   0  0  0  0  0  0  0  0  0  0  0  0
  132.4910  116.7810   60.3780 C   0  0  0  0  0  0  0  0  0  0  0  0
  131.1030  116.8690   60.5600 C   0  0  0  0  0  0  0  0  0  0  0  0
  130.5010  118.0940   60.8360 C   0  0  0  0  0  0  0  0  0  0  0  0
  131.2700  119.2550   60.9300 C   0  0  0  0  0  0  0  0  0  0  0  0
  130.5610  120.4370   61.2210 N   0  0  0  0  0  0  0  0  0  0  0  0
  130.9390  121.5180   61.9380 C   0  0  0  0  0  0  0  0  0  0  0  0
  132.0470  121.6780   62.4510 O   0  0  0  0  0  0  0  0  0  0  0  0
  129.8810  122.6230   62.0750 C   0  0  0  0  0  0  0  0  0  0  0  0
  129.7830  123.5310   60.8320 C   0  0  0  0  0  0  0  0  0  0  0  0
  128.9030  122.7740   59.4340 S   0  0  0  0  0  0  0  0  0  0  0  0
  127.1620  123.1040   59.6180 C   0  0  0  0  0  0  0  0  0  0  0  0
  126.7760  123.2670   60.9090 N   0  0  0  0  0  0  0  0  0  0  0  0
  125.4750  123.5310   61.1720 C   0  0  0  0  0  0  0  0  0  0  0  0
  125.1230  123.7150   62.6370 C   0  0  0  0  0  0  0  0  0  0  0  0
  124.5110  123.6300   60.1710 C   0  0  0  0  0  0  0  0  0  0  0  0
  124.8920  123.4390   58.8390 C   0  0  0  0  0  0  0  0  0  0  0  0
  123.8140  123.5390   57.7610 C   0  0  0  0  0  0  0  0  0  0  0  0
  126.2450  123.1580   58.5400 C   0  0  0  0  0  0  0  0  0  0  0  0
  126.6510  122.8960   57.1580 C   0  0  0  0  0  0  0  0  0  0  0  0
  126.9700  122.6900   56.0640 N   0  0  0  0  0  0  0  0  0  0  0  0
  132.6600  119.1740   60.7550 C   0  0  0  0  0  0  0  0  0  0  0  0
  133.2590  117.9480   60.4800 C   0  0  0  0  0  0  0  0  0  0  0  0
  1  2  1  0
  2  3  1  0
  3  4  2  0
  3  5  1  0
  5  6  2  0
  6  7  1  0
  7  8  2  0
  8  9  1  0
  9 10  1  0
 10 11  2  0
 10 12  1  0
 12 13  1  0
 13 14  1  0
 14 15  1  0
 15 16  2  0
 16 17  1  0
 17 18  1  0
 17 19  2  0
 19 20  1  0
 20 21  1  0
 20 22  2  0
 22 23  1  0
 23 24  3  0
  8 25  1  0
 25 26  2  0
 26  5  1  0
 22 15  1  0
M  END
>  <Binding energies>  (6) 
[-9.21]

>  <Ligand effiencies>  (6) 
[-0.34111111111111114]

>  <Interactions>  (6) 
["H-B:TYR:539:N:9842, V-B:TYR:539:CE1:9847, V-B:TYR:539:CD1:9845, V-B:TYR:531:CE2:9765, V-B:PRO:540:CA:9855, V-B:ASN:362:CB:8147, V-B:LEU:363:CD1:8160, V-B:PRO:540:N:9856, V-B:TYR:539:C:9839, V-B:GLU:543:CD:9880, V-B:PRO:540:CB:9857, V-A:LEU:475:CD2:4256, V-A:LEU:373:CD1:3277, V-B:PRO:540:C:9853, V-A:PRO:482:CB:4323, V-B:ALA:541:CB:9864, V-A:PRO:482:CG:4324, H-B:ALA:541:N:9863, V-B:LEU:363:CB:8158, V-B:LEU:363:CA:8156, V-B:ASP:366:CG:8184, H-B:TYR:539:O:9840, V-B:ARG:545:CZ:9898, V-A:SER:385:CA:3404, V-A:SER:385:CB:3406, V-B:TYR:539:CB:9843, V-A:HIS:383:CG:3387, V-A:HIS:383:CB:3386, H-A:SER:385:N:3405, V-A:THR:477:C:4265, V-A:THR:477:CA:4267, H-A:HIS:383:ND1:3388, H-A:VAL:384:N:3397, V-B:ALA:541:C:9860"]

$$$$
1p_Grossjean_2025
     RDKit          3D

 21 22  0  0  0  0  0  0  0  0999 V2000
  132.5700  131.2860   62.6660 C   0  0  0  0  0  0  0  0  0  0  0  0
  131.9760  131.5900   61.3030 C   0  0  0  0  0  0  0  0  0  0  0  0
  132.7380  131.4970   60.1400 C   0  0  0  0  0  0  0  0  0  0  0  0
  132.1420  131.8020   58.9110 C   0  0  0  0  0  0  0  0  0  0  0  0
  133.0000  131.7090   57.6510 C   0  0  0  0  0  0  0  0  0  0  0  0
  130.7830  132.1870   58.8790 C   0  0  0  0  0  0  0  0  0  0  0  0
  130.1500  132.5570   57.6120 C   0  0  0  0  0  0  0  0  0  0  0  0
  129.6500  132.8490   56.6100 N   0  0  0  0  0  0  0  0  0  0  0  0
  130.0800  132.2310   60.1070 C   0  0  0  0  0  0  0  0  0  0  0  0
  128.3660  132.6840   60.2440 S   0  0  0  0  0  0  0  0  0  0  0  0
  128.2540  133.9250   61.5660 C   0  0  0  0  0  0  0  0  0  0  0  0
  126.8320  134.4800   61.7780 C   0  0  0  0  0  0  0  0  0  0  0  0
  126.7310  136.0000   61.5810 C   0  0  0  0  0  0  0  0  0  0  0  0
  127.6930  136.7150   61.8700 O   0  0  0  0  0  0  0  0  0  0  0  0
  125.5590  136.4470   61.0770 N   0  0  0  0  0  0  0  0  0  0  0  0
  125.2100  137.7630   60.8030 C   0  0  0  0  0  0  0  0  0  0  0  0
  126.0890  138.6810   60.2290 C   0  0  0  0  0  0  0  0  0  0  0  0
  125.3700  139.8490   60.1240 C   0  0  0  0  0  0  0  0  0  0  0  0
  124.1230  139.6470   60.6120 O   0  0  0  0  0  0  0  0  0  0  0  0
  124.0340  138.3210   61.0400 N   0  0  0  0  0  0  0  0  0  0  0  0
  130.6730  131.9540   61.2960 N   0  0  0  0  0  0  0  0  0  0  0  0
  1  2  1  0
  2  3  2  0
  3  4  1  0
  4  5  1  0
  4  6  2  0
  6  7  1  0
  7  8  3  0
  6  9  1  0
  9 10  1  0
 10 11  1  0
 11 12  1  0
 12 13  1  0
 13 14  2  0
 13 15  1  0
 15 16  1  0
 16 17  1  0
 17 18  2  0
 18 19  1  0
 19 20  1  0
  9 21  2  0
 21  2  1  0
 20 16  2  0
M  END
>  <Binding energies>  (7) 
[-7.93]

>  <Ligand effiencies>  (7) 
[-0.3604545454545454]

>  <Interactions>  (7) 
["H-A:TYR:539:N:4868, V-A:TYR:539:CD1:4871, V-A:PRO:540:N:4882, V-A:LEU:363:CD1:3186, V-A:PRO:540:CA:4881, V-A:ALA:541:C:4886, V-A:TYR:539:CE1:4873, V-A:GLU:543:CD:4906, V-B:LEU:475:CD2:9230, V-A:ASN:362:CB:3173, V-A:PRO:540:CB:4883, V-A:ARG:545:CZ:4924, H-A:ALA:541:N:4889, V-A:ALA:541:CB:4890, V-A:TYR:539:C:4865, V-A:PRO:540:C:4879, V-A:ASP:366:CG:3210, V-B:PRO:482:CG:9298, V-B:LEU:373:CD1:8251, V-A:TYR:539:CB:4869, H-B:SER:385:N:8379, V-B:HIS:383:CG:8361, V-B:HIS:383:CB:8360, V-B:HIS:383:CD2:8363"]

$$$$
2a_Ghoteimi_2023
     RDKit          3D

 48 53  0  0  0  0  0  0  0  0999 V2000
  131.5820  126.2700   74.7090 C   0  0  0  0  0  0  0  0  0  0  0  0
  130.3880  126.3150   73.7510 C   0  0  0  0  0  0  0  0  0  0  0  0
  129.4630  127.2980   74.1960 O   0  0  0  0  0  0  0  0  0  0  0  0
  128.9810  128.2440   73.3480 C   0  0  0  0  0  0  0  0  0  0  0  0
  128.4860  129.3090   73.7280 O   0  0  0  0  0  0  0  0  0  0  0  0
  129.1180  127.8670   71.9000 C   0  0  0  0  0  0  0  0  0  0  0  0
  128.0410  127.3590   71.1600 C   0  0  0  0  0  0  0  0  0  0  0  0
  128.2010  127.0210   69.8200 C   0  0  0  0  0  0  0  0  0  0  0  0
  129.4360  127.1860   69.1900 C   0  0  0  0  0  0  0  0  0  0  0  0
  129.4860  126.8090   67.8350 N   0  0  0  0  0  0  0  0  0  0  0  0
  130.5530  126.6250   67.0260 C   0  0  0  0  0  0  0  0  0  0  0  0
  131.7270  126.8140   67.3480 O   0  0  0  0  0  0  0  0  0  0  0  0
  130.2190  126.1850   65.5950 C   0  0  0  0  0  0  0  0  0  0  0  0
  131.5520  125.2690   64.7570 S   0  0  0  0  0  0  0  0  0  0  0  0
  130.8830  124.7790   63.1850 C   0  0  0  0  0  0  0  0  0  0  0  0
  131.1330  123.4890   62.8610 N   0  0  0  0  0  0  0  0  0  0  0  0
  130.6810  122.9980   61.6800 C   0  0  0  0  0  0  0  0  0  0  0  0
  131.0030  121.5690   61.3850 C   0  0  0  0  0  0  0  0  0  0  0  0
  130.0500  120.5580   61.5670 C   0  0  0  0  0  0  0  0  0  0  0  0
  130.3590  119.2270   61.3030 C   0  0  0  0  0  0  0  0  0  0  0  0
  131.6290  118.8560   60.8380 C   0  0  0  0  0  0  0  0  0  0  0  0
  131.9340  117.5110   60.6050 N   0  0  0  0  0  0  0  0  0  0  0  0
  133.2990  117.0830   60.2370 C   0  0  0  0  0  0  0  0  0  0  0  0
  133.5340  115.5640   60.3750 C   0  0  0  0  0  0  0  0  0  0  0  0
  132.5600  114.8520   59.6290 O   0  0  0  0  0  0  0  0  0  0  0  0
  131.2490  115.1300   60.0910 C   0  0  0  0  0  0  0  0  0  0  0  0
  130.9420  116.6350   59.9460 C   0  0  0  0  0  0  0  0  0  0  0  0
  132.5840  119.8710   60.6690 C   0  0  0  0  0  0  0  0  0  0  0  0
  132.2750  121.2020   60.9310 C   0  0  0  0  0  0  0  0  0  0  0  0
  129.9510  123.7980   60.7970 C   0  0  0  0  0  0  0  0  0  0  0  0
  129.6800  125.1370   61.1110 C   0  0  0  0  0  0  0  0  0  0  0  0
  128.8990  125.9370   60.1190 C   0  0  0  0  0  0  0  0  0  0  0  0
  129.5580  126.6390   59.1070 C   0  0  0  0  0  0  0  0  0  0  0  0
  128.8410  127.4030   58.1910 C   0  0  0  0  0  0  0  0  0  0  0  0
  127.4420  127.4850   58.2570 C   0  0  0  0  0  0  0  0  0  0  0  0
  126.7050  128.2610   57.3580 N   0  0  0  0  0  0  0  0  0  0  0  0
  127.3870  128.8670   56.1970 C   0  0  0  0  0  0  0  0  0  0  0  0
  126.4130  129.3510   55.1020 C   0  0  0  0  0  0  0  0  0  0  0  0
  125.4660  130.2520   55.6570 O   0  0  0  0  0  0  0  0  0  0  0  0
  124.7010  129.6410   56.6850 C   0  0  0  0  0  0  0  0  0  0  0  0
  125.6300  129.1610   57.8190 C   0  0  0  0  0  0  0  0  0  0  0  0
  126.7890  126.7870   59.2830 C   0  0  0  0  0  0  0  0  0  0  0  0
  127.5060  126.0250   60.2010 C   0  0  0  0  0  0  0  0  0  0  0  0
  130.1530  125.6480   62.3440 C   0  0  0  0  0  0  0  0  0  0  0  0
  129.8530  127.0240   62.7530 C   0  0  0  0  0  0  0  0  0  0  0  0
  129.6160  128.1110   63.0720 N   0  0  0  0  0  0  0  0  0  0  0  0
  130.5210  127.6860   69.9260 C   0  0  0  0  0  0  0  0  0  0  0  0
  130.3580  128.0250   71.2670 C   0  0  0  0  0  0  0  0  0  0  0  0
  1  2  1  0
  2  3  1  0
  3  4  1  0
  4  5  2  0
  4  6  1  0
  6  7  2  0
  7  8  1  0
  8  9  2  0
  9 10  1  0
 10 11  1  0
 11 12  2  0
 11 13  1  0
 13 14  1  0
 14 15  1  0
 15 16  2  0
 16 17  1  0
 17 18  1  0
 18 19  2  0
 19 20  1  0
 20 21  2  0
 21 22  1  0
 22 23  1  0
 23 24  1  0
 24 25  1  0
 25 26  1  0
 26 27  1  0
 21 28  1  0
 28 29  2  0
 17 30  2  0
 30 31  1  0
 31 32  1  0
 32 33  2  0
 33 34  1  0
 34 35  2  0
 35 36  1  0
 36 37  1  0
 37 38  1  0
 38 39  1  0
 39 40  1  0
 40 41  1  0
 35 42  1  0
 42 43  2  0
 31 44  2  0
 44 45  1  0
 45 46  3  0
  9 47  1  0
 47 48  2  0
 48  6  1  0
 44 15  1  0
 29 18  1  0
 43 32  1  0
 27 22  1  0
 41 36  1  0
M  END
>  <Binding energies>  (8) 
[-11.09]

>  <Ligand effiencies>  (8) 
[-0.2263265306122449]

>  <Interactions>  (8) 
["V-A:MET:535:CE:4833, V-A:GLU:543:CD:4906, V-B:TYR:539:CE1:9847, V-B:TYR:539:CD1:9845, V-B:GLU:543:CD:9880, V-B:TYR:531:CZ:9766, V-A:LEU:475:CD2:4256, V-A:LEU:373:CD1:3277, V-A:PRO:482:CB:4323, V-B:ALA:541:CB:9864, V-A:PRO:482:CG:4324, H-B:GLU:543:OE2:9882, H-A:ARG:545:NH2:4926, V-B:GLY:544:CA:9886, V-B:ASP:366:CB:8183, V-A:HIS:456:CE1:4066, V-B:GLU:543:CG:9879, V-B:ASP:366:CG:8184, V-B:GLU:543:CB:9878, V-A:ILE:369:CG2:3234, H-B:TYR:531:OH:9767, H-A:ARG:545:NE:4922, H-A:TYR:484:OH:4345, V-B:HIS:456:CE1:9040, H-B:ASN:370:ND2:8219, H-A:TYR:539:OH:4876, V-A:SER:385:CA:3404, V-A:SER:385:CB:3406, V-B:VAL:344:CG1:7972, V-B:TYR:539:CB:9843, V-B:TYR:531:CE1:9764, V-A:HIS:383:CG:3387, V-A:HIS:383:CB:3386, V-A:GLU:543:CG:4905, V-A:VAL:384:C:3394, V-A:LYS:547:CE:4948, H-A:LYS:547:NZ:4949, V-B:GLU:543:C:9874, H-B:LYS:547:NZ:9923, V-A:HIS:456:CD2:4065, V-B:HIS:456:CD2:9039, V-A:GLU:543:C:4900, V-A:GLY:544:C:4910, V-A:GLY:544:CA:4912, V-B:GLY:544:C:9884, H-A:HIS:456:NE2:4067, V-B:ASP:366:C:8179, V-B:ASN:370:CB:8216, H-A:HIS:383:ND1:3388, H-B:GLU:543:O:9875"]

$$$$
2aa_Ghoteimi_2023
     RDKit          3D

 48 53  0  0  0  0  0  0  0  0999 V2000
  126.7650  128.2730   74.2610 C   0  0  0  0  0  0  0  0  0  0  0  0
  128.1230  128.6800   73.6810 C   0  0  0  0  0  0  0  0  0  0  0  0
  129.1060  127.7310   74.0750 O   0  0  0  0  0  0  0  0  0  0  0  0
  129.4590  126.7050   73.2580 C   0  0  0  0  0  0  0  0  0  0  0  0
  129.8020  125.5930   73.6710 O   0  0  0  0  0  0  0  0  0  0  0  0
  129.3760  127.0530   71.7990 C   0  0  0  0  0  0  0  0  0  0  0  0
  128.1630  127.0120   71.0960 C   0  0  0  0  0  0  0  0  0  0  0  0
  128.1170  127.3440   69.7450 C   0  0  0  0  0  0  0  0  0  0  0  0
  129.2810  127.7160   69.0680 C   0  0  0  0  0  0  0  0  0  0  0  0
  129.1190  128.0340   67.7060 N   0  0  0  0  0  0  0  0  0  0  0  0
  127.9900  128.2260   66.9900 C   0  0  0  0  0  0  0  0  0  0  0  0
  126.8460  128.1770   67.4450 O   0  0  0  0  0  0  0  0  0  0  0  0
  128.2210  128.5470   65.5070 C   0  0  0  0  0  0  0  0  0  0  0  0
  127.7560  129.8710   65.2240 O   0  0  0  0  0  0  0  0  0  0  0  0
  127.3730  130.2140   63.9340 C   0  0  0  0  0  0  0  0  0  0  0  0
  127.2900  129.2210   63.0050 N   0  0  0  0  0  0  0  0  0  0  0  0
  126.9150  129.5210   61.7370 C   0  0  0  0  0  0  0  0  0  0  0  0
  126.8510  128.3800   60.7700 C   0  0  0  0  0  0  0  0  0  0  0  0
  126.4950  128.5950   59.4350 C   0  0  0  0  0  0  0  0  0  0  0  0
  126.4400  127.5380   58.5300 C   0  0  0  0  0  0  0  0  0  0  0  0
  126.7530  126.2270   58.9240 C   0  0  0  0  0  0  0  0  0  0  0  0
  126.6910  125.1520   58.0310 N   0  0  0  0  0  0  0  0  0  0  0  0
  127.8680  124.2980   57.7710 C   0  0  0  0  0  0  0  0  0  0  0  0
  127.7260  123.4060   56.5200 C   0  0  0  0  0  0  0  0  0  0  0  0
  126.5440  122.6270   56.6100 O   0  0  0  0  0  0  0  0  0  0  0  0
  125.3880  123.4460   56.6930 C   0  0  0  0  0  0  0  0  0  0  0  0
  125.4600  124.3390   57.9500 C   0  0  0  0  0  0  0  0  0  0  0  0
  127.0890  126.0150   60.2690 C   0  0  0  0  0  0  0  0  0  0  0  0
  127.1410  127.0720   61.1740 C   0  0  0  0  0  0  0  0  0  0  0  0
  126.6270  130.8360   61.3600 C   0  0  0  0  0  0  0  0  0  0  0  0
  126.7150  131.8770   62.2930 C   0  0  0  0  0  0  0  0  0  0  0  0
  126.4200  133.2660   61.8250 C   0  0  0  0  0  0  0  0  0  0  0  0
  127.4250  134.2370   61.8190 C   0  0  0  0  0  0  0  0  0  0  0  0
  127.1520  135.5370   61.4030 C   0  0  0  0  0  0  0  0  0  0  0  0
  125.8620  135.9080   60.9950 C   0  0  0  0  0  0  0  0  0  0  0  0
  125.5660  137.2060   60.5710 N   0  0  0  0  0  0  0  0  0  0  0  0
  126.6320  138.1520   60.1890 C   0  0  0  0  0  0  0  0  0  0  0  0
  126.1120  139.3870   59.4220 C   0  0  0  0  0  0  0  0  0  0  0  0
  125.1040  140.0400   60.1800 O   0  0  0  0  0  0  0  0  0  0  0  0
  124.0020  139.1820   60.4300 C   0  0  0  0  0  0  0  0  0  0  0  0
  124.4650  137.9430   61.2240 C   0  0  0  0  0  0  0  0  0  0  0  0
  124.8620  134.9250   60.9980 C   0  0  0  0  0  0  0  0  0  0  0  0
  125.1350  133.6260   61.4130 C   0  0  0  0  0  0  0  0  0  0  0  0
  127.0850  131.5540   63.6190 C   0  0  0  0  0  0  0  0  0  0  0  0
  127.1540  132.5700   64.6720 C   0  0  0  0  0  0  0  0  0  0  0  0
  127.2090  133.3730   65.5040 N   0  0  0  0  0  0  0  0  0  0  0  0
  130.4960  127.7670   69.7660 C   0  0  0  0  0  0  0  0  0  0  0  0
  130.5380  127.4370   71.1180 C   0  0  0  0  0  0  0  0  0  0  0  0
  1  2  1  0
  2  3  1  0
  3  4  1  0
  4  5  2  0
  4  6  1  0
  6  7  2  0
  7  8  1  0
  8  9  2  0
  9 10  1  0
 10 11  1  0
 11 12  2  0
 11 13  1  0
 13 14  1  0
 14 15  1  0
 15 16  2  0
 16 17  1  0
 17 18  1  0
 18 19  2  0
 19 20  1  0
 20 21  2  0
 21 22  1  0
 22 23  1  0
 23 24  1  0
 24 25  1  0
 25 26  1  0
 26 27  1  0
 21 28  1  0
 28 29  2  0
 17 30  2  0
 30 31  1  0
 31 32  1  0
 32 33  2  0
 33 34  1  0
 34 35  2  0
 35 36  1  0
 36 37  1  0
 37 38  1  0
 38 39  1  0
 39 40  1  0
 40 41  1  0
 35 42  1  0
 42 43  2  0
 31 44  2  0
 44 45  1  0
 45 46  3  0
  9 47  1  0
 47 48  2  0
 48  6  1  0
 44 15  1  0
 29 18  1  0
 43 32  1  0
 27 22  1  0
 41 36  1  0
M  END
>  <Binding energies>  (9) 
[-11.21]

>  <Ligand effiencies>  (9) 
[-0.22877551020408166]

>  <Interactions>  (9) 
["V-A:TYR:539:CD1:4871, V-A:TYR:539:CE1:4873, V-A:GLU:543:CD:4906, V-B:LEU:475:CD2:9230, V-A:ALA:541:CB:4890, H-B:TYR:539:N:9842, V-B:TYR:531:CE2:9765, V-B:MET:535:CE:9807, V-B:GLU:543:CD:9880, H-A:GLU:543:OE2:4908, H-A:GLU:543:OE1:4907, V-B:GLY:544:CA:9886, V-B:ASP:366:CB:8183, V-A:HIS:456:CE1:4066, V-B:GLU:543:CG:9879, V-B:ASP:366:CG:8184, V-A:TYR:539:CG:4870, V-B:HIS:456:CE1:9040, H-B:TYR:484:OH:9319, V-B:SER:385:CB:8380, V-B:PRO:482:CG:9298, V-B:ILE:369:CG2:8208, V-B:LEU:373:CD1:8251, V-B:SER:385:CA:8378, H-B:HIS:383:ND1:8362, V-A:TYR:539:CB:4869, V-A:VAL:344:CG1:2998, V-B:TYR:484:CE2:9317, V-B:TYR:484:CZ:9318, V-B:HIS:383:CB:8360, V-B:VAL:384:C:8368, V-B:HIS:383:CD2:8363, V-A:GLU:543:CB:4904, V-A:GLU:543:CG:4905, V-B:LYS:547:CE:9922, H-A:LYS:547:NZ:4949, V-B:GLU:543:C:9874, H-B:LYS:547:NZ:9923, V-A:HIS:456:CD2:4065, V-B:HIS:456:CD2:9039, V-A:GLU:543:C:4900, V-A:GLY:544:C:4910, V-A:GLY:544:CA:4912, V-B:HIS:456:CG:9037, V-B:GLY:544:C:9884, V-B:LEU:373:CD2:8252, H-B:HIS:456:NE2:9041, V-B:HIS:456:CB:9036, V-A:ILE:343:CD1:2991, H-A:GLU:543:O:4901"]

$$$$
2b_Ghoteimi_2023
     RDKit          3D

 42 47  0  0  0  0  0  0  0  0999 V2000
  125.9990  127.5430   61.3550 N   0  0  0  0  0  0  0  0  0  0  0  0
  125.9600  128.6990   61.3860 C   0  0  0  0  0  0  0  0  0  0  0  0
  125.9140  130.1640   61.4300 C   0  0  0  0  0  0  0  0  0  0  0  0
  126.3020  130.8610   62.6010 C   0  0  0  0  0  0  0  0  0  0  0  0
  126.7790  130.1910   63.8480 C   0  0  0  0  0  0  0  0  0  0  0  0
  127.8010  129.2410   63.7900 C   0  0  0  0  0  0  0  0  0  0  0  0
  128.2480  128.6130   64.9490 C   0  0  0  0  0  0  0  0  0  0  0  0
  127.6710  128.9030   66.1960 C   0  0  0  0  0  0  0  0  0  0  0  0
  128.1110  128.2960   67.3730 N   0  0  0  0  0  0  0  0  0  0  0  0
  127.2140  127.3570   68.0760 C   0  0  0  0  0  0  0  0  0  0  0  0
  127.6540  127.0590   69.5250 C   0  0  0  0  0  0  0  0  0  0  0  0
  128.9960  126.5950   69.5430 O   0  0  0  0  0  0  0  0  0  0  0  0
  129.8900  127.5540   69.0000 C   0  0  0  0  0  0  0  0  0  0  0  0
  129.5110  127.8550   67.5350 C   0  0  0  0  0  0  0  0  0  0  0  0
  126.6440  129.8550   66.2420 C   0  0  0  0  0  0  0  0  0  0  0  0
  126.1990  130.4870   65.0850 C   0  0  0  0  0  0  0  0  0  0  0  0
  126.2460  132.2600   62.5940 C   0  0  0  0  0  0  0  0  0  0  0  0
  125.8440  132.9460   61.4450 C   0  0  0  0  0  0  0  0  0  0  0  0
  125.7950  134.4400   61.3760 C   0  0  0  0  0  0  0  0  0  0  0  0
  124.5960  135.1020   61.0940 C   0  0  0  0  0  0  0  0  0  0  0  0
  124.5390  136.4920   61.0450 C   0  0  0  0  0  0  0  0  0  0  0  0
  125.6850  137.2740   61.2620 C   0  0  0  0  0  0  0  0  0  0  0  0
  125.6380  138.6720   61.2450 N   0  0  0  0  0  0  0  0  0  0  0  0
  125.0460  139.4020   62.3850 C   0  0  0  0  0  0  0  0  0  0  0  0
  124.7080  140.8750   62.0670 C   0  0  0  0  0  0  0  0  0  0  0  0
  125.8600  141.5430   61.5780 O   0  0  0  0  0  0  0  0  0  0  0  0
  126.3410  140.9440   60.3850 C   0  0  0  0  0  0  0  0  0  0  0  0
  126.7260  139.4730   60.6500 C   0  0  0  0  0  0  0  0  0  0  0  0
  126.8840  136.6060   61.5510 C   0  0  0  0  0  0  0  0  0  0  0  0
  126.9390  135.2160   61.6030 C   0  0  0  0  0  0  0  0  0  0  0  0
  125.4740  132.2770   60.3240 N   0  0  0  0  0  0  0  0  0  0  0  0
  125.4880  130.9230   60.3170 C   0  0  0  0  0  0  0  0  0  0  0  0
  124.9680  130.2120   58.7710 S   0  0  0  0  0  0  0  0  0  0  0  0
  126.3190  129.1530   58.1710 C   0  0  0  0  0  0  0  0  0  0  0  0
  127.4060  129.9570   57.4570 C   0  0  0  0  0  0  0  0  0  0  0  0
  127.6110  129.7620   56.2570 O   0  0  0  0  0  0  0  0  0  0  0  0
  128.0780  130.8400   58.2270 N   0  0  0  0  0  0  0  0  0  0  0  0
  129.0960  131.6970   57.8340 C   0  0  0  0  0  0  0  0  0  0  0  0
  130.4300  131.5070   58.1920 C   0  0  0  0  0  0  0  0  0  0  0  0
  131.1080  132.5540   57.6130 C   0  0  0  0  0  0  0  0  0  0  0  0
  130.2290  133.3330   56.9400 O   0  0  0  0  0  0  0  0  0  0  0  0
  128.9550  132.7780   57.0860 N   0  0  0  0  0  0  0  0  0  0  0  0
  1  2  3  0
  2  3  1  0
  3  4  2  0
  4  5  1  0
  5  6  2  0
  6  7  1  0
  7  8  2  0
  8  9  1  0
  9 10  1  0
 10 11  1  0
 11 12  1  0
 12 13  1  0
 13 14  1  0
  8 15  1  0
 15 16  2  0
  4 17  1  0
 17 18  2  0
 18 19  1  0
 19 20  2  0
 20 21  1  0
 21 22  2  0
 22 23  1  0
 23 24  1  0
 24 25  1  0
 25 26  1  0
 26 27  1  0
 27 28  1  0
 22 29  1  0
 29 30  2  0
 18 31  1  0
 31 32  2  0
 32 33  1  0
 33 34  1  0
 34 35  1  0
 35 36  2  0
 35 37  1  0
 37 38  1  0
 38 39  1  0
 39 40  2  0
 40 41  1  0
 41 42  1  0
 32  3  1  0
 42 38  2  0
 16  5  1  0
 30 19  1  0
 14  9  1  0
 28 23  1  0
M  END
>  <Binding energies>  (10) 
[-9.62]

>  <Ligand effiencies>  (10) 
[-0.22372093023255812]

>  <Interactions>  (10) 
["H-A:TYR:539:N:4868, V-A:TYR:539:CD1:4871, V-A:PRO:540:N:4882, V-A:PRO:540:CD:4885, V-A:PRO:540:CA:4881, V-A:TYR:539:CE1:4873, V-A:GLU:543:CD:4906, V-B:LEU:475:CD2:9230, V-A:PRO:540:CB:4883, V-A:ALA:541:CB:4890, V-A:TYR:539:C:4865, V-B:GLU:543:CD:9880, H-B:ARG:545:NH2:9900, V-A:HIS:456:CE1:4066, V-B:GLU:543:CG:9879, V-B:ASP:366:CG:8184, V-B:HIS:456:CE1:9040, V-B:ARG:545:CG:9894, H-A:TYR:539:OH:4876, V-B:SER:385:CB:8380, V-B:PRO:482:CG:9298, V-B:ILE:369:CG2:8208, V-B:LEU:373:CD1:8251, V-B:PRO:482:CB:9297, V-B:SER:385:CA:8378, H-B:HIS:383:ND1:8362, V-A:VAL:344:CG1:2998, V-B:TYR:484:CZ:9318, V-B:THR:477:CA:9241, V-B:HIS:383:CG:8361, V-B:HIS:383:CB:8360, V-B:HIS:383:CD2:8363, V-A:GLU:543:CB:4904, V-A:GLU:543:CG:4905, V-B:GLU:543:C:9874, V-B:GLY:544:C:9884, H-A:HIS:456:NE2:4067, V-B:HIS:383:CE1:8365, V-B:THR:477:CG2:9244, V-B:THR:477:CB:9243, V-B:CYS:476:C:9235"]

$$$$
2c_Ghoteimi_2023
     RDKit          3D

 42 47  0  0  0  0  0  0  0  0999 V2000
  127.0900  127.4940   63.2180 N   0  0  0  0  0  0  0  0  0  0  0  0
  126.9990  128.6200   62.9690 C   0  0  0  0  0  0  0  0  0  0  0  0
  126.8850  130.0460   62.6470 C   0  0  0  0  0  0  0  0  0  0  0  0
  127.4410  130.5620   61.4500 C   0  0  0  0  0  0  0  0  0  0  0  0
  128.1690  129.7310   60.4450 C   0  0  0  0  0  0  0  0  0  0  0  0
  127.7300  129.6860   59.1200 C   0  0  0  0  0  0  0  0  0  0  0  0
  128.4060  128.9170   58.1760 C   0  0  0  0  0  0  0  0  0  0  0  0
  129.5320  128.1600   58.5340 C   0  0  0  0  0  0  0  0  0  0  0  0
  130.2380  127.3970   57.6000 N   0  0  0  0  0  0  0  0  0  0  0  0
  131.3850  126.5840   58.0490 C   0  0  0  0  0  0  0  0  0  0  0  0
  132.2910  126.1160   56.8910 C   0  0  0  0  0  0  0  0  0  0  0  0
  131.5230  125.4170   55.9230 O   0  0  0  0  0  0  0  0  0  0  0  0
  130.5000  126.2350   55.3750 C   0  0  0  0  0  0  0  0  0  0  0  0
  129.5470  126.7070   56.4930 C   0  0  0  0  0  0  0  0  0  0  0  0
  129.9630  128.2080   59.8680 C   0  0  0  0  0  0  0  0  0  0  0  0
  129.2880  128.9790   60.8100 C   0  0  0  0  0  0  0  0  0  0  0  0
  127.3020  131.9310   61.1860 C   0  0  0  0  0  0  0  0  0  0  0  0
  126.6080  132.7570   62.0750 C   0  0  0  0  0  0  0  0  0  0  0  0
  126.4180  134.2190   61.8310 C   0  0  0  0  0  0  0  0  0  0  0  0
  127.5190  135.0720   61.7110 C   0  0  0  0  0  0  0  0  0  0  0  0
  127.3490  136.4350   61.4780 C   0  0  0  0  0  0  0  0  0  0  0  0
  126.0670  136.9970   61.3680 C   0  0  0  0  0  0  0  0  0  0  0  0
  125.8790  138.3590   61.1090 N   0  0  0  0  0  0  0  0  0  0  0  0
  125.8610  139.3250   62.2270 C   0  0  0  0  0  0  0  0  0  0  0  0
  125.2700  140.6990   61.8480 C   0  0  0  0  0  0  0  0  0  0  0  0
  125.9610  141.2340   60.7310 O   0  0  0  0  0  0  0  0  0  0  0  0
  125.8480  140.3880   59.5980 C   0  0  0  0  0  0  0  0  0  0  0  0
  126.4510  139.0020   59.9080 C   0  0  0  0  0  0  0  0  0  0  0  0
  124.9660  136.1360   61.4770 C   0  0  0  0  0  0  0  0  0  0  0  0
  125.1380  134.7730   61.7080 C   0  0  0  0  0  0  0  0  0  0  0  0
  126.0750  132.2590   63.2210 N   0  0  0  0  0  0  0  0  0  0  0  0
  126.2220  130.9450   63.5130 C   0  0  0  0  0  0  0  0  0  0  0  0
  125.4730  130.4700   65.0540 S   0  0  0  0  0  0  0  0  0  0  0  0
  126.2050  128.8810   65.5500 C   0  0  0  0  0  0  0  0  0  0  0  0
  127.1250  129.0270   66.7630 C   0  0  0  0  0  0  0  0  0  0  0  0
  127.5610  130.1400   67.0610 O   0  0  0  0  0  0  0  0  0  0  0  0
  127.3960  127.8840   67.4290 N   0  0  0  0  0  0  0  0  0  0  0  0
  128.1830  127.7510   68.5630 C   0  0  0  0  0  0  0  0  0  0  0  0
  127.8080  127.3830   69.7690 N   0  0  0  0  0  0  0  0  0  0  0  0
  128.8250  127.3600   70.6070 C   0  0  0  0  0  0  0  0  0  0  0  0
  130.0630  127.7180   70.0830 C   0  0  0  0  0  0  0  0  0  0  0  0
  129.8740  128.1030   68.3980 S   0  0  0  0  0  0  0  0  0  0  0  0
  1  2  3  0
  2  3  1  0
  3  4  2  0
  4  5  1  0
  5  6  2  0
  6  7  1  0
  7  8  2  0
  8  9  1  0
  9 10  1  0
 10 11  1  0
 11 12  1  0
 12 13  1  0
 13 14  1  0
  8 15  1  0
 15 16  2  0
  4 17  1  0
 17 18  2  0
 18 19  1  0
 19 20  2  0
 20 21  1  0
 21 22  2  0
 22 23  1  0
 23 24  1  0
 24 25  1  0
 25 26  1  0
 26 27  1  0
 27 28  1  0
 22 29  1  0
 29 30  2  0
 18 31  1  0
 31 32  2  0
 32 33  1  0
 33 34  1  0
 34 35  1  0
 35 36  2  0
 35 37  1  0
 37 38  1  0
 38 39  2  0
 39 40  1  0
 40 41  2  0
 41 42  1  0
 32  3  1  0
 42 38  1  0
 16  5  1  0
 30 19  1  0
 14  9  1  0
 28 23  1  0
M  END
>  <Binding energies>  (11) 
[-9.49]

>  <Ligand effiencies>  (11) 
[-0.22069767441860466]

>  <Interactions>  (11) 
["V-A:TYR:539:CD1:4871, V-A:TYR:539:CE1:4873, V-A:GLU:543:CD:4906, V-B:LEU:475:CD2:9230, V-A:TYR:531:CZ:4792, V-A:ALA:541:CB:4890, V-A:TYR:539:C:4865, V-A:ASP:366:CB:3209, V-B:MET:535:CE:9807, V-B:GLU:543:CD:9880, H-B:GLU:543:OE2:9882, H-B:ARG:545:NH2:9900, V-A:ASP:366:CG:3210, V-A:HIS:456:CE1:4066, V-B:GLU:543:CG:9879, H-B:TYR:539:OH:9850, H-A:TYR:531:OH:4793, V-B:ARG:545:CZ:9898, V-B:HIS:456:CE1:9040, H-B:TYR:484:OH:9319, H-B:GLY:454:N:9021, V-B:ARG:545:CG:9894, V-B:SER:385:CB:8380, V-B:PRO:482:CG:9298, V-B:LEU:373:CD1:8251, V-B:PRO:482:CB:9297, V-B:SER:385:CA:8378, H-B:HIS:383:ND1:8362, V-A:TYR:539:CB:4869, V-A:VAL:344:CG1:2998, V-B:THR:477:CA:9241, V-B:HIS:383:CG:8361, V-B:HIS:383:CB:8360, V-B:HIS:383:CD2:8363, H-A:ASN:370:ND2:3245, V-A:TYR:531:CE1:4790, V-A:GLU:543:CB:4904, V-A:GLU:543:CG:4905, V-A:GLU:543:C:4900, H-B:HIS:456:NE2:9041, V-B:HIS:383:CE1:8365, V-A:ILE:343:CD1:2991"]

$$$$
2j_Grossjean_2025
     RDKit          3D

 23 24  0  0  0  0  0  0  0  0999 V2000
  125.4160  123.8850   62.6410 C   0  0  0  0  0  0  0  0  0  0  0  0
  125.9820  123.5480   61.2750 C   0  0  0  0  0  0  0  0  0  0  0  0
  125.2030  123.6250   60.1230 C   0  0  0  0  0  0  0  0  0  0  0  0
  125.7720  123.3060   58.8810 C   0  0  0  0  0  0  0  0  0  0  0  0
  124.8960  123.3970   57.6170 C   0  0  0  0  0  0  0  0  0  0  0  0
  125.4250  124.2680   56.7570 F   0  0  0  0  0  0  0  0  0  0  0  0
  124.8170  122.2030   57.0290 F   0  0  0  0  0  0  0  0  0  0  0  0
  123.6510  123.7980   57.8810 F   0  0  0  0  0  0  0  0  0  0  0  0
  127.1340  122.9130   58.8430 C   0  0  0  0  0  0  0  0  0  0  0  0
  127.7810  122.5680   57.5730 C   0  0  0  0  0  0  0  0  0  0  0  0
  128.2920  122.2970   56.5700 N   0  0  0  0  0  0  0  0  0  0  0  0
  127.8510  122.8620   60.0620 C   0  0  0  0  0  0  0  0  0  0  0  0
  129.5710  122.3820   60.1320 S   0  0  0  0  0  0  0  0  0  0  0  0
  129.7400  121.0250   61.3430 C   0  0  0  0  0  0  0  0  0  0  0  0
  130.8510  120.0140   61.0270 C   0  0  0  0  0  0  0  0  0  0  0  0
  132.0350  120.3580   61.0300 O   0  0  0  0  0  0  0  0  0  0  0  0
  130.4170  118.7650   60.7470 N   0  0  0  0  0  0  0  0  0  0  0  0
  131.2040  117.6640   60.4320 C   0  0  0  0  0  0  0  0  0  0  0  0
  131.4240  117.1440   59.2440 N   0  0  0  0  0  0  0  0  0  0  0  0
  132.2270  116.1000   59.3120 C   0  0  0  0  0  0  0  0  0  0  0  0
  132.6770  115.7520   60.5820 C   0  0  0  0  0  0  0  0  0  0  0  0
  132.0060  116.8600   61.7420 S   0  0  0  0  0  0  0  0  0  0  0  0
  127.2820  123.1760   61.2530 N   0  0  0  0  0  0  0  0  0  0  0  0
  1  2  1  0
  2  3  2  0
  3  4  1  0
  4  5  1  0
  5  6  1  0
  5  7  1  0
  5  8  1  0
  4  9  2  0
  9 10  1  0
 10 11  3  0
  9 12  1  0
 12 13  1  0
 13 14  1  0
 14 15  1  0
 15 16  2  0
 15 17  1  0
 17 18  1  0
 18 19  2  0
 19 20  1  0
 20 21  2  0
 21 22  1  0
 12 23  2  0
 23  2  1  0
 22 18  1  0
M  END
>  <Binding energies>  (12) 
[-8.11]

>  <Ligand effiencies>  (12) 
[-0.33791666666666664]

>  <Interactions>  (12) 
["H-B:TYR:539:N:9842, V-B:TYR:539:CE1:9847, V-B:TYR:539:CD1:9845, V-B:TYR:531:CE2:9765, V-B:PRO:540:CG:9858, V-B:PRO:540:CA:9855, V-B:ASN:362:CB:8147, V-B:ILE:538:CB:9834, V-B:LEU:363:CD1:8160, V-B:PRO:540:N:9856, V-B:TYR:539:C:9839, V-B:GLU:543:CD:9880, V-B:PRO:540:CD:9859, V-B:TYR:531:CZ:9766, V-B:PRO:540:CB:9857, V-B:ILE:538:CG2:9835, V-A:LEU:475:CD2:4256, V-B:TYR:539:CG:9844, V-A:LEU:373:CD1:3277, V-B:PRO:540:C:9853, V-B:TYR:539:CA:9841, V-A:PRO:482:CB:4323, V-B:ALA:541:CB:9864, V-A:PRO:482:CG:4324, H-B:ALA:541:N:9863, V-B:LEU:363:CB:8158, V-B:LEU:363:CA:8156, V-B:ASP:366:CB:8183, H-B:TYR:539:O:9840, V-B:ARG:545:CZ:9898, V-A:SER:385:CB:3406, V-B:TYR:539:CB:9843, V-A:LEU:373:CD2:3278, V-A:LEU:475:CG:4254"]

$$$$
3ab_Grossjean_2025
     RDKit          3D

 33 35  0  0  0  0  0  0  0  0999 V2000
  133.6540  124.3940   58.8570 C   0  0  0  0  0  0  0  0  0  0  0  0
  132.4970  124.5450   58.0460 O   0  0  0  0  0  0  0  0  0  0  0  0
  132.4260  125.5220   57.1060 C   0  0  0  0  0  0  0  0  0  0  0  0
  133.3170  125.7380   56.2790 O   0  0  0  0  0  0  0  0  0  0  0  0
  131.1510  126.3130   57.1680 C   0  0  0  0  0  0  0  0  0  0  0  0
  130.0010  125.9270   56.4620 C   0  0  0  0  0  0  0  0  0  0  0  0
  128.8330  126.6800   56.5390 C   0  0  0  0  0  0  0  0  0  0  0  0
  128.7950  127.8400   57.3280 C   0  0  0  0  0  0  0  0  0  0  0  0
  127.6690  128.6720   57.4840 N   0  0  0  0  0  0  0  0  0  0  0  0
  126.7500  129.0650   56.5780 C   0  0  0  0  0  0  0  0  0  0  0  0
  126.7430  128.7560   55.3860 O   0  0  0  0  0  0  0  0  0  0  0  0
  125.6410  129.9700   57.1180 C   0  0  0  0  0  0  0  0  0  0  0  0
  125.5670  129.9530   58.9350 S   0  0  0  0  0  0  0  0  0  0  0  0
  126.7300  131.1630   59.5290 C   0  0  0  0  0  0  0  0  0  0  0  0
  127.9060  131.1600   58.8560 N   0  0  0  0  0  0  0  0  0  0  0  0
  128.8840  132.0370   59.2000 C   0  0  0  0  0  0  0  0  0  0  0  0
  130.1540  131.9710   58.4040 C   0  0  0  0  0  0  0  0  0  0  0  0
  131.3510  131.5370   58.9960 C   0  0  0  0  0  0  0  0  0  0  0  0
  132.5320  131.4730   58.2620 C   0  0  0  0  0  0  0  0  0  0  0  0
  132.5330  131.8450   56.9210 C   0  0  0  0  0  0  0  0  0  0  0  0
  131.3620  132.2820   56.3120 C   0  0  0  0  0  0  0  0  0  0  0  0
  130.1830  132.3450   57.0500 C   0  0  0  0  0  0  0  0  0  0  0  0
  128.7020  132.9330   60.2590 C   0  0  0  0  0  0  0  0  0  0  0  0
  127.5010  132.9430   60.9830 C   0  0  0  0  0  0  0  0  0  0  0  0
  127.3430  133.9420   62.1460 C   0  0  0  0  0  0  0  0  0  0  0  0
  128.2460  134.9240   62.1100 F   0  0  0  0  0  0  0  0  0  0  0  0
  126.1360  134.5080   62.1050 F   0  0  0  0  0  0  0  0  0  0  0  0
  127.4830  133.3090   63.3120 F   0  0  0  0  0  0  0  0  0  0  0  0
  126.4830  132.0270   60.6180 C   0  0  0  0  0  0  0  0  0  0  0  0
  125.2310  131.9570   61.3780 C   0  0  0  0  0  0  0  0  0  0  0  0
  124.2440  131.9030   61.9800 N   0  0  0  0  0  0  0  0  0  0  0  0
  129.9350  128.2240   58.0360 C   0  0  0  0  0  0  0  0  0  0  0  0
  131.1020  127.4700   57.9560 C   0  0  0  0  0  0  0  0  0  0  0  0
  1  2  1  0
  2  3  1  0
  3  4  2  0
  3  5  1  0
  5  6  2  0
  6  7  1  0
  7  8  2  0
  8  9  1  0
  9 10  1  0
 10 11  2  0
 10 12  1  0
 12 13  1  0
 13 14  1  0
 14 15  2  0
 15 16  1  0
 16 17  1  0
 17 18  2  0
 18 19  1  0
 19 20  2  0
 20 21  1  0
 21 22  2  0
 16 23  2  0
 23 24  1  0
 24 25  1  0
 25 26  1  0
 25 27  1  0
 25 28  1  0
 24 29  2  0
 29 30  1  0
 30 31  3  0
  8 32  1  0
 32 33  2  0
 33  5  1  0
 29 14  1  0
 22 17  1  0
M  END
>  <Binding energies>  (13) 
[-7.77]

>  <Ligand effiencies>  (13) 
[-0.22852941176470587]

>  <Interactions>  (13) 
["V-A:TYR:539:CD1:4871, V-A:PRO:540:N:4882, V-A:MET:535:CE:4833, V-A:LEU:363:CD1:3186, V-A:ILE:538:CG2:4861, V-A:PRO:540:CA:4881, V-A:TYR:531:CE2:4791, V-A:TYR:539:CE1:4873, V-B:LEU:475:CD2:9230, V-A:ILE:538:CB:4860, V-A:PRO:540:CB:4883, V-A:ALA:541:CB:4890, V-A:TYR:539:C:4865, V-A:TYR:539:CZ:4875, V-B:TYR:539:CE1:9847, V-A:ASP:366:CB:3209, V-B:MET:535:CE:9807, V-A:PRO:540:C:4879, V-A:ASP:366:CG:3210, V-A:ILE:369:CB:3233, V-A:ASP:366:CA:3207, H-B:TYR:539:OH:9850, V-A:ILE:369:CG2:3234, H-A:TYR:531:OH:4793, H-B:TYR:531:OH:9767, V-A:ALA:541:CA:4888"]

$$$$
3ac_Grossjean_2025
     RDKit          3D

 31 33  0  0  0  0  0  0  0  0999 V2000
  130.4780  112.8390   61.3790 C   0  0  0  0  0  0  0  0  0  0  0  0
  131.1580  113.6180   60.3990 O   0  0  0  0  0  0  0  0  0  0  0  0
  131.3550  114.9670   60.6260 C   0  0  0  0  0  0  0  0  0  0  0  0
  130.8580  115.8390   59.6580 C   0  0  0  0  0  0  0  0  0  0  0  0
  131.0050  117.2150   59.8030 C   0  0  0  0  0  0  0  0  0  0  0  0
  131.6620  117.7400   60.9170 C   0  0  0  0  0  0  0  0  0  0  0  0
  131.7430  119.1440   60.9860 N   0  0  0  0  0  0  0  0  0  0  0  0
  132.8020  119.9480   60.7470 C   0  0  0  0  0  0  0  0  0  0  0  0
  133.9120  119.5690   60.3720 O   0  0  0  0  0  0  0  0  0  0  0  0
  132.5590  121.4410   60.9700 C   0  0  0  0  0  0  0  0  0  0  0  0
  130.7910  121.8310   61.1480 S   0  0  0  0  0  0  0  0  0  0  0  0
  130.3340  123.0030   59.8850 C   0  0  0  0  0  0  0  0  0  0  0  0
  129.0610  122.8460   59.4490 N   0  0  0  0  0  0  0  0  0  0  0  0
  128.5670  123.6720   58.4900 C   0  0  0  0  0  0  0  0  0  0  0  0
  127.1520  123.4270   58.0580 C   0  0  0  0  0  0  0  0  0  0  0  0
  126.0750  123.8020   58.8790 C   0  0  0  0  0  0  0  0  0  0  0  0
  124.7600  123.5830   58.4810 C   0  0  0  0  0  0  0  0  0  0  0  0
  124.5010  122.9820   57.2540 C   0  0  0  0  0  0  0  0  0  0  0  0
  125.5480  122.5960   56.4240 C   0  0  0  0  0  0  0  0  0  0  0  0
  126.8630  122.8170   56.8260 C   0  0  0  0  0  0  0  0  0  0  0  0
  129.3640  124.6760   57.9300 C   0  0  0  0  0  0  0  0  0  0  0  0
  130.6920  124.8440   58.3480 C   0  0  0  0  0  0  0  0  0  0  0  0
  131.5360  125.9600   57.7000 C   0  0  0  0  0  0  0  0  0  0  0  0
  132.7590  125.5500   57.3550 F   0  0  0  0  0  0  0  0  0  0  0  0
  130.9410  126.4060   56.5930 F   0  0  0  0  0  0  0  0  0  0  0  0
  131.6770  126.9740   58.5540 F   0  0  0  0  0  0  0  0  0  0  0  0
  131.2050  123.9770   59.3450 C   0  0  0  0  0  0  0  0  0  0  0  0
  132.6070  124.0640   59.7570 C   0  0  0  0  0  0  0  0  0  0  0  0
  133.7160  124.1330   60.0820 N   0  0  0  0  0  0  0  0  0  0  0  0
  132.1580  116.8690   61.8990 C   0  0  0  0  0  0  0  0  0  0  0  0
  132.0080  115.4930   61.7520 C   0  0  0  0  0  0  0  0  0  0  0  0
  1  2  1  0
  2  3  1  0
  3  4  2  0
  4  5  1  0
  5  6  2  0
  6  7  1  0
  7  8  1  0
  8  9  2  0
  8 10  1  0
 10 11  1  0
 11 12  1  0
 12 13  2  0
 13 14  1  0
 14 15  1  0
 15 16  2  0
 16 17  1  0
 17 18  2  0
 18 19  1  0
 19 20  2  0
 14 21  2  0
 21 22  1  0
 22 23  1  0
 23 24  1  0
 23 25  1  0
 23 26  1  0
 22 27  2  0
 27 28  1  0
 28 29  3  0
  6 30  1  0
 30 31  2  0
 31  3  1  0
 27 12  1  0
 20 15  1  0
M  END
>  <Binding energies>  (14) 
[-8.78]

>  <Ligand effiencies>  (14) 
[-0.274375]

>  <Interactions>  (14) 
["V-A:TYR:531:CZ:4792, V-B:TYR:539:CE1:9847, V-B:TYR:539:CD1:9845, V-B:PRO:540:CG:9858, V-A:ASP:366:CB:3209, V-B:PRO:540:CA:9855, V-B:ILE:538:CB:9834, V-B:TYR:539:CZ:9849, V-B:LEU:363:CD1:8160, V-B:PRO:540:N:9856, V-B:TYR:539:C:9839, V-B:PRO:540:CD:9859, V-B:PRO:540:CB:9857, V-B:ILE:538:CG2:9835, V-A:LEU:475:CD2:4256, V-B:TYR:539:CG:9844, V-A:LEU:373:CD1:3277, V-A:PRO:482:CB:4323, V-A:PRO:482:CG:4324, V-A:ASP:366:CG:3210, V-A:ASP:366:CA:3207, V-B:ILE:538:CA:9832, V-A:ILE:369:CG2:3234, H-B:TYR:539:O:9840, V-A:SER:385:CB:3406, V-B:VAL:344:CG1:7972, V-B:TYR:539:CB:9843, V-A:HIS:383:CE1:3391, V-A:ASP:366:C:3205, H-A:HIS:383:ND1:3388, V-A:LEU:475:CG:4254"]

$$$$
3af_Grossjean_2025
     RDKit          3D

 29 31  0  0  0  0  0  0  0  0999 V2000
  123.9720  130.7680   60.7370 N   0  0  0  0  0  0  0  0  0  0  0  0
  124.9930  130.9510   60.2230 C   0  0  0  0  0  0  0  0  0  0  0  0
  126.2840  131.1810   59.5700 C   0  0  0  0  0  0  0  0  0  0  0  0
  126.5480  130.6530   58.2830 C   0  0  0  0  0  0  0  0  0  0  0  0
  125.4990  129.8600   57.4780 C   0  0  0  0  0  0  0  0  0  0  0  0
  125.4480  128.5710   57.8210 F   0  0  0  0  0  0  0  0  0  0  0  0
  124.2860  130.3780   57.6760 F   0  0  0  0  0  0  0  0  0  0  0  0
  125.7840  129.9130   56.1760 F   0  0  0  0  0  0  0  0  0  0  0  0
  127.8180  130.8540   57.7220 C   0  0  0  0  0  0  0  0  0  0  0  0
  128.7980  131.5600   58.4270 C   0  0  0  0  0  0  0  0  0  0  0  0
  130.1770  131.7880   57.8840 C   0  0  0  0  0  0  0  0  0  0  0  0
  131.3090  131.3670   58.5990 C   0  0  0  0  0  0  0  0  0  0  0  0
  132.5920  131.5730   58.0990 C   0  0  0  0  0  0  0  0  0  0  0  0
  132.7600  132.2050   56.8720 C   0  0  0  0  0  0  0  0  0  0  0  0
  131.6550  132.6290   56.1400 C   0  0  0  0  0  0  0  0  0  0  0  0
  130.3740  132.4200   56.6440 C   0  0  0  0  0  0  0  0  0  0  0  0
  128.5430  132.0620   59.6620 N   0  0  0  0  0  0  0  0  0  0  0  0
  127.3160  131.9000   60.2150 C   0  0  0  0  0  0  0  0  0  0  0  0
  127.1670  132.6380   61.8290 S   0  0  0  0  0  0  0  0  0  0  0  0
  127.8380  134.3260   61.7400 C   0  0  0  0  0  0  0  0  0  0  0  0
  126.7300  135.3720   61.6180 C   0  0  0  0  0  0  0  0  0  0  0  0
  125.5570  135.0190   61.7370 O   0  0  0  0  0  0  0  0  0  0  0  0
  127.1500  136.6330   61.3760 N   0  0  0  0  0  0  0  0  0  0  0  0
  126.3980  137.8120   61.2040 C   0  0  0  0  0  0  0  0  0  0  0  0
  125.6710  138.4770   62.2080 C   0  0  0  0  0  0  0  0  0  0  0  0
  124.9660  139.6410   61.8960 C   0  0  0  0  0  0  0  0  0  0  0  0
  125.0040  140.1130   60.5840 C   0  0  0  0  0  0  0  0  0  0  0  0
  125.6980  139.4920   59.5980 N   0  0  0  0  0  0  0  0  0  0  0  0
  126.3780  138.3620   59.9180 C   0  0  0  0  0  0  0  0  0  0  0  0
  1  2  3  0
  2  3  1  0
  3  4  2  0
  4  5  1  0
  5  6  1  0
  5  7  1  0
  5  8  1  0
  4  9  1  0
  9 10  2  0
 10 11  1  0
 11 12  2  0
 12 13  1  0
 13 14  2  0
 14 15  1  0
 15 16  2  0
 10 17  1  0
 17 18  2  0
 18 19  1  0
 19 20  1  0
 20 21  1  0
 21 22  2  0
 21 23  1  0
 23 24  1  0
 24 25  2  0
 25 26  1  0
 26 27  2  0
 27 28  1  0
 28 29  2  0
 18  3  1  0
 29 24  1  0
 16 11  1  0
M  END
>  <Binding energies>  (15) 
[-8.82]

>  <Ligand effiencies>  (15) 
[-0.294]

>  <Interactions>  (15) 
["V-A:TYR:539:CD1:4871, V-A:LEU:363:CD1:3186, V-A:ILE:538:CG2:4861, V-A:PRO:540:CD:4885, V-A:PRO:540:CA:4881, V-A:TYR:531:CE2:4791, V-A:TYR:539:CE1:4873, V-B:LEU:475:CD2:9230, V-A:ILE:538:CB:4860, V-A:PRO:540:CB:4883, V-A:ALA:541:CB:4890, V-A:TYR:539:CZ:4875, V-B:TYR:531:CZ:9766, V-B:ASP:366:CB:8183, V-B:ASP:366:CG:8184, V-A:TYR:539:CG:4870, H-A:TYR:539:O:4866, V-A:ILE:538:CA:4858, V-B:SER:385:CB:8380, V-B:PRO:482:CG:9298, V-B:LEU:373:CD1:8251, V-B:PRO:482:CB:9297, V-B:ASP:366:CA:8181, V-A:TYR:539:CB:4869, V-A:VAL:344:CG1:2998, V-B:TYR:531:CE1:9764, V-B:HIS:383:CG:8361, V-B:LEU:475:CG:9228, V-B:HIS:383:CB:8360, V-B:HIS:383:CD2:8363, V-B:ASP:366:C:8179"]

$$$$
3ag_Grossjean_2025
     RDKit          3D

 30 32  0  0  0  0  0  0  0  0999 V2000
  124.1970  130.7230   61.0720 N   0  0  0  0  0  0  0  0  0  0  0  0
  125.1910  130.9130   60.5110 C   0  0  0  0  0  0  0  0  0  0  0  0
  126.4480  131.1520   59.7970 C   0  0  0  0  0  0  0  0  0  0  0  0
  126.6410  130.6580   58.4840 C   0  0  0  0  0  0  0  0  0  0  0  0
  125.5420  129.9030   57.7100 C   0  0  0  0  0  0  0  0  0  0  0  0
  125.6920  129.9840   56.3870 F   0  0  0  0  0  0  0  0  0  0  0  0
  125.5620  128.6110   58.0390 F   0  0  0  0  0  0  0  0  0  0  0  0
  124.3430  130.4060   58.0060 F   0  0  0  0  0  0  0  0  0  0  0  0
  127.8820  130.8670   57.8630 C   0  0  0  0  0  0  0  0  0  0  0  0
  128.9060  131.5380   58.5390 C   0  0  0  0  0  0  0  0  0  0  0  0
  130.2500  131.7870   57.9250 C   0  0  0  0  0  0  0  0  0  0  0  0
  130.3630  132.4070   56.6710 C   0  0  0  0  0  0  0  0  0  0  0  0
  131.6090  132.6410   56.0950 C   0  0  0  0  0  0  0  0  0  0  0  0
  132.7630  132.2550   56.7690 C   0  0  0  0  0  0  0  0  0  0  0  0
  132.6790  131.6360   58.0120 C   0  0  0  0  0  0  0  0  0  0  0  0
  131.4320  131.4030   58.5830 C   0  0  0  0  0  0  0  0  0  0  0  0
  128.7140  132.0220   59.7930 N   0  0  0  0  0  0  0  0  0  0  0  0
  127.5170  131.8490   60.4040 C   0  0  0  0  0  0  0  0  0  0  0  0
  127.4450  132.5490   62.0380 S   0  0  0  0  0  0  0  0  0  0  0  0
  127.7370  134.3360   61.8760 C   0  0  0  0  0  0  0  0  0  0  0  0
  126.4610  135.0990   61.5170 C   0  0  0  0  0  0  0  0  0  0  0  0
  125.3600  134.5800   61.7100 O   0  0  0  0  0  0  0  0  0  0  0  0
  126.6260  136.3300   61.0020 N   0  0  0  0  0  0  0  0  0  0  0  0
  125.5480  137.2430   60.6240 C   0  0  0  0  0  0  0  0  0  0  0  0
  125.8370  138.7080   60.9340 C   0  0  0  0  0  0  0  0  0  0  0  0
  125.5280  139.2240   62.1950 C   0  0  0  0  0  0  0  0  0  0  0  0
  125.8170  140.5540   62.4920 C   0  0  0  0  0  0  0  0  0  0  0  0
  126.4220  141.3600   61.5300 C   0  0  0  0  0  0  0  0  0  0  0  0
  126.7460  140.8480   60.2760 C   0  0  0  0  0  0  0  0  0  0  0  0
  126.4580  139.5180   59.9780 C   0  0  0  0  0  0  0  0  0  0  0  0
  1  2  3  0
  2  3  1  0
  3  4  2  0
  4  5  1  0
  5  6  1  0
  5  7  1  0
  5  8  1  0
  4  9  1  0
  9 10  2  0
 10 11  1  0
 11 12  2  0
 12 13  1  0
 13 14  2  0
 14 15  1  0
 15 16  2  0
 10 17  1  0
 17 18  2  0
 18 19  1  0
 19 20  1  0
 20 21  1  0
 21 22  2  0
 21 23  1  0
 23 24  1  0
 24 25  1  0
 25 26  2  0
 26 27  1  0
 27 28  2  0
 28 29  1  0
 29 30  2  0
 18  3  1  0
 30 25  1  0
 16 11  1  0
M  END
>  <Binding energies>  (16) 
[-9.22]

>  <Ligand effiencies>  (16) 
[-0.2974193548387097]

>  <Interactions>  (16) 
["V-A:TYR:539:CD1:4871, V-A:LEU:363:CD1:3186, V-A:ILE:538:CG2:4861, V-A:PRO:540:CD:4885, V-A:PRO:540:CA:4881, V-A:TYR:531:CE2:4791, V-A:TYR:539:CE1:4873, V-B:LEU:475:CD2:9230, V-A:ILE:538:CB:4860, V-A:PRO:540:CB:4883, V-A:ALA:541:CB:4890, V-A:TYR:539:CZ:4875, V-B:ASP:366:CB:8183, V-B:ASP:366:CG:8184, V-A:TYR:539:CG:4870, H-A:TYR:539:O:4866, V-A:ILE:538:CA:4858, V-B:SER:385:CB:8380, V-B:PRO:482:CG:9298, V-B:LEU:373:CD1:8251, V-B:PRO:482:CB:9297, V-B:ASP:366:CA:8181, V-A:TYR:539:CB:4869, V-A:VAL:344:CG1:2998, V-B:TYR:531:CE1:9764, V-B:THR:477:CA:9241, V-B:HIS:383:CG:8361, V-B:HIS:383:CB:8360, V-B:HIS:383:CD2:8363, V-B:ASP:366:C:8179, V-B:HIS:383:CE1:8365, V-B:CYS:476:C:9235"]

$$$$
3bc_Grossjean_2025
     RDKit          3D

 28 30  0  0  0  0  0  0  0  0999 V2000
  130.8740  112.6650   61.3990 C   0  0  0  0  0  0  0  0  0  0  0  0
  131.7330  113.4980   60.6300 O   0  0  0  0  0  0  0  0  0  0  0  0
  131.6340  114.8710   60.7590 C   0  0  0  0  0  0  0  0  0  0  0  0
  130.9090  115.5380   59.7720 C   0  0  0  0  0  0  0  0  0  0  0  0
  130.7550  116.9210   59.8170 C   0  0  0  0  0  0  0  0  0  0  0  0
  131.3330  117.6590   60.8520 C   0  0  0  0  0  0  0  0  0  0  0  0
  131.1120  119.0490   60.8210 N   0  0  0  0  0  0  0  0  0  0  0  0
  132.0000  120.0560   60.9640 C   0  0  0  0  0  0  0  0  0  0  0  0
  133.2140  119.9050   61.1150 O   0  0  0  0  0  0  0  0  0  0  0  0
  131.3920  121.4630   60.8840 C   0  0  0  0  0  0  0  0  0  0  0  0
  129.8460  121.6950   61.8260 S   0  0  0  0  0  0  0  0  0  0  0  0
  129.0400  123.1510   61.1980 C   0  0  0  0  0  0  0  0  0  0  0  0
  128.1660  122.8990   60.1930 N   0  0  0  0  0  0  0  0  0  0  0  0
  127.4780  123.9230   59.6220 C   0  0  0  0  0  0  0  0  0  0  0  0
  126.5470  123.5630   58.5020 C   0  0  0  0  0  0  0  0  0  0  0  0
  125.1600  123.7110   58.6470 C   0  0  0  0  0  0  0  0  0  0  0  0
  124.2900  123.3790   57.6120 C   0  0  0  0  0  0  0  0  0  0  0  0
  124.7990  122.8910   56.4130 C   0  0  0  0  0  0  0  0  0  0  0  0
  126.1710  122.7310   56.2440 C   0  0  0  0  0  0  0  0  0  0  0  0
  127.0370  123.0630   57.2830 C   0  0  0  0  0  0  0  0  0  0  0  0
  127.6580  125.2400   60.0560 C   0  0  0  0  0  0  0  0  0  0  0  0
  128.5380  125.5140   61.1090 C   0  0  0  0  0  0  0  0  0  0  0  0
  128.6900  126.9650   61.5620 C   0  0  0  0  0  0  0  0  0  0  0  0
  129.2470  124.4520   61.7110 C   0  0  0  0  0  0  0  0  0  0  0  0
  130.1360  124.7080   62.8460 C   0  0  0  0  0  0  0  0  0  0  0  0
  130.8390  124.9140   63.7420 N   0  0  0  0  0  0  0  0  0  0  0  0
  132.0520  116.9950   61.8560 C   0  0  0  0  0  0  0  0  0  0  0  0
  132.2040  115.6110   61.8070 C   0  0  0  0  0  0  0  0  0  0  0  0
  1  2  1  0
  2  3  1  0
  3  4  2  0
  4  5  1  0
  5  6  2  0
  6  7  1  0
  7  8  1  0
  8  9  2  0
  8 10  1  0
 10 11  1  0
 11 12  1  0
 12 13  2  0
 13 14  1  0
 14 15  1  0
 15 16  2  0
 16 17  1  0
 17 18  2  0
 18 19  1  0
 19 20  2  0
 14 21  2  0
 21 22  1  0
 22 23  1  0
 22 24  2  0
 24 25  1  0
 25 26  3  0
  6 27  1  0
 27 28  2  0
 28  3  1  0
 24 12  1  0
 20 15  1  0
M  END
>  <Binding energies>  (17) 
[-8.81]

>  <Ligand effiencies>  (17) 
[-0.30379310344827587]

>  <Interactions>  (17) 
["V-B:TYR:539:CE1:9847, V-B:TYR:539:CD1:9845, V-B:TYR:531:CE2:9765, V-B:PRO:540:CA:9855, V-B:ILE:538:CB:9834, V-B:LEU:363:CD1:8160, V-B:PRO:540:N:9856, V-B:GLU:543:CD:9880, V-B:PRO:540:CD:9859, V-B:PRO:540:CB:9857, V-B:ILE:538:CG2:9835, V-A:LEU:475:CD2:4256, V-B:TYR:539:CG:9844, V-A:PRO:482:CB:4323, V-A:PRO:482:CG:4324, V-B:LEU:363:CA:8156, V-B:ILE:538:CA:9832, H-B:TYR:539:O:9840, V-A:SER:385:CB:3406, V-B:VAL:344:CG1:7972, V-B:TYR:539:CB:9843, V-A:HIS:383:CG:3387, V-A:HIS:383:CE1:3391, V-A:THR:477:C:4265, V-A:THR:477:CA:4267, H-A:HIS:383:ND1:3388, V-A:LEU:475:CG:4254"]

$$$$
3bd_Grossjean_2025
     RDKit          3D

 26 28  0  0  0  0  0  0  0  0999 V2000
  125.8330  129.9520   56.7850 C   0  0  0  0  0  0  0  0  0  0  0  0
  126.7700  130.6590   57.7620 C   0  0  0  0  0  0  0  0  0  0  0  0
  128.1020  130.8510   57.3800 C   0  0  0  0  0  0  0  0  0  0  0  0
  128.9940  131.4910   58.2490 C   0  0  0  0  0  0  0  0  0  0  0  0
  130.4330  131.7330   57.9010 C   0  0  0  0  0  0  0  0  0  0  0  0
  131.4590  131.3110   58.7600 C   0  0  0  0  0  0  0  0  0  0  0  0
  132.7970  131.5340   58.4440 C   0  0  0  0  0  0  0  0  0  0  0  0
  133.1270  132.1840   57.2590 C   0  0  0  0  0  0  0  0  0  0  0  0
  132.1290  132.6150   56.3920 C   0  0  0  0  0  0  0  0  0  0  0  0
  130.7930  132.3910   56.7120 C   0  0  0  0  0  0  0  0  0  0  0  0
  128.5780  131.9450   59.4600 N   0  0  0  0  0  0  0  0  0  0  0  0
  127.2900  131.7670   59.8480 C   0  0  0  0  0  0  0  0  0  0  0  0
  126.8740  132.3980   61.4650 S   0  0  0  0  0  0  0  0  0  0  0  0
  127.5630  134.0740   61.6110 C   0  0  0  0  0  0  0  0  0  0  0  0
  126.4990  135.1510   61.3990 C   0  0  0  0  0  0  0  0  0  0  0  0
  125.3110  134.8500   61.5160 O   0  0  0  0  0  0  0  0  0  0  0  0
  126.9640  136.3780   61.0790 N   0  0  0  0  0  0  0  0  0  0  0  0
  126.2450  137.5670   60.8520 C   0  0  0  0  0  0  0  0  0  0  0  0
  126.9530  138.6080   60.2460 C   0  0  0  0  0  0  0  0  0  0  0  0
  126.3260  139.8250   59.9890 C   0  0  0  0  0  0  0  0  0  0  0  0
  124.9940  140.0050   60.3480 C   0  0  0  0  0  0  0  0  0  0  0  0
  124.2810  138.9790   60.9650 C   0  0  0  0  0  0  0  0  0  0  0  0
  124.9040  137.7610   61.2210 C   0  0  0  0  0  0  0  0  0  0  0  0
  126.3410  131.1220   59.0250 C   0  0  0  0  0  0  0  0  0  0  0  0
  124.9520  130.9380   59.4540 C   0  0  0  0  0  0  0  0  0  0  0  0
  123.8540  130.7920   59.7910 N   0  0  0  0  0  0  0  0  0  0  0  0
  1  2  1  0
  2  3  2  0
  3  4  1  0
  4  5  1  0
  5  6  2  0
  6  7  1  0
  7  8  2  0
  8  9  1  0
  9 10  2  0
  4 11  2  0
 11 12  1  0
 12 13  1  0
 13 14  1  0
 14 15  1  0
 15 16  2  0
 15 17  1  0
 17 18  1  0
 18 19  2  0
 19 20  1  0
 20 21  2  0
 21 22  1  0
 22 23  2  0
 12 24  2  0
 24 25  1  0
 25 26  3  0
 24  2  1  0
 10  5  1  0
 23 18  1  0
M  END
>  <Binding energies>  (18) 
[-9.56]

>  <Ligand effiencies>  (18) 
[-0.3540740740740741]

>  <Interactions>  (18) 
["V-A:TYR:539:CD1:4871, V-A:PRO:540:N:4882, V-A:LEU:363:CD1:3186, V-A:ILE:538:CG2:4861, V-A:PRO:540:CG:4884, V-A:PRO:540:CD:4885, V-A:PRO:540:CA:4881, V-A:TYR:539:CE1:4873, V-B:LEU:475:CD2:9230, V-A:ILE:538:CB:4860, V-A:PRO:540:CB:4883, V-A:ALA:541:CB:4890, V-A:TYR:539:C:4865, V-A:TYR:539:CZ:4875, V-A:TYR:539:CG:4870, H-A:TYR:539:O:4866, V-B:SER:385:CB:8380, V-B:PRO:482:CG:9298, V-B:LEU:373:CD1:8251, V-B:SER:385:CA:8378, V-A:LEU:363:CA:3182, V-A:TYR:539:CB:4869, V-A:VAL:344:CG1:2998, V-B:HIS:383:CG:8361, V-B:HIS:383:CB:8360, V-B:VAL:384:C:8368, V-B:HIS:383:CD2:8363, V-B:LEU:373:CD2:8252"]

$$$$
3be_Grossjean_2025
     RDKit          3D

 27 29  0  0  0  0  0  0  0  0999 V2000
  131.0820  113.8180   61.7470 C   0  0  0  0  0  0  0  0  0  0  0  0
  131.9720  114.9170   61.1990 C   0  0  0  0  0  0  0  0  0  0  0  0
  133.2050  114.6330   60.6080 C   0  0  0  0  0  0  0  0  0  0  0  0
  133.9730  115.6940   60.1280 C   0  0  0  0  0  0  0  0  0  0  0  0
  133.4930  117.0020   60.2490 C   0  0  0  0  0  0  0  0  0  0  0  0
  132.2480  117.2160   60.8490 C   0  0  0  0  0  0  0  0  0  0  0  0
  131.8260  118.5550   60.9510 N   0  0  0  0  0  0  0  0  0  0  0  0
  132.5720  119.6800   60.9280 C   0  0  0  0  0  0  0  0  0  0  0  0
  133.8000  119.7050   60.8150 O   0  0  0  0  0  0  0  0  0  0  0  0
  131.7710  120.9860   61.0550 C   0  0  0  0  0  0  0  0  0  0  0  0
  129.9870  120.7730   61.3740 S   0  0  0  0  0  0  0  0  0  0  0  0
  129.1780  122.3250   61.0520 C   0  0  0  0  0  0  0  0  0  0  0  0
  128.2980  122.2760   60.0230 N   0  0  0  0  0  0  0  0  0  0  0  0
  127.6050  123.3920   59.6700 C   0  0  0  0  0  0  0  0  0  0  0  0
  126.6610  123.2560   58.5120 C   0  0  0  0  0  0  0  0  0  0  0  0
  127.1070  122.7590   57.2770 C   0  0  0  0  0  0  0  0  0  0  0  0
  126.2370  122.6330   56.1980 C   0  0  0  0  0  0  0  0  0  0  0  0
  124.9040  123.0050   56.3390 C   0  0  0  0  0  0  0  0  0  0  0  0
  124.4370  123.5030   57.5500 C   0  0  0  0  0  0  0  0  0  0  0  0
  125.3110  123.6280   58.6270 C   0  0  0  0  0  0  0  0  0  0  0  0
  127.7910  124.5980   60.3540 C   0  0  0  0  0  0  0  0  0  0  0  0
  128.6780  124.6590   61.4340 C   0  0  0  0  0  0  0  0  0  0  0  0
  128.8360  125.9930   62.1620 C   0  0  0  0  0  0  0  0  0  0  0  0
  129.3880  123.4990   61.8110 C   0  0  0  0  0  0  0  0  0  0  0  0
  130.2810  123.5270   62.9720 C   0  0  0  0  0  0  0  0  0  0  0  0
  130.9850  123.5520   63.8900 N   0  0  0  0  0  0  0  0  0  0  0  0
  131.4940  116.1810   61.3240 N   0  0  0  0  0  0  0  0  0  0  0  0
  1  2  1  0
  2  3  2  0
  3  4  1  0
  4  5  2  0
  5  6  1  0
  6  7  1  0
  7  8  1  0
  8  9  2  0
  8 10  1  0
 10 11  1  0
 11 12  1  0
 12 13  2  0
 13 14  1  0
 14 15  1  0
 15 16  2  0
 16 17  1  0
 17 18  2  0
 18 19  1  0
 19 20  2  0
 14 21  2  0
 21 22  1  0
 22 23  1  0
 22 24  2  0
 24 25  1  0
 25 26  3  0
  6 27  2  0
 27  2  1  0
 24 12  1  0
 20 15  1  0
M  END
>  <Binding energies>  (19) 
[-9.32]

>  <Ligand effiencies>  (19) 
[-0.33285714285714285]

>  <Interactions>  (19) 
["V-B:TYR:539:CE1:9847, V-B:TYR:539:CD1:9845, V-B:TYR:531:CE2:9765, V-B:PRO:540:CA:9855, V-B:ILE:538:CB:9834, V-B:LEU:363:CD1:8160, V-B:PRO:540:N:9856, V-B:TYR:539:C:9839, V-B:GLU:543:CD:9880, V-B:PRO:540:CD:9859, V-B:PRO:540:CB:9857, V-B:ILE:538:CG2:9835, V-A:LEU:475:CD2:4256, V-A:LEU:373:CD1:3277, V-A:PRO:482:CB:4323, V-B:ALA:541:CB:9864, V-A:PRO:482:CG:4324, H-B:ALA:541:N:9863, V-B:ILE:538:C:9830, V-B:ILE:538:CA:9832, H-B:TYR:539:O:9840, H-A:TYR:484:OH:4345, V-A:SER:385:CA:3404, V-A:SER:385:CB:3406, V-A:HIS:383:CG:3387, V-A:HIS:383:CB:3386, V-A:LEU:373:CD2:3278, V-A:VAL:384:C:3394, V-A:THR:477:CA:4267, V-A:HIS:383:CA:3384, V-A:HIS:383:C:3382"]

$$$$
3bf_Grossjean_2025
     RDKit          3D

 26 28  0  0  0  0  0  0  0  0999 V2000
  128.8340  122.1430   61.6800 C   0  0  0  0  0  0  0  0  0  0  0  0
  130.2290  121.5540   61.4860 C   0  0  0  0  0  0  0  0  0  0  0  0
  130.3340  120.1910   61.1900 C   0  0  0  0  0  0  0  0  0  0  0  0
  131.5930  119.6130   60.9900 C   0  0  0  0  0  0  0  0  0  0  0  0
  131.7710  118.1650   60.6480 C   0  0  0  0  0  0  0  0  0  0  0  0
  130.7370  117.4410   60.0340 C   0  0  0  0  0  0  0  0  0  0  0  0
  130.8960  116.0950   59.7150 C   0  0  0  0  0  0  0  0  0  0  0  0
  132.0950  115.4530   60.0070 C   0  0  0  0  0  0  0  0  0  0  0  0
  133.1340  116.1470   60.6160 C   0  0  0  0  0  0  0  0  0  0  0  0
  132.9710  117.4930   60.9360 C   0  0  0  0  0  0  0  0  0  0  0  0
  132.7250  120.3610   61.0790 N   0  0  0  0  0  0  0  0  0  0  0  0
  132.6410  121.6780   61.3900 C   0  0  0  0  0  0  0  0  0  0  0  0
  134.2220  122.4930   61.4690 S   0  0  0  0  0  0  0  0  0  0  0  0
  134.0140  124.1930   60.8370 C   0  0  0  0  0  0  0  0  0  0  0  0
  133.4450  124.2940   59.4140 C   0  0  0  0  0  0  0  0  0  0  0  0
  133.9240  123.6270   58.4950 O   0  0  0  0  0  0  0  0  0  0  0  0
  132.3910  125.1290   59.2880 N   0  0  0  0  0  0  0  0  0  0  0  0
  131.6540  125.4530   58.1330 C   0  0  0  0  0  0  0  0  0  0  0  0
  130.2920  125.7270   58.3010 C   0  0  0  0  0  0  0  0  0  0  0  0
  129.5090  126.0670   57.1950 C   0  0  0  0  0  0  0  0  0  0  0  0
  130.1190  126.1310   55.9420 C   0  0  0  0  0  0  0  0  0  0  0  0
  131.4390  125.8820   55.7520 N   0  0  0  0  0  0  0  0  0  0  0  0
  132.1870  125.5510   56.8360 C   0  0  0  0  0  0  0  0  0  0  0  0
  131.4040  122.3310   61.5860 C   0  0  0  0  0  0  0  0  0  0  0  0
  131.3140  123.7700   61.8450 C   0  0  0  0  0  0  0  0  0  0  0  0
  131.2420  124.9070   62.0520 N   0  0  0  0  0  0  0  0  0  0  0  0
  1  2  1  0
  2  3  2  0
  3  4  1  0
  4  5  1  0
  5  6  2  0
  6  7  1  0
  7  8  2  0
  8  9  1  0
  9 10  2  0
  4 11  2  0
 11 12  1  0
 12 13  1  0
 13 14  1  0
 14 15  1  0
 15 16  2  0
 15 17  1  0
 17 18  1  0
 18 19  2  0
 19 20  1  0
 20 21  2  0
 21 22  1  0
 22 23  2  0
 12 24  2  0
 24 25  1  0
 25 26  3  0
 24  2  1  0
 10  5  1  0
 23 18  1  0
M  END
>  <Binding energies>  (20) 
[-8.78]

>  <Ligand effiencies>  (20) 
[-0.3251851851851852]

>  <Interactions>  (20) 
["V-B:TYR:539:CE1:9847, V-B:TYR:539:CD1:9845, V-A:ASP:366:CB:3209, V-B:MET:535:CE:9807, V-B:TYR:539:CZ:9849, V-A:LEU:475:CD2:4256, V-B:TYR:539:CG:9844, V-A:LEU:373:CD1:3277, V-B:PRO:540:C:9853, V-B:ALA:541:CB:9864, V-A:PRO:482:CG:4324, V-A:ASP:366:CG:3210, V-A:ASP:366:CA:3207, V-A:ILE:369:CD1:3236, H-B:TYR:539:OH:9850, V-A:ILE:369:CG2:3234, H-A:TYR:531:OH:4793, V-B:ALA:541:CA:9862, V-A:SER:385:CA:3404, V-A:SER:385:CB:3406, H-A:ASP:366:OD1:3211, V-B:VAL:344:CG1:7972, V-B:TYR:539:CB:9843, V-A:HIS:383:CG:3387, V-A:HIS:383:CB:3386, H-A:ASN:370:ND2:3245"]

$$$$
3bg_Grossjean_2025
     RDKit          3D

 27 29  0  0  0  0  0  0  0  0999 V2000
  132.5770  125.2290   57.9830 C   0  0  0  0  0  0  0  0  0  0  0  0
  131.4780  124.4060   58.6520 C   0  0  0  0  0  0  0  0  0  0  0  0
  130.2630  124.2530   57.9770 C   0  0  0  0  0  0  0  0  0  0  0  0
  129.2300  123.4990   58.5510 C   0  0  0  0  0  0  0  0  0  0  0  0
  127.9050  123.2860   57.8730 C   0  0  0  0  0  0  0  0  0  0  0  0
  126.7000  123.3990   58.5870 C   0  0  0  0  0  0  0  0  0  0  0  0
  125.4710  123.2200   57.9590 C   0  0  0  0  0  0  0  0  0  0  0  0
  125.4260  122.9200   56.6020 C   0  0  0  0  0  0  0  0  0  0  0  0
  126.6020  122.7900   55.8730 C   0  0  0  0  0  0  0  0  0  0  0  0
  127.8290  122.9680   56.5050 C   0  0  0  0  0  0  0  0  0  0  0  0
  129.4040  122.8970   59.7580 N   0  0  0  0  0  0  0  0  0  0  0  0
  130.5780  123.0340   60.4260 C   0  0  0  0  0  0  0  0  0  0  0  0
  130.6890  122.1650   61.9820 S   0  0  0  0  0  0  0  0  0  0  0  0
  130.1480  120.4450   61.7160 C   0  0  0  0  0  0  0  0  0  0  0  0
  131.2210  119.6130   61.0080 C   0  0  0  0  0  0  0  0  0  0  0  0
  132.3710  120.0430   60.9200 O   0  0  0  0  0  0  0  0  0  0  0  0
  130.8220  118.4380   60.4900 N   0  0  0  0  0  0  0  0  0  0  0  0
  131.6260  117.5750   59.6240 C   0  0  0  0  0  0  0  0  0  0  0  0
  131.8090  116.1850   60.2220 C   0  0  0  0  0  0  0  0  0  0  0  0
  132.9030  115.9190   61.0520 C   0  0  0  0  0  0  0  0  0  0  0  0
  133.0760  114.6480   61.5900 C   0  0  0  0  0  0  0  0  0  0  0  0
  132.1480  113.6470   61.3070 C   0  0  0  0  0  0  0  0  0  0  0  0
  131.0440  113.9100   60.4990 C   0  0  0  0  0  0  0  0  0  0  0  0
  130.8720  115.1830   59.9600 C   0  0  0  0  0  0  0  0  0  0  0  0
  131.6500  123.7920   59.9110 C   0  0  0  0  0  0  0  0  0  0  0  0
  132.9140  123.9290   60.6390 C   0  0  0  0  0  0  0  0  0  0  0  0
  133.9120  124.0370   61.2130 N   0  0  0  0  0  0  0  0  0  0  0  0
  1  2  1  0
  2  3  2  0
  3  4  1  0
  4  5  1  0
  5  6  2  0
  6  7  1  0
  7  8  2  0
  8  9  1  0
  9 10  2  0
  4 11  2  0
 11 12  1  0
 12 13  1  0
 13 14  1  0
 14 15  1  0
 15 16  2  0
 15 17  1  0
 17 18  1  0
 18 19  1  0
 19 20  2  0
 20 21  1  0
 21 22  2  0
 22 23  1  0
 23 24  2  0
 12 25  2  0
 25 26  1  0
 26 27  3  0
 25  2  1  0
 10  5  1  0
 24 19  1  0
M  END
>  <Binding energies>  (21) 
[-9.38]

>  <Ligand effiencies>  (21) 
[-0.335]

>  <Interactions>  (21) 
["V-B:TYR:539:CE1:9847, V-B:TYR:539:CD1:9845, V-A:ASP:366:CB:3209, V-B:PRO:540:CA:9855, V-B:ILE:538:CB:9834, V-B:MET:535:CE:9807, V-B:TYR:539:CZ:9849, V-B:LEU:363:CD1:8160, V-B:PRO:540:N:9856, V-B:PRO:540:CD:9859, V-B:PRO:540:CB:9857, V-B:ILE:538:CG2:9835, V-A:LEU:475:CD2:4256, V-B:TYR:539:CG:9844, V-A:LEU:373:CD1:3277, V-B:ALA:541:CB:9864, V-A:PRO:482:CG:4324, V-A:ASP:366:CG:3210, V-B:ILE:538:C:9830, V-A:ASP:366:CA:3207, V-B:ILE:538:CA:9832, H-B:TYR:539:O:9840, V-A:SER:385:CA:3404, V-A:SER:385:CB:3406, V-B:VAL:344:CG1:7972, V-B:TYR:539:CB:9843, V-A:HIS:383:CG:3387, V-A:HIS:383:CB:3386, V-A:HIS:383:CE1:3391, V-A:THR:477:C:4265, V-A:CYS:476:C:4261, V-A:THR:477:CA:4267, V-A:THR:477:CG2:4270, V-A:THR:477:CB:4269"]

$$$$
3ca_Grossjean_2025
     RDKit          3D

 31 33  0  0  0  0  0  0  0  0999 V2000
  130.5940  113.1220   61.3290 C   0  0  0  0  0  0  0  0  0  0  0  0
  131.9060  113.8950   61.1750 C   0  0  0  0  0  0  0  0  0  0  0  0
  131.9640  114.4770   59.8790 O   0  0  0  0  0  0  0  0  0  0  0  0
  132.8040  115.5090   59.6100 C   0  0  0  0  0  0  0  0  0  0  0  0
  133.8820  115.3730   59.0220 O   0  0  0  0  0  0  0  0  0  0  0  0
  132.2890  116.8350   60.0920 C   0  0  0  0  0  0  0  0  0  0  0  0
  130.9180  116.9900   60.3310 C   0  0  0  0  0  0  0  0  0  0  0  0
  130.4100  118.2070   60.7780 C   0  0  0  0  0  0  0  0  0  0  0  0
  131.2600  119.2940   60.9880 C   0  0  0  0  0  0  0  0  0  0  0  0
  130.6440  120.4760   61.4420 N   0  0  0  0  0  0  0  0  0  0  0  0
  131.1990  121.5970   61.9510 C   0  0  0  0  0  0  0  0  0  0  0  0
  132.4060  121.7920   62.0940 O   0  0  0  0  0  0  0  0  0  0  0  0
  130.2080  122.6960   62.3480 C   0  0  0  0  0  0  0  0  0  0  0  0
  130.6160  124.3230   61.6330 S   0  0  0  0  0  0  0  0  0  0  0  0
  130.0380  124.4070   59.9440 C   0  0  0  0  0  0  0  0  0  0  0  0
  130.9410  124.8550   59.0350 N   0  0  0  0  0  0  0  0  0  0  0  0
  130.5790  124.9250   57.7360 C   0  0  0  0  0  0  0  0  0  0  0  0
  131.6470  125.4190   56.7800 C   0  0  0  0  0  0  0  0  0  0  0  0
  129.3080  124.5690   57.2910 C   0  0  0  0  0  0  0  0  0  0  0  0
  128.3520  124.1200   58.2120 C   0  0  0  0  0  0  0  0  0  0  0  0
  126.9980  123.7620   57.6920 C   0  0  0  0  0  0  0  0  0  0  0  0
  126.8690  122.8440   56.6420 C   0  0  0  0  0  0  0  0  0  0  0  0
  125.6120  122.5110   56.1440 C   0  0  0  0  0  0  0  0  0  0  0  0
  124.4760  123.1010   56.6930 C   0  0  0  0  0  0  0  0  0  0  0  0
  124.5870  124.0210   57.7320 C   0  0  0  0  0  0  0  0  0  0  0  0
  125.8470  124.3520   58.2270 C   0  0  0  0  0  0  0  0  0  0  0  0
  128.7250  124.0260   59.5780 C   0  0  0  0  0  0  0  0  0  0  0  0
  127.7840  123.5140   60.5790 C   0  0  0  0  0  0  0  0  0  0  0  0
  127.0410  123.1100   61.3690 N   0  0  0  0  0  0  0  0  0  0  0  0
  132.6360  119.1440   60.7590 C   0  0  0  0  0  0  0  0  0  0  0  0
  133.1420  117.9260   60.3140 C   0  0  0  0  0  0  0  0  0  0  0  0
  1  2  1  0
  2  3  1  0
  3  4  1  0
  4  5  2  0
  4  6  1  0
  6  7  2  0
  7  8  1  0
  8  9  2  0
  9 10  1  0
 10 11  1  0
 11 12  2  0
 11 13  1  0
 13 14  1  0
 14 15  1  0
 15 16  2  0
 16 17  1  0
 17 18  1  0
 17 19  2  0
 19 20  1  0
 20 21  1  0
 21 22  2  0
 22 23  1  0
 23 24  2  0
 24 25  1  0
 25 26  2  0
 20 27  2  0
 27 28  1  0
 28 29  3  0
  9 30  1  0
 30 31  2  0
 31  6  1  0
 27 15  1  0
 26 21  1  0
M  END
>  <Binding energies>  (22) 
[-9.95]

>  <Ligand effiencies>  (22) 
[-0.3109375]

>  <Interactions>  (22) 
["V-B:TYR:539:CE1:9847, V-B:TYR:539:CD1:9845, V-B:TYR:531:CE2:9765, V-B:PRO:540:CA:9855, V-B:ILE:538:CB:9834, V-B:TYR:539:CZ:9849, V-B:LEU:363:CD1:8160, V-B:PRO:540:N:9856, V-B:TYR:539:C:9839, V-B:PRO:540:CD:9859, V-B:PRO:540:CB:9857, V-B:ILE:538:CG2:9835, V-A:LEU:475:CD2:4256, V-A:LEU:373:CD1:3277, V-A:PRO:482:CB:4323, V-B:ALA:541:CB:9864, V-A:PRO:482:CG:4324, H-B:ALA:541:N:9863, V-B:ILE:538:CA:9832, H-B:TYR:539:O:9840, V-A:SER:385:CA:3404, V-A:SER:385:CB:3406, V-B:VAL:344:CG1:7972, V-B:TYR:539:CB:9843, V-A:HIS:383:CG:3387, V-A:HIS:383:CB:3386, V-A:HIS:383:CD2:3389, V-A:LEU:373:CD2:3278, V-A:HIS:383:CE1:3391, V-A:THR:477:CA:4267, H-A:HIS:383:ND1:3388, H-A:VAL:384:N:3397"]

$$$$
3ce_Grossjean_2025
     RDKit          3D

 27 29  0  0  0  0  0  0  0  0999 V2000
  130.8520  115.2770   58.2500 C   0  0  0  0  0  0  0  0  0  0  0  0
  131.5770  116.1750   59.2330 C   0  0  0  0  0  0  0  0  0  0  0  0
  132.8430  115.8470   59.7270 C   0  0  0  0  0  0  0  0  0  0  0  0
  133.4550  116.7260   60.6200 C   0  0  0  0  0  0  0  0  0  0  0  0
  132.7960  117.8990   60.9950 C   0  0  0  0  0  0  0  0  0  0  0  0
  131.5250  118.1620   60.4710 C   0  0  0  0  0  0  0  0  0  0  0  0
  130.9180  119.3660   60.8680 N   0  0  0  0  0  0  0  0  0  0  0  0
  131.4960  120.5750   61.0430 C   0  0  0  0  0  0  0  0  0  0  0  0
  132.6910  120.8190   60.8680 O   0  0  0  0  0  0  0  0  0  0  0  0
  130.5600  121.6990   61.4830 C   0  0  0  0  0  0  0  0  0  0  0  0
  131.2270  123.3390   61.0710 S   0  0  0  0  0  0  0  0  0  0  0  0
  130.4580  123.8020   59.5360 C   0  0  0  0  0  0  0  0  0  0  0  0
  131.3030  124.3870   58.6520 N   0  0  0  0  0  0  0  0  0  0  0  0
  130.8180  124.7610   57.4450 C   0  0  0  0  0  0  0  0  0  0  0  0
  131.8190  125.3960   56.5000 C   0  0  0  0  0  0  0  0  0  0  0  0
  129.4850  124.5810   57.0840 C   0  0  0  0  0  0  0  0  0  0  0  0
  128.5910  124.0020   57.9940 C   0  0  0  0  0  0  0  0  0  0  0  0
  127.1670  123.8530   57.5710 C   0  0  0  0  0  0  0  0  0  0  0  0
  126.1560  124.5450   58.2480 C   0  0  0  0  0  0  0  0  0  0  0  0
  124.8250  124.4060   57.8630 C   0  0  0  0  0  0  0  0  0  0  0  0
  124.4970  123.5670   56.8010 C   0  0  0  0  0  0  0  0  0  0  0  0
  125.4900  122.8640   56.1240 C   0  0  0  0  0  0  0  0  0  0  0  0
  126.8200  123.0050   56.5100 C   0  0  0  0  0  0  0  0  0  0  0  0
  129.0860  123.5940   59.2580 C   0  0  0  0  0  0  0  0  0  0  0  0
  128.2010  122.9680   60.2460 C   0  0  0  0  0  0  0  0  0  0  0  0
  127.5020  122.4750   61.0250 N   0  0  0  0  0  0  0  0  0  0  0  0
  130.9230  117.3100   59.5900 N   0  0  0  0  0  0  0  0  0  0  0  0
  1  2  1  0
  2  3  2  0
  3  4  1  0
  4  5  2  0
  5  6  1  0
  6  7  1  0
  7  8  1  0
  8  9  2  0
  8 10  1  0
 10 11  1  0
 11 12  1  0
 12 13  2  0
 13 14  1  0
 14 15  1  0
 14 16  2  0
 16 17  1  0
 17 18  1  0
 18 19  2  0
 19 20  1  0
 20 21  2  0
 21 22  1  0
 22 23  2  0
 17 24  2  0
 24 25  1  0
 25 26  3  0
  6 27  2  0
 27  2  1  0
 24 12  1  0
 23 18  1  0
M  END
>  <Binding energies>  (23) 
[-9.46]

>  <Ligand effiencies>  (23) 
[-0.3378571428571429]

>  <Interactions>  (23) 
["V-B:TYR:539:CE1:9847, V-B:TYR:539:CD1:9845, V-B:TYR:531:CE2:9765, V-B:PRO:540:CA:9855, V-B:ILE:538:CB:9834, V-B:MET:535:CE:9807, V-B:TYR:539:CZ:9849, V-B:LEU:363:CD1:8160, V-B:PRO:540:CD:9859, V-B:TYR:531:CZ:9766, V-B:ILE:538:CG2:9835, V-A:LEU:475:CD2:4256, V-A:LEU:373:CD1:3277, V-B:ALA:541:CB:9864, H-B:ALA:541:N:9863, V-B:ASP:366:CB:8183, V-B:ASP:366:CG:8184, V-B:ILE:538:CA:9832, H-B:TYR:539:OH:9850, H-B:TYR:539:O:9840, V-A:SER:385:CA:3404, V-A:SER:385:CB:3406, V-B:VAL:344:CG1:7972, V-B:TYR:539:CB:9843, V-A:HIS:383:CG:3387, V-A:HIS:383:CB:3386, V-A:HIS:383:CD2:3389, V-B:ILE:343:CD1:7965, V-A:LEU:373:CD2:3278, V-A:HIS:383:CE1:3391, V-A:TYR:531:CE1:4790, V-A:VAL:384:C:3394, V-B:ILE:343:CG1:7964"]

$$$$
3cj_Grossjean_2025
     RDKit          3D

 25 27  0  0  0  0  0  0  0  0999 V2000
  125.4800  129.9940   56.9080 C   0  0  0  0  0  0  0  0  0  0  0  0
  126.5520  130.5730   57.8110 C   0  0  0  0  0  0  0  0  0  0  0  0
  127.8640  130.7380   57.3710 C   0  0  0  0  0  0  0  0  0  0  0  0
  128.8170  131.2980   58.2320 C   0  0  0  0  0  0  0  0  0  0  0  0
  130.1930  131.5150   57.6980 C   0  0  0  0  0  0  0  0  0  0  0  0
  131.2880  130.8490   58.2610 C   0  0  0  0  0  0  0  0  0  0  0  0
  132.5740  131.0630   57.7700 C   0  0  0  0  0  0  0  0  0  0  0  0
  132.7690  131.9510   56.7170 C   0  0  0  0  0  0  0  0  0  0  0  0
  131.6920  132.6280   56.1520 C   0  0  0  0  0  0  0  0  0  0  0  0
  130.4070  132.4120   56.6440 C   0  0  0  0  0  0  0  0  0  0  0  0
  128.4160  131.6500   59.5450 C   0  0  0  0  0  0  0  0  0  0  0  0
  129.3740  132.2140   60.5010 C   0  0  0  0  0  0  0  0  0  0  0  0
  130.1310  132.6600   61.2550 N   0  0  0  0  0  0  0  0  0  0  0  0
  127.0640  131.4520   59.9040 C   0  0  0  0  0  0  0  0  0  0  0  0
  126.3990  131.9740   61.4710 S   0  0  0  0  0  0  0  0  0  0  0  0
  127.1040  133.6300   61.7490 C   0  0  0  0  0  0  0  0  0  0  0  0
  126.0690  134.7370   61.5200 C   0  0  0  0  0  0  0  0  0  0  0  0
  124.8800  134.5140   61.7550 O   0  0  0  0  0  0  0  0  0  0  0  0
  126.5700  135.9180   61.0990 N   0  0  0  0  0  0  0  0  0  0  0  0
  125.8720  137.1060   60.9470 C   0  0  0  0  0  0  0  0  0  0  0  0
  124.6130  137.3470   61.2440 N   0  0  0  0  0  0  0  0  0  0  0  0
  124.2910  138.6000   60.9970 C   0  0  0  0  0  0  0  0  0  0  0  0
  125.3020  139.4090   60.4860 C   0  0  0  0  0  0  0  0  0  0  0  0
  126.7520  138.4640   60.3220 S   0  0  0  0  0  0  0  0  0  0  0  0
  126.1470  130.9330   59.0490 N   0  0  0  0  0  0  0  0  0  0  0  0
  1  2  1  0
  2  3  2  0
  3  4  1  0
  4  5  1  0
  5  6  2  0
  6  7  1  0
  7  8  2  0
  8  9  1  0
  9 10  2  0
  4 11  2  0
 11 12  1  0
 12 13  3  0
 11 14  1  0
 14 15  1  0
 15 16  1  0
 16 17  1  0
 17 18  2  0
 17 19  1  0
 19 20  1  0
 20 21  2  0
 21 22  1  0
 22 23  2  0
 23 24  1  0
 14 25  2  0
 25  2  1  0
 10  5  1  0
 24 20  1  0
M  END
>  <Binding energies>  (24) 
[-8.51]

>  <Ligand effiencies>  (24) 
[-0.3273076923076923]

>  <Interactions>  (24) 
["V-A:TYR:539:CD1:4871, V-A:LEU:363:CD1:3186, V-A:ILE:538:CG2:4861, V-A:PRO:540:CD:4885, V-A:PRO:540:CA:4881, V-A:TYR:531:CE2:4791, V-A:TYR:539:CE1:4873, V-B:LEU:475:CD2:9230, V-A:ILE:538:CB:4860, H-A:ALA:541:N:4889, V-A:ALA:541:CB:4890, V-A:TYR:539:CZ:4875, V-A:TYR:539:CG:4870, H-A:TYR:539:O:4866, H-A:TYR:539:OH:4876, V-A:ILE:538:CA:4858, V-B:SER:385:CB:8380, V-B:PRO:482:CG:9298, V-B:LEU:373:CD1:8251, V-B:SER:385:CA:8378, V-A:TYR:539:CB:4869, V-A:VAL:344:CG1:2998, V-B:HIS:383:CG:8361, V-B:VAL:384:C:8368"]

$$$$
4ba_Grossjean_2025
     RDKit          3D

 28 30  0  0  0  0  0  0  0  0999 V2000
  125.8800  141.3950   61.8980 C   0  0  0  0  0  0  0  0  0  0  0  0
  124.5080  140.7340   62.1280 C   0  0  0  0  0  0  0  0  0  0  0  0
  124.1540  139.6000   61.1430 C   0  0  0  0  0  0  0  0  0  0  0  0
  123.2480  139.7680   60.3230 O   0  0  0  0  0  0  0  0  0  0  0  0
  124.9480  138.3290   61.2280 C   0  0  0  0  0  0  0  0  0  0  0  0
  124.2920  137.0990   61.0940 C   0  0  0  0  0  0  0  0  0  0  0  0
  125.0030  135.9050   61.1700 C   0  0  0  0  0  0  0  0  0  0  0  0
  126.3830  135.9150   61.3790 C   0  0  0  0  0  0  0  0  0  0  0  0
  127.0010  134.6510   61.4480 N   0  0  0  0  0  0  0  0  0  0  0  0
  126.5820  133.5070   62.0440 C   0  0  0  0  0  0  0  0  0  0  0  0
  125.5410  133.4080   62.6950 O   0  0  0  0  0  0  0  0  0  0  0  0
  127.4760  132.3580   61.8880 C   0  0  0  0  0  0  0  0  0  0  0  0
  127.1350  130.8490   62.7310 S   0  0  0  0  0  0  0  0  0  0  0  0
  128.5840  130.1100   62.0930 C   0  0  0  0  0  0  0  0  0  0  0  0
  128.9160  128.8570   62.3970 N   0  0  0  0  0  0  0  0  0  0  0  0
  130.0610  128.3940   61.8450 C   0  0  0  0  0  0  0  0  0  0  0  0
  130.4250  126.9670   62.2120 C   0  0  0  0  0  0  0  0  0  0  0  0
  130.8710  129.1470   60.9990 C   0  0  0  0  0  0  0  0  0  0  0  0
  130.5270  130.4690   60.6740 C   0  0  0  0  0  0  0  0  0  0  0  0
  131.4490  131.2570   59.7380 C   0  0  0  0  0  0  0  0  0  0  0  0
  130.8150  132.2260   59.0750 F   0  0  0  0  0  0  0  0  0  0  0  0
  132.4270  131.8290   60.4410 F   0  0  0  0  0  0  0  0  0  0  0  0
  131.9800  130.4350   58.8320 F   0  0  0  0  0  0  0  0  0  0  0  0
  129.3270  130.9890   61.2470 C   0  0  0  0  0  0  0  0  0  0  0  0
  128.6720  132.2710   61.1560 C   0  0  0  0  0  0  0  0  0  0  0  0
  129.1780  133.3100   60.4170 N   0  0  0  0  0  0  0  0  0  0  0  0
  127.0470  137.1430   61.5210 C   0  0  0  0  0  0  0  0  0  0  0  0
  126.3340  138.3360   61.4450 C   0  0  0  0  0  0  0  0  0  0  0  0
  1  2  1  0
  2  3  1  0
  3  4  2  0
  3  5  1  0
  5  6  2  0
  6  7  1  0
  7  8  2  0
  8  9  1  0
  9 10  1  0
 10 11  2  0
 10 12  1  0
 12 13  1  0
 13 14  1  0
 14 15  2  0
 15 16  1  0
 16 17  1  0
 16 18  2  0
 18 19  1  0
 19 20  1  0
 20 21  1  0
 20 22  1  0
 20 23  1  0
 19 24  2  0
 24 25  1  0
 25 26  1  0
  8 27  1  0
 27 28  2  0
 28  5  1  0
 25 12  2  0
 24 14  1  0
M  END
>  <Binding energies>  (25) 
[-7.45]

>  <Ligand effiencies>  (25) 
[-0.2403225806451613]

>  <Interactions>  (25) 
["V-A:TYR:539:CD1:4871, V-A:PRO:540:N:4882, V-A:PRO:540:CA:4881, V-A:TYR:539:CE1:4873, V-A:GLU:543:CD:4906, V-B:LEU:475:CD2:9230, V-A:PRO:540:CB:4883, V-A:TYR:539:C:4865, V-A:PRO:540:C:4879, V-A:ASP:366:CG:3210, H-A:TYR:539:O:4866, V-B:SER:385:CB:8380, V-B:PRO:482:CG:9298, V-B:LEU:373:CD1:8251, V-B:PRO:482:CB:9297, V-B:SER:385:CA:8378, H-B:SER:385:N:8379, V-B:THR:477:CA:9241, V-B:HIS:383:CG:8361, V-B:HIS:383:CB:8360, V-B:VAL:384:C:8368, V-B:HIS:383:CE1:8365, H-B:VAL:384:N:8371, V-B:THR:477:CG2:9244, V-B:THR:477:CB:9243, V-B:CYS:476:C:9235, V-B:THR:477:C:9239"]

$$$$
4bb_Grossjean_2025
     RDKit          3D

 27 29  0  0  0  0  0  0  0  0999 V2000
  130.5000  112.7850   61.3320 C   0  0  0  0  0  0  0  0  0  0  0  0
  131.7280  113.6580   61.0680 C   0  0  0  0  0  0  0  0  0  0  0  0
  132.8300  113.1090   61.0110 O   0  0  0  0  0  0  0  0  0  0  0  0
  131.5280  115.1350   60.9050 C   0  0  0  0  0  0  0  0  0  0  0  0
  132.0090  116.0070   61.8890 C   0  0  0  0  0  0  0  0  0  0  0  0
  131.8350  117.3820   61.7620 C   0  0  0  0  0  0  0  0  0  0  0  0
  131.1860  117.9130   60.6460 C   0  0  0  0  0  0  0  0  0  0  0  0
  131.0620  119.3160   60.6200 N   0  0  0  0  0  0  0  0  0  0  0  0
  131.9590  120.2760   60.9520 C   0  0  0  0  0  0  0  0  0  0  0  0
  133.0890  120.0470   61.3830 O   0  0  0  0  0  0  0  0  0  0  0  0
  131.4870  121.6540   60.7930 C   0  0  0  0  0  0  0  0  0  0  0  0
  132.6240  122.9420   60.4020 S   0  0  0  0  0  0  0  0  0  0  0  0
  131.3520  124.1410   60.4410 C   0  0  0  0  0  0  0  0  0  0  0  0
  131.6000  125.4270   60.1980 N   0  0  0  0  0  0  0  0  0  0  0  0
  130.5350  126.2590   60.2580 C   0  0  0  0  0  0  0  0  0  0  0  0
  130.8400  127.7190   59.9770 C   0  0  0  0  0  0  0  0  0  0  0  0
  129.2410  125.8410   60.5520 C   0  0  0  0  0  0  0  0  0  0  0  0
  128.9720  124.4870   60.8080 C   0  0  0  0  0  0  0  0  0  0  0  0
  127.5310  124.0740   61.1270 C   0  0  0  0  0  0  0  0  0  0  0  0
  127.4460  123.2400   62.1660 F   0  0  0  0  0  0  0  0  0  0  0  0
  126.8070  125.1540   61.4200 F   0  0  0  0  0  0  0  0  0  0  0  0
  126.9950  123.4570   60.0740 F   0  0  0  0  0  0  0  0  0  0  0  0
  130.0740  123.5810   60.7530 C   0  0  0  0  0  0  0  0  0  0  0  0
  130.1850  122.1580   60.9540 C   0  0  0  0  0  0  0  0  0  0  0  0
  129.1090  121.3680   61.2670 N   0  0  0  0  0  0  0  0  0  0  0  0
  130.6950  117.0440   59.6590 C   0  0  0  0  0  0  0  0  0  0  0  0
  130.8680  115.6690   59.7890 C   0  0  0  0  0  0  0  0  0  0  0  0
  1  2  1  0
  2  3  2  0
  2  4  1  0
  4  5  2  0
  5  6  1  0
  6  7  2  0
  7  8  1  0
  8  9  1  0
  9 10  2  0
  9 11  1  0
 11 12  1  0
 12 13  1  0
 13 14  2  0
 14 15  1  0
 15 16  1  0
 15 17  2  0
 17 18  1  0
 18 19  1  0
 19 20  1  0
 19 21  1  0
 19 22  1  0
 18 23  2  0
 23 24  1  0
 24 25  1  0
  7 26  1  0
 26 27  2  0
 27  4  1  0
 24 11  2  0
 23 13  1  0
M  END
>  <Binding energies>  (26) 
[-7.06]

>  <Ligand effiencies>  (26) 
[-0.2353333333333333]

>  <Interactions>  (26) 
["V-B:TYR:539:CE1:9847, V-B:TYR:539:CD1:9845, V-B:PRO:540:CA:9855, V-B:TYR:539:C:9839, V-B:GLU:543:CD:9880, V-A:LEU:475:CD2:4256, V-B:TYR:539:CG:9844, V-B:PRO:540:C:9853, V-A:PRO:482:CB:4323, V-B:ALA:541:CB:9864, V-A:PRO:482:CG:4324, V-A:ASP:366:CG:3210, V-A:ILE:369:CG2:3234, V-B:ALA:541:CA:9862, H-B:TYR:539:O:9840, V-A:SER:385:CB:3406, V-B:VAL:344:CG1:7972, V-B:TYR:539:CB:9843, V-A:HIS:383:CG:3387, V-A:HIS:383:CB:3386, V-A:HIS:383:CE1:3391, V-A:THR:477:CA:4267, H-A:HIS:383:ND1:3388, V-A:LEU:475:CG:4254"]

$$$$
4bd_Grossjean_2025
     RDKit          3D

 24 26  0  0  0  0  0  0  0  0999 V2000
  125.6840  128.9180   65.1250 C   0  0  0  0  0  0  0  0  0  0  0  0
  126.0320  130.0770   64.2090 C   0  0  0  0  0  0  0  0  0  0  0  0
  127.2540  130.1240   63.5440 C   0  0  0  0  0  0  0  0  0  0  0  0
  127.5640  131.2030   62.7010 C   0  0  0  0  0  0  0  0  0  0  0  0
  128.9230  131.2140   61.9930 C   0  0  0  0  0  0  0  0  0  0  0  0
  129.5880  130.0640   62.1240 F   0  0  0  0  0  0  0  0  0  0  0  0
  128.7520  131.4300   60.6900 F   0  0  0  0  0  0  0  0  0  0  0  0
  129.6890  132.1780   62.5030 F   0  0  0  0  0  0  0  0  0  0  0  0
  126.5800  132.2270   62.5630 C   0  0  0  0  0  0  0  0  0  0  0  0
  126.5390  133.4550   61.8060 C   0  0  0  0  0  0  0  0  0  0  0  0
  127.5730  133.8620   61.0040 N   0  0  0  0  0  0  0  0  0  0  0  0
  125.3520  134.1890   61.9670 C   0  0  0  0  0  0  0  0  0  0  0  0
  124.9860  135.4760   61.3670 C   0  0  0  0  0  0  0  0  0  0  0  0
  123.9430  135.5940   60.7230 O   0  0  0  0  0  0  0  0  0  0  0  0
  125.8600  136.4890   61.5860 N   0  0  0  0  0  0  0  0  0  0  0  0
  125.8260  137.8170   61.1210 C   0  0  0  0  0  0  0  0  0  0  0  0
  125.2680  138.7560   61.9930 C   0  0  0  0  0  0  0  0  0  0  0  0
  125.1980  140.0980   61.6280 C   0  0  0  0  0  0  0  0  0  0  0  0
  125.6940  140.5040   60.3920 C   0  0  0  0  0  0  0  0  0  0  0  0
  126.2640  139.5800   59.5200 C   0  0  0  0  0  0  0  0  0  0  0  0
  126.3360  138.2380   59.8810 C   0  0  0  0  0  0  0  0  0  0  0  0
  124.2400  133.3720   63.0620 S   0  0  0  0  0  0  0  0  0  0  0  0
  125.3680  132.0580   63.3010 C   0  0  0  0  0  0  0  0  0  0  0  0
  125.0790  131.0310   64.0990 N   0  0  0  0  0  0  0  0  0  0  0  0
  1  2  1  0
  2  3  2  0
  3  4  1  0
  4  5  1  0
  5  6  1  0
  5  7  1  0
  5  8  1  0
  4  9  2  0
  9 10  1  0
 10 11  1  0
 10 12  2  0
 12 13  1  0
 13 14  2  0
 13 15  1  0
 15 16  1  0
 16 17  2  0
 17 18  1  0
 18 19  2  0
 19 20  1  0
 20 21  2  0
 12 22  1  0
 22 23  1  0
 23 24  2  0
 24  2  1  0
 23  9  1  0
 21 16  1  0
M  END
>  <Binding energies>  (27) 
[-6.86]

>  <Ligand effiencies>  (27) 
[-0.25407407407407406]

>  <Interactions>  (27) 
["V-A:TYR:539:CD1:4871, V-A:TYR:539:CE1:4873, V-A:GLU:543:CD:4906, V-B:LEU:475:CD2:9230, V-A:ALA:541:CB:4890, V-A:TYR:539:CG:4870, V-A:ALA:541:CA:4888, V-B:ARG:545:CZ:9898, V-B:ARG:545:CD:9895, H-B:TYR:484:OH:9319, H-B:GLY:454:N:9021, V-B:GLY:454:CA:9020, H-A:TYR:539:O:4866, V-B:SER:385:CB:8380, V-B:PRO:482:CG:9298, V-B:ILE:369:CG2:8208, V-B:LEU:373:CD1:8251, V-B:SER:385:CA:8378, V-A:TYR:539:CB:4869, V-A:VAL:344:CG1:2998, V-B:HIS:383:CG:8361, V-B:HIS:383:CB:8360, V-B:HIS:383:CD2:8363, V-B:HIS:383:CE1:8365, V-A:ILE:343:CD1:2991"]

$$$$
4be_Grossjean_2025
     RDKit          3D

 25 27  0  0  0  0  0  0  0  0999 V2000
  131.6500  113.6760   61.5870 C   0  0  0  0  0  0  0  0  0  0  0  0
  131.6340  114.8380   60.6120 C   0  0  0  0  0  0  0  0  0  0  0  0
  131.5740  114.6310   59.2310 C   0  0  0  0  0  0  0  0  0  0  0  0
  131.5650  115.7470   58.3930 C   0  0  0  0  0  0  0  0  0  0  0  0
  131.6170  117.0270   58.9480 C   0  0  0  0  0  0  0  0  0  0  0  0
  131.6690  117.1630   60.3400 C   0  0  0  0  0  0  0  0  0  0  0  0
  131.7260  118.4780   60.8360 N   0  0  0  0  0  0  0  0  0  0  0  0
  132.7180  119.3950   60.7070 C   0  0  0  0  0  0  0  0  0  0  0  0
  133.7670  119.1890   60.0940 O   0  0  0  0  0  0  0  0  0  0  0  0
  132.4790  120.6780   61.3740 C   0  0  0  0  0  0  0  0  0  0  0  0
  133.7500  121.4220   62.3430 S   0  0  0  0  0  0  0  0  0  0  0  0
  132.7100  122.7650   62.7570 C   0  0  0  0  0  0  0  0  0  0  0  0
  133.1360  123.7570   63.5370 N   0  0  0  0  0  0  0  0  0  0  0  0
  132.2410  124.7420   63.7860 C   0  0  0  0  0  0  0  0  0  0  0  0
  132.7440  125.8620   64.6780 C   0  0  0  0  0  0  0  0  0  0  0  0
  130.9460  124.7580   63.2750 C   0  0  0  0  0  0  0  0  0  0  0  0
  130.4920  123.7150   62.4520 C   0  0  0  0  0  0  0  0  0  0  0  0
  129.0600  123.7780   61.9120 C   0  0  0  0  0  0  0  0  0  0  0  0
  128.9860  123.5340   60.6010 F   0  0  0  0  0  0  0  0  0  0  0  0
  128.3040  122.8700   62.5280 F   0  0  0  0  0  0  0  0  0  0  0  0
  128.5510  124.9920   62.1220 F   0  0  0  0  0  0  0  0  0  0  0  0
  131.4100  122.6580   62.1740 C   0  0  0  0  0  0  0  0  0  0  0  0
  131.3060  121.4480   61.3970 C   0  0  0  0  0  0  0  0  0  0  0  0
  130.1590  121.0890   60.7340 N   0  0  0  0  0  0  0  0  0  0  0  0
  131.6830  116.0760   61.1660 N   0  0  0  0  0  0  0  0  0  0  0  0
  1  2  1  0
  2  3  2  0
  3  4  1  0
  4  5  2  0
  5  6  1  0
  6  7  1  0
  7  8  1  0
  8  9  2  0
  8 10  1  0
 10 11  1  0
 11 12  1  0
 12 13  2  0
 13 14  1  0
 14 15  1  0
 14 16  2  0
 16 17  1  0
 17 18  1  0
 18 19  1  0
 18 20  1  0
 18 21  1  0
 17 22  2  0
 22 23  1  0
 23 24  1  0
  6 25  2  0
 25  2  1  0
 23 10  2  0
 22 12  1  0
M  END
>  <Binding energies>  (28) 
[-7.07]

>  <Ligand effiencies>  (28) 
[-0.2525]

>  <Interactions>  (28) 
["V-A:ARG:545:CZ:4924, V-B:TYR:539:CE1:9847, V-B:TYR:539:CD1:9845, V-B:TYR:539:C:9839, V-B:GLU:543:CD:9880, V-A:LEU:475:CD2:4256, V-B:TYR:539:CG:9844, V-A:LEU:373:CD1:3277, V-B:ALA:541:CB:9864, V-A:PRO:482:CG:4324, V-A:GLY:454:CA:4046, V-A:ILE:369:CD1:3236, V-B:ALA:541:CA:9862, H-B:TYR:539:O:9840, V-A:ARG:545:CD:4921, H-A:GLY:454:N:4047, H-A:TYR:484:OH:4345, V-A:SER:385:CA:3404, V-B:VAL:344:CG1:7972, V-B:TYR:539:CB:9843, V-A:HIS:383:CG:3387, V-A:HIS:383:CB:3386, V-A:HIS:383:CD2:3389, V-B:ILE:343:CD1:7965, V-A:LEU:373:CD2:3278, V-A:HIS:383:CE1:3391, V-A:THR:477:C:4265, V-A:CYS:476:C:4261, V-A:THR:477:CA:4267, V-B:ILE:343:CG1:7964"]

$$$$
4bg_Grossjean_2025
     RDKit          3D

 25 27  0  0  0  0  0  0  0  0999 V2000
  134.1410  125.2290   62.4670 C   0  0  0  0  0  0  0  0  0  0  0  0
  133.3020  124.0180   62.1020 C   0  0  0  0  0  0  0  0  0  0  0  0
  131.9110  124.0880   62.0860 C   0  0  0  0  0  0  0  0  0  0  0  0
  131.1460  122.9580   61.7520 C   0  0  0  0  0  0  0  0  0  0  0  0
  129.6190  123.0820   61.7480 C   0  0  0  0  0  0  0  0  0  0  0  0
  129.0510  122.5040   60.6880 F   0  0  0  0  0  0  0  0  0  0  0  0
  129.1170  122.5000   62.8370 F   0  0  0  0  0  0  0  0  0  0  0  0
  129.2710  124.3690   61.7370 F   0  0  0  0  0  0  0  0  0  0  0  0
  131.8560  121.7620   61.4350 C   0  0  0  0  0  0  0  0  0  0  0  0
  131.4270  120.4360   61.0600 C   0  0  0  0  0  0  0  0  0  0  0  0
  130.1040  120.0860   60.9520 N   0  0  0  0  0  0  0  0  0  0  0  0
  132.4800  119.5440   60.8090 C   0  0  0  0  0  0  0  0  0  0  0  0
  132.4090  118.1300   60.4420 C   0  0  0  0  0  0  0  0  0  0  0  0
  131.3380  117.5220   60.4280 O   0  0  0  0  0  0  0  0  0  0  0  0
  133.5760  117.5530   60.0870 N   0  0  0  0  0  0  0  0  0  0  0  0
  133.7470  116.1530   59.6980 C   0  0  0  0  0  0  0  0  0  0  0  0
  132.5950  115.2550   60.1290 C   0  0  0  0  0  0  0  0  0  0  0  0
  131.5260  115.0190   59.2590 C   0  0  0  0  0  0  0  0  0  0  0  0
  130.4940  114.1680   59.6410 C   0  0  0  0  0  0  0  0  0  0  0  0
  130.5390  113.5420   60.8860 C   0  0  0  0  0  0  0  0  0  0  0  0
  131.6090  113.7590   61.7500 C   0  0  0  0  0  0  0  0  0  0  0  0
  132.6420  114.6120   61.3700 C   0  0  0  0  0  0  0  0  0  0  0  0
  134.0450  120.3100   61.0670 S   0  0  0  0  0  0  0  0  0  0  0  0
  133.2830  121.8270   61.4810 C   0  0  0  0  0  0  0  0  0  0  0  0
  134.0030  122.9010   61.8020 N   0  0  0  0  0  0  0  0  0  0  0  0
  1  2  1  0
  2  3  2  0
  3  4  1  0
  4  5  1  0
  5  6  1  0
  5  7  1  0
  5  8  1  0
  4  9  2  0
  9 10  1  0
 10 11  1  0
 10 12  2  0
 12 13  1  0
 13 14  2  0
 13 15  1  0
 15 16  1  0
 16 17  1  0
 17 18  2  0
 18 19  1  0
 19 20  2  0
 20 21  1  0
 21 22  2  0
 12 23  1  0
 23 24  1  0
 24 25  2  0
 25  2  1  0
 24  9  1  0
 22 17  1  0
M  END
>  <Binding energies>  (29) 
[-7.76]

>  <Ligand effiencies>  (29) 
[-0.27714285714285714]

>  <Interactions>  (29) 
["V-A:ARG:545:CZ:4924, V-B:TYR:539:CE1:9847, V-B:TYR:539:CD1:9845, V-B:TYR:539:C:9839, V-A:LEU:475:CD2:4256, V-A:LEU:373:CD1:3277, V-B:ALA:541:CB:9864, V-A:PRO:482:CG:4324, V-A:GLY:453:CA:4041, V-A:GLY:453:C:4039, V-A:ILE:369:CD1:3236, V-A:ILE:369:CG2:3234, V-B:ALA:541:CA:9862, H-B:TYR:539:O:9840, H-A:GLY:454:N:4047, V-A:SER:385:CA:3404, V-A:SER:385:CB:3406, V-B:VAL:344:CG1:7972, V-A:SER:385:C:3402, V-A:HIS:383:CG:3387, V-A:HIS:383:CB:3386, V-A:HIS:383:CD2:3389, V-A:LEU:373:CD2:3278, V-A:HIS:383:CE1:3391, V-A:VAL:384:C:3394, V-A:THR:477:C:4265, V-A:CYS:476:C:4261, V-A:THR:477:CA:4267, H-A:SER:385:O:3403, H-A:VAL:384:O:3395, V-A:LEU:373:CG:3276, V-A:PRO:482:CD:4325"]

$$$$
4ca_Grossjean_2025
     RDKit          3D

 34 37  0  0  0  0  0  0  0  0999 V2000
  130.9880  113.5030   62.0290 C   0  0  0  0  0  0  0  0  0  0  0  0
  132.1290  113.6110   61.0130 C   0  0  0  0  0  0  0  0  0  0  0  0
  133.0340  114.6270   61.4250 O   0  0  0  0  0  0  0  0  0  0  0  0
  133.4430  115.5940   60.5630 C   0  0  0  0  0  0  0  0  0  0  0  0
  134.3690  115.4410   59.7600 O   0  0  0  0  0  0  0  0  0  0  0  0
  132.6540  116.8650   60.6810 C   0  0  0  0  0  0  0  0  0  0  0  0
  133.3190  118.0950   60.5770 C   0  0  0  0  0  0  0  0  0  0  0  0
  132.6140  119.2910   60.6780 C   0  0  0  0  0  0  0  0  0  0  0  0
  131.2350  119.2840   60.8920 C   0  0  0  0  0  0  0  0  0  0  0  0
  130.6220  120.5500   60.9690 N   0  0  0  0  0  0  0  0  0  0  0  0
  131.0990  121.7220   61.4540 C   0  0  0  0  0  0  0  0  0  0  0  0
  132.2400  121.8780   61.8890 O   0  0  0  0  0  0  0  0  0  0  0  0
  130.1570  122.8440   61.4150 C   0  0  0  0  0  0  0  0  0  0  0  0
  130.3600  124.2080   62.5120 S   0  0  0  0  0  0  0  0  0  0  0  0
  128.9760  125.0240   61.8230 C   0  0  0  0  0  0  0  0  0  0  0  0
  128.5830  126.2160   62.2660 N   0  0  0  0  0  0  0  0  0  0  0  0
  127.5060  126.7800   61.6600 C   0  0  0  0  0  0  0  0  0  0  0  0
  127.0930  128.1280   62.1740 C   0  0  0  0  0  0  0  0  0  0  0  0
  127.5940  128.6180   63.3910 C   0  0  0  0  0  0  0  0  0  0  0  0
  127.2110  129.8650   63.8760 C   0  0  0  0  0  0  0  0  0  0  0  0
  126.3160  130.6440   63.1490 C   0  0  0  0  0  0  0  0  0  0  0  0
  125.8030  130.1820   61.9420 C   0  0  0  0  0  0  0  0  0  0  0  0
  126.1880  128.9340   61.4600 C   0  0  0  0  0  0  0  0  0  0  0  0
  126.8160  126.1330   60.6290 C   0  0  0  0  0  0  0  0  0  0  0  0
  127.2200  124.8740   60.1580 C   0  0  0  0  0  0  0  0  0  0  0  0
  126.4200  124.2240   59.0230 C   0  0  0  0  0  0  0  0  0  0  0  0
  125.5880  123.2710   59.4480 F   0  0  0  0  0  0  0  0  0  0  0  0
  125.6850  125.1460   58.4030 F   0  0  0  0  0  0  0  0  0  0  0  0
  127.2540  123.6630   58.1480 F   0  0  0  0  0  0  0  0  0  0  0  0
  128.3590  124.2820   60.7750 C   0  0  0  0  0  0  0  0  0  0  0  0
  129.0580  123.0380   60.5620 C   0  0  0  0  0  0  0  0  0  0  0  0
  128.6770  122.1280   59.6090 N   0  0  0  0  0  0  0  0  0  0  0  0
  130.5600  118.0590   60.9910 C   0  0  0  0  0  0  0  0  0  0  0  0
  131.2670  116.8620   60.8870 C   0  0  0  0  0  0  0  0  0  0  0  0
  1  2  1  0
  2  3  1  0
  3  4  1  0
  4  5  2  0
  4  6  1  0
  6  7  2  0
  7  8  1  0
  8  9  2  0
  9 10  1  0
 10 11  1  0
 11 12  2  0
 11 13  1  0
 13 14  1  0
 14 15  1  0
 15 16  2  0
 16 17  1  0
 17 18  1  0
 18 19  2  0
 19 20  1  0
 20 21  2  0
 21 22  1  0
 22 23  2  0
 17 24  2  0
 24 25  1  0
 25 26  1  0
 26 27  1  0
 26 28  1  0
 26 29  1  0
 25 30  2  0
 30 31  1  0
 31 32  1  0
  9 33  1  0
 33 34  2  0
 34  6  1  0
 31 13  2  0
 30 15  1  0
 23 18  1  0
M  END
>  <Binding energies>  (30) 
[-7.59]

>  <Ligand effiencies>  (30) 
[-0.20513513513513512]

>  <Interactions>  (30) 
["V-A:GLU:543:CD:4906, V-B:TYR:539:CE1:9847, V-B:TYR:539:CD1:9845, V-B:PRO:540:CA:9855, V-B:PRO:540:N:9856, V-B:TYR:539:C:9839, V-B:GLU:543:CD:9880, V-B:PRO:540:CB:9857, V-A:LEU:475:CD2:4256, V-A:LEU:373:CD1:3277, V-A:PRO:482:CB:4323, V-A:PRO:482:CG:4324, V-B:ASP:366:CB:8183, V-B:ASP:366:CG:8184, H-B:TYR:539:O:9840, V-A:SER:385:CA:3404, V-A:SER:385:CB:3406, V-A:HIS:383:CG:3387, V-A:HIS:383:CB:3386, H-A:SER:385:N:3405, V-A:HIS:383:CE1:3391, V-A:VAL:384:C:3394, V-A:THR:477:C:4265, V-A:CYS:476:C:4261, V-A:THR:477:CA:4267, H-A:VAL:384:N:3397"]

$$$$
4cb_Grossjean_2025
     RDKit          3D

 33 36  0  0  0  0  0  0  0  0999 V2000
  132.0510  113.9000   61.3330 C   0  0  0  0  0  0  0  0  0  0  0  0
  133.1710  114.7690   61.4200 O   0  0  0  0  0  0  0  0  0  0  0  0
  133.4160  115.6920   60.4540 C   0  0  0  0  0  0  0  0  0  0  0  0
  134.2060  115.5100   59.5230 O   0  0  0  0  0  0  0  0  0  0  0  0
  132.6280  116.9590   60.6310 C   0  0  0  0  0  0  0  0  0  0  0  0
  133.2860  118.1920   60.5350 C   0  0  0  0  0  0  0  0  0  0  0  0
  132.5820  119.3840   60.6860 C   0  0  0  0  0  0  0  0  0  0  0  0
  131.2110  119.3680   60.9420 C   0  0  0  0  0  0  0  0  0  0  0  0
  130.5970  120.6300   61.0620 N   0  0  0  0  0  0  0  0  0  0  0  0
  131.0270  121.7530   61.6870 C   0  0  0  0  0  0  0  0  0  0  0  0
  132.1190  121.8590   62.2460 O   0  0  0  0  0  0  0  0  0  0  0  0
  130.0970  122.8850   61.6470 C   0  0  0  0  0  0  0  0  0  0  0  0
  130.3710  124.2930   62.6710 S   0  0  0  0  0  0  0  0  0  0  0  0
  128.9630  125.0990   62.0180 C   0  0  0  0  0  0  0  0  0  0  0  0
  128.6050  126.3130   62.4270 N   0  0  0  0  0  0  0  0  0  0  0  0
  127.5020  126.8620   61.8540 C   0  0  0  0  0  0  0  0  0  0  0  0
  127.1270  128.2350   62.3320 C   0  0  0  0  0  0  0  0  0  0  0  0
  126.4000  129.1080   61.5070 C   0  0  0  0  0  0  0  0  0  0  0  0
  126.0510  130.3840   61.9420 C   0  0  0  0  0  0  0  0  0  0  0  0
  126.4260  130.8060   63.2140 C   0  0  0  0  0  0  0  0  0  0  0  0
  127.1490  129.9620   64.0510 C   0  0  0  0  0  0  0  0  0  0  0  0
  127.4970  128.6880   63.6100 C   0  0  0  0  0  0  0  0  0  0  0  0
  126.7540  126.1790   60.8890 C   0  0  0  0  0  0  0  0  0  0  0  0
  127.1210  124.8970   60.4540 C   0  0  0  0  0  0  0  0  0  0  0  0
  126.2560  124.2060   59.3920 C   0  0  0  0  0  0  0  0  0  0  0  0
  126.9650  123.4390   58.5590 F   0  0  0  0  0  0  0  0  0  0  0  0
  125.3550  123.4240   59.9850 F   0  0  0  0  0  0  0  0  0  0  0  0
  125.6290  125.1220   58.6550 F   0  0  0  0  0  0  0  0  0  0  0  0
  128.2850  124.3180   61.0370 C   0  0  0  0  0  0  0  0  0  0  0  0
  128.9600  123.0580   60.8410 C   0  0  0  0  0  0  0  0  0  0  0  0
  128.5240  122.1150   59.9460 N   0  0  0  0  0  0  0  0  0  0  0  0
  130.5430  118.1370   61.0360 C   0  0  0  0  0  0  0  0  0  0  0  0
  131.2480  116.9470   60.8830 C   0  0  0  0  0  0  0  0  0  0  0  0
  1  2  1  0
  2  3  1  0
  3  4  2  0
  3  5  1  0
  5  6  2  0
  6  7  1  0
  7  8  2  0
  8  9  1  0
  9 10  1  0
 10 11  2  0
 10 12  1  0
 12 13  1  0
 13 14  1  0
 14 15  2  0
 15 16  1  0
 16 17  1  0
 17 18  2  0
 18 19  1  0
 19 20  2  0
 20 21  1  0
 21 22  2  0
 16 23  2  0
 23 24  1  0
 24 25  1  0
 25 26  1  0
 25 27  1  0
 25 28  1  0
 24 29  2  0
 29 30  1  0
 30 31  1  0
  8 32  1  0
 32 33  2  0
 33  5  1  0
 30 12  2  0
 29 14  1  0
 22 17  1  0
M  END
>  <Binding energies>  (31) 
[-7.36]

>  <Ligand effiencies>  (31) 
[-0.20444444444444446]

>  <Interactions>  (31) 
["V-A:GLU:543:CD:4906, V-B:TYR:539:CE1:9847, V-B:TYR:539:CD1:9845, V-B:PRO:540:CA:9855, V-B:PRO:540:N:9856, V-B:TYR:539:C:9839, V-B:GLU:543:CD:9880, V-B:PRO:540:CB:9857, V-A:LEU:475:CD2:4256, V-A:LEU:373:CD1:3277, V-B:PRO:540:C:9853, V-A:PRO:482:CB:4323, V-B:ALA:541:CB:9864, V-A:PRO:482:CG:4324, V-B:ASP:366:CB:8183, V-B:ASP:366:CG:8184, H-B:TYR:539:O:9840, V-A:SER:385:CA:3404, V-A:SER:385:CB:3406, V-A:HIS:383:CG:3387, V-A:HIS:383:CB:3386, H-A:SER:385:N:3405, V-A:VAL:384:C:3394, V-A:THR:477:C:4265, V-A:THR:477:CA:4267, H-A:VAL:384:N:3397"]

$$$$
4cc_Grossjean_2025
     RDKit          3D

 31 34  0  0  0  0  0  0  0  0999 V2000
  133.8740  121.8310   61.7350 C   0  0  0  0  0  0  0  0  0  0  0  0
  133.9070  122.6850   62.8730 O   0  0  0  0  0  0  0  0  0  0  0  0
  133.0420  123.7600   62.9350 C   0  0  0  0  0  0  0  0  0  0  0  0
  132.9930  124.5840   61.8110 C   0  0  0  0  0  0  0  0  0  0  0  0
  132.1500  125.6920   61.7800 C   0  0  0  0  0  0  0  0  0  0  0  0
  131.3490  125.9970   62.8820 C   0  0  0  0  0  0  0  0  0  0  0  0
  130.5180  127.1250   62.7530 N   0  0  0  0  0  0  0  0  0  0  0  0
  130.1320  127.7810   61.6320 C   0  0  0  0  0  0  0  0  0  0  0  0
  130.4430  127.4360   60.4910 O   0  0  0  0  0  0  0  0  0  0  0  0
  129.2920  128.9630   61.8520 C   0  0  0  0  0  0  0  0  0  0  0  0
  129.5320  130.4150   60.8820 S   0  0  0  0  0  0  0  0  0  0  0  0
  128.2360  131.2390   61.7160 C   0  0  0  0  0  0  0  0  0  0  0  0
  127.8960  132.4890   61.4070 N   0  0  0  0  0  0  0  0  0  0  0  0
  126.8690  133.0430   62.1030 C   0  0  0  0  0  0  0  0  0  0  0  0
  126.5100  134.4530   61.7350 C   0  0  0  0  0  0  0  0  0  0  0  0
  125.1950  134.7880   61.3710 C   0  0  0  0  0  0  0  0  0  0  0  0
  124.8550  136.0940   61.0270 C   0  0  0  0  0  0  0  0  0  0  0  0
  125.8280  137.0870   61.0410 C   0  0  0  0  0  0  0  0  0  0  0  0
  127.1390  136.7820   61.3950 C   0  0  0  0  0  0  0  0  0  0  0  0
  127.4750  135.4750   61.7370 C   0  0  0  0  0  0  0  0  0  0  0  0
  126.2010  132.3470   63.1150 C   0  0  0  0  0  0  0  0  0  0  0  0
  126.5530  131.0290   63.4490 C   0  0  0  0  0  0  0  0  0  0  0  0
  125.7750  130.3230   64.5650 C   0  0  0  0  0  0  0  0  0  0  0  0
  126.5530  129.9130   65.5700 F   0  0  0  0  0  0  0  0  0  0  0  0
  124.8680  131.1550   65.0780 F   0  0  0  0  0  0  0  0  0  0  0  0
  125.1580  129.2490   64.0750 F   0  0  0  0  0  0  0  0  0  0  0  0
  127.6220  130.4350   62.7200 C   0  0  0  0  0  0  0  0  0  0  0  0
  128.2510  129.1380   62.7780 C   0  0  0  0  0  0  0  0  0  0  0  0
  127.8600  128.1630   63.6610 N   0  0  0  0  0  0  0  0  0  0  0  0
  131.3830  125.1650   64.0120 C   0  0  0  0  0  0  0  0  0  0  0  0
  132.2270  124.0580   64.0380 C   0  0  0  0  0  0  0  0  0  0  0  0
  1  2  1  0
  2  3  1  0
  3  4  2  0
  4  5  1  0
  5  6  2  0
  6  7  1  0
  7  8  1  0
  8  9  2  0
  8 10  1  0
 10 11  1  0
 11 12  1  0
 12 13  2  0
 13 14  1  0
 14 15  1  0
 15 16  2  0
 16 17  1  0
 17 18  2  0
 18 19  1  0
 19 20  2  0
 14 21  2  0
 21 22  1  0
 22 23  1  0
 23 24  1  0
 23 25  1  0
 23 26  1  0
 22 27  2  0
 27 28  1  0
 28 29  1  0
  6 30  1  0
 30 31  2  0
 31  3  1  0
 28 10  2  0
 27 12  1  0
 20 15  1  0
M  END
>  <Binding energies>  (32) 
[-7.49]

>  <Ligand effiencies>  (32) 
[-0.22029411764705883]

>  <Interactions>  (32) 
["V-A:TYR:539:CD1:4871, V-A:TYR:539:CE1:4873, V-A:GLU:543:CD:4906, V-B:LEU:475:CD2:9230, V-A:ARG:545:CZ:4924, V-A:ALA:541:CB:4890, V-B:GLU:543:CD:9880, V-A:LEU:475:CD2:4256, H-B:GLU:543:OE2:9882, H-B:GLU:543:OE1:9881, H-A:GLU:543:OE2:4908, H-A:GLU:543:OE1:4907, V-A:ASP:366:CG:3210, V-A:GLY:454:CA:4046, V-A:ILE:369:CD1:3236, V-A:ILE:369:CG2:3234, H-A:GLY:454:N:4047, V-B:ARG:545:CZ:9898, V-B:GLY:454:CA:9020, V-B:PRO:482:CG:9298, V-B:ILE:369:CG2:8208, V-B:LEU:373:CD1:8251, V-B:PRO:482:CB:9297, V-B:SER:385:CA:8378, V-A:TYR:539:CB:4869, V-B:TYR:484:CZ:9318"]

$$$$
4ce_Grossjean_2025
     RDKit          3D

 30 33  0  0  0  0  0  0  0  0999 V2000
  124.1640  131.1220   61.2310 C   0  0  0  0  0  0  0  0  0  0  0  0
  124.9530  130.5700   62.4030 C   0  0  0  0  0  0  0  0  0  0  0  0
  124.8500  131.1260   63.6810 C   0  0  0  0  0  0  0  0  0  0  0  0
  125.5990  130.5610   64.7130 C   0  0  0  0  0  0  0  0  0  0  0  0
  126.4240  129.4660   64.4480 C   0  0  0  0  0  0  0  0  0  0  0  0
  126.4850  128.9620   63.1430 C   0  0  0  0  0  0  0  0  0  0  0  0
  127.3140  127.8440   62.9440 N   0  0  0  0  0  0  0  0  0  0  0  0
  127.6850  127.2590   61.7770 C   0  0  0  0  0  0  0  0  0  0  0  0
  127.3370  127.6650   60.6670 O   0  0  0  0  0  0  0  0  0  0  0  0
  128.5500  126.0840   61.9090 C   0  0  0  0  0  0  0  0  0  0  0  0
  128.2680  124.6600   60.9110 S   0  0  0  0  0  0  0  0  0  0  0  0
  129.6430  123.8410   61.6120 C   0  0  0  0  0  0  0  0  0  0  0  0
  129.9870  122.6130   61.2320 N   0  0  0  0  0  0  0  0  0  0  0  0
  131.0810  122.0640   61.8230 C   0  0  0  0  0  0  0  0  0  0  0  0
  131.4460  120.6820   61.3690 C   0  0  0  0  0  0  0  0  0  0  0  0
  130.4910  119.6520   61.3710 C   0  0  0  0  0  0  0  0  0  0  0  0
  130.8250  118.3640   60.9580 C   0  0  0  0  0  0  0  0  0  0  0  0
  132.1200  118.0900   60.5330 C   0  0  0  0  0  0  0  0  0  0  0  0
  133.0840  119.0910   60.5210 C   0  0  0  0  0  0  0  0  0  0  0  0
  132.7480  120.3770   60.9380 C   0  0  0  0  0  0  0  0  0  0  0  0
  131.8090  122.7410   62.8070 C   0  0  0  0  0  0  0  0  0  0  0  0
  131.4510  124.0350   63.2190 C   0  0  0  0  0  0  0  0  0  0  0  0
  132.2930  124.7200   64.3000 C   0  0  0  0  0  0  0  0  0  0  0  0
  131.5810  125.0790   65.3700 F   0  0  0  0  0  0  0  0  0  0  0  0
  133.2510  123.8920   64.7170 F   0  0  0  0  0  0  0  0  0  0  0  0
  132.8520  125.8240   63.8040 F   0  0  0  0  0  0  0  0  0  0  0  0
  130.3150  124.6270   62.5950 C   0  0  0  0  0  0  0  0  0  0  0  0
  129.6650  125.9060   62.7450 C   0  0  0  0  0  0  0  0  0  0  0  0
  130.1030  126.8610   63.6250 N   0  0  0  0  0  0  0  0  0  0  0  0
  125.7510  129.5060   62.1290 N   0  0  0  0  0  0  0  0  0  0  0  0
  1  2  1  0
  2  3  2  0
  3  4  1  0
  4  5  2  0
  5  6  1  0
  6  7  1  0
  7  8  1  0
  8  9  2  0
  8 10  1  0
 10 11  1  0
 11 12  1  0
 12 13  2  0
 13 14  1  0
 14 15  1  0
 15 16  2  0
 16 17  1  0
 17 18  2  0
 18 19  1  0
 19 20  2  0
 14 21  2  0
 21 22  1  0
 22 23  1  0
 23 24  1  0
 23 25  1  0
 23 26  1  0
 22 27  2  0
 27 28  1  0
 28 29  1  0
  6 30  2  0
 30  2  1  0
 28 10  2  0
 27 12  1  0
 20 15  1  0
M  END
>  <Binding energies>  (33) 
[-7.73]

>  <Ligand effiencies>  (33) 
[-0.23424242424242425]

>  <Interactions>  (33) 
["V-A:GLU:543:CD:4906, V-A:ARG:545:CZ:4924, V-B:TYR:539:CE1:9847, V-B:TYR:539:CD1:9845, V-B:GLU:543:CD:9880, V-A:LEU:475:CD2:4256, V-A:LEU:373:CD1:3277, V-A:PRO:482:CB:4323, V-B:ALA:541:CB:9864, V-A:PRO:482:CG:4324, H-B:GLU:543:OE2:9882, H-B:GLU:543:OE1:9881, H-B:ARG:545:NH2:9900, H-A:GLU:543:OE2:4908, H-A:GLU:543:OE1:4907, V-A:GLY:454:CA:4046, V-A:GLY:453:C:4039, V-A:TYR:484:CZ:4344, V-A:ILE:369:CG2:3234, V-B:ARG:545:CZ:9898, V-B:GLY:454:CA:9020, V-B:ILE:369:CD1:8210, V-A:SER:385:CA:3404, V-A:SER:385:CB:3406"]

$$$$
4cf_Grossjean_2025
     RDKit          3D

 29 32  0  0  0  0  0  0  0  0999 V2000
  128.1780  128.0710   63.6800 N   0  0  0  0  0  0  0  0  0  0  0  0
  128.5210  129.0560   62.7890 C   0  0  0  0  0  0  0  0  0  0  0  0
  129.5600  128.9200   61.8550 C   0  0  0  0  0  0  0  0  0  0  0  0
  130.4730  127.7900   61.6610 C   0  0  0  0  0  0  0  0  0  0  0  0
  130.9590  127.5600   60.5520 O   0  0  0  0  0  0  0  0  0  0  0  0
  130.7340  127.0570   62.7700 N   0  0  0  0  0  0  0  0  0  0  0  0
  131.5160  125.8960   62.9160 C   0  0  0  0  0  0  0  0  0  0  0  0
  131.5330  124.8060   62.0240 C   0  0  0  0  0  0  0  0  0  0  0  0
  132.3470  123.7040   62.2970 C   0  0  0  0  0  0  0  0  0  0  0  0
  133.1240  123.7170   63.4560 C   0  0  0  0  0  0  0  0  0  0  0  0
  133.1200  124.7510   64.3340 N   0  0  0  0  0  0  0  0  0  0  0  0
  132.3220  125.8140   64.0570 C   0  0  0  0  0  0  0  0  0  0  0  0
  129.7220  130.3710   60.8680 S   0  0  0  0  0  0  0  0  0  0  0  0
  128.4060  131.1490   61.7160 C   0  0  0  0  0  0  0  0  0  0  0  0
  128.0140  132.3840   61.4080 N   0  0  0  0  0  0  0  0  0  0  0  0
  126.9930  132.9100   62.1350 C   0  0  0  0  0  0  0  0  0  0  0  0
  126.5770  134.3050   61.7710 C   0  0  0  0  0  0  0  0  0  0  0  0
  127.5050  135.3580   61.7900 C   0  0  0  0  0  0  0  0  0  0  0  0
  127.1290  136.6550   61.4520 C   0  0  0  0  0  0  0  0  0  0  0  0
  125.8130  136.9180   61.0880 C   0  0  0  0  0  0  0  0  0  0  0  0
  124.8720  135.8930   61.0570 C   0  0  0  0  0  0  0  0  0  0  0  0
  125.2540  134.5980   61.3950 C   0  0  0  0  0  0  0  0  0  0  0  0
  126.3560  132.1860   63.1480 C   0  0  0  0  0  0  0  0  0  0  0  0
  126.7590  130.8820   63.4770 C   0  0  0  0  0  0  0  0  0  0  0  0
  126.0210  130.1480   64.6020 C   0  0  0  0  0  0  0  0  0  0  0  0
  124.9260  130.7900   65.0170 F   0  0  0  0  0  0  0  0  0  0  0  0
  125.6390  128.9430   64.1800 F   0  0  0  0  0  0  0  0  0  0  0  0
  126.8250  130.0110   65.6560 F   0  0  0  0  0  0  0  0  0  0  0  0
  127.8410  130.3270   62.7340 C   0  0  0  0  0  0  0  0  0  0  0  0
  1  2  1  0
  2  3  2  0
  3  4  1  0
  4  5  2  0
  4  6  1  0
  6  7  1  0
  7  8  2  0
  8  9  1  0
  9 10  2  0
 10 11  1  0
 11 12  2  0
  3 13  1  0
 13 14  1  0
 14 15  2  0
 15 16  1  0
 16 17  1  0
 17 18  2  0
 18 19  1  0
 19 20  2  0
 20 21  1  0
 21 22  2  0
 16 23  2  0
 23 24  1  0
 24 25  1  0
 25 26  1  0
 25 27  1  0
 25 28  1  0
 24 29  2  0
 29  2  1  0
 12  7  1  0
 29 14  1  0
 22 17  1  0
M  END
>  <Binding energies>  (34) 
[-7.56]

>  <Ligand effiencies>  (34) 
[-0.23625]

>  <Interactions>  (34) 
["V-A:TYR:539:CD1:4871, V-A:TYR:539:CE1:4873, V-A:GLU:543:CD:4906, V-B:LEU:475:CD2:9230, V-A:ARG:545:CZ:4924, V-A:ALA:541:CB:4890, V-B:GLU:543:CD:9880, H-B:GLU:543:OE2:9882, H-B:GLU:543:OE1:9881, H-A:GLU:543:OE2:4908, H-A:GLU:543:OE1:4907, H-A:ARG:545:NH2:4926, V-A:GLY:454:CA:4046, H-A:GLY:454:N:4047, H-A:TYR:484:OH:4345, V-B:ARG:545:CZ:9898, V-B:GLY:454:CA:9020, V-B:PRO:482:CG:9298, V-B:ILE:369:CG2:8208, V-B:LEU:373:CD1:8251, V-B:PRO:482:CB:9297, V-B:SER:385:CA:8378, V-B:TYR:484:CZ:9318"]

$$$$
4ci_Grossjean_2025
     RDKit          3D

 28 31  0  0  0  0  0  0  0  0999 V2000
  125.4310  129.3470   62.5240 N   0  0  0  0  0  0  0  0  0  0  0  0
  126.0180  130.5030   62.9680 C   0  0  0  0  0  0  0  0  0  0  0  0
  126.9240  130.5450   64.0400 C   0  0  0  0  0  0  0  0  0  0  0  0
  127.4200  129.4360   64.8590 C   0  0  0  0  0  0  0  0  0  0  0  0
  128.0310  128.4970   64.3430 O   0  0  0  0  0  0  0  0  0  0  0  0
  127.1470  129.5220   66.1850 N   0  0  0  0  0  0  0  0  0  0  0  0
  127.4930  128.6170   67.1810 C   0  0  0  0  0  0  0  0  0  0  0  0
  128.7780  128.5240   67.7140 C   0  0  0  0  0  0  0  0  0  0  0  0
  128.7050  127.5230   68.6550 C   0  0  0  0  0  0  0  0  0  0  0  0
  127.4400  127.0390   68.6880 O   0  0  0  0  0  0  0  0  0  0  0  0
  126.6820  127.7400   67.7480 N   0  0  0  0  0  0  0  0  0  0  0  0
  127.4890  132.1880   64.3330 S   0  0  0  0  0  0  0  0  0  0  0  0
  126.5050  132.8070   63.0280 C   0  0  0  0  0  0  0  0  0  0  0  0
  126.4930  134.1020   62.7200 N   0  0  0  0  0  0  0  0  0  0  0  0
  125.7000  134.4900   61.6880 C   0  0  0  0  0  0  0  0  0  0  0  0
  125.7040  135.9570   61.3680 C   0  0  0  0  0  0  0  0  0  0  0  0
  124.5040  136.6850   61.3080 C   0  0  0  0  0  0  0  0  0  0  0  0
  124.5020  138.0460   61.0130 C   0  0  0  0  0  0  0  0  0  0  0  0
  125.7050  138.7010   60.7700 C   0  0  0  0  0  0  0  0  0  0  0  0
  126.9070  138.0040   60.8180 C   0  0  0  0  0  0  0  0  0  0  0  0
  126.9050  136.6430   61.1120 C   0  0  0  0  0  0  0  0  0  0  0  0
  124.9090  133.5770   60.9830 C   0  0  0  0  0  0  0  0  0  0  0  0
  124.9130  132.2080   61.2990 C   0  0  0  0  0  0  0  0  0  0  0  0
  124.0220  131.2640   60.4840 C   0  0  0  0  0  0  0  0  0  0  0  0
  123.4480  131.8590   59.4370 F   0  0  0  0  0  0  0  0  0  0  0  0
  124.7500  130.2500   60.0180 F   0  0  0  0  0  0  0  0  0  0  0  0
  123.0460  130.7860   61.2570 F   0  0  0  0  0  0  0  0  0  0  0  0
  125.7520  131.7900   62.3720 C   0  0  0  0  0  0  0  0  0  0  0  0
  1  2  1  0
  2  3  2  0
  3  4  1  0
  4  5  2  0
  4  6  1  0
  6  7  1  0
  7  8  1  0
  8  9  2  0
  9 10  1  0
 10 11  1  0
  3 12  1  0
 12 13  1  0
 13 14  2  0
 14 15  1  0
 15 16  1  0
 16 17  2  0
 17 18  1  0
 18 19  2  0
 19 20  1  0
 20 21  2  0
 15 22  2  0
 22 23  1  0
 23 24  1  0
 24 25  1  0
 24 26  1  0
 24 27  1  0
 23 28  2  0
 28  2  1  0
 11  7  2  0
 28 13  1  0
 21 16  1  0
M  END
>  <Binding energies>  (35) 
[-7.16]

>  <Ligand effiencies>  (35) 
[-0.2309677419354839]

>  <Interactions>  (35) 
["V-A:TYR:539:CD1:4871, V-A:TYR:539:CE1:4873, V-A:GLU:543:CD:4906, V-B:LEU:475:CD2:9230, V-A:ALA:541:CB:4890, V-A:TYR:539:CZ:4875, V-B:GLU:543:CD:9880, H-B:GLU:543:OE2:9882, V-B:ASP:366:CB:8183, V-B:ASP:366:CG:8184, V-A:TYR:539:CG:4870, V-B:ARG:545:CZ:9898, V-B:HIS:456:CE1:9040, H-B:TYR:484:OH:9319, H-B:ASP:366:OD1:8185, V-B:ILE:369:CD1:8210, V-B:SER:385:CB:8380, V-B:PRO:482:CG:9298, V-B:ILE:369:CG2:8208, V-B:LEU:373:CD1:8251, V-B:PRO:482:CB:9297, V-B:SER:385:CA:8378, V-B:ASP:366:CA:8181, V-B:ILE:369:CB:8207, V-A:TYR:539:CB:4869, V-A:VAL:344:CG1:2998, V-A:GLU:543:CB:4904, V-A:GLU:543:CG:4905, V-B:ILE:369:CG1:8209"]

$$$$
8a_Ghoteimi_2023
     RDKit          3D

 40 44  0  0  0  0  0  0  0  0999 V2000
  130.0490  113.0470   61.0320 C   0  0  0  0  0  0  0  0  0  0  0  0
  131.4670  113.4510   61.4440 C   0  0  0  0  0  0  0  0  0  0  0  0
  132.1210  114.0710   60.3430 O   0  0  0  0  0  0  0  0  0  0  0  0
  133.1060  114.9860   60.5380 C   0  0  0  0  0  0  0  0  0  0  0  0
  134.3000  114.6870   60.6470 O   0  0  0  0  0  0  0  0  0  0  0  0
  132.5990  116.3970   60.6130 C   0  0  0  0  0  0  0  0  0  0  0  0
  133.4780  117.4550   60.3470 C   0  0  0  0  0  0  0  0  0  0  0  0
  133.0390  118.7740   60.4100 C   0  0  0  0  0  0  0  0  0  0  0  0
  131.7150  119.0650   60.7410 C   0  0  0  0  0  0  0  0  0  0  0  0
  131.3850  120.4350   60.7790 N   0  0  0  0  0  0  0  0  0  0  0  0
  132.0210  121.4730   61.3740 C   0  0  0  0  0  0  0  0  0  0  0  0
  133.0610  121.3690   62.0240 O   0  0  0  0  0  0  0  0  0  0  0  0
  131.3850  122.7820   61.1930 C   0  0  0  0  0  0  0  0  0  0  0  0
  132.1800  124.2460   61.7690 S   0  0  0  0  0  0  0  0  0  0  0  0
  130.8540  125.2410   61.2120 C   0  0  0  0  0  0  0  0  0  0  0  0
  130.8460  126.5620   61.3910 N   0  0  0  0  0  0  0  0  0  0  0  0
  129.7650  127.2410   60.9250 C   0  0  0  0  0  0  0  0  0  0  0  0
  129.7680  128.7180   61.1540 C   0  0  0  0  0  0  0  0  0  0  0  0
  128.6010  129.3930   61.5410 C   0  0  0  0  0  0  0  0  0  0  0  0
  128.6080  130.7700   61.7410 C   0  0  0  0  0  0  0  0  0  0  0  0
  129.7770  131.5070   61.5640 C   0  0  0  0  0  0  0  0  0  0  0  0
  129.6890  132.8680   61.7840 O   0  0  0  0  0  0  0  0  0  0  0  0
  128.4370  133.5200   61.5990 C   0  0  0  0  0  0  0  0  0  0  0  0
  130.9510  130.8410   61.1840 C   0  0  0  0  0  0  0  0  0  0  0  0
  130.9410  129.4630   60.9810 C   0  0  0  0  0  0  0  0  0  0  0  0
  128.7050  126.6020   60.2780 C   0  0  0  0  0  0  0  0  0  0  0  0
  128.7160  125.2180   60.0740 C   0  0  0  0  0  0  0  0  0  0  0  0
  127.5780  124.5940   59.3520 C   0  0  0  0  0  0  0  0  0  0  0  0
  127.6720  124.3310   57.9840 C   0  0  0  0  0  0  0  0  0  0  0  0
  126.6160  123.7270   57.3080 C   0  0  0  0  0  0  0  0  0  0  0  0
  125.4500  123.3710   57.9870 C   0  0  0  0  0  0  0  0  0  0  0  0
  124.4550  122.7770   57.2350 O   0  0  0  0  0  0  0  0  0  0  0  0
  124.5030  122.8770   55.8170 C   0  0  0  0  0  0  0  0  0  0  0  0
  125.3560  123.6270   59.3640 C   0  0  0  0  0  0  0  0  0  0  0  0
  126.4160  124.2300   60.0380 C   0  0  0  0  0  0  0  0  0  0  0  0
  129.8280  124.4840   60.5730 C   0  0  0  0  0  0  0  0  0  0  0  0
  130.1500  123.0780   60.5930 C   0  0  0  0  0  0  0  0  0  0  0  0
  129.3080  122.1220   60.0840 N   0  0  0  0  0  0  0  0  0  0  0  0
  130.8260  118.0120   61.0040 C   0  0  0  0  0  0  0  0  0  0  0  0
  131.2670  116.6930   60.9410 C   0  0  0  0  0  0  0  0  0  0  0  0
  1  2  1  0
  2  3  1  0
  3  4  1  0
  4  5  2  0
  4  6  1  0
  6  7  2  0
  7  8  1  0
  8  9  2  0
  9 10  1  0
 10 11  1  0
 11 12  2  0
 11 13  1  0
 13 14  1  0
 14 15  1  0
 15 16  2  0
 16 17  1  0
 17 18  1  0
 18 19  2  0
 19 20  1  0
 20 21  2  0
 21 22  1  0
 22 23  1  0
 21 24  1  0
 24 25  2  0
 17 26  2  0
 26 27  1  0
 27 28  1  0
 28 29  2  0
 29 30  1  0
 30 31  2  0
 31 32  1  0
 32 33  1  0
 31 34  1  0
 34 35  2  0
 27 36  2  0
 36 37  1  0
 37 38  1  0
  9 39  1  0
 39 40  2  0
 40  6  1  0
 37 13  2  0
 36 15  1  0
 25 18  1  0
 35 28  1  0
M  END
>  <Binding energies>  (36) 
[-8.89]

>  <Ligand effiencies>  (36) 
[-0.20674418604651165]

>  <Interactions>  (36) 
["V-A:TYR:539:CD1:4871, H-A:ALA:541:N:4889, V-A:ALA:541:CB:4890, V-B:TYR:539:CE1:9847, V-B:TYR:539:CD1:9845, V-B:TYR:531:CE2:9765, V-B:PRO:540:CA:9855, V-B:ILE:538:CB:9834, V-B:LEU:363:CD1:8160, V-B:PRO:540:N:9856, V-B:TYR:539:C:9839, V-B:PRO:540:CB:9857, V-B:ILE:538:CG2:9835, V-A:LEU:475:CD2:4256, V-A:LEU:373:CD1:3277, V-A:PRO:482:CB:4323, V-A:PRO:482:CG:4324, H-A:ARG:545:NH2:4926, H-B:TYR:539:O:9840, V-A:SER:385:CA:3404, V-A:SER:385:CB:3406, V-B:VAL:344:CG1:7972, V-A:HIS:383:CG:3387, V-A:HIS:383:CB:3386, H-A:SER:385:N:3405, V-A:HIS:383:CE1:3391, V-A:VAL:384:C:3394, V-A:THR:477:C:4265, V-A:THR:477:CA:4267, H-A:HIS:383:ND1:3388, H-A:VAL:384:N:3397, V-A:PRO:482:CD:4325"]

$$$$
8c_Ghoteimi_2023
     RDKit          3D

 34 38  0  0  0  0  0  0  0  0999 V2000
  124.8840  139.5660   60.9140 C   0  0  0  0  0  0  0  0  0  0  0  0
  124.4260  138.5000   61.7380 O   0  0  0  0  0  0  0  0  0  0  0  0
  125.0320  137.2620   61.6360 C   0  0  0  0  0  0  0  0  0  0  0  0
  126.4190  137.2340   61.7630 C   0  0  0  0  0  0  0  0  0  0  0  0
  127.1130  136.0320   61.6720 C   0  0  0  0  0  0  0  0  0  0  0  0
  126.4370  134.8230   61.4500 C   0  0  0  0  0  0  0  0  0  0  0  0
  127.1780  133.5280   61.3470 C   0  0  0  0  0  0  0  0  0  0  0  0
  128.2400  133.3550   60.4540 C   0  0  0  0  0  0  0  0  0  0  0  0
  128.9180  132.1340   60.3790 C   0  0  0  0  0  0  0  0  0  0  0  0
  130.0330  131.9810   59.4170 C   0  0  0  0  0  0  0  0  0  0  0  0
  131.3120  131.6490   59.8690 C   0  0  0  0  0  0  0  0  0  0  0  0
  132.3560  131.4960   58.9620 C   0  0  0  0  0  0  0  0  0  0  0  0
  132.1410  131.6750   57.5950 C   0  0  0  0  0  0  0  0  0  0  0  0
  133.2350  131.5010   56.7690 O   0  0  0  0  0  0  0  0  0  0  0  0
  134.3340  130.7230   57.2280 C   0  0  0  0  0  0  0  0  0  0  0  0
  130.8560  132.0130   57.1430 C   0  0  0  0  0  0  0  0  0  0  0  0
  129.8110  132.1650   58.0510 C   0  0  0  0  0  0  0  0  0  0  0  0
  128.4990  131.0840   61.2390 C   0  0  0  0  0  0  0  0  0  0  0  0
  128.9610  129.7330   61.4260 C   0  0  0  0  0  0  0  0  0  0  0  0
  130.0040  129.2070   60.7070 N   0  0  0  0  0  0  0  0  0  0  0  0
  128.2480  129.0180   62.4020 C   0  0  0  0  0  0  0  0  0  0  0  0
  128.4480  127.6380   62.8490 C   0  0  0  0  0  0  0  0  0  0  0  0
  127.5220  126.8250   62.8170 O   0  0  0  0  0  0  0  0  0  0  0  0
  129.6970  127.3450   63.2890 N   0  0  0  0  0  0  0  0  0  0  0  0
  130.1490  126.1200   63.7600 C   0  0  0  0  0  0  0  0  0  0  0  0
  130.5000  125.8080   64.9890 N   0  0  0  0  0  0  0  0  0  0  0  0
  130.8770  124.5480   65.0800 C   0  0  0  0  0  0  0  0  0  0  0  0
  130.8380  123.8070   63.9030 C   0  0  0  0  0  0  0  0  0  0  0  0
  130.2760  124.8270   62.6120 S   0  0  0  0  0  0  0  0  0  0  0  0
  126.9810  130.0130   63.1210 S   0  0  0  0  0  0  0  0  0  0  0  0
  127.4100  131.3740   62.1110 C   0  0  0  0  0  0  0  0  0  0  0  0
  126.7620  132.5370   62.1820 N   0  0  0  0  0  0  0  0  0  0  0  0
  125.0410  134.8590   61.3260 C   0  0  0  0  0  0  0  0  0  0  0  0
  124.3440  136.0600   61.4160 C   0  0  0  0  0  0  0  0  0  0  0  0
  1  2  1  0
  2  3  1  0
  3  4  2  0
  4  5  1  0
  5  6  2  0
  6  7  1  0
  7  8  2  0
  8  9  1  0
  9 10  1  0
 10 11  2  0
 11 12  1  0
 12 13  2  0
 13 14  1  0
 14 15  1  0
 13 16  1  0
 16 17  2  0
  9 18  2  0
 18 19  1  0
 19 20  1  0
 19 21  2  0
 21 22  1  0
 22 23  2  0
 22 24  1  0
 24 25  1  0
 25 26  2  0
 26 27  1  0
 27 28  2  0
 28 29  1  0
 21 30  1  0
 30 31  1  0
 31 32  2  0
  6 33  1  0
 33 34  2  0
 34  3  1  0
 32  7  1  0
 17 10  1  0
 31 18  1  0
 29 25  1  0
M  END
>  <Binding energies>  (37) 
[-7.99]

>  <Ligand effiencies>  (37) 
[-0.21594594594594596]

>  <Interactions>  (37) 
["V-A:TYR:539:CD1:4871, V-A:PRO:540:N:4882, V-A:LEU:363:CD1:3186, V-A:PRO:540:CA:4881, V-A:TYR:531:CE2:4791, V-A:TYR:539:CE1:4873, V-A:GLU:543:CD:4906, V-B:LEU:475:CD2:9230, V-A:TYR:531:CZ:4792, V-A:PRO:540:CB:4883, V-A:ALA:541:CB:4890, V-A:TYR:539:C:4865, V-A:ASP:366:CB:3209, V-B:GLU:543:CD:9880, H-B:ARG:545:NH2:9900, H-A:GLU:543:OE2:4908, H-A:GLU:543:OE1:4907, V-A:ASP:366:CG:3210, V-A:TYR:484:CZ:4344, V-B:GLU:543:CB:9878, H-A:TYR:531:OH:4793, V-B:SER:385:CB:8380, V-B:PRO:482:CG:9298, V-B:ILE:369:CG2:8208, V-B:LEU:373:CD1:8251, V-B:PRO:482:CB:9297, V-B:SER:385:CA:8378, V-A:LEU:363:CA:3182, V-A:LEU:363:CG:3185, V-A:LEU:363:CB:3184, H-A:ASP:366:OD2:3212, V-B:SER:385:C:8376, V-B:HIS:383:CG:8361, V-B:HIS:383:CB:8360, V-A:LEU:363:C:3180"]

$$$$
8d_Ghoteimi_2023
     RDKit          3D

 30 33  0  0  0  0  0  0  0  0999 V2000
  127.7130  122.8210   55.5720 C   0  0  0  0  0  0  0  0  0  0  0  0
  126.5680  122.1370   56.0610 O   0  0  0  0  0  0  0  0  0  0  0  0
  125.8460  122.6390   57.0960 C   0  0  0  0  0  0  0  0  0  0  0  0
  124.6270  122.4990   57.2200 O   0  0  0  0  0  0  0  0  0  0  0  0
  126.6760  123.3800   58.0710 C   0  0  0  0  0  0  0  0  0  0  0  0
  127.9970  122.5590   58.9070 S   0  0  0  0  0  0  0  0  0  0  0  0
  128.4030  124.0180   59.7800 C   0  0  0  0  0  0  0  0  0  0  0  0
  129.4080  124.0570   60.6560 N   0  0  0  0  0  0  0  0  0  0  0  0
  129.6400  125.2430   61.2790 C   0  0  0  0  0  0  0  0  0  0  0  0
  130.7700  125.2590   62.2590 C   0  0  0  0  0  0  0  0  0  0  0  0
  130.5560  125.5810   63.6070 C   0  0  0  0  0  0  0  0  0  0  0  0
  131.6110  125.5940   64.5150 C   0  0  0  0  0  0  0  0  0  0  0  0
  132.9060  125.2870   64.1010 C   0  0  0  0  0  0  0  0  0  0  0  0
  133.8900  125.3250   65.0690 O   0  0  0  0  0  0  0  0  0  0  0  0
  133.5160  125.5060   66.4320 C   0  0  0  0  0  0  0  0  0  0  0  0
  133.1320  124.9620   62.7560 C   0  0  0  0  0  0  0  0  0  0  0  0
  132.0730  124.9490   61.8510 C   0  0  0  0  0  0  0  0  0  0  0  0
  128.8650  126.3800   61.0320 C   0  0  0  0  0  0  0  0  0  0  0  0
  127.8130  126.3400   60.1110 C   0  0  0  0  0  0  0  0  0  0  0  0
  127.0160  127.5640   59.8650 C   0  0  0  0  0  0  0  0  0  0  0  0
  126.8850  128.0680   58.5690 C   0  0  0  0  0  0  0  0  0  0  0  0
  126.1430  129.2230   58.3390 C   0  0  0  0  0  0  0  0  0  0  0  0
  125.5190  129.8880   59.3950 C   0  0  0  0  0  0  0  0  0  0  0  0
  124.8060  131.0250   59.0720 O   0  0  0  0  0  0  0  0  0  0  0  0
  123.4420  131.1260   59.4680 C   0  0  0  0  0  0  0  0  0  0  0  0
  125.6490  129.3760   60.6970 C   0  0  0  0  0  0  0  0  0  0  0  0
  126.3920  128.2210   60.9260 C   0  0  0  0  0  0  0  0  0  0  0  0
  127.5550  125.1120   59.4470 C   0  0  0  0  0  0  0  0  0  0  0  0
  126.5780  124.7190   58.4690 C   0  0  0  0  0  0  0  0  0  0  0  0
  125.6330  125.5840   57.9780 N   0  0  0  0  0  0  0  0  0  0  0  0
  1  2  1  0
  2  3  1  0
  3  4  2  0
  3  5  1  0
  5  6  1  0
  6  7  1  0
  7  8  2  0
  8  9  1  0
  9 10  1  0
 10 11  2  0
 11 12  1  0
 12 13  2  0
 13 14  1  0
 14 15  1  0
 13 16  1  0
 16 17  2  0
  9 18  2  0
 18 19  1  0
 19 20  1  0
 20 21  2  0
 21 22  1  0
 22 23  2  0
 23 24  1  0
 24 25  1  0
 23 26  1  0
 26 27  2  0
 19 28  2  0
 28 29  1  0
 29 30  1  0
 29  5  2  0
 28  7  1  0
 17 10  1  0
 27 20  1  0
M  END
>  <Binding energies>  (38) 
[-7.77]

>  <Ligand effiencies>  (38) 
[-0.2428125]

>  <Interactions>  (38) 
["V-A:ARG:545:CZ:4924, H-B:TYR:539:N:9842, V-B:TYR:539:CD1:9845, V-B:PRO:540:CA:9855, V-B:ILE:538:CB:9834, V-B:MET:535:CE:9807, V-B:PRO:540:N:9856, V-B:TYR:539:C:9839, V-B:GLU:543:CD:9880, V-B:PRO:540:CD:9859, V-B:TYR:531:CZ:9766, V-B:PRO:540:CB:9857, V-B:ILE:538:CG2:9835, V-B:ASP:366:CB:8183, V-A:HIS:456:CE1:4066, V-B:ASP:366:CG:8184, V-B:ILE:538:CA:9832, V-A:TYR:484:CZ:4344, H-B:TYR:531:OH:9767, V-A:ARG:545:CG:4920, V-A:ARG:545:CD:4921, H-A:GLY:454:N:4047, H-A:ARG:545:NE:4922, H-A:TYR:484:OH:4345, H-B:ASP:366:OD1:8185, H-A:TYR:539:OH:4876, H-B:ASP:366:OD2:8186, V-B:ILE:369:CD1:8210, V-B:ILE:369:CG2:8208, V-B:ASP:366:CA:8181, V-B:ILE:369:CB:8207"]

$$$$
9a_Ghoteimi_2023
     RDKit          3D

 48 54  0  0  0  0  0  0  0  0999 V2000
  131.0360  113.3760   61.6780 C   0  0  0  0  0  0  0  0  0  0  0  0
  131.9260  114.5480   61.2500 C   0  0  0  0  0  0  0  0  0  0  0  0
  132.2350  114.4280   59.8670 O   0  0  0  0  0  0  0  0  0  0  0  0
  132.1270  115.4910   59.0300 C   0  0  0  0  0  0  0  0  0  0  0  0
  132.1100  115.3880   57.7990 O   0  0  0  0  0  0  0  0  0  0  0  0
  132.0360  116.8060   59.7480 C   0  0  0  0  0  0  0  0  0  0  0  0
  130.7770  117.3760   59.9780 C   0  0  0  0  0  0  0  0  0  0  0  0
  130.6600  118.5950   60.6390 C   0  0  0  0  0  0  0  0  0  0  0  0
  131.7970  119.2690   61.0870 C   0  0  0  0  0  0  0  0  0  0  0  0
  131.5580  120.4920   61.7430 N   0  0  0  0  0  0  0  0  0  0  0  0
  132.1690  121.6960   61.6060 C   0  0  0  0  0  0  0  0  0  0  0  0
  133.0950  121.9170   60.8260 O   0  0  0  0  0  0  0  0  0  0  0  0
  131.6450  122.7640   62.4630 C   0  0  0  0  0  0  0  0  0  0  0  0
  131.7070  122.6080   64.2190 S   0  0  0  0  0  0  0  0  0  0  0  0
  130.9620  124.1760   64.4290 C   0  0  0  0  0  0  0  0  0  0  0  0
  130.7360  124.6850   65.6400 N   0  0  0  0  0  0  0  0  0  0  0  0
  130.1630  125.9170   65.6940 C   0  0  0  0  0  0  0  0  0  0  0  0
  129.9300  126.4730   67.0610 C   0  0  0  0  0  0  0  0  0  0  0  0
  128.7100  126.2630   67.7150 C   0  0  0  0  0  0  0  0  0  0  0  0
  128.4850  126.7760   68.9890 C   0  0  0  0  0  0  0  0  0  0  0  0
  129.4750  127.5080   69.6630 C   0  0  0  0  0  0  0  0  0  0  0  0
  129.2560  128.0460   70.9350 N   0  0  0  0  0  0  0  0  0  0  0  0
  128.1630  127.5600   71.8010 C   0  0  0  0  0  0  0  0  0  0  0  0
  127.8460  128.4940   72.9880 C   0  0  0  0  0  0  0  0  0  0  0  0
  129.0220  128.7380   73.7420 O   0  0  0  0  0  0  0  0  0  0  0  0
  130.0250  129.3590   72.9540 C   0  0  0  0  0  0  0  0  0  0  0  0
  130.4070  128.4460   71.7710 C   0  0  0  0  0  0  0  0  0  0  0  0
  130.6900  127.7280   68.9970 C   0  0  0  0  0  0  0  0  0  0  0  0
  130.9140  127.2160   67.7220 C   0  0  0  0  0  0  0  0  0  0  0  0
  129.7940  126.6180   64.5440 C   0  0  0  0  0  0  0  0  0  0  0  0
  130.0110  126.0780   63.2710 C   0  0  0  0  0  0  0  0  0  0  0  0
  129.5670  126.8510   62.0830 C   0  0  0  0  0  0  0  0  0  0  0  0
  130.4090  127.7980   61.4940 C   0  0  0  0  0  0  0  0  0  0  0  0
  129.9960  128.5110   60.3730 C   0  0  0  0  0  0  0  0  0  0  0  0
  128.7350  128.2820   59.7980 C   0  0  0  0  0  0  0  0  0  0  0  0
  128.2950  128.9930   58.6790 N   0  0  0  0  0  0  0  0  0  0  0  0
  128.9150  130.2960   58.3640 C   0  0  0  0  0  0  0  0  0  0  0  0
  128.6190  130.7820   56.9290 C   0  0  0  0  0  0  0  0  0  0  0  0
  127.2180  130.8220   56.7090 O   0  0  0  0  0  0  0  0  0  0  0  0
  126.6250  129.5430   56.8670 C   0  0  0  0  0  0  0  0  0  0  0  0
  126.8680  129.0230   58.3000 C   0  0  0  0  0  0  0  0  0  0  0  0
  127.9000  127.3270   60.3950 C   0  0  0  0  0  0  0  0  0  0  0  0
  128.3110  126.6170   61.5190 C   0  0  0  0  0  0  0  0  0  0  0  0
  130.6440  124.8050   63.1900 C   0  0  0  0  0  0  0  0  0  0  0  0
  131.0680  123.9850   62.0820 C   0  0  0  0  0  0  0  0  0  0  0  0
  130.9270  124.3800   60.7760 N   0  0  0  0  0  0  0  0  0  0  0  0
  133.0630  118.7040   60.8650 C   0  0  0  0  0  0  0  0  0  0  0  0
  133.1780  117.4850   60.2020 C   0  0  0  0  0  0  0  0  0  0  0  0
  1  2  1  0
  2  3  1  0
  3  4  1  0
  4  5  2  0
  4  6  1  0
  6  7  2  0
  7  8  1  0
  8  9  2  0
  9 10  1  0
 10 11  1  0
 11 12  2  0
 11 13  1  0
 13 14  1  0
 14 15  1  0
 15 16  2  0
 16 17  1  0
 17 18  1  0
 18 19  2  0
 19 20  1  0
 20 21  2  0
 21 22  1  0
 22 23  1  0
 23 24  1  0
 24 25  1  0
 25 26  1  0
 26 27  1  0
 21 28  1  0
 28 29  2  0
 17 30  2  0
 30 31  1  0
 31 32  1  0
 32 33  2  0
 33 34  1  0
 34 35  2  0
 35 36  1  0
 36 37  1  0
 37 38  1  0
 38 39  1  0
 39 40  1  0
 40 41  1  0
 35 42  1  0
 42 43  2  0
 31 44  2  0
 44 45  1  0
 45 46  1  0
  9 47  1  0
 47 48  2  0
 48  6  1  0
 45 13  2  0
 44 15  1  0
 29 18  1  0
 43 32  1  0
 27 22  1  0
 41 36  1  0
M  END
>  <Binding energies>  (39) 
[-7.5]

>  <Ligand effiencies>  (39) 
[-0.14705882352941177]

>  <Interactions>  (39) 
["V-A:MET:535:CE:4833, V-A:GLU:543:CD:4906, V-B:TYR:539:CE1:9847, V-B:TYR:539:CD1:9845, V-B:TYR:539:C:9839, V-B:GLU:543:CD:9880, V-A:LEU:475:CD2:4256, V-B:TYR:539:CG:9844, V-A:LEU:373:CD1:3277, V-A:PRO:482:CB:4323, V-A:PRO:482:CG:4324, V-A:GLY:454:CA:4046, V-A:HIS:456:CE1:4066, V-B:GLU:543:CG:9879, V-A:TYR:484:CZ:4344, V-B:GLU:543:CB:9878, V-A:ARG:545:CG:4920, H-A:TYR:484:OH:4345, V-B:HIS:456:CE1:9040, H-A:TYR:539:OH:4876, V-A:SER:385:CA:3404, V-A:SER:385:CB:3406, H-A:ASP:366:OD1:3211, V-B:VAL:344:CG1:7972, V-B:TYR:539:CB:9843, V-A:HIS:383:CG:3387, V-A:HIS:383:CB:3386, V-A:HIS:383:CD2:3389, V-A:LEU:373:CD2:3278, V-A:GLU:543:CG:4905, V-A:TYR:484:CE2:4343, V-A:THR:477:C:4265, V-A:THR:477:CA:4267, V-A:LYS:547:CE:4948, H-A:LYS:547:NZ:4949, V-B:GLU:543:C:9874, V-B:HIS:456:CD2:9039, V-A:GLU:543:C:4900, V-A:GLY:544:C:4910, V-A:GLY:544:CA:4912, V-B:HIS:456:CG:9037, V-B:GLY:544:C:9884, V-B:GLU:543:CA:9876, H-A:HIS:383:ND1:3388"]

$$$$
9b_Ghoteimi_2023
     RDKit          3D

 42 48  0  0  0  0  0  0  0  0999 V2000
  127.4830  126.8260   62.8760 N   0  0  0  0  0  0  0  0  0  0  0  0
  127.0920  127.6710   61.8690 C   0  0  0  0  0  0  0  0  0  0  0  0
  126.9140  127.2590   60.5390 C   0  0  0  0  0  0  0  0  0  0  0  0
  127.0720  125.9190   59.9690 C   0  0  0  0  0  0  0  0  0  0  0  0
  127.8800  125.1220   60.4490 O   0  0  0  0  0  0  0  0  0  0  0  0
  126.2820  125.6440   58.9010 N   0  0  0  0  0  0  0  0  0  0  0  0
  126.2320  124.4670   58.1650 C   0  0  0  0  0  0  0  0  0  0  0  0
  125.0770  124.0150   57.5280 C   0  0  0  0  0  0  0  0  0  0  0  0
  125.4420  122.8380   56.9170 C   0  0  0  0  0  0  0  0  0  0  0  0
  126.7500  122.5930   57.1740 O   0  0  0  0  0  0  0  0  0  0  0  0
  127.2390  123.6320   57.9650 N   0  0  0  0  0  0  0  0  0  0  0  0
  126.4410  128.6120   59.5110 S   0  0  0  0  0  0  0  0  0  0  0  0
  126.5010  129.7190   60.8610 C   0  0  0  0  0  0  0  0  0  0  0  0
  126.2470  131.0170   60.7110 N   0  0  0  0  0  0  0  0  0  0  0  0
  126.3380  131.7960   61.8220 C   0  0  0  0  0  0  0  0  0  0  0  0
  126.0680  133.2520   61.6220 C   0  0  0  0  0  0  0  0  0  0  0  0
  124.7720  133.7210   61.3710 C   0  0  0  0  0  0  0  0  0  0  0  0
  124.5290  135.0760   61.1710 C   0  0  0  0  0  0  0  0  0  0  0  0
  125.5750  136.0120   61.2000 C   0  0  0  0  0  0  0  0  0  0  0  0
  125.3450  137.3780   61.0040 N   0  0  0  0  0  0  0  0  0  0  0  0
  125.9400  138.1020   59.8630 C   0  0  0  0  0  0  0  0  0  0  0  0
  125.3130  139.4880   59.6080 C   0  0  0  0  0  0  0  0  0  0  0  0
  125.3690  140.2700   60.7900 O   0  0  0  0  0  0  0  0  0  0  0  0
  124.6520  139.6620   61.8510 C   0  0  0  0  0  0  0  0  0  0  0  0
  125.2550  138.2770   62.1740 C   0  0  0  0  0  0  0  0  0  0  0  0
  126.8670  135.5390   61.4710 C   0  0  0  0  0  0  0  0  0  0  0  0
  127.1100  134.1840   61.6750 C   0  0  0  0  0  0  0  0  0  0  0  0
  126.6550  131.2720   63.0770 C   0  0  0  0  0  0  0  0  0  0  0  0
  126.9030  129.9040   63.2430 C   0  0  0  0  0  0  0  0  0  0  0  0
  127.2070  129.3920   64.6030 C   0  0  0  0  0  0  0  0  0  0  0  0
  128.3170  128.5740   64.8170 C   0  0  0  0  0  0  0  0  0  0  0  0
  128.6150  128.1080   66.0930 C   0  0  0  0  0  0  0  0  0  0  0  0
  127.8110  128.4480   67.1930 C   0  0  0  0  0  0  0  0  0  0  0  0
  128.1010  128.0040   68.4850 N   0  0  0  0  0  0  0  0  0  0  0  0
  127.2160  127.0110   69.1240 C   0  0  0  0  0  0  0  0  0  0  0  0
  127.4110  126.9160   70.6520 C   0  0  0  0  0  0  0  0  0  0  0  0
  128.7710  126.6410   70.9520 O   0  0  0  0  0  0  0  0  0  0  0  0
  129.6330  127.6570   70.4600 C   0  0  0  0  0  0  0  0  0  0  0  0
  129.4910  127.7750   68.9280 C   0  0  0  0  0  0  0  0  0  0  0  0
  126.7090  129.2860   66.9690 C   0  0  0  0  0  0  0  0  0  0  0  0
  126.4110  129.7520   65.6910 C   0  0  0  0  0  0  0  0  0  0  0  0
  126.8470  129.0750   62.0870 C   0  0  0  0  0  0  0  0  0  0  0  0
  1  2  1  0
  2  3  2  0
  3  4  1  0
  4  5  2  0
  4  6  1  0
  6  7  1  0
  7  8  1  0
  8  9  2  0
  9 10  1  0
 10 11  1  0
  3 12  1  0
 12 13  1  0
 13 14  2  0
 14 15  1  0
 15 16  1  0
 16 17  2  0
 17 18  1  0
 18 19  2  0
 19 20  1  0
 20 21  1  0
 21 22  1  0
 22 23  1  0
 23 24  1  0
 24 25  1  0
 19 26  1  0
 26 27  2  0
 15 28  2  0
 28 29  1  0
 29 30  1  0
 30 31  2  0
 31 32  1  0
 32 33  2  0
 33 34  1  0
 34 35  1  0
 35 36  1  0
 36 37  1  0
 37 38  1  0
 38 39  1  0
 33 40  1  0
 40 41  2  0
 29 42  2  0
 42  2  1  0
 11  7  2  0
 42 13  1  0
 27 16  1  0
 41 30  1  0
 25 20  1  0
 39 34  1  0
M  END
>  <Binding energies>  (40) 
[-7.89]

>  <Ligand effiencies>  (40) 
[-0.1753333333333333]

>  <Interactions>  (40) 
["V-A:TYR:539:CD1:4871, V-A:TYR:539:CE1:4873, V-A:GLU:543:CD:4906, V-B:LEU:475:CD2:9230, V-A:ALA:541:CB:4890, H-B:TYR:539:N:9842, V-B:TYR:531:CE2:9765, V-B:PRO:540:CA:9855, V-B:ILE:538:CB:9834, V-B:PRO:540:N:9856, V-B:GLU:543:CD:9880, V-B:PRO:540:CD:9859, V-B:PRO:540:CB:9857, H-B:GLU:543:OE2:9882, H-B:GLU:543:OE1:9881, V-B:GLY:544:CA:9886, V-A:HIS:456:CE1:4066, V-B:GLU:543:CG:9879, V-B:ASP:366:CG:8184, H-B:TYR:531:OH:9767, V-A:TYR:539:CG:4870, V-B:HIS:456:CE1:9040, V-B:ARG:545:CG:9894, H-B:ASP:366:OD2:8186, V-B:SER:385:CB:8380, V-B:ILE:369:CG2:8208, V-B:LEU:373:CD1:8251, V-B:SER:385:CA:8378, H-B:HIS:383:ND1:8362, V-A:TYR:539:CB:4869, V-B:TYR:484:CZ:9318, V-B:HIS:383:CG:8361, V-B:LEU:475:CG:9228, V-B:HIS:383:CB:8360, V-B:HIS:383:CD2:8363, V-A:GLU:543:CG:4905, V-B:GLU:543:C:9874, V-A:GLU:543:C:4900, V-B:GLY:544:C:9884, H-A:HIS:456:NE2:4067, V-B:LEU:373:CD2:8252"]

$$$$
9c_Ghoteimi_2023
     RDKit          3D

 42 48  0  0  0  0  0  0  0  0999 V2000
  130.6720  127.9550   62.4040 N   0  0  0  0  0  0  0  0  0  0  0  0
  130.9640  127.1100   61.3640 C   0  0  0  0  0  0  0  0  0  0  0  0
  131.0430  127.5280   60.0270 C   0  0  0  0  0  0  0  0  0  0  0  0
  130.8650  128.8760   59.4790 C   0  0  0  0  0  0  0  0  0  0  0  0
  130.3210  129.7600   60.1430 O   0  0  0  0  0  0  0  0  0  0  0  0
  131.3300  129.0580   58.2180 N   0  0  0  0  0  0  0  0  0  0  0  0
  131.2730  130.2240   57.4680 C   0  0  0  0  0  0  0  0  0  0  0  0
  130.2490  130.7030   56.7950 N   0  0  0  0  0  0  0  0  0  0  0  0
  130.5540  131.8360   56.1910 C   0  0  0  0  0  0  0  0  0  0  0  0
  131.8550  132.2980   56.3680 C   0  0  0  0  0  0  0  0  0  0  0  0
  132.7170  131.1810   57.3840 S   0  0  0  0  0  0  0  0  0  0  0  0
  131.4070  126.1750   58.9560 S   0  0  0  0  0  0  0  0  0  0  0  0
  131.4320  125.0590   60.3000 C   0  0  0  0  0  0  0  0  0  0  0  0
  131.6490  123.7570   60.1220 N   0  0  0  0  0  0  0  0  0  0  0  0
  131.6300  122.9720   61.2310 C   0  0  0  0  0  0  0  0  0  0  0  0
  131.8550  121.5120   61.0000 C   0  0  0  0  0  0  0  0  0  0  0  0
  133.0990  121.0290   60.5770 C   0  0  0  0  0  0  0  0  0  0  0  0
  133.3010  119.6700   60.3550 C   0  0  0  0  0  0  0  0  0  0  0  0
  132.2610  118.7440   60.5350 C   0  0  0  0  0  0  0  0  0  0  0  0
  132.4500  117.3740   60.3230 N   0  0  0  0  0  0  0  0  0  0  0  0
  131.6820  116.6420   59.2950 C   0  0  0  0  0  0  0  0  0  0  0  0
  132.2570  115.2500   58.9600 C   0  0  0  0  0  0  0  0  0  0  0  0
  132.3780  114.4800   60.1460 O   0  0  0  0  0  0  0  0  0  0  0  0
  133.2530  115.0950   61.0770 C   0  0  0  0  0  0  0  0  0  0  0  0
  132.7130  116.4860   61.4740 C   0  0  0  0  0  0  0  0  0  0  0  0
  131.0230  119.2320   60.9780 C   0  0  0  0  0  0  0  0  0  0  0  0
  130.8230  120.5910   61.2040 C   0  0  0  0  0  0  0  0  0  0  0  0
  131.4240  123.4920   62.5110 C   0  0  0  0  0  0  0  0  0  0  0  0
  131.2180  124.8620   62.7040 C   0  0  0  0  0  0  0  0  0  0  0  0
  131.0340  125.3710   64.0860 C   0  0  0  0  0  0  0  0  0  0  0  0
  129.9260  126.1560   64.4070 C   0  0  0  0  0  0  0  0  0  0  0  0
  129.7410  126.6200   65.7070 C   0  0  0  0  0  0  0  0  0  0  0  0
  130.6630  126.3130   66.7200 C   0  0  0  0  0  0  0  0  0  0  0  0
  130.4920  126.7590   68.0340 N   0  0  0  0  0  0  0  0  0  0  0  0
  131.3160  127.8810   68.5260 C   0  0  0  0  0  0  0  0  0  0  0  0
  131.3120  128.0100   70.0650 C   0  0  0  0  0  0  0  0  0  0  0  0
  129.9790  128.1190   70.5400 O   0  0  0  0  0  0  0  0  0  0  0  0
  129.2030  126.9830   70.1930 C   0  0  0  0  0  0  0  0  0  0  0  0
  129.1560  126.8240   68.6570 C   0  0  0  0  0  0  0  0  0  0  0  0
  131.7620  125.5060   66.3910 C   0  0  0  0  0  0  0  0  0  0  0  0
  131.9460  125.0410   65.0910 C   0  0  0  0  0  0  0  0  0  0  0  0
  131.1970  125.7000   61.5530 C   0  0  0  0  0  0  0  0  0  0  0  0
  1  2  1  0
  2  3  2  0
  3  4  1  0
  4  5  2  0
  4  6  1  0
  6  7  1  0
  7  8  2  0
  8  9  1  0
  9 10  2  0
 10 11  1  0
  3 12  1  0
 12 13  1  0
 13 14  2  0
 14 15  1  0
 15 16  1  0
 16 17  2  0
 17 18  1  0
 18 19  2  0
 19 20  1  0
 20 21  1  0
 21 22  1  0
 22 23  1  0
 23 24  1  0
 24 25  1  0
 19 26  1  0
 26 27  2  0
 15 28  2  0
 28 29  1  0
 29 30  1  0
 30 31  2  0
 31 32  1  0
 32 33  2  0
 33 34  1  0
 34 35  1  0
 35 36  1  0
 36 37  1  0
 37 38  1  0
 38 39  1  0
 33 40  1  0
 40 41  2  0
 29 42  2  0
 42  2  1  0
 11  7  1  0
 42 13  1  0
 27 16  1  0
 41 30  1  0
 25 20  1  0
 39 34  1  0
M  END
>  <Binding energies>  (41) 
[-7.84]

>  <Ligand effiencies>  (41) 
[-0.17422222222222222]

>  <Interactions>  (41) 
["V-A:MET:535:CE:4833, V-A:LEU:363:CD1:3186, V-A:ILE:538:CG2:4861, V-A:TYR:531:CE2:4791, V-A:GLU:543:CD:4906, V-A:ILE:538:CB:4860, V-A:TYR:531:CZ:4792, V-A:ARG:545:CZ:4924, V-B:TYR:539:CE1:9847, V-B:TYR:539:CD1:9845, V-A:ASP:366:CB:3209, V-B:GLU:543:CD:9880, V-A:LEU:475:CD2:4256, V-B:TYR:539:CG:9844, V-A:LEU:373:CD1:3277, V-B:ALA:541:CB:9864, H-A:GLU:543:OE2:4908, H-A:GLU:543:OE1:4907, V-A:ASP:366:CG:3210, V-A:HIS:456:CE1:4066, V-B:GLU:543:CG:9879, V-A:TYR:484:CZ:4344, V-B:GLU:543:CB:9878, V-A:ILE:369:CG2:3234, H-A:TYR:531:OH:4793, V-A:ARG:545:CG:4920, V-A:SER:385:CA:3404, V-A:SER:385:CB:3406, H-A:ASP:366:OD2:3212, V-B:TYR:539:CB:9843, V-A:HIS:383:CG:3387, V-A:HIS:383:CB:3386, V-A:HIS:383:CD2:3389, V-A:LEU:373:CD2:3278, V-A:HIS:383:CE1:3391, V-A:GLU:543:CB:4904, V-A:GLU:543:CG:4905, V-A:THR:477:CA:4267, V-B:GLU:543:C:9874, V-A:GLU:543:C:4900, V-A:GLY:544:C:4910, V-A:GLY:544:CA:4912, H-B:HIS:456:NE2:9041, H-A:HIS:383:ND1:3388, V-A:THR:477:CG2:4270, V-A:ARG:545:CA:4917"]

$$$$
RR11_Rahimova_2017
     RDKit          3D

 33 38  0  0  0  0  0  0  0  0999 V2000
  132.4270  114.6740   59.4420 N   0  0  0  0  0  0  0  0  0  0  0  0
  132.1550  115.9810   59.8420 C   0  0  0  0  0  0  0  0  0  0  0  0
  130.8410  116.4450   59.8520 C   0  0  0  0  0  0  0  0  0  0  0  0
  130.5710  117.7490   60.2550 C   0  0  0  0  0  0  0  0  0  0  0  0
  131.6100  118.6020   60.6520 C   0  0  0  0  0  0  0  0  0  0  0  0
  131.3160  120.0060   61.0910 C   0  0  0  0  0  0  0  0  0  0  0  0
  132.2350  120.9070   61.3640 N   0  0  0  0  0  0  0  0  0  0  0  0
  131.5420  122.0380   61.7080 C   0  0  0  0  0  0  0  0  0  0  0  0
  132.0310  123.2970   62.0810 C   0  0  0  0  0  0  0  0  0  0  0  0
  131.1100  124.3100   62.3720 C   0  0  0  0  0  0  0  0  0  0  0  0
  131.6120  125.6860   62.7870 C   0  0  0  0  0  0  0  0  0  0  0  0
  130.8540  126.8220   62.1130 C   0  0  0  0  0  0  0  0  0  0  0  0
  129.8060  127.4500   62.7950 C   0  0  0  0  0  0  0  0  0  0  0  0
  129.0870  128.5020   62.2230 C   0  0  0  0  0  0  0  0  0  0  0  0
  129.4470  128.9250   60.9370 C   0  0  0  0  0  0  0  0  0  0  0  0
  128.9010  129.9170   60.1650 N   0  0  0  0  0  0  0  0  0  0  0  0
  129.5940  129.9080   59.0460 C   0  0  0  0  0  0  0  0  0  0  0  0
  129.3400  130.8230   57.8830 C   0  0  0  0  0  0  0  0  0  0  0  0
  128.1270  130.7670   57.1860 C   0  0  0  0  0  0  0  0  0  0  0  0
  127.8950  131.6080   56.1010 C   0  0  0  0  0  0  0  0  0  0  0  0
  128.8780  132.5130   55.7040 C   0  0  0  0  0  0  0  0  0  0  0  0
  128.6490  133.3520   54.6150 N   0  0  0  0  0  0  0  0  0  0  0  0
  130.0870  132.5830   56.3910 C   0  0  0  0  0  0  0  0  0  0  0  0
  130.3180  131.7410   57.4750 C   0  0  0  0  0  0  0  0  0  0  0  0
  130.5830  128.9470   59.0600 N   0  0  0  0  0  0  0  0  0  0  0  0
  130.5170  128.2890   60.2650 C   0  0  0  0  0  0  0  0  0  0  0  0
  131.2440  127.2390   60.8340 C   0  0  0  0  0  0  0  0  0  0  0  0
  129.7340  124.0600   62.3150 C   0  0  0  0  0  0  0  0  0  0  0  0
  129.2150  122.8150   61.9510 C   0  0  0  0  0  0  0  0  0  0  0  0
  130.1460  121.8180   61.6480 C   0  0  0  0  0  0  0  0  0  0  0  0
  130.0400  120.5050   61.2520 N   0  0  0  0  0  0  0  0  0  0  0  0
  132.9270  118.1230   60.6360 C   0  0  0  0  0  0  0  0  0  0  0  0
  133.2000  116.8180   60.2330 C   0  0  0  0  0  0  0  0  0  0  0  0
  1  2  1  0
  2  3  2  0
  3  4  1  0
  4  5  2  0
  5  6  1  0
  6  7  2  0
  7  8  1  0
  8  9  2  0
  9 10  1  0
 10 11  1  0
 11 12  1  0
 12 13  2  0
 13 14  1  0
 14 15  2  0
 15 16  1  0
 16 17  2  0
 17 18  1  0
 18 19  2  0
 19 20  1  0
 20 21  2  0
 21 22  1  0
 21 23  1  0
 23 24  2  0
 17 25  1  0
 25 26  1  0
 26 27  2  0
 10 28  2  0
 28 29  1  0
 29 30  2  0
 30 31  1  0
  5 32  1  0
 32 33  2  0
 33  2  1  0
 31  6  1  0
 30  8  1  0
 27 12  1  0
 26 15  1  0
 24 18  1  0
M  END
>  <Binding energies>  (42) 
[-8.4]

>  <Ligand effiencies>  (42) 
[-0.2153846153846154]

>  <Interactions>  (42) 
["V-A:MET:535:CE:4833, V-A:ILE:538:CG2:4861, V-A:TYR:539:CE1:4873, V-A:GLU:543:CD:4906, V-A:ILE:538:CB:4860, V-A:ARG:545:CZ:4924, V-A:TYR:539:CZ:4875, V-B:TYR:539:CE1:9847, V-B:TYR:539:CD1:9845, V-B:TYR:539:C:9839, V-A:LEU:475:CD2:4256, V-B:TYR:539:CG:9844, V-A:LEU:373:CD1:3277, V-A:PRO:482:CB:4323, V-B:ALA:541:CB:9864, V-A:PRO:482:CG:4324, V-A:ASP:366:CG:3210, V-A:TYR:539:CD2:4872, V-A:TYR:539:CE2:4874, H-A:TYR:531:OH:4793, V-A:TYR:539:CG:4870, H-B:TYR:539:O:9840, V-A:ILE:538:CA:4858, V-A:SER:385:CA:3404, V-A:SER:385:CB:3406, H-A:ASP:366:OD2:3212, V-B:VAL:344:CG1:7972, V-B:TYR:539:CB:9843, V-A:ILE:538:C:4856, V-A:HIS:383:CG:3387, V-A:HIS:383:CB:3386, V-A:HIS:383:CD2:3389, V-A:HIS:383:CE1:3391, V-A:VAL:384:C:3394, V-A:VAL:537:C:4848, H-A:VAL:537:O:4849, H-A:HIS:383:NE2:3392"]

$$$$
RR16_Rahimova_2017
     RDKit          3D

 44 49  0  0  0  0  0  0  0  0999 V2000
  134.9910  124.3720   61.7680 O   0  0  0  0  0  0  0  0  0  0  0  0
  133.6870  123.7020   61.8350 S   0  0  0  0  0  0  0  0  0  0  0  0
  132.7550  123.9780   62.9340 O   0  0  0  0  0  0  0  0  0  0  0  0
  133.9810  121.9620   61.7900 N   0  0  0  0  0  0  0  0  0  0  0  0
  133.0470  121.0510   61.0880 C   0  0  0  0  0  0  0  0  0  0  0  0
  133.5280  119.5880   61.2730 C   0  0  0  0  0  0  0  0  0  0  0  0
  133.0680  118.5550   60.2260 C   0  0  0  0  0  0  0  0  0  0  0  0
  131.6270  118.0560   60.4320 C   0  0  0  0  0  0  0  0  0  0  0  0
  130.7670  118.8730   61.4130 C   0  0  0  0  0  0  0  0  0  0  0  0
  130.5390  120.3600   61.0780 C   0  0  0  0  0  0  0  0  0  0  0  0
  131.6100  121.3510   61.5760 C   0  0  0  0  0  0  0  0  0  0  0  0
  132.8440  124.0520   60.2970 C   0  0  0  0  0  0  0  0  0  0  0  0
  133.5670  124.4560   59.1730 C   0  0  0  0  0  0  0  0  0  0  0  0
  132.8890  124.8420   58.0200 C   0  0  0  0  0  0  0  0  0  0  0  0
  131.4930  124.8220   57.9960 C   0  0  0  0  0  0  0  0  0  0  0  0
  130.6160  125.4520   56.5660 S   0  0  0  0  0  0  0  0  0  0  0  0
  129.7980  124.3540   56.0340 O   0  0  0  0  0  0  0  0  0  0  0  0
  131.6000  126.1260   55.7090 O   0  0  0  0  0  0  0  0  0  0  0  0
  129.5280  126.6840   57.2330 N   0  0  0  0  0  0  0  0  0  0  0  0
  129.3670  127.8900   56.3800 C   0  0  0  0  0  0  0  0  0  0  0  0
  128.6700  129.0190   57.1660 C   0  0  0  0  0  0  0  0  0  0  0  0
  127.3380  128.5420   57.7970 C   0  0  0  0  0  0  0  0  0  0  0  0
  126.6530  129.6360   58.6210 C   0  0  0  0  0  0  0  0  0  0  0  0
  125.2530  129.6810   58.6900 C   0  0  0  0  0  0  0  0  0  0  0  0
  124.5870  130.6550   59.4350 C   0  0  0  0  0  0  0  0  0  0  0  0
  123.2170  130.6810   59.4940 O   0  0  0  0  0  0  0  0  0  0  0  0
  125.3580  131.6010   60.1270 C   0  0  0  0  0  0  0  0  0  0  0  0
  124.9910  132.6390   60.9350 N   0  0  0  0  0  0  0  0  0  0  0  0
  126.1450  133.2400   61.3870 N   0  0  0  0  0  0  0  0  0  0  0  0
  127.1990  132.6110   60.8320 N   0  0  0  0  0  0  0  0  0  0  0  0
  128.5570  132.9860   61.2040 C   0  0  0  0  0  0  0  0  0  0  0  0
  129.6010  132.4520   60.2340 C   0  0  0  0  0  0  0  0  0  0  0  0
  130.6430  131.6430   60.7000 C   0  0  0  0  0  0  0  0  0  0  0  0
  131.5890  131.1340   59.8090 C   0  0  0  0  0  0  0  0  0  0  0  0
  131.4970  131.4300   58.4480 C   0  0  0  0  0  0  0  0  0  0  0  0
  130.4590  132.2340   57.9770 C   0  0  0  0  0  0  0  0  0  0  0  0
  130.3370  132.5930   56.2940 Cl  0  0  0  0  0  0  0  0  0  0  0  0
  129.5150  132.7470   58.8690 C   0  0  0  0  0  0  0  0  0  0  0  0
  126.7700  131.5540   60.0460 C   0  0  0  0  0  0  0  0  0  0  0  0
  127.4380  130.5810   59.2960 C   0  0  0  0  0  0  0  0  0  0  0  0
  127.5000  127.2130   58.5790 C   0  0  0  0  0  0  0  0  0  0  0  0
  128.2440  126.1450   57.7520 C   0  0  0  0  0  0  0  0  0  0  0  0
  130.7730  124.3780   59.1080 C   0  0  0  0  0  0  0  0  0  0  0  0
  131.4500  123.9950   60.2610 C   0  0  0  0  0  0  0  0  0  0  0  0
  1  2  2  0
  2  3  2  0
  2  4  1  0
  4  5  1  0
  5  6  1  0
  6  7  1  0
  7  8  1  0
  8  9  1  0
  9 10  1  0
 10 11  1  0
  2 12  1  0
 12 13  2  0
 13 14  1  0
 14 15  2  0
 15 16  1  0
 16 17  2  0
 16 18  2  0
 16 19  1  0
 19 20  1  0
 20 21  1  0
 21 22  1  0
 22 23  1  0
 23 24  2  0
 24 25  1  0
 25 26  1  0
 25 27  2  0
 27 28  1  0
 28 29  2  0
 29 30  1  0
 30 31  1  0
 31 32  1  0
 32 33  2  0
 33 34  1  0
 34 35  2  0
 35 36  1  0
 36 37  1  0
 36 38  2  0
 30 39  1  0
 39 40  2  0
 22 41  1  0
 41 42  1  0
 15 43  1  0
 43 44  2  0
 11  5  1  0
 44 12  1  0
 42 19  1  0
 40 23  1  0
 39 27  1  0
 38 32  1  0
M  END
>  <Binding energies>  (43) 
[-11.17]

>  <Ligand effiencies>  (43) 
[-0.23270833333333332]

>  <Interactions>  (43) 
["V-A:TYR:539:CD1:4871, V-A:PRO:540:N:4882, V-A:MET:535:CE:4833, V-A:ILE:538:CG2:4861, V-A:PRO:540:CA:4881, V-A:TYR:539:CE1:4873, V-A:ILE:538:CB:4860, V-A:PRO:540:CB:4883, V-A:ALA:541:CB:4890, V-A:TYR:539:C:4865, V-A:TYR:539:CZ:4875, V-B:TYR:539:CE1:9847, V-B:TYR:539:CD1:9845, V-A:ASP:366:CB:3209, V-B:MET:535:CE:9807, V-B:TYR:539:CZ:9849, V-A:LEU:475:CD2:4256, V-A:LEU:373:CD1:3277, V-A:PRO:482:CB:4323, V-B:ALA:541:CB:9864, V-A:PRO:482:CG:4324, V-A:ASP:366:CG:3210, V-B:ASP:366:CB:8183, V-A:ASP:366:CA:3207, V-B:ASP:366:CG:8184, V-A:ILE:369:CD1:3236, H-B:TYR:539:OH:9850, V-A:ILE:369:CG2:3234, H-A:TYR:531:OH:4793, H-A:GLY:454:N:4047, H-B:ASP:366:OD1:8185, V-A:ILE:538:CA:4858, V-A:SER:385:CA:3404, V-A:SER:385:CB:3406, V-B:ASP:366:CA:8181, V-A:SER:385:C:3402, H-A:SER:385:O:3403, H-B:ASP:366:O:8180"]

$$$$
RR18_Rahimova_2017
     RDKit          3D

 36 41  0  0  0  0  0  0  0  0999 V2000
  133.1250  125.5190   56.2980 C   0  0  0  0  0  0  0  0  0  0  0  0
  132.8750  125.1520   57.7400 C   0  0  0  0  0  0  0  0  0  0  0  0
  133.6240  124.5220   58.7200 C   0  0  0  0  0  0  0  0  0  0  0  0
  132.8310  124.4760   59.8660 C   0  0  0  0  0  0  0  0  0  0  0  0
  131.6260  125.0800   59.5450 C   0  0  0  0  0  0  0  0  0  0  0  0
  130.3450  125.3640   60.3250 C   0  0  1  0  0  0  0  0  0  0  0  0
  130.1820  124.3910   61.5300 C   0  0  0  0  0  0  0  0  0  0  0  0
  129.9940  122.9610   61.3060 C   0  0  0  0  0  0  0  0  0  0  0  0
  128.8870  122.4830   61.0520 O   0  0  0  0  0  0  0  0  0  0  0  0
  131.1320  122.2330   61.3850 N   0  0  0  0  0  0  0  0  0  0  0  0
  131.3380  120.8430   61.2490 C   0  0  0  0  0  0  0  0  0  0  0  0
  130.3030  119.8940   61.3310 C   0  0  0  0  0  0  0  0  0  0  0  0
  130.5750  118.5340   61.1930 C   0  0  0  0  0  0  0  0  0  0  0  0
  131.8800  118.1010   60.9800 C   0  0  0  0  0  0  0  0  0  0  0  0
  132.9170  119.0290   60.9080 C   0  0  0  0  0  0  0  0  0  0  0  0
  132.6590  120.3970   61.0430 C   0  0  0  0  0  0  0  0  0  0  0  0
  133.8310  121.3710   60.9610 C   0  0  0  0  0  0  0  0  0  0  0  0
  130.3210  124.8890   62.7870 C   0  0  0  0  0  0  0  0  0  0  0  0
  130.4780  126.2080   63.0870 N   0  0  0  0  0  0  0  0  0  0  0  0
  130.4160  127.0800   62.1500 C   0  0  0  0  0  0  0  0  0  0  0  0
  130.4490  128.8090   62.3990 S   0  0  0  0  0  0  0  0  0  0  0  0
  130.2810  129.1190   60.6420 C   0  0  0  0  0  0  0  0  0  0  0  0
  130.2230  130.3440   60.0140 C   0  0  0  0  0  0  0  0  0  0  0  0
  130.2160  131.5840   60.8050 C   0  0  0  0  0  0  0  0  0  0  0  0
  130.2810  131.7460   62.0230 O   0  0  0  0  0  0  0  0  0  0  0  0
  130.1000  132.6030   59.9480 N   0  0  0  0  0  0  0  0  0  0  0  0
  130.0620  132.2010   58.6470 C   0  0  0  0  0  0  0  0  0  0  0  0
  129.9610  133.0000   57.5080 C   0  0  0  0  0  0  0  0  0  0  0  0
  129.9700  132.3900   56.2570 C   0  0  0  0  0  0  0  0  0  0  0  0
  130.0870  131.0050   56.1650 C   0  0  0  0  0  0  0  0  0  0  0  0
  130.1860  130.2260   57.3210 C   0  0  0  0  0  0  0  0  0  0  0  0
  130.1550  130.8210   58.5970 C   0  0  0  0  0  0  0  0  0  0  0  0
  130.1990  127.8260   59.9620 C   0  0  0  0  0  0  0  0  0  0  0  0
  130.0280  127.6430   58.7600 O   0  0  0  0  0  0  0  0  0  0  0  0
  130.3130  126.7830   60.8290 N   0  0  0  0  0  0  0  0  0  0  0  0
  131.6600  125.4880   58.2490 O   0  0  0  0  0  0  0  0  0  0  0  0
  1  2  1  0
  2  3  2  0
  3  4  1  0
  4  5  2  0
  6  5  1  1
  6  7  1  0
  7  8  1  0
  8  9  2  0
  8 10  1  0
 10 11  1  0
 11 12  2  0
 12 13  1  0
 13 14  2  0
 14 15  1  0
 15 16  2  0
 16 17  1  0
  7 18  2  0
 18 19  1  0
 19 20  2  0
 20 21  1  0
 21 22  1  0
 22 23  2  0
 23 24  1  0
 24 25  2  0
 24 26  1  0
 26 27  1  0
 27 28  2  0
 28 29  1  0
 29 30  2  0
 30 31  1  0
 31 32  2  0
 22 33  1  0
 33 34  2  0
 33 35  1  0
  5 36  1  0
 36  2  1  0
 35  6  1  0
 16 11  1  0
 35 20  1  0
 32 23  1  0
 32 27  1  0
M  END
>  <Binding energies>  (44) 
[-8.89]

>  <Ligand effiencies>  (44) 
[-0.23394736842105265]

>  <Interactions>  (44) 
["V-A:TYR:539:CD1:4871, V-A:PRO:540:N:4882, V-A:MET:535:CE:4833, V-A:PRO:540:CD:4885, V-A:PRO:540:CA:4881, V-A:GLU:543:CD:4906, V-A:TYR:531:CZ:4792, V-A:PRO:540:CB:4883, H-A:ALA:541:N:4889, V-A:TYR:539:C:4865, V-B:TYR:539:CE1:9847, V-B:TYR:539:CD1:9845, V-A:ASP:366:CB:3209, V-B:TYR:539:CZ:9849, V-A:LEU:475:CD2:4256, V-A:LEU:373:CD1:3277, V-A:PRO:482:CB:4323, V-B:ALA:541:CB:9864, V-A:PRO:482:CG:4324, H-B:ALA:541:N:9863, V-A:PRO:540:C:4879, V-A:ASP:366:CG:3210, H-A:ARG:545:NH2:4926, V-A:ILE:369:CB:3233, V-A:ASP:366:CA:3207, V-A:ILE:369:CD1:3236, V-A:ILE:369:CG2:3234, V-A:TYR:539:CG:4870, H-A:TYR:539:O:4866, V-A:ILE:538:CA:4858, V-A:SER:385:CA:3404, V-A:SER:385:CB:3406, V-A:TYR:539:CA:4867, V-A:TYR:531:CE1:4790, V-A:ASN:370:CB:3242, V-A:ASP:366:C:3205"]

$$$$
RR20_Rahimova_2017
     RDKit          3D

 38 43  0  0  0  0  0  0  0  0999 V2000
  124.8730  123.5700   62.0980 C   0  0  0  0  0  0  0  0  0  0  0  0
  125.6680  123.5940   60.8050 C   0  0  0  0  0  0  0  0  0  0  0  0
  127.0620  123.5580   60.8450 C   0  0  0  0  0  0  0  0  0  0  0  0
  127.7920  123.5710   59.6600 C   0  0  0  0  0  0  0  0  0  0  0  0
  127.1350  123.6340   58.4250 C   0  0  0  0  0  0  0  0  0  0  0  0
  127.9470  123.6260   57.1480 C   0  0  0  0  0  0  0  0  0  0  0  0
  127.6590  122.7850   56.2940 O   0  0  0  0  0  0  0  0  0  0  0  0
  128.9440  124.5440   56.9840 N   0  0  0  0  0  0  0  0  0  0  0  0
  130.0280  124.3390   56.0100 C   0  0  0  0  0  0  0  0  0  0  0  0
  130.8450  125.6200   56.0020 C   0  0  0  0  0  0  0  0  0  0  0  0
  129.9430  126.5950   56.6950 C   0  0  0  0  0  0  0  0  0  0  0  0
  130.1230  127.9630   56.9070 C   0  0  0  0  0  0  0  0  0  0  0  0
  129.2410  128.6800   57.7240 C   0  0  0  0  0  0  0  0  0  0  0  0
  129.4300  130.1550   57.9460 C   0  0  0  0  0  0  0  0  0  0  0  0
  128.8590  130.7100   59.0040 N   0  0  0  0  0  0  0  0  0  0  0  0
  129.1060  131.9910   59.1080 C   0  0  0  0  0  0  0  0  0  0  0  0
  128.6720  132.8670   60.0910 N   0  0  0  0  0  0  0  0  0  0  0  0
  127.4830  132.8380   60.7420 C   0  0  0  0  0  0  0  0  0  0  0  0
  126.6140  131.9850   60.5500 O   0  0  0  0  0  0  0  0  0  0  0  0
  127.2100  133.9250   61.8080 C   0  0  0  0  0  0  0  0  0  0  0  0
  126.3880  135.0380   61.2980 N   0  0  0  0  0  0  0  0  0  0  0  0
  125.0040  134.9850   61.7910 C   0  0  0  0  0  0  0  0  0  0  0  0
  124.1270  136.0020   61.0260 C   0  0  0  0  0  0  0  0  0  0  0  0
  124.7840  137.3760   60.8940 C   0  0  0  0  0  0  0  0  0  0  0  0
  124.0470  138.4910   60.4770 C   0  0  0  0  0  0  0  0  0  0  0  0
  124.6540  139.7340   60.3190 C   0  0  0  0  0  0  0  0  0  0  0  0
  126.0130  139.8780   60.5810 C   0  0  0  0  0  0  0  0  0  0  0  0
  126.7570  138.7790   61.0050 C   0  0  0  0  0  0  0  0  0  0  0  0
  126.1590  137.5240   61.1660 C   0  0  0  0  0  0  0  0  0  0  0  0
  126.9620  136.3320   61.6870 C   0  0  0  0  0  0  0  0  0  0  0  0
  130.0900  132.6310   57.8500 S   0  0  0  0  0  0  0  0  0  0  0  0
  130.1620  131.0410   57.1280 C   0  0  0  0  0  0  0  0  0  0  0  0
  130.9030  130.8240   55.8270 C   0  0  0  0  0  0  0  0  0  0  0  0
  128.2070  127.9830   58.3680 C   0  0  0  0  0  0  0  0  0  0  0  0
  128.0350  126.6130   58.1730 C   0  0  0  0  0  0  0  0  0  0  0  0
  128.8730  125.9230   57.2860 C   0  0  0  0  0  0  0  0  0  0  0  0
  125.7350  123.6410   58.3920 C   0  0  0  0  0  0  0  0  0  0  0  0
  125.0040  123.6270   59.5770 C   0  0  0  0  0  0  0  0  0  0  0  0
  1  2  1  0
  2  3  2  0
  3  4  1  0
  4  5  2  0
  5  6  1  0
  6  7  2  0
  6  8  1  0
  8  9  1  0
  9 10  1  0
 10 11  1  0
 11 12  2  0
 12 13  1  0
 13 14  1  0
 14 15  1  0
 15 16  2  0
 16 17  1  0
 17 18  1  0
 18 19  2  0
 18 20  1  0
 20 21  1  0
 21 22  1  0
 22 23  1  0
 23 24  1  0
 24 25  2  0
 25 26  1  0
 26 27  2  0
 27 28  1  0
 28 29  2  0
 29 30  1  0
 16 31  1  0
 31 32  1  0
 32 33  1  0
 13 34  2  0
 34 35  1  0
 35 36  2  0
  5 37  1  0
 37 38  2  0
 38  2  1  0
 36  8  1  0
 36 11  1  0
 32 14  2  0
 30 21  1  0
 29 24  1  0
M  END
>  <Binding energies>  (45) 
[-11.44]

>  <Ligand effiencies>  (45) 
[-0.29333333333333333]

>  <Interactions>  (45) 
["V-A:TYR:539:CD1:4871, V-A:PRO:540:N:4882, V-A:MET:535:CE:4833, V-A:PRO:540:CA:4881, V-A:TYR:531:CE2:4791, V-A:TYR:539:CE1:4873, V-B:LEU:475:CD2:9230, V-A:TYR:531:CZ:4792, V-A:ALA:541:CB:4890, V-A:TYR:539:C:4865, H-B:TYR:539:N:9842, V-B:TYR:539:CE1:9847, V-B:PRO:540:CA:9855, V-B:ASN:362:CB:8147, V-B:MET:535:CE:9807, V-B:TYR:539:CZ:9849, V-B:PRO:540:N:9856, V-B:PRO:540:CB:9857, V-B:PRO:540:C:9853, V-B:ARG:545:CZ:9898, H-A:TYR:539:O:4866, V-B:SER:385:CB:8380, V-B:PRO:482:CG:9298, V-B:ILE:369:CG2:8208, V-B:LEU:373:CD1:8251, V-B:PRO:482:CB:9297, V-B:SER:385:CA:8378, V-B:TYR:539:CE2:9848, V-B:SER:385:C:8376, V-A:VAL:344:CG1:2998, V-B:HIS:383:CG:8361, V-B:HIS:383:CB:8360, V-B:VAL:384:C:8368, V-B:HIS:383:CD2:8363, V-B:LEU:373:CD2:8252, V-B:LEU:373:CG:8250"]

$$$$
RR21_Rahimova_2017
     RDKit          3D

 40 45  0  0  0  0  0  0  0  0999 V2000
  132.4230  132.9990   56.5130 C   0  0  0  0  0  0  0  0  0  0  0  0
  131.0000  133.0410   56.5740 O   0  0  0  0  0  0  0  0  0  0  0  0
  130.3020  131.8820   56.8580 C   0  0  0  0  0  0  0  0  0  0  0  0
  130.8570  130.7630   57.5020 C   0  0  0  0  0  0  0  0  0  0  0  0
  130.0820  129.6320   57.7540 C   0  0  0  0  0  0  0  0  0  0  0  0
  128.7350  129.5900   57.3740 C   0  0  0  0  0  0  0  0  0  0  0  0
  127.9030  128.3750   57.6510 C   0  0  0  0  0  0  0  0  0  0  0  0
  128.4050  127.1740   57.4360 N   0  0  0  0  0  0  0  0  0  0  0  0
  127.4490  126.2930   57.7680 N   0  0  0  0  0  0  0  0  0  0  0  0
  127.6670  124.8940   57.6750 C   0  0  0  0  0  0  0  0  0  0  0  0
  127.2540  124.1770   56.5410 C   0  0  0  0  0  0  0  0  0  0  0  0
  127.4770  122.8050   56.4600 C   0  0  0  0  0  0  0  0  0  0  0  0
  128.1120  122.1450   57.5090 C   0  0  0  0  0  0  0  0  0  0  0  0
  128.5240  122.8450   58.6410 C   0  0  0  0  0  0  0  0  0  0  0  0
  128.3020  124.2160   58.7260 C   0  0  0  0  0  0  0  0  0  0  0  0
  126.3320  126.9520   58.2160 C   0  0  0  0  0  0  0  0  0  0  0  0
  126.5790  128.3150   58.1420 C   0  0  0  0  0  0  0  0  0  0  0  0
  125.7110  129.4090   58.5500 C   0  0  0  0  0  0  0  0  0  0  0  0
  126.0290  130.5020   59.2810 C   0  0  0  0  0  0  0  0  0  0  0  0
  127.6080  130.9280   59.9780 S   0  0  0  0  0  0  0  0  0  0  0  0
  126.9110  132.4110   60.6150 C   0  0  0  0  0  0  0  0  0  0  0  0
  127.5060  133.3440   61.2910 N   0  0  0  0  0  0  0  0  0  0  0  0
  126.8240  134.5080   61.7400 C   0  0  0  0  0  0  0  0  0  0  0  0
  127.3190  135.4440   62.3670 O   0  0  0  0  0  0  0  0  0  0  0  0
  125.3650  134.5370   61.3730 C   0  0  0  0  0  0  0  0  0  0  0  0
  124.5210  135.7360   61.8220 C   0  0  0  0  0  0  0  0  0  0  0  0
  125.1390  137.0960   61.5040 C   0  0  0  0  0  0  0  0  0  0  0  0
  125.2520  138.0650   62.5040 C   0  0  0  0  0  0  0  0  0  0  0  0
  125.8310  139.2990   62.2170 C   0  0  0  0  0  0  0  0  0  0  0  0
  126.3010  139.5650   60.9300 C   0  0  0  0  0  0  0  0  0  0  0  0
  126.9430  140.9070   60.6250 C   0  0  0  0  0  0  0  0  0  0  0  0
  126.2000  138.5930   59.9310 C   0  0  0  0  0  0  0  0  0  0  0  0
  125.6210  137.3610   60.2180 C   0  0  0  0  0  0  0  0  0  0  0  0
  124.7840  133.5960   60.7030 N   0  0  0  0  0  0  0  0  0  0  0  0
  125.5780  132.5110   60.3130 N   0  0  0  0  0  0  0  0  0  0  0  0
  125.0210  131.5060   59.5930 C   0  0  0  0  0  0  0  0  0  0  0  0
  123.8340  131.4590   59.2480 O   0  0  0  0  0  0  0  0  0  0  0  0
  128.1840  130.7000   56.7280 C   0  0  0  0  0  0  0  0  0  0  0  0
  128.9580  131.8330   56.4740 C   0  0  0  0  0  0  0  0  0  0  0  0
  128.3940  132.8920   55.8470 F   0  0  0  0  0  0  0  0  0  0  0  0
  1  2  1  0
  2  3  1  0
  3  4  2  0
  4  5  1  0
  5  6  2  0
  6  7  1  0
  7  8  2  0
  8  9  1  0
  9 10  1  0
 10 11  2  0
 11 12  1  0
 12 13  2  0
 13 14  1  0
 14 15  2  0
  9 16  1  0
 16 17  2  0
 17 18  1  0
 18 19  2  0
 19 20  1  0
 20 21  1  0
 21 22  2  0
 22 23  1  0
 23 24  2  0
 23 25  1  0
 25 26  1  0
 26 27  1  0
 27 28  2  0
 28 29  1  0
 29 30  2  0
 30 31  1  0
 30 32  1  0
 32 33  2  0
 25 34  2  0
 34 35  1  0
 35 36  1  0
 36 37  2  0
  6 38  1  0
 38 39  2  0
 39 40  1  0
 39  3  1  0
 17  7  1  0
 36 19  1  0
 15 10  1  0
 35 21  1  0
 33 27  1  0
M  END
>  <Binding energies>  (46) 
[-11.19]

>  <Ligand effiencies>  (46) 
[-0.27975]

>  <Interactions>  (46) 
["H-A:TYR:539:N:4868, V-A:TYR:539:CD1:4871, V-A:PRO:540:N:4882, V-A:MET:535:CE:4833, V-A:LEU:363:CD1:3186, V-A:ILE:538:CG2:4861, V-A:PRO:540:CG:4884, V-A:PRO:540:CD:4885, V-A:PRO:540:CA:4881, V-A:TYR:539:CE1:4873, V-B:LEU:475:CD2:9230, V-A:ILE:538:CB:4860, V-A:PRO:540:CB:4883, V-A:ALA:541:CB:4890, V-A:TYR:539:CZ:4875, V-B:TYR:539:CE1:9847, V-B:TYR:539:CD1:9845, V-B:MET:535:CE:9807, V-B:TYR:539:CZ:9849, V-B:PRO:540:N:9856, V-B:TYR:539:C:9839, V-B:TYR:539:CG:9844, V-B:TYR:539:CA:9841, V-B:ASP:366:CB:8183, V-B:ASP:366:CG:8184, V-B:ILE:538:CA:9832, V-A:TYR:539:CD2:4872, V-A:TYR:539:CE2:4874, V-A:TYR:539:CG:4870, H-A:TYR:539:OH:4876, V-A:ILE:538:CA:4858, V-B:SER:385:CB:8380, V-B:PRO:482:CG:9298, V-B:LEU:373:CD1:8251, V-B:PRO:482:CB:9297, V-B:SER:385:CA:8378, V-B:TYR:539:CD2:9846, V-B:SER:385:C:8376, V-A:TYR:539:CB:4869, V-A:VAL:344:CG1:2998, V-B:HIS:383:CG:8361, V-B:LEU:475:CG:9228, V-B:HIS:383:CE1:8365"]

$$$$
RR23_Rahimova_2017
     RDKit          3D

 39 44  0  0  0  0  0  0  0  0999 V2000
  124.1340  123.6580   61.2870 C   0  0  0  0  0  0  0  0  0  0  0  0
  125.1460  123.6150   60.1570 C   0  0  0  0  0  0  0  0  0  0  0  0
  126.5020  123.4470   60.4400 C   0  0  0  0  0  0  0  0  0  0  0  0
  127.4290  123.3990   59.4010 C   0  0  0  0  0  0  0  0  0  0  0  0
  127.0080  123.5300   58.0730 C   0  0  0  0  0  0  0  0  0  0  0  0
  128.0280  123.4540   56.9590 C   0  0  0  0  0  0  0  0  0  0  0  0
  127.9450  122.5070   56.1730 O   0  0  0  0  0  0  0  0  0  0  0  0
  128.9800  124.4280   56.8540 N   0  0  0  0  0  0  0  0  0  0  0  0
  129.9840  124.4110   55.7780 C   0  0  0  0  0  0  0  0  0  0  0  0
  130.7630  125.7100   55.8990 C   0  0  0  0  0  0  0  0  0  0  0  0
  129.8960  126.5360   56.8000 C   0  0  0  0  0  0  0  0  0  0  0  0
  130.0560  127.8630   57.1990 C   0  0  0  0  0  0  0  0  0  0  0  0
  129.2200  128.4150   58.1810 C   0  0  0  0  0  0  0  0  0  0  0  0
  129.3620  129.8710   58.6490 C   0  0  2  0  0  0  0  0  0  0  0  0
  128.5410  130.1550   59.8070 N   0  0  0  0  0  0  0  0  0  0  0  0
  128.1310  131.3590   59.8140 C   0  0  0  0  0  0  0  0  0  0  0  0
  127.3240  131.9650   60.7260 N   0  0  0  0  0  0  0  0  0  0  0  0
  126.6540  131.4050   61.7610 C   0  0  0  0  0  0  0  0  0  0  0  0
  126.6990  130.2150   62.0840 O   0  0  0  0  0  0  0  0  0  0  0  0
  125.7710  132.3640   62.5760 C   0  0  0  0  0  0  0  0  0  0  0  0
  126.0340  133.7540   62.1390 N   0  0  0  0  0  0  0  0  0  0  0  0
  127.3690  134.1360   62.1410 N   0  0  0  0  0  0  0  0  0  0  0  0
  127.7320  135.3260   61.7820 N   0  0  0  0  0  0  0  0  0  0  0  0
  126.7690  136.2540   61.3800 C   0  0  0  0  0  0  0  0  0  0  0  0
  127.1930  137.5300   61.0000 C   0  0  0  0  0  0  0  0  0  0  0  0
  126.2540  138.4790   60.5940 C   0  0  0  0  0  0  0  0  0  0  0  0
  124.8960  138.1570   60.5670 C   0  0  0  0  0  0  0  0  0  0  0  0
  124.4690  136.8830   60.9470 C   0  0  0  0  0  0  0  0  0  0  0  0
  125.4110  135.9300   61.3530 C   0  0  0  0  0  0  0  0  0  0  0  0
  124.9700  134.5470   61.7710 C   0  0  0  0  0  0  0  0  0  0  0  0
  123.7920  134.1790   61.7900 O   0  0  0  0  0  0  0  0  0  0  0  0
  128.6540  132.4010   58.4580 S   0  0  0  0  0  0  0  0  0  0  0  0
  129.1210  130.9220   57.5410 C   0  0  2  0  0  0  0  0  0  0  0  0
  128.0190  130.6020   56.5100 C   0  0  0  0  0  0  0  0  0  0  0  0
  128.2580  127.5970   58.7850 C   0  0  0  0  0  0  0  0  0  0  0  0
  128.1110  126.2630   58.4020 C   0  0  0  0  0  0  0  0  0  0  0  0
  128.8950  125.7430   57.3640 C   0  0  0  0  0  0  0  0  0  0  0  0
  125.6420  123.6700   57.7950 C   0  0  0  0  0  0  0  0  0  0  0  0
  124.7160  123.7180   58.8330 C   0  0  0  0  0  0  0  0  0  0  0  0
  1  2  1  0
  2  3  2  0
  3  4  1  0
  4  5  2  0
  5  6  1  0
  6  7  2  0
  6  8  1  0
  8  9  1  0
  9 10  1  0
 10 11  1  0
 11 12  2  0
 12 13  1  0
 14 13  1  6
 14 15  1  0
 15 16  2  0
 16 17  1  0
 17 18  1  0
 18 19  2  0
 18 20  1  0
 20 21  1  0
 21 22  1  0
 22 23  2  0
 23 24  1  0
 24 25  2  0
 25 26  1  0
 26 27  2  0
 27 28  1  0
 28 29  2  0
 29 30  1  0
 30 31  2  0
 16 32  1  0
 32 33  1  0
 33 34  1  6
 13 35  2  0
 35 36  1  0
 36 37  2  0
  5 38  1  0
 38 39  2  0
 39  2  1  0
 37  8  1  0
 37 11  1  0
 33 14  1  0
 30 21  1  0
 29 24  1  0
M  END
>  <Binding energies>  (47) 
[-10.51]

>  <Ligand effiencies>  (47) 
[-0.26275]

>  <Interactions>  (47) 
["V-A:TYR:539:CD1:4871, V-A:MET:535:CE:4833, V-A:TYR:539:CE1:4873, V-B:LEU:475:CD2:9230, V-A:TYR:539:CZ:4875, V-B:ASN:362:C:8143, H-B:TYR:539:N:9842, V-B:TYR:539:CE1:9847, V-B:PRO:540:CA:9855, V-B:ASN:362:CB:8147, V-B:MET:535:CE:9807, V-B:TYR:539:CZ:9849, V-B:PRO:540:CB:9857, V-B:PRO:540:C:9853, V-B:ASP:366:CG:8184, H-A:TYR:539:O:4866, V-B:SER:385:CB:8380, V-B:PRO:482:CG:9298, V-B:ILE:369:CG2:8208, V-B:LEU:373:CD1:8251, V-B:PRO:482:CB:9297, V-B:SER:385:CA:8378, V-B:TYR:539:CE2:9848, V-A:TYR:539:CB:4869"]

$$$$
RR26_Rahimova_2017
     RDKit          3D

 38 44  0  0  0  0  0  0  0  0999 V2000
  128.6400  130.8540   57.5270 C   0  0  0  0  0  0  0  0  0  0  0  0
  130.0770  131.3070   57.3070 C   0  0  0  0  0  0  0  0  0  0  0  0
  130.2950  132.5540   56.7100 C   0  0  0  0  0  0  0  0  0  0  0  0
  131.5880  133.0360   56.5200 C   0  0  0  0  0  0  0  0  0  0  0  0
  132.6780  132.2780   56.9350 C   0  0  0  0  0  0  0  0  0  0  0  0
  132.4750  131.0350   57.5320 C   0  0  0  0  0  0  0  0  0  0  0  0
  131.1800  130.5290   57.7220 C   0  0  0  0  0  0  0  0  0  0  0  0
  131.0500  129.1750   58.3590 C   0  0  0  0  0  0  0  0  0  0  0  0
  131.0630  128.0510   57.6480 N   0  0  0  0  0  0  0  0  0  0  0  0
  130.9390  127.1420   58.5780 C   0  0  0  0  0  0  0  0  0  0  0  0
  130.8510  125.4200   58.6210 S   0  0  0  0  0  0  0  0  0  0  0  0
  130.7080  125.4950   60.4170 C   0  0  0  0  0  0  0  0  0  0  0  0
  130.5800  124.4630   61.2810 C   0  0  0  0  0  0  0  0  0  0  0  0
  130.5320  123.0420   60.9790 C   0  0  0  0  0  0  0  0  0  0  0  0
  131.4590  122.0650   61.3070 C   0  0  0  0  0  0  0  0  0  0  0  0
  130.9810  120.8610   60.8570 N   0  0  0  0  0  0  0  0  0  0  0  0
  131.5810  119.5800   60.9690 C   0  0  0  0  0  0  0  0  0  0  0  0
  130.8690  118.4980   61.5060 C   0  0  0  0  0  0  0  0  0  0  0  0
  131.4710  117.2470   61.6140 C   0  0  0  0  0  0  0  0  0  0  0  0
  132.7840  117.0730   61.1840 C   0  0  0  0  0  0  0  0  0  0  0  0
  133.5010  118.1390   60.6460 C   0  0  0  0  0  0  0  0  0  0  0  0
  132.9030  119.3910   60.5390 C   0  0  0  0  0  0  0  0  0  0  0  0
  129.7790  121.0230   60.2820 N   0  0  0  0  0  0  0  0  0  0  0  0
  129.5030  122.3110   60.3430 C   0  0  0  0  0  0  0  0  0  0  0  0
  128.2190  122.8260   59.7700 C   0  0  0  0  0  0  0  0  0  0  0  0
  127.3860  123.6600   60.5320 C   0  0  0  0  0  0  0  0  0  0  0  0
  126.1850  124.1420   60.0090 C   0  0  0  0  0  0  0  0  0  0  0  0
  125.8060  123.7920   58.7150 C   0  0  0  0  0  0  0  0  0  0  0  0
  126.6390  122.9740   57.9370 C   0  0  0  0  0  0  0  0  0  0  0  0
  127.8350  122.4890   58.4640 C   0  0  0  0  0  0  0  0  0  0  0  0
  126.2840  122.5660   56.6660 O   0  0  0  0  0  0  0  0  0  0  0  0
  125.2660  123.3670   56.0570 C   0  0  0  0  0  0  0  0  0  0  0  0
  124.1260  123.6550   57.0640 C   0  0  0  0  0  0  0  0  0  0  0  0
  124.6350  124.3300   58.2200 O   0  0  0  0  0  0  0  0  0  0  0  0
  130.7280  126.8660   60.9190 C   0  0  0  0  0  0  0  0  0  0  0  0
  130.6470  127.2700   62.0800 O   0  0  0  0  0  0  0  0  0  0  0  0
  130.8630  127.7010   59.7990 N   0  0  0  0  0  0  0  0  0  0  0  0
  130.9390  129.0290   59.6710 N   0  0  0  0  0  0  0  0  0  0  0  0
  1  2  1  0
  2  3  2  0
  3  4  1  0
  4  5  2  0
  5  6  1  0
  6  7  2  0
  7  8  1  0
  8  9  1  0
  9 10  2  0
 10 11  1  0
 11 12  1  0
 12 13  2  0
 13 14  1  0
 14 15  2  0
 15 16  1  0
 16 17  1  0
 17 18  2  0
 18 19  1  0
 19 20  2  0
 20 21  1  0
 21 22  2  0
 16 23  1  0
 23 24  2  0
 24 25  1  0
 25 26  2  0
 26 27  1  0
 27 28  2  0
 28 29  1  0
 29 30  2  0
 29 31  1  0
 31 32  1  0
 32 33  1  0
 33 34  1  0
 12 35  1  0
 35 36  2  0
 35 37  1  0
 37 38  1  0
  7  2  1  0
 38  8  2  0
 37 10  1  0
 24 14  1  0
 30 25  1  0
 22 17  1  0
 34 28  1  0
M  END
>  <Binding energies>  (48) 
[-9.86]

>  <Ligand effiencies>  (48) 
[-0.2594736842105263]

>  <Interactions>  (48) 
["V-A:PRO:540:N:4882, V-A:LEU:363:CD1:3186, V-A:ILE:538:CG2:4861, V-A:PRO:540:CD:4885, V-A:PRO:540:CA:4881, V-A:TYR:531:CE2:4791, V-A:ILE:538:CB:4860, V-A:PRO:540:CB:4883, V-A:TYR:539:C:4865, H-B:TYR:539:N:9842, V-B:TYR:539:CE1:9847, V-B:TYR:539:CD1:9845, V-B:TYR:531:CE2:9765, V-B:PRO:540:CA:9855, V-B:ILE:538:CB:9834, V-B:LEU:363:CD1:8160, V-B:PRO:540:N:9856, V-B:TYR:539:C:9839, V-B:TYR:531:CZ:9766, V-B:PRO:540:CB:9857, V-B:ILE:538:CG2:9835, V-A:LEU:475:CD2:4256, V-A:LEU:373:CD1:3277, V-A:PRO:482:CB:4323, V-A:PRO:482:CG:4324, V-A:ASP:366:CG:3210, H-A:ARG:545:NH2:4926, V-B:LEU:363:CA:8156, V-A:ILE:369:CG2:3234, H-A:TYR:531:OH:4793, H-B:TYR:531:OH:9767, V-A:ILE:538:CA:4858, V-A:SER:385:CA:3404, V-A:SER:385:CB:3406, V-A:SER:385:C:3402, V-A:ILE:538:C:4856, V-A:VAL:384:C:3394, V-A:LEU:475:CG:4254"]

$$$$
RR2_Rahimova_2017
     RDKit          3D

 46 50  0  0  0  0  0  0  0  0999 V2000
  133.2400  115.8620   59.6100 C   0  0  0  0  0  0  0  0  0  0  0  0
  132.5360  116.3090   60.7630 O   0  0  0  0  0  0  0  0  0  0  0  0
  132.1830  117.6420   60.8620 C   0  0  0  0  0  0  0  0  0  0  0  0
  130.9040  118.0970   61.2120 C   0  0  0  0  0  0  0  0  0  0  0  0
  130.6390  119.4620   61.2840 C   0  0  0  0  0  0  0  0  0  0  0  0
  131.6410  120.4020   61.0050 C   0  0  0  0  0  0  0  0  0  0  0  0
  131.3250  121.8830   61.0830 C   0  0  0  0  0  0  0  0  0  0  0  0
  130.3260  122.2750   61.6960 O   0  0  0  0  0  0  0  0  0  0  0  0
  132.1860  122.7050   60.4390 N   0  0  0  0  0  0  0  0  0  0  0  0
  131.8920  124.0640   60.4010 N   0  0  0  0  0  0  0  0  0  0  0  0
  132.2360  124.7600   59.2990 C   0  0  0  0  0  0  0  0  0  0  0  0
  132.9530  124.3320   58.3900 O   0  0  0  0  0  0  0  0  0  0  0  0
  131.6520  126.1760   59.2030 C   0  0  0  0  0  0  0  0  0  0  0  0
  131.2210  126.7220   57.5100 S   0  0  0  0  0  0  0  0  0  0  0  0
  129.5380  127.2080   57.7440 C   0  0  0  0  0  0  0  0  0  0  0  0
  128.5320  126.6000   57.1680 N   0  0  0  0  0  0  0  0  0  0  0  0
  127.3760  127.2850   57.5130 N   0  0  0  0  0  0  0  0  0  0  0  0
  127.7240  128.2670   58.3110 C   0  0  0  0  0  0  0  0  0  0  0  0
  126.7450  129.2250   58.9100 C   0  0  0  0  0  0  0  0  0  0  0  0
  125.5270  129.4640   58.2690 C   0  0  0  0  0  0  0  0  0  0  0  0
  124.6120  130.3600   58.8150 C   0  0  0  0  0  0  0  0  0  0  0  0
  124.9010  131.0130   60.0190 C   0  0  0  0  0  0  0  0  0  0  0  0
  124.0220  131.9330   60.6100 N   0  0  0  0  0  0  0  0  0  0  0  0
  124.3020  132.7430   62.1670 S   0  0  0  0  0  0  0  0  0  0  0  0
  125.3750  131.9910   62.8270 O   0  0  0  0  0  0  0  0  0  0  0  0
  123.0020  132.9320   62.8220 O   0  0  0  0  0  0  0  0  0  0  0  0
  124.9800  134.3470   61.7450 C   0  0  0  0  0  0  0  0  0  0  0  0
  124.1400  135.4030   61.3850 C   0  0  0  0  0  0  0  0  0  0  0  0
  124.6880  136.6360   61.0460 C   0  0  0  0  0  0  0  0  0  0  0  0
  126.0730  136.8160   61.0720 C   0  0  0  0  0  0  0  0  0  0  0  0
  126.6690  138.1580   60.6870 C   0  0  0  0  0  0  0  0  0  0  0  0
  126.9110  135.7570   61.4280 C   0  0  0  0  0  0  0  0  0  0  0  0
  126.3640  134.5230   61.7670 C   0  0  0  0  0  0  0  0  0  0  0  0
  126.1170  130.7700   60.6590 C   0  0  0  0  0  0  0  0  0  0  0  0
  127.0350  129.8790   60.1110 C   0  0  0  0  0  0  0  0  0  0  0  0
  129.0960  128.2800   58.4980 N   0  0  0  0  0  0  0  0  0  0  0  0
  129.8710  129.1930   59.2430 C   0  0  0  0  0  0  0  0  0  0  0  0
  130.3650  130.3470   58.6330 C   0  0  0  0  0  0  0  0  0  0  0  0
  131.1250  131.2460   59.3760 C   0  0  0  0  0  0  0  0  0  0  0  0
  131.3980  131.0040   60.7220 C   0  0  0  0  0  0  0  0  0  0  0  0
  132.1610  131.9530   61.3750 O   0  0  0  0  0  0  0  0  0  0  0  0
  132.9890  131.5520   62.4620 C   0  0  0  0  0  0  0  0  0  0  0  0
  130.8970  129.8400   61.3270 C   0  0  0  0  0  0  0  0  0  0  0  0
  130.1350  128.9380   60.5910 C   0  0  0  0  0  0  0  0  0  0  0  0
  132.9200  119.9380   60.6610 C   0  0  0  0  0  0  0  0  0  0  0  0
  133.1830  118.5730   60.5920 C   0  0  0  0  0  0  0  0  0  0  0  0
  1  2  1  0
  2  3  1  0
  3  4  2  0
  4  5  1  0
  5  6  2  0
  6  7  1  0
  7  8  2  0
  7  9  1  0
  9 10  1  0
 10 11  1  0
 11 12  2  0
 11 13  1  0
 13 14  1  0
 14 15  1  0
 15 16  2  0
 16 17  1  0
 17 18  2  0
 18 19  1  0
 19 20  2  0
 20 21  1  0
 21 22  2  0
 22 23  1  0
 23 24  1  0
 24 25  2  0
 24 26  2  0
 24 27  1  0
 27 28  2  0
 28 29  1  0
 29 30  2  0
 30 31  1  0
 30 32  1  0
 32 33  2  0
 22 34  1  0
 34 35  2  0
 18 36  1  0
 36 37  1  0
 37 38  2  0
 38 39  1  0
 39 40  2  0
 40 41  1  0
 41 42  1  0
 40 43  1  0
 43 44  2  0
  6 45  1  0
 45 46  2  0
 46  3  1  0
 36 15  1  0
 44 37  1  0
 35 19  1  0
 33 27  1  0
M  END
>  <Binding energies>  (49) 
[-10.65]

>  <Ligand effiencies>  (49) 
[-0.2173469387755102]

>  <Interactions>  (49) 
["V-A:ASN:362:CG:3174, V-A:TYR:539:CD1:4871, V-A:PRO:540:CA:4881, V-A:ALA:541:C:4886, V-A:TYR:539:CE1:4873, V-B:LEU:475:CD2:9230, V-A:ASN:362:CB:3173, V-A:ARG:545:CZ:4924, H-A:ALA:541:N:4889, V-B:TYR:539:CE1:9847, V-B:TYR:539:CD1:9845, V-A:ASP:366:CB:3209, V-A:LEU:475:CD2:4256, V-A:LEU:373:CD1:3277, V-A:PRO:482:CB:4323, V-B:ALA:541:CB:9864, V-A:PRO:482:CG:4324, V-A:ASP:366:CG:3210, V-B:ASP:366:CB:8183, V-B:ASP:366:CG:8184, H-B:TYR:539:OH:9850, V-A:ILE:369:CG2:3234, H-A:TYR:531:OH:4793, H-B:TYR:531:OH:9767, H-B:GLY:454:N:9021, V-B:ILE:369:CD1:8210, V-A:SER:385:CA:3404, V-A:SER:385:CB:3406, V-B:SER:385:CB:8380, V-B:PRO:482:CG:9298, V-B:ILE:369:CG2:8208, V-B:LEU:373:CD1:8251, V-B:SER:385:CA:8378, V-B:ASP:366:CA:8181, V-B:ILE:369:CB:8207, V-B:SER:385:C:8376, V-A:TYR:539:CB:4869, V-A:VAL:344:CG1:2998, V-A:HIS:383:CG:3387, V-A:HIS:383:CB:3386, V-A:LEU:373:CD2:3278"]

$$$$
RR33_Rahimova_2017
     RDKit          3D

 18 19  0  0  0  0  0  0  0  0999 V2000
  129.4100  112.7390   60.6740 C   0  0  0  0  0  0  0  0  0  0  0  0
  130.7150  112.7500   61.4760 C   0  0  0  0  0  0  0  0  0  0  0  0
  131.6970  113.4770   60.7430 O   0  0  0  0  0  0  0  0  0  0  0  0
  131.6520  114.8580   60.7330 C   0  0  0  0  0  0  0  0  0  0  0  0
  132.3530  115.5100   61.7460 C   0  0  0  0  0  0  0  0  0  0  0  0
  132.3630  116.9000   61.8200 C   0  0  0  0  0  0  0  0  0  0  0  0
  131.6670  117.6610   60.8760 C   0  0  0  0  0  0  0  0  0  0  0  0
  131.6770  119.1540   60.9560 C   0  0  0  0  0  0  0  0  0  0  0  0
  130.6410  119.9620   61.0110 N   0  0  0  0  0  0  0  0  0  0  0  0
  131.1520  121.1820   61.0730 C   0  0  0  0  0  0  0  0  0  0  0  0
  130.2540  122.3970   61.1600 C   0  0  0  0  0  0  0  0  0  0  0  0
  128.9530  122.1180   60.5720 N   0  0  0  0  0  0  0  0  0  0  0  0
  127.9110  122.8710   61.2500 C   0  0  0  0  0  0  0  0  0  0  0  0
  132.5390  121.1080   61.0540 C   0  0  0  0  0  0  0  0  0  0  0  0
  133.6680  122.1090   61.1030 C   0  0  0  0  0  0  0  0  0  0  0  0
  132.8720  119.7990   60.9780 O   0  0  0  0  0  0  0  0  0  0  0  0
  130.9650  117.0120   59.8560 C   0  0  0  0  0  0  0  0  0  0  0  0
  130.9550  115.6200   59.7830 C   0  0  0  0  0  0  0  0  0  0  0  0
  1  2  1  0
  2  3  1  0
  3  4  1  0
  4  5  2  0
  5  6  1  0
  6  7  2  0
  7  8  1  0
  8  9  2  0
  9 10  1  0
 10 11  1  0
 11 12  1  0
 12 13  1  0
 10 14  2  0
 14 15  1  0
 14 16  1  0
  7 17  1  0
 17 18  2  0
 18  4  1  0
 16  8  1  0
M  END
>  <Binding energies>  (50) 
[-6.48]

>  <Ligand effiencies>  (50) 
[-0.3410526315789474]

>  <Interactions>  (50) 
["V-B:TYR:539:CE1:9847, V-B:TYR:539:CD1:9845, V-B:PRO:540:CA:9855, V-A:LEU:475:CD2:4256, V-B:TYR:539:CG:9844, V-B:PRO:540:C:9853, V-A:PRO:482:CB:4323, V-B:ALA:541:CB:9864, V-A:PRO:482:CG:4324, H-B:ALA:541:N:9863, V-A:ILE:369:CD1:3236, V-A:ILE:369:CG2:3234, H-B:TYR:539:O:9840, V-A:SER:385:CA:3404, V-A:SER:385:CB:3406, V-B:VAL:344:CG1:7972, V-B:TYR:539:CB:9843, V-A:HIS:383:CG:3387, V-A:HIS:383:CE1:3391, V-A:THR:477:C:4265, V-A:THR:477:CA:4267, H-A:HIS:383:ND1:3388, V-A:LEU:475:CG:4254, V-A:PRO:482:CD:4325"]

$$$$
RR3_Rahimova_2017
     RDKit          3D

 38 44  0  0  0  0  0  0  0  0999 V2000
  123.8760  123.8590   56.5280 C   0  0  0  0  0  0  0  0  0  0  0  0
  123.5600  123.9800   57.8770 C   0  0  0  0  0  0  0  0  0  0  0  0
  124.5730  123.9270   58.8310 C   0  0  0  0  0  0  0  0  0  0  0  0
  125.9120  123.7560   58.4490 C   0  0  0  0  0  0  0  0  0  0  0  0
  127.0000  123.7010   59.4760 C   0  0  0  0  0  0  0  0  0  0  0  0
  126.9580  124.5160   60.6150 C   0  0  0  0  0  0  0  0  0  0  0  0
  127.9720  124.4670   61.5680 C   0  0  0  0  0  0  0  0  0  0  0  0
  129.0590  123.6060   61.3970 C   0  0  0  0  0  0  0  0  0  0  0  0
  130.1560  123.5530   62.4140 C   0  0  0  0  0  0  0  0  0  0  0  0
  130.3230  124.5600   63.2650 N   0  0  0  0  0  0  0  0  0  0  0  0
  131.3130  124.2220   64.0550 C   0  0  0  0  0  0  0  0  0  0  0  0
  131.8370  125.0410   65.1450 C   0  0  0  0  0  0  0  0  0  0  0  0
  133.1680  125.1520   65.5080 C   0  0  0  0  0  0  0  0  0  0  0  0
  133.3000  126.0120   66.5670 N   0  0  0  0  0  0  0  0  0  0  0  0
  132.0640  126.4930   66.9370 C   0  0  0  0  0  0  0  0  0  0  0  0
  131.6960  127.3850   67.9500 C   0  0  0  0  0  0  0  0  0  0  0  0
  130.3390  127.6780   68.0740 C   0  0  0  0  0  0  0  0  0  0  0  0
  129.3860  127.1120   67.2340 C   0  0  0  0  0  0  0  0  0  0  0  0
  129.7510  126.2240   66.2240 C   0  0  0  0  0  0  0  0  0  0  0  0
  131.1090  125.8950   66.0550 C   0  0  0  0  0  0  0  0  0  0  0  0
  131.8070  122.9910   63.7220 N   0  0  0  0  0  0  0  0  0  0  0  0
  131.0950  122.5330   62.6440 C   0  0  0  0  0  0  0  0  0  0  0  0
  131.3960  121.2370   61.9650 C   0  0  0  0  0  0  0  0  0  0  0  0
  130.4060  120.2610   61.8480 C   0  0  0  0  0  0  0  0  0  0  0  0
  130.6860  119.0480   61.2270 C   0  0  0  0  0  0  0  0  0  0  0  0
  131.9610  118.7830   60.7050 C   0  0  0  0  0  0  0  0  0  0  0  0
  132.2640  117.4700   60.0560 C   0  0  0  0  0  0  0  0  0  0  0  0
  131.3150  116.8330   59.2410 C   0  0  0  0  0  0  0  0  0  0  0  0
  131.6000  115.6130   58.6330 C   0  0  0  0  0  0  0  0  0  0  0  0
  132.8400  115.0150   58.8330 C   0  0  0  0  0  0  0  0  0  0  0  0
  133.7960  115.6290   59.6350 C   0  0  0  0  0  0  0  0  0  0  0  0
  133.5080  116.8480   60.2430 C   0  0  0  0  0  0  0  0  0  0  0  0
  132.9420  119.7790   60.8140 C   0  0  0  0  0  0  0  0  0  0  0  0
  132.6640  120.9930   61.4340 C   0  0  0  0  0  0  0  0  0  0  0  0
  129.1040  122.7810   60.2720 C   0  0  0  0  0  0  0  0  0  0  0  0
  128.0890  122.8320   59.3210 C   0  0  0  0  0  0  0  0  0  0  0  0
  126.2070  123.6360   57.0830 C   0  0  0  0  0  0  0  0  0  0  0  0
  125.1970  123.6880   56.1270 C   0  0  0  0  0  0  0  0  0  0  0  0
  1  2  2  0
  2  3  1  0
  3  4  2  0
  4  5  1  0
  5  6  2  0
  6  7  1  0
  7  8  2  0
  8  9  1  0
  9 10  1  0
 10 11  2  0
 11 12  1  0
 12 13  2  0
 13 14  1  0
 14 15  1  0
 15 16  2  0
 16 17  1  0
 17 18  2  0
 18 19  1  0
 19 20  2  0
 11 21  1  0
 21 22  1  0
 22 23  1  0
 23 24  2  0
 24 25  1  0
 25 26  2  0
 26 27  1  0
 27 28  2  0
 28 29  1  0
 29 30  2  0
 30 31  1  0
 31 32  2  0
 26 33  1  0
 33 34  2  0
  8 35  1  0
 35 36  2  0
  4 37  1  0
 37 38  2  0
 38  1  1  0
 36  5  1  0
 22  9  2  0
 34 23  1  0
 20 12  1  0
 32 27  1  0
 20 15  1  0
M  END
>  <Binding energies>  (51) 
[-9.54]

>  <Ligand effiencies>  (51) 
[-0.2385]

>  <Interactions>  (51) 
["V-A:GLU:543:CD:4906, V-A:ARG:545:CZ:4924, V-B:TYR:539:CE1:9847, V-B:TYR:539:CD1:9845, V-B:TYR:531:CE2:9765, V-B:PRO:540:CA:9855, V-B:ILE:538:CB:9834, V-B:LEU:363:CD1:8160, V-B:PRO:540:N:9856, V-B:TYR:539:C:9839, V-B:GLU:543:CD:9880, V-B:TYR:531:CZ:9766, V-B:PRO:540:CB:9857, V-B:ILE:538:CG2:9835, V-A:LEU:475:CD2:4256, V-B:TYR:539:CG:9844, V-A:LEU:373:CD1:3277, V-A:PRO:482:CB:4323, V-B:ALA:541:CB:9864, V-A:PRO:482:CG:4324, V-B:LEU:363:CB:8158, V-B:LEU:363:CA:8156, V-A:GLY:454:CA:4046, V-B:ASP:366:CB:8183, V-A:HIS:456:CE1:4066, V-B:GLU:543:CG:9879, V-B:ASP:366:CG:8184, V-A:TYR:484:CZ:4344, V-B:GLU:543:CB:9878, V-A:ILE:369:CG2:3234, V-A:ARG:545:CG:4920, V-A:ARG:545:CD:4921, H-A:TYR:484:OH:4345, V-A:SER:385:CA:3404, V-A:SER:385:CB:3406, V-B:VAL:344:CG1:7972, V-B:TYR:539:CB:9843, V-A:HIS:383:CG:3387, V-A:HIS:383:CB:3386, V-A:HIS:383:CD2:3389, V-B:ILE:343:CD1:7965, V-A:LEU:373:CD2:3278, V-A:HIS:383:CE1:3391, V-A:GLU:543:CB:4904, V-A:GLU:543:CG:4905, V-A:VAL:384:C:3394, V-A:ARG:545:CB:4919, V-A:HIS:383:CA:3384, V-A:HIS:383:C:3382, V-B:TYR:531:CD2:9763, H-A:HIS:456:ND1:4064, H-A:ILE:455:O:4050"]

$$$$
RR4_Rahimova_2017
     RDKit          3D

 40 44  0  0  0  0  0  0  0  0999 V2000
  123.7150  130.8410   59.8350 C   0  0  0  0  0  0  0  0  0  0  0  0
  124.6460  130.9090   58.7610 O   0  0  0  0  0  0  0  0  0  0  0  0
  125.6840  129.9980   58.7110 C   0  0  0  0  0  0  0  0  0  0  0  0
  126.8670  130.3610   59.3490 C   0  0  0  0  0  0  0  0  0  0  0  0
  127.9650  129.5060   59.3510 C   0  0  0  0  0  0  0  0  0  0  0  0
  127.9120  128.2600   58.7100 C   0  0  0  0  0  0  0  0  0  0  0  0
  129.0990  127.3390   58.7130 C   0  0  0  0  0  0  0  0  0  0  0  0
  129.8020  127.0130   59.8780 C   0  0  0  0  0  0  0  0  0  0  0  0
  130.9010  126.1450   59.8290 C   0  0  0  0  0  0  0  0  0  0  0  0
  131.5840  125.8200   61.1170 C   0  0  0  0  0  0  0  0  0  0  0  0
  131.0170  126.2150   62.3320 C   0  0  0  0  0  0  0  0  0  0  0  0
  131.6410  125.9060   63.5380 C   0  0  0  0  0  0  0  0  0  0  0  0
  132.8390  125.1920   63.5530 C   0  0  0  0  0  0  0  0  0  0  0  0
  133.3850  124.9310   64.7950 O   0  0  0  0  0  0  0  0  0  0  0  0
  132.7720  125.4860   65.9540 C   0  0  0  0  0  0  0  0  0  0  0  0
  133.4090  124.7890   62.3360 C   0  0  0  0  0  0  0  0  0  0  0  0
  132.7830  125.0990   61.1320 C   0  0  0  0  0  0  0  0  0  0  0  0
  131.3000  125.6320   58.5710 C   0  0  0  0  0  0  0  0  0  0  0  0
  132.4420  124.7190   58.4630 C   0  0  0  0  0  0  0  0  0  0  0  0
  133.3440  123.9990   58.3780 N   0  0  0  0  0  0  0  0  0  0  0  0
  130.5630  126.0270   57.4310 C   0  0  0  0  0  0  0  0  0  0  0  0
  130.9290  125.4910   55.7730 S   0  0  0  0  0  0  0  0  0  0  0  0
  130.1340  123.8680   55.5250 C   0  0  0  0  0  0  0  0  0  0  0  0
  128.7510  123.7290   56.1760 C   0  0  0  0  0  0  0  0  0  0  0  0
  127.7500  123.5290   55.4840 O   0  0  0  0  0  0  0  0  0  0  0  0
  128.7440  123.8600   57.5230 N   0  0  0  0  0  0  0  0  0  0  0  0
  127.6570  123.7830   58.3980 C   0  0  0  0  0  0  0  0  0  0  0  0
  126.0000  123.8800   57.8620 S   0  0  0  0  0  0  0  0  0  0  0  0
  125.4070  123.7150   59.4860 C   0  0  0  0  0  0  0  0  0  0  0  0
  126.4570  123.5940   60.4090 C   0  0  0  0  0  0  0  0  0  0  0  0
  127.7300  123.6170   59.7890 C   0  0  0  0  0  0  0  0  0  0  0  0
  128.9850  123.4880   60.5240 C   0  0  0  0  0  0  0  0  0  0  0  0
  129.9790  123.3870   61.1070 N   0  0  0  0  0  0  0  0  0  0  0  0
  126.1910  123.3970   61.9070 C   0  0  0  0  0  0  0  0  0  0  0  0
  124.7270  122.9650   62.1480 C   0  0  0  0  0  0  0  0  0  0  0  0
  123.7300  123.8150   61.3410 C   0  0  0  0  0  0  0  0  0  0  0  0
  123.9220  123.6440   59.8190 C   0  0  0  0  0  0  0  0  0  0  0  0
  129.4850  126.8410   57.5110 N   0  0  0  0  0  0  0  0  0  0  0  0
  126.7140  127.9000   58.0730 C   0  0  0  0  0  0  0  0  0  0  0  0
  125.6150  128.7540   58.0690 C   0  0  0  0  0  0  0  0  0  0  0  0
  1  2  1  0
  2  3  1  0
  3  4  2  0
  4  5  1  0
  5  6  2  0
  6  7  1  0
  7  8  2  0
  8  9  1  0
  9 10  1  0
 10 11  2  0
 11 12  1  0
 12 13  2  0
 13 14  1  0
 14 15  1  0
 13 16  1  0
 16 17  2  0
  9 18  2  0
 18 19  1  0
 19 20  3  0
 18 21  1  0
 21 22  1  0
 22 23  1  0
 23 24  1  0
 24 25  2  0
 24 26  1  0
 26 27  1  0
 27 28  1  0
 28 29  1  0
 29 30  2  0
 30 31  1  0
 31 32  1  0
 32 33  3  0
 30 34  1  0
 34 35  1  0
 35 36  1  0
 36 37  1  0
 21 38  2  0
  6 39  1  0
 39 40  2  0
 40  3  1  0
 38  7  1  0
 17 10  1  0
 31 27  2  0
 37 29  1  0
M  END
>  <Binding energies>  (52) 
[-9.42]

>  <Ligand effiencies>  (52) 
[-0.22975609756097562]

>  <Interactions>  (52) 
["V-A:TYR:539:CE1:4873, V-A:ARG:545:CZ:4924, V-B:ASN:362:C:8143, V-B:TYR:539:CE1:9847, V-A:ASP:366:CB:3209, V-B:PRO:540:CA:9855, V-B:ASN:362:CB:8147, V-B:MET:535:CE:9807, V-B:TYR:539:CZ:9849, V-B:PRO:540:CB:9857, V-B:PRO:540:C:9853, V-A:ASP:366:CG:3210, V-B:LEU:363:CA:8156, V-B:ASP:366:CB:8183, V-A:HIS:456:CE1:4066, V-B:ASP:366:CG:8184, V-A:TYR:484:CZ:4344, H-B:TYR:539:OH:9850, H-A:TYR:531:OH:4793, V-B:ALA:541:CA:9862, V-A:ARG:545:CG:4920, V-A:ARG:545:CD:4921, H-A:GLY:454:N:4047, H-A:ARG:545:NE:4922, H-A:TYR:484:OH:4345, H-A:TYR:539:OH:4876, V-B:ILE:369:CD1:8210, V-B:ILE:369:CG2:8208, V-B:TYR:539:CE2:9848, V-B:ASP:366:CA:8181, V-B:ILE:369:CB:8207, H-A:ASN:370:ND2:3245, V-B:ASN:362:CA:8145, V-B:ALA:541:C:9860"]

$$$$
RR6_Rahimova_2017
     RDKit          3D

 38 41  0  0  0  0  0  0  0  0999 V2000
  128.3200  122.6550   57.3990 C   0  0  0  0  0  0  0  0  0  0  0  0
  127.0370  122.4410   56.8280 O   0  0  0  0  0  0  0  0  0  0  0  0
  125.9280  123.0090   57.3670 C   0  0  0  0  0  0  0  0  0  0  0  0
  124.7780  122.7060   57.0320 O   0  0  0  0  0  0  0  0  0  0  0  0
  126.2380  124.0420   58.4110 C   0  0  0  0  0  0  0  0  0  0  0  0
  126.2670  123.7310   59.7790 C   0  0  0  0  0  0  0  0  0  0  0  0
  126.5510  124.7150   60.7240 C   0  0  0  0  0  0  0  0  0  0  0  0
  126.8060  126.0320   60.3150 C   0  0  0  0  0  0  0  0  0  0  0  0
  127.0750  127.1050   61.1850 N   0  0  0  0  0  0  0  0  0  0  0  0
  128.1320  127.3000   62.0030 C   0  0  0  0  0  0  0  0  0  0  0  0
  129.0920  126.5380   62.1230 O   0  0  0  0  0  0  0  0  0  0  0  0
  128.0650  128.5530   62.8830 C   0  0  0  0  0  0  0  0  0  0  0  0
  126.5880  129.5800   62.5860 S   0  0  0  0  0  0  0  0  0  0  0  0
  127.1620  131.1170   61.8920 C   0  0  0  0  0  0  0  0  0  0  0  0
  128.3370  131.0230   61.2250 N   0  0  0  0  0  0  0  0  0  0  0  0
  128.8610  132.1220   60.6280 C   0  0  0  0  0  0  0  0  0  0  0  0
  130.1330  131.9200   59.8570 C   0  0  0  0  0  0  0  0  0  0  0  0
  130.1380  131.9370   58.4540 C   0  0  0  0  0  0  0  0  0  0  0  0
  131.3160  131.7370   57.7390 C   0  0  0  0  0  0  0  0  0  0  0  0
  132.5150  131.5200   58.4160 C   0  0  0  0  0  0  0  0  0  0  0  0
  133.7950  131.2930   57.6330 C   0  0  0  0  0  0  0  0  0  0  0  0
  132.5320  131.5020   59.8090 C   0  0  0  0  0  0  0  0  0  0  0  0
  131.3520  131.7040   60.5180 C   0  0  0  0  0  0  0  0  0  0  0  0
  128.2090  133.3570   60.7040 C   0  0  0  0  0  0  0  0  0  0  0  0
  126.9940  133.4810   61.3920 C   0  0  0  0  0  0  0  0  0  0  0  0
  126.3420  134.8240   61.4180 C   0  0  0  0  0  0  0  0  0  0  0  0
  124.9650  134.9410   61.2050 C   0  0  0  0  0  0  0  0  0  0  0  0
  124.3470  136.1880   61.2430 C   0  0  0  0  0  0  0  0  0  0  0  0
  125.0890  137.3390   61.5000 C   0  0  0  0  0  0  0  0  0  0  0  0
  124.3920  138.5320   61.5210 O   0  0  0  0  0  0  0  0  0  0  0  0
  124.8000  139.5890   60.6600 C   0  0  0  0  0  0  0  0  0  0  0  0
  126.4710  137.2270   61.7200 C   0  0  0  0  0  0  0  0  0  0  0  0
  127.0860  135.9780   61.6820 C   0  0  0  0  0  0  0  0  0  0  0  0
  126.4520  132.3280   62.0130 C   0  0  0  0  0  0  0  0  0  0  0  0
  125.2000  132.3940   62.7740 C   0  0  0  0  0  0  0  0  0  0  0  0
  124.2110  132.4450   63.3720 N   0  0  0  0  0  0  0  0  0  0  0  0
  126.7950  126.3410   58.9540 C   0  0  0  0  0  0  0  0  0  0  0  0
  126.5080  125.3570   58.0110 C   0  0  0  0  0  0  0  0  0  0  0  0
  1  2  1  0
  2  3  1  0
  3  4  2  0
  3  5  1  0
  5  6  2  0
  6  7  1  0
  7  8  2  0
  8  9  1  0
  9 10  1  0
 10 11  2  0
 10 12  1  0
 12 13  1  0
 13 14  1  0
 14 15  2  0
 15 16  1  0
 16 17  1  0
 17 18  2  0
 18 19  1  0
 19 20  2  0
 20 21  1  0
 20 22  1  0
 22 23  2  0
 16 24  2  0
 24 25  1  0
 25 26  1  0
 26 27  2  0
 27 28  1  0
 28 29  2  0
 29 30  1  0
 30 31  1  0
 29 32  1  0
 32 33  2  0
 25 34  2  0
 34 35  1  0
 35 36  3  0
  8 37  1  0
 37 38  2  0
 38  5  1  0
 34 14  1  0
 23 17  1  0
 33 26  1  0
M  END
>  <Binding energies>  (53) 
[-10.24]

>  <Ligand effiencies>  (53) 
[-0.26256410256410256]

>  <Interactions>  (53) 
["V-A:TYR:539:CD1:4871, V-A:PRO:540:N:4882, V-A:LEU:363:CD1:3186, V-A:PRO:540:CA:4881, V-A:TYR:531:CE2:4791, V-A:TYR:539:CE1:4873, V-A:GLU:543:CD:4906, V-B:LEU:475:CD2:9230, V-A:PRO:540:CB:4883, V-A:ALA:541:CB:4890, V-A:TYR:539:C:4865, H-B:TYR:539:N:9842, V-B:TYR:539:CE1:9847, V-B:TYR:539:CD1:9845, V-A:ASP:366:CB:3209, V-B:PRO:540:CA:9855, V-B:TYR:539:CZ:9849, V-B:PRO:540:N:9856, V-B:TYR:539:C:9839, V-B:PRO:540:CD:9859, V-B:PRO:540:CB:9857, V-B:TYR:539:CG:9844, H-B:ARG:545:NH2:9900, V-A:PRO:540:C:4879, V-A:ASP:366:CG:3210, V-B:ASP:366:CG:8184, H-B:GLY:454:N:9021, H-B:ASP:366:OD1:8185, H-B:ASP:366:OD2:8186, V-B:SER:385:CB:8380, V-B:PRO:482:CG:9298, V-B:ILE:369:CG2:8208, V-B:LEU:373:CD1:8251, V-B:PRO:482:CB:9297, V-B:SER:385:CA:8378, V-A:LEU:363:CA:3182, V-A:LEU:363:CB:3184, V-B:HIS:383:CG:8361, V-B:HIS:383:CB:8360"]

$$$$
RR7_Rahimova_2017
     RDKit          3D

 47 53  0  0  0  0  0  0  0  0999 V2000
  134.0190  124.2410   59.3930 C   0  0  0  0  0  0  0  0  0  0  0  0
  133.1960  124.3790   58.2390 O   0  0  0  0  0  0  0  0  0  0  0  0
  131.8640  124.7090   58.3980 C   0  0  0  0  0  0  0  0  0  0  0  0
  131.1970  125.1710   57.2650 C   0  0  0  0  0  0  0  0  0  0  0  0
  129.8530  125.5230   57.3270 C   0  0  0  0  0  0  0  0  0  0  0  0
  129.1420  125.4310   58.5330 C   0  0  0  0  0  0  0  0  0  0  0  0
  127.6260  125.7880   58.6250 C   0  0  0  0  0  0  0  0  0  0  0  0
  127.2780  125.7290   60.0260 O   0  0  0  0  0  0  0  0  0  0  0  0
  127.1790  126.9350   60.7910 C   0  0  0  0  0  0  0  0  0  0  0  0
  128.5760  127.3150   61.3090 C   0  0  1  0  0  0  0  0  0  0  0  0
  128.8030  128.6700   60.9290 O   0  0  0  0  0  0  0  0  0  0  0  0
  129.0430  129.4900   62.0350 C   0  0  1  0  0  0  0  0  0  0  0  0
  128.5190  130.8210   61.7930 N   0  0  0  0  0  0  0  0  0  0  0  0
  129.2270  131.9840   61.5460 C   0  0  0  0  0  0  0  0  0  0  0  0
  128.5000  133.0650   61.4070 N   0  0  0  0  0  0  0  0  0  0  0  0
  127.2200  132.6270   61.6170 C   0  0  0  0  0  0  0  0  0  0  0  0
  125.9820  133.2980   61.6210 C   0  0  0  0  0  0  0  0  0  0  0  0
  125.9630  134.6810   61.3570 N   0  0  0  0  0  0  0  0  0  0  0  0
  124.9170  135.5400   61.3870 C   0  0  0  0  0  0  0  0  0  0  0  0
  123.7570  135.2130   61.6490 O   0  0  0  0  0  0  0  0  0  0  0  0
  125.2400  136.9780   61.0400 C   0  0  0  0  0  0  0  0  0  0  0  0
  124.2090  137.9290   60.9940 C   0  0  0  0  0  0  0  0  0  0  0  0
  124.4840  139.2570   60.6820 C   0  0  0  0  0  0  0  0  0  0  0  0
  125.7930  139.6470   60.4180 C   0  0  0  0  0  0  0  0  0  0  0  0
  126.8310  138.7200   60.4620 C   0  0  0  0  0  0  0  0  0  0  0  0
  126.5570  137.3900   60.7730 C   0  0  0  0  0  0  0  0  0  0  0  0
  124.8410  132.5930   61.8840 N   0  0  0  0  0  0  0  0  0  0  0  0
  124.9610  131.2630   62.1330 C   0  0  0  0  0  0  0  0  0  0  0  0
  126.0980  130.5180   62.1500 N   0  0  0  0  0  0  0  0  0  0  0  0
  127.1990  131.2330   61.8820 C   0  0  0  0  0  0  0  0  0  0  0  0
  128.4220  128.7600   63.2200 C   0  0  0  0  0  0  0  0  0  0  0  0
  128.7230  127.3210   62.8380 C   0  0  2  0  0  0  0  0  0  0  0  0
  130.0150  126.9180   63.2590 O   0  0  0  0  0  0  0  0  0  0  0  0
  127.3290  127.2330   58.1440 C   0  0  0  0  0  0  0  0  0  0  0  0
  126.0050  127.6970   58.0680 C   0  0  0  0  0  0  0  0  0  0  0  0
  125.7270  128.9850   57.6260 C   0  0  0  0  0  0  0  0  0  0  0  0
  126.7700  129.8270   57.2530 C   0  0  0  0  0  0  0  0  0  0  0  0
  128.0890  129.3880   57.3200 C   0  0  0  0  0  0  0  0  0  0  0  0
  128.3680  128.0980   57.7610 C   0  0  0  0  0  0  0  0  0  0  0  0
  126.6650  124.8720   57.8130 C   0  0  0  0  0  0  0  0  0  0  0  0
  126.9520  124.5480   56.4780 C   0  0  0  0  0  0  0  0  0  0  0  0
  126.0950  123.7380   55.7410 C   0  0  0  0  0  0  0  0  0  0  0  0
  124.9320  123.2490   56.3300 C   0  0  0  0  0  0  0  0  0  0  0  0
  124.6210  123.5690   57.6480 C   0  0  0  0  0  0  0  0  0  0  0  0
  125.4800  124.3790   58.3830 C   0  0  0  0  0  0  0  0  0  0  0  0
  129.8140  124.9520   59.6670 C   0  0  0  0  0  0  0  0  0  0  0  0
  131.1590  124.5990   59.6050 C   0  0  0  0  0  0  0  0  0  0  0  0
  1  2  1  0
  2  3  1  0
  3  4  2  0
  4  5  1  0
  5  6  2  0
  6  7  1  0
  7  8  1  0
  8  9  1  0
 10  9  1  1
 10 11  1  0
 11 12  1  0
 12 13  1  6
 13 14  1  0
 14 15  2  0
 15 16  1  0
 16 17  2  0
 17 18  1  0
 18 19  1  0
 19 20  2  0
 19 21  1  0
 21 22  2  0
 22 23  1  0
 23 24  2  0
 24 25  1  0
 25 26  2  0
 17 27  1  0
 27 28  2  0
 28 29  1  0
 29 30  2  0
 12 31  1  0
 31 32  1  0
 32 33  1  6
  7 34  1  0
 34 35  2  0
 35 36  1  0
 36 37  2  0
 37 38  1  0
 38 39  2  0
  7 40  1  0
 40 41  2  0
 41 42  1  0
 42 43  2  0
 43 44  1  0
 44 45  2  0
  6 46  1  0
 46 47  2  0
 47  3  1  0
 32 10  1  0
 39 34  1  0
 45 40  1  0
 30 13  1  0
 30 16  1  0
 26 21  1  0
M  END
>  <Binding energies>  (54) 
[-10.9]

>  <Ligand effiencies>  (54) 
[-0.22244897959183674]

>  <Interactions>  (54) 
["V-A:TYR:539:CD1:4871, V-A:MET:535:CE:4833, V-A:TYR:539:CE1:4873, V-A:GLU:543:CD:4906, V-B:LEU:475:CD2:9230, H-A:ALA:541:N:4889, V-A:ALA:541:CB:4890, V-B:TYR:539:CE1:9847, V-B:TYR:531:CE2:9765, V-A:ASP:366:CB:3209, V-B:ILE:538:CB:9834, V-B:MET:535:CE:9807, V-B:TYR:539:CZ:9849, V-B:LEU:363:CD1:8160, V-B:GLU:543:CD:9880, V-B:TYR:531:CZ:9766, V-B:PRO:540:CB:9857, V-B:ILE:538:CG2:9835, H-B:GLU:543:OE2:9882, H-A:GLU:543:OE2:4908, H-A:GLU:543:OE1:4907, V-A:ASP:366:CG:3210, H-A:ARG:545:NH2:4926, V-B:ASP:366:CB:8183, V-A:ILE:369:CB:3233, V-A:ASP:366:CA:3207, V-B:ASP:366:CG:8184, V-A:ILE:369:CD1:3236, H-B:TYR:539:OH:9850, V-A:ILE:369:CG2:3234, V-A:TYR:539:CG:4870, H-A:TYR:539:O:4866, V-B:SER:385:CB:8380, V-B:PRO:482:CG:9298, V-B:ILE:369:CG2:8208, V-B:LEU:373:CD1:8251, V-B:SER:385:CA:8378, V-A:TYR:539:CB:4869, V-A:VAL:344:CG1:2998, V-B:HIS:383:CG:8361, V-B:HIS:383:CB:8360, V-B:VAL:384:C:8368, V-B:LEU:373:CD2:8252"]

$$$$
RR8_A_Rahimova_2017
     RDKit          3D

 42 46  0  0  0  0  0  0  0  0999 V2000
  124.2280  132.4610   63.6430 O   0  0  0  0  0  0  0  0  0  0  0  0
  125.0630  131.5810   63.4070 C   0  0  0  0  0  0  0  0  0  0  0  0
  125.5480  131.2900   62.1590 O   0  0  0  0  0  0  0  0  0  0  0  0
  126.1580  132.3280   61.4430 C   0  0  1  0  0  0  0  0  0  0  0  0
  126.2630  133.4920   62.2110 O   0  0  0  0  0  0  0  0  0  0  0  0
  127.4910  134.1750   61.9720 C   0  0  2  0  0  0  0  0  0  0  0  0
  127.1740  135.6200   61.5480 C   0  0  0  0  0  0  0  0  0  0  0  0
  125.7870  135.8600   61.7410 O   0  0  0  0  0  0  0  0  0  0  0  0
  125.1820  136.6210   60.7030 C   0  0  0  0  0  0  0  0  0  0  0  0
  125.5270  138.0930   60.8750 C   0  0  0  0  0  0  0  0  0  0  0  0
  126.0610  138.8130   59.8030 C   0  0  0  0  0  0  0  0  0  0  0  0
  126.3720  140.1620   59.9560 C   0  0  0  0  0  0  0  0  0  0  0  0
  126.1440  140.7890   61.1790 C   0  0  0  0  0  0  0  0  0  0  0  0
  125.6070  140.0800   62.2510 C   0  0  0  0  0  0  0  0  0  0  0  0
  125.2950  138.7310   62.0980 C   0  0  0  0  0  0  0  0  0  0  0  0
  128.1870  133.3130   60.9100 C   0  0  1  0  0  0  0  0  0  0  0  0
  129.5950  133.2080   61.1090 O   0  0  0  0  0  0  0  0  0  0  0  0
  130.1800  131.9650   60.7380 C   0  0  0  0  0  0  0  0  0  0  0  0
  130.6160  132.0100   59.2800 C   0  0  0  0  0  0  0  0  0  0  0  0
  131.8800  131.5330   58.9190 C   0  0  0  0  0  0  0  0  0  0  0  0
  132.2890  131.5800   57.5900 C   0  0  0  0  0  0  0  0  0  0  0  0
  131.4350  132.1080   56.6230 C   0  0  0  0  0  0  0  0  0  0  0  0
  130.1780  132.5920   56.9740 C   0  0  0  0  0  0  0  0  0  0  0  0
  129.7680  132.5460   58.3050 C   0  0  0  0  0  0  0  0  0  0  0  0
  127.5960  131.9340   61.1360 C   0  0  2  0  0  0  0  0  0  0  0  0
  127.7320  131.1310   59.9670 O   0  0  0  0  0  0  0  0  0  0  0  0
  126.7690  130.0940   59.8150 C   0  0  0  0  0  0  0  0  0  0  0  0
  126.2790  130.0490   58.3750 C   0  0  0  0  0  0  0  0  0  0  0  0
  124.9360  129.7740   58.0970 C   0  0  0  0  0  0  0  0  0  0  0  0
  124.4900  129.7440   56.7790 C   0  0  0  0  0  0  0  0  0  0  0  0
  125.3860  129.9920   55.7410 C   0  0  0  0  0  0  0  0  0  0  0  0
  126.7240  130.2720   56.0090 C   0  0  0  0  0  0  0  0  0  0  0  0
  127.1710  130.3030   57.3290 C   0  0  0  0  0  0  0  0  0  0  0  0
  125.6650  130.7170   64.4770 C   0  0  0  0  0  0  0  0  0  0  0  0
  127.0540  130.6010   64.6430 C   0  0  0  0  0  0  0  0  0  0  0  0
  127.5820  129.7920   65.6440 C   0  0  0  0  0  0  0  0  0  0  0  0
  126.7380  129.0760   66.5040 C   0  0  0  0  0  0  0  0  0  0  0  0
  127.3020  128.2150   67.5710 N   0  0  0  0  0  0  0  0  0  0  0  0
  126.5780  127.3680   68.0880 O   0  0  0  0  0  0  0  0  0  0  0  0
  128.4730  128.3770   67.9010 O   0  0  0  0  0  0  0  0  0  0  0  0
  125.3520  129.1900   66.3360 C   0  0  0  0  0  0  0  0  0  0  0  0
  124.8220  129.9990   65.3350 C   0  0  0  0  0  0  0  0  0  0  0  0
  1  2  2  0
  2  3  1  0
  4  3  1  1
  4  5  1  0
  5  6  1  0
  6  7  1  6
  7  8  1  0
  8  9  1  0
  9 10  1  0
 10 11  2  0
 11 12  1  0
 12 13  2  0
 13 14  1  0
 14 15  2  0
  6 16  1  0
 16 17  1  1
 17 18  1  0
 18 19  1  0
 19 20  2  0
 20 21  1  0
 21 22  2  0
 22 23  1  0
 23 24  2  0
 16 25  1  0
 25 26  1  6
 26 27  1  0
 27 28  1  0
 28 29  2  0
 29 30  1  0
 30 31  2  0
 31 32  1  0
 32 33  2  0
  2 34  1  0
 34 35  2  0
 35 36  1  0
 36 37  2  0
 37 38  1  0
 38 39  2  0
 38 40  1  0
 37 41  1  0
 41 42  2  0
 25  4  1  0
 33 28  1  0
 42 34  1  0
 15 10  1  0
 24 19  1  0
M  CHG  2  38   1  40  -1
M  END
>  <Binding energies>  (55) 
[-11.17]

>  <Ligand effiencies>  (55) 
[-0.26595238095238094]

>  <Interactions>  (55) 
["V-A:TYR:539:CD1:4871, V-A:PRO:540:N:4882, V-A:MET:535:CE:4833, V-A:PRO:540:CA:4881, V-A:TYR:539:CE1:4873, V-A:GLU:543:CD:4906, V-B:LEU:475:CD2:9230, V-A:PRO:540:CB:4883, H-A:ALA:541:N:4889, V-A:ALA:541:CB:4890, V-A:TYR:539:C:4865, V-A:TYR:539:CZ:4875, V-B:GLU:543:CD:9880, V-B:TYR:531:CZ:9766, V-B:ASP:366:CB:8183, V-B:GLU:543:CG:9879, V-B:ASP:366:CG:8184, V-B:ARG:545:CZ:9898, V-B:ARG:545:CD:9895, V-B:HIS:456:CE1:9040, H-B:GLY:454:N:9021, V-B:ARG:545:CG:9894, V-B:GLY:454:CA:9020, V-B:SER:385:CB:8380, V-B:PRO:482:CG:9298, V-B:LEU:373:CD1:8251, V-B:SER:385:CA:8378, V-B:ASP:366:CA:8181, V-A:TYR:539:CB:4869, V-A:VAL:344:CG1:2998, V-B:ASN:370:CG:8217, V-B:TYR:531:CE1:9764, V-B:THR:477:CA:9241, V-B:HIS:383:CG:8361, V-B:HIS:383:CB:8360, V-B:HIS:383:CD2:8363, V-A:GLU:543:CB:4904, V-A:GLU:543:CG:4905, V-B:ASP:366:C:8179, V-B:ASN:370:CB:8216, H-B:HIS:456:NE2:9041, V-B:HIS:383:CE1:8365"]

$$$$
RR8_B_Rahimova_2017
     RDKit          3D

 42 46  0  0  0  0  0  0  0  0999 V2000
  133.9650  124.2270   58.0680 O   0  0  0  0  0  0  0  0  0  0  0  0
  132.9350  124.4100   58.7250 C   0  0  0  0  0  0  0  0  0  0  0  0
  131.6770  124.4630   58.1920 O   0  0  0  0  0  0  0  0  0  0  0  0
  131.5040  125.1280   56.9650 C   0  0  2  0  0  0  0  0  0  0  0  0
  131.6050  126.5180   57.1050 O   0  0  0  0  0  0  0  0  0  0  0  0
  130.3300  127.1120   57.3460 C   0  0  2  0  0  0  0  0  0  0  0  0
  130.3650  127.8820   58.6780 C   0  0  0  0  0  0  0  0  0  0  0  0
  129.7170  129.1370   58.5100 O   0  0  0  0  0  0  0  0  0  0  0  0
  130.3640  130.2330   59.1400 C   0  0  0  0  0  0  0  0  0  0  0  0
  131.0450  131.0880   58.0820 C   0  0  0  0  0  0  0  0  0  0  0  0
  132.4390  131.1940   58.0680 C   0  0  0  0  0  0  0  0  0  0  0  0
  133.0680  131.9940   57.1180 C   0  0  0  0  0  0  0  0  0  0  0  0
  132.3000  132.6850   56.1820 C   0  0  0  0  0  0  0  0  0  0  0  0
  130.9110  132.5790   56.1860 C   0  0  0  0  0  0  0  0  0  0  0  0
  130.2820  131.7810   57.1380 C   0  0  0  0  0  0  0  0  0  0  0  0
  129.3470  125.9360   57.2890 C   0  0  1  0  0  0  0  0  0  0  0  0
  128.1130  126.3630   56.7050 O   0  0  0  0  0  0  0  0  0  0  0  0
  127.0170  126.5910   57.5950 C   0  0  0  0  0  0  0  0  0  0  0  0
  126.7780  128.0770   57.8480 C   0  0  0  0  0  0  0  0  0  0  0  0
  126.3590  128.5140   59.1080 C   0  0  0  0  0  0  0  0  0  0  0  0
  126.1730  129.8740   59.3460 C   0  0  0  0  0  0  0  0  0  0  0  0
  126.4030  130.7900   58.3210 C   0  0  0  0  0  0  0  0  0  0  0  0
  126.8160  130.3610   57.0620 C   0  0  0  0  0  0  0  0  0  0  0  0
  127.0060  129.0010   56.8250 C   0  0  0  0  0  0  0  0  0  0  0  0
  130.0830  124.8950   56.4540 C   0  0  2  0  0  0  0  0  0  0  0  0
  129.5800  123.5900   56.7310 O   0  0  0  0  0  0  0  0  0  0  0  0
  128.6290  123.0890   55.8040 C   0  0  0  0  0  0  0  0  0  0  0  0
  127.2520  123.1850   56.4360 C   0  0  0  0  0  0  0  0  0  0  0  0
  126.1120  123.2830   55.6340 C   0  0  0  0  0  0  0  0  0  0  0  0
  124.8550  123.3900   56.2250 C   0  0  0  0  0  0  0  0  0  0  0  0
  124.7430  123.4000   57.6130 C   0  0  0  0  0  0  0  0  0  0  0  0
  125.8760  123.3010   58.4190 C   0  0  0  0  0  0  0  0  0  0  0  0
  127.1320  123.1930   57.8290 C   0  0  0  0  0  0  0  0  0  0  0  0
  132.9380  124.6360   60.2100 C   0  0  0  0  0  0  0  0  0  0  0  0
  133.9170  124.0730   61.0420 C   0  0  0  0  0  0  0  0  0  0  0  0
  133.8890  124.2930   62.4140 C   0  0  0  0  0  0  0  0  0  0  0  0
  132.8780  125.0700   62.9920 C   0  0  0  0  0  0  0  0  0  0  0  0
  132.8360  125.2810   64.4610 N   0  0  0  0  0  0  0  0  0  0  0  0
  133.8840  125.2090   65.0960 O   0  0  0  0  0  0  0  0  0  0  0  0
  131.7540  125.5260   64.9890 O   0  0  0  0  0  0  0  0  0  0  0  0
  131.9040  125.6370   62.1610 C   0  0  0  0  0  0  0  0  0  0  0  0
  131.9350  125.4250   60.7860 C   0  0  0  0  0  0  0  0  0  0  0  0
  1  2  2  0
  2  3  1  0
  4  3  1  1
  4  5  1  0
  5  6  1  0
  6  7  1  1
  7  8  1  0
  8  9  1  0
  9 10  1  0
 10 11  2  0
 11 12  1  0
 12 13  2  0
 13 14  1  0
 14 15  2  0
  6 16  1  0
 16 17  1  6
 17 18  1  0
 18 19  1  0
 19 20  2  0
 20 21  1  0
 21 22  2  0
 22 23  1  0
 23 24  2  0
 16 25  1  0
 25 26  1  1
 26 27  1  0
 27 28  1  0
 28 29  2  0
 29 30  1  0
 30 31  2  0
 31 32  1  0
 32 33  2  0
  2 34  1  0
 34 35  2  0
 35 36  1  0
 36 37  2  0
 37 38  1  0
 38 39  2  0
 38 40  1  0
 37 41  1  0
 41 42  2  0
 25  4  1  0
 33 28  1  0
 42 34  1  0
 15 10  1  0
 24 19  1  0
M  CHG  2  38   1  40  -1
M  END
>  <Binding energies>  (56) 
[-10.62]

>  <Ligand effiencies>  (56) 
[-0.25285714285714284]

>  <Interactions>  (56) 
["V-A:MET:535:CE:4833, V-A:LEU:363:CD1:3186, V-A:ILE:538:CG2:4861, V-A:PRO:540:CD:4885, V-A:TYR:531:CE2:4791, V-A:TYR:539:CE1:4873, V-A:ILE:538:CB:4860, V-A:PRO:540:CB:4883, V-A:ARG:545:CZ:4924, V-A:TYR:539:CZ:4875, V-B:TYR:539:CE1:9847, V-B:TYR:531:CE2:9765, V-A:ASP:366:CB:3209, V-B:PRO:540:CA:9855, V-B:ILE:538:CB:9834, V-B:MET:535:CE:9807, V-B:TYR:539:CZ:9849, V-B:LEU:363:CD1:8160, V-B:PRO:540:N:9856, V-B:TYR:539:C:9839, V-B:TYR:531:CZ:9766, V-B:PRO:540:CB:9857, V-B:ILE:538:CG2:9835, V-A:ASP:366:CG:3210, V-A:GLY:453:CA:4041, V-A:GLY:454:CA:4046, V-B:ASP:366:CB:8183, V-A:GLY:453:C:4039, V-B:ASP:366:CG:8184, V-B:ILE:538:CA:9832, V-A:ILE:369:CD1:3236, H-B:TYR:539:OH:9850, H-A:TYR:531:OH:4793, H-B:TYR:531:OH:9767, H-A:GLY:454:N:4047, H-A:ARG:545:NE:4922, H-A:TYR:484:OH:4345, V-A:ILE:538:CA:4858, V-B:TYR:539:CE2:9848, V-B:TYR:539:CD2:9846"]

$$$$
RR9_Rahimova_2017
     RDKit          3D

 36 40  0  0  0  0  0  0  0  0999 V2000
  129.3730  112.7640   60.9870 C   0  0  0  0  0  0  0  0  0  0  0  0
  130.8120  112.7960   61.5100 C   0  0  0  0  0  0  0  0  0  0  0  0
  131.6220  113.5070   60.5780 O   0  0  0  0  0  0  0  0  0  0  0  0
  131.6490  114.8880   60.6170 C   0  0  0  0  0  0  0  0  0  0  0  0
  132.1150  115.4690   61.7950 C   0  0  0  0  0  0  0  0  0  0  0  0
  132.1750  116.8520   61.9270 C   0  0  0  0  0  0  0  0  0  0  0  0
  131.7700  117.6960   60.8820 C   0  0  0  0  0  0  0  0  0  0  0  0
  131.8290  119.1890   61.0210 C   0  0  0  0  0  0  0  0  0  0  0  0
  130.6720  119.9800   60.9500 C   0  0  0  0  0  0  0  0  0  0  0  0
  130.7310  121.3780   61.0940 C   0  0  0  0  0  0  0  0  0  0  0  0
  129.4460  122.1600   61.1100 C   0  0  0  0  0  0  0  0  0  0  0  0
  128.4770  121.7530   61.7510 O   0  0  0  0  0  0  0  0  0  0  0  0
  129.4370  123.2880   60.3710 N   0  0  0  0  0  0  0  0  0  0  0  0
  128.2730  124.1440   60.1240 C   0  0  0  0  0  0  0  0  0  0  0  0
  127.0230  123.3520   59.6750 C   0  0  0  0  0  0  0  0  0  0  0  0
  126.9230  123.1200   58.1710 C   0  0  0  0  0  0  0  0  0  0  0  0
  125.6830  123.2030   57.5300 C   0  0  0  0  0  0  0  0  0  0  0  0
  125.6000  123.0240   56.1520 C   0  0  0  0  0  0  0  0  0  0  0  0
  126.7550  122.7590   55.4200 C   0  0  0  0  0  0  0  0  0  0  0  0
  127.9930  122.6700   56.0530 C   0  0  0  0  0  0  0  0  0  0  0  0
  128.0770  122.8500   57.4320 C   0  0  0  0  0  0  0  0  0  0  0  0
  132.0200  121.9360   61.2780 C   0  0  0  0  0  0  0  0  0  0  0  0
  132.6300  123.2360   61.4320 C   0  0  0  0  0  0  0  0  0  0  0  0
  132.0050  124.5910   61.3650 C   0  0  0  0  0  0  0  0  0  0  0  0
  131.4770  125.1790   62.5180 C   0  0  0  0  0  0  0  0  0  0  0  0
  130.8810  126.4360   62.4510 C   0  0  0  0  0  0  0  0  0  0  0  0
  130.8140  127.1100   61.2300 C   0  0  0  0  0  0  0  0  0  0  0  0
  130.1480  128.4720   61.1530 C   0  0  0  0  0  0  0  0  0  0  0  0
  131.3390  126.5250   60.0770 C   0  0  0  0  0  0  0  0  0  0  0  0
  131.9360  125.2700   60.1470 C   0  0  0  0  0  0  0  0  0  0  0  0
  133.9230  123.1180   61.6340 N   0  0  0  0  0  0  0  0  0  0  0  0
  134.2340  121.8140   61.5680 N   0  0  0  0  0  0  0  0  0  0  0  0
  133.1180  121.0440   61.3410 C   0  0  0  0  0  0  0  0  0  0  0  0
  133.0690  119.7190   61.2160 N   0  0  0  0  0  0  0  0  0  0  0  0
  131.3010  117.1040   59.7010 C   0  0  0  0  0  0  0  0  0  0  0  0
  131.2410  115.7190   59.5660 C   0  0  0  0  0  0  0  0  0  0  0  0
  1  2  1  0
  2  3  1  0
  3  4  1  0
  4  5  2  0
  5  6  1  0
  6  7  2  0
  7  8  1  0
  8  9  2  0
  9 10  1  0
 10 11  1  0
 11 12  2  0
 11 13  1  0
 13 14  1  0
 14 15  1  0
 15 16  1  0
 16 17  2  0
 17 18  1  0
 18 19  2  0
 19 20  1  0
 20 21  2  0
 10 22  2  0
 22 23  1  0
 23 24  1  0
 24 25  2  0
 25 26  1  0
 26 27  2  0
 27 28  1  0
 27 29  1  0
 29 30  2  0
 23 31  2  0
 31 32  1  0
 32 33  1  0
 33 34  2  0
  7 35  1  0
 35 36  2  0
 36  4  1  0
 34  8  1  0
 21 16  1  0
 33 22  1  0
 30 24  1  0
M  END
>  <Binding energies>  (57) 
[-11.11]

>  <Ligand effiencies>  (57) 
[-0.29236842105263156]

>  <Interactions>  (57) 
["V-B:TYR:539:CE1:9847, V-B:TYR:539:CD1:9845, V-B:PRO:540:CA:9855, V-B:ILE:538:CB:9834, V-B:MET:535:CE:9807, V-B:PRO:540:N:9856, V-B:TYR:539:C:9839, V-B:PRO:540:CD:9859, V-B:PRO:540:CB:9857, V-B:ILE:538:CG2:9835, V-A:LEU:475:CD2:4256, V-B:TYR:539:CG:9844, V-A:LEU:373:CD1:3277, V-A:PRO:482:CB:4323, V-B:ALA:541:CB:9864, V-A:PRO:482:CG:4324, H-B:ALA:541:N:9863, V-A:ASP:366:CG:3210, V-A:GLY:454:CA:4046, V-B:ILE:538:C:9830, V-B:ILE:538:CA:9832, V-A:ILE:369:CD1:3236, V-A:ILE:369:CG2:3234, H-A:GLY:454:N:4047, V-A:SER:385:CB:3406, V-B:TYR:539:CE2:9848, V-B:TYR:539:CD2:9846, V-B:VAL:344:CG1:7972, V-B:TYR:539:CB:9843, V-A:SER:385:C:3402, V-A:HIS:383:CG:3387, V-A:HIS:383:CE1:3391, V-A:THR:477:C:4265, V-A:THR:477:CA:4267, H-A:SER:385:O:3403, H-A:HIS:383:ND1:3388, V-A:LEU:475:CG:4254, V-A:PRO:482:CD:4325, V-A:CYS:479:C:4290, V-A:ARG:480:C:4294"]

$$$$
