1a_Grossjean_2025
     RDKit          3D

 26 27  0  0  0  0  0  0  0  0999 V2000
  126.5040  140.8670   60.7720 C   0  0  0  0  0  0  0  0  0  0  0  0
  125.8620  140.9180   62.1610 C   0  0  0  0  0  0  0  0  0  0  0  0
  124.8460  139.9270   62.2510 O   0  0  0  0  0  0  0  0  0  0  0  0
  124.5600  139.1200   61.1970 C   0  0  0  0  0  0  0  0  0  0  0  0
  123.8140  139.4500   60.2710 O   0  0  0  0  0  0  0  0  0  0  0  0
  125.2280  137.7780   61.2790 C   0  0  0  0  0  0  0  0  0  0  0  0
  126.6270  137.7130   61.3380 C   0  0  0  0  0  0  0  0  0  0  0  0
  127.2760  136.4840   61.4100 C   0  0  0  0  0  0  0  0  0  0  0  0
  126.5440  135.2960   61.4230 C   0  0  0  0  0  0  0  0  0  0  0  0
  127.3040  134.1120   61.4950 N   0  0  0  0  0  0  0  0  0  0  0  0
  126.9860  132.8530   61.1250 C   0  0  0  0  0  0  0  0  0  0  0  0
  125.9160  132.5020   60.6280 O   0  0  0  0  0  0  0  0  0  0  0  0
  128.0770  131.8060   61.3580 C   0  0  0  0  0  0  0  0  0  0  0  0
  129.7450  132.5260   61.2830 S   0  0  0  0  0  0  0  0  0  0  0  0
  130.3820  132.2290   59.6490 C   0  0  0  0  0  0  0  0  0  0  0  0
  129.5040  132.5210   58.6580 N   0  0  0  0  0  0  0  0  0  0  0  0
  129.8840  132.3270   57.3730 C   0  0  0  0  0  0  0  0  0  0  0  0
  128.8450  132.6630   56.3190 C   0  0  0  0  0  0  0  0  0  0  0  0
  131.1460  131.8490   57.0260 C   0  0  0  0  0  0  0  0  0  0  0  0
  132.0670  131.5640   58.0400 C   0  0  0  0  0  0  0  0  0  0  0  0
  133.4490  131.0560   57.6360 C   0  0  0  0  0  0  0  0  0  0  0  0
  131.6930  131.7630   59.3900 C   0  0  0  0  0  0  0  0  0  0  0  0
  132.6570  131.5180   60.4660 C   0  0  0  0  0  0  0  0  0  0  0  0
  133.4200  131.3240   61.3140 N   0  0  0  0  0  0  0  0  0  0  0  0
  125.1430  135.3520   61.3730 C   0  0  0  0  0  0  0  0  0  0  0  0
  124.4950  136.5810   61.3000 C   0  0  0  0  0  0  0  0  0  0  0  0
  1  2  1  0
  2  3  1  0
  3  4  1  0
  4  5  2  0
  4  6  1  0
  6  7  2  0
  7  8  1  0
  8  9  2  0
  9 10  1  0
 10 11  1  0
 11 12  2  0
 11 13  1  0
 13 14  1  0
 14 15  1  0
 15 16  2  0
 16 17  1  0
 17 18  1  0
 17 19  2  0
 19 20  1  0
 20 21  1  0
 20 22  2  0
 22 23  1  0
 23 24  3  0
  9 25  1  0
 25 26  2  0
 26  6  1  0
 22 15  1  0
M  END
>  <Binding energies>  (1) 
[-8.85]

>  <Ligand effiencies>  (1) 
[-0.3277777777777778]

>  <Interactions>  (1) 
["V-A:TYR:539:CD1:4871, V-A:PRO:540:N:4882, V-A:MET:535:CE:4833, V-A:LEU:363:CD1:3186, V-A:PRO:540:CA:4881, V-A:TYR:531:CE2:4791, V-A:TYR:539:CE1:4873, V-B:LEU:475:CD2:9230, V-A:PRO:540:CB:4883, H-A:ALA:541:N:4889, V-A:ALA:541:CB:4890, V-A:TYR:539:C:4865, V-A:TYR:539:CZ:4875, V-A:ASP:366:CB:3209, V-A:ASP:366:CG:3210, H-A:ARG:545:NH2:4926, V-A:TYR:539:CD2:4872, V-A:TYR:539:CE2:4874, V-A:TYR:539:CG:4870, H-A:TYR:539:O:4866, V-A:ILE:538:CA:4858, V-B:SER:385:CB:8380, V-B:PRO:482:CG:9298, V-B:LEU:373:CD1:8251, V-B:PRO:482:CB:9297, V-B:SER:385:CA:8378, V-A:LEU:363:CA:3182, V-A:TYR:539:CB:4869, V-A:VAL:344:CG1:2998, V-B:THR:477:CA:9241, V-B:HIS:383:CG:8361, V-B:HIS:383:CD2:8363, V-B:HIS:383:CE1:8365, H-B:VAL:384:N:8371"]

$$$$
1aa_Ghoteimi_2023
     RDKit          3D

 40 43  0  0  0  0  0  0  0  0999 V2000
  127.2440  122.8690   55.1410 C   0  0  0  0  0  0  0  0  0  0  0  0
  127.9990  122.5200   56.4270 C   0  0  0  0  0  0  0  0  0  0  0  0
  127.0720  122.1090   57.4240 O   0  0  0  0  0  0  0  0  0  0  0  0
  126.0490  122.9160   57.8040 C   0  0  0  0  0  0  0  0  0  0  0  0
  124.8930  122.7930   57.3870 O   0  0  0  0  0  0  0  0  0  0  0  0
  126.4620  123.9760   58.7850 C   0  0  0  0  0  0  0  0  0  0  0  0
  126.7630  125.2850   58.3800 C   0  0  0  0  0  0  0  0  0  0  0  0
  127.1430  126.2480   59.3130 C   0  0  0  0  0  0  0  0  0  0  0  0
  127.2250  125.9160   60.6730 C   0  0  0  0  0  0  0  0  0  0  0  0
  127.5970  126.8010   61.7010 N   0  0  0  0  0  0  0  0  0  0  0  0
  127.0860  128.0050   62.0490 C   0  0  0  0  0  0  0  0  0  0  0  0
  126.1410  128.5580   61.4860 O   0  0  0  0  0  0  0  0  0  0  0  0
  127.7370  128.7290   63.2380 C   0  0  0  0  0  0  0  0  0  0  0  0
  127.1450  130.0210   63.4240 O   0  0  0  0  0  0  0  0  0  0  0  0
  127.5600  131.1000   62.6570 C   0  0  0  0  0  0  0  0  0  0  0  0
  128.7510  131.0020   62.0040 N   0  0  0  0  0  0  0  0  0  0  0  0
  129.1980  132.0430   61.2540 C   0  0  0  0  0  0  0  0  0  0  0  0
  130.5190  131.8550   60.5640 C   0  0  0  0  0  0  0  0  0  0  0  0
  130.6110  131.8640   59.1650 C   0  0  0  0  0  0  0  0  0  0  0  0
  131.8340  131.6880   58.5230 C   0  0  0  0  0  0  0  0  0  0  0  0
  133.0010  131.5000   59.2590 C   0  0  0  0  0  0  0  0  0  0  0  0
  134.1680  131.3330   58.5380 O   0  0  0  0  0  0  0  0  0  0  0  0
  134.1080  130.7230   57.2530 C   0  0  0  0  0  0  0  0  0  0  0  0
  132.9270  131.4930   60.6590 C   0  0  0  0  0  0  0  0  0  0  0  0
  131.7030  131.6700   61.2970 C   0  0  0  0  0  0  0  0  0  0  0  0
  128.4360  133.2110   61.1280 C   0  0  0  0  0  0  0  0  0  0  0  0
  127.2010  133.3340   61.7800 C   0  0  0  0  0  0  0  0  0  0  0  0
  126.4320  134.6000   61.5980 C   0  0  0  0  0  0  0  0  0  0  0  0
  127.0830  135.8360   61.6730 C   0  0  0  0  0  0  0  0  0  0  0  0
  126.3750  137.0200   61.4950 C   0  0  0  0  0  0  0  0  0  0  0  0
  125.0060  136.9960   61.2310 C   0  0  0  0  0  0  0  0  0  0  0  0
  124.3860  138.2200   61.0690 O   0  0  0  0  0  0  0  0  0  0  0  0
  125.0760  139.2630   60.3900 C   0  0  0  0  0  0  0  0  0  0  0  0
  124.3500  135.7590   61.1470 C   0  0  0  0  0  0  0  0  0  0  0  0
  125.0600  134.5750   61.3260 C   0  0  0  0  0  0  0  0  0  0  0  0
  126.7570  132.2500   62.5730 C   0  0  0  0  0  0  0  0  0  0  0  0
  125.5030  132.3040   63.3260 C   0  0  0  0  0  0  0  0  0  0  0  0
  124.5110  132.3440   63.9220 N   0  0  0  0  0  0  0  0  0  0  0  0
  126.9280  124.6140   61.0780 C   0  0  0  0  0  0  0  0  0  0  0  0
  126.5490  123.6530   60.1460 C   0  0  0  0  0  0  0  0  0  0  0  0
  1  2  1  0
  2  3  1  0
  3  4  1  0
  4  5  2  0
  4  6  1  0
  6  7  2  0
  7  8  1  0
  8  9  2  0
  9 10  1  0
 10 11  1  0
 11 12  2  0
 11 13  1  0
 13 14  1  0
 14 15  1  0
 15 16  2  0
 16 17  1  0
 17 18  1  0
 18 19  2  0
 19 20  1  0
 20 21  2  0
 21 22  1  0
 22 23  1  0
 21 24  1  0
 24 25  2  0
 17 26  2  0
 26 27  1  0
 27 28  1  0
 28 29  2  0
 29 30  1  0
 30 31  2  0
 31 32  1  0
 32 33  1  0
 31 34  1  0
 34 35  2  0
 27 36  2  0
 36 37  1  0
 37 38  3  0
  9 39  1  0
 39 40  2  0
 40  6  1  0
 36 15  1  0
 25 18  1  0
 35 28  1  0
M  END
>  <Binding energies>  (2) 
[-9.43]

>  <Ligand effiencies>  (2) 
[-0.22999999999999998]

>  <Interactions>  (2) 
["V-A:TYR:539:CD1:4871, V-A:PRO:540:N:4882, V-A:LEU:363:CD1:3186, V-A:PRO:540:CA:4881, V-A:TYR:531:CE2:4791, V-A:TYR:539:CE1:4873, V-A:GLU:543:CD:4906, V-B:LEU:475:CD2:9230, V-A:TYR:531:CZ:4792, V-A:PRO:540:CB:4883, V-A:ALA:541:CB:4890, V-A:TYR:539:C:4865, H-B:TYR:539:N:9842, V-B:TYR:539:CE1:9847, V-B:TYR:539:CD1:9845, V-A:ASP:366:CB:3209, V-B:PRO:540:CA:9855, V-B:ILE:538:CB:9834, V-B:MET:535:CE:9807, V-B:TYR:539:CZ:9849, V-B:PRO:540:N:9856, V-B:TYR:539:C:9839, V-B:PRO:540:CD:9859, V-B:PRO:540:CB:9857, V-B:ILE:538:CG2:9835, V-B:TYR:539:CG:9844, V-B:TYR:539:CA:9841, H-B:GLU:543:OE2:9882, H-B:GLU:543:OE1:9881, H-B:ARG:545:NH2:9900, V-A:PRO:540:C:4879, V-A:ASP:366:CG:3210, V-B:ILE:538:C:9830, V-B:ILE:538:CA:9832, H-B:TYR:484:OH:9319, H-B:GLY:454:N:9021, V-B:GLY:454:CA:9020, V-B:SER:385:CB:8380, V-B:PRO:482:CG:9298, V-B:ILE:369:CG2:8208, V-B:LEU:373:CD1:8251, V-B:PRO:482:CB:9297, V-B:SER:385:CA:8378, V-A:LEU:363:CA:3182, H-A:LEU:363:N:3183, V-A:LEU:363:CB:3184, V-B:TYR:539:CE2:9848, V-B:TYR:539:CD2:9846, V-B:LEU:373:CD2:8252, V-A:LEU:363:C:3180"]

$$$$
1b_Grossjean_2025
     RDKit          3D

 25 26  0  0  0  0  0  0  0  0999 V2000
  131.9890  113.8810   61.3040 C   0  0  0  0  0  0  0  0  0  0  0  0
  133.1800  114.6560   61.2830 O   0  0  0  0  0  0  0  0  0  0  0  0
  133.4030  115.5660   60.3010 C   0  0  0  0  0  0  0  0  0  0  0  0
  134.1650  115.3680   59.3490 O   0  0  0  0  0  0  0  0  0  0  0  0
  132.6240  116.8380   60.4820 C   0  0  0  0  0  0  0  0  0  0  0  0
  131.2230  116.8480   60.5420 C   0  0  0  0  0  0  0  0  0  0  0  0
  130.5310  118.0440   60.7100 C   0  0  0  0  0  0  0  0  0  0  0  0
  131.2210  119.2520   60.8200 C   0  0  0  0  0  0  0  0  0  0  0  0
  130.4200  120.3980   60.9850 N   0  0  0  0  0  0  0  0  0  0  0  0
  130.6530  121.5300   61.6840 C   0  0  0  0  0  0  0  0  0  0  0  0
  131.6690  121.7730   62.3330 O   0  0  0  0  0  0  0  0  0  0  0  0
  129.5380  122.5750   61.6290 C   0  0  0  0  0  0  0  0  0  0  0  0
  129.0760  122.9940   59.9210 S   0  0  0  0  0  0  0  0  0  0  0  0
  127.3120  123.2360   59.8930 C   0  0  0  0  0  0  0  0  0  0  0  0
  126.7670  123.4230   61.1200 N   0  0  0  0  0  0  0  0  0  0  0  0
  125.4310  123.6180   61.2150 C   0  0  0  0  0  0  0  0  0  0  0  0
  124.8930  123.8360   62.6180 C   0  0  0  0  0  0  0  0  0  0  0  0
  124.5910  123.6240   60.1030 C   0  0  0  0  0  0  0  0  0  0  0  0
  125.1410  123.4100   58.8360 C   0  0  0  0  0  0  0  0  0  0  0  0
  124.1990  123.4050   57.6330 C   0  0  0  0  0  0  0  0  0  0  0  0
  126.5340  123.2040   58.7120 C   0  0  0  0  0  0  0  0  0  0  0  0
  127.1260  122.9340   57.3990 C   0  0  0  0  0  0  0  0  0  0  0  0
  127.5910  122.7220   56.3610 N   0  0  0  0  0  0  0  0  0  0  0  0
  132.6230  119.2500   60.7600 C   0  0  0  0  0  0  0  0  0  0  0  0
  133.3130  118.0530   60.5930 C   0  0  0  0  0  0  0  0  0  0  0  0
  1  2  1  0
  2  3  1  0
  3  4  2  0
  3  5  1  0
  5  6  2  0
  6  7  1  0
  7  8  2  0
  8  9  1  0
  9 10  1  0
 10 11  2  0
 10 12  1  0
 12 13  1  0
 13 14  1  0
 14 15  2  0
 15 16  1  0
 16 17  1  0
 16 18  2  0
 18 19  1  0
 19 20  1  0
 19 21  2  0
 21 22  1  0
 22 23  3  0
  8 24  1  0
 24 25  2  0
 25  5  1  0
 21 14  1  0
M  END
>  <Binding energies>  (3) 
[-9.52]

>  <Ligand effiencies>  (3) 
[-0.36615384615384616]

>  <Interactions>  (3) 
["H-B:TYR:539:N:9842, V-B:TYR:539:CE1:9847, V-B:TYR:539:CD1:9845, V-B:TYR:531:CE2:9765, V-B:PRO:540:CA:9855, V-B:ASN:362:CB:8147, V-B:LEU:363:CD1:8160, V-B:PRO:540:N:9856, V-B:TYR:539:C:9839, V-B:GLU:543:CD:9880, V-B:PRO:540:CB:9857, V-A:LEU:475:CD2:4256, V-A:LEU:373:CD1:3277, V-B:PRO:540:C:9853, V-A:PRO:482:CB:4323, V-B:ALA:541:CB:9864, V-A:PRO:482:CG:4324, H-B:ALA:541:N:9863, V-B:LEU:363:CA:8156, V-B:ASP:366:CG:8184, H-B:TYR:539:O:9840, V-B:ARG:545:CZ:9898, V-A:SER:385:CA:3404, V-A:SER:385:CB:3406, V-B:TYR:539:CB:9843, V-B:ASN:362:CG:8148, V-A:HIS:383:CG:3387, V-A:HIS:383:CB:3386, V-A:VAL:384:C:3394, V-A:THR:477:C:4265, V-A:THR:477:CA:4267, H-A:VAL:384:N:3397"]

$$$$
1c_Grossjean_2025
     RDKit          3D

 23 24  0  0  0  0  0  0  0  0999 V2000
  124.5310  140.5300   62.0730 C   0  0  0  0  0  0  0  0  0  0  0  0
  124.1690  139.3980   61.2890 O   0  0  0  0  0  0  0  0  0  0  0  0
  124.9760  138.2770   61.3120 C   0  0  0  0  0  0  0  0  0  0  0  0
  124.3280  137.0430   61.2840 C   0  0  0  0  0  0  0  0  0  0  0  0
  125.0540  135.8560   61.3020 C   0  0  0  0  0  0  0  0  0  0  0  0
  126.4560  135.8930   61.3430 C   0  0  0  0  0  0  0  0  0  0  0  0
  127.2870  134.7560   61.3750 N   0  0  0  0  0  0  0  0  0  0  0  0
  127.1610  133.6230   62.0980 C   0  0  0  0  0  0  0  0  0  0  0  0
  126.2430  133.3710   62.8790 O   0  0  0  0  0  0  0  0  0  0  0  0
  128.2700  132.5890   61.8950 C   0  0  0  0  0  0  0  0  0  0  0  0
  128.7220  132.4160   60.1440 S   0  0  0  0  0  0  0  0  0  0  0  0
  130.4650  132.0600   60.0450 C   0  0  0  0  0  0  0  0  0  0  0  0
  131.0410  131.8430   61.2550 N   0  0  0  0  0  0  0  0  0  0  0  0
  132.3640  131.5630   61.3060 C   0  0  0  0  0  0  0  0  0  0  0  0
  132.9340  131.3220   62.6910 C   0  0  0  0  0  0  0  0  0  0  0  0
  133.1630  131.4980   60.1670 C   0  0  0  0  0  0  0  0  0  0  0  0
  132.5860  131.7440   58.9170 C   0  0  0  0  0  0  0  0  0  0  0  0
  133.4860  131.6850   57.6840 C   0  0  0  0  0  0  0  0  0  0  0  0
  131.2050  132.0410   58.8390 C   0  0  0  0  0  0  0  0  0  0  0  0
  130.5940  132.3550   57.5450 C   0  0  0  0  0  0  0  0  0  0  0  0
  130.1120  132.6020   56.5230 N   0  0  0  0  0  0  0  0  0  0  0  0
  127.1090  137.1260   61.3820 C   0  0  0  0  0  0  0  0  0  0  0  0
  126.3780  138.3110   61.3640 C   0  0  0  0  0  0  0  0  0  0  0  0
  1  2  1  0
  2  3  1  0
  3  4  2  0
  4  5  1  0
  5  6  2  0
  6  7  1  0
  7  8  1  0
  8  9  2  0
  8 10  1  0
 10 11  1  0
 11 12  1  0
 12 13  2  0
 13 14  1  0
 14 15  1  0
 14 16  2  0
 16 17  1  0
 17 18  1  0
 17 19  2  0
 19 20  1  0
 20 21  3  0
  6 22  1  0
 22 23  2  0
 23  3  1  0
 19 12  1  0
M  END
>  <Binding energies>  (4) 
[-8.78]

>  <Ligand effiencies>  (4) 
[-0.3658333333333333]

>  <Interactions>  (4) 
["H-A:TYR:539:N:4868, V-A:ASN:362:CG:3174, V-A:TYR:539:CD1:4871, V-A:PRO:540:N:4882, V-A:LEU:363:CD1:3186, V-A:PRO:540:CA:4881, V-A:ALA:541:C:4886, V-A:TYR:539:CE1:4873, V-A:GLU:543:CD:4906, V-B:LEU:475:CD2:9230, V-A:ASN:362:CB:3173, V-A:PRO:540:CB:4883, V-A:ARG:545:CZ:4924, H-A:ALA:541:N:4889, V-A:ALA:541:CB:4890, V-A:TYR:539:C:4865, V-A:PRO:540:C:4879, V-A:ASP:366:CG:3210, H-A:TYR:539:O:4866, V-B:SER:385:CB:8380, V-B:PRO:482:CG:9298, V-B:LEU:373:CD1:8251, V-B:PRO:482:CB:9297, V-B:SER:385:CA:8378, V-A:LEU:363:CA:3182, V-A:LEU:363:CB:3184, V-A:TYR:539:CB:4869, V-B:THR:477:CA:9241, V-B:HIS:383:CG:8361, V-B:HIS:383:CB:8360, V-B:THR:477:CG2:9244, V-B:THR:477:CB:9243"]

$$$$
1d_Grossjean_2025
     RDKit          3D

 21 22  0  0  0  0  0  0  0  0999 V2000
  125.4390  123.8780   62.6160 C   0  0  0  0  0  0  0  0  0  0  0  0
  125.9340  123.5570   61.2190 C   0  0  0  0  0  0  0  0  0  0  0  0
  125.0890  123.6200   60.1130 C   0  0  0  0  0  0  0  0  0  0  0  0
  125.6040  123.3220   58.8460 C   0  0  0  0  0  0  0  0  0  0  0  0
  124.6620  123.4140   57.6470 C   0  0  0  0  0  0  0  0  0  0  0  0
  126.9640  122.9570   58.7200 C   0  0  0  0  0  0  0  0  0  0  0  0
  127.5360  122.6890   57.3990 C   0  0  0  0  0  0  0  0  0  0  0  0
  127.9850  122.4770   56.3540 N   0  0  0  0  0  0  0  0  0  0  0  0
  127.7420  122.8960   59.9010 C   0  0  0  0  0  0  0  0  0  0  0  0
  129.4650  122.4540   59.9280 S   0  0  0  0  0  0  0  0  0  0  0  0
  129.7240  121.3640   61.3610 C   0  0  0  0  0  0  0  0  0  0  0  0
  130.8820  120.3900   61.1410 C   0  0  0  0  0  0  0  0  0  0  0  0
  132.0320  120.7610   61.3760 O   0  0  0  0  0  0  0  0  0  0  0  0
  130.5280  119.1570   60.7180 N   0  0  0  0  0  0  0  0  0  0  0  0
  131.3320  118.0450   60.4080 C   0  0  0  0  0  0  0  0  0  0  0  0
  130.6630  116.9470   59.8590 C   0  0  0  0  0  0  0  0  0  0  0  0
  131.3650  115.7970   59.5100 C   0  0  0  0  0  0  0  0  0  0  0  0
  132.7430  115.7450   59.7040 C   0  0  0  0  0  0  0  0  0  0  0  0
  133.4240  116.8340   60.2420 C   0  0  0  0  0  0  0  0  0  0  0  0
  132.7240  117.9860   60.5920 C   0  0  0  0  0  0  0  0  0  0  0  0
  127.2380  123.2070   61.1220 N   0  0  0  0  0  0  0  0  0  0  0  0
  1  2  1  0
  2  3  2  0
  3  4  1  0
  4  5  1  0
  4  6  2  0
  6  7  1  0
  7  8  3  0
  6  9  1  0
  9 10  1  0
 10 11  1  0
 11 12  1  0
 12 13  2  0
 12 14  1  0
 14 15  1  0
 15 16  2  0
 16 17  1  0
 17 18  2  0
 18 19  1  0
 19 20  2  0
  9 21  2  0
 21  2  1  0
 20 15  1  0
M  END
>  <Binding energies>  (5) 
[-9.15]

>  <Ligand effiencies>  (5) 
[-0.41590909090909095]

>  <Interactions>  (5) 
["H-B:TYR:539:N:9842, V-B:TYR:539:CE1:9847, V-B:TYR:539:CD1:9845, V-B:PRO:540:CA:9855, V-B:ASN:362:CB:8147, V-B:LEU:363:CD1:8160, V-B:PRO:540:N:9856, V-B:TYR:539:C:9839, V-B:GLU:543:CD:9880, V-B:PRO:540:CB:9857, V-A:LEU:475:CD2:4256, V-B:TYR:539:CG:9844, V-A:LEU:373:CD1:3277, V-B:PRO:540:C:9853, V-B:ALA:541:CB:9864, V-A:PRO:482:CG:4324, H-B:ALA:541:N:9863, H-B:TYR:539:O:9840, V-B:ARG:545:CZ:9898, V-A:SER:385:CA:3404, V-A:SER:385:CB:3406, V-B:VAL:344:CG1:7972, V-B:TYR:539:CB:9843, V-A:HIS:383:CG:3387, V-A:HIS:383:CB:3386, V-A:LEU:373:CD2:3278, V-A:VAL:384:C:3394"]

$$$$
1e_Grossjean_2025
     RDKit          3D

 22 23  0  0  0  0  0  0  0  0999 V2000
  126.7140  140.2830   59.0030 C   0  0  0  0  0  0  0  0  0  0  0  0
  126.3210  139.3350   60.1200 C   0  0  0  0  0  0  0  0  0  0  0  0
  125.2690  139.6290   60.9930 C   0  0  0  0  0  0  0  0  0  0  0  0
  124.9660  138.7100   61.9980 C   0  0  0  0  0  0  0  0  0  0  0  0
  125.7120  137.5350   62.1080 C   0  0  0  0  0  0  0  0  0  0  0  0
  126.7490  137.3000   61.1970 C   0  0  0  0  0  0  0  0  0  0  0  0
  127.4720  136.1050   61.3650 N   0  0  0  0  0  0  0  0  0  0  0  0
  127.0010  134.8690   61.6370 C   0  0  0  0  0  0  0  0  0  0  0  0
  125.8120  134.5840   61.7970 O   0  0  0  0  0  0  0  0  0  0  0  0
  128.0560  133.7700   61.7760 C   0  0  0  0  0  0  0  0  0  0  0  0
  128.2430  132.8080   60.2450 S   0  0  0  0  0  0  0  0  0  0  0  0
  129.9440  132.2990   60.0940 C   0  0  0  0  0  0  0  0  0  0  0  0
  130.5270  132.0080   61.2850 N   0  0  0  0  0  0  0  0  0  0  0  0
  131.8220  131.6120   61.2980 C   0  0  0  0  0  0  0  0  0  0  0  0
  132.4020  131.2960   62.6630 C   0  0  0  0  0  0  0  0  0  0  0  0
  132.5860  131.5030   60.1380 C   0  0  0  0  0  0  0  0  0  0  0  0
  132.0030  131.8240   58.9080 C   0  0  0  0  0  0  0  0  0  0  0  0
  132.8670  131.7140   57.6530 C   0  0  0  0  0  0  0  0  0  0  0  0
  130.6530  132.2430   58.8700 C   0  0  0  0  0  0  0  0  0  0  0  0
  130.0460  132.6400   57.5980 C   0  0  0  0  0  0  0  0  0  0  0  0
  129.5680  132.9530   56.5910 N   0  0  0  0  0  0  0  0  0  0  0  0
  127.0540  138.1970   60.2130 N   0  0  0  0  0  0  0  0  0  0  0  0
  1  2  1  0
  2  3  2  0
  3  4  1  0
  4  5  2  0
  5  6  1  0
  6  7  1  0
  7  8  1  0
  8  9  2  0
  8 10  1  0
 10 11  1  0
 11 12  1  0
 12 13  2  0
 13 14  1  0
 14 15  1  0
 14 16  2  0
 16 17  1  0
 17 18  1  0
 17 19  2  0
 19 20  1  0
 20 21  3  0
  6 22  2  0
 22  2  1  0
 19 12  1  0
M  END
>  <Binding energies>  (6) 
[-9.38]

>  <Ligand effiencies>  (6) 
[-0.4078260869565218]

>  <Interactions>  (6) 
["H-A:TYR:539:N:4868, V-A:TYR:539:CD1:4871, V-A:PRO:540:N:4882, V-A:LEU:363:CD1:3186, V-A:PRO:540:CA:4881, V-A:ALA:541:C:4886, V-A:TYR:539:CE1:4873, V-A:GLU:543:CD:4906, V-B:LEU:475:CD2:9230, V-A:ASN:362:CB:3173, V-A:PRO:540:CB:4883, V-A:ARG:545:CZ:4924, H-A:ALA:541:N:4889, V-A:ALA:541:CB:4890, V-A:TYR:539:C:4865, V-A:PRO:540:C:4879, H-A:TYR:539:O:4866, V-B:SER:385:CB:8380, V-B:PRO:482:CG:9298, V-B:PRO:482:CB:9297, V-B:SER:385:CA:8378, V-A:TYR:539:CB:4869, V-A:VAL:344:CG1:2998, V-B:HIS:383:CG:8361, V-B:LEU:475:CG:9228, V-B:HIS:383:CB:8360, V-B:HIS:383:CD2:8363, V-B:HIS:383:CE1:8365, V-A:ILE:343:CG1:2990, V-A:ILE:343:CD1:2991"]

$$$$
1f_Grossjean_2025
     RDKit          3D

 21 22  0  0  0  0  0  0  0  0999 V2000
  125.4640  123.6940   62.8590 C   0  0  0  0  0  0  0  0  0  0  0  0
  125.9210  123.4750   61.4280 C   0  0  0  0  0  0  0  0  0  0  0  0
  125.0480  123.6230   60.3540 C   0  0  0  0  0  0  0  0  0  0  0  0
  125.5230  123.3960   59.0570 C   0  0  0  0  0  0  0  0  0  0  0  0
  124.5430  123.5460   57.8960 C   0  0  0  0  0  0  0  0  0  0  0  0
  126.8760  123.0320   58.8700 C   0  0  0  0  0  0  0  0  0  0  0  0
  127.3780  122.7360   57.5260 C   0  0  0  0  0  0  0  0  0  0  0  0
  127.7720  122.5030   56.4630 N   0  0  0  0  0  0  0  0  0  0  0  0
  127.6980  122.9330   60.0170 C   0  0  0  0  0  0  0  0  0  0  0  0
  129.4230  122.4870   59.9780 S   0  0  0  0  0  0  0  0  0  0  0  0
  129.7530  121.3420   61.3610 C   0  0  0  0  0  0  0  0  0  0  0  0
  130.9020  120.3510   61.1190 C   0  0  0  0  0  0  0  0  0  0  0  0
  132.0730  120.7120   61.2340 O   0  0  0  0  0  0  0  0  0  0  0  0
  130.5070  119.1120   60.7580 N   0  0  0  0  0  0  0  0  0  0  0  0
  131.2790  117.9700   60.4690 C   0  0  0  0  0  0  0  0  0  0  0  0
  130.7960  116.7750   59.9030 C   0  0  0  0  0  0  0  0  0  0  0  0
  131.6790  115.7180   59.6660 C   0  0  0  0  0  0  0  0  0  0  0  0
  133.0230  115.8820   59.9970 C   0  0  0  0  0  0  0  0  0  0  0  0
  133.5150  117.0240   60.5390 N   0  0  0  0  0  0  0  0  0  0  0  0
  132.6450  118.0430   60.7640 C   0  0  0  0  0  0  0  0  0  0  0  0
  127.2210  123.1310   61.2720 N   0  0  0  0  0  0  0  0  0  0  0  0
  1  2  1  0
  2  3  2  0
  3  4  1  0
  4  5  1  0
  4  6  2  0
  6  7  1  0
  7  8  3  0
  6  9  1  0
  9 10  1  0
 10 11  1  0
 11 12  1  0
 12 13  2  0
 12 14  1  0
 14 15  1  0
 15 16  2  0
 16 17  1  0
 17 18  2  0
 18 19  1  0
 19 20  2  0
  9 21  2  0
 21  2  1  0
 20 15  1  0
M  END
>  <Binding energies>  (7) 
[-8.79]

>  <Ligand effiencies>  (7) 
[-0.3995454545454545]

>  <Interactions>  (7) 
["H-B:TYR:539:N:9842, V-B:TYR:539:CE1:9847, V-B:TYR:539:CD1:9845, V-B:PRO:540:CA:9855, V-B:ASN:362:CB:8147, V-B:LEU:363:CD1:8160, V-B:PRO:540:N:9856, V-B:TYR:539:C:9839, V-B:GLU:543:CD:9880, V-B:PRO:540:CB:9857, V-A:LEU:475:CD2:4256, V-B:TYR:539:CG:9844, V-A:LEU:373:CD1:3277, V-B:PRO:540:C:9853, V-B:ALA:541:CB:9864, V-A:PRO:482:CG:4324, H-B:ALA:541:N:9863, H-B:TYR:539:O:9840, V-B:ARG:545:CZ:9898, V-A:SER:385:CA:3404, V-A:SER:385:CB:3406, V-B:VAL:344:CG1:7972, V-B:TYR:539:CB:9843, V-A:HIS:383:CB:3386, H-A:SER:385:N:3405, V-B:ALA:541:C:9860"]

$$$$
1g_Grossjean_2025
     RDKit          3D

 22 23  0  0  0  0  0  0  0  0999 V2000
  132.5510  131.4560   62.5190 C   0  0  0  0  0  0  0  0  0  0  0  0
  131.9940  131.7200   61.1330 C   0  0  0  0  0  0  0  0  0  0  0  0
  132.7590  131.5130   59.9870 C   0  0  0  0  0  0  0  0  0  0  0  0
  132.1970  131.7890   58.7360 C   0  0  0  0  0  0  0  0  0  0  0  0
  133.0610  131.5680   57.4940 C   0  0  0  0  0  0  0  0  0  0  0  0
  130.8680  132.2620   58.6640 C   0  0  0  0  0  0  0  0  0  0  0  0
  130.2770  132.6080   57.3690 C   0  0  0  0  0  0  0  0  0  0  0  0
  129.8130  132.8810   56.3440 N   0  0  0  0  0  0  0  0  0  0  0  0
  130.1570  132.4190   59.8770 C   0  0  0  0  0  0  0  0  0  0  0  0
  128.4760  132.9930   59.9700 S   0  0  0  0  0  0  0  0  0  0  0  0
  128.1360  133.3890   61.7110 C   0  0  0  0  0  0  0  0  0  0  0  0
  126.7830  134.0790   61.8880 C   0  0  0  0  0  0  0  0  0  0  0  0
  125.8900  133.5290   62.5350 O   0  0  0  0  0  0  0  0  0  0  0  0
  126.6460  135.2810   61.3020 N   0  0  0  0  0  0  0  0  0  0  0  0
  125.4640  136.1380   61.3900 C   0  0  0  0  0  0  0  0  0  0  0  0
  125.7480  137.6220   61.1770 C   0  0  0  0  0  0  0  0  0  0  0  0
  125.6080  138.5190   62.2420 C   0  0  0  0  0  0  0  0  0  0  0  0
  125.8670  139.8730   62.0480 C   0  0  0  0  0  0  0  0  0  0  0  0
  126.2710  140.3250   60.7930 C   0  0  0  0  0  0  0  0  0  0  0  0
  126.4170  139.4370   59.7310 C   0  0  0  0  0  0  0  0  0  0  0  0
  126.1560  138.0820   59.9220 C   0  0  0  0  0  0  0  0  0  0  0  0
  130.7180  132.1700   61.0880 N   0  0  0  0  0  0  0  0  0  0  0  0
  1  2  1  0
  2  3  2  0
  3  4  1  0
  4  5  1  0
  4  6  2  0
  6  7  1  0
  7  8  3  0
  6  9  1  0
  9 10  1  0
 10 11  1  0
 11 12  1  0
 12 13  2  0
 12 14  1  0
 14 15  1  0
 15 16  1  0
 16 17  2  0
 17 18  1  0
 18 19  2  0
 19 20  1  0
 20 21  2  0
  9 22  2  0
 22  2  1  0
 21 16  1  0
M  END
>  <Binding energies>  (8) 
[-9.3]

>  <Ligand effiencies>  (8) 
[-0.4043478260869566]

>  <Interactions>  (8) 
["H-A:TYR:539:N:4868, V-A:TYR:539:CD1:4871, V-A:PRO:540:N:4882, V-A:LEU:363:CD1:3186, V-A:PRO:540:CA:4881, V-A:TYR:531:CE2:4791, V-A:ALA:541:C:4886, V-A:TYR:539:CE1:4873, V-A:GLU:543:CD:4906, V-B:LEU:475:CD2:9230, V-A:ASN:362:CB:3173, V-A:PRO:540:CB:4883, V-A:ARG:545:CZ:4924, H-A:ALA:541:N:4889, V-A:ALA:541:CB:4890, V-A:TYR:539:C:4865, V-A:PRO:540:C:4879, V-A:ASP:366:CG:3210, V-A:TYR:539:CG:4870, H-A:TYR:539:O:4866, V-B:SER:385:CB:8380, V-B:PRO:482:CG:9298, V-B:LEU:373:CD1:8251, V-B:PRO:482:CB:9297, V-A:LEU:363:CA:3182, V-A:TYR:539:CB:4869, V-A:VAL:344:CG1:2998, V-B:HIS:383:CG:8361, V-B:LEU:475:CG:9228, V-B:HIS:383:CE1:8365"]

$$$$
1h_Grossjean_2025
     RDKit          3D

 28 29  0  0  0  0  0  0  0  0999 V2000
  128.5850  122.4980   54.2340 C   0  0  0  0  0  0  0  0  0  0  0  0
  127.7120  122.5690   55.3560 O   0  0  0  0  0  0  0  0  0  0  0  0
  128.1970  123.0310   56.5650 C   0  0  0  0  0  0  0  0  0  0  0  0
  129.4020  123.7380   56.7080 C   0  0  0  0  0  0  0  0  0  0  0  0
  129.8380  124.1620   57.9640 C   0  0  0  0  0  0  0  0  0  0  0  0
  131.1370  124.9490   58.1020 C   0  0  0  0  0  0  0  0  0  0  0  0
  131.9170  124.6060   59.2910 N   0  0  0  0  0  0  0  0  0  0  0  0
  133.2520  124.4430   59.3240 C   0  0  0  0  0  0  0  0  0  0  0  0
  133.9830  124.5940   58.3460 O   0  0  0  0  0  0  0  0  0  0  0  0
  133.8560  124.0430   60.6710 C   0  0  0  0  0  0  0  0  0  0  0  0
  133.9560  122.2380   60.8620 S   0  0  0  0  0  0  0  0  0  0  0  0
  132.3040  121.6180   61.1350 C   0  0  0  0  0  0  0  0  0  0  0  0
  131.3840  122.5400   61.5210 N   0  0  0  0  0  0  0  0  0  0  0  0
  130.1110  122.1380   61.7410 C   0  0  0  0  0  0  0  0  0  0  0  0
  129.1410  123.2260   62.1650 C   0  0  0  0  0  0  0  0  0  0  0  0
  129.7030  120.8150   61.5900 C   0  0  0  0  0  0  0  0  0  0  0  0
  130.6400  119.8560   61.1960 C   0  0  0  0  0  0  0  0  0  0  0  0
  130.1720  118.4110   61.0340 C   0  0  0  0  0  0  0  0  0  0  0  0
  131.9770  120.2530   60.9600 C   0  0  0  0  0  0  0  0  0  0  0  0
  132.9810  119.2690   60.5480 C   0  0  0  0  0  0  0  0  0  0  0  0
  133.7750  118.4920   60.2220 N   0  0  0  0  0  0  0  0  0  0  0  0
  129.0480  123.9120   59.0870 C   0  0  0  0  0  0  0  0  0  0  0  0
  127.8370  123.2120   58.9730 C   0  0  0  0  0  0  0  0  0  0  0  0
  127.0060  122.9270   60.0420 O   0  0  0  0  0  0  0  0  0  0  0  0
  126.1190  123.9310   60.5260 C   0  0  0  0  0  0  0  0  0  0  0  0
  127.4280  122.7670   57.7080 C   0  0  0  0  0  0  0  0  0  0  0  0
  126.2410  122.0870   57.5800 O   0  0  0  0  0  0  0  0  0  0  0  0
  125.1600  122.8880   57.1240 C   0  0  0  0  0  0  0  0  0  0  0  0
  1  2  1  0
  2  3  1  0
  3  4  2  0
  4  5  1  0
  5  6  1  0
  6  7  1  0
  7  8  1  0
  8  9  2  0
  8 10  1  0
 10 11  1  0
 11 12  1  0
 12 13  2  0
 13 14  1  0
 14 15  1  0
 14 16  2  0
 16 17  1  0
 17 18  1  0
 17 19  2  0
 19 20  1  0
 20 21  3  0
  5 22  2  0
 22 23  1  0
 23 24  1  0
 24 25  1  0
 23 26  2  0
 26 27  1  0
 27 28  1  0
 26  3  1  0
 19 12  1  0
M  END
>  <Binding energies>  (9) 
[-7.03]

>  <Ligand effiencies>  (9) 
[-0.2424137931034483]

>  <Interactions>  (9) 
["H-B:TYR:539:N:9842, V-B:TYR:539:CE1:9847, V-B:TYR:539:CD1:9845, V-A:ASP:366:CB:3209, V-B:PRO:540:CA:9855, V-B:MET:535:CE:9807, V-B:TYR:539:CZ:9849, V-B:LEU:363:CD1:8160, V-B:PRO:540:N:9856, V-B:TYR:539:C:9839, V-B:PRO:540:CD:9859, V-B:PRO:540:CB:9857, V-B:ILE:538:CG2:9835, V-A:LEU:475:CD2:4256, V-A:LEU:373:CD1:3277, V-A:PRO:482:CB:4323, V-B:ALA:541:CB:9864, V-A:PRO:482:CG:4324, H-B:ALA:541:N:9863, V-A:ASP:366:CG:3210, V-B:ILE:538:C:9830, V-A:ASP:366:CA:3207, V-B:ILE:538:CA:9832, V-A:ILE:369:CD1:3236, H-B:TYR:539:OH:9850, V-A:ILE:369:CG2:3234, V-B:ALA:541:CA:9862, V-A:SER:385:CA:3404, V-A:SER:385:CB:3406, V-B:TYR:539:CE2:9848, V-B:TYR:539:CD2:9846, V-B:TYR:539:CB:9843, V-B:VAL:537:C:9822"]

$$$$
1i_Grossjean_2025
     RDKit          3D

 20 21  0  0  0  0  0  0  0  0999 V2000
  132.7360  131.1280   62.5770 C   0  0  0  0  0  0  0  0  0  0  0  0
  132.0860  131.5120   61.2620 C   0  0  0  0  0  0  0  0  0  0  0  0
  132.8040  131.5180   60.0680 C   0  0  0  0  0  0  0  0  0  0  0  0
  132.1490  131.8710   58.8830 C   0  0  0  0  0  0  0  0  0  0  0  0
  132.9530  131.8550   57.5840 C   0  0  0  0  0  0  0  0  0  0  0  0
  130.7790  132.2190   58.9270 C   0  0  0  0  0  0  0  0  0  0  0  0
  130.0620  132.5430   57.6910 C   0  0  0  0  0  0  0  0  0  0  0  0
  129.4970  132.7970   56.7130 N   0  0  0  0  0  0  0  0  0  0  0  0
  130.1360  132.2080   60.1870 C   0  0  0  0  0  0  0  0  0  0  0  0
  128.4210  132.6180   60.4260 S   0  0  0  0  0  0  0  0  0  0  0  0
  128.2070  133.0930   62.1680 C   0  0  0  0  0  0  0  0  0  0  0  0
  126.9890  132.4200   62.8030 C   0  0  0  0  0  0  0  0  0  0  0  0
  125.8590  132.7540   62.4430 O   0  0  0  0  0  0  0  0  0  0  0  0
  127.2620  131.4800   63.7340 N   0  0  0  0  0  0  0  0  0  0  0  0
  126.3520  130.7260   64.4610 C   0  0  0  0  0  0  0  0  0  0  0  0
  126.7330  129.7500   65.3800 C   0  0  0  0  0  0  0  0  0  0  0  0
  125.5540  129.2440   65.8760 C   0  0  0  0  0  0  0  0  0  0  0  0
  124.5160  129.8810   65.2840 O   0  0  0  0  0  0  0  0  0  0  0  0
  125.0340  130.8170   64.3880 N   0  0  0  0  0  0  0  0  0  0  0  0
  130.7750  131.8450   61.3280 N   0  0  0  0  0  0  0  0  0  0  0  0
  1  2  1  0
  2  3  2  0
  3  4  1  0
  4  5  1  0
  4  6  2  0
  6  7  1  0
  7  8  3  0
  6  9  1  0
  9 10  1  0
 10 11  1  0
 11 12  1  0
 12 13  2  0
 12 14  1  0
 14 15  1  0
 15 16  1  0
 16 17  2  0
 17 18  1  0
 18 19  1  0
  9 20  2  0
 20  2  1  0
 19 15  2  0
M  END
>  <Binding energies>  (10) 
[-8.07]

>  <Ligand effiencies>  (10) 
[-0.3842857142857143]

>  <Interactions>  (10) 
["H-A:TYR:539:N:4868, V-A:PRO:540:N:4882, V-A:LEU:363:CD1:3186, V-A:PRO:540:CA:4881, V-A:GLU:543:CD:4906, V-A:ASN:362:CB:3173, V-A:PRO:540:CB:4883, V-A:ARG:545:CZ:4924, H-A:ALA:541:N:4889, V-A:ALA:541:CB:4890, V-A:TYR:539:C:4865, H-A:GLU:543:OE1:4907, V-A:PRO:540:C:4879, V-A:ASP:366:CG:3210, V-B:ARG:545:CZ:9898, V-B:ARG:545:CD:9895, V-B:HIS:456:CE1:9040, H-B:TYR:484:OH:9319, H-B:GLY:454:N:9021, V-B:ARG:545:CG:9894, H-B:ARG:545:NE:9896"]

$$$$
1k_Grossjean_2025
     RDKit          3D

 25 25  0  0  0  0  0  0  0  0999 V2000
  130.5360  113.3060   61.0970 C   0  0  0  0  0  0  0  0  0  0  0  0
  130.8730  114.5730   60.5540 O   0  0  0  0  0  0  0  0  0  0  0  0
  130.9050  114.5900   59.1340 C   0  0  0  0  0  0  0  0  0  0  0  0
  131.6440  115.8470   58.6530 C   0  0  0  0  0  0  0  0  0  0  0  0
  133.0370  115.6970   58.8930 O   0  0  0  0  0  0  0  0  0  0  0  0
  133.4250  116.0120   60.2240 C   0  0  0  0  0  0  0  0  0  0  0  0
  132.9170  117.4140   60.5840 C   0  0  0  0  0  0  0  0  0  0  0  0
  131.6350  117.3120   61.1910 O   0  0  0  0  0  0  0  0  0  0  0  0
  130.6730  118.2060   60.6470 C   0  0  0  0  0  0  0  0  0  0  0  0
  130.1120  119.1040   61.7660 C   0  0  0  0  0  0  0  0  0  0  0  0
  129.8050  120.4690   61.3360 N   0  0  0  0  0  0  0  0  0  0  0  0
  130.6060  121.5350   61.5090 C   0  0  0  0  0  0  0  0  0  0  0  0
  131.7090  121.4660   62.0550 O   0  0  0  0  0  0  0  0  0  0  0  0
  130.0560  122.8700   60.9820 C   0  0  0  0  0  0  0  0  0  0  0  0
  129.2310  122.7970   59.3540 S   0  0  0  0  0  0  0  0  0  0  0  0
  127.4850  123.1150   59.5660 C   0  0  0  0  0  0  0  0  0  0  0  0
  127.0790  123.3710   60.8370 N   0  0  0  0  0  0  0  0  0  0  0  0
  125.7680  123.6110   61.0680 C   0  0  0  0  0  0  0  0  0  0  0  0
  125.3920  123.8790   62.5130 C   0  0  0  0  0  0  0  0  0  0  0  0
  124.8130  123.6140   60.0530 C   0  0  0  0  0  0  0  0  0  0  0  0
  125.2200  123.3590   58.7390 C   0  0  0  0  0  0  0  0  0  0  0  0
  124.1580  123.3670   57.6410 C   0  0  0  0  0  0  0  0  0  0  0  0
  126.5840  123.1020   58.4760 C   0  0  0  0  0  0  0  0  0  0  0  0
  127.0370  122.8280   57.1100 C   0  0  0  0  0  0  0  0  0  0  0  0
  127.3940  122.6120   56.0300 N   0  0  0  0  0  0  0  0  0  0  0  0
  1  2  1  0
  2  3  1  0
  3  4  1  0
  4  5  1  0
  5  6  1  0
  6  7  1  0
  7  8  1  0
  8  9  1  0
  9 10  1  0
 10 11  1  0
 11 12  1  0
 12 13  2  0
 12 14  1  0
 14 15  1  0
 15 16  1  0
 16 17  2  0
 17 18  1  0
 18 19  1  0
 18 20  2  0
 20 21  1  0
 21 22  1  0
 21 23  2  0
 23 24  1  0
 24 25  3  0
 23 16  1  0
M  END
>  <Binding energies>  (11) 
[-7.42]

>  <Ligand effiencies>  (11) 
[-0.2853846153846154]

>  <Interactions>  (11) 
["H-B:TYR:539:N:9842, V-B:TYR:539:CE1:9847, V-B:TYR:539:CD1:9845, V-B:PRO:540:CA:9855, V-B:ASN:362:CB:8147, V-B:LEU:363:CD1:8160, V-B:PRO:540:N:9856, V-B:TYR:539:C:9839, V-B:GLU:543:CD:9880, V-B:PRO:540:CB:9857, V-A:LEU:475:CD2:4256, V-B:TYR:539:CG:9844, V-A:LEU:373:CD1:3277, V-B:PRO:540:C:9853, V-A:PRO:482:CB:4323, V-B:ALA:541:CB:9864, V-A:PRO:482:CG:4324, H-B:ALA:541:N:9863, V-B:LEU:363:CB:8158, V-B:LEU:363:CA:8156, H-B:TYR:539:O:9840, V-B:ARG:545:CZ:9898, V-A:SER:385:CA:3404, V-A:SER:385:CB:3406, V-B:VAL:344:CG1:7972, V-B:TYR:539:CB:9843, V-A:HIS:383:CG:3387, V-A:HIS:383:CB:3386, V-A:HIS:383:CD2:3389, V-B:ILE:343:CD1:7965, V-A:LEU:373:CD2:3278, V-A:HIS:383:CE1:3391, V-A:VAL:384:C:3394, H-A:HIS:383:ND1:3388, V-A:PRO:482:CD:4325"]

$$$$
1l_Grossjean_2025
     RDKit          3D

 17 17  0  0  0  0  0  0  0  0999 V2000
  131.2820  117.4490   60.1440 C   0  0  0  0  0  0  0  0  0  0  0  0
  131.4020  118.3970   61.1950 O   0  0  0  0  0  0  0  0  0  0  0  0
  130.4920  119.4360   61.0050 N   0  0  0  0  0  0  0  0  0  0  0  0
  130.8370  120.6830   61.3760 C   0  0  0  0  0  0  0  0  0  0  0  0
  131.9890  121.0160   61.6670 O   0  0  0  0  0  0  0  0  0  0  0  0
  129.6850  121.6980   61.4020 C   0  0  0  0  0  0  0  0  0  0  0  0
  129.2640  122.4300   59.7840 S   0  0  0  0  0  0  0  0  0  0  0  0
  127.5410  122.8950   59.8160 C   0  0  0  0  0  0  0  0  0  0  0  0
  127.0220  123.1510   61.0450 N   0  0  0  0  0  0  0  0  0  0  0  0
  125.7190  123.5080   61.1430 C   0  0  0  0  0  0  0  0  0  0  0  0
  125.2130  123.7770   62.5470 C   0  0  0  0  0  0  0  0  0  0  0  0
  124.8870  123.6260   60.0320 C   0  0  0  0  0  0  0  0  0  0  0  0
  125.4110  123.3670   58.7610 C   0  0  0  0  0  0  0  0  0  0  0  0
  124.4800  123.5040   57.5570 C   0  0  0  0  0  0  0  0  0  0  0  0
  126.7670  122.9920   58.6370 C   0  0  0  0  0  0  0  0  0  0  0  0
  127.3420  122.7140   57.3170 C   0  0  0  0  0  0  0  0  0  0  0  0
  127.7950  122.4960   56.2750 N   0  0  0  0  0  0  0  0  0  0  0  0
  1  2  1  0
  2  3  1  0
  3  4  1  0
  4  5  2  0
  4  6  1  0
  6  7  1  0
  7  8  1  0
  8  9  2  0
  9 10  1  0
 10 11  1  0
 10 12  2  0
 12 13  1  0
 13 14  1  0
 13 15  2  0
 15 16  1  0
 16 17  3  0
 15  8  1  0
M  END
>  <Binding energies>  (12) 
[-6.73]

>  <Ligand effiencies>  (12) 
[-0.37388888888888894]

>  <Interactions>  (12) 
["H-B:TYR:539:N:9842, V-B:TYR:539:CE1:9847, V-B:TYR:539:CD1:9845, V-B:TYR:531:CE2:9765, V-B:PRO:540:CA:9855, V-B:ASN:362:CB:8147, V-B:LEU:363:CD1:8160, V-B:PRO:540:N:9856, V-B:TYR:539:C:9839, V-B:GLU:543:CD:9880, V-B:PRO:540:CB:9857, V-A:LEU:475:CD2:4256, V-B:TYR:539:CG:9844, V-A:LEU:373:CD1:3277, V-B:PRO:540:C:9853, V-B:ALA:541:CB:9864, V-A:PRO:482:CG:4324, H-B:ALA:541:N:9863, H-B:TYR:539:O:9840, V-B:ARG:545:CZ:9898, V-B:TYR:539:CB:9843"]

$$$$
1m_Grossjean_2025
     RDKit          3D

 20 20  0  0  0  0  0  0  0  0999 V2000
  129.0680  129.1150   56.9360 C   0  0  0  0  0  0  0  0  0  0  0  0
  128.0880  130.0880   56.6020 O   0  0  0  0  0  0  0  0  0  0  0  0
  126.8080  129.7240   56.3790 C   0  0  0  0  0  0  0  0  0  0  0  0
  126.3770  129.2170   55.3400 O   0  0  0  0  0  0  0  0  0  0  0  0
  125.9170  130.0110   57.6060 C   0  0  0  0  0  0  0  0  0  0  0  0
  126.6760  130.5370   58.7510 N   0  0  0  0  0  0  0  0  0  0  0  0
  126.1470  131.1320   59.8370 C   0  0  0  0  0  0  0  0  0  0  0  0
  124.9360  131.3160   59.9790 O   0  0  0  0  0  0  0  0  0  0  0  0
  127.1550  131.5840   60.9010 C   0  0  0  0  0  0  0  0  0  0  0  0
  128.1870  133.0100   60.4170 S   0  0  0  0  0  0  0  0  0  0  0  0
  129.8450  132.4220   60.1420 C   0  0  0  0  0  0  0  0  0  0  0  0
  130.5130  132.1270   61.2870 N   0  0  0  0  0  0  0  0  0  0  0  0
  131.7810  131.6650   61.2000 C   0  0  0  0  0  0  0  0  0  0  0  0
  132.4560  131.3390   62.5190 C   0  0  0  0  0  0  0  0  0  0  0  0
  132.4360  131.4890   59.9830 C   0  0  0  0  0  0  0  0  0  0  0  0
  131.7670  131.8150   58.7980 C   0  0  0  0  0  0  0  0  0  0  0  0
  132.5100  131.6300   57.4770 C   0  0  0  0  0  0  0  0  0  0  0  0
  130.4410  132.3010   58.8640 C   0  0  0  0  0  0  0  0  0  0  0  0
  129.7400  132.6940   57.6400 C   0  0  0  0  0  0  0  0  0  0  0  0
  129.1860  133.0040   56.6730 N   0  0  0  0  0  0  0  0  0  0  0  0
  1  2  1  0
  2  3  1  0
  3  4  2  0
  3  5  1  0
  5  6  1  0
  6  7  1  0
  7  8  2  0
  7  9  1  0
  9 10  1  0
 10 11  1  0
 11 12  2  0
 12 13  1  0
 13 14  1  0
 13 15  2  0
 15 16  1  0
 16 17  1  0
 16 18  2  0
 18 19  1  0
 19 20  3  0
 18 11  1  0
M  END
>  <Binding energies>  (13) 
[-5.98]

>  <Ligand effiencies>  (13) 
[-0.28476190476190477]

>  <Interactions>  (13) 
["H-A:TYR:539:N:4868, V-A:TYR:539:CD1:4871, V-A:PRO:540:N:4882, V-A:MET:535:CE:4833, V-A:LEU:363:CD1:3186, V-A:PRO:540:CA:4881, V-A:TYR:539:CE1:4873, V-A:GLU:543:CD:4906, V-A:ASN:362:CB:3173, V-A:PRO:540:CB:4883, V-A:ARG:545:CZ:4924, H-A:ALA:541:N:4889, V-A:TYR:539:C:4865, V-A:TYR:539:CZ:4875, V-A:PRO:540:C:4879, H-B:TYR:531:OH:9767, H-B:ASN:370:ND2:8219, V-A:TYR:539:CA:4867"]

$$$$
1n_Grossjean_2025
     RDKit          3D

 27 28  0  0  0  0  0  0  0  0999 V2000
  126.6570  141.2080   62.4820 C   0  0  0  0  0  0  0  0  0  0  0  0
  125.3150  141.3110   61.7500 C   0  0  0  0  0  0  0  0  0  0  0  0
  124.5560  140.1320   61.9880 O   0  0  0  0  0  0  0  0  0  0  0  0
  124.3490  139.2210   61.0020 C   0  0  0  0  0  0  0  0  0  0  0  0
  123.5720  139.4030   60.0600 O   0  0  0  0  0  0  0  0  0  0  0  0
  125.1700  137.9740   61.1650 C   0  0  0  0  0  0  0  0  0  0  0  0
  124.5830  136.7000   61.2160 C   0  0  0  0  0  0  0  0  0  0  0  0
  125.3720  135.5640   61.3710 C   0  0  0  0  0  0  0  0  0  0  0  0
  126.7580  135.6760   61.4860 C   0  0  0  0  0  0  0  0  0  0  0  0
  127.4590  134.4640   61.6440 N   0  0  0  0  0  0  0  0  0  0  0  0
  127.1810  133.4030   62.4310 C   0  0  0  0  0  0  0  0  0  0  0  0
  126.2100  133.3050   63.1810 O   0  0  0  0  0  0  0  0  0  0  0  0
  128.1800  132.2410   62.3540 C   0  0  0  0  0  0  0  0  0  0  0  0
  128.1240  131.4820   61.0100 C   0  0  0  0  0  0  0  0  0  0  0  0
  128.6340  132.4640   59.5680 S   0  0  0  0  0  0  0  0  0  0  0  0
  130.3540  132.1230   59.2640 C   0  0  0  0  0  0  0  0  0  0  0  0
  131.0520  131.8100   60.3840 N   0  0  0  0  0  0  0  0  0  0  0  0
  132.3680  131.5150   60.2700 C   0  0  0  0  0  0  0  0  0  0  0  0
  133.0800  131.1650   61.5630 C   0  0  0  0  0  0  0  0  0  0  0  0
  133.0380  131.5260   59.0490 C   0  0  0  0  0  0  0  0  0  0  0  0
  132.3320  131.8680   57.8900 C   0  0  0  0  0  0  0  0  0  0  0  0
  133.0900  131.8860   56.5640 C   0  0  0  0  0  0  0  0  0  0  0  0
  130.9580  132.1840   57.9860 C   0  0  0  0  0  0  0  0  0  0  0  0
  130.2120  132.5950   56.7950 C   0  0  0  0  0  0  0  0  0  0  0  0
  129.6250  132.9190   55.8520 N   0  0  0  0  0  0  0  0  0  0  0  0
  127.3530  136.9450   61.4250 C   0  0  0  0  0  0  0  0  0  0  0  0
  126.5620  138.0790   61.2670 C   0  0  0  0  0  0  0  0  0  0  0  0
  1  2  1  0
  2  3  1  0
  3  4  1  0
  4  5  2  0
  4  6  1  0
  6  7  2  0
  7  8  1  0
  8  9  2  0
  9 10  1  0
 10 11  1  0
 11 12  2  0
 11 13  1  0
 13 14  1  0
 14 15  1  0
 15 16  1  0
 16 17  2  0
 17 18  1  0
 18 19  1  0
 18 20  2  0
 20 21  1  0
 21 22  1  0
 21 23  2  0
 23 24  1  0
 24 25  3  0
  9 26  1  0
 26 27  2  0
 27  6  1  0
 23 16  1  0
M  END
>  <Binding energies>  (14) 
[-9.69]

>  <Ligand effiencies>  (14) 
[-0.34607142857142853]

>  <Interactions>  (14) 
["H-A:TYR:539:N:4868, V-A:TYR:539:CD1:4871, V-A:PRO:540:N:4882, V-A:LEU:363:CD1:3186, V-A:PRO:540:CA:4881, V-A:TYR:531:CE2:4791, V-A:TYR:539:CE1:4873, V-B:LEU:475:CD2:9230, V-A:ASN:362:CB:3173, V-A:TYR:531:CZ:4792, V-A:PRO:540:CB:4883, V-A:ARG:545:CZ:4924, H-A:ALA:541:N:4889, V-A:ALA:541:CB:4890, V-A:TYR:539:C:4865, V-A:ASP:366:CG:3210, H-A:TYR:539:O:4866, V-B:SER:385:CB:8380, V-B:PRO:482:CG:9298, V-B:LEU:373:CD1:8251, V-B:PRO:482:CB:9297, V-B:SER:385:CA:8378, V-A:LEU:363:CA:3182, V-A:TYR:539:CB:4869, V-B:THR:477:CA:9241, V-B:HIS:383:CG:8361, V-B:HIS:383:CB:8360, V-B:VAL:384:C:8368, V-B:HIS:383:CE1:8365, H-B:VAL:384:N:8371, V-B:CYS:476:C:9235, V-B:THR:477:C:9239"]

$$$$
1q_Grossjean_2025
     RDKit          3D

 21 21  0  0  0  0  0  0  0  0999 V2000
  128.5040  128.7600   57.3130 C   0  0  0  0  0  0  0  0  0  0  0  0
  127.7820  129.8410   56.7400 O   0  0  0  0  0  0  0  0  0  0  0  0
  126.5720  129.6320   56.1660 C   0  0  0  0  0  0  0  0  0  0  0  0
  126.3840  129.2500   55.0090 O   0  0  0  0  0  0  0  0  0  0  0  0
  125.3750  129.9500   57.0880 C   0  0  0  0  0  0  0  0  0  0  0  0
  125.7850  130.3570   58.4400 N   0  0  0  0  0  0  0  0  0  0  0  0
  125.0120  130.9930   59.3410 C   0  0  0  0  0  0  0  0  0  0  0  0
  123.8410  131.3080   59.1210 O   0  0  0  0  0  0  0  0  0  0  0  0
  125.6690  131.2990   60.6950 C   0  0  0  0  0  0  0  0  0  0  0  0
  127.2030  131.1440   60.7040 C   0  0  0  0  0  0  0  0  0  0  0  0
  128.0930  132.7010   60.4060 S   0  0  0  0  0  0  0  0  0  0  0  0
  129.2780  132.4360   59.1020 C   0  0  0  0  0  0  0  0  0  0  0  0
  128.7780  132.6740   57.8630 N   0  0  0  0  0  0  0  0  0  0  0  0
  129.5840  132.5040   56.7890 C   0  0  0  0  0  0  0  0  0  0  0  0
  128.9490  132.7720   55.4380 C   0  0  0  0  0  0  0  0  0  0  0  0
  130.9140  132.1050   56.9040 C   0  0  0  0  0  0  0  0  0  0  0  0
  131.4480  131.8820   58.1770 C   0  0  0  0  0  0  0  0  0  0  0  0
  132.9150  131.4620   58.2780 C   0  0  0  0  0  0  0  0  0  0  0  0
  130.6260  132.0550   59.3130 C   0  0  0  0  0  0  0  0  0  0  0  0
  131.1840  131.8810   60.6560 C   0  0  0  0  0  0  0  0  0  0  0  0
  131.6290  131.7430   61.7150 N   0  0  0  0  0  0  0  0  0  0  0  0
  1  2  1  0
  2  3  1  0
  3  4  2  0
  3  5  1  0
  5  6  1  0
  6  7  1  0
  7  8  2  0
  7  9  1  0
  9 10  1  0
 10 11  1  0
 11 12  1  0
 12 13  2  0
 13 14  1  0
 14 15  1  0
 14 16  2  0
 16 17  1  0
 17 18  1  0
 17 19  2  0
 19 20  1  0
 20 21  3  0
 19 12  1  0
M  END
>  <Binding energies>  (15) 
[-6.57]

>  <Ligand effiencies>  (15) 
[-0.29863636363636364]

>  <Interactions>  (15) 
["V-A:TYR:539:CD1:4871, V-A:PRO:540:N:4882, V-A:MET:535:CE:4833, V-A:PRO:540:CA:4881, V-A:TYR:539:CE1:4873, V-A:PRO:540:CB:4883, H-A:ALA:541:N:4889, V-A:TYR:539:C:4865, V-A:TYR:539:CZ:4875, V-A:PRO:540:C:4879, V-B:ASP:366:CB:8183, V-A:TYR:539:CD2:4872, V-A:TYR:539:CE2:4874, H-B:TYR:531:OH:9767, V-A:TYR:539:CG:4870, H-B:ASN:370:ND2:8219, H-A:TYR:539:OH:4876, V-A:ILE:538:CA:4858, V-A:ILE:538:C:4856"]

$$$$
2a_Grossjean_2025
     RDKit          3D

 29 30  0  0  0  0  0  0  0  0999 V2000
  130.9740  114.9240   58.6380 C   0  0  0  0  0  0  0  0  0  0  0  0
  132.3520  115.5390   58.3750 C   0  0  0  0  0  0  0  0  0  0  0  0
  133.2770  115.0490   59.3390 O   0  0  0  0  0  0  0  0  0  0  0  0
  133.3420  115.5870   60.5840 C   0  0  0  0  0  0  0  0  0  0  0  0
  133.9620  115.0690   61.5180 O   0  0  0  0  0  0  0  0  0  0  0  0
  132.5990  116.8870   60.7060 C   0  0  0  0  0  0  0  0  0  0  0  0
  133.1920  118.1130   60.3710 C   0  0  0  0  0  0  0  0  0  0  0  0
  132.4770  119.3010   60.4960 C   0  0  0  0  0  0  0  0  0  0  0  0
  131.1630  119.2900   60.9640 C   0  0  0  0  0  0  0  0  0  0  0  0
  130.5420  120.5490   61.0640 N   0  0  0  0  0  0  0  0  0  0  0  0
  130.9060  121.6430   61.7670 C   0  0  0  0  0  0  0  0  0  0  0  0
  131.8880  121.7240   62.5050 O   0  0  0  0  0  0  0  0  0  0  0  0
  129.9930  122.8640   61.6090 C   0  0  0  0  0  0  0  0  0  0  0  0
  129.4090  123.1120   59.8990 S   0  0  0  0  0  0  0  0  0  0  0  0
  127.6310  123.3140   59.8910 C   0  0  0  0  0  0  0  0  0  0  0  0
  127.0520  123.4770   61.1080 N   0  0  0  0  0  0  0  0  0  0  0  0
  125.7100  123.6230   61.1790 C   0  0  0  0  0  0  0  0  0  0  0  0
  125.1340  123.7720   62.5750 C   0  0  0  0  0  0  0  0  0  0  0  0
  124.8940  123.6220   60.0510 C   0  0  0  0  0  0  0  0  0  0  0  0
  125.4720  123.4650   58.7820 C   0  0  0  0  0  0  0  0  0  0  0  0
  124.5550  123.4680   57.5440 C   0  0  0  0  0  0  0  0  0  0  0  0
  123.3320  123.8770   57.8810 F   0  0  0  0  0  0  0  0  0  0  0  0
  125.0470  124.2890   56.6150 F   0  0  0  0  0  0  0  0  0  0  0  0
  124.4360  122.2590   56.9890 F   0  0  0  0  0  0  0  0  0  0  0  0
  126.8790  123.3070   58.6940 C   0  0  0  0  0  0  0  0  0  0  0  0
  127.5350  123.1350   57.3940 C   0  0  0  0  0  0  0  0  0  0  0  0
  128.0520  123.0000   56.3670 N   0  0  0  0  0  0  0  0  0  0  0  0
  130.5610  118.0670   61.2930 C   0  0  0  0  0  0  0  0  0  0  0  0
  131.2760  116.8800   61.1630 C   0  0  0  0  0  0  0  0  0  0  0  0
  1  2  1  0
  2  3  1  0
  3  4  1  0
  4  5  2  0
  4  6  1  0
  6  7  2  0
  7  8  1  0
  8  9  2  0
  9 10  1  0
 10 11  1  0
 11 12  2  0
 11 13  1  0
 13 14  1  0
 14 15  1  0
 15 16  2  0
 16 17  1  0
 17 18  1  0
 17 19  2  0
 19 20  1  0
 20 21  1  0
 21 22  1  0
 21 23  1  0
 21 24  1  0
 20 25  2  0
 25 26  1  0
 26 27  3  0
  9 28  1  0
 28 29  2  0
 29  6  1  0
 25 15  1  0
M  END
>  <Binding energies>  (16) 
[-8.83]

>  <Ligand effiencies>  (16) 
[-0.29433333333333334]

>  <Interactions>  (16) 
["H-B:TYR:539:N:9842, V-B:TYR:539:CE1:9847, V-B:TYR:539:CD1:9845, V-B:TYR:531:CE2:9765, V-B:PRO:540:CG:9858, V-B:PRO:540:CA:9855, V-B:ASN:362:CB:8147, V-B:ILE:538:CB:9834, V-B:LEU:363:CD1:8160, V-B:PRO:540:N:9856, V-B:GLU:543:CD:9880, V-B:PRO:540:CD:9859, V-B:TYR:531:CZ:9766, V-B:PRO:540:CB:9857, V-B:ILE:538:CG2:9835, V-A:LEU:475:CD2:4256, V-A:LEU:373:CD1:3277, V-B:PRO:540:C:9853, V-A:PRO:482:CB:4323, V-B:ALA:541:CB:9864, V-A:PRO:482:CG:4324, H-B:ALA:541:N:9863, V-B:LEU:363:CB:8158, V-B:LEU:363:CA:8156, V-B:ASP:366:CB:8183, V-B:ASP:366:CG:8184, H-B:TYR:539:O:9840, V-B:ARG:545:CZ:9898, V-A:SER:385:CA:3404, V-A:SER:385:CB:3406, V-B:VAL:344:CG1:7972, V-A:HIS:383:CG:3387, V-A:HIS:383:CB:3386, V-A:HIS:383:CD2:3389, V-B:ILE:343:CD1:7965, V-A:LEU:373:CD2:3278, H-A:SER:385:N:3405, V-A:HIS:383:CE1:3391, V-B:LEU:363:CG:8159, H-A:HIS:383:ND1:3388, V-B:LEU:363:C:8154, V-A:LEU:373:CG:3276, V-B:ILE:343:CG1:7964, H-A:SER:385:OG:3407"]

$$$$
2b_Grossjean_2025
     RDKit          3D

 28 29  0  0  0  0  0  0  0  0999 V2000
  126.0270  141.4040   62.1470 C   0  0  0  0  0  0  0  0  0  0  0  0
  125.3710  140.8790   61.0010 O   0  0  0  0  0  0  0  0  0  0  0  0
  124.5310  139.8170   61.1020 C   0  0  0  0  0  0  0  0  0  0  0  0
  123.3010  139.9230   61.1300 O   0  0  0  0  0  0  0  0  0  0  0  0
  125.2470  138.5000   61.1790 C   0  0  0  0  0  0  0  0  0  0  0  0
  126.6430  138.4060   61.0760 C   0  0  0  0  0  0  0  0  0  0  0  0
  127.2760  137.1690   61.1510 C   0  0  0  0  0  0  0  0  0  0  0  0
  126.5320  136.0040   61.3350 C   0  0  0  0  0  0  0  0  0  0  0  0
  127.2710  134.8070   61.3890 N   0  0  0  0  0  0  0  0  0  0  0  0
  127.0260  133.6730   62.0810 C   0  0  0  0  0  0  0  0  0  0  0  0
  126.0750  133.4940   62.8420 O   0  0  0  0  0  0  0  0  0  0  0  0
  128.0530  132.5530   61.8830 C   0  0  0  0  0  0  0  0  0  0  0  0
  128.4220  132.2210   60.1290 S   0  0  0  0  0  0  0  0  0  0  0  0
  130.1770  131.9560   59.9140 C   0  0  0  0  0  0  0  0  0  0  0  0
  130.8710  131.6650   61.0440 N   0  0  0  0  0  0  0  0  0  0  0  0
  132.2040  131.4570   60.9570 C   0  0  0  0  0  0  0  0  0  0  0  0
  132.9080  131.1510   62.2650 C   0  0  0  0  0  0  0  0  0  0  0  0
  132.8970  131.5210   59.7510 C   0  0  0  0  0  0  0  0  0  0  0  0
  132.1990  131.8120   58.5690 C   0  0  0  0  0  0  0  0  0  0  0  0
  132.9800  131.8740   57.2430 C   0  0  0  0  0  0  0  0  0  0  0  0
  132.3210  131.2060   56.2950 F   0  0  0  0  0  0  0  0  0  0  0  0
  133.1260  133.1420   56.8550 F   0  0  0  0  0  0  0  0  0  0  0  0
  134.2000  131.3400   57.3360 F   0  0  0  0  0  0  0  0  0  0  0  0
  130.8010  132.0390   58.6470 C   0  0  0  0  0  0  0  0  0  0  0  0
  130.0220  132.3540   57.4450 C   0  0  0  0  0  0  0  0  0  0  0  0
  129.4080  132.6010   56.4960 N   0  0  0  0  0  0  0  0  0  0  0  0
  125.1350  136.0870   61.4310 C   0  0  0  0  0  0  0  0  0  0  0  0
  124.5030  137.3250   61.3550 C   0  0  0  0  0  0  0  0  0  0  0  0
  1  2  1  0
  2  3  1  0
  3  4  2  0
  3  5  1  0
  5  6  2  0
  6  7  1  0
  7  8  2  0
  8  9  1  0
  9 10  1  0
 10 11  2  0
 10 12  1  0
 12 13  1  0
 13 14  1  0
 14 15  2  0
 15 16  1  0
 16 17  1  0
 16 18  2  0
 18 19  1  0
 19 20  1  0
 20 21  1  0
 20 22  1  0
 20 23  1  0
 19 24  2  0
 24 25  1  0
 25 26  3  0
  8 27  1  0
 27 28  2  0
 28  5  1  0
 24 14  1  0
M  END
>  <Binding energies>  (17) 
[-9.15]

>  <Ligand effiencies>  (17) 
[-0.31551724137931036]

>  <Interactions>  (17) 
["H-A:TYR:539:N:4868, V-A:TYR:539:CD1:4871, V-A:PRO:540:N:4882, V-A:LEU:363:CD1:3186, V-A:ILE:538:CG2:4861, V-A:PRO:540:CG:4884, V-A:PRO:540:CD:4885, V-A:PRO:540:CA:4881, V-A:TYR:531:CE2:4791, V-A:TYR:539:CE1:4873, V-B:LEU:475:CD2:9230, V-A:ILE:538:CB:4860, V-A:ASN:362:CB:3173, V-A:TYR:531:CZ:4792, V-A:PRO:540:CB:4883, V-A:ARG:545:CZ:4924, H-A:ALA:541:N:4889, V-A:ALA:541:CB:4890, V-A:TYR:539:C:4865, V-A:ASP:366:CB:3209, V-A:ASP:366:CG:3210, H-A:TYR:539:O:4866, V-B:SER:385:CB:8380, V-B:PRO:482:CG:9298, V-B:LEU:373:CD1:8251, V-B:PRO:482:CB:9297, V-B:SER:385:CA:8378, V-A:LEU:363:CA:3182, V-A:LEU:363:CG:3185, V-A:LEU:363:CB:3184, H-B:HIS:383:ND1:8362, V-A:TYR:539:CB:4869, V-A:VAL:344:CG1:2998, H-B:SER:385:N:8379, V-B:THR:477:CA:9241, V-B:HIS:383:CG:8361, V-B:HIS:383:CB:8360, H-B:VAL:384:N:8371, V-B:THR:477:C:9239, V-A:LEU:363:C:3180"]

$$$$
2c_Grossjean_2025
     RDKit          3D

 26 27  0  0  0  0  0  0  0  0999 V2000
  133.4300  114.4880   60.9890 C   0  0  0  0  0  0  0  0  0  0  0  0
  133.8140  115.6890   60.3260 O   0  0  0  0  0  0  0  0  0  0  0  0
  133.0300  116.8170   60.4680 C   0  0  0  0  0  0  0  0  0  0  0  0
  131.6970  116.6090   60.8200 C   0  0  0  0  0  0  0  0  0  0  0  0
  130.8290  117.6850   60.9850 C   0  0  0  0  0  0  0  0  0  0  0  0
  131.2910  118.9940   60.7870 C   0  0  0  0  0  0  0  0  0  0  0  0
  130.4940  120.1430   60.9480 N   0  0  0  0  0  0  0  0  0  0  0  0
  130.8020  121.3000   61.5720 C   0  0  0  0  0  0  0  0  0  0  0  0
  131.8580  121.5160   62.1690 O   0  0  0  0  0  0  0  0  0  0  0  0
  129.7000  122.3700   61.5300 C   0  0  0  0  0  0  0  0  0  0  0  0
  129.2010  122.9190   59.8610 S   0  0  0  0  0  0  0  0  0  0  0  0
  127.4360  123.2100   59.8340 C   0  0  0  0  0  0  0  0  0  0  0  0
  126.8540  123.4060   61.0450 N   0  0  0  0  0  0  0  0  0  0  0  0
  125.5220  123.6220   61.1020 C   0  0  0  0  0  0  0  0  0  0  0  0
  124.9450  123.8150   62.4910 C   0  0  0  0  0  0  0  0  0  0  0  0
  124.7180  123.6620   59.9650 C   0  0  0  0  0  0  0  0  0  0  0  0
  125.2980  123.4700   58.7030 C   0  0  0  0  0  0  0  0  0  0  0  0
  124.3960  123.5180   57.4540 C   0  0  0  0  0  0  0  0  0  0  0  0
  124.1760  122.2830   57.0020 F   0  0  0  0  0  0  0  0  0  0  0  0
  123.2270  124.0830   57.7560 F   0  0  0  0  0  0  0  0  0  0  0  0
  124.9360  124.2210   56.4550 F   0  0  0  0  0  0  0  0  0  0  0  0
  126.6950  123.2360   58.6290 C   0  0  0  0  0  0  0  0  0  0  0  0
  127.3550  123.0260   57.3360 C   0  0  0  0  0  0  0  0  0  0  0  0
  127.8760  122.8610   56.3150 N   0  0  0  0  0  0  0  0  0  0  0  0
  132.6280  119.2090   60.4510 C   0  0  0  0  0  0  0  0  0  0  0  0
  133.4930  118.1310   60.2870 C   0  0  0  0  0  0  0  0  0  0  0  0
  1  2  1  0
  2  3  1  0
  3  4  2  0
  4  5  1  0
  5  6  2  0
  6  7  1  0
  7  8  1  0
  8  9  2  0
  8 10  1  0
 10 11  1  0
 11 12  1  0
 12 13  2  0
 13 14  1  0
 14 15  1  0
 14 16  2  0
 16 17  1  0
 17 18  1  0
 18 19  1  0
 18 20  1  0
 18 21  1  0
 17 22  2  0
 22 23  1  0
 23 24  3  0
  6 25  1  0
 25 26  2  0
 26  3  1  0
 22 12  1  0
M  END
>  <Binding energies>  (18) 
[-8.32]

>  <Ligand effiencies>  (18) 
[-0.30814814814814817]

>  <Interactions>  (18) 
["H-B:TYR:539:N:9842, V-B:TYR:539:CE1:9847, V-B:TYR:539:CD1:9845, V-B:TYR:531:CE2:9765, V-B:PRO:540:CG:9858, V-B:PRO:540:CA:9855, V-B:ASN:362:CB:8147, V-B:ILE:538:CB:9834, V-B:LEU:363:CD1:8160, V-B:PRO:540:N:9856, V-B:TYR:539:C:9839, V-B:PRO:540:CD:9859, V-B:TYR:531:CZ:9766, V-B:PRO:540:CB:9857, V-A:LEU:475:CD2:4256, V-A:LEU:373:CD1:3277, V-B:PRO:540:C:9853, V-A:PRO:482:CB:4323, V-B:ALA:541:CB:9864, V-A:PRO:482:CG:4324, H-B:ALA:541:N:9863, V-B:LEU:363:CB:8158, V-B:LEU:363:CA:8156, V-B:ASP:366:CB:8183, V-B:ASP:366:CG:8184, H-B:TYR:539:O:9840, V-B:ARG:545:CZ:9898, V-A:SER:385:CA:3404, V-A:SER:385:CB:3406, V-A:HIS:383:CG:3387, V-A:HIS:383:CB:3386, H-A:SER:385:N:3405, V-A:VAL:384:C:3394, V-A:THR:477:CA:4267, V-B:LEU:363:CG:8159, V-B:LEU:363:C:8154, V-A:THR:477:CG2:4270, V-A:THR:477:CB:4269"]

$$$$
2d_Ghoteimi_2023
     RDKit          3D

 38 42  0  0  0  0  0  0  0  0999 V2000
  124.4200  130.4950   63.3790 C   0  0  0  0  0  0  0  0  0  0  0  0
  123.9320  129.6320   64.3960 O   0  0  0  0  0  0  0  0  0  0  0  0
  124.5200  129.6010   65.6100 C   0  0  0  0  0  0  0  0  0  0  0  0
  123.9950  129.9530   66.6700 O   0  0  0  0  0  0  0  0  0  0  0  0
  125.9540  129.0580   65.5210 C   0  0  0  0  0  0  0  0  0  0  0  0
  127.1740  130.4150   65.4830 S   0  0  0  0  0  0  0  0  0  0  0  0
  127.4890  130.8380   63.7810 C   0  0  0  0  0  0  0  0  0  0  0  0
  127.1400  132.1110   63.4730 N   0  0  0  0  0  0  0  0  0  0  0  0
  127.3180  132.5670   62.2070 C   0  0  0  0  0  0  0  0  0  0  0  0
  126.8940  133.9750   61.9380 C   0  0  0  0  0  0  0  0  0  0  0  0
  127.8060  135.0290   62.0590 C   0  0  0  0  0  0  0  0  0  0  0  0
  127.4180  136.3430   61.8090 C   0  0  0  0  0  0  0  0  0  0  0  0
  126.1050  136.6490   61.4200 C   0  0  0  0  0  0  0  0  0  0  0  0
  125.6930  137.9650   61.1830 N   0  0  0  0  0  0  0  0  0  0  0  0
  125.2840  138.8560   62.2860 C   0  0  0  0  0  0  0  0  0  0  0  0
  124.5210  140.1120   61.8160 C   0  0  0  0  0  0  0  0  0  0  0  0
  125.2940  140.8170   60.8580 O   0  0  0  0  0  0  0  0  0  0  0  0
  125.5630  140.0200   59.7160 C   0  0  0  0  0  0  0  0  0  0  0  0
  126.3520  138.7580   60.1240 C   0  0  0  0  0  0  0  0  0  0  0  0
  125.1910  135.5910   61.3140 C   0  0  0  0  0  0  0  0  0  0  0  0
  125.5780  134.2780   61.5650 C   0  0  0  0  0  0  0  0  0  0  0  0
  127.8610  131.7470   61.2150 C   0  0  0  0  0  0  0  0  0  0  0  0
  128.2610  130.4390   61.5150 C   0  0  0  0  0  0  0  0  0  0  0  0
  128.8590  129.6300   60.4110 C   0  0  0  0  0  0  0  0  0  0  0  0
  130.1830  129.8410   60.0230 C   0  0  0  0  0  0  0  0  0  0  0  0
  130.7530  129.0840   59.0040 C   0  0  0  0  0  0  0  0  0  0  0  0
  130.0120  128.0930   58.3410 C   0  0  0  0  0  0  0  0  0  0  0  0
  130.5680  127.3120   57.3230 N   0  0  0  0  0  0  0  0  0  0  0  0
  129.7380  126.7640   56.2330 C   0  0  0  0  0  0  0  0  0  0  0  0
  130.5610  126.2470   55.0340 C   0  0  0  0  0  0  0  0  0  0  0  0
  131.5140  125.2920   55.4740 O   0  0  0  0  0  0  0  0  0  0  0  0
  132.4140  125.8480   56.4200 C   0  0  0  0  0  0  0  0  0  0  0  0
  131.6380  126.3520   57.6560 C   0  0  0  0  0  0  0  0  0  0  0  0
  128.6890  127.8750   58.7490 C   0  0  0  0  0  0  0  0  0  0  0  0
  128.1190  128.6320   59.7690 C   0  0  0  0  0  0  0  0  0  0  0  0
  128.0770  129.9640   62.8380 C   0  0  0  0  0  0  0  0  0  0  0  0
  128.4980  128.6090   63.2060 C   0  0  0  0  0  0  0  0  0  0  0  0
  128.8310  127.5380   63.4930 N   0  0  0  0  0  0  0  0  0  0  0  0
  1  2  1  0
  2  3  1  0
  3  4  2  0
  3  5  1  0
  5  6  1  0
  6  7  1  0
  7  8  2  0
  8  9  1  0
  9 10  1  0
 10 11  2  0
 11 12  1  0
 12 13  2  0
 13 14  1  0
 14 15  1  0
 15 16  1  0
 16 17  1  0
 17 18  1  0
 18 19  1  0
 13 20  1  0
 20 21  2  0
  9 22  2  0
 22 23  1  0
 23 24  1  0
 24 25  2  0
 25 26  1  0
 26 27  2  0
 27 28  1  0
 28 29  1  0
 29 30  1  0
 30 31  1  0
 31 32  1  0
 32 33  1  0
 27 34  1  0
 34 35  2  0
 23 36  2  0
 36 37  1  0
 37 38  3  0
 36  7  1  0
 21 10  1  0
 35 24  1  0
 19 14  1  0
 33 28  1  0
M  END
>  <Binding energies>  (19) 
[-9.05]

>  <Ligand effiencies>  (19) 
[-0.23815789473684212]

>  <Interactions>  (19) 
["V-A:TYR:539:CD1:4871, V-A:TYR:539:CE1:4873, V-A:GLU:543:CD:4906, V-B:LEU:475:CD2:9230, V-A:TYR:531:CZ:4792, V-A:ALA:541:CB:4890, V-A:ASP:366:CB:3209, V-B:MET:535:CE:9807, H-B:ARG:545:NH2:9900, V-A:ASP:366:CG:3210, H-B:TYR:539:OH:9850, H-A:TYR:531:OH:4793, V-A:ALA:541:CA:4888, H-B:ILE:455:N:9026, V-B:ARG:545:CZ:9898, V-B:ARG:545:CD:9895, H-B:TYR:484:OH:9319, H-B:GLY:454:N:9021, V-B:ARG:545:CG:9894, V-B:GLY:454:CA:9020, H-B:ARG:545:NE:9896, V-B:SER:385:CB:8380, V-B:PRO:482:CG:9298, V-B:LEU:373:CD1:8251, V-B:PRO:482:CB:9297, V-B:SER:385:CA:8378, H-B:HIS:383:ND1:8362, V-A:TYR:539:CB:4869, V-A:VAL:344:CG1:2998, H-B:ARG:545:NH1:9899, V-B:THR:477:CA:9241, V-B:HIS:383:CG:8361, V-B:HIS:383:CB:8360, V-B:HIS:383:CD2:8363, H-A:ASN:370:ND2:3245, V-A:TYR:531:CE1:4790, V-B:LEU:373:CD2:8252, V-B:HIS:383:CE1:8365, V-B:THR:477:CG2:9244"]

$$$$
2d_Grossjean_2025
     RDKit          3D

 24 25  0  0  0  0  0  0  0  0999 V2000
  132.4050  131.1430   62.5070 C   0  0  0  0  0  0  0  0  0  0  0  0
  131.7790  131.5290   61.1800 C   0  0  0  0  0  0  0  0  0  0  0  0
  132.5120  131.5130   59.9950 C   0  0  0  0  0  0  0  0  0  0  0  0
  131.8860  131.8730   58.7930 C   0  0  0  0  0  0  0  0  0  0  0  0
  132.7100  131.8390   57.4910 C   0  0  0  0  0  0  0  0  0  0  0  0
  133.9480  131.4150   57.7450 F   0  0  0  0  0  0  0  0  0  0  0  0
  132.1420  131.0120   56.6120 F   0  0  0  0  0  0  0  0  0  0  0  0
  132.8070  133.0360   56.9090 F   0  0  0  0  0  0  0  0  0  0  0  0
  130.5200  132.2530   58.8260 C   0  0  0  0  0  0  0  0  0  0  0  0
  129.8090  132.5940   57.5910 C   0  0  0  0  0  0  0  0  0  0  0  0
  129.2470  132.8610   56.6150 N   0  0  0  0  0  0  0  0  0  0  0  0
  129.8630  132.2640   60.0800 C   0  0  0  0  0  0  0  0  0  0  0  0
  128.1610  132.7430   60.3070 S   0  0  0  0  0  0  0  0  0  0  0  0
  128.0620  133.9040   61.7100 C   0  0  0  0  0  0  0  0  0  0  0  0
  126.9330  134.9280   61.5610 C   0  0  0  0  0  0  0  0  0  0  0  0
  125.7660  134.5540   61.6820 O   0  0  0  0  0  0  0  0  0  0  0  0
  127.3210  136.1880   61.2710 N   0  0  0  0  0  0  0  0  0  0  0  0
  126.5340  137.3390   61.0800 C   0  0  0  0  0  0  0  0  0  0  0  0
  127.0870  138.3310   60.2670 C   0  0  0  0  0  0  0  0  0  0  0  0
  126.3870  139.5090   60.0230 C   0  0  0  0  0  0  0  0  0  0  0  0
  125.1340  139.7000   60.6020 C   0  0  0  0  0  0  0  0  0  0  0  0
  124.5790  138.7240   61.4250 C   0  0  0  0  0  0  0  0  0  0  0  0
  125.2750  137.5440   61.6700 C   0  0  0  0  0  0  0  0  0  0  0  0
  130.4770  131.8920   61.2290 N   0  0  0  0  0  0  0  0  0  0  0  0
  1  2  1  0
  2  3  2  0
  3  4  1  0
  4  5  1  0
  5  6  1  0
  5  7  1  0
  5  8  1  0
  4  9  2  0
  9 10  1  0
 10 11  3  0
  9 12  1  0
 12 13  1  0
 13 14  1  0
 14 15  1  0
 15 16  2  0
 15 17  1  0
 17 18  1  0
 18 19  2  0
 19 20  1  0
 20 21  2  0
 21 22  1  0
 22 23  2  0
 12 24  2  0
 24  2  1  0
 23 18  1  0
M  END
>  <Binding energies>  (20) 
[-9.08]

>  <Ligand effiencies>  (20) 
[-0.3632]

>  <Interactions>  (20) 
["H-A:TYR:539:N:4868, V-A:TYR:539:CD1:4871, V-A:PRO:540:N:4882, V-A:LEU:363:CD1:3186, V-A:ILE:538:CG2:4861, V-A:PRO:540:CG:4884, V-A:PRO:540:CD:4885, V-A:PRO:540:CA:4881, V-A:TYR:531:CE2:4791, V-A:TYR:539:CE1:4873, V-A:GLU:543:CD:4906, V-B:LEU:475:CD2:9230, V-A:ILE:538:CB:4860, V-A:ASN:362:CB:3173, V-A:TYR:531:CZ:4792, V-A:PRO:540:CB:4883, V-A:ARG:545:CZ:4924, H-A:ALA:541:N:4889, V-A:ALA:541:CB:4890, V-A:TYR:539:C:4865, V-A:ASP:366:CB:3209, V-A:PRO:540:C:4879, V-A:ASP:366:CG:3210, V-A:TYR:539:CG:4870, H-A:TYR:539:O:4866, V-B:SER:385:CB:8380, V-B:PRO:482:CG:9298, V-B:PRO:482:CB:9297, V-B:SER:385:CA:8378, V-A:LEU:363:CA:3182, V-A:LEU:363:CG:3185, V-A:LEU:363:CB:3184, V-A:TYR:539:CB:4869, V-A:VAL:344:CG1:2998, V-B:HIS:383:CG:8361, V-B:HIS:383:CB:8360"]

$$$$
2e_Grossjean_2025
     RDKit          3D

 25 26  0  0  0  0  0  0  0  0999 V2000
  126.0850  140.0980   58.7460 C   0  0  0  0  0  0  0  0  0  0  0  0
  126.0470  139.3340   60.0560 C   0  0  0  0  0  0  0  0  0  0  0  0
  125.2750  139.7710   61.1360 C   0  0  0  0  0  0  0  0  0  0  0  0
  125.2790  139.0100   62.3060 C   0  0  0  0  0  0  0  0  0  0  0  0
  126.0470  137.8440   62.3680 C   0  0  0  0  0  0  0  0  0  0  0  0
  126.8050  137.4700   61.2530 C   0  0  0  0  0  0  0  0  0  0  0  0
  127.5240  136.2670   61.3540 N   0  0  0  0  0  0  0  0  0  0  0  0
  127.0370  135.0120   61.4780 C   0  0  0  0  0  0  0  0  0  0  0  0
  125.8420  134.7120   61.4480 O   0  0  0  0  0  0  0  0  0  0  0  0
  128.0780  133.9130   61.7170 C   0  0  0  0  0  0  0  0  0  0  0  0
  128.0630  132.6590   60.3960 S   0  0  0  0  0  0  0  0  0  0  0  0
  129.7630  132.1840   60.1730 C   0  0  0  0  0  0  0  0  0  0  0  0
  130.4150  131.8630   61.3180 N   0  0  0  0  0  0  0  0  0  0  0  0
  131.7240  131.5330   61.2440 C   0  0  0  0  0  0  0  0  0  0  0  0
  132.3910  131.1840   62.5600 C   0  0  0  0  0  0  0  0  0  0  0  0
  132.4300  131.5170   60.0420 C   0  0  0  0  0  0  0  0  0  0  0  0
  131.7720  131.8560   58.8500 C   0  0  0  0  0  0  0  0  0  0  0  0
  132.5710  131.8540   57.5330 C   0  0  0  0  0  0  0  0  0  0  0  0
  133.8360  131.5040   57.7650 F   0  0  0  0  0  0  0  0  0  0  0  0
  132.0320  130.9870   56.6750 F   0  0  0  0  0  0  0  0  0  0  0  0
  132.5870  133.0490   56.9390 F   0  0  0  0  0  0  0  0  0  0  0  0
  130.3980  132.1980   58.9100 C   0  0  0  0  0  0  0  0  0  0  0  0
  129.6620  132.5910   57.7040 C   0  0  0  0  0  0  0  0  0  0  0  0
  129.0810  132.9020   56.7520 N   0  0  0  0  0  0  0  0  0  0  0  0
  126.7990  138.2050   60.1020 N   0  0  0  0  0  0  0  0  0  0  0  0
  1  2  1  0
  2  3  2  0
  3  4  1  0
  4  5  2  0
  5  6  1  0
  6  7  1  0
  7  8  1  0
  8  9  2  0
  8 10  1  0
 10 11  1  0
 11 12  1  0
 12 13  2  0
 13 14  1  0
 14 15  1  0
 14 16  2  0
 16 17  1  0
 17 18  1  0
 18 19  1  0
 18 20  1  0
 18 21  1  0
 17 22  2  0
 22 23  1  0
 23 24  3  0
  6 25  2  0
 25  2  1  0
 22 12  1  0
M  END
>  <Binding energies>  (21) 
[-9.01]

>  <Ligand effiencies>  (21) 
[-0.3465384615384615]

>  <Interactions>  (21) 
["H-A:TYR:539:N:4868, V-A:TYR:539:CD1:4871, V-A:PRO:540:N:4882, V-A:LEU:363:CD1:3186, V-A:ILE:538:CG2:4861, V-A:PRO:540:CG:4884, V-A:PRO:540:CD:4885, V-A:PRO:540:CA:4881, V-A:TYR:531:CE2:4791, V-A:TYR:539:CE1:4873, V-A:GLU:543:CD:4906, V-B:LEU:475:CD2:9230, V-A:ILE:538:CB:4860, V-A:ASN:362:CB:3173, V-A:TYR:531:CZ:4792, V-A:PRO:540:CB:4883, V-A:ARG:545:CZ:4924, H-A:ALA:541:N:4889, V-A:ALA:541:CB:4890, V-A:TYR:539:C:4865, V-A:ASP:366:CB:3209, V-A:PRO:540:C:4879, H-A:TYR:539:O:4866, V-B:SER:385:CB:8380, V-B:PRO:482:CG:9298, V-B:LEU:373:CD1:8251, V-B:PRO:482:CB:9297, V-A:LEU:363:CA:3182, V-A:LEU:363:CB:3184, V-A:TYR:539:CB:4869, V-A:VAL:344:CG1:2998, V-B:HIS:383:CG:8361, V-B:LEU:475:CG:9228, V-B:HIS:383:CB:8360, V-B:HIS:383:CD2:8363, V-B:LEU:373:CD2:8252, H-A:PRO:540:O:4880, V-B:HIS:383:CE1:8365, V-A:ILE:343:CG1:2990, V-A:ILE:343:CD1:2991"]

$$$$
2f_Grossjean_2025
     RDKit          3D

 24 25  0  0  0  0  0  0  0  0999 V2000
  125.5920  123.7600   62.6590 C   0  0  0  0  0  0  0  0  0  0  0  0
  126.1580  123.4590   61.2840 C   0  0  0  0  0  0  0  0  0  0  0  0
  125.3960  123.6210   60.1290 C   0  0  0  0  0  0  0  0  0  0  0  0
  125.9630  123.3220   58.8800 C   0  0  0  0  0  0  0  0  0  0  0  0
  125.1000  123.4960   57.6160 C   0  0  0  0  0  0  0  0  0  0  0  0
  125.6770  124.3650   56.7830 F   0  0  0  0  0  0  0  0  0  0  0  0
  124.9650  122.3250   56.9930 F   0  0  0  0  0  0  0  0  0  0  0  0
  123.8750  123.9520   57.8840 F   0  0  0  0  0  0  0  0  0  0  0  0
  127.3060  122.8680   58.8370 C   0  0  0  0  0  0  0  0  0  0  0  0
  127.9240  122.4890   57.5630 C   0  0  0  0  0  0  0  0  0  0  0  0
  128.4120  122.1900   56.5570 N   0  0  0  0  0  0  0  0  0  0  0  0
  128.0120  122.7590   60.0590 C   0  0  0  0  0  0  0  0  0  0  0  0
  129.7050  122.2180   60.1900 S   0  0  0  0  0  0  0  0  0  0  0  0
  129.8530  121.1810   61.6850 C   0  0  0  0  0  0  0  0  0  0  0  0
  130.0710  119.6840   61.4200 C   0  0  0  0  0  0  0  0  0  0  0  0
  129.2290  118.8550   61.7690 O   0  0  0  0  0  0  0  0  0  0  0  0
  131.2380  119.3880   60.8090 N   0  0  0  0  0  0  0  0  0  0  0  0
  131.7490  118.1370   60.4130 C   0  0  0  0  0  0  0  0  0  0  0  0
  130.9980  117.0920   59.8440 C   0  0  0  0  0  0  0  0  0  0  0  0
  131.6300  115.8990   59.4900 C   0  0  0  0  0  0  0  0  0  0  0  0
  133.0030  115.7810   59.7100 C   0  0  0  0  0  0  0  0  0  0  0  0
  133.7510  116.7760   60.2500 N   0  0  0  0  0  0  0  0  0  0  0  0
  133.1210  117.9300   60.5880 C   0  0  0  0  0  0  0  0  0  0  0  0
  127.4410  123.0310   61.2570 N   0  0  0  0  0  0  0  0  0  0  0  0
  1  2  1  0
  2  3  2  0
  3  4  1  0
  4  5  1  0
  5  6  1  0
  5  7  1  0
  5  8  1  0
  4  9  2  0
  9 10  1  0
 10 11  3  0
  9 12  1  0
 12 13  1  0
 13 14  1  0
 14 15  1  0
 15 16  2  0
 15 17  1  0
 17 18  1  0
 18 19  2  0
 19 20  1  0
 20 21  2  0
 21 22  1  0
 22 23  2  0
 12 24  2  0
 24  2  1  0
 23 18  1  0
M  END
>  <Binding energies>  (22) 
[-7.87]

>  <Ligand effiencies>  (22) 
[-0.3148]

>  <Interactions>  (22) 
["H-B:TYR:539:N:9842, V-B:TYR:539:CE1:9847, V-B:TYR:539:CD1:9845, V-B:TYR:531:CE2:9765, V-B:PRO:540:CG:9858, V-B:PRO:540:CA:9855, V-B:ILE:538:CB:9834, V-B:LEU:363:CD1:8160, V-B:PRO:540:N:9856, V-B:TYR:539:C:9839, V-B:GLU:543:CD:9880, V-B:PRO:540:CD:9859, V-B:TYR:531:CZ:9766, V-B:PRO:540:CB:9857, V-B:ILE:538:CG2:9835, V-A:LEU:475:CD2:4256, V-B:TYR:539:CG:9844, V-A:LEU:373:CD1:3277, V-B:PRO:540:C:9853, V-B:TYR:539:CA:9841, V-A:PRO:482:CB:4323, V-B:ALA:541:CB:9864, V-A:PRO:482:CG:4324, H-B:ALA:541:N:9863, V-B:LEU:363:CB:8158, V-B:LEU:363:CA:8156, V-B:ASP:366:CB:8183, V-B:ASP:366:CG:8184, V-B:ARG:545:CZ:9898, V-A:SER:385:CA:3404, V-A:SER:385:CB:3406, V-B:VAL:344:CG1:7972, V-B:TYR:539:CB:9843, V-A:HIS:383:CG:3387, V-A:HIS:383:CB:3386, V-A:LEU:373:CD2:3278, H-A:SER:385:N:3405, V-B:ALA:541:C:9860"]

$$$$
2g_Grossjean_2025
     RDKit          3D

 25 26  0  0  0  0  0  0  0  0999 V2000
  125.4940  123.7310   62.4760 C   0  0  0  0  0  0  0  0  0  0  0  0
  125.9170  123.5010   61.0380 C   0  0  0  0  0  0  0  0  0  0  0  0
  125.0220  123.6540   59.9820 C   0  0  0  0  0  0  0  0  0  0  0  0
  125.4600  123.4230   58.6680 C   0  0  0  0  0  0  0  0  0  0  0  0
  124.4530  123.5890   57.5130 C   0  0  0  0  0  0  0  0  0  0  0  0
  124.1460  122.3990   56.9930 F   0  0  0  0  0  0  0  0  0  0  0  0
  123.3380  124.1640   57.9640 F   0  0  0  0  0  0  0  0  0  0  0  0
  124.9260  124.3470   56.5210 F   0  0  0  0  0  0  0  0  0  0  0  0
  126.8110  123.0460   58.4600 C   0  0  0  0  0  0  0  0  0  0  0  0
  127.3040  122.7370   57.1150 C   0  0  0  0  0  0  0  0  0  0  0  0
  127.6920  122.4940   56.0520 N   0  0  0  0  0  0  0  0  0  0  0  0
  127.6560  122.9440   59.5920 C   0  0  0  0  0  0  0  0  0  0  0  0
  129.3790  122.5080   59.5090 S   0  0  0  0  0  0  0  0  0  0  0  0
  130.0790  122.7150   61.1820 C   0  0  0  0  0  0  0  0  0  0  0  0
  130.2910  121.4070   61.9550 C   0  0  0  0  0  0  0  0  0  0  0  0
  130.6510  121.4080   63.1340 O   0  0  0  0  0  0  0  0  0  0  0  0
  130.0640  120.2790   61.2570 N   0  0  0  0  0  0  0  0  0  0  0  0
  130.1920  118.9170   61.7780 C   0  0  0  0  0  0  0  0  0  0  0  0
  131.0480  117.9930   60.9180 C   0  0  0  0  0  0  0  0  0  0  0  0
  130.4520  117.2320   59.9080 C   0  0  0  0  0  0  0  0  0  0  0  0
  131.2370  116.4160   59.0970 C   0  0  0  0  0  0  0  0  0  0  0  0
  132.6150  116.3710   59.2920 C   0  0  0  0  0  0  0  0  0  0  0  0
  133.2170  117.1370   60.2890 C   0  0  0  0  0  0  0  0  0  0  0  0
  132.4330  117.9530   61.1000 C   0  0  0  0  0  0  0  0  0  0  0  0
  127.2100  123.1490   60.8560 N   0  0  0  0  0  0  0  0  0  0  0  0
  1  2  1  0
  2  3  2  0
  3  4  1  0
  4  5  1  0
  5  6  1  0
  5  7  1  0
  5  8  1  0
  4  9  2  0
  9 10  1  0
 10 11  3  0
  9 12  1  0
 12 13  1  0
 13 14  1  0
 14 15  1  0
 15 16  2  0
 15 17  1  0
 17 18  1  0
 18 19  1  0
 19 20  2  0
 20 21  1  0
 21 22  2  0
 22 23  1  0
 23 24  2  0
 12 25  2  0
 25  2  1  0
 24 19  1  0
M  END
>  <Binding energies>  (23) 
[-8.67]

>  <Ligand effiencies>  (23) 
[-0.3334615384615385]

>  <Interactions>  (23) 
["H-B:TYR:539:N:9842, V-B:TYR:539:CD1:9845, V-B:TYR:531:CE2:9765, V-B:PRO:540:CG:9858, V-B:PRO:540:CA:9855, V-B:ASN:362:CB:8147, V-B:ILE:538:CB:9834, V-B:LEU:363:CD1:8160, V-B:PRO:540:N:9856, V-B:TYR:539:C:9839, V-B:GLU:543:CD:9880, V-B:PRO:540:CD:9859, V-B:TYR:531:CZ:9766, V-B:PRO:540:CB:9857, V-A:LEU:475:CD2:4256, V-B:TYR:539:CG:9844, V-A:LEU:373:CD1:3277, V-B:PRO:540:C:9853, V-A:PRO:482:CB:4323, V-B:ALA:541:CB:9864, V-A:PRO:482:CG:4324, H-B:ALA:541:N:9863, V-B:LEU:363:CB:8158, V-B:LEU:363:CA:8156, V-B:ASP:366:CB:8183, V-B:ASP:366:CG:8184, H-B:TYR:539:O:9840, V-B:ARG:545:CZ:9898, V-A:SER:385:CA:3404, V-A:SER:385:CB:3406, V-B:VAL:344:CG1:7972, V-B:TYR:539:CB:9843, V-A:LEU:373:CD2:3278, V-A:VAL:384:C:3394, V-B:LEU:363:CG:8159, V-B:LEU:363:C:8154, V-A:LEU:373:CG:3276"]

$$$$
2h_Grossjean_2025
     RDKit          3D

 31 32  0  0  0  0  0  0  0  0999 V2000
  133.0360  125.0340   64.7260 C   0  0  0  0  0  0  0  0  0  0  0  0
  133.4460  124.5060   63.4690 O   0  0  0  0  0  0  0  0  0  0  0  0
  132.7860  124.9010   62.3190 C   0  0  0  0  0  0  0  0  0  0  0  0
  131.7860  125.8860   62.2890 C   0  0  0  0  0  0  0  0  0  0  0  0
  131.1700  126.2370   61.0900 C   0  0  0  0  0  0  0  0  0  0  0  0
  131.5390  125.6140   59.8960 C   0  0  0  0  0  0  0  0  0  0  0  0
  130.8640  126.0300   58.5900 C   0  0  0  0  0  0  0  0  0  0  0  0
  130.3360  124.9040   57.8180 N   0  0  0  0  0  0  0  0  0  0  0  0
  130.0040  124.9520   56.5160 C   0  0  0  0  0  0  0  0  0  0  0  0
  130.0360  125.9870   55.8480 O   0  0  0  0  0  0  0  0  0  0  0  0
  129.5840  123.6140   55.8900 C   0  0  0  0  0  0  0  0  0  0  0  0
  127.9210  123.0310   56.3630 S   0  0  0  0  0  0  0  0  0  0  0  0
  127.8630  123.0310   58.1420 C   0  0  0  0  0  0  0  0  0  0  0  0
  129.0080  122.5980   58.7250 N   0  0  0  0  0  0  0  0  0  0  0  0
  129.0660  122.5390   60.0740 C   0  0  0  0  0  0  0  0  0  0  0  0
  130.3740  122.0380   60.6570 C   0  0  0  0  0  0  0  0  0  0  0  0
  128.0000  122.9120   60.8900 C   0  0  0  0  0  0  0  0  0  0  0  0
  126.8140  123.3830   60.3050 C   0  0  0  0  0  0  0  0  0  0  0  0
  125.6490  123.7990   61.2240 C   0  0  0  0  0  0  0  0  0  0  0  0
  124.4890  123.4180   60.6880 F   0  0  0  0  0  0  0  0  0  0  0  0
  125.7270  123.2490   62.4380 F   0  0  0  0  0  0  0  0  0  0  0  0
  125.6400  125.1230   61.3820 F   0  0  0  0  0  0  0  0  0  0  0  0
  126.7400  123.4570   58.8910 C   0  0  0  0  0  0  0  0  0  0  0  0
  125.5470  123.9960   58.2330 C   0  0  0  0  0  0  0  0  0  0  0  0
  124.6050  124.4250   57.7160 N   0  0  0  0  0  0  0  0  0  0  0  0
  132.5200  124.6110   59.9150 C   0  0  0  0  0  0  0  0  0  0  0  0
  132.8860  123.9900   58.7440 O   0  0  0  0  0  0  0  0  0  0  0  0
  134.2080  124.2850   58.3130 C   0  0  0  0  0  0  0  0  0  0  0  0
  133.1530  124.2720   61.1230 C   0  0  0  0  0  0  0  0  0  0  0  0
  134.1280  123.3030   61.1420 O   0  0  0  0  0  0  0  0  0  0  0  0
  133.6860  122.0440   61.6310 C   0  0  0  0  0  0  0  0  0  0  0  0
  1  2  1  0
  2  3  1  0
  3  4  2  0
  4  5  1  0
  5  6  2  0
  6  7  1  0
  7  8  1  0
  8  9  1  0
  9 10  2  0
  9 11  1  0
 11 12  1  0
 12 13  1  0
 13 14  2  0
 14 15  1  0
 15 16  1  0
 15 17  2  0
 17 18  1  0
 18 19  1  0
 19 20  1  0
 19 21  1  0
 19 22  1  0
 18 23  2  0
 23 24  1  0
 24 25  3  0
  6 26  1  0
 26 27  1  0
 27 28  1  0
 26 29  2  0
 29 30  1  0
 30 31  1  0
 29  3  1  0
 23 13  1  0
M  END
>  <Binding energies>  (24) 
[-6.33]

>  <Ligand effiencies>  (24) 
[-0.1978125]

>  <Interactions>  (24) 
["V-A:ARG:545:CZ:4924, H-B:TYR:539:N:9842, V-B:TYR:539:CE1:9847, V-B:TYR:539:CD1:9845, V-A:ASP:366:CB:3209, V-B:PRO:540:CA:9855, V-B:ASN:362:CB:8147, V-B:MET:535:CE:9807, V-B:TYR:539:CZ:9849, V-B:PRO:540:N:9856, V-B:TYR:539:C:9839, V-B:GLU:543:CD:9880, V-B:PRO:540:CB:9857, V-A:LEU:475:CD2:4256, V-B:PRO:540:C:9853, V-A:ASP:366:CG:3210, V-A:GLY:454:CA:4046, V-A:ILE:369:CB:3233, V-A:ASP:366:CA:3207, V-B:ASP:366:CG:8184, V-A:ILE:369:CD1:3236, H-B:TYR:539:OH:9850, V-A:ILE:369:CG2:3234, H-A:TYR:531:OH:4793, H-B:TYR:531:OH:9767, V-B:ALA:541:CA:9862, H-A:GLY:454:N:4047, V-B:ARG:545:CZ:9898, V-B:TYR:539:CE2:9848, V-B:TYR:539:CD2:9846, V-A:ASP:366:C:3205, V-B:ALA:541:C:9860"]

$$$$
2i_Grossjean_2025
     RDKit          3D

 23 24  0  0  0  0  0  0  0  0999 V2000
  125.2740  123.8110   62.6390 C   0  0  0  0  0  0  0  0  0  0  0  0
  125.7780  123.5310   61.2350 C   0  0  0  0  0  0  0  0  0  0  0  0
  124.9400  123.6230   60.1270 C   0  0  0  0  0  0  0  0  0  0  0  0
  125.4540  123.3570   58.8490 C   0  0  0  0  0  0  0  0  0  0  0  0
  124.5130  123.4630   57.6340 C   0  0  0  0  0  0  0  0  0  0  0  0
  124.2580  122.2480   57.1470 F   0  0  0  0  0  0  0  0  0  0  0  0
  123.3630  124.0350   57.9940 F   0  0  0  0  0  0  0  0  0  0  0  0
  125.0290  124.1930   56.6430 F   0  0  0  0  0  0  0  0  0  0  0  0
  126.8210  122.9990   58.7300 C   0  0  0  0  0  0  0  0  0  0  0  0
  127.4110  122.7110   57.4190 C   0  0  0  0  0  0  0  0  0  0  0  0
  127.8770  122.4840   56.3850 N   0  0  0  0  0  0  0  0  0  0  0  0
  127.5990  122.9260   59.9090 C   0  0  0  0  0  0  0  0  0  0  0  0
  129.3280  122.4790   59.8830 S   0  0  0  0  0  0  0  0  0  0  0  0
  129.7470  121.7480   61.4940 C   0  0  0  0  0  0  0  0  0  0  0  0
  130.9260  120.7780   61.4020 C   0  0  0  0  0  0  0  0  0  0  0  0
  132.0490  121.1680   61.7260 O   0  0  0  0  0  0  0  0  0  0  0  0
  130.6380  119.5450   60.9340 N   0  0  0  0  0  0  0  0  0  0  0  0
  131.5300  118.5030   60.7430 C   0  0  0  0  0  0  0  0  0  0  0  0
  131.2990  117.1240   60.6320 C   0  0  0  0  0  0  0  0  0  0  0  0
  132.5470  116.5730   60.4510 C   0  0  0  0  0  0  0  0  0  0  0  0
  133.4710  117.5630   60.4450 O   0  0  0  0  0  0  0  0  0  0  0  0
  132.8110  118.7800   60.6260 N   0  0  0  0  0  0  0  0  0  0  0  0
  127.0820  123.1900   61.1360 N   0  0  0  0  0  0  0  0  0  0  0  0
  1  2  1  0
  2  3  2  0
  3  4  1  0
  4  5  1  0
  5  6  1  0
  5  7  1  0
  5  8  1  0
  4  9  2  0
  9 10  1  0
 10 11  3  0
  9 12  1  0
 12 13  1  0
 13 14  1  0
 14 15  1  0
 15 16  2  0
 15 17  1  0
 17 18  1  0
 18 19  1  0
 19 20  2  0
 20 21  1  0
 21 22  1  0
 12 23  2  0
 23  2  1  0
 22 18  2  0
M  END
>  <Binding energies>  (25) 
[-7.92]

>  <Ligand effiencies>  (25) 
[-0.33]

>  <Interactions>  (25) 
["H-B:TYR:539:N:9842, V-B:TYR:539:CE1:9847, V-B:TYR:539:CD1:9845, V-B:TYR:531:CE2:9765, V-B:PRO:540:CG:9858, V-B:PRO:540:CA:9855, V-B:ASN:362:CB:8147, V-B:ILE:538:CB:9834, V-B:LEU:363:CD1:8160, V-B:PRO:540:N:9856, V-B:TYR:539:C:9839, V-B:GLU:543:CD:9880, V-B:PRO:540:CD:9859, V-B:TYR:531:CZ:9766, V-B:PRO:540:CB:9857, V-A:LEU:475:CD2:4256, V-A:LEU:373:CD1:3277, V-B:PRO:540:C:9853, V-A:PRO:482:CB:4323, V-B:ALA:541:CB:9864, V-A:PRO:482:CG:4324, H-B:ALA:541:N:9863, V-B:LEU:363:CB:8158, V-B:LEU:363:CA:8156, V-B:ASP:366:CB:8183, V-B:ASP:366:CG:8184, H-B:TYR:539:O:9840, V-B:ARG:545:CZ:9898, V-A:SER:385:CB:3406, V-B:LEU:363:CG:8159, V-B:LEU:363:C:8154"]

$$$$
2k_Grossjean_2025
     RDKit          3D

 28 28  0  0  0  0  0  0  0  0999 V2000
  125.3080  130.4950   64.1370 C   0  0  0  0  0  0  0  0  0  0  0  0
  125.8670  131.7260   63.7050 O   0  0  0  0  0  0  0  0  0  0  0  0
  127.2870  131.7620   63.7850 C   0  0  0  0  0  0  0  0  0  0  0  0
  127.8160  132.9900   63.0320 C   0  0  0  0  0  0  0  0  0  0  0  0
  126.7160  133.7300   62.5220 O   0  0  0  0  0  0  0  0  0  0  0  0
  127.0840  134.8350   61.7050 C   0  0  0  0  0  0  0  0  0  0  0  0
  125.8210  135.6470   61.3900 C   0  0  0  0  0  0  0  0  0  0  0  0
  124.8490  134.7540   60.8670 O   0  0  0  0  0  0  0  0  0  0  0  0
  123.9380  134.2270   61.8200 C   0  0  0  0  0  0  0  0  0  0  0  0
  123.8500  132.7000   61.6350 C   0  0  0  0  0  0  0  0  0  0  0  0
  125.0610  132.1250   61.0440 N   0  0  0  0  0  0  0  0  0  0  0  0
  125.1260  131.4820   59.8620 C   0  0  0  0  0  0  0  0  0  0  0  0
  124.1550  131.3300   59.1190 O   0  0  0  0  0  0  0  0  0  0  0  0
  126.5030  130.9140   59.4870 C   0  0  0  0  0  0  0  0  0  0  0  0
  127.9340  131.9160   60.0210 S   0  0  0  0  0  0  0  0  0  0  0  0
  129.1120  132.0310   58.6810 C   0  0  0  0  0  0  0  0  0  0  0  0
  128.5860  132.2760   57.4540 N   0  0  0  0  0  0  0  0  0  0  0  0
  129.4180  132.3700   56.3930 C   0  0  0  0  0  0  0  0  0  0  0  0
  128.7530  132.6330   55.0560 C   0  0  0  0  0  0  0  0  0  0  0  0
  130.7990  132.2380   56.5080 C   0  0  0  0  0  0  0  0  0  0  0  0
  131.3660  131.9930   57.7680 C   0  0  0  0  0  0  0  0  0  0  0  0
  132.8970  131.8550   57.8780 C   0  0  0  0  0  0  0  0  0  0  0  0
  133.3260  131.8550   59.1410 F   0  0  0  0  0  0  0  0  0  0  0  0
  133.2930  130.7100   57.3200 F   0  0  0  0  0  0  0  0  0  0  0  0
  133.4930  132.8700   57.2520 F   0  0  0  0  0  0  0  0  0  0  0  0
  130.5040  131.8830   58.8890 C   0  0  0  0  0  0  0  0  0  0  0  0
  131.0410  131.6240   60.2280 C   0  0  0  0  0  0  0  0  0  0  0  0
  131.4660  131.4200   61.2850 N   0  0  0  0  0  0  0  0  0  0  0  0
  1  2  1  0
  2  3  1  0
  3  4  1  0
  4  5  1  0
  5  6  1  0
  6  7  1  0
  7  8  1  0
  8  9  1  0
  9 10  1  0
 10 11  1  0
 11 12  1  0
 12 13  2  0
 12 14  1  0
 14 15  1  0
 15 16  1  0
 16 17  2  0
 17 18  1  0
 18 19  1  0
 18 20  2  0
 20 21  1  0
 21 22  1  0
 22 23  1  0
 22 24  1  0
 22 25  1  0
 21 26  2  0
 26 27  1  0
 27 28  3  0
 26 16  1  0
M  END
>  <Binding energies>  (26) 
[-5.17]

>  <Ligand effiencies>  (26) 
[-0.1782758620689655]

>  <Interactions>  (26) 
["V-A:TYR:539:CD1:4871, V-A:PRO:540:N:4882, V-A:MET:535:CE:4833, V-A:LEU:363:CD1:3186, V-A:PRO:540:CG:4884, V-A:PRO:540:CD:4885, V-A:PRO:540:CA:4881, V-A:TYR:531:CE2:4791, V-A:TYR:539:CE1:4873, V-B:LEU:475:CD2:9230, V-A:TYR:531:CZ:4792, V-A:PRO:540:CB:4883, H-A:ALA:541:N:4889, V-A:ALA:541:CB:4890, V-A:TYR:539:CZ:4875, V-A:ASP:366:CB:3209, V-A:ASP:366:CG:3210, V-A:TYR:539:CD2:4872, V-A:TYR:539:CE2:4874, H-B:TYR:484:OH:9319, H-A:TYR:539:OH:4876, V-A:ILE:538:CA:4858, V-B:ILE:369:CD1:8210, V-B:ILE:369:CG2:8208, V-B:SER:385:CA:8378, V-A:LEU:363:CA:3182, V-A:LEU:363:CG:3185, V-A:LEU:363:CB:3184, V-B:SER:385:C:8376"]

$$$$
3aa_Grossjean_2025
     RDKit          3D

 34 36  0  0  0  0  0  0  0  0999 V2000
  131.1020  113.4710   61.2270 C   0  0  0  0  0  0  0  0  0  0  0  0
  132.0060  114.6920   61.4240 C   0  0  0  0  0  0  0  0  0  0  0  0
  131.8220  115.5970   60.3420 O   0  0  0  0  0  0  0  0  0  0  0  0
  132.7190  116.5860   60.0980 C   0  0  0  0  0  0  0  0  0  0  0  0
  133.8350  116.3880   59.6070 O   0  0  0  0  0  0  0  0  0  0  0  0
  132.2270  117.9470   60.5020 C   0  0  0  0  0  0  0  0  0  0  0  0
  130.9270  118.1540   60.9860 C   0  0  0  0  0  0  0  0  0  0  0  0
  130.5050  119.4280   61.3560 C   0  0  0  0  0  0  0  0  0  0  0  0
  131.3720  120.5170   61.2570 C   0  0  0  0  0  0  0  0  0  0  0  0
  130.8460  121.7610   61.6600 N   0  0  0  0  0  0  0  0  0  0  0  0
  129.5840  122.2330   61.5680 C   0  0  0  0  0  0  0  0  0  0  0  0
  128.6310  121.6330   61.0670 O   0  0  0  0  0  0  0  0  0  0  0  0
  129.3620  123.6370   62.1300 C   0  0  0  0  0  0  0  0  0  0  0  0
  127.7610  124.3280   61.6120 S   0  0  0  0  0  0  0  0  0  0  0  0
  127.7010  124.2270   59.8370 C   0  0  0  0  0  0  0  0  0  0  0  0
  128.8730  124.5410   59.2350 N   0  0  0  0  0  0  0  0  0  0  0  0
  128.9640  124.5060   57.8800 C   0  0  0  0  0  0  0  0  0  0  0  0
  130.2980  124.8520   57.2910 C   0  0  0  0  0  0  0  0  0  0  0  0
  131.4400  124.9310   58.1030 C   0  0  0  0  0  0  0  0  0  0  0  0
  132.6830  125.2500   57.5630 C   0  0  0  0  0  0  0  0  0  0  0  0
  132.8000  125.4950   56.1990 C   0  0  0  0  0  0  0  0  0  0  0  0
  131.6840  125.4210   55.3720 C   0  0  0  0  0  0  0  0  0  0  0  0
  130.4440  125.0990   55.9150 C   0  0  0  0  0  0  0  0  0  0  0  0
  127.8660  124.1430   57.0950 C   0  0  0  0  0  0  0  0  0  0  0  0
  126.6360  123.8310   57.6960 C   0  0  0  0  0  0  0  0  0  0  0  0
  125.4460  123.4470   56.7960 C   0  0  0  0  0  0  0  0  0  0  0  0
  124.3620  124.1920   57.0250 F   0  0  0  0  0  0  0  0  0  0  0  0
  125.7710  123.6020   55.5120 F   0  0  0  0  0  0  0  0  0  0  0  0
  125.1100  122.1740   57.0060 F   0  0  0  0  0  0  0  0  0  0  0  0
  126.5410  123.8850   59.1080 C   0  0  0  0  0  0  0  0  0  0  0  0
  125.2670  123.6260   59.7850 C   0  0  0  0  0  0  0  0  0  0  0  0
  124.2610  123.4210   60.3210 N   0  0  0  0  0  0  0  0  0  0  0  0
  132.6690  120.3200   60.7610 C   0  0  0  0  0  0  0  0  0  0  0  0
  133.0890  119.0470   60.3900 C   0  0  0  0  0  0  0  0  0  0  0  0
  1  2  1  0
  2  3  1  0
  3  4  1  0
  4  5  2  0
  4  6  1  0
  6  7  2  0
  7  8  1  0
  8  9  2  0
  9 10  1  0
 10 11  1  0
 11 12  2  0
 11 13  1  0
 13 14  1  0
 14 15  1  0
 15 16  2  0
 16 17  1  0
 17 18  1  0
 18 19  2  0
 19 20  1  0
 20 21  2  0
 21 22  1  0
 22 23  2  0
 17 24  2  0
 24 25  1  0
 25 26  1  0
 26 27  1  0
 26 28  1  0
 26 29  1  0
 25 30  2  0
 30 31  1  0
 31 32  3  0
  9 33  1  0
 33 34  2  0
 34  6  1  0
 30 15  1  0
 23 18  1  0
M  END
>  <Binding energies>  (27) 
[-8.86]

>  <Ligand effiencies>  (27) 
[-0.2531428571428571]

>  <Interactions>  (27) 
["V-A:TYR:531:CZ:4792, V-B:TYR:539:CE1:9847, V-B:TYR:539:CD1:9845, V-B:TYR:531:CE2:9765, V-B:PRO:540:CG:9858, V-A:ASP:366:CB:3209, V-B:PRO:540:CA:9855, V-B:ILE:538:CB:9834, V-B:MET:535:CE:9807, V-B:TYR:539:CZ:9849, V-B:LEU:363:CD1:8160, V-B:PRO:540:N:9856, V-B:TYR:539:C:9839, V-B:PRO:540:CD:9859, V-B:TYR:531:CZ:9766, V-B:PRO:540:CB:9857, V-B:ILE:538:CG2:9835, V-A:LEU:475:CD2:4256, V-A:LEU:373:CD1:3277, V-A:PRO:482:CB:4323, V-B:ALA:541:CB:9864, V-A:PRO:482:CG:4324, H-B:ALA:541:N:9863, V-A:ASP:366:CG:3210, V-A:ASP:366:CA:3207, V-A:ILE:369:CG2:3234, V-A:SER:385:CA:3404, V-A:SER:385:CB:3406, V-A:HIS:383:CG:3387, H-A:SER:385:N:3405, V-A:HIS:383:CE1:3391, V-A:ASN:370:CG:3243, V-A:TYR:531:CE1:4790, V-A:THR:477:CA:4267, V-A:ASN:370:CB:3242, V-A:ASP:366:C:3205"]

$$$$
3ad_Grossjean_2025
     RDKit          3D

 29 31  0  0  0  0  0  0  0  0999 V2000
  123.9230  130.7980   60.7550 N   0  0  0  0  0  0  0  0  0  0  0  0
  124.9470  130.9710   60.2440 C   0  0  0  0  0  0  0  0  0  0  0  0
  126.2430  131.1880   59.5940 C   0  0  0  0  0  0  0  0  0  0  0  0
  126.5040  130.6610   58.3060 C   0  0  0  0  0  0  0  0  0  0  0  0
  125.4520  129.8780   57.4980 C   0  0  0  0  0  0  0  0  0  0  0  0
  124.2190  130.3700   57.6390 F   0  0  0  0  0  0  0  0  0  0  0  0
  125.7550  129.9170   56.1990 F   0  0  0  0  0  0  0  0  0  0  0  0
  125.4210  128.6050   57.8960 F   0  0  0  0  0  0  0  0  0  0  0  0
  127.7760  130.8570   57.7470 C   0  0  0  0  0  0  0  0  0  0  0  0
  128.7600  131.5570   58.4550 C   0  0  0  0  0  0  0  0  0  0  0  0
  130.1400  131.7820   57.9110 C   0  0  0  0  0  0  0  0  0  0  0  0
  130.3280  132.4010   56.6660 C   0  0  0  0  0  0  0  0  0  0  0  0
  131.6050  132.6140   56.1560 C   0  0  0  0  0  0  0  0  0  0  0  0
  132.7170  132.2090   56.8890 C   0  0  0  0  0  0  0  0  0  0  0  0
  132.5580  131.5960   58.1270 C   0  0  0  0  0  0  0  0  0  0  0  0
  131.2780  131.3860   58.6330 C   0  0  0  0  0  0  0  0  0  0  0  0
  128.5060  132.0550   59.6910 N   0  0  0  0  0  0  0  0  0  0  0  0
  127.2800  131.8960   60.2420 C   0  0  0  0  0  0  0  0  0  0  0  0
  127.1240  132.6230   61.8590 S   0  0  0  0  0  0  0  0  0  0  0  0
  127.8000  134.3080   61.7600 C   0  0  0  0  0  0  0  0  0  0  0  0
  126.7030  135.3610   61.5900 C   0  0  0  0  0  0  0  0  0  0  0  0
  125.5260  135.0280   61.7320 O   0  0  0  0  0  0  0  0  0  0  0  0
  127.1350  136.6040   61.2880 N   0  0  0  0  0  0  0  0  0  0  0  0
  126.4030  137.7870   61.0810 C   0  0  0  0  0  0  0  0  0  0  0  0
  125.6980  138.2650   62.1900 C   0  0  0  0  0  0  0  0  0  0  0  0
  124.9370  139.4270   62.0930 C   0  0  0  0  0  0  0  0  0  0  0  0
  124.8750  140.1120   60.8830 C   0  0  0  0  0  0  0  0  0  0  0  0
  125.5660  139.6440   59.7680 C   0  0  0  0  0  0  0  0  0  0  0  0
  126.3280  138.4820   59.8610 C   0  0  0  0  0  0  0  0  0  0  0  0
  1  2  3  0
  2  3  1  0
  3  4  2  0
  4  5  1  0
  5  6  1  0
  5  7  1  0
  5  8  1  0
  4  9  1  0
  9 10  2  0
 10 11  1  0
 11 12  2  0
 12 13  1  0
 13 14  2  0
 14 15  1  0
 15 16  2  0
 10 17  1  0
 17 18  2  0
 18 19  1  0
 19 20  1  0
 20 21  1  0
 21 22  2  0
 21 23  1  0
 23 24  1  0
 24 25  2  0
 25 26  1  0
 26 27  2  0
 27 28  1  0
 28 29  2  0
 18  3  1  0
 29 24  1  0
 16 11  1  0
M  END
>  <Binding energies>  (28) 
[-9.42]

>  <Ligand effiencies>  (28) 
[-0.314]

>  <Interactions>  (28) 
["V-A:TYR:539:CD1:4871, V-A:LEU:363:CD1:3186, V-A:ILE:538:CG2:4861, V-A:PRO:540:CD:4885, V-A:PRO:540:CA:4881, V-A:TYR:531:CE2:4791, V-A:TYR:539:CE1:4873, V-B:LEU:475:CD2:9230, V-A:ILE:538:CB:4860, V-A:PRO:540:CB:4883, V-A:ALA:541:CB:4890, V-A:TYR:539:CZ:4875, V-B:TYR:531:CZ:9766, V-B:ASP:366:CB:8183, V-B:ASP:366:CG:8184, V-A:TYR:539:CG:4870, H-A:TYR:539:O:4866, V-A:ILE:538:CA:4858, V-B:SER:385:CB:8380, V-B:PRO:482:CG:9298, V-B:LEU:373:CD1:8251, V-B:PRO:482:CB:9297, V-B:SER:385:CA:8378, V-B:ASP:366:CA:8181, V-A:TYR:539:CB:4869, V-A:VAL:344:CG1:2998, V-B:TYR:531:CE1:9764, V-B:HIS:383:CG:8361, V-B:LEU:475:CG:9228, V-B:HIS:383:CB:8360, V-B:HIS:383:CD2:8363, V-B:ASP:366:C:8179, V-B:ASN:370:CB:8216, V-B:LEU:373:CD2:8252"]

$$$$
3ai_Grossjean_2025
     RDKit          3D

 28 30  0  0  0  0  0  0  0  0999 V2000
  126.8810  130.0550   62.6970 N   0  0  0  0  0  0  0  0  0  0  0  0
  126.6690  131.1640   62.4470 C   0  0  0  0  0  0  0  0  0  0  0  0
  126.4000  132.5710   62.1310 C   0  0  0  0  0  0  0  0  0  0  0  0
  125.0740  133.0680   62.1170 C   0  0  0  0  0  0  0  0  0  0  0  0
  123.8540  132.1950   62.4690 C   0  0  0  0  0  0  0  0  0  0  0  0
  123.3940  131.5030   61.4250 F   0  0  0  0  0  0  0  0  0  0  0  0
  124.1820  131.3180   63.4190 F   0  0  0  0  0  0  0  0  0  0  0  0
  122.8550  132.9590   62.9120 F   0  0  0  0  0  0  0  0  0  0  0  0
  124.8650  134.4090   61.7620 C   0  0  0  0  0  0  0  0  0  0  0  0
  125.9470  135.2300   61.4280 C   0  0  0  0  0  0  0  0  0  0  0  0
  125.7810  136.6660   61.0310 C   0  0  0  0  0  0  0  0  0  0  0  0
  126.8890  137.4330   60.6370 C   0  0  0  0  0  0  0  0  0  0  0  0
  126.7420  138.7650   60.2620 C   0  0  0  0  0  0  0  0  0  0  0  0
  125.4800  139.3510   60.2750 C   0  0  0  0  0  0  0  0  0  0  0  0
  124.3660  138.6120   60.6590 C   0  0  0  0  0  0  0  0  0  0  0  0
  124.5170  137.2800   61.0320 C   0  0  0  0  0  0  0  0  0  0  0  0
  127.2160  134.7470   61.4350 N   0  0  0  0  0  0  0  0  0  0  0  0
  127.4450  133.4620   61.7980 C   0  0  0  0  0  0  0  0  0  0  0  0
  129.1690  133.0140   61.7690 S   0  0  0  0  0  0  0  0  0  0  0  0
  129.2910  131.2970   61.1620 C   0  0  0  0  0  0  0  0  0  0  0  0
  129.9070  131.1460   59.7640 C   0  0  0  0  0  0  0  0  0  0  0  0
  130.2060  130.0330   59.3230 O   0  0  0  0  0  0  0  0  0  0  0  0
  130.0820  132.3080   59.0960 N   0  0  0  0  0  0  0  0  0  0  0  0
  130.6080  132.4750   57.8210 C   0  0  0  0  0  0  0  0  0  0  0  0
  131.9010  132.0870   57.4730 C   0  0  0  0  0  0  0  0  0  0  0  0
  132.0310  132.4210   56.1450 C   0  0  0  0  0  0  0  0  0  0  0  0
  130.8760  132.9810   55.7140 O   0  0  0  0  0  0  0  0  0  0  0  0
  129.9810  133.0090   56.7860 N   0  0  0  0  0  0  0  0  0  0  0  0
  1  2  3  0
  2  3  1  0
  3  4  2  0
  4  5  1  0
  5  6  1  0
  5  7  1  0
  5  8  1  0
  4  9  1  0
  9 10  2  0
 10 11  1  0
 11 12  2  0
 12 13  1  0
 13 14  2  0
 14 15  1  0
 15 16  2  0
 10 17  1  0
 17 18  2  0
 18 19  1  0
 19 20  1  0
 20 21  1  0
 21 22  2  0
 21 23  1  0
 23 24  1  0
 24 25  1  0
 25 26  2  0
 26 27  1  0
 27 28  1  0
 18  3  1  0
 28 24  2  0
 16 11  1  0
M  END
>  <Binding energies>  (29) 
[-8.56]

>  <Ligand effiencies>  (29) 
[-0.29517241379310344]

>  <Interactions>  (29) 
["H-A:TYR:539:N:4868, V-A:TYR:539:CD1:4871, V-A:PRO:540:N:4882, V-A:LEU:363:CD1:3186, V-A:ILE:538:CG2:4861, V-A:PRO:540:CD:4885, V-A:PRO:540:CA:4881, V-A:TYR:531:CE2:4791, V-A:TYR:539:CE1:4873, V-B:LEU:475:CD2:9230, V-A:ILE:538:CB:4860, V-A:PRO:540:CB:4883, H-A:ALA:541:N:4889, V-A:ALA:541:CB:4890, V-A:TYR:539:C:4865, V-A:TYR:539:CG:4870, V-B:GLY:453:C:9013, V-B:GLY:454:CA:9020, H-A:TYR:539:O:4866, V-B:ILE:369:CD1:8210, V-B:SER:385:CB:8380, V-B:PRO:482:CG:9298, V-B:ILE:369:CG2:8208, V-B:LEU:373:CD1:8251, V-B:SER:385:CA:8378, V-B:ILE:369:CB:8207, V-B:SER:385:C:8376, V-A:TYR:539:CB:4869, V-A:VAL:344:CG1:2998, V-B:VAL:384:C:8368, V-B:LEU:373:CD2:8252, V-B:ILE:369:CG1:8209"]

$$$$
3aj_Grossjean_2025
     RDKit          3D

 28 30  0  0  0  0  0  0  0  0999 V2000
  123.8360  130.7880   60.8310 N   0  0  0  0  0  0  0  0  0  0  0  0
  124.8510  130.9740   60.3080 C   0  0  0  0  0  0  0  0  0  0  0  0
  126.1370  131.2080   59.6440 C   0  0  0  0  0  0  0  0  0  0  0  0
  126.4020  130.6590   58.3660 C   0  0  0  0  0  0  0  0  0  0  0  0
  125.3630  129.8330   57.5840 C   0  0  0  0  0  0  0  0  0  0  0  0
  125.3410  128.5490   57.9500 F   0  0  0  0  0  0  0  0  0  0  0  0
  124.1410  130.3290   57.7830 F   0  0  0  0  0  0  0  0  0  0  0  0
  125.6370  129.8700   56.2800 F   0  0  0  0  0  0  0  0  0  0  0  0
  127.6660  130.8730   57.7940 C   0  0  0  0  0  0  0  0  0  0  0  0
  128.6370  131.6090   58.4790 C   0  0  0  0  0  0  0  0  0  0  0  0
  130.0040  131.8590   57.9190 C   0  0  0  0  0  0  0  0  0  0  0  0
  131.1520  131.5310   58.6580 C   0  0  0  0  0  0  0  0  0  0  0  0
  132.4260  131.7570   58.1420 C   0  0  0  0  0  0  0  0  0  0  0  0
  132.5680  132.3150   56.8760 C   0  0  0  0  0  0  0  0  0  0  0  0
  131.4460  132.6470   56.1230 C   0  0  0  0  0  0  0  0  0  0  0  0
  130.1760  132.4190   56.6420 C   0  0  0  0  0  0  0  0  0  0  0  0
  128.3810  132.1270   59.7080 N   0  0  0  0  0  0  0  0  0  0  0  0
  127.1610  131.9550   60.2710 C   0  0  0  0  0  0  0  0  0  0  0  0
  127.0020  132.7220   61.8690 S   0  0  0  0  0  0  0  0  0  0  0  0
  127.6410  134.4270   61.7370 C   0  0  0  0  0  0  0  0  0  0  0  0
  126.5890  135.4900   61.3910 C   0  0  0  0  0  0  0  0  0  0  0  0
  125.3850  135.2340   61.4650 O   0  0  0  0  0  0  0  0  0  0  0  0
  127.0970  136.6850   61.0140 N   0  0  0  0  0  0  0  0  0  0  0  0
  126.3760  137.8160   60.6560 C   0  0  0  0  0  0  0  0  0  0  0  0
  126.3670  138.4340   59.4940 N   0  0  0  0  0  0  0  0  0  0  0  0
  125.5610  139.4770   59.5050 C   0  0  0  0  0  0  0  0  0  0  0  0
  124.8910  139.7240   60.7000 C   0  0  0  0  0  0  0  0  0  0  0  0
  125.3520  138.5200   61.8660 S   0  0  0  0  0  0  0  0  0  0  0  0
  1  2  3  0
  2  3  1  0
  3  4  2  0
  4  5  1  0
  5  6  1  0
  5  7  1  0
  5  8  1  0
  4  9  1  0
  9 10  2  0
 10 11  1  0
 11 12  2  0
 12 13  1  0
 13 14  2  0
 14 15  1  0
 15 16  2  0
 10 17  1  0
 17 18  2  0
 18 19  1  0
 19 20  1  0
 20 21  1  0
 21 22  2  0
 21 23  1  0
 23 24  1  0
 24 25  2  0
 25 26  1  0
 26 27  2  0
 27 28  1  0
 18  3  1  0
 28 24  1  0
 16 11  1  0
M  END
>  <Binding energies>  (30) 
[-8.53]

>  <Ligand effiencies>  (30) 
[-0.2941379310344827]

>  <Interactions>  (30) 
["V-A:TYR:539:CD1:4871, V-A:PRO:540:N:4882, V-A:LEU:363:CD1:3186, V-A:ILE:538:CG2:4861, V-A:PRO:540:CD:4885, V-A:PRO:540:CA:4881, V-A:TYR:539:CE1:4873, V-B:LEU:475:CD2:9230, V-A:ILE:538:CB:4860, V-A:PRO:540:CB:4883, V-A:ALA:541:CB:4890, V-A:TYR:539:C:4865, V-A:TYR:539:CZ:4875, V-B:TYR:531:CZ:9766, V-B:ASP:366:CB:8183, V-B:ASP:366:CG:8184, V-A:TYR:539:CG:4870, H-A:TYR:539:O:4866, V-A:ILE:538:CA:4858, V-B:SER:385:CB:8380, V-B:PRO:482:CG:9298, V-B:LEU:373:CD1:8251, V-B:PRO:482:CB:9297, V-B:SER:385:CA:8378, V-B:ASP:366:CA:8181, V-A:TYR:539:CB:4869, V-B:TYR:531:CE1:9764, V-B:HIS:383:CG:8361, V-B:HIS:383:CB:8360, V-B:HIS:383:CD2:8363, V-B:ASP:366:C:8179, V-B:LEU:373:CD2:8252, V-A:ILE:343:CD1:2991"]

$$$$
3ak_Grossjean_2025
     RDKit          3D

 33 34  0  0  0  0  0  0  0  0999 V2000
  131.6160  131.4960   55.2880 C   0  0  0  0  0  0  0  0  0  0  0  0
  132.4320  132.5290   55.8190 O   0  0  0  0  0  0  0  0  0  0  0  0
  132.7090  132.3750   57.2040 C   0  0  0  0  0  0  0  0  0  0  0  0
  131.3850  132.2610   57.9690 C   0  0  0  0  0  0  0  0  0  0  0  0
  130.4600  133.2030   57.4370 O   0  0  0  0  0  0  0  0  0  0  0  0
  129.1350  132.7170   57.2340 C   0  0  0  0  0  0  0  0  0  0  0  0
  128.9040  131.2980   57.7850 C   0  0  0  0  0  0  0  0  0  0  0  0
  127.7960  131.3160   58.6740 O   0  0  0  0  0  0  0  0  0  0  0  0
  126.6400  130.6630   58.1670 C   0  0  0  0  0  0  0  0  0  0  0  0
  126.2220  129.5170   59.1050 C   0  0  0  0  0  0  0  0  0  0  0  0
  125.2440  129.9170   60.1200 N   0  0  0  0  0  0  0  0  0  0  0  0
  124.1840  130.7230   59.9200 C   0  0  0  0  0  0  0  0  0  0  0  0
  123.9120  131.2070   58.8210 O   0  0  0  0  0  0  0  0  0  0  0  0
  123.2720  131.0560   61.1130 C   0  0  0  0  0  0  0  0  0  0  0  0
  124.0940  131.7010   62.6160 S   0  0  0  0  0  0  0  0  0  0  0  0
  125.5450  132.6200   62.1260 C   0  0  0  0  0  0  0  0  0  0  0  0
  125.3500  133.9390   61.8860 N   0  0  0  0  0  0  0  0  0  0  0  0
  126.3910  134.7210   61.5010 C   0  0  0  0  0  0  0  0  0  0  0  0
  126.0850  136.1680   61.2570 C   0  0  0  0  0  0  0  0  0  0  0  0
  124.7640  136.6380   61.2940 C   0  0  0  0  0  0  0  0  0  0  0  0
  124.4740  137.9820   61.0720 C   0  0  0  0  0  0  0  0  0  0  0  0
  125.5070  138.8770   60.8110 C   0  0  0  0  0  0  0  0  0  0  0  0
  126.8250  138.4380   60.7730 C   0  0  0  0  0  0  0  0  0  0  0  0
  127.1110  137.0940   60.9960 C   0  0  0  0  0  0  0  0  0  0  0  0
  127.6770  134.1850   61.3640 C   0  0  0  0  0  0  0  0  0  0  0  0
  127.9070  132.8230   61.6090 C   0  0  0  0  0  0  0  0  0  0  0  0
  129.3360  132.2700   61.4450 C   0  0  0  0  0  0  0  0  0  0  0  0
  129.9560  132.2510   62.6250 F   0  0  0  0  0  0  0  0  0  0  0  0
  129.2920  131.0280   60.9600 F   0  0  0  0  0  0  0  0  0  0  0  0
  130.0810  132.9990   60.6120 F   0  0  0  0  0  0  0  0  0  0  0  0
  126.8140  132.0130   61.9990 C   0  0  0  0  0  0  0  0  0  0  0  0
  126.9950  130.5820   62.2680 C   0  0  0  0  0  0  0  0  0  0  0  0
  127.1370  129.4530   62.4790 N   0  0  0  0  0  0  0  0  0  0  0  0
  1  2  1  0
  2  3  1  0
  3  4  1  0
  4  5  1  0
  5  6  1  0
  6  7  1  0
  7  8  1  0
  8  9  1  0
  9 10  1  0
 10 11  1  0
 11 12  1  0
 12 13  2  0
 12 14  1  0
 14 15  1  0
 15 16  1  0
 16 17  2  0
 17 18  1  0
 18 19  1  0
 19 20  2  0
 20 21  1  0
 21 22  2  0
 22 23  1  0
 23 24  2  0
 18 25  2  0
 25 26  1  0
 26 27  1  0
 27 28  1  0
 27 29  1  0
 27 30  1  0
 26 31  2  0
 31 32  1  0
 32 33  3  0
 31 16  1  0
 24 19  1  0
M  END
>  <Binding energies>  (31) 
[-7.26]

>  <Ligand effiencies>  (31) 
[-0.21352941176470588]

>  <Interactions>  (31) 
["H-A:TYR:539:N:4868, V-A:TYR:539:CD1:4871, V-A:PRO:540:N:4882, V-A:MET:535:CE:4833, V-A:LEU:363:CD1:3186, V-A:ILE:538:CG2:4861, V-A:PRO:540:CG:4884, V-A:PRO:540:CD:4885, V-A:PRO:540:CA:4881, V-A:TYR:531:CE2:4791, V-A:TYR:539:CE1:4873, V-A:GLU:543:CD:4906, V-B:LEU:475:CD2:9230, V-A:ILE:538:CB:4860, V-A:TYR:531:CZ:4792, V-A:PRO:540:CB:4883, V-A:ALA:541:CB:4890, V-A:TYR:539:C:4865, V-A:TYR:539:CZ:4875, V-A:PRO:540:C:4879, V-B:ASP:366:CB:8183, V-B:ASP:366:CG:8184, V-A:TYR:539:CD2:4872, V-A:TYR:539:CE2:4874, V-A:TYR:539:CG:4870, V-A:ALA:541:CA:4888, H-B:GLY:454:N:9021, H-B:ASP:366:OD1:8185, H-A:TYR:539:OH:4876, H-B:ASP:366:OD2:8186, V-B:ILE:369:CD1:8210, V-B:SER:385:CB:8380, V-B:PRO:482:CG:9298, V-B:ILE:369:CG2:8208, V-B:LEU:373:CD1:8251, V-B:PRO:482:CB:9297, V-B:SER:385:CA:8378, V-A:MET:535:CG:4831, V-B:ASP:366:CA:8181, V-B:ILE:369:CB:8207, V-A:TYR:539:CB:4869, V-A:VAL:344:CG1:2998, V-B:VAL:384:C:8368, V-B:ILE:369:CG1:8209"]

$$$$
3bk_Grossjean_2025
     RDKit          3D

 30 31  0  0  0  0  0  0  0  0999 V2000
  129.8920  129.1730   57.1960 C   0  0  0  0  0  0  0  0  0  0  0  0
  129.5360  130.4300   57.7510 O   0  0  0  0  0  0  0  0  0  0  0  0
  128.5030  131.0930   57.0340 C   0  0  0  0  0  0  0  0  0  0  0  0
  128.6430  132.6110   57.2150 C   0  0  0  0  0  0  0  0  0  0  0  0
  129.8870  133.0370   56.6780 O   0  0  0  0  0  0  0  0  0  0  0  0
  130.2610  132.3590   55.4860 C   0  0  0  0  0  0  0  0  0  0  0  0
  131.7230  131.9080   55.5960 C   0  0  0  0  0  0  0  0  0  0  0  0
  132.3260  132.5360   56.7190 O   0  0  0  0  0  0  0  0  0  0  0  0
  133.3040  131.7340   57.3700 C   0  0  0  0  0  0  0  0  0  0  0  0
  132.8690  131.4750   58.8200 C   0  0  0  0  0  0  0  0  0  0  0  0
  131.4720  131.8450   59.0570 N   0  0  0  0  0  0  0  0  0  0  0  0
  130.9040  132.0140   60.2630 C   0  0  0  0  0  0  0  0  0  0  0  0
  131.5110  131.8910   61.3280 O   0  0  0  0  0  0  0  0  0  0  0  0
  129.4240  132.4050   60.2710 C   0  0  0  0  0  0  0  0  0  0  0  0
  128.9800  133.3600   61.7570 S   0  0  0  0  0  0  0  0  0  0  0  0
  127.2790  133.8840   61.6240 C   0  0  0  0  0  0  0  0  0  0  0  0
  127.0820  135.2010   61.3650 N   0  0  0  0  0  0  0  0  0  0  0  0
  125.8200  135.6910   61.2500 C   0  0  0  0  0  0  0  0  0  0  0  0
  125.6930  137.1520   60.9420 C   0  0  0  0  0  0  0  0  0  0  0  0
  124.4640  137.8140   61.0940 C   0  0  0  0  0  0  0  0  0  0  0  0
  124.3390  139.1700   60.8050 C   0  0  0  0  0  0  0  0  0  0  0  0
  125.4450  139.8860   60.3590 C   0  0  0  0  0  0  0  0  0  0  0  0
  126.6750  139.2560   60.2040 C   0  0  0  0  0  0  0  0  0  0  0  0
  126.7960  137.9000   60.4960 C   0  0  0  0  0  0  0  0  0  0  0  0
  124.7090  134.8500   61.3890 C   0  0  0  0  0  0  0  0  0  0  0  0
  124.8930  133.4900   61.6570 C   0  0  0  0  0  0  0  0  0  0  0  0
  123.6540  132.6080   61.8030 C   0  0  0  0  0  0  0  0  0  0  0  0
  126.2040  132.9820   61.7800 C   0  0  0  0  0  0  0  0  0  0  0  0
  126.4270  131.5610   62.0580 C   0  0  0  0  0  0  0  0  0  0  0  0
  126.6030  130.4380   62.2790 N   0  0  0  0  0  0  0  0  0  0  0  0
  1  2  1  0
  2  3  1  0
  3  4  1  0
  4  5  1  0
  5  6  1  0
  6  7  1  0
  7  8  1  0
  8  9  1  0
  9 10  1  0
 10 11  1  0
 11 12  1  0
 12 13  2  0
 12 14  1  0
 14 15  1  0
 15 16  1  0
 16 17  2  0
 17 18  1  0
 18 19  1  0
 19 20  2  0
 20 21  1  0
 21 22  2  0
 22 23  1  0
 23 24  2  0
 18 25  2  0
 25 26  1  0
 26 27  1  0
 26 28  2  0
 28 29  1  0
 29 30  3  0
 28 16  1  0
 24 19  1  0
M  END
>  <Binding energies>  (32) 
[-7.92]

>  <Ligand effiencies>  (32) 
[-0.25548387096774194]

>  <Interactions>  (32) 
["H-A:TYR:539:N:4868, V-A:TYR:539:CD1:4871, V-A:PRO:540:N:4882, V-A:MET:535:CE:4833, V-A:LEU:363:CD1:3186, V-A:ILE:538:CG2:4861, V-A:PRO:540:CA:4881, V-A:TYR:531:CE2:4791, V-A:TYR:539:CE1:4873, V-B:LEU:475:CD2:9230, V-A:ILE:538:CB:4860, V-A:TYR:531:CZ:4792, V-A:PRO:540:CB:4883, H-A:ALA:541:N:4889, V-A:ALA:541:CB:4890, V-A:TYR:539:C:4865, V-A:TYR:539:CZ:4875, V-A:PRO:540:C:4879, V-A:ASP:366:CG:3210, V-A:TYR:539:CD2:4872, V-A:TYR:539:CE2:4874, V-A:TYR:539:CG:4870, V-A:ILE:538:CA:4858, V-B:ILE:369:CD1:8210, V-B:SER:385:CB:8380, V-B:PRO:482:CG:9298, V-B:ILE:369:CG2:8208, V-B:LEU:373:CD1:8251, V-B:SER:385:CA:8378, V-A:LEU:363:CA:3182, V-A:TYR:539:CB:4869, V-A:VAL:344:CG1:2998, V-B:HIS:383:CG:8361, V-B:HIS:383:CB:8360, V-B:VAL:384:C:8368, V-B:HIS:383:CD2:8363, V-B:LEU:373:CD2:8252, V-B:ILE:369:CG1:8209"]

$$$$
3cb_Grossjean_2025
     RDKit          3D

 30 32  0  0  0  0  0  0  0  0999 V2000
  131.5820  113.8800   61.3040 C   0  0  0  0  0  0  0  0  0  0  0  0
  132.3750  114.9740   60.8690 O   0  0  0  0  0  0  0  0  0  0  0  0
  131.9430  115.8020   59.8830 C   0  0  0  0  0  0  0  0  0  0  0  0
  131.5650  115.4030   58.7770 O   0  0  0  0  0  0  0  0  0  0  0  0
  131.9720  117.2530   60.2700 C   0  0  0  0  0  0  0  0  0  0  0  0
  130.8130  117.9440   60.6550 C   0  0  0  0  0  0  0  0  0  0  0  0
  130.8760  119.2880   61.0100 C   0  0  0  0  0  0  0  0  0  0  0  0
  132.0920  119.9710   60.9850 C   0  0  0  0  0  0  0  0  0  0  0  0
  132.0400  121.3270   61.3670 N   0  0  0  0  0  0  0  0  0  0  0  0
  133.0120  122.1300   61.8530 C   0  0  0  0  0  0  0  0  0  0  0  0
  134.1820  121.7890   62.0350 O   0  0  0  0  0  0  0  0  0  0  0  0
  132.5580  123.5640   62.1610 C   0  0  0  0  0  0  0  0  0  0  0  0
  130.7490  123.8130   62.1760 S   0  0  0  0  0  0  0  0  0  0  0  0
  130.2110  123.9950   60.4890 C   0  0  0  0  0  0  0  0  0  0  0  0
  131.1690  124.4890   59.6670 N   0  0  0  0  0  0  0  0  0  0  0  0
  130.8730  124.6690   58.3610 C   0  0  0  0  0  0  0  0  0  0  0  0
  131.9970  125.2130   57.4990 C   0  0  0  0  0  0  0  0  0  0  0  0
  129.6220  124.3740   57.8280 C   0  0  0  0  0  0  0  0  0  0  0  0
  128.6100  123.8780   58.6610 C   0  0  0  0  0  0  0  0  0  0  0  0
  127.2820  123.5820   58.0420 C   0  0  0  0  0  0  0  0  0  0  0  0
  126.1150  124.1410   58.5790 C   0  0  0  0  0  0  0  0  0  0  0  0
  124.8740  123.8810   58.0030 C   0  0  0  0  0  0  0  0  0  0  0  0
  124.7960  123.0600   56.8810 C   0  0  0  0  0  0  0  0  0  0  0  0
  125.9460  122.5020   56.3300 C   0  0  0  0  0  0  0  0  0  0  0  0
  127.1850  122.7660   56.9070 C   0  0  0  0  0  0  0  0  0  0  0  0
  128.9010  123.6950   60.0380 C   0  0  0  0  0  0  0  0  0  0  0  0
  127.8550  123.2690   60.9730 C   0  0  0  0  0  0  0  0  0  0  0  0
  127.0300  122.9320   61.7100 N   0  0  0  0  0  0  0  0  0  0  0  0
  133.2560  119.2870   60.6060 C   0  0  0  0  0  0  0  0  0  0  0  0
  133.1930  117.9420   60.2510 C   0  0  0  0  0  0  0  0  0  0  0  0
  1  2  1  0
  2  3  1  0
  3  4  2  0
  3  5  1  0
  5  6  2  0
  6  7  1  0
  7  8  2  0
  8  9  1  0
  9 10  1  0
 10 11  2  0
 10 12  1  0
 12 13  1  0
 13 14  1  0
 14 15  2  0
 15 16  1  0
 16 17  1  0
 16 18  2  0
 18 19  1  0
 19 20  1  0
 20 21  2  0
 21 22  1  0
 22 23  2  0
 23 24  1  0
 24 25  2  0
 19 26  2  0
 26 27  1  0
 27 28  3  0
  8 29  1  0
 29 30  2  0
 30  5  1  0
 26 14  1  0
 25 20  1  0
M  END
>  <Binding energies>  (33) 
[-9.52]

>  <Ligand effiencies>  (33) 
[-0.30709677419354836]

>  <Interactions>  (33) 
["V-B:TYR:539:CE1:9847, V-B:TYR:539:CD1:9845, V-B:TYR:531:CE2:9765, V-A:ASP:366:CB:3209, V-B:PRO:540:CA:9855, V-B:ILE:538:CB:9834, V-B:TYR:539:CZ:9849, V-B:LEU:363:CD1:8160, V-B:PRO:540:N:9856, V-B:TYR:539:C:9839, V-B:PRO:540:CD:9859, V-B:PRO:540:CB:9857, V-B:ILE:538:CG2:9835, V-A:LEU:475:CD2:4256, V-A:LEU:373:CD1:3277, V-A:PRO:482:CB:4323, V-A:PRO:482:CG:4324, H-B:ALA:541:N:9863, V-B:ILE:538:C:9830, V-B:ILE:538:CA:9832, V-A:ILE:369:CG2:3234, H-A:GLY:454:N:4047, V-A:SER:385:CA:3404, V-A:SER:385:CB:3406, V-B:TYR:539:CB:9843, V-A:HIS:383:CG:3387, V-A:THR:477:CA:4267"]

$$$$
3ch_Grossjean_2025
     RDKit          3D

 32 34  0  0  0  0  0  0  0  0999 V2000
  128.6530  123.1570   56.1250 C   0  0  0  0  0  0  0  0  0  0  0  0
  128.8600  122.4870   57.3640 O   0  0  0  0  0  0  0  0  0  0  0  0
  128.3160  123.0110   58.5230 C   0  0  0  0  0  0  0  0  0  0  0  0
  129.0760  123.5610   59.5680 C   0  0  0  0  0  0  0  0  0  0  0  0
  128.4540  124.0840   60.7110 C   0  0  0  0  0  0  0  0  0  0  0  0
  129.1290  124.6580   61.8050 N   0  0  0  0  0  0  0  0  0  0  0  0
  130.0710  125.6260   61.8260 C   0  0  0  0  0  0  0  0  0  0  0  0
  130.5150  126.2120   60.8380 O   0  0  0  0  0  0  0  0  0  0  0  0
  130.5730  126.0280   63.2120 C   0  0  0  0  0  0  0  0  0  0  0  0
  132.1590  125.2420   63.6230 S   0  0  0  0  0  0  0  0  0  0  0  0
  132.4780  124.0670   62.3250 C   0  0  0  0  0  0  0  0  0  0  0  0
  133.2100  124.5660   61.2990 N   0  0  0  0  0  0  0  0  0  0  0  0
  133.5010  123.7530   60.2580 C   0  0  0  0  0  0  0  0  0  0  0  0
  134.3180  124.3770   59.1420 C   0  0  0  0  0  0  0  0  0  0  0  0
  133.0780  122.4280   60.1990 C   0  0  0  0  0  0  0  0  0  0  0  0
  132.3270  121.8910   61.2540 C   0  0  0  0  0  0  0  0  0  0  0  0
  131.8860  120.4670   61.1420 C   0  0  0  0  0  0  0  0  0  0  0  0
  132.7930  119.4790   60.7420 C   0  0  0  0  0  0  0  0  0  0  0  0
  132.3880  118.1520   60.6280 C   0  0  0  0  0  0  0  0  0  0  0  0
  131.0680  117.8080   60.9110 C   0  0  0  0  0  0  0  0  0  0  0  0
  130.1520  118.7790   61.3040 C   0  0  0  0  0  0  0  0  0  0  0  0
  130.5610  120.1060   61.4160 C   0  0  0  0  0  0  0  0  0  0  0  0
  132.0300  122.7250   62.3620 C   0  0  0  0  0  0  0  0  0  0  0  0
  131.3300  122.1910   63.5340 C   0  0  0  0  0  0  0  0  0  0  0  0
  130.7770  121.7700   64.4590 N   0  0  0  0  0  0  0  0  0  0  0  0
  127.0620  124.0350   60.8100 C   0  0  0  0  0  0  0  0  0  0  0  0
  126.2810  123.4890   59.7800 C   0  0  0  0  0  0  0  0  0  0  0  0
  124.8990  123.4170   59.8130 O   0  0  0  0  0  0  0  0  0  0  0  0
  124.2170  123.6160   61.0460 C   0  0  0  0  0  0  0  0  0  0  0  0
  126.9200  122.9780   58.6430 C   0  0  0  0  0  0  0  0  0  0  0  0
  126.1660  122.4570   57.6190 O   0  0  0  0  0  0  0  0  0  0  0  0
  125.3670  123.4170   56.9410 C   0  0  0  0  0  0  0  0  0  0  0  0
  1  2  1  0
  2  3  1  0
  3  4  2  0
  4  5  1  0
  5  6  1  0
  6  7  1  0
  7  8  2  0
  7  9  1  0
  9 10  1  0
 10 11  1  0
 11 12  2  0
 12 13  1  0
 13 14  1  0
 13 15  2  0
 15 16  1  0
 16 17  1  0
 17 18  2  0
 18 19  1  0
 19 20  2  0
 20 21  1  0
 21 22  2  0
 16 23  2  0
 23 24  1  0
 24 25  3  0
  5 26  2  0
 26 27  1  0
 27 28  1  0
 28 29  1  0
 27 30  2  0
 30 31  1  0
 31 32  1  0
 30  3  1  0
 23 11  1  0
 22 17  1  0
M  END
>  <Binding energies>  (34) 
[-7.99]

>  <Ligand effiencies>  (34) 
[-0.24212121212121213]

>  <Interactions>  (34) 
["V-B:ASN:362:C:8143, H-B:TYR:539:N:9842, V-B:TYR:539:CE1:9847, V-B:TYR:539:CD1:9845, V-A:ASP:366:CB:3209, V-B:PRO:540:CA:9855, V-B:ASN:362:CB:8147, V-B:MET:535:CE:9807, V-B:TYR:539:CZ:9849, V-B:PRO:540:N:9856, V-B:TYR:539:C:9839, V-B:PRO:540:CB:9857, V-A:LEU:475:CD2:4256, V-A:LEU:373:CD1:3277, V-A:PRO:482:CB:4323, V-B:ALA:541:CB:9864, V-A:PRO:482:CG:4324, H-B:GLU:543:OE1:9881, V-A:ASP:366:CG:3210, H-A:ARG:545:NH2:4926, V-A:ILE:369:CB:3233, V-A:ASP:366:CA:3207, V-B:ASP:366:CG:8184, V-A:ILE:369:CD1:3236, V-A:ILE:369:CG2:3234, H-A:TYR:484:OH:4345, V-A:SER:385:CA:3404, V-A:SER:385:CB:3406, V-B:TYR:539:CE2:9848, V-B:TYR:539:CD2:9846, V-A:ASP:366:C:3205"]

$$$$
3ci_Grossjean_2025
     RDKit          3D

 25 27  0  0  0  0  0  0  0  0999 V2000
  130.1020  121.6630   61.7940 C   0  0  0  0  0  0  0  0  0  0  0  0
  129.9580  122.4980   60.5350 C   0  0  0  0  0  0  0  0  0  0  0  0
  128.7880  122.4890   59.7820 C   0  0  0  0  0  0  0  0  0  0  0  0
  128.6960  123.2900   58.6360 C   0  0  0  0  0  0  0  0  0  0  0  0
  127.4150  123.2610   57.8670 C   0  0  0  0  0  0  0  0  0  0  0  0
  127.3980  122.8890   56.5170 C   0  0  0  0  0  0  0  0  0  0  0  0
  126.2030  122.8710   55.8030 C   0  0  0  0  0  0  0  0  0  0  0  0
  125.0180  123.2330   56.4360 C   0  0  0  0  0  0  0  0  0  0  0  0
  125.0180  123.6140   57.7750 C   0  0  0  0  0  0  0  0  0  0  0  0
  126.2150  123.6300   58.4860 C   0  0  0  0  0  0  0  0  0  0  0  0
  129.8170  124.0810   58.2740 C   0  0  0  0  0  0  0  0  0  0  0  0
  129.7950  124.9060   57.0620 C   0  0  0  0  0  0  0  0  0  0  0  0
  129.7760  125.5570   56.1050 N   0  0  0  0  0  0  0  0  0  0  0  0
  130.9670  124.0340   59.1000 C   0  0  0  0  0  0  0  0  0  0  0  0
  132.4270  125.0050   58.7510 S   0  0  0  0  0  0  0  0  0  0  0  0
  133.8870  124.1900   59.4780 C   0  0  0  0  0  0  0  0  0  0  0  0
  133.7620  123.9520   60.9870 C   0  0  0  0  0  0  0  0  0  0  0  0
  134.0440  122.8440   61.4470 O   0  0  0  0  0  0  0  0  0  0  0  0
  133.3250  125.0050   61.7130 N   0  0  0  0  0  0  0  0  0  0  0  0
  133.1520  125.0640   63.0890 C   0  0  0  0  0  0  0  0  0  0  0  0
  131.8980  125.0520   63.6990 C   0  0  0  0  0  0  0  0  0  0  0  0
  132.1560  125.1270   65.0490 C   0  0  0  0  0  0  0  0  0  0  0  0
  133.4960  125.1800   65.2400 O   0  0  0  0  0  0  0  0  0  0  0  0
  134.1160  125.1410   63.9910 N   0  0  0  0  0  0  0  0  0  0  0  0
  131.0310  123.2490   60.2050 N   0  0  0  0  0  0  0  0  0  0  0  0
  1  2  1  0
  2  3  2  0
  3  4  1  0
  4  5  1  0
  5  6  2  0
  6  7  1  0
  7  8  2  0
  8  9  1  0
  9 10  2  0
  4 11  2  0
 11 12  1  0
 12 13  3  0
 11 14  1  0
 14 15  1  0
 15 16  1  0
 16 17  1  0
 17 18  2  0
 17 19  1  0
 19 20  1  0
 20 21  1  0
 21 22  2  0
 22 23  1  0
 23 24  1  0
 14 25  2  0
 25  2  1  0
 10  5  1  0
 24 20  2  0
M  END
>  <Binding energies>  (35) 
[-8.82]

>  <Ligand effiencies>  (35) 
[-0.3392307692307692]

>  <Interactions>  (35) 
["V-A:ARG:545:CZ:4924, V-B:TYR:539:CE1:9847, V-B:TYR:539:CD1:9845, V-B:TYR:531:CE2:9765, V-A:ASP:366:CB:3209, V-B:PRO:540:CA:9855, V-B:ILE:538:CB:9834, V-B:MET:535:CE:9807, V-B:TYR:539:CZ:9849, V-B:LEU:363:CD1:8160, V-B:PRO:540:N:9856, V-B:TYR:539:C:9839, V-B:PRO:540:CB:9857, V-B:ILE:538:CG2:9835, V-A:LEU:475:CD2:4256, V-B:ALA:541:CB:9864, V-A:ASP:366:CG:3210, H-A:ARG:545:NH2:4926, V-A:ILE:369:CB:3233, V-A:ASP:366:CA:3207, V-B:ILE:538:CA:9832, V-A:ILE:369:CD1:3236, H-B:TYR:539:OH:9850, V-A:ILE:369:CG2:3234, H-A:GLY:454:N:4047, H-A:ARG:545:NE:4922, H-A:TYR:484:OH:4345, H-A:ASP:366:OD2:3212, H-A:ASP:366:OD1:3211, H-A:ARG:545:NH1:4925"]

$$$$
3ck_Grossjean_2025
     RDKit          3D

 30 31  0  0  0  0  0  0  0  0999 V2000
  126.3880  124.0960   62.0070 C   0  0  0  0  0  0  0  0  0  0  0  0
  127.0650  122.8830   61.7190 O   0  0  0  0  0  0  0  0  0  0  0  0
  128.4390  123.0620   61.4050 C   0  0  0  0  0  0  0  0  0  0  0  0
  128.5720  123.6230   59.9840 C   0  0  0  0  0  0  0  0  0  0  0  0
  127.8030  122.8280   59.0900 O   0  0  0  0  0  0  0  0  0  0  0  0
  126.5210  123.3650   58.7970 C   0  0  0  0  0  0  0  0  0  0  0  0
  126.2710  123.2710   57.2870 C   0  0  0  0  0  0  0  0  0  0  0  0
  127.1810  122.3270   56.7420 O   0  0  0  0  0  0  0  0  0  0  0  0
  127.4980  122.5270   55.3730 C   0  0  0  0  0  0  0  0  0  0  0  0
  128.9150  123.1200   55.2530 C   0  0  0  0  0  0  0  0  0  0  0  0
  129.4430  123.6440   56.5160 N   0  0  0  0  0  0  0  0  0  0  0  0
  130.3750  124.6070   56.6370 C   0  0  0  0  0  0  0  0  0  0  0  0
  130.8790  125.1850   55.6710 O   0  0  0  0  0  0  0  0  0  0  0  0
  130.7810  124.9580   58.0770 C   0  0  0  0  0  0  0  0  0  0  0  0
  132.5500  124.7330   58.4690 S   0  0  0  0  0  0  0  0  0  0  0  0
  132.7000  123.9320   60.0590 C   0  0  0  0  0  0  0  0  0  0  0  0
  133.1560  122.6540   60.0310 N   0  0  0  0  0  0  0  0  0  0  0  0
  133.2900  121.9860   61.1980 C   0  0  0  0  0  0  0  0  0  0  0  0
  133.8020  120.5630   61.0870 C   0  0  0  0  0  0  0  0  0  0  0  0
  132.9780  122.5560   62.4290 C   0  0  0  0  0  0  0  0  0  0  0  0
  132.5000  123.8720   62.4820 C   0  0  0  0  0  0  0  0  0  0  0  0
  132.1560  124.4340   63.8230 C   0  0  0  0  0  0  0  0  0  0  0  0
  130.8510  124.3230   64.3180 C   0  0  0  0  0  0  0  0  0  0  0  0
  130.5210  124.8540   65.5630 C   0  0  0  0  0  0  0  0  0  0  0  0
  131.4950  125.5030   66.3150 C   0  0  0  0  0  0  0  0  0  0  0  0
  132.7960  125.6290   65.8330 C   0  0  0  0  0  0  0  0  0  0  0  0
  133.1230  125.0980   64.5880 C   0  0  0  0  0  0  0  0  0  0  0  0
  132.3660  124.5890   61.2660 C   0  0  0  0  0  0  0  0  0  0  0  0
  131.9100  125.9840   61.2640 C   0  0  0  0  0  0  0  0  0  0  0  0
  131.5500  127.0840   61.2630 N   0  0  0  0  0  0  0  0  0  0  0  0
  1  2  1  0
  2  3  1  0
  3  4  1  0
  4  5  1  0
  5  6  1  0
  6  7  1  0
  7  8  1  0
  8  9  1  0
  9 10  1  0
 10 11  1  0
 11 12  1  0
 12 13  2  0
 12 14  1  0
 14 15  1  0
 15 16  1  0
 16 17  2  0
 17 18  1  0
 18 19  1  0
 18 20  2  0
 20 21  1  0
 21 22  1  0
 22 23  2  0
 23 24  1  0
 24 25  2  0
 25 26  1  0
 26 27  2  0
 21 28  2  0
 28 29  1  0
 29 30  3  0
 28 16  1  0
 27 22  1  0
M  END
>  <Binding energies>  (36) 
[-7.08]

>  <Ligand effiencies>  (36) 
[-0.22838709677419355]

>  <Interactions>  (36) 
["V-A:ARG:545:CZ:4924, H-B:TYR:539:N:9842, V-B:TYR:539:CE1:9847, V-B:TYR:539:CD1:9845, V-B:PRO:540:CA:9855, V-B:ILE:538:CB:9834, V-B:MET:535:CE:9807, V-B:TYR:539:CZ:9849, V-B:PRO:540:N:9856, V-B:GLU:543:CD:9880, V-B:PRO:540:CB:9857, V-B:ILE:538:CG2:9835, V-A:LEU:475:CD2:4256, V-B:ALA:541:CB:9864, H-B:ALA:541:N:9863, V-A:ASP:366:CG:3210, H-A:ARG:545:NH2:4926, V-A:GLY:454:CA:4046, V-B:ILE:538:C:9830, V-A:HIS:456:CE1:4066, V-B:GLU:543:CG:9879, V-B:ILE:538:CA:9832, V-A:TYR:484:CZ:4344, V-B:GLU:543:CB:9878, V-A:ILE:369:CD1:3236, H-B:TYR:539:OH:9850, V-A:ILE:369:CG2:3234, V-A:ARG:545:CG:4920, V-A:ARG:545:CD:4921, V-A:SER:385:CA:3404, V-B:TYR:539:CE2:9848, V-B:TYR:539:CD2:9846, V-A:SER:385:C:3402, H-A:ASN:370:ND2:3245"]

$$$$
4aa_Grossjean_2025
     RDKit          3D

 26 28  0  0  0  0  0  0  0  0999 V2000
  130.6810  113.1080   61.3200 C   0  0  0  0  0  0  0  0  0  0  0  0
  132.0000  113.8620   61.5180 C   0  0  0  0  0  0  0  0  0  0  0  0
  132.5020  114.2760   60.2540 O   0  0  0  0  0  0  0  0  0  0  0  0
  133.2950  115.3720   60.1390 C   0  0  0  0  0  0  0  0  0  0  0  0
  134.5030  115.3150   59.8830 O   0  0  0  0  0  0  0  0  0  0  0  0
  132.5590  116.6620   60.3580 C   0  0  0  0  0  0  0  0  0  0  0  0
  133.2830  117.8600   60.4210 C   0  0  0  0  0  0  0  0  0  0  0  0
  132.6300  119.0730   60.6280 C   0  0  0  0  0  0  0  0  0  0  0  0
  131.2420  119.1130   60.7680 C   0  0  0  0  0  0  0  0  0  0  0  0
  130.6870  120.3900   60.9810 N   0  0  0  0  0  0  0  0  0  0  0  0
  131.2650  121.5300   61.4300 C   0  0  0  0  0  0  0  0  0  0  0  0
  132.4420  121.6170   61.7830 O   0  0  0  0  0  0  0  0  0  0  0  0
  130.3800  122.6940   61.4990 C   0  0  0  0  0  0  0  0  0  0  0  0
  130.9570  124.2120   62.1920 S   0  0  0  0  0  0  0  0  0  0  0  0
  129.4010  124.9710   61.9460 C   0  0  0  0  0  0  0  0  0  0  0  0
  129.1700  126.2370   62.2950 N   0  0  0  0  0  0  0  0  0  0  0  0
  127.9200  126.7020   62.0540 C   0  0  0  0  0  0  0  0  0  0  0  0
  127.6770  128.1440   62.4630 C   0  0  0  0  0  0  0  0  0  0  0  0
  126.9070  125.9400   61.4760 C   0  0  0  0  0  0  0  0  0  0  0  0
  127.1530  124.6120   61.1100 C   0  0  0  0  0  0  0  0  0  0  0  0
  126.0160  123.8190   60.4820 C   0  0  0  0  0  0  0  0  0  0  0  0
  128.4520  124.0870   61.3500 C   0  0  0  0  0  0  0  0  0  0  0  0
  129.0350  122.7940   61.1100 C   0  0  0  0  0  0  0  0  0  0  0  0
  128.3240  121.7640   60.5460 N   0  0  0  0  0  0  0  0  0  0  0  0
  130.5100  117.9190   60.7120 C   0  0  0  0  0  0  0  0  0  0  0  0
  131.1650  116.7070   60.5080 C   0  0  0  0  0  0  0  0  0  0  0  0
  1  2  1  0
  2  3  1  0
  3  4  1  0
  4  5  2  0
  4  6  1  0
  6  7  2  0
  7  8  1  0
  8  9  2  0
  9 10  1  0
 10 11  1  0
 11 12  2  0
 11 13  1  0
 13 14  1  0
 14 15  1  0
 15 16  2  0
 16 17  1  0
 17 18  1  0
 17 19  2  0
 19 20  1  0
 20 21  1  0
 20 22  2  0
 22 23  1  0
 23 24  1  0
  9 25  1  0
 25 26  2  0
 26  6  1  0
 23 13  2  0
 22 15  1  0
M  END
>  <Binding energies>  (37) 
[-7.61]

>  <Ligand effiencies>  (37) 
[-0.2624137931034483]

>  <Interactions>  (37) 
["V-B:TYR:539:CE1:9847, V-B:TYR:539:CD1:9845, V-B:PRO:540:CA:9855, V-B:PRO:540:N:9856, V-B:TYR:539:C:9839, V-B:GLU:543:CD:9880, V-B:PRO:540:CB:9857, V-A:LEU:475:CD2:4256, V-A:LEU:373:CD1:3277, V-B:PRO:540:C:9853, V-A:PRO:482:CB:4323, V-B:ALA:541:CB:9864, V-A:PRO:482:CG:4324, H-B:TYR:539:O:9840, V-A:SER:385:CA:3404, V-A:SER:385:CB:3406, V-B:TYR:539:CB:9843, V-A:HIS:383:CG:3387, V-A:HIS:383:CB:3386, H-A:SER:385:N:3405, V-A:HIS:383:CE1:3391, V-A:THR:477:C:4265, V-A:CYS:476:C:4261, V-A:THR:477:CA:4267, H-A:HIS:383:ND1:3388, H-A:VAL:384:N:3397, H-B:PRO:540:O:9854"]

$$$$
4ab_Grossjean_2025
     RDKit          3D

 25 27  0  0  0  0  0  0  0  0999 V2000
  132.0950  113.8670   61.1830 C   0  0  0  0  0  0  0  0  0  0  0  0
  133.2830  114.6450   61.1470 O   0  0  0  0  0  0  0  0  0  0  0  0
  133.4840  115.5690   60.1740 C   0  0  0  0  0  0  0  0  0  0  0  0
  134.2410  115.3930   59.2130 O   0  0  0  0  0  0  0  0  0  0  0  0
  132.7010  116.8330   60.3850 C   0  0  0  0  0  0  0  0  0  0  0  0
  133.3780  118.0590   60.4210 C   0  0  0  0  0  0  0  0  0  0  0  0
  132.6800  119.2470   60.6180 C   0  0  0  0  0  0  0  0  0  0  0  0
  131.2940  119.2360   60.7740 C   0  0  0  0  0  0  0  0  0  0  0  0
  130.6930  120.4930   60.9730 N   0  0  0  0  0  0  0  0  0  0  0  0
  131.1790  121.6100   61.5670 C   0  0  0  0  0  0  0  0  0  0  0  0
  132.2890  121.6870   62.0950 O   0  0  0  0  0  0  0  0  0  0  0  0
  130.2730  122.7600   61.5710 C   0  0  0  0  0  0  0  0  0  0  0  0
  130.8130  124.3170   62.2060 S   0  0  0  0  0  0  0  0  0  0  0  0
  129.2490  125.0380   61.9000 C   0  0  0  0  0  0  0  0  0  0  0  0
  128.9900  126.3130   62.1900 N   0  0  0  0  0  0  0  0  0  0  0  0
  127.7380  126.7460   61.9060 C   0  0  0  0  0  0  0  0  0  0  0  0
  127.4630  128.1990   62.2490 C   0  0  0  0  0  0  0  0  0  0  0  0
  126.7490  125.9440   61.3410 C   0  0  0  0  0  0  0  0  0  0  0  0
  127.0240  124.6050   61.0390 C   0  0  0  0  0  0  0  0  0  0  0  0
  125.9110  123.7680   60.4250 C   0  0  0  0  0  0  0  0  0  0  0  0
  128.3260  124.1120   61.3260 C   0  0  0  0  0  0  0  0  0  0  0  0
  128.9340  122.8210   61.1550 C   0  0  0  0  0  0  0  0  0  0  0  0
  128.2500  121.7550   60.6260 N   0  0  0  0  0  0  0  0  0  0  0  0
  130.6080  118.0130   60.7440 C   0  0  0  0  0  0  0  0  0  0  0  0
  131.3080  116.8250   60.5500 C   0  0  0  0  0  0  0  0  0  0  0  0
  1  2  1  0
  2  3  1  0
  3  4  2  0
  3  5  1  0
  5  6  2  0
  6  7  1  0
  7  8  2  0
  8  9  1  0
  9 10  1  0
 10 11  2  0
 10 12  1  0
 12 13  1  0
 13 14  1  0
 14 15  2  0
 15 16  1  0
 16 17  1  0
 16 18  2  0
 18 19  1  0
 19 20  1  0
 19 21  2  0
 21 22  1  0
 22 23  1  0
  8 24  1  0
 24 25  2  0
 25  5  1  0
 22 12  2  0
 21 14  1  0
M  END
>  <Binding energies>  (38) 
[-7.28]

>  <Ligand effiencies>  (38) 
[-0.26]

>  <Interactions>  (38) 
["V-B:TYR:539:CE1:9847, V-B:TYR:539:CD1:9845, V-B:PRO:540:CA:9855, V-B:PRO:540:N:9856, V-B:TYR:539:C:9839, V-B:GLU:543:CD:9880, V-B:PRO:540:CB:9857, V-A:LEU:475:CD2:4256, V-A:LEU:373:CD1:3277, V-B:PRO:540:C:9853, V-A:PRO:482:CB:4323, V-B:ALA:541:CB:9864, V-A:PRO:482:CG:4324, V-B:ALA:541:CA:9862, H-B:TYR:539:O:9840, V-A:SER:385:CA:3404, V-A:SER:385:CB:3406, V-B:TYR:539:CB:9843, V-A:HIS:383:CG:3387, V-A:HIS:383:CB:3386, V-A:VAL:384:C:3394, V-A:THR:477:C:4265, V-A:THR:477:CA:4267, H-A:VAL:384:N:3397, H-B:PRO:540:O:9854"]

$$$$
4ac_Grossjean_2025
     RDKit          3D

 23 25  0  0  0  0  0  0  0  0999 V2000
  134.2570  125.1410   66.9370 C   0  0  0  0  0  0  0  0  0  0  0  0
  134.2920  125.4470   65.5470 O   0  0  0  0  0  0  0  0  0  0  0  0
  133.1780  125.1870   64.7710 C   0  0  0  0  0  0  0  0  0  0  0  0
  133.4050  124.9570   63.4150 C   0  0  0  0  0  0  0  0  0  0  0  0
  132.3430  124.6860   62.5550 C   0  0  0  0  0  0  0  0  0  0  0  0
  131.0380  124.6330   63.0450 C   0  0  0  0  0  0  0  0  0  0  0  0
  130.0300  124.3670   62.1010 N   0  0  0  0  0  0  0  0  0  0  0  0
  129.8930  123.3060   61.2690 C   0  0  0  0  0  0  0  0  0  0  0  0
  130.7030  122.3800   61.1940 O   0  0  0  0  0  0  0  0  0  0  0  0
  128.6940  123.3190   60.4270 C   0  0  0  0  0  0  0  0  0  0  0  0
  128.8330  123.1700   58.6750 S   0  0  0  0  0  0  0  0  0  0  0  0
  127.0980  123.2760   58.4800 C   0  0  0  0  0  0  0  0  0  0  0  0
  126.5180  123.2210   57.2810 N   0  0  0  0  0  0  0  0  0  0  0  0
  125.1660  123.3140   57.2690 C   0  0  0  0  0  0  0  0  0  0  0  0
  124.5250  123.2490   55.8950 C   0  0  0  0  0  0  0  0  0  0  0  0
  124.3890  123.4630   58.4160 C   0  0  0  0  0  0  0  0  0  0  0  0
  125.0020  123.5210   59.6730 C   0  0  0  0  0  0  0  0  0  0  0  0
  124.1120  123.6840   60.8960 C   0  0  0  0  0  0  0  0  0  0  0  0
  126.4180  123.4240   59.7250 C   0  0  0  0  0  0  0  0  0  0  0  0
  127.3520  123.4430   60.8200 C   0  0  0  0  0  0  0  0  0  0  0  0
  126.9470  123.5750   62.1240 N   0  0  0  0  0  0  0  0  0  0  0  0
  130.8000  124.8760   64.4060 C   0  0  0  0  0  0  0  0  0  0  0  0
  131.8640  125.1470   65.2630 C   0  0  0  0  0  0  0  0  0  0  0  0
  1  2  1  0
  2  3  1  0
  3  4  2  0
  4  5  1  0
  5  6  2  0
  6  7  1  0
  7  8  1  0
  8  9  2  0
  8 10  1  0
 10 11  1  0
 11 12  1  0
 12 13  2  0
 13 14  1  0
 14 15  1  0
 14 16  2  0
 16 17  1  0
 17 18  1  0
 17 19  2  0
 19 20  1  0
 20 21  1  0
  6 22  1  0
 22 23  2  0
 23  3  1  0
 20 10  2  0
 19 12  1  0
M  END
>  <Binding energies>  (39) 
[-6.85]

>  <Ligand effiencies>  (39) 
[-0.26346153846153847]

>  <Interactions>  (39) 
["V-A:ARG:545:CZ:4924, V-B:ASN:362:C:8143, V-B:TYR:539:CE1:9847, V-B:TYR:539:CD1:9845, V-B:TYR:531:CE2:9765, V-B:PRO:540:CA:9855, V-B:ASN:362:CB:8147, V-B:ILE:538:CB:9834, V-B:LEU:363:CD1:8160, V-B:PRO:540:N:9856, V-B:TYR:539:C:9839, V-B:GLU:543:CD:9880, V-B:TYR:531:CZ:9766, V-B:PRO:540:CB:9857, V-B:ILE:538:CG2:9835, V-B:ALA:541:CB:9864, H-B:GLU:543:OE2:9882, H-B:GLU:543:OE1:9881, V-B:LEU:363:CA:8156, V-A:GLY:453:CA:4041, V-A:GLY:454:CA:4046, V-A:HIS:456:CE1:4066, V-B:ASP:366:CG:8184, V-A:TYR:484:CZ:4344, V-A:ARG:545:CG:4920, V-A:ARG:545:CD:4921, H-A:GLY:454:N:4047, H-A:ARG:545:NE:4922, H-A:TYR:484:OH:4345, H-B:ALA:541:O:9861, V-A:ARG:545:CB:4919, V-A:ILE:455:C:4049, V-A:GLY:454:C:4044"]

$$$$
4ad_Grossjean_2025
     RDKit          3D

 21 23  0  0  0  0  0  0  0  0999 V2000
  125.6420  128.9550   65.1680 C   0  0  0  0  0  0  0  0  0  0  0  0
  125.9960  130.1150   64.2550 C   0  0  0  0  0  0  0  0  0  0  0  0
  127.2380  130.1810   63.6280 C   0  0  0  0  0  0  0  0  0  0  0  0
  127.5430  131.2630   62.7920 C   0  0  0  0  0  0  0  0  0  0  0  0
  128.9130  131.2920   62.1310 C   0  0  0  0  0  0  0  0  0  0  0  0
  126.5520  132.2650   62.6170 C   0  0  0  0  0  0  0  0  0  0  0  0
  126.5280  133.4810   61.8490 C   0  0  0  0  0  0  0  0  0  0  0  0
  127.5920  133.8830   61.0820 N   0  0  0  0  0  0  0  0  0  0  0  0
  125.3280  134.2030   61.9600 C   0  0  0  0  0  0  0  0  0  0  0  0
  124.9700  135.4770   61.3350 C   0  0  0  0  0  0  0  0  0  0  0  0
  123.9440  135.5790   60.6580 O   0  0  0  0  0  0  0  0  0  0  0  0
  125.8290  136.5000   61.5670 N   0  0  0  0  0  0  0  0  0  0  0  0
  125.7980  137.8230   61.0850 C   0  0  0  0  0  0  0  0  0  0  0  0
  125.1860  138.7630   61.9190 C   0  0  0  0  0  0  0  0  0  0  0  0
  125.1140  140.1000   61.5350 C   0  0  0  0  0  0  0  0  0  0  0  0
  125.6630  140.4990   60.3200 C   0  0  0  0  0  0  0  0  0  0  0  0
  126.2890  139.5750   59.4870 C   0  0  0  0  0  0  0  0  0  0  0  0
  126.3610  138.2380   59.8670 C   0  0  0  0  0  0  0  0  0  0  0  0
  124.1870  133.3800   63.0250 S   0  0  0  0  0  0  0  0  0  0  0  0
  125.3210  132.0810   63.3160 C   0  0  0  0  0  0  0  0  0  0  0  0
  125.0270  131.0520   64.1120 N   0  0  0  0  0  0  0  0  0  0  0  0
  1  2  1  0
  2  3  2  0
  3  4  1  0
  4  5  1  0
  4  6  2  0
  6  7  1  0
  7  8  1  0
  7  9  2  0
  9 10  1  0
 10 11  2  0
 10 12  1  0
 12 13  1  0
 13 14  2  0
 14 15  1  0
 15 16  2  0
 16 17  1  0
 17 18  2  0
  9 19  1  0
 19 20  1  0
 20 21  2  0
 21  2  1  0
 20  6  1  0
 18 13  1  0
M  END
>  <Binding energies>  (40) 
[-7.26]

>  <Ligand effiencies>  (40) 
[-0.3025]

>  <Interactions>  (40) 
["V-A:TYR:539:CD1:4871, V-A:TYR:539:CE1:4873, V-A:GLU:543:CD:4906, V-B:LEU:475:CD2:9230, V-A:TYR:539:CG:4870, V-B:ARG:545:CZ:9898, V-B:ARG:545:CD:9895, H-B:TYR:484:OH:9319, H-B:GLY:454:N:9021, V-B:GLY:454:CA:9020, H-A:TYR:539:O:4866, V-B:SER:385:CB:8380, V-B:PRO:482:CG:9298, V-B:ILE:369:CG2:8208, V-B:LEU:373:CD1:8251, V-B:SER:385:CA:8378, V-A:TYR:539:CB:4869, V-A:VAL:344:CG1:2998, V-B:HIS:383:CG:8361, V-B:HIS:383:CB:8360, V-B:HIS:383:CD2:8363, V-B:HIS:383:CE1:8365, V-A:ILE:343:CD1:2991"]

$$$$
4ae_Grossjean_2025
     RDKit          3D

 22 24  0  0  0  0  0  0  0  0999 V2000
  131.5920  113.6700   61.6740 C   0  0  0  0  0  0  0  0  0  0  0  0
  131.5720  114.8340   60.7040 C   0  0  0  0  0  0  0  0  0  0  0  0
  131.5130  114.6340   59.3220 C   0  0  0  0  0  0  0  0  0  0  0  0
  131.5060  115.7530   58.4890 C   0  0  0  0  0  0  0  0  0  0  0  0
  131.5580  117.0310   59.0500 C   0  0  0  0  0  0  0  0  0  0  0  0
  131.6070  117.1610   60.4420 C   0  0  0  0  0  0  0  0  0  0  0  0
  131.6790  118.4710   60.9460 N   0  0  0  0  0  0  0  0  0  0  0  0
  132.5860  119.4400   60.6650 C   0  0  0  0  0  0  0  0  0  0  0  0
  133.5300  119.2900   59.8870 O   0  0  0  0  0  0  0  0  0  0  0  0
  132.3800  120.7130   61.3590 C   0  0  0  0  0  0  0  0  0  0  0  0
  133.6870  121.4360   62.2990 S   0  0  0  0  0  0  0  0  0  0  0  0
  132.6690  122.7760   62.7740 C   0  0  0  0  0  0  0  0  0  0  0  0
  133.1120  123.7540   63.5630 N   0  0  0  0  0  0  0  0  0  0  0  0
  132.2210  124.7300   63.8600 C   0  0  0  0  0  0  0  0  0  0  0  0
  132.7450  125.8300   64.7660 C   0  0  0  0  0  0  0  0  0  0  0  0
  130.9090  124.7520   63.3890 C   0  0  0  0  0  0  0  0  0  0  0  0
  130.4470  123.7230   62.5590 C   0  0  0  0  0  0  0  0  0  0  0  0
  129.0070  123.7890   62.0740 C   0  0  0  0  0  0  0  0  0  0  0  0
  131.3540  122.6800   62.2270 C   0  0  0  0  0  0  0  0  0  0  0  0
  131.2160  121.4960   61.4230 C   0  0  0  0  0  0  0  0  0  0  0  0
  130.0450  121.1750   60.7840 N   0  0  0  0  0  0  0  0  0  0  0  0
  131.6220  116.0700   61.2630 N   0  0  0  0  0  0  0  0  0  0  0  0
  1  2  1  0
  2  3  2  0
  3  4  1  0
  4  5  2  0
  5  6  1  0
  6  7  1  0
  7  8  1  0
  8  9  2  0
  8 10  1  0
 10 11  1  0
 11 12  1  0
 12 13  2  0
 13 14  1  0
 14 15  1  0
 14 16  2  0
 16 17  1  0
 17 18  1  0
 17 19  2  0
 19 20  1  0
 20 21  1  0
  6 22  2  0
 22  2  1  0
 20 10  2  0
 19 12  1  0
M  END
>  <Binding energies>  (41) 
[-7.51]

>  <Ligand effiencies>  (41) 
[-0.3004]

>  <Interactions>  (41) 
["V-A:ARG:545:CZ:4924, V-B:TYR:539:CE1:9847, V-B:TYR:539:CD1:9845, V-B:TYR:539:C:9839, V-A:LEU:475:CD2:4256, V-B:TYR:539:CG:9844, V-A:LEU:373:CD1:3277, V-B:ALA:541:CB:9864, V-A:PRO:482:CG:4324, V-A:GLY:454:CA:4046, H-B:TYR:539:O:9840, V-A:ARG:545:CD:4921, H-A:GLY:454:N:4047, H-A:TYR:484:OH:4345, V-B:VAL:344:CG1:7972, V-B:TYR:539:CB:9843, V-A:HIS:383:CG:3387, V-A:HIS:383:CB:3386, V-A:HIS:383:CD2:3389, V-B:ILE:343:CD1:7965, V-A:LEU:373:CD2:3278, V-A:HIS:383:CE1:3391, V-A:THR:477:C:4265, V-A:CYS:476:C:4261, V-A:THR:477:CA:4267, V-B:ILE:343:CG1:7964"]

$$$$
4af_Grossjean_2025
     RDKit          3D

 21 23  0  0  0  0  0  0  0  0999 V2000
  132.3840  132.2600   55.8310 C   0  0  0  0  0  0  0  0  0  0  0  0
  131.8380  132.0300   57.2280 C   0  0  0  0  0  0  0  0  0  0  0  0
  132.6940  131.8710   58.3160 C   0  0  0  0  0  0  0  0  0  0  0  0
  132.1670  131.6570   59.5950 C   0  0  0  0  0  0  0  0  0  0  0  0
  133.1410  131.4870   60.7500 C   0  0  0  0  0  0  0  0  0  0  0  0
  130.7540  131.6090   59.7310 C   0  0  0  0  0  0  0  0  0  0  0  0
  129.8950  131.4090   60.8680 C   0  0  0  0  0  0  0  0  0  0  0  0
  130.3900  131.2150   62.1340 N   0  0  0  0  0  0  0  0  0  0  0  0
  128.5260  131.4330   60.5600 C   0  0  0  0  0  0  0  0  0  0  0  0
  127.3860  131.2350   61.4580 C   0  0  0  0  0  0  0  0  0  0  0  0
  126.2730  131.6740   61.1650 O   0  0  0  0  0  0  0  0  0  0  0  0
  127.6530  130.5380   62.5900 N   0  0  0  0  0  0  0  0  0  0  0  0
  126.8050  130.2210   63.6670 C   0  0  0  0  0  0  0  0  0  0  0  0
  127.2270  129.8010   64.9420 C   0  0  0  0  0  0  0  0  0  0  0  0
  126.2780  129.4990   65.9190 C   0  0  0  0  0  0  0  0  0  0  0  0
  124.9250  129.6200   65.5980 C   0  0  0  0  0  0  0  0  0  0  0  0
  124.4920  130.0160   64.3750 N   0  0  0  0  0  0  0  0  0  0  0  0
  125.4270  130.3050   63.4350 C   0  0  0  0  0  0  0  0  0  0  0  0
  128.2660  131.7030   58.8350 S   0  0  0  0  0  0  0  0  0  0  0  0
  129.9880  131.7860   58.5410 C   0  0  0  0  0  0  0  0  0  0  0  0
  130.4850  131.9910   57.3200 N   0  0  0  0  0  0  0  0  0  0  0  0
  1  2  1  0
  2  3  2  0
  3  4  1  0
  4  5  1  0
  4  6  2  0
  6  7  1  0
  7  8  1  0
  7  9  2  0
  9 10  1  0
 10 11  2  0
 10 12  1  0
 12 13  1  0
 13 14  2  0
 14 15  1  0
 15 16  2  0
 16 17  1  0
 17 18  2  0
  9 19  1  0
 19 20  1  0
 20 21  2  0
 21  2  1  0
 20  6  1  0
 18 13  1  0
M  END
>  <Binding energies>  (42) 
[-7.14]

>  <Ligand effiencies>  (42) 
[-0.2975]

>  <Interactions>  (42) 
["V-A:TYR:539:CD1:4871, V-A:PRO:540:N:4882, V-A:LEU:363:CD1:3186, V-A:ILE:538:CG2:4861, V-A:PRO:540:CA:4881, V-A:TYR:531:CE2:4791, V-A:TYR:539:CE1:4873, V-A:GLU:543:CD:4906, V-A:ILE:538:CB:4860, V-A:ASN:362:CB:3173, V-A:PRO:540:CB:4883, V-A:TYR:539:CZ:4875, H-B:ARG:545:NH2:9900, H-A:GLU:543:OE2:4908, H-A:GLU:543:OE1:4907, V-A:ASP:366:CG:3210, V-B:ARG:545:CZ:9898, V-B:ARG:545:CD:9895, V-B:HIS:456:CE1:9040, H-B:TYR:484:OH:9319, H-B:GLY:454:N:9021, V-B:ARG:545:CG:9894, H-B:ARG:545:NE:9896, H-A:ALA:541:O:4887"]

$$$$
4ag_Grossjean_2025
     RDKit          3D

 22 24  0  0  0  0  0  0  0  0999 V2000
  123.8370  129.9890   63.0130 C   0  0  0  0  0  0  0  0  0  0  0  0
  124.6250  131.2300   62.6360 C   0  0  0  0  0  0  0  0  0  0  0  0
  126.0170  131.2000   62.5590 C   0  0  0  0  0  0  0  0  0  0  0  0
  126.7240  132.3550   62.2090 C   0  0  0  0  0  0  0  0  0  0  0  0
  128.2410  132.2720   62.1380 C   0  0  0  0  0  0  0  0  0  0  0  0
  125.9780  133.5340   61.9410 C   0  0  0  0  0  0  0  0  0  0  0  0
  126.3700  134.8640   61.5640 C   0  0  0  0  0  0  0  0  0  0  0  0
  127.6840  135.2200   61.3870 N   0  0  0  0  0  0  0  0  0  0  0  0
  125.2950  135.7500   61.3990 C   0  0  0  0  0  0  0  0  0  0  0  0
  125.3300  137.1600   61.0120 C   0  0  0  0  0  0  0  0  0  0  0  0
  126.3950  137.7740   60.9180 O   0  0  0  0  0  0  0  0  0  0  0  0
  124.1340  137.7430   60.7840 N   0  0  0  0  0  0  0  0  0  0  0  0
  123.9340  139.1290   60.3640 C   0  0  0  0  0  0  0  0  0  0  0  0
  125.0510  140.0740   60.7920 C   0  0  0  0  0  0  0  0  0  0  0  0
  125.0660  140.5900   62.0910 C   0  0  0  0  0  0  0  0  0  0  0  0
  126.0980  141.4330   62.4930 C   0  0  0  0  0  0  0  0  0  0  0  0
  127.1190  141.7490   61.5980 C   0  0  0  0  0  0  0  0  0  0  0  0
  127.1190  141.2270   60.3070 C   0  0  0  0  0  0  0  0  0  0  0  0
  126.0870  140.3830   59.9060 C   0  0  0  0  0  0  0  0  0  0  0  0
  123.7530  134.9470   61.6990 S   0  0  0  0  0  0  0  0  0  0  0  0
  124.5580  133.4350   62.0530 C   0  0  0  0  0  0  0  0  0  0  0  0
  123.8810  132.3350   62.3860 N   0  0  0  0  0  0  0  0  0  0  0  0
  1  2  1  0
  2  3  2  0
  3  4  1  0
  4  5  1  0
  4  6  2  0
  6  7  1  0
  7  8  1  0
  7  9  2  0
  9 10  1  0
 10 11  2  0
 10 12  1  0
 12 13  1  0
 13 14  1  0
 14 15  2  0
 15 16  1  0
 16 17  2  0
 17 18  1  0
 18 19  2  0
  9 20  1  0
 20 21  1  0
 21 22  2  0
 22  2  1  0
 21  6  1  0
 19 14  1  0
M  END
>  <Binding energies>  (43) 
[-8.3]

>  <Ligand effiencies>  (43) 
[-0.332]

>  <Interactions>  (43) 
["V-A:TYR:539:CD1:4871, V-A:TYR:539:CE1:4873, V-B:LEU:475:CD2:9230, V-A:ALA:541:CB:4890, V-A:TYR:539:C:4865, V-B:ARG:545:CZ:9898, V-B:GLY:453:C:9013, H-B:GLY:454:N:9021, V-B:GLY:453:CA:9015, H-A:TYR:539:O:4866, V-B:SER:385:CB:8380, V-B:PRO:482:CG:9298, V-B:ILE:369:CG2:8208, V-B:LEU:373:CD1:8251, V-B:SER:385:CA:8378, V-B:SER:385:C:8376, V-A:VAL:344:CG1:2998, V-B:THR:477:CA:9241, V-B:HIS:383:CG:8361, V-B:HIS:383:CB:8360, V-B:VAL:384:C:8368, V-B:HIS:383:CD2:8363, V-B:LEU:373:CD2:8252, V-B:LEU:373:CG:8250, V-B:HIS:383:CE1:8365, H-B:VAL:384:O:8369, V-B:CYS:476:C:9235, V-B:THR:477:C:9239"]

$$$$
4ah_Grossjean_2025
     RDKit          3D

 28 30  0  0  0  0  0  0  0  0999 V2000
  128.6210  132.5830   55.6330 C   0  0  0  0  0  0  0  0  0  0  0  0
  128.7640  133.2190   56.8980 O   0  0  0  0  0  0  0  0  0  0  0  0
  129.5260  132.6110   57.8810 C   0  0  0  0  0  0  0  0  0  0  0  0
  128.9940  132.0760   59.0650 C   0  0  0  0  0  0  0  0  0  0  0  0
  129.8240  131.4780   60.0140 C   0  0  0  0  0  0  0  0  0  0  0  0
  129.2230  130.8610   61.2720 C   0  0  0  0  0  0  0  0  0  0  0  0
  129.8050  129.5650   61.6230 N   0  0  0  0  0  0  0  0  0  0  0  0
  129.8520  128.4850   60.8150 C   0  0  0  0  0  0  0  0  0  0  0  0
  129.3610  128.4780   59.6850 O   0  0  0  0  0  0  0  0  0  0  0  0
  130.4890  127.2930   61.3750 C   0  0  0  0  0  0  0  0  0  0  0  0
  131.5870  126.3280   60.3880 S   0  0  0  0  0  0  0  0  0  0  0  0
  131.8280  125.1870   61.6920 C   0  0  0  0  0  0  0  0  0  0  0  0
  132.6290  124.1290   61.5660 N   0  0  0  0  0  0  0  0  0  0  0  0
  132.7290  123.3250   62.6510 C   0  0  0  0  0  0  0  0  0  0  0  0
  133.6440  122.1250   62.4850 C   0  0  0  0  0  0  0  0  0  0  0  0
  132.0540  123.5520   63.8480 C   0  0  0  0  0  0  0  0  0  0  0  0
  131.2110  124.6610   63.9780 C   0  0  0  0  0  0  0  0  0  0  0  0
  130.4950  124.8660   65.3050 C   0  0  0  0  0  0  0  0  0  0  0  0
  131.0790  125.5280   62.8590 C   0  0  0  0  0  0  0  0  0  0  0  0
  130.3150  126.7270   62.6470 C   0  0  0  0  0  0  0  0  0  0  0  0
  129.5020  127.2610   63.6140 N   0  0  0  0  0  0  0  0  0  0  0  0
  131.1950  131.3870   59.7710 C   0  0  0  0  0  0  0  0  0  0  0  0
  131.7550  131.9180   58.5980 C   0  0  0  0  0  0  0  0  0  0  0  0
  133.1050  131.8770   58.3000 O   0  0  0  0  0  0  0  0  0  0  0  0
  133.6330  130.7460   57.6150 C   0  0  0  0  0  0  0  0  0  0  0  0
  130.9090  132.5340   57.6640 C   0  0  0  0  0  0  0  0  0  0  0  0
  131.4410  133.0420   56.5040 O   0  0  0  0  0  0  0  0  0  0  0  0
  131.7450  132.0570   55.5260 C   0  0  0  0  0  0  0  0  0  0  0  0
  1  2  1  0
  2  3  1  0
  3  4  2  0
  4  5  1  0
  5  6  1  0
  6  7  1  0
  7  8  1  0
  8  9  2  0
  8 10  1  0
 10 11  1  0
 11 12  1  0
 12 13  2  0
 13 14  1  0
 14 15  1  0
 14 16  2  0
 16 17  1  0
 17 18  1  0
 17 19  2  0
 19 20  1  0
 20 21  1  0
  5 22  2  0
 22 23  1  0
 23 24  1  0
 24 25  1  0
 23 26  2  0
 26 27  1  0
 27 28  1  0
 26  3  1  0
 20 10  2  0
 19 12  1  0
M  END
>  <Binding energies>  (44) 
[-6.93]

>  <Ligand effiencies>  (44) 
[-0.2235483870967742]

>  <Interactions>  (44) 
["H-A:TYR:539:N:4868, V-A:TYR:539:CD1:4871, V-A:PRO:540:N:4882, V-A:MET:535:CE:4833, V-A:LEU:363:CD1:3186, V-A:ILE:538:CG2:4861, V-A:PRO:540:CD:4885, V-A:PRO:540:CA:4881, V-A:TYR:531:CE2:4791, V-A:TYR:539:CE1:4873, V-A:GLU:543:CD:4906, V-A:ILE:538:CB:4860, V-A:TYR:531:CZ:4792, V-A:PRO:540:CB:4883, V-A:TYR:539:C:4865, V-A:TYR:539:CZ:4875, V-A:ASP:366:CB:3209, V-B:GLU:543:CD:9880, V-A:LEU:475:CD2:4256, H-B:GLU:543:OE2:9882, H-B:GLU:543:OE1:9881, H-A:GLU:543:OE2:4908, H-A:GLU:543:OE1:4907, V-A:ASP:366:CG:3210, V-A:GLY:454:CA:4046, V-B:GLU:543:CG:9879, V-B:GLU:543:CB:9878, V-A:ILE:369:CD1:3236, V-A:TYR:539:CD2:4872, V-A:TYR:539:CE2:4874, V-A:TYR:539:CG:4870, V-A:ILE:538:CA:4858, V-A:LEU:363:CA:3182"]

$$$$
4ai_Grossjean_2025
     RDKit          3D

 20 22  0  0  0  0  0  0  0  0999 V2000
  125.6660  129.3920   64.8670 C   0  0  0  0  0  0  0  0  0  0  0  0
  125.9990  130.6280   64.0510 C   0  0  0  0  0  0  0  0  0  0  0  0
  127.3000  130.8710   63.6160 C   0  0  0  0  0  0  0  0  0  0  0  0
  127.5830  132.0140   62.8590 C   0  0  0  0  0  0  0  0  0  0  0  0
  129.0180  132.2340   62.4060 C   0  0  0  0  0  0  0  0  0  0  0  0
  126.5080  132.8950   62.5610 C   0  0  0  0  0  0  0  0  0  0  0  0
  126.4410  134.1280   61.8250 C   0  0  0  0  0  0  0  0  0  0  0  0
  127.5480  134.6950   61.2440 N   0  0  0  0  0  0  0  0  0  0  0  0
  125.1540  134.6830   61.7550 C   0  0  0  0  0  0  0  0  0  0  0  0
  124.7300  135.9230   61.1020 C   0  0  0  0  0  0  0  0  0  0  0  0
  123.5970  136.0290   60.6280 O   0  0  0  0  0  0  0  0  0  0  0  0
  125.6550  136.9150   61.0820 N   0  0  0  0  0  0  0  0  0  0  0  0
  125.5180  138.1860   60.5410 C   0  0  0  0  0  0  0  0  0  0  0  0
  126.5530  138.8500   59.8810 C   0  0  0  0  0  0  0  0  0  0  0  0
  126.0210  140.0620   59.5080 C   0  0  0  0  0  0  0  0  0  0  0  0
  124.7320  140.1260   59.9190 O   0  0  0  0  0  0  0  0  0  0  0  0
  124.4240  138.9310   60.5720 N   0  0  0  0  0  0  0  0  0  0  0  0
  123.9850  133.6910   62.6310 S   0  0  0  0  0  0  0  0  0  0  0  0
  125.2230  132.5320   63.0650 C   0  0  0  0  0  0  0  0  0  0  0  0
  124.9500  131.4450   63.7870 N   0  0  0  0  0  0  0  0  0  0  0  0
  1  2  1  0
  2  3  2  0
  3  4  1  0
  4  5  1  0
  4  6  2  0
  6  7  1  0
  7  8  1  0
  7  9  2  0
  9 10  1  0
 10 11  2  0
 10 12  1  0
 12 13  1  0
 13 14  1  0
 14 15  2  0
 15 16  1  0
 16 17  1  0
  9 18  1  0
 18 19  1  0
 19 20  2  0
 20  2  1  0
 19  6  1  0
 17 13  2  0
M  END
>  <Binding energies>  (45) 
[-6.78]

>  <Ligand effiencies>  (45) 
[-0.2947826086956522]

>  <Interactions>  (45) 
["V-A:TYR:539:CD1:4871, V-A:TYR:539:CE1:4873, V-B:LEU:475:CD2:9230, V-A:ALA:541:CB:4890, V-A:TYR:539:C:4865, V-A:TYR:539:CG:4870, V-B:ARG:545:CZ:9898, H-B:TYR:484:OH:9319, H-B:GLY:454:N:9021, V-B:GLY:454:CA:9020, H-A:TYR:539:O:4866, V-B:ILE:369:CD1:8210, V-B:PRO:482:CG:9298, V-B:ILE:369:CG2:8208, V-B:LEU:373:CD1:8251, V-B:SER:385:CA:8378, V-B:SER:385:C:8376, H-B:HIS:383:ND1:8362, V-A:TYR:539:CB:4869, V-A:VAL:344:CG1:2998, V-B:HIS:383:CG:8361, V-B:HIS:383:CD2:8363, V-B:HIS:383:CE1:8365, V-A:ILE:343:CD1:2991"]

$$$$
4aj_Grossjean_2025
     RDKit          3D

 20 22  0  0  0  0  0  0  0  0999 V2000
  125.4880  129.3280   64.8890 C   0  0  0  0  0  0  0  0  0  0  0  0
  125.8930  130.5280   64.0520 C   0  0  0  0  0  0  0  0  0  0  0  0
  127.2010  130.6770   63.5990 C   0  0  0  0  0  0  0  0  0  0  0  0
  127.5530  131.7950   62.8330 C   0  0  0  0  0  0  0  0  0  0  0  0
  128.9950  131.9120   62.3620 C   0  0  0  0  0  0  0  0  0  0  0  0
  126.5400  132.7470   62.5440 C   0  0  0  0  0  0  0  0  0  0  0  0
  126.5510  133.9810   61.8050 C   0  0  0  0  0  0  0  0  0  0  0  0
  127.6860  134.4660   61.2060 N   0  0  0  0  0  0  0  0  0  0  0  0
  125.3060  134.6250   61.7530 C   0  0  0  0  0  0  0  0  0  0  0  0
  124.9610  135.8910   61.1020 C   0  0  0  0  0  0  0  0  0  0  0  0
  123.8380  136.0700   60.6260 O   0  0  0  0  0  0  0  0  0  0  0  0
  125.9470  136.8220   61.0820 N   0  0  0  0  0  0  0  0  0  0  0  0
  125.8760  138.0990   60.5410 C   0  0  0  0  0  0  0  0  0  0  0  0
  126.0340  138.4530   59.2840 N   0  0  0  0  0  0  0  0  0  0  0  0
  125.8950  139.7550   59.1260 C   0  0  0  0  0  0  0  0  0  0  0  0
  125.6180  140.4890   60.2770 C   0  0  0  0  0  0  0  0  0  0  0  0
  125.5370  139.4030   61.6320 S   0  0  0  0  0  0  0  0  0  0  0  0
  124.0810  133.7180   62.6420 S   0  0  0  0  0  0  0  0  0  0  0  0
  125.2380  132.4770   63.0650 C   0  0  0  0  0  0  0  0  0  0  0  0
  124.9000  131.4140   63.7960 N   0  0  0  0  0  0  0  0  0  0  0  0
  1  2  1  0
  2  3  2  0
  3  4  1  0
  4  5  1  0
  4  6  2  0
  6  7  1  0
  7  8  1  0
  7  9  2  0
  9 10  1  0
 10 11  2  0
 10 12  1  0
 12 13  1  0
 13 14  2  0
 14 15  1  0
 15 16  2  0
 16 17  1  0
  9 18  1  0
 18 19  1  0
 19 20  2  0
 20  2  1  0
 19  6  1  0
 17 13  1  0
M  END
>  <Binding energies>  (46) 
[-6.82]

>  <Ligand effiencies>  (46) 
[-0.2965217391304348]

>  <Interactions>  (46) 
["V-A:TYR:539:CD1:4871, V-A:TYR:539:CE1:4873, V-B:LEU:475:CD2:9230, V-A:ALA:541:CB:4890, V-A:TYR:539:C:4865, V-B:ARG:545:CZ:9898, H-B:TYR:484:OH:9319, H-B:GLY:454:N:9021, V-B:GLY:454:CA:9020, H-A:TYR:539:O:4866, V-B:ILE:369:CD1:8210, V-B:SER:385:CB:8380, V-B:PRO:482:CG:9298, V-B:ILE:369:CG2:8208, V-B:LEU:373:CD1:8251, V-B:SER:385:CA:8378, V-A:TYR:539:CB:4869, V-A:VAL:344:CG1:2998, V-B:HIS:383:CG:8361, V-B:HIS:383:CB:8360, V-B:HIS:383:CD2:8363, V-B:LEU:373:CD2:8252, V-B:HIS:383:CE1:8365, V-A:ILE:343:CG1:2990, V-A:ILE:343:CD1:2991"]

$$$$
4ak_Grossjean_2025
     RDKit          3D

 25 26  0  0  0  0  0  0  0  0999 V2000
  133.0850  125.1370   57.4690 C   0  0  0  0  0  0  0  0  0  0  0  0
  133.8460  124.0720   58.0170 O   0  0  0  0  0  0  0  0  0  0  0  0
  133.7200  123.9530   59.4280 C   0  0  0  0  0  0  0  0  0  0  0  0
  132.2370  124.0030   59.8150 C   0  0  0  0  0  0  0  0  0  0  0  0
  131.8300  122.7250   60.2880 O   0  0  0  0  0  0  0  0  0  0  0  0
  132.8450  122.0250   60.9950 C   0  0  0  0  0  0  0  0  0  0  0  0
  132.8750  122.5080   62.4500 C   0  0  0  0  0  0  0  0  0  0  0  0
  131.8720  123.4980   62.6370 O   0  0  0  0  0  0  0  0  0  0  0  0
  131.2050  123.4110   63.8890 C   0  0  0  0  0  0  0  0  0  0  0  0
  129.7820  122.8650   63.6710 C   0  0  0  0  0  0  0  0  0  0  0  0
  129.3480  122.9030   62.2740 N   0  0  0  0  0  0  0  0  0  0  0  0
  128.0660  122.9230   61.8560 C   0  0  0  0  0  0  0  0  0  0  0  0
  127.1160  122.9330   62.6400 O   0  0  0  0  0  0  0  0  0  0  0  0
  127.8620  122.9410   60.4090 C   0  0  0  0  0  0  0  0  0  0  0  0
  129.1370  122.3870   59.3230 S   0  0  0  0  0  0  0  0  0  0  0  0
  128.1430  122.7060   57.9190 C   0  0  0  0  0  0  0  0  0  0  0  0
  128.5800  122.4790   56.6800 N   0  0  0  0  0  0  0  0  0  0  0  0
  127.7110  122.7710   55.6810 C   0  0  0  0  0  0  0  0  0  0  0  0
  128.2260  122.5050   54.2780 C   0  0  0  0  0  0  0  0  0  0  0  0
  126.4300  123.2780   55.8900 C   0  0  0  0  0  0  0  0  0  0  0  0
  125.9750  123.5150   57.1930 C   0  0  0  0  0  0  0  0  0  0  0  0
  124.5720  124.0720   57.3710 C   0  0  0  0  0  0  0  0  0  0  0  0
  126.8580  123.2210   58.2670 C   0  0  0  0  0  0  0  0  0  0  0  0
  126.7220  123.3400   59.6930 C   0  0  0  0  0  0  0  0  0  0  0  0
  125.5760  123.8070   60.2850 N   0  0  0  0  0  0  0  0  0  0  0  0
  1  2  1  0
  2  3  1  0
  3  4  1  0
  4  5  1  0
  5  6  1  0
  6  7  1  0
  7  8  1  0
  8  9  1  0
  9 10  1  0
 10 11  1  0
 11 12  1  0
 12 13  2  0
 12 14  1  0
 14 15  1  0
 15 16  1  0
 16 17  2  0
 17 18  1  0
 18 19  1  0
 18 20  2  0
 20 21  1  0
 21 22  1  0
 21 23  2  0
 23 24  1  0
 24 25  1  0
 24 14  2  0
 23 16  1  0
M  END
>  <Binding energies>  (47) 
[-5.91]

>  <Ligand effiencies>  (47) 
[-0.21107142857142858]

>  <Interactions>  (47) 
["H-B:TYR:539:N:9842, V-B:TYR:539:CE1:9847, V-B:TYR:539:CD1:9845, V-B:TYR:531:CE2:9765, V-A:ASP:366:CB:3209, V-B:PRO:540:CA:9855, V-B:ILE:538:CB:9834, V-B:MET:535:CE:9807, V-B:TYR:539:CZ:9849, V-B:LEU:363:CD1:8160, V-B:PRO:540:N:9856, V-B:TYR:539:C:9839, V-B:GLU:543:CD:9880, V-B:TYR:531:CZ:9766, V-B:PRO:540:CB:9857, V-B:ILE:538:CG2:9835, V-A:LEU:475:CD2:4256, V-B:TYR:539:CG:9844, V-B:ALA:541:CB:9864, H-B:ALA:541:N:9863, V-A:ASP:366:CG:3210, V-A:GLY:454:CA:4046, V-B:ILE:538:C:9830, V-A:ILE:369:CB:3233, V-A:ASP:366:CA:3207, V-B:ILE:538:CA:9832, V-A:ILE:369:CD1:3236, H-B:TYR:539:OH:9850, V-A:ILE:369:CG2:3234, V-B:ALA:541:CA:9862, H-B:ASP:366:OD2:8186, V-B:TYR:539:CE2:9848, V-B:TYR:539:CD2:9846, V-A:ASP:366:C:3205, V-B:VAL:537:C:9822"]

$$$$
4al_Grossjean_2025
     RDKit          3D

 16 17  0  0  0  0  0  0  0  0999 V2000
  129.6780  124.0870   62.3290 C   0  0  0  0  0  0  0  0  0  0  0  0
  128.7440  123.0230   62.2220 O   0  0  0  0  0  0  0  0  0  0  0  0
  127.4900  123.2420   61.7470 C   0  0  0  0  0  0  0  0  0  0  0  0
  126.5110  123.4680   62.4630 O   0  0  0  0  0  0  0  0  0  0  0  0
  127.4140  123.1810   60.2710 C   0  0  0  0  0  0  0  0  0  0  0  0
  128.8150  122.6510   59.3370 S   0  0  0  0  0  0  0  0  0  0  0  0
  127.9440  122.8580   57.8360 C   0  0  0  0  0  0  0  0  0  0  0  0
  128.5050  122.5990   56.6540 N   0  0  0  0  0  0  0  0  0  0  0  0
  127.7210  122.8010   55.5650 C   0  0  0  0  0  0  0  0  0  0  0  0
  128.3790  122.4990   54.2310 C   0  0  0  0  0  0  0  0  0  0  0  0
  126.4050  123.2510   55.6310 C   0  0  0  0  0  0  0  0  0  0  0  0
  125.8190  123.5230   56.8730 C   0  0  0  0  0  0  0  0  0  0  0  0
  124.3800  124.0120   56.8940 C   0  0  0  0  0  0  0  0  0  0  0  0
  126.6100  123.3230   58.0360 C   0  0  0  0  0  0  0  0  0  0  0  0
  126.3360  123.4980   59.4360 C   0  0  0  0  0  0  0  0  0  0  0  0
  125.1240  123.9370   59.9020 N   0  0  0  0  0  0  0  0  0  0  0  0
  1  2  1  0
  2  3  1  0
  3  4  2  0
  3  5  1  0
  5  6  1  0
  6  7  1  0
  7  8  2  0
  8  9  1  0
  9 10  1  0
  9 11  2  0
 11 12  1  0
 12 13  1  0
 12 14  2  0
 14 15  1  0
 15 16  1  0
 15  5  2  0
 14  7  1  0
M  END
>  <Binding energies>  (48) 
[-5.67]

>  <Ligand effiencies>  (48) 
[-0.315]

>  <Interactions>  (48) 
["H-B:TYR:539:N:9842, V-B:TYR:539:CE1:9847, V-B:TYR:539:CD1:9845, V-B:TYR:531:CE2:9765, V-B:PRO:540:CA:9855, V-B:ILE:538:CB:9834, V-B:MET:535:CE:9807, V-B:LEU:363:CD1:8160, V-B:PRO:540:N:9856, V-B:TYR:539:C:9839, V-B:TYR:531:CZ:9766, V-B:PRO:540:CB:9857, V-B:ILE:538:CG2:9835, V-B:PRO:540:C:9853, V-B:ALA:541:CB:9864, H-B:ALA:541:N:9863, V-B:ILE:538:C:9830, V-B:ASP:366:CG:8184, V-B:ILE:538:CA:9832, H-B:ASP:366:OD2:8186, V-B:TYR:539:CE2:9848, V-B:TYR:539:CD2:9846, V-B:VAL:537:C:9822"]

$$$$
4bc_Grossjean_2025
     RDKit          3D

 26 28  0  0  0  0  0  0  0  0999 V2000
  130.9230  112.7000   61.4190 C   0  0  0  0  0  0  0  0  0  0  0  0
  131.8960  113.4910   60.7440 O   0  0  0  0  0  0  0  0  0  0  0  0
  131.7080  114.8570   60.6530 C   0  0  0  0  0  0  0  0  0  0  0  0
  132.1260  115.6160   61.7460 C   0  0  0  0  0  0  0  0  0  0  0  0
  131.9770  117.0010   61.7460 C   0  0  0  0  0  0  0  0  0  0  0  0
  131.4130  117.6470   60.6440 C   0  0  0  0  0  0  0  0  0  0  0  0
  131.2890  119.0450   60.7400 N   0  0  0  0  0  0  0  0  0  0  0  0
  132.2420  119.9750   60.9960 C   0  0  0  0  0  0  0  0  0  0  0  0
  133.4210  119.7040   61.2300 O   0  0  0  0  0  0  0  0  0  0  0  0
  131.7820  121.3670   60.9890 C   0  0  0  0  0  0  0  0  0  0  0  0
  132.9490  122.6870   60.9750 S   0  0  0  0  0  0  0  0  0  0  0  0
  131.6700  123.8780   60.9750 C   0  0  0  0  0  0  0  0  0  0  0  0
  131.9360  125.1840   60.9640 N   0  0  0  0  0  0  0  0  0  0  0  0
  130.8640  126.0090   60.9680 C   0  0  0  0  0  0  0  0  0  0  0  0
  131.1890  127.4910   60.9490 C   0  0  0  0  0  0  0  0  0  0  0  0
  129.5440  125.5640   60.9830 C   0  0  0  0  0  0  0  0  0  0  0  0
  129.2580  124.1900   60.9950 C   0  0  0  0  0  0  0  0  0  0  0  0
  127.7900  123.7480   61.0150 C   0  0  0  0  0  0  0  0  0  0  0  0
  127.4380  123.0590   59.9280 F   0  0  0  0  0  0  0  0  0  0  0  0
  127.5690  122.9680   62.0720 F   0  0  0  0  0  0  0  0  0  0  0  0
  126.9980  124.8180   61.0830 F   0  0  0  0  0  0  0  0  0  0  0  0
  130.3670  123.2920   60.9900 C   0  0  0  0  0  0  0  0  0  0  0  0
  130.4650  121.8520   60.9950 C   0  0  0  0  0  0  0  0  0  0  0  0
  129.3630  121.0360   61.0040 N   0  0  0  0  0  0  0  0  0  0  0  0
  130.9780  116.8880   59.5460 C   0  0  0  0  0  0  0  0  0  0  0  0
  131.1280  115.5050   59.5510 C   0  0  0  0  0  0  0  0  0  0  0  0
  1  2  1  0
  2  3  1  0
  3  4  2  0
  4  5  1  0
  5  6  2  0
  6  7  1  0
  7  8  1  0
  8  9  2  0
  8 10  1  0
 10 11  1  0
 11 12  1  0
 12 13  2  0
 13 14  1  0
 14 15  1  0
 14 16  2  0
 16 17  1  0
 17 18  1  0
 18 19  1  0
 18 20  1  0
 18 21  1  0
 17 22  2  0
 22 23  1  0
 23 24  1  0
  6 25  1  0
 25 26  2  0
 26  3  1  0
 23 10  2  0
 22 12  1  0
M  END
>  <Binding energies>  (49) 
[-6.79]

>  <Ligand effiencies>  (49) 
[-0.23413793103448277]

>  <Interactions>  (49) 
["V-B:TYR:539:CE1:9847, V-B:TYR:539:CD1:9845, V-B:PRO:540:CA:9855, V-B:PRO:540:N:9856, V-B:TYR:539:C:9839, V-A:LEU:475:CD2:4256, V-B:TYR:539:CG:9844, V-A:LEU:373:CD1:3277, V-B:PRO:540:C:9853, V-A:PRO:482:CB:4323, V-B:ALA:541:CB:9864, V-A:PRO:482:CG:4324, V-A:ASP:366:CG:3210, V-A:ILE:369:CG2:3234, V-B:ALA:541:CA:9862, H-B:TYR:539:O:9840, V-A:SER:385:CB:3406, V-B:VAL:344:CG1:7972, V-B:TYR:539:CB:9843, V-A:HIS:383:CG:3387, V-A:HIS:383:CE1:3391, V-A:THR:477:C:4265, V-A:THR:477:CA:4267, H-A:HIS:383:ND1:3388, V-A:LEU:475:CG:4254"]

$$$$
4bf_Grossjean_2025
     RDKit          3D

 24 26  0  0  0  0  0  0  0  0999 V2000
  132.2550  132.1480   55.7880 C   0  0  0  0  0  0  0  0  0  0  0  0
  131.7310  131.9280   57.1970 C   0  0  0  0  0  0  0  0  0  0  0  0
  132.6020  131.8250   58.2780 C   0  0  0  0  0  0  0  0  0  0  0  0
  132.1040  131.6180   59.5740 C   0  0  0  0  0  0  0  0  0  0  0  0
  133.1000  131.5080   60.7330 C   0  0  0  0  0  0  0  0  0  0  0  0
  132.9940  132.5100   61.6090 F   0  0  0  0  0  0  0  0  0  0  0  0
  132.8960  130.3720   61.3990 F   0  0  0  0  0  0  0  0  0  0  0  0
  134.3470  131.5230   60.2590 F   0  0  0  0  0  0  0  0  0  0  0  0
  130.6880  131.5200   59.7210 C   0  0  0  0  0  0  0  0  0  0  0  0
  129.8320  131.3140   60.8630 C   0  0  0  0  0  0  0  0  0  0  0  0
  130.3210  131.1660   62.1370 N   0  0  0  0  0  0  0  0  0  0  0  0
  128.4620  131.2810   60.5570 C   0  0  0  0  0  0  0  0  0  0  0  0
  127.3280  131.0610   61.4600 C   0  0  0  0  0  0  0  0  0  0  0  0
  126.1870  131.3790   61.1240 O   0  0  0  0  0  0  0  0  0  0  0  0
  127.6360  130.4830   62.6470 N   0  0  0  0  0  0  0  0  0  0  0  0
  126.8020  130.1840   63.7410 C   0  0  0  0  0  0  0  0  0  0  0  0
  127.2410  129.7780   65.0140 C   0  0  0  0  0  0  0  0  0  0  0  0
  126.3040  129.4960   66.0110 C   0  0  0  0  0  0  0  0  0  0  0  0
  124.9480  129.6220   65.7080 C   0  0  0  0  0  0  0  0  0  0  0  0
  124.4990  130.0050   64.4870 N   0  0  0  0  0  0  0  0  0  0  0  0
  125.4210  130.2760   63.5280 C   0  0  0  0  0  0  0  0  0  0  0  0
  128.1910  131.5030   58.8300 S   0  0  0  0  0  0  0  0  0  0  0  0
  129.9070  131.6440   58.5310 C   0  0  0  0  0  0  0  0  0  0  0  0
  130.3840  131.8410   57.3030 N   0  0  0  0  0  0  0  0  0  0  0  0
  1  2  1  0
  2  3  2  0
  3  4  1  0
  4  5  1  0
  5  6  1  0
  5  7  1  0
  5  8  1  0
  4  9  2  0
  9 10  1  0
 10 11  1  0
 10 12  2  0
 12 13  1  0
 13 14  2  0
 13 15  1  0
 15 16  1  0
 16 17  2  0
 17 18  1  0
 18 19  2  0
 19 20  1  0
 20 21  2  0
 12 22  1  0
 22 23  1  0
 23 24  2  0
 24  2  1  0
 23  9  1  0
 21 16  1  0
M  END
>  <Binding energies>  (50) 
[-6.82]

>  <Ligand effiencies>  (50) 
[-0.2525925925925926]

>  <Interactions>  (50) 
["V-A:TYR:539:CD1:4871, V-A:PRO:540:N:4882, V-A:LEU:363:CD1:3186, V-A:ILE:538:CG2:4861, V-A:PRO:540:CA:4881, V-A:TYR:531:CE2:4791, V-A:ALA:541:C:4886, V-A:TYR:539:CE1:4873, V-A:GLU:543:CD:4906, V-A:ILE:538:CB:4860, V-A:ASN:362:CB:3173, V-A:TYR:531:CZ:4792, V-A:PRO:540:CB:4883, V-A:ARG:545:CZ:4924, H-B:ARG:545:NH2:9900, H-A:GLU:543:OE2:4908, H-A:GLU:543:OE1:4907, V-A:PRO:540:C:4879, V-A:ASP:366:CG:3210, V-A:ALA:541:CA:4888, V-B:ARG:545:CZ:9898, V-B:ARG:545:CD:9895, V-B:HIS:456:CE1:9040, H-B:TYR:484:OH:9319, H-B:GLY:454:N:9021, V-B:ARG:545:CG:9894, H-B:ARG:545:NE:9896, V-A:LEU:363:CA:3182, V-A:LEU:363:CB:3184, H-A:ALA:541:O:4887, V-A:ASN:362:C:3169, V-A:ASN:362:CA:3171"]

$$$$
4bh_Grossjean_2025
     RDKit          3D

 31 33  0  0  0  0  0  0  0  0999 V2000
  128.6000  122.7640   55.3590 C   0  0  0  0  0  0  0  0  0  0  0  0
  128.5680  122.0850   56.6100 O   0  0  0  0  0  0  0  0  0  0  0  0
  127.9270  122.6720   57.6850 C   0  0  0  0  0  0  0  0  0  0  0  0
  128.5950  123.2480   58.7770 C   0  0  0  0  0  0  0  0  0  0  0  0
  127.8830  123.8220   59.8310 C   0  0  0  0  0  0  0  0  0  0  0  0
  128.6260  124.4830   60.9860 C   0  0  0  0  0  0  0  0  0  0  0  0
  128.0070  125.7280   61.4420 N   0  0  0  0  0  0  0  0  0  0  0  0
  127.8500  126.8420   60.6970 C   0  0  0  0  0  0  0  0  0  0  0  0
  128.2620  126.9280   59.5390 O   0  0  0  0  0  0  0  0  0  0  0  0
  127.1960  127.9710   61.3600 C   0  0  0  0  0  0  0  0  0  0  0  0
  126.0950  129.0060   60.4560 S   0  0  0  0  0  0  0  0  0  0  0  0
  125.8350  130.0220   61.8540 C   0  0  0  0  0  0  0  0  0  0  0  0
  125.0200  131.0760   61.8060 N   0  0  0  0  0  0  0  0  0  0  0  0
  124.8980  131.7840   62.9520 C   0  0  0  0  0  0  0  0  0  0  0  0
  123.9670  132.9820   62.8740 C   0  0  0  0  0  0  0  0  0  0  0  0
  125.5610  131.4680   64.1340 C   0  0  0  0  0  0  0  0  0  0  0  0
  126.4220  130.3600   64.1910 C   0  0  0  0  0  0  0  0  0  0  0  0
  127.1290  130.0490   65.5140 C   0  0  0  0  0  0  0  0  0  0  0  0
  126.3390  129.4340   66.3970 F   0  0  0  0  0  0  0  0  0  0  0  0
  128.1740  129.2520   65.2910 F   0  0  0  0  0  0  0  0  0  0  0  0
  127.5510  131.1810   66.0770 F   0  0  0  0  0  0  0  0  0  0  0  0
  126.5760  129.5920   62.9990 C   0  0  0  0  0  0  0  0  0  0  0  0
  127.3570  128.4230   62.6790 C   0  0  0  0  0  0  0  0  0  0  0  0
  128.1760  127.8050   63.5880 N   0  0  0  0  0  0  0  0  0  0  0  0
  126.4880  123.8470   59.7840 C   0  0  0  0  0  0  0  0  0  0  0  0
  125.7930  123.2720   58.7090 C   0  0  0  0  0  0  0  0  0  0  0  0
  124.4140  123.2500   58.6040 O   0  0  0  0  0  0  0  0  0  0  0  0
  123.7400  124.3620   58.0240 C   0  0  0  0  0  0  0  0  0  0  0  0
  126.5250  122.6820   57.6680 C   0  0  0  0  0  0  0  0  0  0  0  0
  125.8570  122.1310   56.6000 O   0  0  0  0  0  0  0  0  0  0  0  0
  125.2560  123.0890   55.7390 C   0  0  0  0  0  0  0  0  0  0  0  0
  1  2  1  0
  2  3  1  0
  3  4  2  0
  4  5  1  0
  5  6  1  0
  6  7  1  0
  7  8  1  0
  8  9  2  0
  8 10  1  0
 10 11  1  0
 11 12  1  0
 12 13  2  0
 13 14  1  0
 14 15  1  0
 14 16  2  0
 16 17  1  0
 17 18  1  0
 18 19  1  0
 18 20  1  0
 18 21  1  0
 17 22  2  0
 22 23  1  0
 23 24  1  0
  5 25  2  0
 25 26  1  0
 26 27  1  0
 27 28  1  0
 26 29  2  0
 29 30  1  0
 30 31  1  0
 29  3  1  0
 23 10  2  0
 22 12  1  0
M  END
>  <Binding energies>  (51) 
[-6.27]

>  <Ligand effiencies>  (51) 
[-0.18441176470588233]

>  <Interactions>  (51) 
["V-A:GLU:543:CD:4906, V-B:LEU:475:CD2:9230, H-B:TYR:539:N:9842, V-B:TYR:539:CE1:9847, V-B:TYR:539:CD1:9845, V-B:TYR:531:CE2:9765, V-B:PRO:540:CA:9855, V-B:ILE:538:CB:9834, V-B:MET:535:CE:9807, V-B:TYR:539:CZ:9849, V-B:LEU:363:CD1:8160, V-B:PRO:540:N:9856, V-B:TYR:539:C:9839, V-B:GLU:543:CD:9880, V-B:PRO:540:CD:9859, V-B:PRO:540:CB:9857, V-B:ILE:538:CG2:9835, V-B:TYR:539:CG:9844, H-B:GLU:543:OE2:9882, H-B:GLU:543:OE1:9881, H-A:GLU:543:OE2:4908, H-A:GLU:543:OE1:4907, V-B:LEU:363:CA:8156, V-B:ASP:366:CB:8183, V-B:ASP:366:CG:8184, V-B:ILE:538:CA:9832, V-B:HIS:456:CE1:9040, V-B:GLY:454:CA:9020, V-B:ILE:369:CD1:8210, V-B:TYR:539:CE2:9848, V-B:TYR:539:CD2:9846, V-B:TYR:484:CE2:9317, V-B:TYR:484:CZ:9318, V-A:GLU:543:CB:4904, V-A:GLU:543:CG:4905"]

$$$$
4bi_Grossjean_2025
     RDKit          3D

 23 25  0  0  0  0  0  0  0  0999 V2000
  124.9660  123.2600   55.9750 C   0  0  0  0  0  0  0  0  0  0  0  0
  125.6390  123.4050   57.3280 C   0  0  0  0  0  0  0  0  0  0  0  0
  124.8870  123.4890   58.4970 C   0  0  0  0  0  0  0  0  0  0  0  0
  125.5230  123.6190   59.7430 C   0  0  0  0  0  0  0  0  0  0  0  0
  124.6540  123.6990   61.0020 C   0  0  0  0  0  0  0  0  0  0  0  0
  124.7830  122.6320   61.7950 F   0  0  0  0  0  0  0  0  0  0  0  0
  124.9940  124.7710   61.7180 F   0  0  0  0  0  0  0  0  0  0  0  0
  123.3680  123.7880   60.6590 F   0  0  0  0  0  0  0  0  0  0  0  0
  126.9490  123.6630   59.7460 C   0  0  0  0  0  0  0  0  0  0  0  0
  127.9240  123.7900   60.8010 C   0  0  0  0  0  0  0  0  0  0  0  0
  127.5750  123.9090   62.1220 N   0  0  0  0  0  0  0  0  0  0  0  0
  129.2560  123.7750   60.3570 C   0  0  0  0  0  0  0  0  0  0  0  0
  130.4850  123.8940   61.1470 C   0  0  0  0  0  0  0  0  0  0  0  0
  131.5650  123.5110   60.6940 O   0  0  0  0  0  0  0  0  0  0  0  0
  130.3370  124.4610   62.3710 N   0  0  0  0  0  0  0  0  0  0  0  0
  131.3260  124.7060   63.3140 C   0  0  0  0  0  0  0  0  0  0  0  0
  131.0800  125.3510   64.5250 C   0  0  0  0  0  0  0  0  0  0  0  0
  132.3000  125.3960   65.1610 C   0  0  0  0  0  0  0  0  0  0  0  0
  133.2320  124.8080   64.3740 O   0  0  0  0  0  0  0  0  0  0  0  0
  132.6020  124.3740   63.2050 N   0  0  0  0  0  0  0  0  0  0  0  0
  129.3410  123.6260   58.6030 S   0  0  0  0  0  0  0  0  0  0  0  0
  127.5990  123.5670   58.4780 C   0  0  0  0  0  0  0  0  0  0  0  0
  126.9910  123.4420   57.2980 N   0  0  0  0  0  0  0  0  0  0  0  0
  1  2  1  0
  2  3  2  0
  3  4  1  0
  4  5  1  0
  5  6  1  0
  5  7  1  0
  5  8  1  0
  4  9  2  0
  9 10  1  0
 10 11  1  0
 10 12  2  0
 12 13  1  0
 13 14  2  0
 13 15  1  0
 15 16  1  0
 16 17  1  0
 17 18  2  0
 18 19  1  0
 19 20  1  0
 12 21  1  0
 21 22  1  0
 22 23  2  0
 23  2  1  0
 22  9  1  0
 20 16  2  0
M  END
>  <Binding energies>  (52) 
[-6.51]

>  <Ligand effiencies>  (52) 
[-0.25038461538461537]

>  <Interactions>  (52) 
["V-A:ARG:545:CZ:4924, V-B:ASN:362:C:8143, V-B:TYR:539:CE1:9847, V-B:TYR:539:CD1:9845, V-B:TYR:531:CE2:9765, V-B:PRO:540:CA:9855, V-B:ASN:362:CB:8147, V-B:ILE:538:CB:9834, V-B:TYR:539:CZ:9849, V-B:LEU:363:CD1:8160, V-B:PRO:540:N:9856, V-B:GLU:543:CD:9880, V-B:TYR:531:CZ:9766, V-B:PRO:540:CB:9857, V-B:ILE:538:CG2:9835, V-B:PRO:540:C:9853, H-B:GLU:543:OE2:9882, H-B:GLU:543:OE1:9881, V-B:LEU:363:CA:8156, V-B:ASP:366:CG:8184, V-B:ALA:541:CA:9862, H-A:GLY:454:N:4047, H-A:TYR:484:OH:4345, V-B:ARG:545:CZ:9898, H-B:ALA:541:O:9861, V-B:ASN:362:CA:8145, V-B:ALA:541:C:9860"]

$$$$
4bj_Grossjean_2025
     RDKit          3D

 23 25  0  0  0  0  0  0  0  0999 V2000
  125.6810  129.1100   64.8100 C   0  0  0  0  0  0  0  0  0  0  0  0
  126.0120  130.3210   63.9570 C   0  0  0  0  0  0  0  0  0  0  0  0
  127.2610  130.4560   63.3570 C   0  0  0  0  0  0  0  0  0  0  0  0
  127.5560  131.5840   62.5750 C   0  0  0  0  0  0  0  0  0  0  0  0
  128.9460  131.6900   61.9370 C   0  0  0  0  0  0  0  0  0  0  0  0
  129.7170  132.6130   62.5160 F   0  0  0  0  0  0  0  0  0  0  0  0
  129.5780  130.5210   62.0370 F   0  0  0  0  0  0  0  0  0  0  0  0
  128.8260  132.0190   60.6510 F   0  0  0  0  0  0  0  0  0  0  0  0
  126.5280  132.5630   62.4290 C   0  0  0  0  0  0  0  0  0  0  0  0
  126.4640  133.8210   61.7260 C   0  0  0  0  0  0  0  0  0  0  0  0
  127.5190  134.3230   61.0070 N   0  0  0  0  0  0  0  0  0  0  0  0
  125.2280  134.4780   61.8370 C   0  0  0  0  0  0  0  0  0  0  0  0
  124.8230  135.7640   61.2660 C   0  0  0  0  0  0  0  0  0  0  0  0
  123.7540  135.8780   60.6620 O   0  0  0  0  0  0  0  0  0  0  0  0
  125.6890  136.7880   61.4640 N   0  0  0  0  0  0  0  0  0  0  0  0
  125.5390  138.1010   61.0390 C   0  0  0  0  0  0  0  0  0  0  0  0
  124.6170  138.9670   61.3990 N   0  0  0  0  0  0  0  0  0  0  0  0
  124.7820  140.1290   60.7990 C   0  0  0  0  0  0  0  0  0  0  0  0
  125.8620  140.2230   59.9270 C   0  0  0  0  0  0  0  0  0  0  0  0
  126.6980  138.7000   59.8950 S   0  0  0  0  0  0  0  0  0  0  0  0
  124.1070  133.5620   62.8420 S   0  0  0  0  0  0  0  0  0  0  0  0
  125.2910  132.3010   63.0930 C   0  0  0  0  0  0  0  0  0  0  0  0
  125.0170  131.2290   63.8360 N   0  0  0  0  0  0  0  0  0  0  0  0
  1  2  1  0
  2  3  2  0
  3  4  1  0
  4  5  1  0
  5  6  1  0
  5  7  1  0
  5  8  1  0
  4  9  2  0
  9 10  1  0
 10 11  1  0
 10 12  2  0
 12 13  1  0
 13 14  2  0
 13 15  1  0
 15 16  1  0
 16 17  2  0
 17 18  1  0
 18 19  2  0
 19 20  1  0
 12 21  1  0
 21 22  1  0
 22 23  2  0
 23  2  1  0
 22  9  1  0
 20 16  1  0
M  END
>  <Binding energies>  (53) 
[-6.22]

>  <Ligand effiencies>  (53) 
[-0.23923076923076922]

>  <Interactions>  (53) 
["V-A:TYR:539:CD1:4871, V-A:TYR:539:CE1:4873, V-A:GLU:543:CD:4906, V-B:LEU:475:CD2:9230, V-A:ALA:541:CB:4890, V-A:TYR:539:C:4865, V-A:PRO:540:C:4879, V-A:TYR:539:CG:4870, V-A:ALA:541:CA:4888, V-B:ARG:545:CZ:9898, H-B:TYR:484:OH:9319, H-B:GLY:454:N:9021, V-B:GLY:454:CA:9020, H-A:TYR:539:O:4866, V-B:ILE:369:CD1:8210, V-B:PRO:482:CG:9298, V-B:ILE:369:CG2:8208, V-B:LEU:373:CD1:8251, V-B:SER:385:CA:8378, V-A:TYR:539:CB:4869, V-A:VAL:344:CG1:2998, V-B:HIS:383:CG:8361, V-B:HIS:383:CB:8360, V-B:HIS:383:CD2:8363, V-B:HIS:383:CE1:8365"]

$$$$
4bk_Grossjean_2025
     RDKit          3D

 28 29  0  0  0  0  0  0  0  0999 V2000
  124.8290  130.0190   58.2850 C   0  0  0  0  0  0  0  0  0  0  0  0
  123.8720  131.0420   58.5090 O   0  0  0  0  0  0  0  0  0  0  0  0
  123.7870  131.4500   59.8690 C   0  0  0  0  0  0  0  0  0  0  0  0
  125.1030  131.1220   60.5850 C   0  0  0  0  0  0  0  0  0  0  0  0
  125.9010  132.2950   60.6680 O   0  0  0  0  0  0  0  0  0  0  0  0
  125.4080  133.2590   61.5890 C   0  0  0  0  0  0  0  0  0  0  0  0
  125.0500  132.5660   62.9110 C   0  0  0  0  0  0  0  0  0  0  0  0
  125.9790  131.5200   63.1590 O   0  0  0  0  0  0  0  0  0  0  0  0
  126.6990  131.6670   64.3770 C   0  0  0  0  0  0  0  0  0  0  0  0
  128.0990  132.2290   64.0760 C   0  0  0  0  0  0  0  0  0  0  0  0
  128.4360  132.2380   62.6520 N   0  0  0  0  0  0  0  0  0  0  0  0
  129.6870  132.2430   62.1470 C   0  0  0  0  0  0  0  0  0  0  0  0
  130.6890  132.2200   62.8640 O   0  0  0  0  0  0  0  0  0  0  0  0
  129.7920  132.2670   60.6870 C   0  0  0  0  0  0  0  0  0  0  0  0
  128.4410  132.8420   59.7140 S   0  0  0  0  0  0  0  0  0  0  0  0
  129.3390  132.5870   58.2370 C   0  0  0  0  0  0  0  0  0  0  0  0
  128.8100  132.8580   57.0450 N   0  0  0  0  0  0  0  0  0  0  0  0
  129.6030  132.6220   55.9740 C   0  0  0  0  0  0  0  0  0  0  0  0
  128.9800  132.9400   54.6270 C   0  0  0  0  0  0  0  0  0  0  0  0
  130.9000  132.1250   56.0670 C   0  0  0  0  0  0  0  0  0  0  0  0
  131.4640  131.8360   57.3190 C   0  0  0  0  0  0  0  0  0  0  0  0
  132.8940  131.2870   57.3700 C   0  0  0  0  0  0  0  0  0  0  0  0
  133.6400  131.8620   58.3150 F   0  0  0  0  0  0  0  0  0  0  0  0
  132.8660  129.9790   57.6240 F   0  0  0  0  0  0  0  0  0  0  0  0
  133.4990  131.4960   56.2020 F   0  0  0  0  0  0  0  0  0  0  0  0
  130.6540  132.0750   58.4690 C   0  0  0  0  0  0  0  0  0  0  0  0
  130.8840  131.9080   59.8830 C   0  0  0  0  0  0  0  0  0  0  0  0
  132.0660  131.4340   60.3920 N   0  0  0  0  0  0  0  0  0  0  0  0
  1  2  1  0
  2  3  1  0
  3  4  1  0
  4  5  1  0
  5  6  1  0
  6  7  1  0
  7  8  1  0
  8  9  1  0
  9 10  1  0
 10 11  1  0
 11 12  1  0
 12 13  2  0
 12 14  1  0
 14 15  1  0
 15 16  1  0
 16 17  2  0
 17 18  1  0
 18 19  1  0
 18 20  2  0
 20 21  1  0
 21 22  1  0
 22 23  1  0
 22 24  1  0
 22 25  1  0
 21 26  2  0
 26 27  1  0
 27 28  1  0
 27 14  2  0
 26 16  1  0
M  END
>  <Binding energies>  (54) 
[-5.45]

>  <Ligand effiencies>  (54) 
[-0.17580645161290323]

>  <Interactions>  (54) 
["H-A:TYR:539:N:4868, V-A:TYR:539:CD1:4871, V-A:PRO:540:N:4882, V-A:MET:535:CE:4833, V-A:LEU:363:CD1:3186, V-A:ILE:538:CG2:4861, V-A:PRO:540:CG:4884, V-A:PRO:540:CA:4881, V-A:TYR:531:CE2:4791, V-A:TYR:539:CE1:4873, V-A:GLU:543:CD:4906, V-B:LEU:475:CD2:9230, V-A:ILE:538:CB:4860, V-A:TYR:531:CZ:4792, V-A:PRO:540:CB:4883, H-A:ALA:541:N:4889, V-A:ALA:541:CB:4890, V-A:TYR:539:C:4865, V-A:ASP:366:CB:3209, V-A:PRO:540:C:4879, V-A:ASP:366:CG:3210, V-B:ASP:366:CB:8183, V-B:ASP:366:CG:8184, V-A:TYR:539:CD2:4872, V-A:TYR:539:CE2:4874, V-A:TYR:539:CG:4870, V-A:ALA:541:CA:4888, V-B:GLY:454:CA:9020, H-A:TYR:539:OH:4876, V-A:ILE:538:CA:4858, V-B:ILE:369:CD1:8210, V-B:ILE:369:CG2:8208, V-A:LEU:363:CA:3182, V-A:LEU:363:CB:3184, H-A:ASP:366:OD2:3212, V-B:ASP:366:CA:8181, V-B:ILE:369:CB:8207, V-A:ILE:538:C:4856, V-A:TYR:531:CD2:4789, V-A:VAL:537:C:4848"]

$$$$
4cd_Grossjean_2025
     RDKit          3D

 29 32  0  0  0  0  0  0  0  0999 V2000
  127.8370  128.1390   63.6750 N   0  0  0  0  0  0  0  0  0  0  0  0
  128.2440  129.1160   62.8020 C   0  0  0  0  0  0  0  0  0  0  0  0
  129.3070  128.9480   61.9000 C   0  0  0  0  0  0  0  0  0  0  0  0
  130.1730  127.7800   61.7160 C   0  0  0  0  0  0  0  0  0  0  0  0
  130.5430  127.4440   60.5910 O   0  0  0  0  0  0  0  0  0  0  0  0
  130.5230  127.1320   62.8540 N   0  0  0  0  0  0  0  0  0  0  0  0
  131.2890  125.9630   63.0210 C   0  0  0  0  0  0  0  0  0  0  0  0
  130.9540  125.1620   64.1170 C   0  0  0  0  0  0  0  0  0  0  0  0
  131.6450  123.9790   64.3590 C   0  0  0  0  0  0  0  0  0  0  0  0
  132.6690  123.5890   63.4990 C   0  0  0  0  0  0  0  0  0  0  0  0
  133.0040  124.3700   62.3960 C   0  0  0  0  0  0  0  0  0  0  0  0
  132.3140  125.5550   62.1500 C   0  0  0  0  0  0  0  0  0  0  0  0
  129.5480  130.3970   60.9260 S   0  0  0  0  0  0  0  0  0  0  0  0
  128.2350  131.2160   61.7360 C   0  0  0  0  0  0  0  0  0  0  0  0
  127.8930  132.4630   61.4200 N   0  0  0  0  0  0  0  0  0  0  0  0
  126.8670  133.0210   62.1150 C   0  0  0  0  0  0  0  0  0  0  0  0
  126.5060  134.4280   61.7370 C   0  0  0  0  0  0  0  0  0  0  0  0
  125.1930  134.7570   61.3620 C   0  0  0  0  0  0  0  0  0  0  0  0
  124.8510  136.0610   61.0120 C   0  0  0  0  0  0  0  0  0  0  0  0
  125.8210  137.0570   61.0320 C   0  0  0  0  0  0  0  0  0  0  0  0
  127.1280  136.7590   61.4020 C   0  0  0  0  0  0  0  0  0  0  0  0
  127.4650  135.4560   61.7540 C   0  0  0  0  0  0  0  0  0  0  0  0
  126.1790  132.3190   63.1080 C   0  0  0  0  0  0  0  0  0  0  0  0
  126.5290  131.0020   63.4470 C   0  0  0  0  0  0  0  0  0  0  0  0
  125.7350  130.2910   64.5500 C   0  0  0  0  0  0  0  0  0  0  0  0
  126.5060  129.8310   65.5380 F   0  0  0  0  0  0  0  0  0  0  0  0
  124.8570  131.1370   65.0890 F   0  0  0  0  0  0  0  0  0  0  0  0
  125.0830  129.2490   64.0350 F   0  0  0  0  0  0  0  0  0  0  0  0
  127.6110  130.4110   62.7340 C   0  0  0  0  0  0  0  0  0  0  0  0
  1  2  1  0
  2  3  2  0
  3  4  1  0
  4  5  2  0
  4  6  1  0
  6  7  1  0
  7  8  2  0
  8  9  1  0
  9 10  2  0
 10 11  1  0
 11 12  2  0
  3 13  1  0
 13 14  1  0
 14 15  2  0
 15 16  1  0
 16 17  1  0
 17 18  2  0
 18 19  1  0
 19 20  2  0
 20 21  1  0
 21 22  2  0
 16 23  2  0
 23 24  1  0
 24 25  1  0
 25 26  1  0
 25 27  1  0
 25 28  1  0
 24 29  2  0
 29  2  1  0
 12  7  1  0
 29 14  1  0
 22 17  1  0
M  END
>  <Binding energies>  (55) 
[-7.58]

>  <Ligand effiencies>  (55) 
[-0.236875]

>  <Interactions>  (55) 
["V-A:TYR:539:CD1:4871, V-A:TYR:539:CE1:4873, V-A:GLU:543:CD:4906, V-B:LEU:475:CD2:9230, V-A:ARG:545:CZ:4924, V-A:ALA:541:CB:4890, V-B:GLU:543:CD:9880, H-B:GLU:543:OE2:9882, H-B:GLU:543:OE1:9881, H-A:GLU:543:OE2:4908, H-A:GLU:543:OE1:4907, V-A:GLY:454:CA:4046, V-B:ARG:545:CZ:9898, V-B:GLY:454:CA:9020, V-B:PRO:482:CG:9298, V-B:ILE:369:CG2:8208, V-B:LEU:373:CD1:8251, V-B:PRO:482:CB:9297, V-B:SER:385:CA:8378, V-A:TYR:539:CB:4869, V-B:TYR:484:CZ:9318"]

$$$$
4cg_Grossjean_2025
     RDKit          3D

 30 33  0  0  0  0  0  0  0  0999 V2000
  130.4840  128.0370   62.8700 N   0  0  0  0  0  0  0  0  0  0  0  0
  130.6710  127.2080   61.7940 C   0  0  0  0  0  0  0  0  0  0  0  0
  130.6050  127.6490   60.4640 C   0  0  0  0  0  0  0  0  0  0  0  0
  130.3870  129.0060   59.9630 C   0  0  0  0  0  0  0  0  0  0  0  0
  129.4380  129.2720   59.2220 O   0  0  0  0  0  0  0  0  0  0  0  0
  131.3040  129.9260   60.3290 N   0  0  0  0  0  0  0  0  0  0  0  0
  131.2750  131.3420   59.9660 C   0  0  0  0  0  0  0  0  0  0  0  0
  131.4230  131.5870   58.4680 C   0  0  0  0  0  0  0  0  0  0  0  0
  130.3110  131.9690   57.7130 C   0  0  0  0  0  0  0  0  0  0  0  0
  130.4490  132.2250   56.3510 C   0  0  0  0  0  0  0  0  0  0  0  0
  131.7000  132.1060   55.7510 C   0  0  0  0  0  0  0  0  0  0  0  0
  132.8160  131.7420   56.5010 C   0  0  0  0  0  0  0  0  0  0  0  0
  132.6790  131.4880   57.8630 C   0  0  0  0  0  0  0  0  0  0  0  0
  130.9130  126.3340   59.3340 S   0  0  0  0  0  0  0  0  0  0  0  0
  131.1060  125.1970   60.6480 C   0  0  0  0  0  0  0  0  0  0  0  0
  131.3760  123.9140   60.4220 N   0  0  0  0  0  0  0  0  0  0  0  0
  131.5140  123.1060   61.5050 C   0  0  0  0  0  0  0  0  0  0  0  0
  131.8170  121.6630   61.2160 C   0  0  0  0  0  0  0  0  0  0  0  0
  133.1170  121.2530   60.8770 C   0  0  0  0  0  0  0  0  0  0  0  0
  133.4020  119.9180   60.6070 C   0  0  0  0  0  0  0  0  0  0  0  0
  132.3870  118.9680   60.6700 C   0  0  0  0  0  0  0  0  0  0  0  0
  131.0900  119.3470   61.0000 C   0  0  0  0  0  0  0  0  0  0  0  0
  130.8100  120.6830   61.2690 C   0  0  0  0  0  0  0  0  0  0  0  0
  131.3610  123.5880   62.8100 C   0  0  0  0  0  0  0  0  0  0  0  0
  131.0750  124.9390   63.0600 C   0  0  0  0  0  0  0  0  0  0  0  0
  130.9200  125.4000   64.5140 C   0  0  0  0  0  0  0  0  0  0  0  0
  129.8690  126.2010   64.7000 F   0  0  0  0  0  0  0  0  0  0  0  0
  130.7610  124.3410   65.3080 F   0  0  0  0  0  0  0  0  0  0  0  0
  132.0050  126.0730   64.8920 F   0  0  0  0  0  0  0  0  0  0  0  0
  130.9440  125.7980   61.9310 C   0  0  0  0  0  0  0  0  0  0  0  0
  1  2  1  0
  2  3  2  0
  3  4  1  0
  4  5  2  0
  4  6  1  0
  6  7  1  0
  7  8  1  0
  8  9  2  0
  9 10  1  0
 10 11  2  0
 11 12  1  0
 12 13  2  0
  3 14  1  0
 14 15  1  0
 15 16  2  0
 16 17  1  0
 17 18  1  0
 18 19  2  0
 19 20  1  0
 20 21  2  0
 21 22  1  0
 22 23  2  0
 17 24  2  0
 24 25  1  0
 25 26  1  0
 26 27  1  0
 26 28  1  0
 26 29  1  0
 25 30  2  0
 30  2  1  0
 13  8  1  0
 30 15  1  0
 23 18  1  0
M  END
>  <Binding energies>  (56) 
[-7.74]

>  <Ligand effiencies>  (56) 
[-0.23454545454545456]

>  <Interactions>  (56) 
["V-A:PRO:540:N:4882, V-A:MET:535:CE:4833, V-A:LEU:363:CD1:3186, V-A:ILE:538:CG2:4861, V-A:PRO:540:CA:4881, V-A:TYR:531:CE2:4791, V-A:GLU:543:CD:4906, V-A:ILE:538:CB:4860, V-A:TYR:531:CZ:4792, V-A:PRO:540:CB:4883, V-A:ARG:545:CZ:4924, V-B:TYR:539:CE1:9847, V-B:TYR:539:CD1:9845, V-B:GLU:543:CD:9880, V-A:LEU:475:CD2:4256, V-A:LEU:373:CD1:3277, V-B:ALA:541:CB:9864, H-A:GLU:543:OE2:4908, H-A:GLU:543:OE1:4907, V-A:ASP:366:CG:3210, V-A:TYR:484:CZ:4344, V-B:GLU:543:CB:9878, V-A:ILE:369:CG2:3234, V-A:ILE:538:CA:4858, V-A:SER:385:CA:3404, H-A:ASP:366:OD2:3212, V-A:TYR:484:CE2:4343"]

$$$$
4ch_Grossjean_2025
     RDKit          3D

 36 39  0  0  0  0  0  0  0  0999 V2000
  128.5840  122.8560   55.7700 C   0  0  0  0  0  0  0  0  0  0  0  0
  128.2510  122.1340   56.9510 O   0  0  0  0  0  0  0  0  0  0  0  0
  127.4500  122.7310   57.9070 C   0  0  0  0  0  0  0  0  0  0  0  0
  127.9270  123.2190   59.1350 C   0  0  0  0  0  0  0  0  0  0  0  0
  127.0600  123.8130   60.0540 C   0  0  0  0  0  0  0  0  0  0  0  0
  127.5910  124.3120   61.3930 C   0  0  0  0  0  0  0  0  0  0  0  0
  127.3990  125.7450   61.6190 N   0  0  0  0  0  0  0  0  0  0  0  0
  127.5240  126.7100   60.6840 C   0  0  0  0  0  0  0  0  0  0  0  0
  127.7940  126.4620   59.5070 O   0  0  0  0  0  0  0  0  0  0  0  0
  127.2830  128.0800   61.1400 C   0  0  0  0  0  0  0  0  0  0  0  0
  126.9420  129.3510   59.9710 S   0  0  0  0  0  0  0  0  0  0  0  0
  126.7680  130.5350   61.2440 C   0  0  0  0  0  0  0  0  0  0  0  0
  126.4900  131.8080   60.9760 N   0  0  0  0  0  0  0  0  0  0  0  0
  126.3670  132.6550   62.0310 C   0  0  0  0  0  0  0  0  0  0  0  0
  126.0590  134.0850   61.6940 C   0  0  0  0  0  0  0  0  0  0  0  0
  127.0670  135.0630   61.7200 C   0  0  0  0  0  0  0  0  0  0  0  0
  126.7880  136.3920   61.4090 C   0  0  0  0  0  0  0  0  0  0  0  0
  125.4920  136.7630   61.0680 C   0  0  0  0  0  0  0  0  0  0  0  0
  124.4740  135.8150   61.0390 C   0  0  0  0  0  0  0  0  0  0  0  0
  124.7570  134.4890   61.3520 C   0  0  0  0  0  0  0  0  0  0  0  0
  126.5430  132.2220   63.3490 C   0  0  0  0  0  0  0  0  0  0  0  0
  126.8380  130.8810   63.6450 C   0  0  0  0  0  0  0  0  0  0  0  0
  127.0180  130.4730   65.1110 C   0  0  0  0  0  0  0  0  0  0  0  0
  127.8650  129.4540   65.2720 F   0  0  0  0  0  0  0  0  0  0  0  0
  127.4950  131.5020   65.8100 F   0  0  0  0  0  0  0  0  0  0  0  0
  125.8450  130.1010   65.6230 F   0  0  0  0  0  0  0  0  0  0  0  0
  126.9550  129.9820   62.5450 C   0  0  0  0  0  0  0  0  0  0  0  0
  127.2380  128.5700   62.4540 C   0  0  0  0  0  0  0  0  0  0  0  0
  127.4520  127.7820   63.5560 N   0  0  0  0  0  0  0  0  0  0  0  0
  125.7000  123.9080   59.7560 C   0  0  0  0  0  0  0  0  0  0  0  0
  125.1960  123.4270   58.5360 C   0  0  0  0  0  0  0  0  0  0  0  0
  123.8630  123.4890   58.1750 O   0  0  0  0  0  0  0  0  0  0  0  0
  123.3400  124.6990   57.6360 C   0  0  0  0  0  0  0  0  0  0  0  0
  126.0830  122.8470   57.6180 C   0  0  0  0  0  0  0  0  0  0  0  0
  125.6010  122.3580   56.4280 O   0  0  0  0  0  0  0  0  0  0  0  0
  125.3310  123.3610   55.4580 C   0  0  0  0  0  0  0  0  0  0  0  0
  1  2  1  0
  2  3  1  0
  3  4  2  0
  4  5  1  0
  5  6  1  0
  6  7  1  0
  7  8  1  0
  8  9  2  0
  8 10  1  0
 10 11  1  0
 11 12  1  0
 12 13  2  0
 13 14  1  0
 14 15  1  0
 15 16  2  0
 16 17  1  0
 17 18  2  0
 18 19  1  0
 19 20  2  0
 14 21  2  0
 21 22  1  0
 22 23  1  0
 23 24  1  0
 23 25  1  0
 23 26  1  0
 22 27  2  0
 27 28  1  0
 28 29  1  0
  5 30  2  0
 30 31  1  0
 31 32  1  0
 32 33  1  0
 31 34  2  0
 34 35  1  0
 35 36  1  0
 34  3  1  0
 28 10  2  0
 27 12  1  0
 20 15  1  0
M  END
>  <Binding energies>  (57) 
[-8.05]

>  <Ligand effiencies>  (57) 
[-0.20641025641025643]

>  <Interactions>  (57) 
["V-A:TYR:539:CD1:4871, V-A:TYR:539:CE1:4873, V-A:GLU:543:CD:4906, V-B:LEU:475:CD2:9230, V-A:ALA:541:CB:4890, H-B:TYR:539:N:9842, V-B:TYR:539:CE1:9847, V-B:TYR:531:CE2:9765, V-B:PRO:540:CA:9855, V-B:ILE:538:CB:9834, V-B:MET:535:CE:9807, V-B:TYR:539:CZ:9849, V-B:LEU:363:CD1:8160, V-B:PRO:540:N:9856, V-B:TYR:539:C:9839, V-B:GLU:543:CD:9880, V-B:PRO:540:CD:9859, V-B:TYR:531:CZ:9766, V-B:PRO:540:CB:9857, V-B:ILE:538:CG2:9835, V-B:TYR:539:CG:9844, H-B:GLU:543:OE2:9882, H-B:GLU:543:OE1:9881, H-A:GLU:543:OE2:4908, V-B:LEU:363:CB:8158, V-B:LEU:363:CA:8156, V-B:ASP:366:CB:8183, V-B:ASP:366:CG:8184, V-B:ILE:538:CA:9832, V-B:SER:385:CB:8380, V-B:PRO:482:CG:9298, V-B:ILE:369:CG2:8208, V-B:LEU:373:CD1:8251, V-B:PRO:482:CB:9297, V-B:SER:385:CA:8378, V-B:TYR:539:CE2:9848, V-B:TYR:539:CD2:9846, V-B:TYR:484:CE2:9317, V-B:TYR:484:CZ:9318, V-A:GLU:543:CB:4904, V-A:GLU:543:CG:4905, V-B:LEU:363:C:8154"]

$$$$
4cj_Grossjean_2025
     RDKit          3D

 28 31  0  0  0  0  0  0  0  0999 V2000
  127.8210  128.1250   63.6390 N   0  0  0  0  0  0  0  0  0  0  0  0
  128.2580  129.1250   62.8080 C   0  0  0  0  0  0  0  0  0  0  0  0
  129.3580  128.9830   61.9470 C   0  0  0  0  0  0  0  0  0  0  0  0
  130.2200  127.8150   61.7500 C   0  0  0  0  0  0  0  0  0  0  0  0
  130.6230  127.5110   60.6240 O   0  0  0  0  0  0  0  0  0  0  0  0
  130.5170  127.1150   62.8720 N   0  0  0  0  0  0  0  0  0  0  0  0
  131.3070  125.9760   62.9600 C   0  0  0  0  0  0  0  0  0  0  0  0
  131.7500  125.2240   61.9760 N   0  0  0  0  0  0  0  0  0  0  0  0
  132.4790  124.2200   62.4230 C   0  0  0  0  0  0  0  0  0  0  0  0
  132.6400  124.1450   63.8040 C   0  0  0  0  0  0  0  0  0  0  0  0
  131.7880  125.4650   64.5470 S   0  0  0  0  0  0  0  0  0  0  0  0
  129.6330  130.4550   61.0170 S   0  0  0  0  0  0  0  0  0  0  0  0
  128.2790  131.2470   61.7880 C   0  0  0  0  0  0  0  0  0  0  0  0
  127.9370  132.4950   61.4780 N   0  0  0  0  0  0  0  0  0  0  0  0
  126.8670  133.0250   62.1230 C   0  0  0  0  0  0  0  0  0  0  0  0
  126.5000  134.4310   61.7410 C   0  0  0  0  0  0  0  0  0  0  0  0
  127.4620  135.4530   61.7560 C   0  0  0  0  0  0  0  0  0  0  0  0
  127.1270  136.7600   61.4080 C   0  0  0  0  0  0  0  0  0  0  0  0
  125.8200  137.0630   61.0420 C   0  0  0  0  0  0  0  0  0  0  0  0
  124.8470  136.0700   61.0210 C   0  0  0  0  0  0  0  0  0  0  0  0
  125.1870  134.7650   61.3680 C   0  0  0  0  0  0  0  0  0  0  0  0
  126.1600  132.3080   63.0940 C   0  0  0  0  0  0  0  0  0  0  0  0
  126.5120  130.9910   63.4300 C   0  0  0  0  0  0  0  0  0  0  0  0
  125.6920  130.2610   64.5000 C   0  0  0  0  0  0  0  0  0  0  0  0
  126.4420  129.7590   65.4830 F   0  0  0  0  0  0  0  0  0  0  0  0
  124.8220  131.1060   65.0530 F   0  0  0  0  0  0  0  0  0  0  0  0
  125.0280  129.2470   63.9460 F   0  0  0  0  0  0  0  0  0  0  0  0
  127.6230  130.4190   62.7450 C   0  0  0  0  0  0  0  0  0  0  0  0
  1  2  1  0
  2  3  2  0
  3  4  1  0
  4  5  2  0
  4  6  1  0
  6  7  1  0
  7  8  2  0
  8  9  1  0
  9 10  2  0
 10 11  1  0
  3 12  1  0
 12 13  1  0
 13 14  2  0
 14 15  1  0
 15 16  1  0
 16 17  2  0
 17 18  1  0
 18 19  2  0
 19 20  1  0
 20 21  2  0
 15 22  2  0
 22 23  1  0
 23 24  1  0
 24 25  1  0
 24 26  1  0
 24 27  1  0
 23 28  2  0
 28  2  1  0
 11  7  1  0
 28 13  1  0
 21 16  1  0
M  END
>  <Binding energies>  (58) 
[-7.03]

>  <Ligand effiencies>  (58) 
[-0.2267741935483871]

>  <Interactions>  (58) 
["V-A:TYR:539:CD1:4871, V-A:TYR:539:CE1:4873, V-A:GLU:543:CD:4906, V-B:LEU:475:CD2:9230, V-A:ARG:545:CZ:4924, V-A:ALA:541:CB:4890, V-B:GLU:543:CD:9880, H-B:GLU:543:OE2:9882, H-B:GLU:543:OE1:9881, H-A:GLU:543:OE2:4908, H-A:GLU:543:OE1:4907, H-A:ARG:545:NH2:4926, V-A:GLY:454:CA:4046, V-B:ARG:545:CZ:9898, V-B:GLY:453:C:9013, V-B:GLY:454:CA:9020, V-B:PRO:482:CG:9298, V-B:ILE:369:CG2:8208, V-B:LEU:373:CD1:8251, V-B:PRO:482:CB:9297, V-B:SER:385:CA:8378, V-A:TYR:539:CB:4869, V-B:TYR:484:CZ:9318"]

$$$$
4ck_Grossjean_2025
     RDKit          3D

 33 35  0  0  0  0  0  0  0  0999 V2000
  132.6210  131.4810   61.7790 C   0  0  0  0  0  0  0  0  0  0  0  0
  131.2730  131.9230   61.7430 O   0  0  0  0  0  0  0  0  0  0  0  0
  130.5940  131.5680   60.5460 C   0  0  0  0  0  0  0  0  0  0  0  0
  131.6240  131.1360   59.4950 C   0  0  0  0  0  0  0  0  0  0  0  0
  131.0310  131.2120   58.2060 O   0  0  0  0  0  0  0  0  0  0  0  0
  131.9550  131.5330   57.1750 C   0  0  0  0  0  0  0  0  0  0  0  0
  131.3380  132.5990   56.2610 C   0  0  0  0  0  0  0  0  0  0  0  0
  130.0080  132.8550   56.6900 O   0  0  0  0  0  0  0  0  0  0  0  0
  129.0370  132.7310   55.6570 C   0  0  0  0  0  0  0  0  0  0  0  0
  127.9100  131.7960   56.1190 C   0  0  0  0  0  0  0  0  0  0  0  0
  128.4230  130.5240   56.6290 N   0  0  0  0  0  0  0  0  0  0  0  0
  127.8260  129.3220   56.4970 C   0  0  0  0  0  0  0  0  0  0  0  0
  126.7650  129.1680   55.8890 O   0  0  0  0  0  0  0  0  0  0  0  0
  128.5220  128.1920   57.1140 C   0  0  0  0  0  0  0  0  0  0  0  0
  129.9230  128.4720   58.1450 S   0  0  0  0  0  0  0  0  0  0  0  0
  130.0750  126.7630   58.4750 C   0  0  0  0  0  0  0  0  0  0  0  0
  131.0360  126.2910   59.2670 N   0  0  0  0  0  0  0  0  0  0  0  0
  131.0760  124.9480   59.4640 C   0  0  0  0  0  0  0  0  0  0  0  0
  132.1600  124.4490   60.3760 C   0  0  0  0  0  0  0  0  0  0  0  0
  132.8620  123.2700   60.0810 C   0  0  0  0  0  0  0  0  0  0  0  0
  133.8670  122.8010   60.9240 C   0  0  0  0  0  0  0  0  0  0  0  0
  134.1850  123.5090   62.0790 C   0  0  0  0  0  0  0  0  0  0  0  0
  133.5080  124.6830   62.3920 C   0  0  0  0  0  0  0  0  0  0  0  0
  132.5050  125.1480   61.5460 C   0  0  0  0  0  0  0  0  0  0  0  0
  130.1460  124.0860   58.8730 C   0  0  0  0  0  0  0  0  0  0  0  0
  129.1300  124.5730   58.0350 C   0  0  0  0  0  0  0  0  0  0  0  0
  128.1470  123.5710   57.4170 C   0  0  0  0  0  0  0  0  0  0  0  0
  128.3670  122.3140   57.8040 F   0  0  0  0  0  0  0  0  0  0  0  0
  126.9010  123.8860   57.7690 F   0  0  0  0  0  0  0  0  0  0  0  0
  128.2490  123.6030   56.0880 F   0  0  0  0  0  0  0  0  0  0  0  0
  129.0800  125.9800   57.8200 C   0  0  0  0  0  0  0  0  0  0  0  0
  128.1990  126.8270   57.0530 C   0  0  0  0  0  0  0  0  0  0  0  0
  127.1440  126.3380   56.3270 N   0  0  0  0  0  0  0  0  0  0  0  0
  1  2  1  0
  2  3  1  0
  3  4  1  0
  4  5  1  0
  5  6  1  0
  6  7  1  0
  7  8  1  0
  8  9  1  0
  9 10  1  0
 10 11  1  0
 11 12  1  0
 12 13  2  0
 12 14  1  0
 14 15  1  0
 15 16  1  0
 16 17  2  0
 17 18  1  0
 18 19  1  0
 19 20  2  0
 20 21  1  0
 21 22  2  0
 22 23  1  0
 23 24  2  0
 18 25  2  0
 25 26  1  0
 26 27  1  0
 27 28  1  0
 27 29  1  0
 27 30  1  0
 26 31  2  0
 31 32  1  0
 32 33  1  0
 32 14  2  0
 31 16  1  0
 24 19  1  0
M  END
>  <Binding energies>  (59) 
[-6.04]

>  <Ligand effiencies>  (59) 
[-0.16777777777777778]

>  <Interactions>  (59) 
["H-A:TYR:539:N:4868, V-A:PRO:540:N:4882, V-A:MET:535:CE:4833, V-A:ILE:538:CG2:4861, V-A:PRO:540:CD:4885, V-A:PRO:540:CA:4881, V-A:TYR:539:CE1:4873, V-A:ILE:538:CB:4860, V-A:ASN:362:CB:3173, V-A:PRO:540:CB:4883, V-A:ARG:545:CZ:4924, H-A:ALA:541:N:4889, V-A:TYR:539:CZ:4875, V-B:TYR:539:CE1:9847, V-B:TYR:539:CD1:9845, V-B:MET:535:CE:9807, V-B:TYR:539:CZ:9849, V-B:PRO:540:N:9856, V-B:TYR:539:C:9839, V-B:TYR:531:CZ:9766, V-B:TYR:539:CG:9844, V-B:TYR:539:CA:9841, V-A:ASP:366:CG:3210, V-A:GLY:453:CA:4041, V-A:GLY:454:CA:4046, V-A:GLY:453:C:4039, V-A:ILE:369:CD1:3236, V-A:ILE:369:CG2:3234, V-A:TYR:539:CD2:4872, V-A:TYR:539:CE2:4874, H-B:TYR:531:OH:9767, V-A:TYR:539:CG:4870, V-A:ILE:538:CA:4858, V-B:TYR:539:CD2:9846, V-A:ILE:538:C:4856, H-B:MET:535:SD:9806"]

$$$$
4dd_Grossjean_2025
     RDKit          3D

 26 29  0  0  0  0  0  0  0  0999 V2000
  123.6630  130.3800   62.8660 C   0  0  0  0  0  0  0  0  0  0  0  0
  125.0820  130.7720   62.4820 C   0  0  0  0  0  0  0  0  0  0  0  0
  126.0640  129.7740   62.4770 C   0  0  0  0  0  0  0  0  0  0  0  0
  127.3890  130.0700   62.1320 C   0  0  0  0  0  0  0  0  0  0  0  0
  128.4630  129.0230   62.1240 C   0  0  0  0  0  0  0  0  0  0  0  0
  129.6380  129.2030   61.3770 C   0  0  0  0  0  0  0  0  0  0  0  0
  130.6400  128.2370   61.3670 C   0  0  0  0  0  0  0  0  0  0  0  0
  130.4800  127.0710   62.1070 C   0  0  0  0  0  0  0  0  0  0  0  0
  129.3280  126.8660   62.8580 C   0  0  0  0  0  0  0  0  0  0  0  0
  128.3280  127.8360   62.8660 C   0  0  0  0  0  0  0  0  0  0  0  0
  127.7810  131.3310   61.8010 N   0  0  0  0  0  0  0  0  0  0  0  0
  126.8450  132.2800   61.7990 C   0  0  0  0  0  0  0  0  0  0  0  0
  127.2070  133.9380   61.3760 S   0  0  0  0  0  0  0  0  0  0  0  0
  125.5260  134.4170   61.6230 C   0  0  0  0  0  0  0  0  0  0  0  0
  125.1100  135.8030   61.4000 C   0  0  0  0  0  0  0  0  0  0  0  0
  123.9210  136.0840   61.2400 O   0  0  0  0  0  0  0  0  0  0  0  0
  126.1110  136.7160   61.3940 N   0  0  0  0  0  0  0  0  0  0  0  0
  126.0600  138.1020   61.1580 C   0  0  0  0  0  0  0  0  0  0  0  0
  125.6440  138.8910   62.2350 C   0  0  0  0  0  0  0  0  0  0  0  0
  125.5740  140.2750   62.1060 C   0  0  0  0  0  0  0  0  0  0  0  0
  125.9270  140.8740   60.9000 C   0  0  0  0  0  0  0  0  0  0  0  0
  126.3540  140.1020   59.8230 C   0  0  0  0  0  0  0  0  0  0  0  0
  126.4250  138.7170   59.9490 C   0  0  0  0  0  0  0  0  0  0  0  0
  124.7420  133.3230   62.0200 C   0  0  0  0  0  0  0  0  0  0  0  0
  123.3980  133.4030   62.2880 N   0  0  0  0  0  0  0  0  0  0  0  0
  125.4730  132.0880   62.1260 C   0  0  0  0  0  0  0  0  0  0  0  0
  1  2  1  0
  2  3  2  0
  3  4  1  0
  4  5  1  0
  5  6  2  0
  6  7  1  0
  7  8  2  0
  8  9  1  0
  9 10  2  0
  4 11  2  0
 11 12  1  0
 12 13  1  0
 13 14  1  0
 14 15  1  0
 15 16  2  0
 15 17  1  0
 17 18  1  0
 18 19  2  0
 19 20  1  0
 20 21  2  0
 21 22  1  0
 22 23  2  0
 14 24  2  0
 24 25  1  0
 24 26  1  0
 26  2  1  0
 10  5  1  0
 26 12  2  0
 23 18  1  0
M  END
>  <Binding energies>  (60) 
[-7.84]

>  <Ligand effiencies>  (60) 
[-0.27034482758620687]

>  <Interactions>  (60) 
["V-A:TYR:539:CD1:4871, V-A:TYR:539:CE1:4873, V-B:LEU:475:CD2:9230, V-B:GLU:543:CD:9880, V-A:TYR:539:CG:4870, V-B:ARG:545:CZ:9898, V-B:GLY:453:C:9013, V-B:GLY:453:CA:9015, V-B:GLY:454:CA:9020, H-A:TYR:539:O:4866, V-B:ILE:369:CD1:8210, V-B:SER:385:CB:8380, V-B:PRO:482:CG:9298, V-B:ILE:369:CG2:8208, V-B:LEU:373:CD1:8251, V-B:PRO:482:CB:9297, V-B:SER:385:CA:8378, V-B:SER:385:C:8376, V-A:TYR:539:CB:4869, V-A:VAL:344:CG1:2998, V-B:THR:477:CA:9241, V-B:HIS:383:CG:8361, V-B:HIS:383:CB:8360, V-B:HIS:383:CD2:8363, H-B:SER:385:O:8377, V-B:HIS:383:CE1:8365, V-B:ILE:369:CG1:8209"]

$$$$
4dg_Grossjean_2025
     RDKit          3D

 27 30  0  0  0  0  0  0  0  0999 V2000
  134.7180  124.0990   62.1290 C   0  0  0  0  0  0  0  0  0  0  0  0
  133.2110  124.0600   61.9230 C   0  0  0  0  0  0  0  0  0  0  0  0
  132.4960  125.2570   62.0460 C   0  0  0  0  0  0  0  0  0  0  0  0
  131.1080  125.2880   61.8680 C   0  0  0  0  0  0  0  0  0  0  0  0
  130.3140  126.5580   61.9920 C   0  0  0  0  0  0  0  0  0  0  0  0
  130.6950  127.7170   61.2960 C   0  0  0  0  0  0  0  0  0  0  0  0
  129.9660  128.8980   61.4110 C   0  0  0  0  0  0  0  0  0  0  0  0
  128.8390  128.9370   62.2240 C   0  0  0  0  0  0  0  0  0  0  0  0
  128.4400  127.8050   62.9280 C   0  0  0  0  0  0  0  0  0  0  0  0
  129.1730  126.6270   62.8120 C   0  0  0  0  0  0  0  0  0  0  0  0
  130.3990  124.1700   61.5530 N   0  0  0  0  0  0  0  0  0  0  0  0
  131.0780  123.0290   61.4370 C   0  0  0  0  0  0  0  0  0  0  0  0
  130.2900  121.5190   61.0430 S   0  0  0  0  0  0  0  0  0  0  0  0
  131.8250  120.6540   61.0950 C   0  0  0  0  0  0  0  0  0  0  0  0
  131.8620  119.2090   60.8740 C   0  0  0  0  0  0  0  0  0  0  0  0
  132.9020  118.5640   61.0210 O   0  0  0  0  0  0  0  0  0  0  0  0
  130.7060  118.6460   60.4660 N   0  0  0  0  0  0  0  0  0  0  0  0
  130.5040  117.2210   60.2060 C   0  0  0  0  0  0  0  0  0  0  0  0
  131.7700  116.3880   60.3800 C   0  0  0  0  0  0  0  0  0  0  0  0
  132.7110  116.3310   59.3470 C   0  0  0  0  0  0  0  0  0  0  0  0
  133.8820  115.5980   59.5140 C   0  0  0  0  0  0  0  0  0  0  0  0
  134.1150  114.9340   60.7160 C   0  0  0  0  0  0  0  0  0  0  0  0
  133.1890  115.0000   61.7560 C   0  0  0  0  0  0  0  0  0  0  0  0
  132.0180  115.7340   61.5900 C   0  0  0  0  0  0  0  0  0  0  0  0
  132.8850  121.5140   61.4200 C   0  0  0  0  0  0  0  0  0  0  0  0
  134.1890  121.1070   61.5430 N   0  0  0  0  0  0  0  0  0  0  0  0
  132.4840  122.8830   61.6090 C   0  0  0  0  0  0  0  0  0  0  0  0
  1  2  1  0
  2  3  2  0
  3  4  1  0
  4  5  1  0
  5  6  2  0
  6  7  1  0
  7  8  2  0
  8  9  1  0
  9 10  2  0
  4 11  2  0
 11 12  1  0
 12 13  1  0
 13 14  1  0
 14 15  1  0
 15 16  2  0
 15 17  1  0
 17 18  1  0
 18 19  1  0
 19 20  2  0
 20 21  1  0
 21 22  2  0
 22 23  1  0
 23 24  2  0
 14 25  2  0
 25 26  1  0
 25 27  1  0
 27  2  1  0
 10  5  1  0
 27 12  2  0
 24 19  1  0
M  END
>  <Binding energies>  (61) 
[-8.3]

>  <Ligand effiencies>  (61) 
[-0.27666666666666667]

>  <Interactions>  (61) 
["V-A:GLU:543:CD:4906, V-A:ARG:545:CZ:4924, V-B:TYR:539:CE1:9847, V-B:TYR:539:CD1:9845, V-B:TYR:539:C:9839, V-B:GLU:543:CD:9880, V-A:LEU:475:CD2:4256, V-B:TYR:539:CG:9844, V-A:LEU:373:CD1:3277, V-A:PRO:482:CB:4323, V-B:ALA:541:CB:9864, V-A:PRO:482:CG:4324, V-A:GLY:453:CA:4041, V-A:GLY:454:CA:4046, V-A:GLY:453:C:4039, V-A:ILE:369:CD1:3236, V-A:ILE:369:CG2:3234, H-B:TYR:539:O:9840, V-A:SER:385:CA:3404, V-A:SER:385:CB:3406, V-B:VAL:344:CG1:7972, V-B:TYR:539:CB:9843, V-A:SER:385:C:3402, V-A:HIS:383:CG:3387, V-A:HIS:383:CB:3386, V-A:LEU:373:CD2:3278, V-A:VAL:384:C:3394, V-A:CYS:476:C:4261, V-A:THR:477:CA:4267, H-A:SER:385:O:3403, V-A:THR:477:CG2:4270, V-A:LEU:373:CG:3276, V-A:HIS:383:CA:3384, V-A:THR:477:CB:4269, V-A:HIS:383:C:3382"]

$$$$
4dj_Grossjean_2025
     RDKit          3D

 25 28  0  0  0  0  0  0  0  0999 V2000
  123.4460  131.5040   60.6660 C   0  0  0  0  0  0  0  0  0  0  0  0
  124.5020  132.3710   61.3350 C   0  0  0  0  0  0  0  0  0  0  0  0
  124.5820  133.7180   60.9630 C   0  0  0  0  0  0  0  0  0  0  0  0
  125.5330  134.5690   61.5390 C   0  0  0  0  0  0  0  0  0  0  0  0
  125.6380  136.0200   61.1630 C   0  0  0  0  0  0  0  0  0  0  0  0
  124.4860  136.8020   60.9800 C   0  0  0  0  0  0  0  0  0  0  0  0
  124.5760  138.1470   60.6320 C   0  0  0  0  0  0  0  0  0  0  0  0
  125.8270  138.7310   60.4570 C   0  0  0  0  0  0  0  0  0  0  0  0
  126.9840  137.9790   60.6280 C   0  0  0  0  0  0  0  0  0  0  0  0
  126.8890  136.6360   60.9770 C   0  0  0  0  0  0  0  0  0  0  0  0
  126.4030  134.1340   62.4900 N   0  0  0  0  0  0  0  0  0  0  0  0
  126.3290  132.8520   62.8450 C   0  0  0  0  0  0  0  0  0  0  0  0
  127.3920  132.1590   64.0500 S   0  0  0  0  0  0  0  0  0  0  0  0
  126.6310  130.5750   63.8780 C   0  0  0  0  0  0  0  0  0  0  0  0
  127.1010  129.4390   64.6720 C   0  0  0  0  0  0  0  0  0  0  0  0
  127.6930  128.4980   64.1360 O   0  0  0  0  0  0  0  0  0  0  0  0
  126.8300  129.5020   65.9980 N   0  0  0  0  0  0  0  0  0  0  0  0
  127.1610  128.5620   66.9640 C   0  0  0  0  0  0  0  0  0  0  0  0
  126.3500  127.7620   67.6240 N   0  0  0  0  0  0  0  0  0  0  0  0
  127.0100  126.9940   68.4690 C   0  0  0  0  0  0  0  0  0  0  0  0
  128.3910  127.1610   68.5050 C   0  0  0  0  0  0  0  0  0  0  0  0
  128.8400  128.3960   67.3660 S   0  0  0  0  0  0  0  0  0  0  0  0
  125.6050  130.6090   62.9210 C   0  0  0  0  0  0  0  0  0  0  0  0
  124.8440  129.5190   62.5790 N   0  0  0  0  0  0  0  0  0  0  0  0
  125.4100  131.8990   62.3180 C   0  0  0  0  0  0  0  0  0  0  0  0
  1  2  1  0
  2  3  2  0
  3  4  1  0
  4  5  1  0
  5  6  2  0
  6  7  1  0
  7  8  2  0
  8  9  1  0
  9 10  2  0
  4 11  2  0
 11 12  1  0
 12 13  1  0
 13 14  1  0
 14 15  1  0
 15 16  2  0
 15 17  1  0
 17 18  1  0
 18 19  2  0
 19 20  1  0
 20 21  2  0
 21 22  1  0
 14 23  2  0
 23 24  1  0
 23 25  1  0
 25  2  1  0
 10  5  1  0
 25 12  2  0
 22 18  1  0
M  END
>  <Binding energies>  (62) 
[-7.44]

>  <Ligand effiencies>  (62) 
[-0.26571428571428574]

>  <Interactions>  (62) 
["V-A:TYR:539:CD1:4871, V-A:TYR:539:CE1:4873, V-A:GLU:543:CD:4906, V-B:LEU:475:CD2:9230, V-A:ALA:541:CB:4890, V-B:GLU:543:CD:9880, V-B:GLU:543:CG:9879, V-B:ASP:366:CG:8184, V-B:GLU:543:CB:9878, V-A:TYR:539:CG:4870, V-B:ARG:545:CZ:9898, V-B:HIS:456:CE1:9040, H-B:TYR:484:OH:9319, V-B:ARG:545:CG:9894, H-B:ARG:545:NE:9896, H-B:ASP:366:OD1:8185, V-B:ILE:369:CD1:8210, V-B:SER:385:CB:8380, V-B:PRO:482:CG:9298, V-B:ILE:369:CG2:8208, V-B:LEU:373:CD1:8251, V-B:PRO:482:CB:9297, V-B:SER:385:CA:8378, V-B:ILE:369:CB:8207, V-A:TYR:539:CB:4869, V-A:VAL:344:CG1:2998, V-A:GLU:543:CB:4904, V-A:GLU:543:CG:4905, V-B:GLU:543:C:9874, V-B:ILE:369:CG1:8209"]

$$$$
4ea_Grossjean_2025
     RDKit          3D

 31 34  0  0  0  0  0  0  0  0999 V2000
  126.8270  141.9670   62.8340 C   0  0  0  0  0  0  0  0  0  0  0  0
  126.0730  141.3370   61.6590 C   0  0  0  0  0  0  0  0  0  0  0  0
  124.9770  140.5790   62.1530 O   0  0  0  0  0  0  0  0  0  0  0  0
  124.4030  139.6030   61.4040 C   0  0  0  0  0  0  0  0  0  0  0  0
  123.3390  139.7510   60.7950 O   0  0  0  0  0  0  0  0  0  0  0  0
  125.1920  138.3260   61.3890 C   0  0  0  0  0  0  0  0  0  0  0  0
  124.5100  137.1020   61.3830 C   0  0  0  0  0  0  0  0  0  0  0  0
  125.2130  135.9000   61.3700 C   0  0  0  0  0  0  0  0  0  0  0  0
  126.6080  135.8960   61.3620 C   0  0  0  0  0  0  0  0  0  0  0  0
  127.2110  134.6230   61.3490 N   0  0  0  0  0  0  0  0  0  0  0  0
  126.8370  133.4680   61.9530 C   0  0  0  0  0  0  0  0  0  0  0  0
  125.8370  133.3480   62.6610 O   0  0  0  0  0  0  0  0  0  0  0  0
  127.7200  132.3240   61.7120 C   0  0  0  0  0  0  0  0  0  0  0  0
  127.6660  130.9140   62.7730 S   0  0  0  0  0  0  0  0  0  0  0  0
  128.9170  130.1120   61.8530 C   0  0  0  0  0  0  0  0  0  0  0  0
  129.3640  128.8980   62.1790 N   0  0  0  0  0  0  0  0  0  0  0  0
  130.3370  128.3880   61.3840 C   0  0  0  0  0  0  0  0  0  0  0  0
  130.8300  127.0060   61.7740 C   0  0  0  0  0  0  0  0  0  0  0  0
  130.8670  129.0550   60.2830 C   0  0  0  0  0  0  0  0  0  0  0  0
  130.3950  130.3280   59.9440 C   0  0  0  0  0  0  0  0  0  0  0  0
  130.9680  131.0240   58.7700 C   0  0  0  0  0  0  0  0  0  0  0  0
  132.2940  131.4690   58.7950 C   0  0  0  0  0  0  0  0  0  0  0  0
  132.8350  132.1220   57.6910 C   0  0  0  0  0  0  0  0  0  0  0  0
  132.0470  132.3340   56.5620 C   0  0  0  0  0  0  0  0  0  0  0  0
  130.7250  131.9000   56.5280 C   0  0  0  0  0  0  0  0  0  0  0  0
  130.1860  131.2470   57.6330 C   0  0  0  0  0  0  0  0  0  0  0  0
  129.3750  130.8990   60.7530 C   0  0  0  0  0  0  0  0  0  0  0  0
  128.6750  132.1560   60.6960 C   0  0  0  0  0  0  0  0  0  0  0  0
  128.9320  133.0930   59.7290 N   0  0  0  0  0  0  0  0  0  0  0  0
  127.2990  137.1180   61.3680 C   0  0  0  0  0  0  0  0  0  0  0  0
  126.5950  138.3180   61.3820 C   0  0  0  0  0  0  0  0  0  0  0  0
  1  2  1  0
  2  3  1  0
  3  4  1  0
  4  5  2  0
  4  6  1  0
  6  7  2  0
  7  8  1  0
  8  9  2  0
  9 10  1  0
 10 11  1  0
 11 12  2  0
 11 13  1  0
 13 14  1  0
 14 15  1  0
 15 16  2  0
 16 17  1  0
 17 18  1  0
 17 19  2  0
 19 20  1  0
 20 21  1  0
 21 22  2  0
 22 23  1  0
 23 24  2  0
 24 25  1  0
 25 26  2  0
 20 27  2  0
 27 28  1  0
 28 29  1  0
  9 30  1  0
 30 31  2  0
 31  6  1  0
 28 13  2  0
 27 15  1  0
 26 21  1  0
M  END
>  <Binding energies>  (63) 
[-9.18]

>  <Ligand effiencies>  (63) 
[-0.27]

>  <Interactions>  (63) 
["V-A:TYR:539:CD1:4871, V-A:PRO:540:N:4882, V-A:MET:535:CE:4833, V-A:LEU:363:CD1:3186, V-A:ILE:538:CG2:4861, V-A:PRO:540:CG:4884, V-A:PRO:540:CD:4885, V-A:PRO:540:CA:4881, V-A:TYR:539:CE1:4873, V-B:LEU:475:CD2:9230, V-A:ILE:538:CB:4860, V-A:PRO:540:CB:4883, V-A:ALA:541:CB:4890, V-A:TYR:539:C:4865, V-A:ASP:366:CG:3210, H-A:TYR:539:O:4866, V-B:SER:385:CB:8380, V-B:PRO:482:CG:9298, V-B:LEU:373:CD1:8251, V-B:PRO:482:CB:9297, V-B:SER:385:CA:8378, V-A:TYR:539:CB:4869, H-B:SER:385:N:8379, V-B:THR:477:CA:9241, V-B:HIS:383:CG:8361, V-B:HIS:383:CB:8360, V-B:HIS:383:CE1:8365, H-B:VAL:384:N:8371, V-B:CYS:476:C:9235, V-B:THR:477:C:9239"]

$$$$
4eb_Grossjean_2025
     RDKit          3D

 30 33  0  0  0  0  0  0  0  0999 V2000
  132.0150  113.8090   61.3550 C   0  0  0  0  0  0  0  0  0  0  0  0
  133.1250  114.6810   61.5140 O   0  0  0  0  0  0  0  0  0  0  0  0
  133.4370  115.5950   60.5580 C   0  0  0  0  0  0  0  0  0  0  0  0
  134.2870  115.4010   59.6840 O   0  0  0  0  0  0  0  0  0  0  0  0
  132.6450  116.8660   60.6720 C   0  0  0  0  0  0  0  0  0  0  0  0
  133.3090  118.0960   60.5740 C   0  0  0  0  0  0  0  0  0  0  0  0
  132.6040  119.2910   60.6750 C   0  0  0  0  0  0  0  0  0  0  0  0
  131.2230  119.2830   60.8760 C   0  0  0  0  0  0  0  0  0  0  0  0
  130.6150  120.5510   60.9630 N   0  0  0  0  0  0  0  0  0  0  0  0
  131.0590  121.7010   61.5250 C   0  0  0  0  0  0  0  0  0  0  0  0
  132.1470  121.8220   62.0900 O   0  0  0  0  0  0  0  0  0  0  0  0
  130.1440  122.8410   61.4240 C   0  0  0  0  0  0  0  0  0  0  0  0
  130.3050  124.2140   62.5210 S   0  0  0  0  0  0  0  0  0  0  0  0
  128.9500  125.0310   61.7750 C   0  0  0  0  0  0  0  0  0  0  0  0
  128.5320  126.2270   62.1920 N   0  0  0  0  0  0  0  0  0  0  0  0
  127.4720  126.7510   61.5300 C   0  0  0  0  0  0  0  0  0  0  0  0
  127.0130  128.1130   62.0210 C   0  0  0  0  0  0  0  0  0  0  0  0
  126.8270  126.1150   60.4730 C   0  0  0  0  0  0  0  0  0  0  0  0
  127.2690  124.8600   60.0390 C   0  0  0  0  0  0  0  0  0  0  0  0
  126.5730  124.1960   58.9130 C   0  0  0  0  0  0  0  0  0  0  0  0
  127.2650  123.9050   57.7330 C   0  0  0  0  0  0  0  0  0  0  0  0
  126.6110  123.2780   56.6740 C   0  0  0  0  0  0  0  0  0  0  0  0
  125.2640  122.9460   56.7950 C   0  0  0  0  0  0  0  0  0  0  0  0
  124.5650  123.2350   57.9660 C   0  0  0  0  0  0  0  0  0  0  0  0
  125.2200  123.8610   59.0230 C   0  0  0  0  0  0  0  0  0  0  0  0
  128.3790  124.2760   60.7070 C   0  0  0  0  0  0  0  0  0  0  0  0
  129.0800  123.0310   60.5290 C   0  0  0  0  0  0  0  0  0  0  0  0
  128.7240  122.1220   59.5640 N   0  0  0  0  0  0  0  0  0  0  0  0
  130.5490  118.0560   60.9750 C   0  0  0  0  0  0  0  0  0  0  0  0
  131.2570  116.8620   60.8730 C   0  0  0  0  0  0  0  0  0  0  0  0
  1  2  1  0
  2  3  1  0
  3  4  2  0
  3  5  1  0
  5  6  2  0
  6  7  1  0
  7  8  2  0
  8  9  1  0
  9 10  1  0
 10 11  2  0
 10 12  1  0
 12 13  1  0
 13 14  1  0
 14 15  2  0
 15 16  1  0
 16 17  1  0
 16 18  2  0
 18 19  1  0
 19 20  1  0
 20 21  2  0
 21 22  1  0
 22 23  2  0
 23 24  1  0
 24 25  2  0
 19 26  2  0
 26 27  1  0
 27 28  1  0
  8 29  1  0
 29 30  2  0
 30  5  1  0
 27 12  2  0
 26 14  1  0
 25 20  1  0
M  END
>  <Binding energies>  (64) 
[-8.78]

>  <Ligand effiencies>  (64) 
[-0.26606060606060605]

>  <Interactions>  (64) 
["V-B:TYR:539:CE1:9847, V-B:TYR:539:CD1:9845, V-B:PRO:540:CG:9858, V-B:PRO:540:CA:9855, V-B:ILE:538:CB:9834, V-B:LEU:363:CD1:8160, V-B:PRO:540:N:9856, V-B:TYR:539:C:9839, V-B:PRO:540:CD:9859, V-B:PRO:540:CB:9857, V-B:ILE:538:CG2:9835, V-A:LEU:475:CD2:4256, V-A:LEU:373:CD1:3277, V-A:PRO:482:CB:4323, V-A:PRO:482:CG:4324, V-B:ASP:366:CG:8184, H-B:TYR:539:O:9840, V-A:SER:385:CA:3404, V-A:SER:385:CB:3406, V-B:TYR:539:CB:9843, V-A:HIS:383:CG:3387, V-A:HIS:383:CB:3386, H-A:SER:385:N:3405, V-A:VAL:384:C:3394, V-A:THR:477:C:4265, V-A:THR:477:CA:4267, H-A:VAL:384:N:3397"]

$$$$
8b_Ghoteimi_2023
     RDKit          3D

 34 38  0  0  0  0  0  0  0  0999 V2000
  124.4560  139.3810   60.6210 C   0  0  0  0  0  0  0  0  0  0  0  0
  124.4660  138.5190   61.7540 O   0  0  0  0  0  0  0  0  0  0  0  0
  125.0660  137.2780   61.6510 C   0  0  0  0  0  0  0  0  0  0  0  0
  126.4530  137.2440   61.7760 C   0  0  0  0  0  0  0  0  0  0  0  0
  127.1430  136.0400   61.6850 C   0  0  0  0  0  0  0  0  0  0  0  0
  126.4610  134.8340   61.4650 C   0  0  0  0  0  0  0  0  0  0  0  0
  127.1970  133.5360   61.3640 C   0  0  0  0  0  0  0  0  0  0  0  0
  128.2640  133.3610   60.4760 C   0  0  0  0  0  0  0  0  0  0  0  0
  128.9360  132.1380   60.4010 C   0  0  0  0  0  0  0  0  0  0  0  0
  130.0560  131.9830   59.4430 C   0  0  0  0  0  0  0  0  0  0  0  0
  131.3310  131.6480   59.9000 C   0  0  0  0  0  0  0  0  0  0  0  0
  132.3790  131.4930   58.9970 C   0  0  0  0  0  0  0  0  0  0  0  0
  132.1700  131.6720   57.6290 C   0  0  0  0  0  0  0  0  0  0  0  0
  133.2680  131.4960   56.8080 O   0  0  0  0  0  0  0  0  0  0  0  0
  134.3450  130.6800   57.2540 C   0  0  0  0  0  0  0  0  0  0  0  0
  130.8870  132.0130   57.1730 C   0  0  0  0  0  0  0  0  0  0  0  0
  129.8390  132.1670   58.0760 C   0  0  0  0  0  0  0  0  0  0  0  0
  128.5100  131.0870   61.2570 C   0  0  0  0  0  0  0  0  0  0  0  0
  128.9670  129.7350   61.4450 C   0  0  0  0  0  0  0  0  0  0  0  0
  130.0130  129.2070   60.7310 N   0  0  0  0  0  0  0  0  0  0  0  0
  128.2470  129.0220   62.4170 C   0  0  0  0  0  0  0  0  0  0  0  0
  128.4410  127.6410   62.8630 C   0  0  0  0  0  0  0  0  0  0  0  0
  127.5060  126.8360   62.8460 O   0  0  0  0  0  0  0  0  0  0  0  0
  129.6950  127.3360   63.2850 N   0  0  0  0  0  0  0  0  0  0  0  0
  130.1550  126.1130   63.7530 C   0  0  0  0  0  0  0  0  0  0  0  0
  130.4470  125.8720   65.0940 C   0  0  0  0  0  0  0  0  0  0  0  0
  130.8710  124.5630   65.1390 C   0  0  0  0  0  0  0  0  0  0  0  0
  130.8330  124.0420   63.8910 O   0  0  0  0  0  0  0  0  0  0  0  0
  130.3760  125.0330   63.0200 N   0  0  0  0  0  0  0  0  0  0  0  0
  126.9780  130.0190   63.1290 S   0  0  0  0  0  0  0  0  0  0  0  0
  127.4180  131.3800   62.1230 C   0  0  0  0  0  0  0  0  0  0  0  0
  126.7740  132.5450   62.1930 N   0  0  0  0  0  0  0  0  0  0  0  0
  125.0660  134.8750   61.3420 C   0  0  0  0  0  0  0  0  0  0  0  0
  124.3720  136.0790   61.4320 C   0  0  0  0  0  0  0  0  0  0  0  0
  1  2  1  0
  2  3  1  0
  3  4  2  0
  4  5  1  0
  5  6  2  0
  6  7  1  0
  7  8  2  0
  8  9  1  0
  9 10  1  0
 10 11  2  0
 11 12  1  0
 12 13  2  0
 13 14  1  0
 14 15  1  0
 13 16  1  0
 16 17  2  0
  9 18  2  0
 18 19  1  0
 19 20  1  0
 19 21  2  0
 21 22  1  0
 22 23  2  0
 22 24  1  0
 24 25  1  0
 25 26  1  0
 26 27  2  0
 27 28  1  0
 28 29  1  0
 21 30  1  0
 30 31  1  0
 31 32  2  0
  6 33  1  0
 33 34  2  0
 34  3  1  0
 32  7  1  0
 17 10  1  0
 31 18  1  0
 29 25  2  0
M  END
>  <Binding energies>  (65) 
[-7.92]

>  <Ligand effiencies>  (65) 
[-0.21405405405405406]

>  <Interactions>  (65) 
["V-A:TYR:539:CD1:4871, V-A:PRO:540:N:4882, V-A:LEU:363:CD1:3186, V-A:PRO:540:CA:4881, V-A:TYR:531:CE2:4791, V-A:TYR:539:CE1:4873, V-A:GLU:543:CD:4906, V-B:LEU:475:CD2:9230, V-A:TYR:531:CZ:4792, V-A:PRO:540:CB:4883, V-A:ALA:541:CB:4890, V-A:TYR:539:C:4865, V-A:ASP:366:CB:3209, V-B:GLU:543:CD:9880, H-B:ARG:545:NH2:9900, H-A:GLU:543:OE2:4908, H-A:GLU:543:OE1:4907, V-A:ASP:366:CG:3210, V-A:TYR:484:CZ:4344, V-B:GLU:543:CB:9878, H-A:TYR:531:OH:4793, H-A:TYR:484:OH:4345, V-B:SER:385:CB:8380, V-B:PRO:482:CG:9298, V-B:ILE:369:CG2:8208, V-B:LEU:373:CD1:8251, V-B:PRO:482:CB:9297, V-B:SER:385:CA:8378, V-A:LEU:363:CA:3182, V-A:LEU:363:CB:3184, H-A:ASP:366:OD2:3212, V-B:SER:385:C:8376, V-B:HIS:383:CG:8361, V-B:HIS:383:CB:8360, V-B:LEU:373:CD2:8252, V-A:LEU:363:C:3180"]

$$$$
9d_Ghoteimi_2023
     RDKit          3D

 38 43  0  0  0  0  0  0  0  0999 V2000
  127.2020  126.9760   68.7880 C   0  0  0  0  0  0  0  0  0  0  0  0
  127.1630  127.9500   67.7550 O   0  0  0  0  0  0  0  0  0  0  0  0
  128.2510  128.1820   66.9750 C   0  0  0  0  0  0  0  0  0  0  0  0
  129.3650  127.6910   67.1820 O   0  0  0  0  0  0  0  0  0  0  0  0
  127.9670  129.0920   65.8450 C   0  0  0  0  0  0  0  0  0  0  0  0
  127.3500  130.7140   66.1580 S   0  0  0  0  0  0  0  0  0  0  0  0
  127.3290  131.0790   64.4480 C   0  0  0  0  0  0  0  0  0  0  0  0
  126.9550  132.2750   63.9950 N   0  0  0  0  0  0  0  0  0  0  0  0
  126.9900  132.4630   62.6500 C   0  0  0  0  0  0  0  0  0  0  0  0
  126.5920  133.8210   62.1650 C   0  0  0  0  0  0  0  0  0  0  0  0
  127.5260  134.8600   62.1190 C   0  0  0  0  0  0  0  0  0  0  0  0
  127.1640  136.1280   61.6720 C   0  0  0  0  0  0  0  0  0  0  0  0
  125.8550  136.3990   61.2420 C   0  0  0  0  0  0  0  0  0  0  0  0
  125.4730  137.6730   60.8070 N   0  0  0  0  0  0  0  0  0  0  0  0
  124.8230  138.6340   61.7210 C   0  0  0  0  0  0  0  0  0  0  0  0
  124.1640  139.8300   61.0030 C   0  0  0  0  0  0  0  0  0  0  0  0
  125.1120  140.4800   60.1720 O   0  0  0  0  0  0  0  0  0  0  0  0
  125.6160  139.6040   59.1770 C   0  0  0  0  0  0  0  0  0  0  0  0
  126.3190  138.3980   59.8370 C   0  0  0  0  0  0  0  0  0  0  0  0
  124.9190  135.3570   61.3050 C   0  0  0  0  0  0  0  0  0  0  0  0
  125.2810  134.0900   61.7550 C   0  0  0  0  0  0  0  0  0  0  0  0
  127.3650  131.4490   61.7640 C   0  0  0  0  0  0  0  0  0  0  0  0
  127.7400  130.1860   62.2350 C   0  0  0  0  0  0  0  0  0  0  0  0
  128.1020  129.1350   61.2480 C   0  0  0  0  0  0  0  0  0  0  0  0
  127.1130  128.4380   60.5520 C   0  0  0  0  0  0  0  0  0  0  0  0
  127.4580  127.4670   59.6150 C   0  0  0  0  0  0  0  0  0  0  0  0
  128.8040  127.1800   59.3370 C   0  0  0  0  0  0  0  0  0  0  0  0
  129.1760  126.2050   58.4090 N   0  0  0  0  0  0  0  0  0  0  0  0
  130.2490  126.5080   57.4420 C   0  0  0  0  0  0  0  0  0  0  0  0
  130.8210  125.2500   56.7540 C   0  0  0  0  0  0  0  0  0  0  0  0
  129.7750  124.5140   56.1370 O   0  0  0  0  0  0  0  0  0  0  0  0
  128.8010  124.0950   57.0820 C   0  0  0  0  0  0  0  0  0  0  0  0
  128.1770  125.3250   57.7740 C   0  0  0  0  0  0  0  0  0  0  0  0
  129.7890  127.8860   60.0430 C   0  0  0  0  0  0  0  0  0  0  0  0
  129.4430  128.8540   60.9810 C   0  0  0  0  0  0  0  0  0  0  0  0
  127.7500  129.9800   63.6420 C   0  0  0  0  0  0  0  0  0  0  0  0
  128.1270  128.8650   64.4720 C   0  0  0  0  0  0  0  0  0  0  0  0
  128.6210  127.6920   63.9630 N   0  0  0  0  0  0  0  0  0  0  0  0
  1  2  1  0
  2  3  1  0
  3  4  2  0
  3  5  1  0
  5  6  1  0
  6  7  1  0
  7  8  2  0
  8  9  1  0
  9 10  1  0
 10 11  2  0
 11 12  1  0
 12 13  2  0
 13 14  1  0
 14 15  1  0
 15 16  1  0
 16 17  1  0
 17 18  1  0
 18 19  1  0
 13 20  1  0
 20 21  2  0
  9 22  2  0
 22 23  1  0
 23 24  1  0
 24 25  2  0
 25 26  1  0
 26 27  2  0
 27 28  1  0
 28 29  1  0
 29 30  1  0
 30 31  1  0
 31 32  1  0
 32 33  1  0
 27 34  1  0
 34 35  2  0
 23 36  2  0
 36 37  1  0
 37 38  1  0
 37  5  2  0
 36  7  1  0
 21 10  1  0
 35 24  1  0
 19 14  1  0
 33 28  1  0
M  END
>  <Binding energies>  (66) 
[-6.54]

>  <Ligand effiencies>  (66) 
[-0.1635]

>  <Interactions>  (66) 
["V-A:TYR:539:CD1:4871, V-A:TYR:539:CE1:4873, V-A:GLU:543:CD:4906, V-B:LEU:475:CD2:9230, V-A:ALA:541:CB:4890, V-B:MET:535:CE:9807, V-B:TYR:539:CZ:9849, V-B:GLU:543:CD:9880, H-B:GLU:543:OE2:9882, H-B:GLU:543:OE1:9881, H-A:GLU:543:OE2:4908, H-A:GLU:543:OE1:4907, V-B:GLU:543:CG:9879, V-B:GLU:543:CB:9878, H-B:TYR:539:OH:9850, V-A:TYR:539:CG:4870, V-B:HIS:456:CE1:9040, H-B:TYR:484:OH:9319, V-B:ARG:545:CG:9894, V-B:SER:385:CB:8380, V-B:PRO:482:CG:9298, V-B:ILE:369:CG2:8208, V-B:LEU:373:CD1:8251, V-B:PRO:482:CB:9297, V-B:SER:385:CA:8378, H-B:HIS:383:ND1:8362, V-A:TYR:539:CB:4869, V-A:VAL:344:CG1:2998, V-B:TYR:484:CE2:9317, V-B:TYR:484:CZ:9318, V-B:HIS:383:CG:8361, V-B:HIS:383:CB:8360, V-B:VAL:384:C:8368, V-B:HIS:383:CD2:8363, V-A:GLU:543:CB:4904, V-A:GLU:543:CG:4905, V-B:GLU:543:C:9874, V-B:GLY:544:C:9884, V-B:LEU:373:CD2:8252, H-B:HIS:456:NE2:9041, V-A:ILE:343:CD1:2991"]

$$$$
RR10_Rahimova_2017
     RDKit          3D

 34 38  0  0  0  0  0  0  0  0999 V2000
  129.2480  132.5460   55.4100 C   0  0  0  0  0  0  0  0  0  0  0  0
  130.0080  132.6200   56.7460 C   0  0  1  0  0  0  0  0  0  0  0  0
  129.2200  131.9500   57.8960 C   0  0  0  0  0  0  0  0  0  0  0  0
  129.9850  132.0670   59.2330 C   0  0  0  0  0  0  0  0  0  0  0  0
  131.4000  131.4380   59.1540 C   0  0  1  0  0  0  0  0  0  0  0  0
  131.3140  129.9790   59.0100 N   0  0  0  0  0  0  0  0  0  0  0  0
  130.5120  129.1700   59.7270 C   0  0  0  0  0  0  0  0  0  0  0  0
  129.7310  129.5880   60.5850 O   0  0  0  0  0  0  0  0  0  0  0  0
  130.6160  127.6580   59.4400 C   0  0  1  0  0  0  0  0  0  0  0  0
  131.0770  127.4420   57.9750 C   0  0  0  0  0  0  0  0  0  0  0  0
  131.2720  125.9300   57.7110 C   0  0  0  0  0  0  0  0  0  0  0  0
  132.1840  125.2570   58.7630 C   0  0  0  0  0  0  0  0  0  0  0  0
  131.7110  125.5640   60.1410 N   0  0  0  0  0  0  0  0  0  0  0  0
  132.4930  124.6110   61.4140 S   0  0  0  0  0  0  0  0  0  0  0  0
  132.0860  125.1630   62.7120 O   0  0  0  0  0  0  0  0  0  0  0  0
  133.9160  124.4890   61.0760 O   0  0  0  0  0  0  0  0  0  0  0  0
  131.7560  122.9810   61.2940 C   0  0  0  0  0  0  0  0  0  0  0  0
  130.3670  122.8490   61.3890 C   0  0  0  0  0  0  0  0  0  0  0  0
  129.7310  121.6070   61.3060 C   0  0  0  0  0  0  0  0  0  0  0  0
  130.5550  120.4950   61.1190 C   0  0  0  0  0  0  0  0  0  0  0  0
  130.3220  119.1460   60.9980 N   0  0  0  0  0  0  0  0  0  0  0  0
  131.5390  118.5170   60.8310 C   0  0  0  0  0  0  0  0  0  0  0  0
  131.6920  117.0320   60.6720 C   0  0  0  0  0  0  0  0  0  0  0  0
  131.1540  116.3780   59.5540 C   0  0  0  0  0  0  0  0  0  0  0  0
  131.2990  115.0020   59.4040 C   0  0  0  0  0  0  0  0  0  0  0  0
  131.9810  114.2700   60.3720 C   0  0  0  0  0  0  0  0  0  0  0  0
  132.5210  114.9030   61.4870 C   0  0  0  0  0  0  0  0  0  0  0  0
  132.3760  116.2800   61.6370 C   0  0  0  0  0  0  0  0  0  0  0  0
  132.5380  119.3710   60.8300 N   0  0  0  0  0  0  0  0  0  0  0  0
  131.9630  120.6020   61.0100 C   0  0  0  0  0  0  0  0  0  0  0  0
  132.5720  121.8620   61.0940 C   0  0  0  0  0  0  0  0  0  0  0  0
  131.6240  127.0190   60.4260 C   0  0  0  0  0  0  0  0  0  0  0  0
  132.1730  132.1070   57.9850 C   0  0  0  0  0  0  0  0  0  0  0  0
  131.4150  131.9860   56.6440 C   0  0  0  0  0  0  0  0  0  0  0  0
  2  1  1  6
  2  3  1  0
  3  4  1  0
  4  5  1  0
  5  6  1  6
  6  7  1  0
  7  8  2  0
  9  7  1  1
  9 10  1  0
 10 11  1  0
 11 12  1  0
 12 13  1  0
 13 14  1  0
 14 15  2  0
 14 16  2  0
 14 17  1  0
 17 18  2  0
 18 19  1  0
 19 20  2  0
 20 21  1  0
 21 22  1  0
 22 23  1  0
 23 24  2  0
 24 25  1  0
 25 26  2  0
 26 27  1  0
 27 28  2  0
 22 29  2  0
 29 30  1  0
 30 31  2  0
 13 32  1  0
  5 33  1  0
 33 34  1  0
 34  2  1  0
 32  9  1  0
 31 17  1  0
 30 20  1  0
 28 23  1  0
M  END
>  <Binding energies>  (67) 
[-11.48]

>  <Ligand effiencies>  (67) 
[-0.3188888888888889]

>  <Interactions>  (67) 
["V-A:PRO:540:N:4882, V-A:MET:535:CE:4833, V-A:PRO:540:CD:4885, V-A:PRO:540:CA:4881, V-A:TYR:539:CE1:4873, V-A:PRO:540:CB:4883, V-A:TYR:539:C:4865, V-B:TYR:539:CE1:9847, V-B:TYR:539:CD1:9845, V-A:ASP:366:CB:3209, V-B:TYR:539:C:9839, V-A:LEU:475:CD2:4256, V-A:PRO:482:CB:4323, V-B:ALA:541:CB:9864, V-A:PRO:482:CG:4324, V-A:ASP:366:CG:3210, H-A:ARG:545:NH2:4926, V-A:TYR:539:CD2:4872, V-A:TYR:539:CE2:4874, H-A:TYR:531:OH:4793, H-B:TYR:539:O:9840, V-A:ILE:538:CA:4858, V-A:SER:385:CB:3406, H-A:ASP:366:OD2:3212, V-B:VAL:344:CG1:7972, V-B:TYR:539:CB:9843, V-A:HIS:383:CG:3387, V-A:HIS:383:CB:3386, V-A:HIS:383:CD2:3389, V-A:HIS:383:CE1:3391, V-A:CYS:476:C:4261, V-A:THR:477:CA:4267"]

$$$$
RR12_Rahimova_2017
     RDKit          3D

 26 28  0  0  0  0  0  0  0  0999 V2000
  124.5810  123.6740   61.4100 C   0  0  0  0  0  0  0  0  0  0  0  0
  126.1000  123.5770   61.6090 C   0  0  0  0  0  0  0  0  0  0  0  0
  126.8860  124.4030   60.5750 C   0  0  0  0  0  0  0  0  0  0  0  0
  127.0110  123.6730   59.3160 N   0  0  0  0  0  0  0  0  0  0  0  0
  128.0490  122.8430   58.9200 C   0  0  0  0  0  0  0  0  0  0  0  0
  129.2940  122.5890   59.7520 C   0  0  0  0  0  0  0  0  0  0  0  0
  128.9630  122.0470   61.1540 C   0  0  0  0  0  0  0  0  0  0  0  0
  130.1910  121.4500   61.8670 C   0  0  0  0  0  0  0  0  0  0  0  0
  130.8440  120.3750   61.1200 N   0  0  0  0  0  0  0  0  0  0  0  0
  132.1740  120.2010   61.0210 C   0  0  0  0  0  0  0  0  0  0  0  0
  132.9950  120.9490   61.5580 O   0  0  0  0  0  0  0  0  0  0  0  0
  132.6250  118.9940   60.1900 C   0  0  0  0  0  0  0  0  0  0  0  0
  131.5170  118.1160   59.9840 O   0  0  0  0  0  0  0  0  0  0  0  0
  131.6270  116.7890   60.3550 C   0  0  0  0  0  0  0  0  0  0  0  0
  130.9030  115.8690   59.5930 C   0  0  0  0  0  0  0  0  0  0  0  0
  130.9530  114.5100   59.8890 C   0  0  0  0  0  0  0  0  0  0  0  0
  131.7340  114.0650   60.9530 C   0  0  0  0  0  0  0  0  0  0  0  0
  132.4610  114.9680   61.7240 C   0  0  0  0  0  0  0  0  0  0  0  0
  132.4090  116.3280   61.4280 C   0  0  0  0  0  0  0  0  0  0  0  0
  127.8630  122.3050   57.7400 N   0  0  0  0  0  0  0  0  0  0  0  0
  126.6430  122.7670   57.3320 C   0  0  0  0  0  0  0  0  0  0  0  0
  125.9480  122.4940   56.1440 C   0  0  0  0  0  0  0  0  0  0  0  0
  124.6990  123.0880   55.9620 C   0  0  0  0  0  0  0  0  0  0  0  0
  124.1500  123.9310   56.9280 C   0  0  0  0  0  0  0  0  0  0  0  0
  124.8160  124.2240   58.1200 C   0  0  0  0  0  0  0  0  0  0  0  0
  126.0710  123.6280   58.3020 C   0  0  0  0  0  0  0  0  0  0  0  0
  1  2  1  0
  2  3  1  0
  3  4  1  0
  4  5  1  0
  5  6  1  0
  6  7  1  0
  7  8  1  0
  8  9  1  0
  9 10  1  0
 10 11  2  0
 10 12  1  0
 12 13  1  0
 13 14  1  0
 14 15  2  0
 15 16  1  0
 16 17  2  0
 17 18  1  0
 18 19  2  0
  5 20  2  0
 20 21  1  0
 21 22  2  0
 22 23  1  0
 23 24  2  0
 24 25  1  0
 25 26  2  0
 26  4  1  0
 19 14  1  0
 26 21  1  0
M  END
>  <Binding energies>  (68) 
[-8.73]

>  <Ligand effiencies>  (68) 
[-0.32333333333333336]

>  <Interactions>  (68) 
["H-B:TYR:539:N:9842, V-B:TYR:539:CE1:9847, V-B:TYR:539:CD1:9845, V-B:TYR:531:CE2:9765, V-B:PRO:540:CA:9855, V-B:ASN:362:CB:8147, V-B:ILE:538:CB:9834, V-B:LEU:363:CD1:8160, V-B:PRO:540:N:9856, V-B:TYR:539:C:9839, V-B:PRO:540:CD:9859, V-B:TYR:531:CZ:9766, V-B:PRO:540:CB:9857, V-B:ILE:538:CG2:9835, V-A:LEU:475:CD2:4256, V-A:LEU:373:CD1:3277, V-B:PRO:540:C:9853, V-B:ALA:541:CB:9864, V-A:PRO:482:CG:4324, V-B:ILE:538:C:9830, V-B:ASP:366:CG:8184, V-B:ILE:538:CA:9832, H-B:TYR:539:O:9840, V-A:SER:385:CB:3406, V-B:VAL:344:CG1:7972, V-B:TYR:539:CB:9843, V-A:HIS:383:CG:3387, V-A:HIS:383:CB:3386, V-A:HIS:383:CD2:3389, V-A:HIS:383:CE1:3391, V-A:CYS:476:C:4261, V-A:THR:477:CA:4267"]

$$$$
RR13_Rahimova_2017
     RDKit          3D

 48 54  0  0  0  0  0  0  0  0999 V2000
  127.7300  123.3480   60.1990 Cl  0  0  0  0  0  0  0  0  0  0  0  0
  128.1010  123.3550   58.5080 C   0  0  0  0  0  0  0  0  0  0  0  0
  127.3110  122.5710   57.6650 C   0  0  0  0  0  0  0  0  0  0  0  0
  127.5720  122.5180   56.2980 C   0  0  0  0  0  0  0  0  0  0  0  0
  128.6300  123.2490   55.7650 C   0  0  0  0  0  0  0  0  0  0  0  0
  129.4230  124.0330   56.5990 C   0  0  0  0  0  0  0  0  0  0  0  0
  129.1690  124.1100   57.9780 C   0  0  0  0  0  0  0  0  0  0  0  0
  130.0780  124.9670   58.8860 C   0  0  1  0  0  0  0  0  0  0  0  0
  131.5600  124.7460   58.5480 C   0  0  0  0  0  0  0  0  0  0  0  0
  132.1890  125.1510   57.4670 N   0  0  0  0  0  0  0  0  0  0  0  0
  133.4980  124.6970   57.5940 N   0  0  0  0  0  0  0  0  0  0  0  0
  133.6420  123.9900   58.7710 N   0  0  0  0  0  0  0  0  0  0  0  0
  132.4280  124.0130   59.3300 N   0  0  0  0  0  0  0  0  0  0  0  0
  132.2010  123.3880   60.6280 C   0  0  0  0  0  0  0  0  0  0  0  0
  133.1860  122.2230   60.8390 C   0  0  0  0  0  0  0  0  0  0  0  0
  132.4810  120.8770   60.8990 C   0  0  0  0  0  0  0  0  0  0  0  0
  131.1470  120.8060   61.3100 C   0  0  0  0  0  0  0  0  0  0  0  0
  130.5040  119.5730   61.3720 C   0  0  0  0  0  0  0  0  0  0  0  0
  131.1970  118.4150   61.0240 C   0  0  0  0  0  0  0  0  0  0  0  0
  132.5270  118.4790   60.6150 C   0  0  0  0  0  0  0  0  0  0  0  0
  133.1710  119.7120   60.5530 C   0  0  0  0  0  0  0  0  0  0  0  0
  129.7110  126.4030   58.9010 N   0  0  0  0  0  0  0  0  0  0  0  0
  128.7800  126.6870   60.0090 C   0  0  0  0  0  0  0  0  0  0  0  0
  128.4970  128.2040   60.1130 C   0  0  0  0  0  0  0  0  0  0  0  0
  127.8720  128.7020   58.8770 N   0  0  0  0  0  0  0  0  0  0  0  0
  127.5080  130.1350   58.9640 C   0  0  1  0  0  0  0  0  0  0  0  0
  128.3360  131.0870   58.0730 C   0  0  0  0  0  0  0  0  0  0  0  0
  127.8960  131.2760   56.7550 C   0  0  0  0  0  0  0  0  0  0  0  0
  128.5720  132.1310   55.8850 C   0  0  0  0  0  0  0  0  0  0  0  0
  129.7070  132.8080   56.3210 C   0  0  0  0  0  0  0  0  0  0  0  0
  130.1700  132.6230   57.6200 C   0  0  0  0  0  0  0  0  0  0  0  0
  129.5020  131.7650   58.4990 C   0  0  0  0  0  0  0  0  0  0  0  0
  130.1960  131.5490   60.0710 Cl  0  0  0  0  0  0  0  0  0  0  0  0
  126.0130  130.3900   58.7570 C   0  0  0  0  0  0  0  0  0  0  0  0
  125.2980  129.9510   57.7480 N   0  0  0  0  0  0  0  0  0  0  0  0
  124.0010  130.4000   57.9740 N   0  0  0  0  0  0  0  0  0  0  0  0
  123.9450  131.1090   59.1560 N   0  0  0  0  0  0  0  0  0  0  0  0
  125.1950  131.0720   59.6330 N   0  0  0  0  0  0  0  0  0  0  0  0
  125.5200  131.7510   60.8830 C   0  0  0  0  0  0  0  0  0  0  0  0
  124.5850  132.9540   61.1000 C   0  0  0  0  0  0  0  0  0  0  0  0
  125.3540  134.2570   61.2610 C   0  0  0  0  0  0  0  0  0  0  0  0
  124.7040  135.4790   61.0690 C   0  0  0  0  0  0  0  0  0  0  0  0
  125.4070  136.6710   61.2230 C   0  0  0  0  0  0  0  0  0  0  0  0
  126.7570  136.6370   61.5680 C   0  0  0  0  0  0  0  0  0  0  0  0
  127.4100  135.4210   61.7610 C   0  0  0  0  0  0  0  0  0  0  0  0
  126.7080  134.2280   61.6080 C   0  0  0  0  0  0  0  0  0  0  0  0
  128.8070  128.4210   57.7730 C   0  0  0  0  0  0  0  0  0  0  0  0
  129.0780  126.9020   57.6680 C   0  0  0  0  0  0  0  0  0  0  0  0
  1  2  1  0
  2  3  2  0
  3  4  1  0
  4  5  2  0
  5  6  1  0
  6  7  2  0
  7  8  1  0
  8  9  1  0
  9 10  2  0
 10 11  1  0
 11 12  2  0
 12 13  1  0
 13 14  1  0
 14 15  1  0
 15 16  1  0
 16 17  2  0
 17 18  1  0
 18 19  2  0
 19 20  1  0
 20 21  2  0
  8 22  1  6
 22 23  1  0
 23 24  1  0
 24 25  1  0
 26 25  1  6
 26 27  1  0
 27 28  2  0
 28 29  1  0
 29 30  2  0
 30 31  1  0
 31 32  2  0
 32 33  1  0
 26 34  1  0
 34 35  2  0
 35 36  1  0
 36 37  2  0
 37 38  1  0
 38 39  1  0
 39 40  1  0
 40 41  1  0
 41 42  2  0
 42 43  1  0
 43 44  2  0
 44 45  1  0
 45 46  2  0
 25 47  1  0
 47 48  1  0
  7  2  1  0
 13  9  1  0
 21 16  1  0
 48 22  1  0
 32 27  1  0
 38 34  1  0
 46 41  1  0
M  END
>  <Binding energies>  (69) 
[-15.27]

>  <Ligand effiencies>  (69) 
[-0.318125]

>  <Interactions>  (69) 
["V-A:TYR:539:CD1:4871, V-A:PRO:540:N:4882, V-A:MET:535:CE:4833, V-A:PRO:540:CA:4881, V-A:TYR:539:CE1:4873, V-B:LEU:475:CD2:9230, V-A:ALA:541:CB:4890, V-A:TYR:539:C:4865, V-A:TYR:539:CZ:4875, V-B:TYR:539:CE1:9847, V-B:TYR:539:CD1:9845, V-B:PRO:540:CA:9855, V-B:MET:535:CE:9807, V-B:TYR:539:CZ:9849, V-B:PRO:540:N:9856, V-B:TYR:539:C:9839, V-A:LEU:475:CD2:4256, V-A:LEU:373:CD1:3277, V-B:TYR:539:CA:9841, V-A:PRO:482:CB:4323, V-B:ALA:541:CB:9864, V-A:PRO:482:CG:4324, V-B:ILE:538:C:9830, V-B:ILE:538:CA:9832, V-A:ILE:369:CD1:3236, H-B:TYR:539:OH:9850, V-A:ILE:369:CG2:3234, V-A:TYR:539:CD2:4872, V-A:TYR:539:CE2:4874, H-A:TYR:539:OH:4876, V-A:ILE:538:CA:4858, V-A:SER:385:CA:3404, V-A:SER:385:CB:3406, V-B:PRO:482:CG:9298, V-B:ILE:369:CG2:8208, V-B:LEU:373:CD1:8251, V-B:PRO:482:CB:9297, V-B:SER:385:CA:8378, V-B:TYR:539:CE2:9848, V-B:TYR:539:CD2:9846, V-A:ILE:538:C:4856"]

$$$$
RR14_Rahimova_2017
     RDKit          3D

 39 43  0  0  0  0  0  0  0  0999 V2000
  130.1060  126.7870   56.9210 C   0  0  0  0  0  0  0  0  0  0  0  0
  131.4550  126.3680   56.7460 O   0  0  0  0  0  0  0  0  0  0  0  0
  132.0410  125.5680   57.7080 C   0  0  0  0  0  0  0  0  0  0  0  0
  131.2340  125.1950   58.7840 C   0  0  0  0  0  0  0  0  0  0  0  0
  131.7450  124.4100   59.8130 C   0  0  0  0  0  0  0  0  0  0  0  0
  133.0770  123.9930   59.7780 C   0  0  0  0  0  0  0  0  0  0  0  0
  133.6570  123.1880   60.9350 C   0  0  0  0  0  0  0  0  0  0  0  0
  133.2460  123.6840   62.2480 N   0  0  0  0  0  0  0  0  0  0  0  0
  133.9380  124.6590   62.8490 N   0  0  0  0  0  0  0  0  0  0  0  0
  133.2980  124.8490   64.0590 N   0  0  0  0  0  0  0  0  0  0  0  0
  132.2240  123.9720   64.1740 N   0  0  0  0  0  0  0  0  0  0  0  0
  132.2160  123.2700   63.0650 C   0  0  0  0  0  0  0  0  0  0  0  0
  131.2300  122.1570   62.7380 C   0  0  0  0  0  0  0  0  0  0  0  0
  130.4660  122.4260   61.5090 N   0  0  0  0  0  0  0  0  0  0  0  0
  130.1310  121.1910   60.7890 C   0  0  0  0  0  0  0  0  0  0  0  0
  130.4910  119.9090   61.5710 C   0  0  0  0  0  0  0  0  0  0  0  0
  131.6890  119.1370   60.9790 C   0  0  0  0  0  0  0  0  0  0  0  0
  131.4410  117.6980   60.8410 N   0  0  0  0  0  0  0  0  0  0  0  0
  132.3160  116.9400   61.7440 C   0  0  0  0  0  0  0  0  0  0  0  0
  132.1170  115.4180   61.5850 C   0  0  0  0  0  0  0  0  0  0  0  0
  132.2900  115.0410   60.2230 O   0  0  0  0  0  0  0  0  0  0  0  0
  131.3640  115.6930   59.3610 C   0  0  0  0  0  0  0  0  0  0  0  0
  131.5420  117.2240   59.4520 C   0  0  0  0  0  0  0  0  0  0  0  0
  129.2460  123.1830   61.8280 C   0  0  0  0  0  0  0  0  0  0  0  0
  128.1940  123.2550   60.7230 C   0  0  0  0  0  0  0  0  0  0  0  0
  128.5530  123.3000   59.4170 C   0  0  0  0  0  0  0  0  0  0  0  0
  127.5570  123.4100   58.3310 C   0  0  0  0  0  0  0  0  0  0  0  0
  127.8930  123.4390   56.9670 C   0  0  0  0  0  0  0  0  0  0  0  0
  129.3400  123.3560   56.4990 C   0  0  0  0  0  0  0  0  0  0  0  0
  126.8720  123.5430   56.0180 C   0  0  0  0  0  0  0  0  0  0  0  0
  125.5380  123.6170   56.4140 C   0  0  0  0  0  0  0  0  0  0  0  0
  125.1930  123.5870   57.7680 C   0  0  0  0  0  0  0  0  0  0  0  0
  123.7260  123.6680   58.1680 C   0  0  0  0  0  0  0  0  0  0  0  0
  126.2100  123.4830   58.7300 C   0  0  0  0  0  0  0  0  0  0  0  0
  125.9110  123.4520   60.1080 N   0  0  0  0  0  0  0  0  0  0  0  0
  126.7900  123.3520   61.1370 C   0  0  0  0  0  0  0  0  0  0  0  0
  126.3900  123.3520   62.3010 O   0  0  0  0  0  0  0  0  0  0  0  0
  133.8840  124.3350   58.6910 C   0  0  0  0  0  0  0  0  0  0  0  0
  133.3720  125.1210   57.6630 C   0  0  0  0  0  0  0  0  0  0  0  0
  1  2  1  0
  2  3  1  0
  3  4  2  0
  4  5  1  0
  5  6  2  0
  6  7  1  0
  7  8  1  0
  8  9  1  0
  9 10  2  0
 10 11  1  0
 11 12  2  0
 12 13  1  0
 13 14  1  0
 14 15  1  0
 15 16  1  0
 16 17  1  0
 17 18  1  0
 18 19  1  0
 19 20  1  0
 20 21  1  0
 21 22  1  0
 22 23  1  0
 14 24  1  0
 24 25  1  0
 25 26  2  0
 26 27  1  0
 27 28  2  0
 28 29  1  0
 28 30  1  0
 30 31  2  0
 31 32  1  0
 32 33  1  0
 32 34  2  0
 34 35  1  0
 35 36  1  0
 36 37  2  0
  6 38  1  0
 38 39  2  0
 39  3  1  0
 12  8  1  0
 23 18  1  0
 36 25  1  0
 34 27  1  0
M  END
>  <Binding energies>  (70) 
[-12.1]

>  <Ligand effiencies>  (70) 
[-0.3025]

>  <Interactions>  (70) 
["V-B:TYR:539:CE1:9847, V-B:TYR:539:CD1:9845, V-B:TYR:531:CE2:9765, V-A:ASP:366:CB:3209, V-B:PRO:540:CA:9855, V-B:MET:535:CE:9807, V-B:TYR:539:CZ:9849, V-B:LEU:363:CD1:8160, V-B:PRO:540:N:9856, V-B:TYR:531:CZ:9766, V-B:PRO:540:CB:9857, V-B:ILE:538:CG2:9835, V-A:LEU:475:CD2:4256, V-B:TYR:539:CG:9844, V-A:LEU:373:CD1:3277, V-B:PRO:540:C:9853, V-A:PRO:482:CB:4323, V-B:ALA:541:CB:9864, V-A:PRO:482:CG:4324, H-B:ALA:541:N:9863, V-A:ASP:366:CG:3210, V-B:LEU:363:CB:8158, V-B:LEU:363:CA:8156, V-A:ILE:369:CB:3233, V-A:ASP:366:CA:3207, V-A:ILE:369:CD1:3236, V-A:ILE:369:CG2:3234, H-A:TYR:531:OH:4793, H-A:GLY:454:N:4047, H-A:TYR:484:OH:4345, H-B:ASP:366:OD2:8186, V-A:SER:385:CA:3404, V-A:SER:385:CB:3406, V-B:TYR:539:CE2:9848, V-B:TYR:539:CD2:9846, V-B:VAL:344:CG1:7972, V-B:TYR:539:CB:9843, V-A:ASP:366:C:3205, V-A:LEU:475:CG:4254"]

$$$$
RR15_Rahimova_2017
     RDKit          3D

 45 49  0  0  0  0  0  0  0  0999 V2000
  127.9450  122.5720   55.5730 C   0  0  0  0  0  0  0  0  0  0  0  0
  127.7330  122.2450   56.9420 O   0  0  0  0  0  0  0  0  0  0  0  0
  127.6750  123.2590   57.8830 C   0  0  0  0  0  0  0  0  0  0  0  0
  128.8100  123.8630   58.4460 C   0  0  0  0  0  0  0  0  0  0  0  0
  128.6810  124.8780   59.3910 C   0  0  0  0  0  0  0  0  0  0  0  0
  127.4190  125.3160   59.8040 C   0  0  0  0  0  0  0  0  0  0  0  0
  127.2800  126.4060   60.8300 C   0  0  0  0  0  0  0  0  0  0  0  0
  127.8640  126.3560   62.0190 N   0  0  0  0  0  0  0  0  0  0  0  0
  127.5010  127.5150   62.6730 N   0  0  0  0  0  0  0  0  0  0  0  0
  126.7590  128.1630   61.7740 N   0  0  0  0  0  0  0  0  0  0  0  0
  126.0260  129.3830   62.1090 C   0  0  0  0  0  0  0  0  0  0  0  0
  126.8760  130.4850   62.7900 C   0  0  0  0  0  0  0  0  0  0  0  0
  126.8200  130.5890   64.0170 O   0  0  0  0  0  0  0  0  0  0  0  0
  127.6830  131.2860   62.0280 N   0  0  0  0  0  0  0  0  0  0  0  0
  129.1530  131.1560   62.0680 C   0  0  0  0  0  0  0  0  0  0  0  0
  129.8830  132.0860   61.0750 C   0  0  0  0  0  0  0  0  0  0  0  0
  130.9100  131.3790   60.1590 C   0  0  0  0  0  0  0  0  0  0  0  0
  130.6310  131.5350   58.7290 N   0  0  0  0  0  0  0  0  0  0  0  0
  129.5530  132.4930   58.4410 C   0  0  0  0  0  0  0  0  0  0  0  0
  129.3580  132.6850   56.9220 C   0  0  0  0  0  0  0  0  0  0  0  0
  130.5890  133.0580   56.3110 O   0  0  0  0  0  0  0  0  0  0  0  0
  131.6060  132.0810   56.5000 C   0  0  0  0  0  0  0  0  0  0  0  0
  131.8650  131.8760   58.0090 C   0  0  0  0  0  0  0  0  0  0  0  0
  127.1640  132.2050   60.9680 C   0  0  2  0  0  0  0  0  0  0  0  0
  126.5960  133.5510   61.5150 C   0  0  0  0  0  0  0  0  0  0  0  0
  125.4880  133.6040   62.0470 O   0  0  0  0  0  0  0  0  0  0  0  0
  127.4100  134.6160   61.3990 N   0  0  0  0  0  0  0  0  0  0  0  0
  127.1370  135.9470   61.9280 C   0  0  0  0  0  0  0  0  0  0  0  0
  126.1070  136.6910   61.0580 C   0  0  2  0  0  0  0  0  0  0  0  0
  126.6500  137.9060   60.2850 C   0  0  0  0  0  0  0  0  0  0  0  0
  126.2010  139.1000   61.0900 C   0  0  0  0  0  0  0  0  0  0  0  0
  124.8690  138.6110   61.6330 C   0  0  0  0  0  0  0  0  0  0  0  0
  125.1520  137.2570   61.9670 O   0  0  0  0  0  0  0  0  0  0  0  0
  126.3110  131.4390   59.9630 C   0  0  0  0  0  0  0  0  0  0  0  0
  126.9640  130.7050   58.9660 C   0  0  0  0  0  0  0  0  0  0  0  0
  126.2360  129.9870   58.0220 C   0  0  0  0  0  0  0  0  0  0  0  0
  124.8450  129.9980   58.0680 C   0  0  0  0  0  0  0  0  0  0  0  0
  124.1380  129.3000   57.1510 F   0  0  0  0  0  0  0  0  0  0  0  0
  124.1780  130.7210   59.0530 C   0  0  0  0  0  0  0  0  0  0  0  0
  124.9070  131.4390   59.9960 C   0  0  0  0  0  0  0  0  0  0  0  0
  126.5620  127.4960   60.6310 N   0  0  0  0  0  0  0  0  0  0  0  0
  126.2880  124.7120   59.2390 C   0  0  0  0  0  0  0  0  0  0  0  0
  126.4010  123.6900   58.2820 C   0  0  0  0  0  0  0  0  0  0  0  0
  125.3150  123.0650   57.6930 O   0  0  0  0  0  0  0  0  0  0  0  0
  124.0760  123.7600   57.5890 C   0  0  0  0  0  0  0  0  0  0  0  0
  1  2  1  0
  2  3  1  0
  3  4  2  0
  4  5  1  0
  5  6  2  0
  6  7  1  0
  7  8  1  0
  8  9  2  0
  9 10  1  0
 10 11  1  0
 11 12  1  0
 12 13  2  0
 12 14  1  0
 14 15  1  0
 15 16  1  0
 16 17  1  0
 17 18  1  0
 18 19  1  0
 19 20  1  0
 20 21  1  0
 21 22  1  0
 22 23  1  0
 24 14  1  1
 24 25  1  0
 25 26  2  0
 25 27  1  0
 27 28  1  0
 29 28  1  1
 29 30  1  0
 30 31  1  0
 31 32  1  0
 32 33  1  0
 24 34  1  0
 34 35  2  0
 35 36  1  0
 36 37  2  0
 37 38  1  0
 37 39  1  0
 39 40  2  0
 10 41  1  0
  6 42  1  0
 42 43  2  0
 43 44  1  0
 44 45  1  0
 43  3  1  0
 41  7  2  0
 23 18  1  0
 33 29  1  0
 40 34  1  0
M  END
>  <Binding energies>  (71) 
[-10.4]

>  <Ligand effiencies>  (71) 
[-0.22608695652173913]

>  <Interactions>  (71) 
["H-A:TYR:539:N:4868, V-A:TYR:539:CD1:4871, V-A:PRO:540:N:4882, V-A:ILE:538:CG2:4861, V-A:PRO:540:CA:4881, V-A:TYR:539:CE1:4873, V-A:GLU:543:CD:4906, V-B:LEU:475:CD2:9230, V-A:ILE:538:CB:4860, V-A:PRO:540:CB:4883, V-A:ALA:541:CB:4890, V-A:TYR:539:C:4865, V-A:TYR:539:CZ:4875, H-B:TYR:539:N:9842, V-B:TYR:539:CE1:9847, V-B:TYR:531:CE2:9765, V-B:PRO:540:CA:9855, V-B:ILE:538:CB:9834, V-B:MET:535:CE:9807, V-B:LEU:363:CD1:8160, V-B:TYR:531:CZ:9766, V-B:PRO:540:CB:9857, H-B:ARG:545:NH2:9900, V-B:LEU:363:CA:8156, V-B:ILE:538:C:9830, V-B:ASP:366:CB:8183, V-B:ASP:366:CG:8184, V-B:ILE:538:CA:9832, V-A:TYR:539:CD2:4872, V-A:TYR:539:CE2:4874, V-A:TYR:539:CG:4870, H-A:TYR:539:O:4866, V-B:SER:385:CB:8380, V-B:PRO:482:CG:9298, V-B:LEU:373:CD1:8251, V-B:PRO:482:CB:9297, V-B:SER:385:CA:8378, V-B:TYR:539:CE2:9848, V-B:ASP:366:CA:8181, V-B:TYR:539:CD2:9846, V-A:TYR:539:CB:4869, V-A:VAL:344:CG1:2998, V-B:TYR:531:CE1:9764, V-B:ASP:366:C:8179, V-B:ASN:370:CB:8216"]

$$$$
RR17_Rahimova_2017
     RDKit          3D

 38 41  0  0  0  0  0  0  0  0999 V2000
  129.7450  112.8550   60.9940 C   0  0  0  0  0  0  0  0  0  0  0  0
  131.1350  112.9610   61.6290 C   0  0  0  0  0  0  0  0  0  0  0  0
  131.9700  113.7410   60.7770 O   0  0  0  0  0  0  0  0  0  0  0  0
  131.8220  115.1160   60.7570 C   0  0  0  0  0  0  0  0  0  0  0  0
  132.3680  115.8160   61.8320 C   0  0  0  0  0  0  0  0  0  0  0  0
  132.2670  117.2020   61.8990 C   0  0  0  0  0  0  0  0  0  0  0  0
  131.6140  117.9200   60.8880 C   0  0  0  0  0  0  0  0  0  0  0  0
  131.5220  119.4150   60.9870 C   0  0  0  0  0  0  0  0  0  0  0  0
  130.4860  119.9930   61.3280 O   0  0  0  0  0  0  0  0  0  0  0  0
  132.7900  120.2210   60.6260 C   0  0  0  0  0  0  0  0  0  0  0  0
  132.9060  121.7830   61.5700 S   0  0  0  0  0  0  0  0  0  0  0  0
  132.8870  122.9470   60.2360 C   0  0  0  0  0  0  0  0  0  0  0  0
  133.9240  123.2820   59.5050 N   0  0  0  0  0  0  0  0  0  0  0  0
  133.4990  124.2120   58.5640 N   0  0  0  0  0  0  0  0  0  0  0  0
  132.2190  124.4010   58.7590 C   0  0  0  0  0  0  0  0  0  0  0  0
  131.3480  125.3370   57.9350 C   0  0  0  0  0  0  0  0  0  0  0  0
  130.6750  124.6840   56.8150 N   0  0  0  0  0  0  0  0  0  0  0  0
  129.3320  124.2660   56.8470 C   0  0  0  0  0  0  0  0  0  0  0  0
  128.4660  124.9540   57.6960 C   0  0  0  0  0  0  0  0  0  0  0  0
  127.1260  124.5880   57.7810 C   0  0  0  0  0  0  0  0  0  0  0  0
  126.6340  123.5300   57.0110 C   0  0  0  0  0  0  0  0  0  0  0  0
  125.1610  123.1370   57.1200 C   0  0  0  0  0  0  0  0  0  0  0  0
  124.3590  124.0070   56.5040 F   0  0  0  0  0  0  0  0  0  0  0  0
  124.9590  121.9350   56.5780 F   0  0  0  0  0  0  0  0  0  0  0  0
  124.8160  123.0880   58.4070 F   0  0  0  0  0  0  0  0  0  0  0  0
  127.5000  122.8440   56.1530 C   0  0  0  0  0  0  0  0  0  0  0  0
  128.8400  123.2110   56.0680 C   0  0  0  0  0  0  0  0  0  0  0  0
  131.7670  123.6360   59.8160 N   0  0  0  0  0  0  0  0  0  0  0  0
  130.4620  123.5550   60.3220 C   0  0  0  0  0  0  0  0  0  0  0  0
  130.0150  124.5160   61.2280 C   0  0  0  0  0  0  0  0  0  0  0  0
  128.7200  124.4330   61.7340 C   0  0  0  0  0  0  0  0  0  0  0  0
  127.8700  123.3890   61.3350 C   0  0  0  0  0  0  0  0  0  0  0  0
  126.5730  123.2280   61.7830 O   0  0  0  0  0  0  0  0  0  0  0  0
  125.5410  124.0380   61.2310 C   0  0  0  0  0  0  0  0  0  0  0  0
  128.3360  122.4340   60.4280 C   0  0  0  0  0  0  0  0  0  0  0  0
  129.6290  122.5120   59.9180 C   0  0  0  0  0  0  0  0  0  0  0  0
  131.0660  117.2140   59.8060 C   0  0  0  0  0  0  0  0  0  0  0  0
  131.1680  115.8270   59.7400 C   0  0  0  0  0  0  0  0  0  0  0  0
  1  2  1  0
  2  3  1  0
  3  4  1  0
  4  5  2  0
  5  6  1  0
  6  7  2  0
  7  8  1  0
  8  9  2  0
  8 10  1  0
 10 11  1  0
 11 12  1  0
 12 13  2  0
 13 14  1  0
 14 15  2  0
 15 16  1  0
 16 17  1  0
 17 18  1  0
 18 19  2  0
 19 20  1  0
 20 21  2  0
 21 22  1  0
 22 23  1  0
 22 24  1  0
 22 25  1  0
 21 26  1  0
 26 27  2  0
 15 28  1  0
 28 29  1  0
 29 30  2  0
 30 31  1  0
 31 32  2  0
 32 33  1  0
 33 34  1  0
 32 35  1  0
 35 36  2  0
  7 37  1  0
 37 38  2  0
 38  4  1  0
 28 12  1  0
 36 29  1  0
 27 18  1  0
M  END
>  <Binding energies>  (72) 
[-11.1]

>  <Ligand effiencies>  (72) 
[-0.2846153846153846]

>  <Interactions>  (72) 
["V-B:TYR:539:CE1:9847, V-B:TYR:539:CD1:9845, V-B:TYR:531:CE2:9765, V-B:PRO:540:CG:9858, V-B:PRO:540:CA:9855, V-B:ILE:538:CB:9834, V-B:MET:535:CE:9807, V-B:TYR:539:CZ:9849, V-B:LEU:363:CD1:8160, V-B:PRO:540:N:9856, V-B:TYR:539:C:9839, V-B:PRO:540:CD:9859, V-B:TYR:531:CZ:9766, V-B:PRO:540:CB:9857, V-B:ILE:538:CG2:9835, V-A:LEU:475:CD2:4256, V-B:TYR:539:CG:9844, V-A:LEU:373:CD1:3277, V-B:PRO:540:C:9853, V-A:PRO:482:CB:4323, V-A:PRO:482:CG:4324, H-B:ALA:541:N:9863, V-B:ILE:538:C:9830, V-B:ILE:538:CA:9832, H-B:TYR:539:OH:9850, V-A:ILE:369:CG2:3234, V-A:SER:385:CA:3404, V-A:SER:385:CB:3406, V-B:TYR:539:CE2:9848, V-B:TYR:539:CD2:9846, V-B:VAL:344:CG1:7972, V-B:TYR:539:CB:9843, V-A:HIS:383:CE1:3391, V-A:THR:477:C:4265, V-A:THR:477:CA:4267, H-A:HIS:383:ND1:3388, V-A:LEU:475:CG:4254, V-A:PRO:482:CD:4325"]

$$$$
RR19_Rahimova_2017
     RDKit          3D

 46 51  0  0  0  0  0  0  0  0999 V2000
  130.5310  126.0410   55.8160 O   0  0  0  0  0  0  0  0  0  0  0  0
  130.1270  126.1790   56.9740 C   0  0  0  0  0  0  0  0  0  0  0  0
  130.7260  125.6910   58.0900 N   0  0  0  0  0  0  0  0  0  0  0  0
  131.9620  125.1410   58.3250 C   0  0  0  0  0  0  0  0  0  0  0  0
  133.2610  125.1360   57.2380 S   0  0  0  0  0  0  0  0  0  0  0  0
  131.9700  124.5990   59.5860 N   0  0  0  0  0  0  0  0  0  0  0  0
  132.9520  124.0710   60.3590 C   0  0  0  0  0  0  0  0  0  0  0  0
  134.1640  124.1280   60.1420 O   0  0  0  0  0  0  0  0  0  0  0  0
  132.4310  123.3180   61.6090 C   0  0  2  0  0  0  0  0  0  0  0  0
  133.2670  123.5430   62.9020 C   0  0  0  0  0  0  0  0  0  0  0  0
  132.5510  124.2950   64.0130 C   0  0  0  0  0  0  0  0  0  0  0  0
  131.1800  124.0760   64.2680 C   0  0  0  0  0  0  0  0  0  0  0  0
  130.5620  124.7120   65.3370 C   0  0  0  0  0  0  0  0  0  0  0  0
  131.2920  125.5520   66.1700 C   0  0  0  0  0  0  0  0  0  0  0  0
  132.6490  125.7530   65.9480 C   0  0  0  0  0  0  0  0  0  0  0  0
  133.2860  125.1240   64.8870 C   0  0  0  0  0  0  0  0  0  0  0  0
  132.2410  121.8680   61.3260 N   0  0  0  0  0  0  0  0  0  0  0  0
  133.3030  121.0470   61.0910 C   0  0  0  0  0  0  0  0  0  0  0  0
  134.4950  121.3600   61.0490 O   0  0  0  0  0  0  0  0  0  0  0  0
  132.7240  119.6940   60.9000 C   0  0  0  0  0  0  0  0  0  0  0  0
  133.3320  118.4690   60.6270 C   0  0  0  0  0  0  0  0  0  0  0  0
  132.5250  117.3330   60.5030 C   0  0  0  0  0  0  0  0  0  0  0  0
  131.1350  117.4340   60.6550 C   0  0  0  0  0  0  0  0  0  0  0  0
  130.5440  118.6720   60.9300 C   0  0  0  0  0  0  0  0  0  0  0  0
  131.3670  119.7930   61.0480 C   0  0  0  0  0  0  0  0  0  0  0  0
  131.0420  121.2120   61.3390 C   0  0  0  0  0  0  0  0  0  0  0  0
  129.9270  121.6900   61.5540 O   0  0  0  0  0  0  0  0  0  0  0  0
  128.8130  126.9610   57.2380 C   0  0  2  0  0  0  0  0  0  0  0  0
  127.6010  126.4570   56.4030 C   0  0  0  0  0  0  0  0  0  0  0  0
  127.1410  125.0570   56.7670 C   0  0  0  0  0  0  0  0  0  0  0  0
  127.9200  123.9380   56.4010 C   0  0  0  0  0  0  0  0  0  0  0  0
  127.5500  122.6670   56.8230 C   0  0  0  0  0  0  0  0  0  0  0  0
  126.4310  122.4940   57.6270 C   0  0  0  0  0  0  0  0  0  0  0  0
  125.6780  123.5900   58.0280 C   0  0  0  0  0  0  0  0  0  0  0  0
  126.0290  124.8690   57.6160 C   0  0  0  0  0  0  0  0  0  0  0  0
  128.9730  128.4390   57.1320 N   0  0  0  0  0  0  0  0  0  0  0  0
  130.0600  129.0810   57.6450 C   0  0  0  0  0  0  0  0  0  0  0  0
  131.0060  128.5790   58.2510 O   0  0  0  0  0  0  0  0  0  0  0  0
  129.8600  130.5150   57.3170 C   0  0  0  0  0  0  0  0  0  0  0  0
  130.6450  131.6350   57.5960 C   0  0  0  0  0  0  0  0  0  0  0  0
  130.2050  132.8880   57.1550 C   0  0  0  0  0  0  0  0  0  0  0  0
  129.0020  133.0050   56.4460 C   0  0  0  0  0  0  0  0  0  0  0  0
  128.2300  131.8700   56.1750 C   0  0  0  0  0  0  0  0  0  0  0  0
  128.6850  130.6290   56.6250 C   0  0  0  0  0  0  0  0  0  0  0  0
  128.1010  129.2730   56.4910 C   0  0  0  0  0  0  0  0  0  0  0  0
  127.0520  128.9650   55.9230 O   0  0  0  0  0  0  0  0  0  0  0  0
  1  2  2  0
  2  3  1  0
  3  4  1  0
  4  5  2  0
  4  6  1  0
  6  7  1  0
  7  8  2  0
  7  9  1  0
  9 10  1  1
 10 11  1  0
 11 12  2  0
 12 13  1  0
 13 14  2  0
 14 15  1  0
 15 16  2  0
  9 17  1  0
 17 18  1  0
 18 19  2  0
 18 20  1  0
 20 21  2  0
 21 22  1  0
 22 23  2  0
 23 24  1  0
 24 25  2  0
 25 26  1  0
 26 27  2  0
  2 28  1  0
 28 29  1  6
 29 30  1  0
 30 31  2  0
 31 32  1  0
 32 33  2  0
 33 34  1  0
 34 35  2  0
 28 36  1  0
 36 37  1  0
 37 38  2  0
 37 39  1  0
 39 40  2  0
 40 41  1  0
 41 42  2  0
 42 43  1  0
 43 44  2  0
 44 45  1  0
 45 46  2  0
 16 11  1  0
 26 17  1  0
 35 30  1  0
 45 36  1  0
 25 20  1  0
 44 39  1  0
M  END
>  <Binding energies>  (73) 
[-12.86]

>  <Ligand effiencies>  (73) 
[-0.26791666666666664]

>  <Interactions>  (73) 
["V-A:TYR:539:CD1:4871, V-A:PRO:540:N:4882, V-A:MET:535:CE:4833, V-A:PRO:540:CD:4885, V-A:PRO:540:CA:4881, V-A:TYR:539:CE1:4873, V-A:ARG:545:CZ:4924, V-A:TYR:539:C:4865, V-A:TYR:539:CZ:4875, V-B:TYR:539:CE1:9847, V-B:TYR:539:CD1:9845, V-A:ASP:366:CB:3209, V-B:PRO:540:CA:9855, V-B:MET:535:CE:9807, V-B:TYR:539:CZ:9849, V-B:PRO:540:N:9856, V-B:TYR:539:C:9839, V-B:GLU:543:CD:9880, V-B:PRO:540:CD:9859, V-B:PRO:540:CB:9857, V-A:LEU:475:CD2:4256, V-A:LEU:373:CD1:3277, V-A:PRO:482:CB:4323, V-A:PRO:482:CG:4324, V-A:ASP:366:CG:3210, V-A:GLY:454:CA:4046, V-A:HIS:456:CE1:4066, V-A:ASP:366:CA:3207, V-B:GLU:543:CG:9879, V-B:GLU:543:CB:9878, V-A:ILE:369:CG2:3234, V-A:TYR:539:CD2:4872, V-A:TYR:539:CE2:4874, H-A:TYR:531:OH:4793, H-B:TYR:531:OH:9767, V-A:TYR:539:CG:4870, V-A:ARG:545:CG:4920, V-A:ARG:545:CD:4921, V-A:ILE:538:CA:4858, V-A:SER:385:CA:3404, V-A:SER:385:CB:3406, V-A:TYR:539:CA:4867, V-B:TYR:539:CB:9843, V-A:ILE:538:C:4856, V-A:ASP:366:C:3205"]

$$$$
RR1_Rahimova_2017
     RDKit          3D

 41 44  0  0  0  0  0  0  0  0999 V2000
  130.7870  112.7730   61.5770 C   0  0  0  0  0  0  0  0  0  0  0  0
  131.6120  113.5120   60.6830 O   0  0  0  0  0  0  0  0  0  0  0  0
  131.5700  114.8930   60.7120 C   0  0  0  0  0  0  0  0  0  0  0  0
  130.9190  115.6850   59.7530 C   0  0  0  0  0  0  0  0  0  0  0  0
  130.9370  117.0720   59.8600 C   0  0  0  0  0  0  0  0  0  0  0  0
  131.5940  117.6900   60.9250 C   0  0  0  0  0  0  0  0  0  0  0  0
  131.5950  119.0980   60.9210 N   0  0  0  0  0  0  0  0  0  0  0  0
  132.6370  119.9540   60.9920 C   0  0  0  0  0  0  0  0  0  0  0  0
  133.8110  119.6170   61.1490 O   0  0  0  0  0  0  0  0  0  0  0  0
  132.2560  121.4380   60.8670 C   0  0  0  0  0  0  0  0  0  0  0  0
  130.9300  122.0030   61.9890 S   0  0  0  0  0  0  0  0  0  0  0  0
  129.9640  122.8720   60.7990 C   0  0  0  0  0  0  0  0  0  0  0  0
  129.0360  122.3200   60.0590 N   0  0  0  0  0  0  0  0  0  0  0  0
  128.5680  123.3290   59.3310 C   0  0  0  0  0  0  0  0  0  0  0  0
  127.4590  123.1530   58.3320 C   0  0  0  0  0  0  0  0  0  0  0  0
  126.1400  123.5330   58.6260 C   0  0  0  0  0  0  0  0  0  0  0  0
  125.1300  123.3540   57.6790 C   0  0  0  0  0  0  0  0  0  0  0  0
  125.4650  122.7940   56.4470 C   0  0  0  0  0  0  0  0  0  0  0  0
  126.7290  122.4150   56.1310 N   0  0  0  0  0  0  0  0  0  0  0  0
  127.6970  122.5980   57.0640 C   0  0  0  0  0  0  0  0  0  0  0  0
  129.1420  124.4980   59.5480 N   0  0  0  0  0  0  0  0  0  0  0  0
  130.0410  124.2060   60.4920 N   0  0  0  0  0  0  0  0  0  0  0  0
  130.8980  125.2530   61.0500 C   0  0  0  0  0  0  0  0  0  0  0  0
  130.1510  126.3930   61.7630 C   0  0  0  0  0  0  0  0  0  0  0  0
  130.7630  127.2170   62.4520 O   0  0  0  0  0  0  0  0  0  0  0  0
  128.8180  126.4050   61.5730 N   0  0  0  0  0  0  0  0  0  0  0  0
  128.0970  127.4850   62.0620 N   0  0  0  0  0  0  0  0  0  0  0  0
  127.0580  127.9360   61.3250 C   0  0  0  0  0  0  0  0  0  0  0  0
  126.6470  127.3850   60.2980 O   0  0  0  0  0  0  0  0  0  0  0  0
  126.3750  129.1820   61.8490 C   0  0  0  0  0  0  0  0  0  0  0  0
  126.3680  130.3510   61.0800 C   0  0  0  0  0  0  0  0  0  0  0  0
  125.7570  131.5100   61.5460 C   0  0  0  0  0  0  0  0  0  0  0  0
  125.1370  131.5380   62.8050 C   0  0  0  0  0  0  0  0  0  0  0  0
  124.5230  132.6600   63.3340 O   0  0  0  0  0  0  0  0  0  0  0  0
  124.1710  133.7370   62.4730 C   0  0  0  0  0  0  0  0  0  0  0  0
  125.1380  130.3800   63.5940 C   0  0  0  0  0  0  0  0  0  0  0  0
  124.5310  130.4650   64.8360 O   0  0  0  0  0  0  0  0  0  0  0  0
  124.9720  129.6230   65.8950 C   0  0  0  0  0  0  0  0  0  0  0  0
  125.7540  129.2120   63.1080 C   0  0  0  0  0  0  0  0  0  0  0  0
  132.2450  116.9020   61.8860 C   0  0  0  0  0  0  0  0  0  0  0  0
  132.2250  115.5140   61.7750 C   0  0  0  0  0  0  0  0  0  0  0  0
  1  2  1  0
  2  3  1  0
  3  4  2  0
  4  5  1  0
  5  6  2  0
  6  7  1  0
  7  8  1  0
  8  9  2  0
  8 10  1  0
 10 11  1  0
 11 12  1  0
 12 13  2  0
 13 14  1  0
 14 15  1  0
 15 16  2  0
 16 17  1  0
 17 18  2  0
 18 19  1  0
 19 20  2  0
 14 21  2  0
 21 22  1  0
 22 23  1  0
 23 24  1  0
 24 25  2  0
 24 26  1  0
 26 27  1  0
 27 28  1  0
 28 29  2  0
 28 30  1  0
 30 31  2  0
 31 32  1  0
 32 33  2  0
 33 34  1  0
 34 35  1  0
 33 36  1  0
 36 37  1  0
 37 38  1  0
 36 39  2  0
  6 40  1  0
 40 41  2  0
 41  3  1  0
 22 12  1  0
 39 30  1  0
 20 15  1  0
M  END
>  <Binding energies>  (74) 
[-9.47]

>  <Ligand effiencies>  (74) 
[-0.21522727272727274]

>  <Interactions>  (74) 
["V-B:LEU:475:CD2:9230, H-B:TYR:539:N:9842, V-B:TYR:539:CE1:9847, V-B:TYR:539:CD1:9845, V-B:PRO:540:CA:9855, V-B:ILE:538:CB:9834, V-B:LEU:363:CD1:8160, V-B:PRO:540:N:9856, V-B:TYR:539:C:9839, V-B:PRO:540:CD:9859, V-B:PRO:540:CB:9857, V-B:ILE:538:CG2:9835, V-A:LEU:475:CD2:4256, V-B:TYR:539:CG:9844, V-B:TYR:539:CA:9841, V-A:PRO:482:CB:4323, V-A:PRO:482:CG:4324, H-B:GLU:543:OE2:9882, H-B:ARG:545:NH2:9900, H-A:GLU:543:OE2:4908, H-A:GLU:543:OE1:4907, H-A:ARG:545:NH2:4926, H-B:TYR:539:O:9840, V-B:ARG:545:CZ:9898, V-B:ARG:545:CD:9895, H-B:TYR:484:OH:9319, H-B:GLY:454:N:9021, V-B:ARG:545:CG:9894, V-B:GLY:454:CA:9020, V-B:ILE:369:CD1:8210, V-A:SER:385:CB:3406, V-B:ILE:369:CG2:8208, V-B:VAL:344:CG1:7972, V-B:TYR:539:CB:9843, V-A:HIS:383:CE1:3391, V-A:THR:477:C:4265, V-A:THR:477:CA:4267, H-A:HIS:383:ND1:3388, V-A:LEU:475:CG:4254"]

$$$$
RR22_Rahimova_2017
     RDKit          3D

 31 36  0  0  0  0  0  0  0  0999 V2000
  126.0830  122.8730   61.0010 O   0  0  0  0  0  0  0  0  0  0  0  0
  127.2600  123.1630   60.8020 C   0  0  0  0  0  0  0  0  0  0  0  0
  128.2500  123.3730   61.7470 N   0  0  0  0  0  0  0  0  0  0  0  0
  129.5960  123.6460   61.3440 C   0  0  1  0  0  0  0  0  0  0  0  0
  129.9340  124.8820   61.9800 O   0  0  0  0  0  0  0  0  0  0  0  0
  131.0150  124.8990   62.8620 C   0  0  0  0  0  0  0  0  0  0  0  0
  131.0920  125.9890   63.7300 C   0  0  0  0  0  0  0  0  0  0  0  0
  132.1670  126.0970   64.6130 C   0  0  0  0  0  0  0  0  0  0  0  0
  133.1650  125.1220   64.6210 C   0  0  0  0  0  0  0  0  0  0  0  0
  133.0880  124.0320   63.7520 C   0  0  0  0  0  0  0  0  0  0  0  0
  132.0040  123.8980   62.8780 C   0  0  0  0  0  0  0  0  0  0  0  0
  131.8500  122.7810   61.8710 C   0  0  1  0  0  0  0  0  0  0  0  0
  132.3730  121.3810   62.1200 C   0  0  0  0  0  0  0  0  0  0  0  0
  131.3580  120.5730   61.3060 C   0  0  0  0  0  0  0  0  0  0  0  0
  131.6050  119.1820   60.8770 C   0  0  0  0  0  0  0  0  0  0  0  0
  130.5340  118.3070   60.6420 C   0  0  0  0  0  0  0  0  0  0  0  0
  130.7720  116.9970   60.2370 C   0  0  0  0  0  0  0  0  0  0  0  0
  132.0800  116.5530   60.0650 C   0  0  0  0  0  0  0  0  0  0  0  0
  133.1540  117.4090   60.2940 C   0  0  0  0  0  0  0  0  0  0  0  0
  132.9180  118.7200   60.6980 C   0  0  0  0  0  0  0  0  0  0  0  0
  130.2970  121.2530   61.0860 N   0  0  0  0  0  0  0  0  0  0  0  0
  130.4550  122.5070   61.7000 N   0  0  0  0  0  0  0  0  0  0  0  0
  129.5560  123.9110   59.8460 C   0  0  0  0  0  0  0  0  0  0  0  0
  130.5600  124.5290   59.1800 C   0  0  0  0  0  0  0  0  0  0  0  0
  130.6590  124.8290   57.7390 C   0  0  0  0  0  0  0  0  0  0  0  0
  129.9820  124.0960   56.7540 C   0  0  0  0  0  0  0  0  0  0  0  0
  130.1240  124.4370   55.4080 C   0  0  0  0  0  0  0  0  0  0  0  0
  130.9530  125.5090   55.0780 C   0  0  0  0  0  0  0  0  0  0  0  0
  131.6270  126.2310   56.0080 N   0  0  0  0  0  0  0  0  0  0  0  0
  131.4750  125.8840   57.3120 C   0  0  0  0  0  0  0  0  0  0  0  0
  128.0080  123.3970   59.1600 S   0  0  0  0  0  0  0  0  0  0  0  0
  1  2  2  0
  2  3  1  0
  4  3  1  1
  4  5  1  0
  5  6  1  0
  6  7  2  0
  7  8  1  0
  8  9  2  0
  9 10  1  0
 10 11  2  0
 11 12  1  0
 12 13  1  1
 13 14  1  0
 14 15  1  0
 15 16  2  0
 16 17  1  0
 17 18  2  0
 18 19  1  0
 19 20  2  0
 14 21  2  0
 21 22  1  0
  4 23  1  0
 23 24  2  0
 24 25  1  0
 25 26  2  0
 26 27  1  0
 27 28  2  0
 28 29  1  0
 29 30  2  0
 23 31  1  0
 31  2  1  0
 22  4  1  0
 30 25  1  0
 11  6  1  0
 22 12  1  0
 20 15  1  0
M  END
>  <Binding energies>  (75) 
[-9.59]

>  <Ligand effiencies>  (75) 
[-0.2996875]

>  <Interactions>  (75) 
["V-A:ARG:545:CZ:4924, V-B:TYR:539:CE1:9847, V-B:TYR:539:CD1:9845, V-B:PRO:540:CA:9855, V-B:MET:535:CE:9807, V-B:TYR:539:CZ:9849, V-B:TYR:539:C:9839, V-A:LEU:475:CD2:4256, V-B:TYR:539:CG:9844, V-A:LEU:373:CD1:3277, V-B:PRO:540:C:9853, V-A:PRO:482:CB:4323, V-B:ALA:541:CB:9864, V-A:PRO:482:CG:4324, H-B:ALA:541:N:9863, H-B:GLU:543:OE1:9881, V-A:GLY:454:CA:4046, H-B:TYR:539:OH:9850, H-A:TYR:531:OH:4793, V-A:SER:385:CA:3404, V-A:SER:385:CB:3406, V-B:TYR:539:CE2:9848, V-B:VAL:344:CG1:7972, V-B:TYR:539:CB:9843, V-A:ASN:370:CG:3243, V-A:TYR:531:CE1:4790"]

$$$$
RR24_Rahimova_2017
     RDKit          3D

 43 49  0  0  0  0  0  0  0  0999 V2000
  126.6520  130.4010   58.7200 C   0  0  0  0  0  0  0  0  0  0  0  0
  127.1110  130.7530   57.2970 C   0  0  2  0  0  0  0  0  0  0  0  0
  126.7210  129.6760   56.2420 C   0  0  0  0  0  0  0  0  0  0  0  0
  125.5890  129.6180   55.7510 O   0  0  0  0  0  0  0  0  0  0  0  0
  127.7490  128.8210   55.9630 O   0  0  0  0  0  0  0  0  0  0  0  0
  127.9120  127.6850   56.7220 C   0  0  0  0  0  0  0  0  0  0  0  0
  127.0130  127.4170   57.7560 C   0  0  0  0  0  0  0  0  0  0  0  0
  127.1630  126.2650   58.5240 C   0  0  0  0  0  0  0  0  0  0  0  0
  128.2050  125.3740   58.2570 C   0  0  0  0  0  0  0  0  0  0  0  0
  128.3760  124.1170   59.1180 C   0  0  1  0  0  0  0  0  0  0  0  0
  129.7590  124.0750   59.8110 C   0  0  0  0  0  0  0  0  0  0  0  0
  129.9050  123.8630   61.1320 C   0  0  0  0  0  0  0  0  0  0  0  0
  128.8320  123.6690   61.9660 N   0  0  0  0  0  0  0  0  0  0  0  0
  127.5430  123.6830   61.4870 C   0  0  0  0  0  0  0  0  0  0  0  0
  126.5980  123.4670   62.4370 N   0  0  0  0  0  0  0  0  0  0  0  0
  125.2650  123.5230   62.1650 C   0  0  0  0  0  0  0  0  0  0  0  0
  124.4650  123.6380   63.0960 O   0  0  0  0  0  0  0  0  0  0  0  0
  124.9670  123.6110   60.8150 N   0  0  0  0  0  0  0  0  0  0  0  0
  123.5340  123.5840   60.4580 C   0  0  0  0  0  0  0  0  0  0  0  0
  125.8460  123.8330   59.7680 C   0  0  0  0  0  0  0  0  0  0  0  0
  125.5030  123.9530   58.5880 O   0  0  0  0  0  0  0  0  0  0  0  0
  127.2540  123.8930   60.1760 C   0  0  0  0  0  0  0  0  0  0  0  0
  131.3100  123.8760   61.5050 C   0  0  0  0  0  0  0  0  0  0  0  0
  131.9720  123.7130   62.7230 C   0  0  0  0  0  0  0  0  0  0  0  0
  133.3670  123.7820   62.7540 C   0  0  0  0  0  0  0  0  0  0  0  0
  134.0880  124.0090   61.5770 C   0  0  0  0  0  0  0  0  0  0  0  0
  133.4190  124.1710   60.3610 C   0  0  0  0  0  0  0  0  0  0  0  0
  132.0240  124.1030   60.3360 C   0  0  0  0  0  0  0  0  0  0  0  0
  131.0780  124.2330   59.2080 C   0  0  0  0  0  0  0  0  0  0  0  0
  131.2990  124.4310   58.0150 O   0  0  0  0  0  0  0  0  0  0  0  0
  129.0930  125.6360   57.2080 C   0  0  0  0  0  0  0  0  0  0  0  0
  128.9430  126.7860   56.4390 C   0  0  0  0  0  0  0  0  0  0  0  0
  128.5620  131.1000   57.2460 N   0  0  0  0  0  0  0  0  0  0  0  0
  129.4850  130.4150   57.9770 C   0  0  0  0  0  0  0  0  0  0  0  0
  129.2810  129.4750   58.7480 O   0  0  0  0  0  0  0  0  0  0  0  0
  130.7910  131.0410   57.6510 C   0  0  0  0  0  0  0  0  0  0  0  0
  132.0790  130.7550   58.1030 C   0  0  0  0  0  0  0  0  0  0  0  0
  133.1450  131.5200   57.6150 C   0  0  0  0  0  0  0  0  0  0  0  0
  132.9120  132.5470   56.6920 C   0  0  0  0  0  0  0  0  0  0  0  0
  131.6130  132.8180   56.2500 C   0  0  0  0  0  0  0  0  0  0  0  0
  130.5630  132.0460   56.7490 C   0  0  0  0  0  0  0  0  0  0  0  0
  129.1060  132.0900   56.4740 C   0  0  0  0  0  0  0  0  0  0  0  0
  128.5150  132.8530   55.7090 O   0  0  0  0  0  0  0  0  0  0  0  0
  2  1  1  1
  2  3  1  0
  3  4  2  0
  3  5  1  0
  5  6  1  0
  6  7  2  0
  7  8  1  0
  8  9  2  0
 10  9  1  1
 10 11  1  0
 11 12  2  0
 12 13  1  0
 13 14  1  0
 14 15  1  0
 15 16  1  0
 16 17  2  0
 16 18  1  0
 18 19  1  0
 18 20  1  0
 20 21  2  0
 20 22  1  0
 12 23  1  0
 23 24  2  0
 24 25  1  0
 25 26  2  0
 26 27  1  0
 27 28  2  0
 28 29  1  0
 29 30  2  0
  9 31  1  0
 31 32  2  0
  2 33  1  0
 33 34  1  0
 34 35  2  0
 34 36  1  0
 36 37  2  0
 37 38  1  0
 38 39  2  0
 39 40  1  0
 40 41  2  0
 41 42  1  0
 42 43  2  0
 32  6  1  0
 42 33  1  0
 22 10  1  0
 28 23  1  0
 41 36  1  0
 29 11  1  0
 22 14  2  0
M  END
>  <Binding energies>  (76) 
[-11.8]

>  <Ligand effiencies>  (76) 
[-0.26222222222222225]

>  <Interactions>  (76) 
["H-A:TYR:539:N:4868, V-A:PRO:540:N:4882, V-A:MET:535:CE:4833, V-A:LEU:363:CD1:3186, V-A:ILE:538:CG2:4861, V-A:PRO:540:CG:4884, V-A:PRO:540:CD:4885, V-A:TYR:531:CE2:4791, V-A:TYR:539:CE1:4873, V-A:ILE:538:CB:4860, V-A:PRO:540:CB:4883, V-A:TYR:539:CZ:4875, V-B:ASN:362:C:8143, V-B:TYR:539:CE1:9847, V-B:PRO:540:CA:9855, V-B:ASN:362:CB:8147, V-B:MET:535:CE:9807, V-B:TYR:539:CZ:9849, V-B:GLU:543:CD:9880, V-B:PRO:540:CB:9857, V-B:PRO:540:C:9853, V-B:ALA:541:CB:9864, H-B:GLU:543:OE1:9881, H-B:ARG:545:NH2:9900, V-A:ASP:366:CG:3210, V-B:LEU:363:CA:8156, V-A:GLY:454:CA:4046, V-B:ASP:366:CG:8184, V-A:ILE:369:CD1:3236, H-B:TYR:539:OH:9850, V-A:TYR:539:CE2:4874, H-B:TYR:531:OH:9767, V-B:ALA:541:CA:9862, H-B:ASN:370:ND2:8219, H-A:TYR:539:OH:4876, V-A:ILE:538:CA:4858, V-A:LEU:363:CA:3182, H-B:ALA:541:O:9861, V-B:ASN:362:CA:8145, V-B:ALA:541:C:9860, H-B:ASN:362:ND2:8150"]

$$$$
RR25_Rahimova_2017
     RDKit          3D

 39 44  0  0  0  0  0  0  0  0999 V2000
  132.1040  130.4970   61.2950 O   0  0  0  0  0  0  0  0  0  0  0  0
  131.3120  130.6880   60.3710 C   0  0  0  0  0  0  0  0  0  0  0  0
  131.5700  131.7670   59.5630 O   0  0  0  0  0  0  0  0  0  0  0  0
  130.9110  131.9430   58.3600 C   0  0  0  0  0  0  0  0  0  0  0  0
  131.5740  132.6840   57.3830 C   0  0  0  0  0  0  0  0  0  0  0  0
  130.9640  132.9070   56.1510 C   0  0  0  0  0  0  0  0  0  0  0  0
  129.6860  132.3980   55.8790 C   0  0  0  0  0  0  0  0  0  0  0  0
  129.0420  132.6300   54.5620 N   0  0  0  0  0  0  0  0  0  0  0  0
  127.8280  132.8130   54.5260 O   0  0  0  0  0  0  0  0  0  0  0  0
  129.7450  132.6290   53.5560 O   0  0  0  0  0  0  0  0  0  0  0  0
  129.0300  131.6640   56.8810 C   0  0  0  0  0  0  0  0  0  0  0  0
  129.6240  131.4380   58.1250 C   0  0  0  0  0  0  0  0  0  0  0  0
  128.9610  130.6430   59.2350 C   0  0  0  0  0  0  0  0  0  0  0  0
  130.0400  129.8570   60.0320 C   0  0  2  0  0  0  0  0  0  0  0  0
  129.4090  129.1070   61.2410 C   0  0  0  0  0  0  0  0  0  0  0  0
  128.4500  129.6630   61.7830 O   0  0  0  0  0  0  0  0  0  0  0  0
  129.8050  127.8500   61.6050 N   0  0  0  0  0  0  0  0  0  0  0  0
  131.1110  127.2780   61.2160 C   0  0  0  0  0  0  0  0  0  0  0  0
  130.9350  125.7720   60.9320 C   0  0  0  0  0  0  0  0  0  0  0  0
  130.3290  125.0800   62.0730 N   0  0  0  0  0  0  0  0  0  0  0  0
  130.2820  123.6270   61.8590 C   0  0  0  0  0  0  0  0  0  0  0  0
  128.8410  123.0540   61.9290 C   0  0  0  0  0  0  0  0  0  0  0  0
  128.0690  123.0600   60.6530 N   0  0  0  0  0  0  0  0  0  0  0  0
  126.7170  123.2970   60.7830 C   0  0  0  0  0  0  0  0  0  0  0  0
  126.1610  123.4590   61.8750 O   0  0  0  0  0  0  0  0  0  0  0  0
  125.9590  123.3650   59.4720 C   0  0  0  0  0  0  0  0  0  0  0  0
  124.5830  123.6280   59.4860 C   0  0  0  0  0  0  0  0  0  0  0  0
  123.8560  123.7050   58.2990 C   0  0  0  0  0  0  0  0  0  0  0  0
  124.4780  123.5280   57.0650 C   0  0  0  0  0  0  0  0  0  0  0  0
  125.8670  123.2600   57.0010 C   0  0  0  0  0  0  0  0  0  0  0  0
  126.5620  123.0710   55.7830 C   0  0  0  0  0  0  0  0  0  0  0  0
  127.9320  122.8140   55.7920 C   0  0  0  0  0  0  0  0  0  0  0  0
  128.6380  122.7380   56.9900 C   0  0  0  0  0  0  0  0  0  0  0  0
  127.9920  122.9180   58.2200 C   0  0  0  0  0  0  0  0  0  0  0  0
  126.5980  123.1810   58.2190 C   0  0  0  0  0  0  0  0  0  0  0  0
  128.7980  122.8360   59.5020 C   0  0  0  0  0  0  0  0  0  0  0  0
  130.0110  122.6040   59.5000 O   0  0  0  0  0  0  0  0  0  0  0  0
  128.9980  125.6300   62.3380 C   0  0  0  0  0  0  0  0  0  0  0  0
  129.0600  127.1400   62.6700 C   0  0  0  0  0  0  0  0  0  0  0  0
  1  2  2  0
  2  3  1  0
  3  4  1  0
  4  5  2  0
  5  6  1  0
  6  7  2  0
  7  8  1  0
  8  9  2  0
  8 10  1  0
  7 11  1  0
 11 12  2  0
 12 13  1  0
 13 14  1  0
 14 15  1  1
 15 16  2  0
 15 17  1  0
 17 18  1  0
 18 19  1  0
 19 20  1  0
 20 21  1  0
 21 22  1  0
 22 23  1  0
 23 24  1  0
 24 25  2  0
 24 26  1  0
 26 27  2  0
 27 28  1  0
 28 29  2  0
 29 30  1  0
 30 31  2  0
 31 32  1  0
 32 33  2  0
 33 34  1  0
 34 35  2  0
 34 36  1  0
 36 37  2  0
 20 38  1  0
 38 39  1  0
 14  2  1  0
 39 17  1  0
 12  4  1  0
 36 23  1  0
 35 26  1  0
 35 30  1  0
M  CHG  2   8   1  10  -1
M  END
>  <Binding energies>  (77) 
[-10.5]

>  <Ligand effiencies>  (77) 
[-0.2692307692307692]

>  <Interactions>  (77) 
["V-A:PRO:540:N:4882, V-A:MET:535:CE:4833, V-A:ILE:538:CG2:4861, V-A:PRO:540:CD:4885, V-A:PRO:540:CA:4881, V-A:ILE:538:CB:4860, V-A:PRO:540:CB:4883, V-A:TYR:539:C:4865, V-B:TYR:539:CE1:9847, V-B:TYR:539:CD1:9845, V-B:TYR:531:CE2:9765, V-B:PRO:540:CA:9855, V-B:ILE:538:CB:9834, V-B:MET:535:CE:9807, V-B:TYR:539:CZ:9849, V-B:LEU:363:CD1:8160, V-B:PRO:540:N:9856, V-B:TYR:539:C:9839, V-B:GLU:543:CD:9880, V-B:PRO:540:CB:9857, V-B:ILE:538:CG2:9835, V-B:TYR:539:CG:9844, V-B:PRO:540:C:9853, V-B:ALA:541:CB:9864, H-B:ALA:541:N:9863, V-A:ASP:366:CG:3210, H-A:ARG:545:NH2:4926, V-B:LEU:363:CB:8158, V-B:LEU:363:CA:8156, V-B:ASP:366:CG:8184, V-B:ILE:538:CA:9832, V-A:TYR:539:CD2:4872, V-A:TYR:539:CE2:4874, H-B:ASN:370:ND2:8219, H-A:TYR:539:OH:4876, V-A:ILE:538:CA:4858, V-B:TYR:539:CE2:9848, V-B:TYR:539:CD2:9846, V-A:ILE:538:C:4856, V-A:VAL:537:C:4848, H-A:ILE:538:N:4859"]

$$$$
RR27_Rahimova_2017
     RDKit          3D

 39 44  0  0  0  0  0  0  0  0999 V2000
  126.7020  128.7390   56.4960 O   0  0  0  0  0  0  0  0  0  0  0  0
  126.8890  128.6680   57.7140 C   0  0  0  0  0  0  0  0  0  0  0  0
  127.0770  129.9920   58.5110 C   0  0  0  0  0  0  0  0  0  0  0  0
  125.7640  130.5300   59.1090 C   0  0  0  0  0  0  0  0  0  0  0  0
  125.7360  131.2290   60.3250 C   0  0  0  0  0  0  0  0  0  0  0  0
  124.5320  131.7040   60.8360 C   0  0  0  0  0  0  0  0  0  0  0  0
  123.3500  131.4820   60.1340 C   0  0  0  0  0  0  0  0  0  0  0  0
  123.3620  130.7880   58.9280 C   0  0  0  0  0  0  0  0  0  0  0  0
  124.5660  130.3140   58.4170 C   0  0  0  0  0  0  0  0  0  0  0  0
  127.9000  131.0250   57.7170 C   0  0  0  0  0  0  0  0  0  0  0  0
  128.9730  131.7150   58.2960 C   0  0  0  0  0  0  0  0  0  0  0  0
  129.6890  132.6510   57.5520 C   0  0  0  0  0  0  0  0  0  0  0  0
  129.3310  132.9030   56.2310 C   0  0  0  0  0  0  0  0  0  0  0  0
  128.2600  132.2330   55.6460 C   0  0  0  0  0  0  0  0  0  0  0  0
  127.5450  131.2990   56.3900 C   0  0  0  0  0  0  0  0  0  0  0  0
  126.7830  127.4860   58.3860 N   0  0  0  0  0  0  0  0  0  0  0  0
  127.2390  127.2980   59.7710 C   0  0  0  0  0  0  0  0  0  0  0  0
  128.7320  126.9080   59.7030 C   0  0  0  0  0  0  0  0  0  0  0  0
  128.9900  125.6630   58.7960 C   0  0  0  0  0  0  0  0  0  0  0  0
  130.4740  125.3010   58.6030 C   0  0  0  0  0  0  0  0  0  0  0  0
  131.0670  125.7570   57.4610 N   0  0  0  0  0  0  0  0  0  0  0  0
  132.3860  125.4870   57.2550 C   0  0  0  0  0  0  0  0  0  0  0  0
  133.0910  125.8930   56.1520 O   0  0  0  0  0  0  0  0  0  0  0  0
  133.0840  124.7460   58.2280 C   0  0  0  0  0  0  0  0  0  0  0  0
  134.3740  124.3170   58.3380 N   0  0  0  0  0  0  0  0  0  0  0  0
  134.4760  123.6190   59.5260 N   0  0  0  0  0  0  0  0  0  0  0  0
  133.2730  123.6270   60.1400 N   0  0  0  0  0  0  0  0  0  0  0  0
  133.0870  122.9360   61.4130 C   0  0  0  0  0  0  0  0  0  0  0  0
  132.3040  121.6340   61.2950 C   0  0  0  0  0  0  0  0  0  0  0  0
  130.9270  121.6170   61.5350 C   0  0  0  0  0  0  0  0  0  0  0  0
  130.2090  120.4260   61.4150 C   0  0  0  0  0  0  0  0  0  0  0  0
  130.8620  119.2490   61.0510 C   0  0  0  0  0  0  0  0  0  0  0  0
  132.2350  119.2620   60.8010 C   0  0  0  0  0  0  0  0  0  0  0  0
  133.0420  117.8120   60.3240 Cl  0  0  0  0  0  0  0  0  0  0  0  0
  132.9550  120.4500   60.9280 C   0  0  0  0  0  0  0  0  0  0  0  0
  132.3600  124.3190   59.3620 C   0  0  0  0  0  0  0  0  0  0  0  0
  131.0660  124.5630   59.5850 N   0  0  0  0  0  0  0  0  0  0  0  0
  128.1950  125.7450   57.4560 C   0  0  0  0  0  0  0  0  0  0  0  0
  126.7300  126.2170   57.6440 C   0  0  0  0  0  0  0  0  0  0  0  0
  1  2  2  0
  2  3  1  0
  3  4  1  0
  4  5  2  0
  5  6  1  0
  6  7  2  0
  7  8  1  0
  8  9  2  0
  3 10  1  0
 10 11  2  0
 11 12  1  0
 12 13  2  0
 13 14  1  0
 14 15  2  0
  2 16  1  0
 16 17  1  0
 17 18  1  0
 18 19  1  0
 19 20  1  0
 20 21  2  0
 21 22  1  0
 22 23  1  0
 22 24  2  0
 24 25  1  0
 25 26  2  0
 26 27  1  0
 27 28  1  0
 28 29  1  0
 29 30  2  0
 30 31  1  0
 31 32  2  0
 32 33  1  0
 33 34  1  0
 33 35  2  0
 27 36  1  0
 36 37  2  0
 19 38  1  0
 38 39  1  0
  9  4  1  0
 15 10  1  0
 39 16  1  0
 37 20  1  0
 36 24  1  0
 35 29  1  0
M  END
>  <Binding energies>  (78) 
[-10.75]

>  <Ligand effiencies>  (78) 
[-0.26875]

>  <Interactions>  (78) 
["V-A:TYR:539:CD1:4871, V-A:PRO:540:N:4882, V-A:MET:535:CE:4833, V-A:TYR:539:CE1:4873, V-A:TYR:539:C:4865, V-A:TYR:539:CZ:4875, V-B:TYR:539:CE1:9847, V-B:TYR:539:CD1:9845, V-A:ASP:366:CB:3209, V-B:MET:535:CE:9807, V-B:TYR:539:CZ:9849, V-A:LEU:475:CD2:4256, V-A:LEU:373:CD1:3277, V-B:ALA:541:CB:9864, V-A:ASP:366:CG:3210, V-B:ASP:366:CB:8183, V-A:ASP:366:CA:3207, V-B:ASP:366:CG:8184, V-A:ILE:369:CD1:3236, H-B:TYR:539:OH:9850, V-A:ILE:369:CG2:3234, V-A:TYR:539:CD2:4872, V-A:TYR:539:CE2:4874, H-A:TYR:531:OH:4793, H-B:TYR:531:OH:9767, V-A:TYR:539:CG:4870, V-A:ILE:538:CA:4858, V-B:ILE:369:CD1:8210, V-A:SER:385:CA:3404, V-A:SER:385:CB:3406, V-B:ILE:369:CG2:8208, V-B:ASP:366:CA:8181, V-B:ILE:369:CB:8207, V-A:ILE:538:C:4856, H-A:ASP:366:O:3206, V-B:ASP:366:C:8179, V-B:ILE:369:CG1:8209"]

$$$$
RR28_Rahimova_2017
     RDKit          3D

 46 49  0  0  0  0  0  0  0  0999 V2000
  130.4570  122.8790   64.6080 C   0  0  0  0  0  0  0  0  0  0  0  0
  130.4570  122.5110   63.1280 C   0  0  0  0  0  0  0  0  0  0  0  0
  129.3880  122.3930   62.5320 O   0  0  0  0  0  0  0  0  0  0  0  0
  131.6650  122.3350   62.5560 N   0  0  0  0  0  0  0  0  0  0  0  0
  131.9710  121.9700   61.1550 C   0  0  0  0  0  0  0  0  0  0  0  0
  131.9480  120.4190   61.0400 C   0  0  0  0  0  0  0  0  0  0  0  0
  133.1330  119.7340   60.7290 C   0  0  0  0  0  0  0  0  0  0  0  0
  133.1490  118.3480   60.6140 C   0  0  0  0  0  0  0  0  0  0  0  0
  131.9780  117.6120   60.8070 C   0  0  0  0  0  0  0  0  0  0  0  0
  132.0140  116.0900   60.6720 C   0  0  0  0  0  0  0  0  0  0  0  0
  131.9430  115.4750   61.8540 F   0  0  0  0  0  0  0  0  0  0  0  0
  130.9930  115.6680   59.9260 F   0  0  0  0  0  0  0  0  0  0  0  0
  133.1540  115.7290   60.0820 F   0  0  0  0  0  0  0  0  0  0  0  0
  130.7910  118.2820   61.1150 C   0  0  0  0  0  0  0  0  0  0  0  0
  130.7760  119.6690   61.2300 C   0  0  0  0  0  0  0  0  0  0  0  0
  133.3280  122.6170   60.7000 C   0  0  0  0  0  0  0  0  0  0  0  0
  133.2790  124.1650   60.6380 C   0  0  0  0  0  0  0  0  0  0  0  0
  132.2060  124.5100   59.6910 N   0  0  0  0  0  0  0  0  0  0  0  0
  132.4930  124.7320   58.3790 C   0  0  0  0  0  0  0  0  0  0  0  0
  133.6520  124.8210   57.9680 O   0  0  0  0  0  0  0  0  0  0  0  0
  131.3330  125.0450   57.4020 C   0  0  0  0  0  0  0  0  0  0  0  0
  130.0300  125.5910   58.0480 C   0  0  0  0  0  0  0  0  0  0  0  0
  129.4000  126.8060   57.3280 C   0  0  0  0  0  0  0  0  0  0  0  0
  129.3160  126.7690   56.0970 O   0  0  0  0  0  0  0  0  0  0  0  0
  128.8370  127.8090   58.0600 N   0  0  0  0  0  0  0  0  0  0  0  0
  129.1710  128.0680   59.4650 C   0  0  0  0  0  0  0  0  0  0  0  0
  130.4270  128.9670   59.4610 C   0  0  0  0  0  0  0  0  0  0  0  0
  130.2720  130.3070   58.6600 C   0  0  0  0  0  0  0  0  0  0  0  0
  131.6120  130.8700   58.3920 N   0  0  0  0  0  0  0  0  0  0  0  0
  131.9230  131.9910   57.7120 C   0  0  0  0  0  0  0  0  0  0  0  0
  133.4080  132.3120   57.5800 C   0  0  0  0  0  0  0  0  0  0  0  0
  131.0910  132.7430   57.2060 O   0  0  0  0  0  0  0  0  0  0  0  0
  129.5130  131.3170   59.5810 C   0  0  0  0  0  0  0  0  0  0  0  0
  130.1640  132.1120   60.5390 C   0  0  0  0  0  0  0  0  0  0  0  0
  129.4500  133.0010   61.3380 C   0  0  0  0  0  0  0  0  0  0  0  0
  128.0650  133.1160   61.2030 C   0  0  0  0  0  0  0  0  0  0  0  0
  127.2680  134.0890   62.0700 C   0  0  0  0  0  0  0  0  0  0  0  0
  127.8740  135.2770   62.1230 F   0  0  0  0  0  0  0  0  0  0  0  0
  126.0560  134.2530   61.5420 F   0  0  0  0  0  0  0  0  0  0  0  0
  127.1240  133.6460   63.3210 F   0  0  0  0  0  0  0  0  0  0  0  0
  127.4020  132.3270   60.2620 C   0  0  0  0  0  0  0  0  0  0  0  0
  128.1190  131.4400   59.4640 C   0  0  0  0  0  0  0  0  0  0  0  0
  129.5170  130.0120   57.3060 C   0  0  0  0  0  0  0  0  0  0  0  0
  128.3310  129.0150   57.3910 C   0  0  0  0  0  0  0  0  0  0  0  0
  130.8690  124.1100   60.1530 C   0  0  0  0  0  0  0  0  0  0  0  0
  130.8580  122.5610   60.2270 C   0  0  0  0  0  0  0  0  0  0  0  0
  1  2  1  0
  2  3  2  0
  2  4  1  0
  4  5  1  0
  5  6  1  0
  6  7  2  0
  7  8  1  0
  8  9  2  0
  9 10  1  0
 10 11  1  0
 10 12  1  0
 10 13  1  0
  9 14  1  0
 14 15  2  0
  5 16  1  0
 16 17  1  0
 17 18  1  0
 18 19  1  0
 19 20  2  0
 19 21  1  0
 21 22  1  0
 22 23  1  0
 23 24  2  0
 23 25  1  0
 25 26  1  0
 26 27  1  0
 27 28  1  0
 28 29  1  0
 29 30  1  0
 30 31  1  0
 30 32  2  0
 28 33  1  0
 33 34  2  0
 34 35  1  0
 35 36  2  0
 36 37  1  0
 37 38  1  0
 37 39  1  0
 37 40  1  0
 36 41  1  0
 41 42  2  0
 28 43  1  0
 43 44  1  0
 18 45  1  0
 45 46  1  0
 46  5  1  0
 15  6  1  0
 44 25  1  0
 42 33  1  0
M  END
>  <Binding energies>  (79) 
[-10.69]

>  <Ligand effiencies>  (79) 
[-0.2227083333333333]

>  <Interactions>  (79) 
["H-A:TYR:539:N:4868, V-A:TYR:539:CD1:4871, V-A:PRO:540:N:4882, V-A:MET:535:CE:4833, V-A:LEU:363:CD1:3186, V-A:PRO:540:CG:4884, V-A:PRO:540:CD:4885, V-A:PRO:540:CA:4881, V-A:TYR:539:CE1:4873, V-B:LEU:475:CD2:9230, V-A:PRO:540:CB:4883, V-A:ALA:541:CB:4890, V-A:TYR:539:C:4865, V-B:TYR:539:CE1:9847, V-B:TYR:539:CD1:9845, V-A:ASP:366:CB:3209, V-B:TYR:539:CZ:9849, V-B:GLU:543:CD:9880, V-A:LEU:475:CD2:4256, V-A:LEU:373:CD1:3277, V-A:PRO:482:CB:4323, V-B:ALA:541:CB:9864, V-A:PRO:482:CG:4324, V-A:PRO:540:C:4879, V-A:ASP:366:CG:3210, V-A:TYR:484:CZ:4344, V-B:GLU:543:CB:9878, V-A:ILE:369:CD1:3236, H-B:TYR:539:OH:9850, V-A:ILE:369:CG2:3234, H-A:TYR:484:OH:4345, V-A:ALA:541:CA:4888, V-A:SER:385:CA:3404, V-A:SER:385:CB:3406, V-B:PRO:482:CB:9297, V-A:LEU:363:CA:3182, V-A:LEU:363:CB:3184, H-A:ASP:366:OD2:3212, V-B:VAL:344:CG1:7972, V-A:HIS:383:CG:3387, V-A:HIS:383:CB:3386, V-A:TYR:484:CE2:4343"]

$$$$
RR29_Rahimova_2017
     RDKit          3D

 18 19  0  0  0  0  0  0  0  0999 V2000
  134.5960  124.3770   61.5750 C   0  0  0  0  0  0  0  0  0  0  0  0
  133.6710  123.6750   62.5590 C   0  0  0  0  0  0  0  0  0  0  0  0
  133.5400  122.1590   62.2880 C   0  0  0  0  0  0  0  0  0  0  0  0
  132.6130  121.8720   61.0880 C   0  0  0  0  0  0  0  0  0  0  0  0
  132.2260  120.4050   60.9970 C   0  0  0  0  0  0  0  0  0  0  0  0
  130.9020  120.0080   61.2720 C   0  0  0  0  0  0  0  0  0  0  0  0
  130.5230  118.6600   61.1920 C   0  0  0  0  0  0  0  0  0  0  0  0
  131.5020  117.7370   60.8450 C   0  0  0  0  0  0  0  0  0  0  0  0
  132.7880  118.1150   60.5790 C   0  0  0  0  0  0  0  0  0  0  0  0
  133.1900  119.4450   60.6400 C   0  0  0  0  0  0  0  0  0  0  0  0
  133.5170  117.0210   60.2360 O   0  0  0  0  0  0  0  0  0  0  0  0
  132.6940  115.9170   60.5050 C   0  0  0  0  0  0  0  0  0  0  0  0
  131.3850  116.3930   60.6760 O   0  0  0  0  0  0  0  0  0  0  0  0
  133.1040  124.3710   63.4730 N   0  0  0  0  0  0  0  0  0  0  0  0
  132.2010  123.7550   64.3110 N   0  0  0  0  0  0  0  0  0  0  0  0
  130.8830  124.0140   64.3180 C   0  0  0  0  0  0  0  0  0  0  0  0
  130.2730  124.8810   63.5090 N   0  0  0  0  0  0  0  0  0  0  0  0
  130.1310  123.3600   65.1910 N   0  0  0  0  0  0  0  0  0  0  0  0
  1  2  1  0
  2  3  1  0
  3  4  1  0
  4  5  1  0
  5  6  2  0
  6  7  1  0
  7  8  2  0
  8  9  1  0
  9 10  2  0
  9 11  1  0
 11 12  1  0
 12 13  1  0
  2 14  2  0
 14 15  1  0
 15 16  1  0
 16 17  1  0
 16 18  2  0
 10  5  1  0
 13  8  1  0
M  CHG  1  18   1
M  END
>  <Binding energies>  (80) 
[-7.63]

>  <Ligand effiencies>  (80) 
[-0.3317391304347826]

>  <Interactions>  (80) 
["V-B:TYR:539:CE1:9847, V-B:TYR:539:CD1:9845, V-B:GLU:543:CD:9880, V-A:LEU:475:CD2:4256, V-A:LEU:373:CD1:3277, V-A:PRO:482:CB:4323, V-B:ALA:541:CB:9864, V-A:PRO:482:CG:4324, H-B:GLU:543:OE2:9882, H-B:GLU:543:OE1:9881, V-A:GLY:453:CA:4041, V-A:GLY:454:CA:4046, V-A:GLY:453:C:4039, V-B:GLU:543:CG:9879, V-A:TYR:484:CZ:4344, V-B:GLU:543:CB:9878, V-A:ILE:369:CD1:3236, V-A:ILE:369:CG2:3234, H-A:GLY:454:N:4047, H-A:TYR:484:OH:4345, V-A:SER:385:CA:3404, V-A:SER:385:CB:3406, H-A:SER:385:N:3405, V-A:TYR:484:CE2:4343"]

$$$$
RR30_Rahimova_2017
     RDKit          3D

 18 19  0  0  0  0  0  0  0  0999 V2000
  125.8730  138.8010   60.2130 C   0  0  0  0  0  0  0  0  0  0  0  0
  125.2360  137.7150   61.0910 C   0  0  0  0  0  0  0  0  0  0  0  0
  126.2000  136.5900   61.4010 C   0  0  0  0  0  0  0  0  0  0  0  0
  127.4510  136.6770   61.7780 N   0  0  0  0  0  0  0  0  0  0  0  0
  127.8980  135.3660   61.9250 N   0  0  0  0  0  0  0  0  0  0  0  0
  126.8820  134.6010   61.6150 C   0  0  0  0  0  0  0  0  0  0  0  0
  126.8220  132.8390   61.6220 S   0  0  0  0  0  0  0  0  0  0  0  0
  128.4950  132.4710   62.2390 C   0  0  0  0  0  0  0  0  0  0  0  0
  129.5310  132.4270   61.1120 C   0  0  0  0  0  0  0  0  0  0  0  0
  130.7190  132.2530   61.3930 O   0  0  0  0  0  0  0  0  0  0  0  0
  129.0530  132.6220   59.8630 N   0  0  0  0  0  0  0  0  0  0  0  0
  129.7930  132.6290   58.6900 C   0  0  0  0  0  0  0  0  0  0  0  0
  129.5090  133.2230   57.5530 N   0  0  0  0  0  0  0  0  0  0  0  0
  130.4860  133.0120   56.5880 N   0  0  0  0  0  0  0  0  0  0  0  0
  131.4820  132.2680   57.0110 C   0  0  0  0  0  0  0  0  0  0  0  0
  132.6630  131.8960   56.1440 C   0  0  0  0  0  0  0  0  0  0  0  0
  131.2950  131.7600   58.6670 S   0  0  0  0  0  0  0  0  0  0  0  0
  125.7730  135.3080   61.2780 O   0  0  0  0  0  0  0  0  0  0  0  0
  1  2  1  0
  2  3  1  0
  3  4  2  0
  4  5  1  0
  5  6  2  0
  6  7  1  0
  7  8  1  0
  8  9  1  0
  9 10  2  0
  9 11  1  0
 11 12  1  0
 12 13  2  0
 13 14  1  0
 14 15  2  0
 15 16  1  0
 15 17  1  0
  6 18  1  0
 18  3  1  0
 17 12  1  0
M  END
>  <Binding energies>  (81) 
[-7.34]

>  <Ligand effiencies>  (81) 
[-0.3863157894736842]

>  <Interactions>  (81) 
["H-A:TYR:539:N:4868, V-A:TYR:539:CD1:4871, V-A:PRO:540:N:4882, V-A:LEU:363:CD1:3186, V-A:ILE:538:CG2:4861, V-A:PRO:540:CD:4885, V-A:PRO:540:CA:4881, V-A:TYR:531:CE2:4791, V-A:TYR:539:CE1:4873, V-B:LEU:475:CD2:9230, V-A:ILE:538:CB:4860, V-A:TYR:531:CZ:4792, V-A:PRO:540:CB:4883, H-A:ALA:541:N:4889, V-A:ALA:541:CB:4890, V-A:TYR:539:C:4865, V-A:PRO:540:C:4879, H-A:TYR:539:O:4866, V-B:SER:385:CB:8380, V-B:LEU:373:CD1:8251, V-B:SER:385:CA:8378, V-A:TYR:539:CB:4869"]

$$$$
RR31_Rahimova_2017
     RDKit          3D

 18 19  0  0  0  0  0  0  0  0999 V2000
  126.3660  140.4880   59.9290 C   0  0  0  0  0  0  0  0  0  0  0  0
  126.1320  139.0650   60.4170 C   0  0  0  0  0  0  0  0  0  0  0  0
  127.2200  138.2010   60.5470 C   0  0  0  0  0  0  0  0  0  0  0  0
  127.0390  136.8940   60.9940 C   0  0  0  0  0  0  0  0  0  0  0  0
  125.7640  136.4130   61.3330 C   0  0  0  0  0  0  0  0  0  0  0  0
  125.5650  135.1020   61.7730 N   0  0  0  0  0  0  0  0  0  0  0  0
  124.2670  134.4160   61.6240 C   0  0  0  0  0  0  0  0  0  0  0  0
  124.1110  133.1620   62.5150 C   0  0  0  0  0  0  0  0  0  0  0  0
  125.1990  132.2100   62.2760 N   0  0  0  0  0  0  0  0  0  0  0  0
  125.0580  130.9930   63.0820 C   0  0  0  0  0  0  0  0  0  0  0  0
  126.3800  130.5520   63.7420 C   0  0  0  0  0  0  0  0  0  0  0  0
  126.7950  129.1320   63.3250 C   0  0  0  0  0  0  0  0  0  0  0  0
  127.8570  128.5920   64.2890 N   0  0  0  0  0  0  0  0  0  0  0  0
  126.4520  132.8840   62.6150 C   0  0  0  0  0  0  0  0  0  0  0  0
  126.6690  134.1230   61.7170 C   0  0  0  0  0  0  0  0  0  0  0  0
  124.6780  137.2890   61.1900 C   0  0  0  0  0  0  0  0  0  0  0  0
  124.8460  138.6040   60.7400 C   0  0  0  0  0  0  0  0  0  0  0  0
  123.6240  139.5040   60.6030 C   0  0  0  0  0  0  0  0  0  0  0  0
  1  2  1  0
  2  3  2  0
  3  4  1  0
  4  5  2  0
  5  6  1  0
  6  7  1  0
  7  8  1  0
  8  9  1  0
  9 10  1  0
 10 11  1  0
 11 12  1  0
 12 13  1  0
  9 14  1  0
 14 15  1  0
  5 16  1  0
 16 17  2  0
 17 18  1  0
 17  2  1  0
 15  6  1  0
M  CHG  1  13   1
M  END
>  <Binding energies>  (82) 
[-8.42]

>  <Ligand effiencies>  (82) 
[-0.40095238095238095]

>  <Interactions>  (82) 
["V-A:TYR:539:CD1:4871, V-A:TYR:539:CE1:4873, V-A:GLU:543:CD:4906, V-B:LEU:475:CD2:9230, V-A:TYR:539:C:4865, V-B:GLU:543:CD:9880, H-B:GLU:543:OE2:9882, H-B:GLU:543:OE1:9881, H-A:GLU:543:OE2:4908, H-A:GLU:543:OE1:4907, V-A:TYR:539:CG:4870, V-B:GLY:454:CA:9020, V-B:ILE:369:CD1:8210, V-B:SER:385:CB:8380, V-B:PRO:482:CG:9298, V-B:ILE:369:CG2:8208, V-B:LEU:373:CD1:8251, V-B:PRO:482:CB:9297, V-B:SER:385:CA:8378, V-A:TYR:539:CB:4869, V-A:VAL:344:CG1:2998, V-B:HIS:383:CG:8361, V-B:HIS:383:CB:8360, V-B:VAL:384:C:8368, V-B:HIS:383:CD2:8363, V-B:LEU:373:CD2:8252, V-B:HIS:383:CE1:8365, V-B:HIS:383:CA:8358, V-B:HIS:383:C:8356"]

$$$$
RR32_Rahimova_2017
     RDKit          3D

 18 20  0  0  0  0  0  0  0  0999 V2000
  132.3740  131.1290   61.3330 C   0  0  0  0  0  0  0  0  0  0  0  0
  131.3550  131.6420   60.3200 C   0  0  0  0  0  0  0  0  0  0  0  0
  130.0770  131.9670   60.7760 C   0  0  0  0  0  0  0  0  0  0  0  0
  129.1220  132.4400   59.8810 C   0  0  0  0  0  0  0  0  0  0  0  0
  127.8560  132.7620   60.3370 N   0  0  0  0  0  0  0  0  0  0  0  0
  126.9400  131.6440   60.6320 C   0  0  0  0  0  0  0  0  0  0  0  0
  125.5000  132.1050   60.9590 C   0  0  0  0  0  0  0  0  0  0  0  0
  125.5080  133.0160   62.1030 N   0  0  0  0  0  0  0  0  0  0  0  0
  124.1470  133.4250   62.4310 C   0  0  0  0  0  0  0  0  0  0  0  0
  126.3150  134.1810   61.7460 C   0  0  0  0  0  0  0  0  0  0  0  0
  127.7670  133.7520   61.4280 C   0  0  0  0  0  0  0  0  0  0  0  0
  129.3770  132.6030   58.5570 N   0  0  0  0  0  0  0  0  0  0  0  0
  130.6140  132.2920   58.0810 C   0  0  0  0  0  0  0  0  0  0  0  0
  130.8510  132.4690   56.6960 C   0  0  0  0  0  0  0  0  0  0  0  0
  132.0950  132.1670   56.1540 C   0  0  0  0  0  0  0  0  0  0  0  0
  133.1190  131.6900   56.9640 C   0  0  0  0  0  0  0  0  0  0  0  0
  132.9190  131.5040   58.3290 C   0  0  0  0  0  0  0  0  0  0  0  0
  131.6600  131.8000   58.9280 C   0  0  0  0  0  0  0  0  0  0  0  0
  1  2  1  0
  2  3  2  0
  3  4  1  0
  4  5  1  0
  5  6  1  0
  6  7  1  0
  7  8  1  0
  8  9  1  0
  8 10  1  0
 10 11  1  0
  4 12  2  0
 12 13  1  0
 13 14  2  0
 14 15  1  0
 15 16  2  0
 16 17  1  0
 17 18  2  0
 18  2  1  0
 11  5  1  0
 18 13  1  0
M  END
>  <Binding energies>  (83) 
[-6.67]

>  <Ligand effiencies>  (83) 
[-0.3705555555555555]

>  <Interactions>  (83) 
["V-A:TYR:539:CD1:4871, V-A:PRO:540:N:4882, V-A:LEU:363:CD1:3186, V-A:ILE:538:CG2:4861, V-A:PRO:540:CA:4881, V-A:TYR:531:CE2:4791, V-A:TYR:539:CE1:4873, V-B:LEU:475:CD2:9230, V-A:ILE:538:CB:4860, V-A:TYR:531:CZ:4792, V-A:PRO:540:CB:4883, V-A:ALA:541:CB:4890, V-A:TYR:539:C:4865, V-B:GLY:454:CA:9020, V-B:ILE:369:CD1:8210, V-B:ILE:369:CG2:8208"]

$$$$
RR5_Rahimova_2017
     RDKit          3D

 45 50  0  0  0  0  0  0  0  0999 V2000
  130.9120  128.8400   60.5630 O   0  0  0  0  0  0  0  0  0  0  0  0
  130.1750  128.1780   59.8330 C   0  0  0  0  0  0  0  0  0  0  0  0
  130.2610  126.6400   59.8530 C   0  0  0  0  0  0  0  0  0  0  0  0
  131.1600  126.0350   58.7170 C   0  0  2  0  0  0  0  0  0  0  0  0
  130.4330  125.2530   57.6960 N   0  0  0  0  0  0  0  0  0  0  0  0
  129.1240  125.5550   57.3450 C   0  0  0  0  0  0  0  0  0  0  0  0
  128.4430  126.4900   57.7730 O   0  0  0  0  0  0  0  0  0  0  0  0
  128.7020  124.6380   56.4560 O   0  0  0  0  0  0  0  0  0  0  0  0
  129.0560  123.2640   56.5810 C   0  0  0  0  0  0  0  0  0  0  0  0
  128.0490  122.5180   57.4840 C   0  0  0  0  0  0  0  0  0  0  0  0
  128.2500  122.7780   58.9660 C   0  0  0  0  0  0  0  0  0  0  0  0
  129.3790  122.5620   59.7620 C   0  0  0  0  0  0  0  0  0  0  0  0
  129.3500  122.9000   61.1160 C   0  0  0  0  0  0  0  0  0  0  0  0
  128.1960  123.4500   61.6770 C   0  0  0  0  0  0  0  0  0  0  0  0
  127.0670  123.6650   60.8850 C   0  0  0  0  0  0  0  0  0  0  0  0
  127.0980  123.3260   59.5310 C   0  0  0  0  0  0  0  0  0  0  0  0
  126.0710  123.4320   58.4820 C   0  0  0  0  0  0  0  0  0  0  0  0
  124.7540  123.8960   58.5290 C   0  0  0  0  0  0  0  0  0  0  0  0
  123.9720  123.8680   57.3740 C   0  0  0  0  0  0  0  0  0  0  0  0
  124.5040  123.3800   56.1780 C   0  0  0  0  0  0  0  0  0  0  0  0
  125.8200  122.9210   56.1350 C   0  0  0  0  0  0  0  0  0  0  0  0
  126.6090  122.9510   57.2880 C   0  0  0  0  0  0  0  0  0  0  0  0
  132.3010  125.1770   59.3160 C   0  0  0  0  0  0  0  0  0  0  0  0
  132.9510  124.3590   58.6960 O   0  0  0  0  0  0  0  0  0  0  0  0
  132.4720  125.4960   60.6330 O   0  0  0  0  0  0  0  0  0  0  0  0
  129.2400  128.6980   59.0050 N   0  0  0  0  0  0  0  0  0  0  0  0
  128.8200  130.0930   58.6780 C   0  0  0  0  0  0  0  0  0  0  0  0
  128.6230  130.7180   60.1010 C   0  0  0  0  0  0  0  0  0  0  0  0
  129.0830  132.0100   60.4040 C   0  0  0  0  0  0  0  0  0  0  0  0
  128.9020  132.5550   61.6720 C   0  0  0  0  0  0  0  0  0  0  0  0
  128.2660  131.8130   62.6620 C   0  0  0  0  0  0  0  0  0  0  0  0
  127.7990  130.5330   62.3890 C   0  0  0  0  0  0  0  0  0  0  0  0
  127.9720  129.9920   61.1190 C   0  0  0  0  0  0  0  0  0  0  0  0
  129.9920  130.7610   57.8850 C   0  0  0  0  0  0  0  0  0  0  0  0
  131.3060  130.2720   57.9600 C   0  0  0  0  0  0  0  0  0  0  0  0
  132.3380  130.8940   57.2610 C   0  0  0  0  0  0  0  0  0  0  0  0
  132.0700  132.0140   56.4800 C   0  0  0  0  0  0  0  0  0  0  0  0
  130.7750  132.5140   56.3870 C   0  0  0  0  0  0  0  0  0  0  0  0
  129.7440  131.8860   57.0790 C   0  0  0  0  0  0  0  0  0  0  0  0
  127.4790  129.9670   57.8790 C   0  0  0  0  0  0  0  0  0  0  0  0
  127.4830  129.7580   56.4880 C   0  0  0  0  0  0  0  0  0  0  0  0
  126.2940  129.6530   55.7700 C   0  0  0  0  0  0  0  0  0  0  0  0
  125.0770  129.7490   56.4340 C   0  0  0  0  0  0  0  0  0  0  0  0
  125.0410  129.9420   57.8100 C   0  0  0  0  0  0  0  0  0  0  0  0
  126.2310  130.0460   58.5240 C   0  0  0  0  0  0  0  0  0  0  0  0
  1  2  2  0
  2  3  1  0
  4  3  1  1
  4  5  1  0
  5  6  1  0
  6  7  2  0
  6  8  1  0
  8  9  1  0
  9 10  1  0
 10 11  1  0
 11 12  2  0
 12 13  1  0
 13 14  2  0
 14 15  1  0
 15 16  2  0
 16 17  1  0
 17 18  2  0
 18 19  1  0
 19 20  2  0
 20 21  1  0
 21 22  2  0
  4 23  1  0
 23 24  2  0
 23 25  1  0
  2 26  1  0
 26 27  1  0
 27 28  1  0
 28 29  2  0
 29 30  1  0
 30 31  2  0
 31 32  1  0
 32 33  2  0
 27 34  1  0
 34 35  2  0
 35 36  1  0
 36 37  2  0
 37 38  1  0
 38 39  2  0
 27 40  1  0
 40 41  2  0
 41 42  1  0
 42 43  2  0
 43 44  1  0
 44 45  2  0
 22 10  1  0
 33 28  1  0
 39 34  1  0
 45 40  1  0
 16 11  1  0
 22 17  1  0
M  END
>  <Binding energies>  (84) 
[-10.61]

>  <Ligand effiencies>  (84) 
[-0.22104166666666666]

>  <Interactions>  (84) 
["V-A:MET:535:CE:4833, V-A:LEU:363:CD1:3186, V-A:ILE:538:CG2:4861, V-A:TYR:531:CE2:4791, V-A:ILE:538:CB:4860, V-A:TYR:531:CZ:4792, V-A:ALA:541:CB:4890, V-A:TYR:539:CZ:4875, V-B:TYR:539:CE1:9847, V-B:TYR:539:CD1:9845, V-B:TYR:531:CE2:9765, V-A:ASP:366:CB:3209, V-B:PRO:540:CA:9855, V-B:ILE:538:CB:9834, V-B:MET:535:CE:9807, V-B:TYR:539:CZ:9849, V-B:LEU:363:CD1:8160, V-B:PRO:540:N:9856, V-B:TYR:539:C:9839, V-B:TYR:531:CZ:9766, V-B:PRO:540:CB:9857, V-B:ILE:538:CG2:9835, V-B:TYR:539:CG:9844, V-B:TYR:539:CA:9841, V-B:ALA:541:CB:9864, V-A:ASP:366:CG:3210, H-A:ARG:545:NH2:4926, V-B:LEU:363:CA:8156, V-B:ASP:366:CB:8183, V-B:ASP:366:CG:8184, V-B:ILE:538:CA:9832, H-B:TYR:539:OH:9850, V-A:ILE:538:CA:4858, H-A:ASP:366:OD2:3212, V-B:TYR:539:CE2:9848, H-A:ASP:366:OD1:3211, V-B:TYR:539:CD2:9846, V-B:TYR:531:CE1:9764, V-B:ASN:370:CB:8216"]

$$$$
